GIL.pdb
     RDKit          3D

 21 20  0  0  1  0  0  0  0  0999 V2000
   28.6157  -20.5685  -14.6647 N   0  0  0  0  0  0  0  0  0  0  0  0
   27.6866  -21.4883  -15.2380 C   0  0  0  0  0  0  0  0  0  0  0  0
   26.4989  -21.7234  -14.3742 C   0  0  0  0  0  0  0  0  0  0  0  0
   25.7304  -22.6969  -14.6015 O   0  0  0  0  0  0  0  0  0  0  0  0
   26.7990  -20.3385   -9.1120 C   0  0  0  0  0  0  0  0  0  0  0  0
   26.4336  -21.0531  -10.3704 C   0  0  0  0  0  0  0  0  0  0  0  0
   25.2305  -20.4476  -11.0595 C   0  0  2  0  0  0  0  0  0  0  0  0
   23.9954  -20.5063  -10.2116 C   0  0  0  0  0  0  0  0  0  0  0  0
   25.0396  -21.1215  -12.4136 C   0  0  2  0  0  0  0  0  0  0  0  0
   26.1865  -20.8759  -13.2765 N   0  0  0  0  0  0  0  0  0  0  0  0
   23.8662  -20.4667  -13.0641 C   0  0  0  0  0  0  0  0  0  0  0  0
   24.0707  -19.3008  -13.5201 O   0  0  0  0  0  0  0  0  0  0  0  0
   21.4972  -20.8258  -17.9793 C   0  0  0  0  0  0  0  0  0  0  0  0
   21.0338  -20.5266  -16.5644 C   0  0  1  0  0  0  0  0  0  0  0  0
   19.6444  -21.1473  -16.3860 C   0  0  0  0  0  0  0  0  0  0  0  0
   21.9887  -21.0534  -15.5381 C   0  0  0  0  0  0  0  0  0  0  0  0
   21.6740  -20.5171  -14.1835 C   0  0  2  0  0  0  0  0  0  0  0  0
   22.6075  -21.0584  -13.1863 N   0  0  0  0  0  0  0  0  0  0  0  0
   20.3264  -20.7937  -13.6729 C   0  0  0  0  0  0  0  0  0  0  0  0
   20.0916  -21.8386  -13.0320 O   0  0  0  0  0  0  0  0  0  0  0  0
   19.3006  -19.8968  -13.8974 O   0  0  0  0  0  0  0  0  0  0  0  0
  1  2  1  0
  2  3  1  0
  3  4  2  0
  3 10  1  0
  6  5  1  0
  7  6  1  0
  7  8  1  1
  9  7  1  0
  9 10  1  6
 11  9  1  0
 11 18  1  0
 12 11  2  0
 14 15  1  1
 14 16  1  0
 14 13  1  0
 17 16  1  6
 17 18  1  0
 19 17  1  0
 20 19  2  0
 21 19  1  0
M  END
$$$$
