GIL.pdb
     RDKit          3D

 21 20  0  0  1  0  0  0  0  0999 V2000
   23.6132  -16.5193  -17.9938 N   0  0  0  0  0  0  0  0  0  0  0  0
   22.6472  -15.7867  -17.2401 C   0  0  0  0  0  0  0  0  0  0  0  0
   22.5214  -14.3722  -17.6823 C   0  0  0  0  0  0  0  0  0  0  0  0
   23.2130  -13.9435  -18.6455 O   0  0  0  0  0  0  0  0  0  0  0  0
   20.1692  -10.3587  -19.7536 C   0  0  0  0  0  0  0  0  0  0  0  0
   19.7574  -10.4488  -18.3218 C   0  0  0  0  0  0  0  0  0  0  0  0
   19.9335  -11.8376  -17.7481 C   0  0  2  0  0  0  0  0  0  0  0  0
   19.1444  -12.0414  -16.4897 C   0  0  0  0  0  0  0  0  0  0  0  0
   21.4204  -12.1123  -17.5538 C   0  0  2  0  0  0  0  0  0  0  0  0
   21.6324  -13.4615  -17.0489 N   0  0  0  0  0  0  0  0  0  0  0  0
   21.9008  -11.1778  -16.4933 C   0  0  0  0  0  0  0  0  0  0  0  0
   21.4064  -11.3561  -15.3389 O   0  0  0  0  0  0  0  0  0  0  0  0
   27.0217  -10.1193  -15.9438 C   0  0  0  0  0  0  0  0  0  0  0  0
   25.5462  -10.3727  -15.6892 C   0  0  1  0  0  0  0  0  0  0  0  0
   25.4228  -11.1190  -14.3568 C   0  0  0  0  0  0  0  0  0  0  0  0
   24.7549   -9.1017  -15.6635 C   0  0  0  0  0  0  0  0  0  0  0  0
   23.2943   -9.3781  -15.5549 C   0  0  2  0  0  0  0  0  0  0  0  0
   22.8313  -10.1596  -16.7097 N   0  0  0  0  0  0  0  0  0  0  0  0
   22.4158   -8.2053  -15.4775 C   0  0  0  0  0  0  0  0  0  0  0  0
   21.8278   -7.7835  -16.4944 O   0  0  0  0  0  0  0  0  0  0  0  0
   22.2301   -7.5543  -14.2738 O   0  0  0  0  0  0  0  0  0  0  0  0
  1  2  1  0
  2  3  1  0
  3  4  2  0
  3 10  1  0
  6  5  1  0
  7  6  1  0
  7  8  1  1
  9  7  1  0
  9 10  1  1
 11  9  1  0
 11 18  1  0
 12 11  2  0
 14 15  1  1
 14 16  1  0
 14 13  1  0
 17 16  1  6
 17 18  1  0
 19 17  1  0
 20 19  2  0
 21 19  1  0
M  END
$$$$
