GIL.pdb
     RDKit          3D

 21 20  0  0  1  0  0  0  0  0999 V2000
   17.8463  -15.2020  -17.0480 N   0  0  0  0  0  0  0  0  0  0  0  0
   17.4405  -13.9779  -16.4359 C   0  0  0  0  0  0  0  0  0  0  0  0
   18.1690  -12.7960  -16.9694 C   0  0  0  0  0  0  0  0  0  0  0  0
   19.0607  -12.9428  -17.8489 O   0  0  0  0  0  0  0  0  0  0  0  0
   17.1083   -7.0876  -18.6738 C   0  0  0  0  0  0  0  0  0  0  0  0
   18.0844   -8.1386  -18.2610 C   0  0  0  0  0  0  0  0  0  0  0  0
   17.4257   -9.3073  -17.5616 C   0  0  2  0  0  0  0  0  0  0  0  0
   16.5647   -8.8756  -16.4127 C   0  0  0  0  0  0  0  0  0  0  0  0
   18.4981  -10.3065  -17.1422 C   0  0  2  0  0  0  0  0  0  0  0  0
   17.8954  -11.4760  -16.5183 N   0  0  0  0  0  0  0  0  0  0  0  0
   19.3269   -9.6411  -16.0938 C   0  0  0  0  0  0  0  0  0  0  0  0
   18.8040   -9.5752  -14.9400 O   0  0  0  0  0  0  0  0  0  0  0  0
   24.4191  -11.0125  -15.3444 C   0  0  0  0  0  0  0  0  0  0  0  0
   22.9761  -10.5730  -15.1693 C   0  0  1  0  0  0  0  0  0  0  0  0
   22.5139  -11.0273  -13.7810 C   0  0  0  0  0  0  0  0  0  0  0  0
   22.8177   -9.0922  -15.3259 C   0  0  0  0  0  0  0  0  0  0  0  0
   21.3941   -8.6821  -15.1620 C   0  0  2  0  0  0  0  0  0  0  0  0
   20.5985   -9.1112  -16.3204 N   0  0  0  0  0  0  0  0  0  0  0  0
   21.1466   -7.2441  -15.0075 C   0  0  0  0  0  0  0  0  0  0  0  0
   20.8237   -6.5455  -15.9901 O   0  0  0  0  0  0  0  0  0  0  0  0
   21.2690   -6.6470  -13.7683 O   0  0  0  0  0  0  0  0  0  0  0  0
  1  2  1  0
  2  3  1  0
  3  4  2  0
  3 10  1  0
  6  5  1  0
  7  6  1  0
  7  8  1  1
  9  7  1  0
  9 10  1  1
 11  9  1  0
 11 18  1  0
 12 11  2  0
 14 15  1  1
 14 16  1  0
 14 13  1  0
 17 16  1  6
 17 18  1  0
 19 17  1  0
 20 19  2  0
 21 19  1  0
M  END
$$$$
