GIL.pdb
     RDKit          3D

 21 20  0  0  1  0  0  0  0  0999 V2000
   15.8910   -9.9389    8.7680 N   0  0  0  0  0  0  0  0  0  0  0  0
   17.1413  -10.1060    9.4363 C   0  0  0  0  0  0  0  0  0  0  0  0
   18.0048  -11.1346    8.7973 C   0  0  0  0  0  0  0  0  0  0  0  0
   17.5335  -11.8998    7.9128 O   0  0  0  0  0  0  0  0  0  0  0  0
   22.9957   -9.6837    7.9646 C   0  0  0  0  0  0  0  0  0  0  0  0
   21.7751  -10.4842    7.6531 C   0  0  0  0  0  0  0  0  0  0  0  0
   21.6831  -11.7538    8.4707 C   0  0  2  0  0  0  0  0  0  0  0  0
   22.6461  -12.8049    8.0063 C   0  0  0  0  0  0  0  0  0  0  0  0
   20.2398  -12.2450    8.4687 C   0  0  2  0  0  0  0  0  0  0  0  0
   19.3724  -11.2950    9.1509 N   0  0  0  0  0  0  0  0  0  0  0  0
   20.2076  -13.5052    9.2684 C   0  0  0  0  0  0  0  0  0  0  0  0
   20.4879  -13.3818   10.4994 O   0  0  0  0  0  0  0  0  0  0  0  0
   16.1836  -16.6099   10.2687 C   0  0  0  0  0  0  0  0  0  0  0  0
   17.5336  -15.9214   10.3672 C   0  0  1  0  0  0  0  0  0  0  0  0
   17.9195  -15.8580   11.8485 C   0  0  0  0  0  0  0  0  0  0  0  0
   18.5851  -16.6320    9.5723 C   0  0  0  0  0  0  0  0  0  0  0  0
   19.8910  -15.9174    9.6455 C   0  0  2  0  0  0  0  0  0  0  0  0
   19.8954  -14.7596    8.7410 N   0  0  0  0  0  0  0  0  0  0  0  0
   21.0817  -16.7048    9.3058 C   0  0  0  0  0  0  0  0  0  0  0  0
   21.5652  -17.5120   10.1257 O   0  0  0  0  0  0  0  0  0  0  0  0
   21.6814  -16.5599    8.0702 O   0  0  0  0  0  0  0  0  0  0  0  0
  1  2  1  0
  2  3  1  0
  3  4  2  0
  3 10  1  0
  6  5  1  0
  7  6  1  0
  7  8  1  6
  9  7  1  0
  9 10  1  1
 11  9  1  0
 11 18  1  0
 12 11  2  0
 14 15  1  1
 14 16  1  0
 14 13  1  0
 17 16  1  6
 17 18  1  0
 19 17  1  0
 20 19  2  0
 21 19  1  0
M  END
$$$$
