GIL.pdb
     RDKit          3D

 21 20  0  0  1  0  0  0  0  0999 V2000
   19.5830  -11.9338  -19.4443 N   0  0  0  0  0  0  0  0  0  0  0  0
   19.7024  -10.5432  -19.1449 C   0  0  0  0  0  0  0  0  0  0  0  0
   20.0899  -10.2877  -17.7319 C   0  0  0  0  0  0  0  0  0  0  0  0
   19.3019  -10.5842  -16.7932 O   0  0  0  0  0  0  0  0  0  0  0  0
   24.4830  -11.9975  -15.7240 C   0  0  0  0  0  0  0  0  0  0  0  0
   23.1158  -11.4189  -15.8773 C   0  0  0  0  0  0  0  0  0  0  0  0
   23.0889   -9.9192  -15.6794 C   0  0  2  0  0  0  0  0  0  0  0  0
   23.5421   -9.5144  -14.3089 C   0  0  0  0  0  0  0  0  0  0  0  0
   21.6950   -9.3973  -16.0094 C   0  0  2  0  0  0  0  0  0  0  0  0
   21.3419   -9.7093  -17.3872 N   0  0  0  0  0  0  0  0  0  0  0  0
   21.7522   -7.9090  -15.9084 C   0  0  0  0  0  0  0  0  0  0  0  0
   22.5614   -7.3354  -16.6992 O   0  0  0  0  0  0  0  0  0  0  0  0
   17.9977   -4.6185  -16.7114 C   0  0  0  0  0  0  0  0  0  0  0  0
   19.4155   -5.1399  -16.5559 C   0  0  1  0  0  0  0  0  0  0  0  0
   20.3022   -4.3895  -17.5550 C   0  0  0  0  0  0  0  0  0  0  0  0
   19.9256   -4.9702  -15.1582 C   0  0  0  0  0  0  0  0  0  0  0  0
   21.2080   -5.7033  -14.9597 C   0  0  2  0  0  0  0  0  0  0  0  0
   20.9854   -7.1545  -15.0185 N   0  0  0  0  0  0  0  0  0  0  0  0
   21.9119   -5.4496  -13.6974 C   0  0  0  0  0  0  0  0  0  0  0  0
   22.4302   -4.3370  -13.4712 O   0  0  0  0  0  0  0  0  0  0  0  0
   22.0081   -6.4434  -12.7434 O   0  0  0  0  0  0  0  0  0  0  0  0
  1  2  1  0
  2  3  1  0
  3  4  2  0
  3 10  1  0
  6  5  1  0
  7  6  1  0
  7  8  1  1
  9  7  1  0
  9 10  1  6
 11  9  1  0
 11 18  1  0
 12 11  2  0
 14 15  1  6
 14 16  1  0
 14 13  1  0
 17 16  1  1
 17 18  1  0
 19 17  1  0
 20 19  2  0
 21 19  1  0
M  END
$$$$
