GIL.pdb
     RDKit          3D

 21 20  0  0  1  0  0  0  0  0999 V2000
   14.4079  -12.4042  -15.2333 N   0  0  0  0  0  0  0  0  0  0  0  0
   15.1853  -11.6515  -16.1644 C   0  0  0  0  0  0  0  0  0  0  0  0
   16.5417  -11.3219  -15.6510 C   0  0  0  0  0  0  0  0  0  0  0  0
   16.6940  -10.9344  -14.4608 O   0  0  0  0  0  0  0  0  0  0  0  0
   19.1052  -13.9040  -17.6195 C   0  0  0  0  0  0  0  0  0  0  0  0
   20.0158  -13.2560  -16.6302 C   0  0  0  0  0  0  0  0  0  0  0  0
   20.1067  -11.7569  -16.8122 C   0  0  2  0  0  0  0  0  0  0  0  0
   21.4770  -11.2261  -16.5149 C   0  0  0  0  0  0  0  0  0  0  0  0
   19.0273  -11.0858  -15.9704 C   0  0  2  0  0  0  0  0  0  0  0  0
   17.7016  -11.4281  -16.4660 N   0  0  0  0  0  0  0  0  0  0  0  0
   19.1856   -9.6126  -16.1532 C   0  0  0  0  0  0  0  0  0  0  0  0
   18.6424   -9.1264  -17.1912 O   0  0  0  0  0  0  0  0  0  0  0  0
   18.5687   -4.9044  -17.1102 C   0  0  0  0  0  0  0  0  0  0  0  0
   18.4372   -5.3284  -15.6579 C   0  0  1  0  0  0  0  0  0  0  0  0
   17.1259   -4.7483  -15.1181 C   0  0  0  0  0  0  0  0  0  0  0  0
   18.4648   -6.8176  -15.5035 C   0  0  0  0  0  0  0  0  0  0  0  0
   19.8627   -7.3345  -15.5107 C   0  0  2  0  0  0  0  0  0  0  0  0
   19.8768   -8.7835  -15.2678 N   0  0  0  0  0  0  0  0  0  0  0  0
   20.7771   -6.7468  -14.5249 C   0  0  0  0  0  0  0  0  0  0  0  0
   21.1442   -5.5584  -14.6277 O   0  0  0  0  0  0  0  0  0  0  0  0
   21.2421   -7.5061  -13.4692 O   0  0  0  0  0  0  0  0  0  0  0  0
  1  2  1  0
  2  3  1  0
  3  4  2  0
  3 10  1  0
  6  5  1  0
  7  6  1  0
  7  8  1  1
  9  7  1  0
  9 10  1  6
 11  9  1  0
 11 18  1  0
 12 11  2  0
 14 15  1  6
 14 16  1  0
 14 13  1  0
 17 16  1  1
 17 18  1  0
 19 17  1  0
 20 19  2  0
 21 19  1  0
M  END
$$$$
