GIL.pdb
     RDKit          3D

 21 20  0  0  1  0  0  0  0  0999 V2000
   21.4164  -19.7260  -13.7162 N   0  0  0  0  0  0  0  0  0  0  0  0
   22.6531  -19.1156  -13.3478 C   0  0  0  0  0  0  0  0  0  0  0  0
   23.7568  -20.0991  -13.1846 C   0  0  0  0  0  0  0  0  0  0  0  0
   23.5687  -21.3162  -13.4556 O   0  0  0  0  0  0  0  0  0  0  0  0
   28.7632  -18.8309  -14.5924 C   0  0  0  0  0  0  0  0  0  0  0  0
   27.4683  -19.4763  -14.2255 C   0  0  0  0  0  0  0  0  0  0  0  0
   27.4737  -20.0442  -12.8232 C   0  0  2  0  0  0  0  0  0  0  0  0
   28.6122  -20.9924  -12.5940 C   0  0  0  0  0  0  0  0  0  0  0  0
   26.1186  -20.6818  -12.5380 C   0  0  2  0  0  0  0  0  0  0  0  0
   25.0459  -19.7150  -12.7247 N   0  0  0  0  0  0  0  0  0  0  0  0
   26.1098  -21.0576  -11.0932 C   0  0  0  0  0  0  0  0  0  0  0  0
   26.6606  -22.1647  -10.8102 O   0  0  0  0  0  0  0  0  0  0  0  0
   27.9115  -18.4949   -7.0615 C   0  0  0  0  0  0  0  0  0  0  0  0
   27.4061  -19.6208   -7.9464 C   0  0  1  0  0  0  0  0  0  0  0  0
   28.2594  -20.8605   -7.6593 C   0  0  0  0  0  0  0  0  0  0  0  0
   25.9546  -19.9075   -7.7153 C   0  0  0  0  0  0  0  0  0  0  0  0
   25.4223  -20.8519   -8.7381 C   0  0  2  0  0  0  0  0  0  0  0  0
   25.5450  -20.2754  -10.0841 N   0  0  0  0  0  0  0  0  0  0  0  0
   24.0163  -21.2447   -8.5895 C   0  0  0  0  0  0  0  0  0  0  0  0
   23.1938  -21.0200   -9.5010 O   0  0  0  0  0  0  0  0  0  0  0  0
   23.5876  -21.8695   -7.4349 O   0  0  0  0  0  0  0  0  0  0  0  0
  1  2  1  0
  2  3  1  0
  3  4  2  0
  3 10  1  0
  6  5  1  0
  7  6  1  0
  7  8  1  6
  9  7  1  0
  9 10  1  1
 11  9  1  0
 11 18  1  0
 12 11  2  0
 14 15  1  1
 14 16  1  0
 14 13  1  0
 17 16  1  1
 17 18  1  0
 19 17  1  0
 20 19  2  0
 21 19  1  0
M  END
$$$$
