GIL.pdb
     RDKit          3D

 21 20  0  0  1  0  0  0  0  0999 V2000
   20.5085  -20.4988  -10.7474 N   0  0  0  0  0  0  0  0  0  0  0  0
   21.7482  -19.8194  -10.9457 C   0  0  0  0  0  0  0  0  0  0  0  0
   22.9016  -20.5319  -10.3339 C   0  0  0  0  0  0  0  0  0  0  0  0
   22.7089  -21.4200   -9.4597 O   0  0  0  0  0  0  0  0  0  0  0  0
   25.5552  -21.1419  -13.5632 C   0  0  0  0  0  0  0  0  0  0  0  0
   25.9789  -21.9642  -12.3919 C   0  0  0  0  0  0  0  0  0  0  0  0
   26.4716  -21.1241  -11.2341 C   0  0  2  0  0  0  0  0  0  0  0  0
   27.7567  -21.6394  -10.6590 C   0  0  0  0  0  0  0  0  0  0  0  0
   25.3670  -21.0187  -10.1886 C   0  0  2  0  0  0  0  0  0  0  0  0
   24.2445  -20.2464  -10.7025 N   0  0  0  0  0  0  0  0  0  0  0  0
   25.9271  -20.2475   -9.0397 C   0  0  0  0  0  0  0  0  0  0  0  0
   25.8191  -18.9862   -9.1199 O   0  0  0  0  0  0  0  0  0  0  0  0
   27.8585  -20.6018   -3.1830 C   0  0  0  0  0  0  0  0  0  0  0  0
   27.8293  -19.8934   -4.5259 C   0  0  1  0  0  0  0  0  0  0  0  0
   29.2773  -19.6016   -4.9325 C   0  0  0  0  0  0  0  0  0  0  0  0
   27.1347  -20.7065   -5.5741 C   0  0  0  0  0  0  0  0  0  0  0  0
   27.0240  -19.9529   -6.8553 C   0  0  2  0  0  0  0  0  0  0  0  0
   26.5384  -20.8312   -7.9285 N   0  0  0  0  0  0  0  0  0  0  0  0
   28.2596  -19.3408   -7.3571 C   0  0  0  0  0  0  0  0  0  0  0  0
   29.0436  -19.9909   -8.0784 O   0  0  0  0  0  0  0  0  0  0  0  0
   28.5682  -18.0338   -7.0349 O   0  0  0  0  0  0  0  0  0  0  0  0
  1  2  1  0
  2  3  1  0
  3  4  2  0
  3 10  1  0
  6  5  1  0
  7  6  1  0
  7  8  1  1
  9  7  1  0
  9 10  1  6
 11  9  1  0
 11 18  1  0
 12 11  2  0
 14 15  1  6
 14 16  1  0
 14 13  1  0
 17 16  1  1
 17 18  1  0
 19 17  1  0
 20 19  2  0
 21 19  1  0
M  END
$$$$
