GIL.pdb
     RDKit          3D

 21 20  0  0  1  0  0  0  0  0999 V2000
   28.7086  -21.3255  -14.8087 N   0  0  0  0  0  0  0  0  0  0  0  0
   28.1586  -20.4296  -13.8430 C   0  0  0  0  0  0  0  0  0  0  0  0
   27.0935  -21.0556  -13.0149 C   0  0  0  0  0  0  0  0  0  0  0  0
   26.5222  -22.1098  -13.4052 O   0  0  0  0  0  0  0  0  0  0  0  0
   27.0218  -19.9443   -7.6723 C   0  0  0  0  0  0  0  0  0  0  0  0
   26.8675  -20.6971   -8.9519 C   0  0  0  0  0  0  0  0  0  0  0  0
   25.5255  -20.4637   -9.6104 C   0  0  2  0  0  0  0  0  0  0  0  0
   24.3873  -21.0030   -8.7971 C   0  0  0  0  0  0  0  0  0  0  0  0
   25.5559  -21.0385  -11.0221 C   0  0  2  0  0  0  0  0  0  0  0  0
   26.6829  -20.5017  -11.7718 N   0  0  0  0  0  0  0  0  0  0  0  0
   24.3189  -20.5658  -11.7113 C   0  0  0  0  0  0  0  0  0  0  0  0
   24.2072  -19.3086  -11.8383 O   0  0  0  0  0  0  0  0  0  0  0  0
   21.5258  -19.5170  -15.8307 C   0  0  0  0  0  0  0  0  0  0  0  0
   21.2761  -20.9254  -15.3204 C   0  0  1  0  0  0  0  0  0  0  0  0
   21.0981  -21.8391  -16.5372 C   0  0  0  0  0  0  0  0  0  0  0  0
   22.3911  -21.4116  -14.4471 C   0  0  0  0  0  0  0  0  0  0  0  0
   22.2867  -20.8434  -13.0732 C   0  0  2  0  0  0  0  0  0  0  0  0
   23.3229  -21.4129  -12.2008 N   0  0  0  0  0  0  0  0  0  0  0  0
   21.0103  -21.0517  -12.3799 C   0  0  0  0  0  0  0  0  0  0  0  0
   20.7959  -22.1052  -11.7459 O   0  0  0  0  0  0  0  0  0  0  0  0
   20.0299  -20.0801  -12.4221 O   0  0  0  0  0  0  0  0  0  0  0  0
  1  2  1  0
  2  3  1  0
  3  4  2  0
  3 10  1  0
  6  5  1  0
  7  6  1  0
  7  8  1  1
  9  7  1  0
  9 10  1  6
 11  9  1  0
 11 18  1  0
 12 11  2  0
 14 15  1  6
 14 16  1  0
 14 13  1  0
 17 16  1  6
 17 18  1  0
 19 17  1  0
 20 19  2  0
 21 19  1  0
M  END
$$$$
