AAN.pdb
     RDKit          3D

 19 18  0  0  1  0  0  0  0  0999 V2000
   -3.7161  -22.6521   17.2108 C   0  0  0  0  0  0  0  0  0  0  0  0
   -3.5694  -21.1773   16.9838 C   0  0  2  0  0  0  0  0  0  0  0  0
   -2.2048  -20.9300   16.4973 N   0  0  0  0  0  0  0  0  0  0  0  0
   -3.7751  -20.4531   18.2452 C   0  0  0  0  0  0  0  0  0  0  0  0
   -2.8199  -20.3062   19.0452 O   0  0  0  0  0  0  0  0  0  0  0  0
   -6.6742  -18.5454   19.7962 C   0  0  0  0  0  0  0  0  0  0  0  0
   -5.2908  -19.1793   19.7919 C   0  0  2  0  0  0  0  0  0  0  0  0
   -5.0597  -19.9112   18.5716 N   0  0  0  0  0  0  0  0  0  0  0  0
   -5.2541  -20.1395   20.9251 C   0  0  0  0  0  0  0  0  0  0  0  0
   -5.5006  -21.3721   20.7536 O   0  0  0  0  0  0  0  0  0  0  0  0
   -2.3623  -19.4758   24.1113 N   0  0  0  0  0  0  0  0  0  0  0  0
   -2.3980  -20.8456   23.7342 C   0  0  0  0  0  0  0  0  0  0  0  0
   -1.3226  -21.4929   23.8066 O   0  0  0  0  0  0  0  0  0  0  0  0
   -3.6214  -21.4920   23.2793 C   0  0  0  0  0  0  0  0  0  0  0  0
   -4.8706  -20.6821   23.3603 C   0  0  2  0  0  0  0  0  0  0  0  0
   -4.9415  -19.7285   22.2589 N   0  0  0  0  0  0  0  0  0  0  0  0
   -4.9637  -20.0032   24.6690 C   0  0  0  0  0  0  0  0  0  0  0  0
   -5.2572  -20.6989   25.8464 O   0  0  0  0  0  0  0  0  0  0  0  0
   -4.7734  -18.7704   24.7186 O   0  0  0  0  0  0  0  0  0  0  0  0
  2  3  1  0
  2  1  1  1
  4  2  1  0
  5  4  2  0
  7  6  1  6
  7  8  1  0
  7  9  1  0
  8  4  1  0
  9 16  1  0
 10  9  2  0
 11 12  1  0
 12 14  1  0
 13 12  2  0
 15 14  1  1
 15 17  1  0
 16 15  1  0
 17 19  2  0
 17 18  1  0
M  END
$$$$
