AAN.pdb
     RDKit          3D

 19 18  0  0  1  0  0  0  0  0999 V2000
    8.6494  -12.2890   19.9247 C   0  0  0  0  0  0  0  0  0  0  0  0
    8.3812  -13.7596   19.8071 C   0  0  2  0  0  0  0  0  0  0  0  0
    7.2999  -13.9433   18.8289 N   0  0  0  0  0  0  0  0  0  0  0  0
    7.9582  -14.2976   21.1069 C   0  0  0  0  0  0  0  0  0  0  0  0
    6.8127  -14.0387   21.5483 O   0  0  0  0  0  0  0  0  0  0  0  0
    9.0678  -17.1920   23.1495 C   0  0  0  0  0  0  0  0  0  0  0  0
    8.3976  -15.8295   23.0491 C   0  0  2  0  0  0  0  0  0  0  0  0
    8.8437  -15.1174   21.8777 N   0  0  0  0  0  0  0  0  0  0  0  0
    8.8113  -15.0572   24.2492 C   0  0  0  0  0  0  0  0  0  0  0  0
    9.9597  -14.5237   24.3269 O   0  0  0  0  0  0  0  0  0  0  0  0
    5.1927  -12.3382   26.2560 N   0  0  0  0  0  0  0  0  0  0  0  0
    6.5902  -12.3879   26.5104 C   0  0  0  0  0  0  0  0  0  0  0  0
    7.2882  -11.4306   26.0898 O   0  0  0  0  0  0  0  0  0  0  0  0
    7.2078  -13.4947   27.2278 C   0  0  0  0  0  0  0  0  0  0  0  0
    8.3700  -14.1513   26.5635 C   0  0  2  0  0  0  0  0  0  0  0  0
    7.9435  -14.8758   25.3716 N   0  0  0  0  0  0  0  0  0  0  0  0
    9.0748  -15.0387   27.5113 C   0  0  0  0  0  0  0  0  0  0  0  0
    9.7883  -14.5384   28.6054 O   0  0  0  0  0  0  0  0  0  0  0  0
    9.0280  -16.2721   27.3241 O   0  0  0  0  0  0  0  0  0  0  0  0
  2  3  1  0
  2  1  1  1
  4  2  1  0
  5  4  2  0
  7  6  1  1
  7  8  1  0
  7  9  1  0
  8  4  1  0
  9 16  1  0
 10  9  2  0
 11 12  1  0
 12 14  1  0
 13 12  2  0
 15 14  1  1
 15 17  1  0
 16 15  1  0
 17 19  2  0
 17 18  1  0
M  END
$$$$
