AAN.pdb
     RDKit          3D

 19 18  0  0  1  0  0  0  0  0999 V2000
    6.6294  -17.9527   19.0929 C   0  0  0  0  0  0  0  0  0  0  0  0
    7.6510  -17.0088   18.5328 C   0  0  2  0  0  0  0  0  0  0  0  0
    8.7475  -17.8118   17.9736 N   0  0  0  0  0  0  0  0  0  0  0  0
    8.1748  -16.1461   19.6001 C   0  0  0  0  0  0  0  0  0  0  0  0
    9.0801  -16.5691   20.3588 O   0  0  0  0  0  0  0  0  0  0  0  0
    7.5786  -12.5518   20.6833 C   0  0  0  0  0  0  0  0  0  0  0  0
    8.1320  -13.9607   20.8389 C   0  0  2  0  0  0  0  0  0  0  0  0
    7.6605  -14.8224   19.7837 N   0  0  0  0  0  0  0  0  0  0  0  0
    7.6193  -14.4839   22.1315 C   0  0  0  0  0  0  0  0  0  0  0  0
    6.4031  -14.8159   22.2730 O   0  0  0  0  0  0  0  0  0  0  0  0
    6.6505  -18.9878   24.5768 N   0  0  0  0  0  0  0  0  0  0  0  0
    6.6620  -17.6117   24.2213 C   0  0  0  0  0  0  0  0  0  0  0  0
    5.5838  -16.9758   24.3386 O   0  0  0  0  0  0  0  0  0  0  0  0
    7.8644  -16.9466   23.7384 C   0  0  0  0  0  0  0  0  0  0  0  0
    8.1648  -15.6089   24.3244 C   0  0  2  0  0  0  0  0  0  0  0  0
    8.4630  -14.6398   23.2759 N   0  0  0  0  0  0  0  0  0  0  0  0
    9.2704  -15.7070   25.2992 C   0  0  0  0  0  0  0  0  0  0  0  0
    9.0673  -15.5286   26.6716 O   0  0  0  0  0  0  0  0  0  0  0  0
   10.4188  -15.9571   24.8785 O   0  0  0  0  0  0  0  0  0  0  0  0
  2  3  1  0
  2  1  1  1
  4  2  1  0
  5  4  2  0
  7  6  1  6
  7  8  1  0
  7  9  1  0
  8  4  1  0
  9 16  1  0
 10  9  2  0
 11 12  1  0
 12 14  1  0
 13 12  2  0
 15 14  1  6
 15 17  1  0
 16 15  1  0
 17 19  2  0
 17 18  1  0
M  END
$$$$
