AAN.pdb
     RDKit          3D

 19 18  0  0  1  0  0  0  0  0999 V2000
    7.5475  -16.7221   15.3661 C   0  0  0  0  0  0  0  0  0  0  0  0
    7.8946  -15.2743   15.1879 C   0  0  2  0  0  0  0  0  0  0  0  0
    8.6573  -15.1446   13.9383 N   0  0  0  0  0  0  0  0  0  0  0  0
    8.7208  -14.8149   16.3122 C   0  0  0  0  0  0  0  0  0  0  0  0
    9.9488  -15.0710   16.3319 O   0  0  0  0  0  0  0  0  0  0  0  0
    8.0764  -12.6415   19.3679 C   0  0  0  0  0  0  0  0  0  0  0  0
    8.9406  -13.4430   18.4056 C   0  0  2  0  0  0  0  0  0  0  0  0
    8.1362  -14.0749   17.3897 N   0  0  0  0  0  0  0  0  0  0  0  0
    9.6015  -14.5069   19.2049 C   0  0  0  0  0  0  0  0  0  0  0  0
    9.1250  -15.6813   19.2622 O   0  0  0  0  0  0  0  0  0  0  0  0
   14.1335  -13.4691   19.1029 N   0  0  0  0  0  0  0  0  0  0  0  0
   13.6677  -14.7653   19.4534 C   0  0  0  0  0  0  0  0  0  0  0  0
   13.8747  -15.6950   18.6327 O   0  0  0  0  0  0  0  0  0  0  0  0
   12.9762  -15.0266   20.7083 C   0  0  0  0  0  0  0  0  0  0  0  0
   11.5225  -15.3435   20.6126 C   0  0  2  0  0  0  0  0  0  0  0  0
   10.8004  -14.2653   19.9465 N   0  0  0  0  0  0  0  0  0  0  0  0
   10.9636  -15.6207   21.9518 C   0  0  0  0  0  0  0  0  0  0  0  0
   11.4205  -16.6810   22.7413 O   0  0  0  0  0  0  0  0  0  0  0  0
   10.0559  -14.8818   22.3861 O   0  0  0  0  0  0  0  0  0  0  0  0
  2  3  1  0
  2  1  1  1
  4  2  1  0
  5  4  2  0
  7  6  1  1
  7  8  1  0
  7  9  1  0
  8  4  1  0
  9 16  1  0
 10  9  2  0
 11 12  1  0
 12 14  1  0
 13 12  2  0
 15 14  1  1
 15 17  1  0
 16 15  1  0
 17 19  2  0
 17 18  1  0
M  END
$$$$
