AAN.pdb
     RDKit          3D

 19 18  0  0  1  0  0  0  0  0999 V2000
    7.6320  -15.5461   16.6206 C   0  0  0  0  0  0  0  0  0  0  0  0
    7.4214  -14.2085   17.2646 C   0  0  2  0  0  0  0  0  0  0  0  0
    7.8360  -13.1761   16.3042 N   0  0  0  0  0  0  0  0  0  0  0  0
    8.2420  -14.1017   18.4783 C   0  0  0  0  0  0  0  0  0  0  0  0
    9.4527  -13.7849   18.3891 O   0  0  0  0  0  0  0  0  0  0  0  0
    7.5368  -14.3662   22.2066 C   0  0  0  0  0  0  0  0  0  0  0  0
    8.4189  -14.1606   20.9838 C   0  0  2  0  0  0  0  0  0  0  0  0
    7.6715  -14.3566   19.7667 N   0  0  0  0  0  0  0  0  0  0  0  0
    9.4870  -15.1914   21.0456 C   0  0  0  0  0  0  0  0  0  0  0  0
    9.3030  -16.3604   20.5883 O   0  0  0  0  0  0  0  0  0  0  0  0
   13.4418  -14.0685   19.3536 N   0  0  0  0  0  0  0  0  0  0  0  0
   13.1828  -15.3568   19.8951 C   0  0  0  0  0  0  0  0  0  0  0  0
   13.0377  -16.3060   19.0835 O   0  0  0  0  0  0  0  0  0  0  0  0
   13.0859  -15.5887   21.3297 C   0  0  0  0  0  0  0  0  0  0  0  0
   11.7452  -15.9820   21.8503 C   0  0  2  0  0  0  0  0  0  0  0  0
   10.7693  -14.9228   21.6196 N   0  0  0  0  0  0  0  0  0  0  0  0
   11.8291  -16.3362   23.2820 C   0  0  0  0  0  0  0  0  0  0  0  0
   11.0900  -15.6598   24.2581 O   0  0  0  0  0  0  0  0  0  0  0  0
   12.5849  -17.2690   23.6244 O   0  0  0  0  0  0  0  0  0  0  0  0
  2  3  1  0
  2  1  1  6
  4  2  1  0
  5  4  2  0
  7  6  1  1
  7  8  1  0
  7  9  1  0
  8  4  1  0
  9 16  1  0
 10  9  2  0
 11 12  1  0
 12 14  1  0
 13 12  2  0
 15 14  1  1
 15 17  1  0
 16 15  1  0
 17 19  2  0
 17 18  1  0
M  END
$$$$
