AAN.pdb
     RDKit          3D

 19 18  0  0  1  0  0  0  0  0999 V2000
   -1.6264  -25.7761   28.2903 C   0  0  0  0  0  0  0  0  0  0  0  0
   -3.1086  -25.5503   28.2801 C   0  0  2  0  0  0  0  0  0  0  0  0
   -3.5896  -25.7797   26.9104 N   0  0  0  0  0  0  0  0  0  0  0  0
   -3.4078  -24.1676   28.6758 C   0  0  0  0  0  0  0  0  0  0  0  0
   -3.2378  -23.8066   29.8652 O   0  0  0  0  0  0  0  0  0  0  0  0
   -3.9431  -20.9498   26.8226 C   0  0  0  0  0  0  0  0  0  0  0  0
   -4.1092  -21.8386   28.0465 C   0  0  2  0  0  0  0  0  0  0  0  0
   -3.8933  -23.2246   27.7138 N   0  0  0  0  0  0  0  0  0  0  0  0
   -5.5143  -21.6829   28.5037 C   0  0  0  0  0  0  0  0  0  0  0  0
   -5.9534  -20.5672   28.9184 O   0  0  0  0  0  0  0  0  0  0  0  0
   -9.0005  -24.6188   25.9759 N   0  0  0  0  0  0  0  0  0  0  0  0
   -8.8773  -23.4875   26.8272 C   0  0  0  0  0  0  0  0  0  0  0  0
   -8.9237  -22.3520   26.2894 O   0  0  0  0  0  0  0  0  0  0  0  0
   -8.7038  -23.6173   28.2675 C   0  0  0  0  0  0  0  0  0  0  0  0
   -7.8249  -22.6080   28.9246 C   0  0  2  0  0  0  0  0  0  0  0  0
   -6.4392  -22.7739   28.5006 N   0  0  0  0  0  0  0  0  0  0  0  0
   -7.9530  -22.6883   30.3942 C   0  0  0  0  0  0  0  0  0  0  0  0
   -9.1280  -22.3198   31.0576 O   0  0  0  0  0  0  0  0  0  0  0  0
   -6.9787  -23.0985   31.0583 O   0  0  0  0  0  0  0  0  0  0  0  0
  2  3  1  0
  2  1  1  6
  4  2  1  0
  5  4  2  0
  7  6  1  6
  7  8  1  0
  7  9  1  0
  8  4  1  0
  9 16  1  0
 10  9  2  0
 11 12  1  0
 12 14  1  0
 13 12  2  0
 15 14  1  6
 15 17  1  0
 16 15  1  0
 17 19  2  0
 17 18  1  0
M  END
$$$$
