AAN.pdb
     RDKit          3D

 19 18  0  0  1  0  0  0  0  0999 V2000
    8.2460  -12.1389   19.8881 C   0  0  0  0  0  0  0  0  0  0  0  0
    8.4012  -13.5627   19.4444 C   0  0  2  0  0  0  0  0  0  0  0  0
    7.5653  -13.7562   18.2511 N   0  0  0  0  0  0  0  0  0  0  0  0
    7.9499  -14.4709   20.5071 C   0  0  0  0  0  0  0  0  0  0  0  0
    6.7263  -14.5741   20.7641 O   0  0  0  0  0  0  0  0  0  0  0  0
    9.2799  -17.5008   22.1057 C   0  0  0  0  0  0  0  0  0  0  0  0
    8.4826  -16.2116   22.2387 C   0  0  2  0  0  0  0  0  0  0  0  0
    8.8964  -15.2423   21.2551 N   0  0  0  0  0  0  0  0  0  0  0  0
    8.7764  -15.6613   23.5872 C   0  0  0  0  0  0  0  0  0  0  0  0
    9.8130  -14.9625   23.8031 O   0  0  0  0  0  0  0  0  0  0  0  0
    5.6355  -12.7047   25.9640 N   0  0  0  0  0  0  0  0  0  0  0  0
    6.9235  -13.2789   26.1408 C   0  0  0  0  0  0  0  0  0  0  0  0
    7.9185  -12.5626   25.8625 O   0  0  0  0  0  0  0  0  0  0  0  0
    7.1045  -14.6409   26.6240 C   0  0  0  0  0  0  0  0  0  0  0  0
    8.2431  -15.4071   26.0413 C   0  0  2  0  0  0  0  0  0  0  0  0
    7.9129  -15.8885   24.7047 N   0  0  0  0  0  0  0  0  0  0  0  0
    8.6309  -16.5180   26.9347 C   0  0  0  0  0  0  0  0  0  0  0  0
    9.1503  -16.2944   28.2140 O   0  0  0  0  0  0  0  0  0  0  0  0
    8.4880  -17.6899   26.5290 O   0  0  0  0  0  0  0  0  0  0  0  0
  2  3  1  0
  2  1  1  1
  4  2  1  0
  5  4  2  0
  7  6  1  6
  7  8  1  0
  7  9  1  0
  8  4  1  0
  9 16  1  0
 10  9  2  0
 11 12  1  0
 12 14  1  0
 13 12  2  0
 15 14  1  1
 15 17  1  0
 16 15  1  0
 17 19  2  0
 17 18  1  0
M  END
$$$$
