AAN.pdb
     RDKit          3D

 19 18  0  0  1  0  0  0  0  0999 V2000
    7.1043  -12.6030   19.1184 C   0  0  0  0  0  0  0  0  0  0  0  0
    8.4717  -13.1221   19.4487 C   0  0  2  0  0  0  0  0  0  0  0  0
    9.2275  -13.2311   18.1929 N   0  0  0  0  0  0  0  0  0  0  0  0
    8.3676  -14.4487   20.0708 C   0  0  0  0  0  0  0  0  0  0  0  0
    7.7325  -14.5885   21.1437 O   0  0  0  0  0  0  0  0  0  0  0  0
    8.9186  -17.9881   19.0086 C   0  0  0  0  0  0  0  0  0  0  0  0
    8.9380  -16.8955   20.0675 C   0  0  2  0  0  0  0  0  0  0  0  0
    8.9860  -15.5880   19.4624 N   0  0  0  0  0  0  0  0  0  0  0  0
   10.1795  -17.0874   20.8608 C   0  0  0  0  0  0  0  0  0  0  0  0
   10.4841  -18.2194   21.3461 O   0  0  0  0  0  0  0  0  0  0  0  0
   13.3601  -14.0442   19.2209 N   0  0  0  0  0  0  0  0  0  0  0  0
   13.6755  -15.1760   20.0206 C   0  0  0  0  0  0  0  0  0  0  0  0
   14.2407  -16.1450   19.4530 O   0  0  0  0  0  0  0  0  0  0  0  0
   13.3646  -15.2304   21.4425 C   0  0  0  0  0  0  0  0  0  0  0  0
   12.3293  -16.2192   21.8591 C   0  0  2  0  0  0  0  0  0  0  0  0
   11.0901  -16.0146   21.1176 N   0  0  0  0  0  0  0  0  0  0  0  0
   12.1037  -16.1495   23.3173 C   0  0  0  0  0  0  0  0  0  0  0  0
   13.1039  -16.4752   24.2392 O   0  0  0  0  0  0  0  0  0  0  0  0
   10.9834  -15.7878   23.7329 O   0  0  0  0  0  0  0  0  0  0  0  0
  2  3  1  0
  2  1  1  6
  4  2  1  0
  5  4  2  0
  7  6  1  6
  7  8  1  0
  7  9  1  0
  8  4  1  0
  9 16  1  0
 10  9  2  0
 11 12  1  0
 12 14  1  0
 13 12  2  0
 15 14  1  6
 15 17  1  0
 16 15  1  0
 17 19  2  0
 17 18  1  0
M  END
$$$$
