AAN.pdb
     RDKit          3D

 19 18  0  0  1  0  0  0  0  0999 V2000
    5.0626  -17.1926   22.5457 C   0  0  0  0  0  0  0  0  0  0  0  0
    6.2598  -17.6831   21.7879 C   0  0  2  0  0  0  0  0  0  0  0  0
    6.7309  -18.9141   22.4380 N   0  0  0  0  0  0  0  0  0  0  0  0
    7.3260  -16.6734   21.8269 C   0  0  0  0  0  0  0  0  0  0  0  0
    8.5274  -17.0295   21.7655 O   0  0  0  0  0  0  0  0  0  0  0  0
    7.4214  -12.9463   21.3476 C   0  0  0  0  0  0  0  0  0  0  0  0
    8.0165  -14.2577   21.8392 C   0  0  2  0  0  0  0  0  0  0  0  0
    7.0063  -15.2818   21.9348 N   0  0  0  0  0  0  0  0  0  0  0  0
    8.5520  -14.0032   23.2015 C   0  0  0  0  0  0  0  0  0  0  0  0
    9.5496  -13.2417   23.3867 O   0  0  0  0  0  0  0  0  0  0  0  0
    5.2464  -12.9308   26.1705 N   0  0  0  0  0  0  0  0  0  0  0  0
    6.6347  -12.8906   26.4722 C   0  0  0  0  0  0  0  0  0  0  0  0
    7.1746  -11.7585   26.5581 O   0  0  0  0  0  0  0  0  0  0  0  0
    7.4180  -14.1013   26.6773 C   0  0  0  0  0  0  0  0  0  0  0  0
    8.5153  -14.3563   25.7007 C   0  0  2  0  0  0  0  0  0  0  0  0
    7.9757  -14.5985   24.3674 N   0  0  0  0  0  0  0  0  0  0  0  0
    9.3606  -15.4802   26.1533 C   0  0  0  0  0  0  0  0  0  0  0  0
   10.0423  -15.4508   27.3744 O   0  0  0  0  0  0  0  0  0  0  0  0
    9.4654  -16.4840   25.4185 O   0  0  0  0  0  0  0  0  0  0  0  0
  2  3  1  0
  2  1  1  1
  4  2  1  0
  5  4  2  0
  7  6  1  1
  7  8  1  0
  7  9  1  0
  8  4  1  0
  9 16  1  0
 10  9  2  0
 11 12  1  0
 12 14  1  0
 13 12  2  0
 15 14  1  1
 15 17  1  0
 16 15  1  0
 17 19  2  0
 17 18  1  0
M  END
$$$$
