AAN.pdb
     RDKit          3D

 19 18  0  0  1  0  0  0  0  0999 V2000
    2.4436  -23.8098   19.3415 C   0  0  0  0  0  0  0  0  0  0  0  0
    3.8087  -23.3733   19.7821 C   0  0  2  0  0  0  0  0  0  0  0  0
    4.0122  -23.8508   21.1570 N   0  0  0  0  0  0  0  0  0  0  0  0
    3.8983  -21.9072   19.7578 C   0  0  0  0  0  0  0  0  0  0  0  0
    4.5448  -21.3350   18.8474 O   0  0  0  0  0  0  0  0  0  0  0  0
    2.0281  -19.1354   21.4904 C   0  0  0  0  0  0  0  0  0  0  0  0
    3.2071  -19.6829   20.6993 C   0  0  2  0  0  0  0  0  0  0  0  0
    3.2528  -21.1222   20.7664 N   0  0  0  0  0  0  0  0  0  0  0  0
    4.4381  -19.1476   21.3361 C   0  0  0  0  0  0  0  0  0  0  0  0
    4.7123  -17.9093   21.3045 O   0  0  0  0  0  0  0  0  0  0  0  0
    5.7635  -16.8837   23.7007 N   0  0  0  0  0  0  0  0  0  0  0  0
    5.8697  -17.9910   24.5853 C   0  0  0  0  0  0  0  0  0  0  0  0
    5.5543  -17.8021   25.7876 O   0  0  0  0  0  0  0  0  0  0  0  0
    6.3236  -19.3001   24.1364 C   0  0  0  0  0  0  0  0  0  0  0  0
    6.5573  -19.4564   22.6722 C   0  0  2  0  0  0  0  0  0  0  0  0
    5.3720  -19.9932   22.0133 N   0  0  0  0  0  0  0  0  0  0  0  0
    7.7426  -20.3026   22.4244 C   0  0  0  0  0  0  0  0  0  0  0  0
    7.6522  -21.5293   21.7584 O   0  0  0  0  0  0  0  0  0  0  0  0
    8.8562  -19.9046   22.8244 O   0  0  0  0  0  0  0  0  0  0  0  0
  2  3  1  0
  2  1  1  1
  4  2  1  0
  5  4  2  0
  7  6  1  1
  7  8  1  0
  7  9  1  0
  8  4  1  0
  9 16  1  0
 10  9  2  0
 11 12  1  0
 12 14  1  0
 13 12  2  0
 15 14  1  1
 15 17  1  0
 16 15  1  0
 17 19  2  0
 17 18  1  0
M  END
$$$$
