AAN.pdb
     RDKit          3D

 19 18  0  0  1  0  0  0  0  0999 V2000
    8.0975  -16.9031   15.4354 C   0  0  0  0  0  0  0  0  0  0  0  0
    8.0987  -15.4055   15.3614 C   0  0  2  0  0  0  0  0  0  0  0  0
    8.8001  -15.0159   14.1301 N   0  0  0  0  0  0  0  0  0  0  0  0
    8.8055  -14.8469   16.5217 C   0  0  0  0  0  0  0  0  0  0  0  0
   10.0597  -14.8157   16.5347 O   0  0  0  0  0  0  0  0  0  0  0  0
    7.7159  -13.0703   19.7013 C   0  0  0  0  0  0  0  0  0  0  0  0
    8.7307  -13.6813   18.7461 C   0  0  2  0  0  0  0  0  0  0  0  0
    8.0745  -14.3358   17.6418 N   0  0  0  0  0  0  0  0  0  0  0  0
    9.4824  -14.7065   19.5151 C   0  0  0  0  0  0  0  0  0  0  0  0
    9.0900  -15.9118   19.5664 O   0  0  0  0  0  0  0  0  0  0  0  0
   14.0514  -13.9461   19.1733 N   0  0  0  0  0  0  0  0  0  0  0  0
   13.5231  -15.1285   19.7589 C   0  0  0  0  0  0  0  0  0  0  0  0
   13.6601  -16.2015   19.1181 O   0  0  0  0  0  0  0  0  0  0  0  0
   12.8467  -15.1183   21.0487 C   0  0  0  0  0  0  0  0  0  0  0  0
   11.3806  -15.3890   21.0325 C   0  0  2  0  0  0  0  0  0  0  0  0
   10.6788  -14.3914   20.2327 N   0  0  0  0  0  0  0  0  0  0  0  0
   10.8496  -15.4476   22.4098 C   0  0  0  0  0  0  0  0  0  0  0  0
   11.2709  -16.4162   23.3268 O   0  0  0  0  0  0  0  0  0  0  0  0
    9.9988  -14.6036   22.7596 O   0  0  0  0  0  0  0  0  0  0  0  0
  2  3  1  0
  2  1  1  1
  4  2  1  0
  5  4  2  0
  7  6  1  1
  7  8  1  0
  7  9  1  0
  8  4  1  0
  9 16  1  0
 10  9  2  0
 11 12  1  0
 12 14  1  0
 13 12  2  0
 15 14  1  1
 15 17  1  0
 16 15  1  0
 17 19  2  0
 17 18  1  0
M  END
$$$$
