AAN.pdb
     RDKit          3D

 19 18  0  0  1  0  0  0  0  0999 V2000
   -2.9066  -24.8052   27.1938 C   0  0  0  0  0  0  0  0  0  0  0  0
   -4.0075  -25.3707   28.0403 C   0  0  2  0  0  0  0  0  0  0  0  0
   -5.0510  -25.8810   27.1400 N   0  0  0  0  0  0  0  0  0  0  0  0
   -4.5737  -24.3185   28.8947 C   0  0  0  0  0  0  0  0  0  0  0  0
   -3.8668  -23.7873   29.7847 O   0  0  0  0  0  0  0  0  0  0  0  0
   -7.6035  -22.1120   28.7623 C   0  0  0  0  0  0  0  0  0  0  0  0
   -6.5075  -22.8431   29.5238 C   0  0  2  0  0  0  0  0  0  0  0  0
   -5.9295  -23.8917   28.7210 N   0  0  0  0  0  0  0  0  0  0  0  0
   -7.1497  -23.4652   30.7104 C   0  0  0  0  0  0  0  0  0  0  0  0
   -7.6948  -22.7585   31.6121 O   0  0  0  0  0  0  0  0  0  0  0  0
  -10.8402  -27.0894   30.2995 N   0  0  0  0  0  0  0  0  0  0  0  0
  -10.0419  -26.1984   31.0667 C   0  0  0  0  0  0  0  0  0  0  0  0
  -10.4906  -25.0397   31.2581 O   0  0  0  0  0  0  0  0  0  0  0  0
   -8.7527  -26.5929   31.6179 C   0  0  0  0  0  0  0  0  0  0  0  0
   -7.8480  -25.4887   32.0482 C   0  0  2  0  0  0  0  0  0  0  0  0
   -7.1872  -24.8827   30.8977 N   0  0  0  0  0  0  0  0  0  0  0  0
   -6.8668  -25.9790   33.0378 C   0  0  0  0  0  0  0  0  0  0  0  0
   -7.0988  -25.8991   34.4149 O   0  0  0  0  0  0  0  0  0  0  0  0
   -5.7998  -26.4791   32.6255 O   0  0  0  0  0  0  0  0  0  0  0  0
  2  3  1  0
  2  1  1  6
  4  2  1  0
  5  4  2  0
  7  6  1  6
  7  8  1  0
  7  9  1  0
  8  4  1  0
  9 16  1  0
 10  9  2  0
 11 12  1  0
 12 14  1  0
 13 12  2  0
 15 14  1  6
 15 17  1  0
 16 15  1  0
 17 19  2  0
 17 18  1  0
M  END
$$$$
