AAN.pdb
     RDKit          3D

 19 18  0  0  1  0  0  0  0  0999 V2000
    3.6488  -23.7323   22.3492 C   0  0  0  0  0  0  0  0  0  0  0  0
    4.4132  -22.9837   23.3997 C   0  0  2  0  0  0  0  0  0  0  0  0
    3.5343  -21.9340   23.9341 N   0  0  0  0  0  0  0  0  0  0  0  0
    5.6057  -22.3644   22.8061 C   0  0  0  0  0  0  0  0  0  0  0  0
    6.6339  -23.0543   22.6036 O   0  0  0  0  0  0  0  0  0  0  0  0
    6.2693  -19.2092   20.9030 C   0  0  0  0  0  0  0  0  0  0  0  0
    6.7259  -20.3581   21.7902 C   0  0  2  0  0  0  0  0  0  0  0  0
    5.6061  -20.9762   22.4553 N   0  0  0  0  0  0  0  0  0  0  0  0
    7.6178  -19.7742   22.8251 C   0  0  0  0  0  0  0  0  0  0  0  0
    8.7306  -19.2487   22.5168 O   0  0  0  0  0  0  0  0  0  0  0  0
    5.9279  -16.3620   25.4349 N   0  0  0  0  0  0  0  0  0  0  0  0
    7.2243  -16.9228   25.5931 C   0  0  0  0  0  0  0  0  0  0  0  0
    8.2063  -16.2091   25.2661 O   0  0  0  0  0  0  0  0  0  0  0  0
    7.4279  -18.2685   26.1116 C   0  0  0  0  0  0  0  0  0  0  0  0
    8.1617  -19.2178   25.2265 C   0  0  2  0  0  0  0  0  0  0  0  0
    7.2720  -19.7735   24.2130 N   0  0  0  0  0  0  0  0  0  0  0  0
    8.8008  -20.2829   26.0262 C   0  0  0  0  0  0  0  0  0  0  0  0
    8.6306  -21.6386   25.7271 O   0  0  0  0  0  0  0  0  0  0  0  0
    9.5135  -19.9559   26.9976 O   0  0  0  0  0  0  0  0  0  0  0  0
  2  3  1  0
  2  1  1  6
  4  2  1  0
  5  4  2  0
  7  6  1  6
  7  8  1  0
  7  9  1  0
  8  4  1  0
  9 16  1  0
 10  9  2  0
 11 12  1  0
 12 14  1  0
 13 12  2  0
 15 14  1  1
 15 17  1  0
 16 15  1  0
 17 19  2  0
 17 18  1  0
M  END
$$$$
