AAN.pdb
     RDKit          3D

 19 18  0  0  1  0  0  0  0  0999 V2000
    8.9392  -12.5311   20.5434 C   0  0  0  0  0  0  0  0  0  0  0  0
    8.2661  -13.7883   20.0800 C   0  0  2  0  0  0  0  0  0  0  0  0
    7.0416  -13.4055   19.3629 N   0  0  0  0  0  0  0  0  0  0  0  0
    7.9123  -14.6228   21.2360 C   0  0  0  0  0  0  0  0  0  0  0  0
    6.9577  -14.2901   21.9791 O   0  0  0  0  0  0  0  0  0  0  0  0
    8.7394  -18.0642   22.4783 C   0  0  0  0  0  0  0  0  0  0  0  0
    8.4000  -16.5989   22.7089 C   0  0  2  0  0  0  0  0  0  0  0  0
    8.6490  -15.8164   21.5240 N   0  0  0  0  0  0  0  0  0  0  0  0
    9.3009  -16.1130   23.7858 C   0  0  0  0  0  0  0  0  0  0  0  0
   10.1036  -15.1503   23.5901 O   0  0  0  0  0  0  0  0  0  0  0  0
    8.8229  -13.0560   28.3166 N   0  0  0  0  0  0  0  0  0  0  0  0
    9.6950  -13.9125   27.5916 C   0  0  0  0  0  0  0  0  0  0  0  0
   10.8889  -13.9835   27.9791 O   0  0  0  0  0  0  0  0  0  0  0  0
    9.2428  -14.6855   26.4429 C   0  0  0  0  0  0  0  0  0  0  0  0
    9.8911  -16.0125   26.2380 C   0  0  2  0  0  0  0  0  0  0  0  0
    9.3109  -16.7002   25.0900 N   0  0  0  0  0  0  0  0  0  0  0  0
    9.7934  -16.8313   27.4637 C   0  0  0  0  0  0  0  0  0  0  0  0
    9.0978  -18.0445   27.4919 O   0  0  0  0  0  0  0  0  0  0  0  0
   10.3513  -16.4220   28.5029 O   0  0  0  0  0  0  0  0  0  0  0  0
  2  3  1  0
  2  1  1  1
  4  2  1  0
  5  4  2  0
  7  6  1  6
  7  8  1  0
  7  9  1  0
  8  4  1  0
  9 16  1  0
 10  9  2  0
 11 12  1  0
 12 14  1  0
 13 12  2  0
 15 14  1  1
 15 17  1  0
 16 15  1  0
 17 19  2  0
 17 18  1  0
M  END
$$$$
