VHM.pdb
     RDKit          3D

 26 26  0  0  1  0  0  0  0  0999 V2000
    8.4820  -12.7748   20.7890 C   0  0  0  0  0  0  0  0  0  0  0  0
    7.9048  -13.3412   19.5273 C   0  0  1  0  0  0  0  0  0  0  0  0
    7.9869  -12.3498   18.3773 C   0  0  0  0  0  0  0  0  0  0  0  0
    8.5679  -14.6333   19.1683 C   0  0  2  0  0  0  0  0  0  0  0  0
    7.8556  -15.2477   18.0215 N   0  0  0  0  0  0  0  0  0  0  0  0
    8.5527  -15.6381   20.2547 C   0  0  0  0  0  0  0  0  0  0  0  0
    7.7270  -16.6202   20.1632 O   0  0  0  0  0  0  0  0  0  0  0  0
    9.3638  -15.6368   21.4000 N   0  0  0  0  0  0  0  0  0  0  0  0
    9.0910  -16.5870   22.5142 C   0  0  1  0  0  0  0  0  0  0  0  0
    9.2059  -17.9296   21.8783 C   0  0  0  0  0  0  0  0  0  0  0  0
   10.1601  -18.0813   20.7901 C   0  0  0  0  0  0  0  0  0  0  0  0
   11.0397  -17.1733   20.2534 C   0  0  0  0  0  0  0  0  0  0  0  0
   11.7278  -17.7178   19.2293 N   0  0  0  0  0  0  0  0  0  0  0  0
   11.2818  -18.9816   19.1142 C   0  0  0  0  0  0  0  0  0  0  0  0
   10.3503  -19.2058   20.0377 N   0  0  0  0  0  0  0  0  0  0  0  0
   10.0453  -16.2673   23.5713 C   0  0  0  0  0  0  0  0  0  0  0  0
   11.0416  -15.5413   23.3373 O   0  0  0  0  0  0  0  0  0  0  0  0
    6.3796  -11.4972   27.0456 C   0  0  0  0  0  0  0  0  0  0  0  0
    6.7959  -12.8065   25.9110 S   0  0  0  0  0  0  0  0  0  0  0  0
    7.9514  -13.9948   26.5515 C   0  0  0  0  0  0  0  0  0  0  0  0
    8.3911  -15.0699   25.6269 C   0  0  0  0  0  0  0  0  0  0  0  0
    9.6095  -15.8449   26.0052 C   0  0  2  0  0  0  0  0  0  0  0  0
    9.9028  -16.7395   24.8899 N   0  0  0  0  0  0  0  0  0  0  0  0
    9.4425  -16.5115   27.2934 C   0  0  0  0  0  0  0  0  0  0  0  0
    9.8070  -15.9575   28.4932 O   0  0  0  0  0  0  0  0  0  0  0  0
    8.9359  -17.6601   27.3363 O   0  0  0  0  0  0  0  0  0  0  0  0
  2  4  1  0
  2  1  1  1
  3  2  1  0
  4  6  1  0
  4  5  1  6
  6  7  2  0
  8  9  1  0
  8  6  1  0
  9 16  1  0
 10 11  1  0
  9 10  1  6
 11 15  1  0
 12 11  2  0
 12 13  1  0
 13 14  1  0
 15 14  2  0
 16 17  2  0
 18 19  1  0
 19 20  1  0
 20 21  1  0
 22 21  1  6
 22 24  1  0
 23 22  1  0
 23 16  1  0
 24 26  2  0
 24 25  1  0
M  END
$$$$
