VHM.pdb
     RDKit          3D

 26 26  0  0  1  0  0  0  0  0999 V2000
    9.0152  -12.6094   20.4461 C   0  0  0  0  0  0  0  0  0  0  0  0
    7.9594  -13.2235   19.5780 C   0  0  1  0  0  0  0  0  0  0  0  0
    7.7487  -12.4263   18.3004 C   0  0  0  0  0  0  0  0  0  0  0  0
    8.2832  -14.6513   19.2703 C   0  0  2  0  0  0  0  0  0  0  0  0
    7.1612  -15.2559   18.5115 N   0  0  0  0  0  0  0  0  0  0  0  0
    8.4765  -15.4951   20.4706 C   0  0  0  0  0  0  0  0  0  0  0  0
    7.4396  -15.8198   21.1592 O   0  0  0  0  0  0  0  0  0  0  0  0
    9.6982  -15.9940   20.9483 N   0  0  0  0  0  0  0  0  0  0  0  0
    9.7279  -16.9045   22.1269 C   0  0  1  0  0  0  0  0  0  0  0  0
   10.8912  -17.7972   21.8626 C   0  0  0  0  0  0  0  0  0  0  0  0
   11.1912  -18.8245   22.8487 C   0  0  0  0  0  0  0  0  0  0  0  0
   10.6056  -19.0800   24.0643 C   0  0  0  0  0  0  0  0  0  0  0  0
   11.2104  -20.1155   24.6813 N   0  0  0  0  0  0  0  0  0  0  0  0
   12.1881  -20.5212   23.8512 C   0  0  0  0  0  0  0  0  0  0  0  0
   12.1836  -19.7595   22.7600 N   0  0  0  0  0  0  0  0  0  0  0  0
    9.8004  -16.0485   23.3070 C   0  0  0  0  0  0  0  0  0  0  0  0
   10.6646  -15.1426   23.3897 O   0  0  0  0  0  0  0  0  0  0  0  0
    6.4348  -11.4152   25.4363 C   0  0  0  0  0  0  0  0  0  0  0  0
    6.5941  -12.3653   26.9353 S   0  0  0  0  0  0  0  0  0  0  0  0
    7.8925  -13.5780   26.9026 C   0  0  0  0  0  0  0  0  0  0  0  0
    7.9574  -14.4604   25.7104 C   0  0  0  0  0  0  0  0  0  0  0  0
    9.0937  -15.4252   25.6317 C   0  0  2  0  0  0  0  0  0  0  0  0
    8.9185  -16.1823   24.3962 N   0  0  0  0  0  0  0  0  0  0  0  0
    9.1885  -16.2417   26.8384 C   0  0  0  0  0  0  0  0  0  0  0  0
    8.8514  -17.5695   26.8907 O   0  0  0  0  0  0  0  0  0  0  0  0
    9.6019  -15.7250   27.9060 O   0  0  0  0  0  0  0  0  0  0  0  0
  2  4  1  0
  2  1  1  6
  3  2  1  0
  4  6  1  0
  4  5  1  1
  6  7  2  0
  8  9  1  0
  8  6  1  0
  9 16  1  0
 10 11  1  0
  9 10  1  6
 11 15  1  0
 12 11  2  0
 12 13  1  0
 13 14  1  0
 15 14  2  0
 16 17  2  0
 18 19  1  0
 19 20  1  0
 20 21  1  0
 22 21  1  1
 22 24  1  0
 23 22  1  0
 23 16  1  0
 24 26  2  0
 24 25  1  0
M  END
$$$$
