VHM.pdb
     RDKit          3D

 26 26  0  0  1  0  0  0  0  0999 V2000
   11.8355  -18.5216   19.1784 C   0  0  0  0  0  0  0  0  0  0  0  0
   10.3861  -18.7525   19.4816 C   0  0  1  0  0  0  0  0  0  0  0  0
    9.9882  -20.2021   19.2528 C   0  0  0  0  0  0  0  0  0  0  0  0
   10.0555  -18.3205   20.8752 C   0  0  2  0  0  0  0  0  0  0  0  0
    8.6975  -18.8013   21.2282 N   0  0  0  0  0  0  0  0  0  0  0  0
   10.0387  -16.8523   21.0605 C   0  0  0  0  0  0  0  0  0  0  0  0
   11.1128  -16.1942   20.8004 O   0  0  0  0  0  0  0  0  0  0  0  0
    8.9500  -16.0816   21.4970 N   0  0  0  0  0  0  0  0  0  0  0  0
    9.1102  -14.6187   21.7275 C   0  0  1  0  0  0  0  0  0  0  0  0
    7.9012  -14.0204   21.0947 C   0  0  0  0  0  0  0  0  0  0  0  0
    7.8365  -14.0081   19.6410 C   0  0  0  0  0  0  0  0  0  0  0  0
    8.2404  -13.0471   18.7468 C   0  0  0  0  0  0  0  0  0  0  0  0
    7.9704  -13.4246   17.4806 N   0  0  0  0  0  0  0  0  0  0  0  0
    7.3903  -14.6349   17.5708 C   0  0  0  0  0  0  0  0  0  0  0  0
    7.3069  -14.9890   18.8509 N   0  0  0  0  0  0  0  0  0  0  0  0
    9.2634  -14.4430   23.1684 C   0  0  0  0  0  0  0  0  0  0  0  0
    9.6228  -13.3394   23.6449 O   0  0  0  0  0  0  0  0  0  0  0  0
    6.7757  -11.1251   27.1602 C   0  0  0  0  0  0  0  0  0  0  0  0
    7.3944  -12.7613   27.4995 S   0  0  0  0  0  0  0  0  0  0  0  0
    6.5927  -14.0554   26.5830 C   0  0  0  0  0  0  0  0  0  0  0  0
    7.2498  -14.4946   25.3263 C   0  0  0  0  0  0  0  0  0  0  0  0
    8.5530  -15.2123   25.4477 C   0  0  2  0  0  0  0  0  0  0  0  0
    9.0154  -15.4786   24.0892 N   0  0  0  0  0  0  0  0  0  0  0  0
    8.4364  -16.3959   26.2947 C   0  0  0  0  0  0  0  0  0  0  0  0
    8.8135  -16.4326   27.6122 O   0  0  0  0  0  0  0  0  0  0  0  0
    7.9645  -17.4570   25.8160 O   0  0  0  0  0  0  0  0  0  0  0  0
  2  4  1  0
  2  1  1  1
  3  2  1  0
  4  6  1  0
  4  5  1  6
  6  7  2  0
  8  9  1  0
  8  6  1  0
  9 16  1  0
 10 11  1  0
  9 10  1  1
 11 15  1  0
 12 11  2  0
 12 13  1  0
 13 14  1  0
 15 14  2  0
 16 17  2  0
 18 19  1  0
 19 20  1  0
 20 21  1  0
 22 21  1  6
 22 24  1  0
 23 22  1  0
 23 16  1  0
 24 26  2  0
 24 25  1  0
M  END
$$$$
