VHM.pdb
     RDKit          3D

 26 26  0  0  1  0  0  0  0  0999 V2000
    8.4669  -12.8488   19.8090 C   0  0  0  0  0  0  0  0  0  0  0  0
    8.0820  -13.7346   18.6631 C   0  0  1  0  0  0  0  0  0  0  0  0
    8.7316  -13.2861   17.3634 C   0  0  0  0  0  0  0  0  0  0  0  0
    8.4083  -15.1644   18.9587 C   0  0  2  0  0  0  0  0  0  0  0  0
    7.8816  -16.0227   17.8697 N   0  0  0  0  0  0  0  0  0  0  0  0
    7.8091  -15.6697   20.2140 C   0  0  0  0  0  0  0  0  0  0  0  0
    6.7223  -16.3535   20.1369 O   0  0  0  0  0  0  0  0  0  0  0  0
    8.3125  -15.4816   21.5105 N   0  0  0  0  0  0  0  0  0  0  0  0
    7.7287  -16.2300   22.6585 C   0  0  1  0  0  0  0  0  0  0  0  0
    7.9062  -17.6609   22.2827 C   0  0  0  0  0  0  0  0  0  0  0  0
    7.5315  -18.6678   23.2642 C   0  0  0  0  0  0  0  0  0  0  0  0
    6.9719  -18.5220   24.5099 C   0  0  0  0  0  0  0  0  0  0  0  0
    6.8108  -19.7200   25.1079 N   0  0  0  0  0  0  0  0  0  0  0  0
    7.2718  -20.6342   24.2354 C   0  0  0  0  0  0  0  0  0  0  0  0
    7.7019  -20.0175   23.1374 N   0  0  0  0  0  0  0  0  0  0  0  0
    8.4271  -15.7637   23.8523 C   0  0  0  0  0  0  0  0  0  0  0  0
    9.6213  -16.0859   24.0631 O   0  0  0  0  0  0  0  0  0  0  0  0
    6.6279  -10.5425   27.8568 C   0  0  0  0  0  0  0  0  0  0  0  0
    5.8471  -11.3567   26.4775 S   0  0  0  0  0  0  0  0  0  0  0  0
    6.8215  -12.6445   25.7361 C   0  0  0  0  0  0  0  0  0  0  0  0
    7.6911  -13.4353   26.6432 C   0  0  0  0  0  0  0  0  0  0  0  0
    8.5057  -14.5275   26.0334 C   0  0  2  0  0  0  0  0  0  0  0  0
    7.8162  -14.9365   24.8138 N   0  0  0  0  0  0  0  0  0  0  0  0
    8.7530  -15.6071   26.9849 C   0  0  0  0  0  0  0  0  0  0  0  0
    9.6659  -15.5322   28.0048 O   0  0  0  0  0  0  0  0  0  0  0  0
    8.1046  -16.6786   26.8892 O   0  0  0  0  0  0  0  0  0  0  0  0
  2  4  1  0
  2  1  1  1
  3  2  1  0
  4  6  1  0
  4  5  1  6
  6  7  2  0
  8  9  1  0
  8  6  1  0
  9 16  1  0
 10 11  1  0
  9 10  1  6
 11 15  1  0
 12 11  2  0
 12 13  1  0
 13 14  1  0
 15 14  2  0
 16 17  2  0
 18 19  1  0
 19 20  1  0
 20 21  1  0
 22 21  1  1
 22 24  1  0
 23 22  1  0
 23 16  1  0
 24 26  2  0
 24 25  1  0
M  END
$$$$
