VHM.pdb
     RDKit          3D

 26 26  0  0  1  0  0  0  0  0999 V2000
    5.6848  -11.8220   25.8236 C   0  0  0  0  0  0  0  0  0  0  0  0
    6.6600  -12.8036   25.2482 C   0  0  1  0  0  0  0  0  0  0  0  0
    7.8743  -12.9813   26.1460 C   0  0  0  0  0  0  0  0  0  0  0  0
    5.9990  -14.1178   24.9760 C   0  0  2  0  0  0  0  0  0  0  0  0
    5.6627  -14.7733   26.2634 N   0  0  0  0  0  0  0  0  0  0  0  0
    6.8482  -15.0740   24.2312 C   0  0  0  0  0  0  0  0  0  0  0  0
    7.0533  -16.2345   24.7467 O   0  0  0  0  0  0  0  0  0  0  0  0
    7.4661  -14.8469   22.9918 N   0  0  0  0  0  0  0  0  0  0  0  0
    8.2911  -15.9129   22.3576 C   0  0  1  0  0  0  0  0  0  0  0  0
    8.4114  -15.4777   20.9377 C   0  0  0  0  0  0  0  0  0  0  0  0
    9.2040  -16.3073   20.0426 C   0  0  0  0  0  0  0  0  0  0  0  0
   10.3994  -16.0433   19.4202 C   0  0  0  0  0  0  0  0  0  0  0  0
   10.7782  -17.0808   18.6464 N   0  0  0  0  0  0  0  0  0  0  0  0
    9.8158  -18.0114   18.7780 C   0  0  0  0  0  0  0  0  0  0  0  0
    8.8767  -17.5599   19.6057 N   0  0  0  0  0  0  0  0  0  0  0  0
    9.5237  -15.9970   23.1348 C   0  0  0  0  0  0  0  0  0  0  0  0
   10.4721  -16.7257   22.7556 O   0  0  0  0  0  0  0  0  0  0  0  0
   10.6724  -13.3054   29.5602 C   0  0  0  0  0  0  0  0  0  0  0  0
   11.0568  -15.0233   29.2846 S   0  0  0  0  0  0  0  0  0  0  0  0
   11.5280  -15.4128   27.6161 C   0  0  0  0  0  0  0  0  0  0  0  0
   10.5041  -15.2004   26.5622 C   0  0  0  0  0  0  0  0  0  0  0  0
   10.9144  -15.4435   25.1477 C   0  0  2  0  0  0  0  0  0  0  0  0
    9.7190  -15.2748   24.3274 N   0  0  0  0  0  0  0  0  0  0  0  0
   11.5798  -16.7344   24.9967 C   0  0  0  0  0  0  0  0  0  0  0  0
   12.9341  -16.8824   24.8437 O   0  0  0  0  0  0  0  0  0  0  0  0
   10.8973  -17.7888   25.0057 O   0  0  0  0  0  0  0  0  0  0  0  0
  2  4  1  0
  2  1  1  1
  3  2  1  0
  4  6  1  0
  4  5  1  1
  6  7  2  0
  8  9  1  0
  8  6  1  0
  9 16  1  0
 10 11  1  0
  9 10  1  6
 11 15  1  0
 12 11  2  0
 12 13  1  0
 13 14  1  0
 15 14  2  0
 16 17  2  0
 18 19  1  0
 19 20  1  0
 20 21  1  0
 22 21  1  1
 22 24  1  0
 23 22  1  0
 23 16  1  0
 24 26  2  0
 24 25  1  0
M  END
$$$$
