VHM.pdb
     RDKit          3D

 26 26  0  0  1  0  0  0  0  0999 V2000
    7.9996  -12.2831   18.9645 C   0  0  0  0  0  0  0  0  0  0  0  0
    8.3152  -13.2009   20.1063 C   0  0  1  0  0  0  0  0  0  0  0  0
    7.2800  -13.0949   21.2151 C   0  0  0  0  0  0  0  0  0  0  0  0
    8.4515  -14.6142   19.6351 C   0  0  2  0  0  0  0  0  0  0  0  0
    7.1693  -15.0567   19.0349 N   0  0  0  0  0  0  0  0  0  0  0  0
    8.7615  -15.5793   20.7133 C   0  0  0  0  0  0  0  0  0  0  0  0
    7.7805  -16.1401   21.3280 O   0  0  0  0  0  0  0  0  0  0  0  0
   10.0411  -15.9602   21.1459 N   0  0  0  0  0  0  0  0  0  0  0  0
   10.1976  -16.9048   22.2870 C   0  0  1  0  0  0  0  0  0  0  0  0
   11.4960  -17.5838   22.0165 C   0  0  0  0  0  0  0  0  0  0  0  0
   11.4940  -18.6929   21.0745 C   0  0  0  0  0  0  0  0  0  0  0  0
   10.4472  -19.2930   20.4185 C   0  0  0  0  0  0  0  0  0  0  0  0
   10.8819  -20.3139   19.6519 N   0  0  0  0  0  0  0  0  0  0  0  0
   12.2153  -20.3630   19.8222 C   0  0  0  0  0  0  0  0  0  0  0  0
   12.5873  -19.4035   20.6659 N   0  0  0  0  0  0  0  0  0  0  0  0
   10.1071  -16.1013   23.5022 C   0  0  0  0  0  0  0  0  0  0  0  0
   10.9068  -15.1563   23.7069 O   0  0  0  0  0  0  0  0  0  0  0  0
    6.3269  -11.5764   26.1177 C   0  0  0  0  0  0  0  0  0  0  0  0
    7.6031  -12.4050   27.0451 S   0  0  0  0  0  0  0  0  0  0  0  0
    7.4603  -14.1760   27.0721 C   0  0  0  0  0  0  0  0  0  0  0  0
    7.7898  -14.8955   25.8160 C   0  0  0  0  0  0  0  0  0  0  0  0
    9.1125  -15.5840   25.7461 C   0  0  2  0  0  0  0  0  0  0  0  0
    9.1329  -16.3307   24.4923 N   0  0  0  0  0  0  0  0  0  0  0  0
    9.3619  -16.3886   26.9387 C   0  0  0  0  0  0  0  0  0  0  0  0
    9.3145  -17.7585   26.9595 O   0  0  0  0  0  0  0  0  0  0  0  0
    9.6406  -15.8200   28.0234 O   0  0  0  0  0  0  0  0  0  0  0  0
  2  4  1  0
  2  1  1  6
  3  2  1  0
  4  6  1  0
  4  5  1  1
  6  7  2  0
  8  9  1  0
  8  6  1  0
  9 16  1  0
 10 11  1  0
  9 10  1  6
 11 15  1  0
 12 11  2  0
 12 13  1  0
 13 14  1  0
 15 14  2  0
 16 17  2  0
 18 19  1  0
 19 20  1  0
 20 21  1  0
 22 21  1  1
 22 24  1  0
 23 22  1  0
 23 16  1  0
 24 26  2  0
 24 25  1  0
M  END
$$$$
