VHM.pdb
     RDKit          3D

 26 26  0  0  1  0  0  0  0  0999 V2000
    8.3188  -12.6262   21.3511 C   0  0  0  0  0  0  0  0  0  0  0  0
    7.7585  -13.1795   20.0761 C   0  0  1  0  0  0  0  0  0  0  0  0
    7.7304  -12.1325   18.9737 C   0  0  0  0  0  0  0  0  0  0  0  0
    8.5160  -14.3940   19.6412 C   0  0  2  0  0  0  0  0  0  0  0  0
    7.8488  -14.9904   18.4583 N   0  0  0  0  0  0  0  0  0  0  0  0
    8.5794  -15.4606   20.6652 C   0  0  0  0  0  0  0  0  0  0  0  0
    7.4907  -16.0716   20.9751 O   0  0  0  0  0  0  0  0  0  0  0  0
    9.7275  -15.8899   21.3487 N   0  0  0  0  0  0  0  0  0  0  0  0
    9.6135  -16.8638   22.4700 C   0  0  1  0  0  0  0  0  0  0  0  0
   10.5759  -17.9424   22.1089 C   0  0  0  0  0  0  0  0  0  0  0  0
   10.2166  -18.8276   21.0111 C   0  0  0  0  0  0  0  0  0  0  0  0
    9.1238  -18.8050   20.1795 C   0  0  0  0  0  0  0  0  0  0  0  0
    9.1621  -19.8327   19.3071 N   0  0  0  0  0  0  0  0  0  0  0  0
   10.2880  -20.5138   19.5866 C   0  0  0  0  0  0  0  0  0  0  0  0
   10.9204  -19.9233   20.5977 N   0  0  0  0  0  0  0  0  0  0  0  0
    9.8809  -16.1156   23.6944 C   0  0  0  0  0  0  0  0  0  0  0  0
   10.1682  -14.8950   23.6499 O   0  0  0  0  0  0  0  0  0  0  0  0
    7.2459  -11.8660   26.6656 C   0  0  0  0  0  0  0  0  0  0  0  0
    6.3233  -13.3841   26.5277 S   0  0  0  0  0  0  0  0  0  0  0  0
    7.2406  -14.8438   26.9581 C   0  0  0  0  0  0  0  0  0  0  0  0
    7.9773  -15.5216   25.8616 C   0  0  0  0  0  0  0  0  0  0  0  0
    9.3726  -15.9691   26.1463 C   0  0  2  0  0  0  0  0  0  0  0  0
    9.8266  -16.7062   24.9712 N   0  0  0  0  0  0  0  0  0  0  0  0
    9.4518  -16.7130   27.4003 C   0  0  0  0  0  0  0  0  0  0  0  0
    9.8721  -16.1686   28.5861 O   0  0  0  0  0  0  0  0  0  0  0  0
    9.1199  -17.9242   27.4249 O   0  0  0  0  0  0  0  0  0  0  0  0
  2  4  1  0
  2  1  1  1
  3  2  1  0
  4  6  1  0
  4  5  1  6
  6  7  2  0
  8  9  1  0
  8  6  1  0
  9 16  1  0
 10 11  1  0
  9 10  1  6
 11 15  1  0
 12 11  2  0
 12 13  1  0
 13 14  1  0
 15 14  2  0
 16 17  2  0
 18 19  1  0
 19 20  1  0
 20 21  1  0
 22 21  1  6
 22 24  1  0
 23 22  1  0
 23 16  1  0
 24 26  2  0
 24 25  1  0
M  END
$$$$
