VHM.pdb
     RDKit          3D

 26 26  0  0  1  0  0  0  0  0999 V2000
    8.7998  -12.6863   20.3102 C   0  0  0  0  0  0  0  0  0  0  0  0
    7.9957  -13.4051   19.2698 C   0  0  1  0  0  0  0  0  0  0  0  0
    7.8081  -12.5585   18.0206 C   0  0  0  0  0  0  0  0  0  0  0  0
    8.6137  -14.7253   18.9334 C   0  0  2  0  0  0  0  0  0  0  0  0
    7.7427  -15.4434   17.9712 N   0  0  0  0  0  0  0  0  0  0  0  0
    8.7789  -15.6247   20.0970 C   0  0  0  0  0  0  0  0  0  0  0  0
    7.7277  -16.1739   20.5951 O   0  0  0  0  0  0  0  0  0  0  0  0
    9.9881  -15.9535   20.7289 N   0  0  0  0  0  0  0  0  0  0  0  0
    9.9949  -16.8571   21.9131 C   0  0  1  0  0  0  0  0  0  0  0  0
   11.1945  -17.7158   21.7035 C   0  0  0  0  0  0  0  0  0  0  0  0
   11.0909  -18.7941   20.7318 C   0  0  0  0  0  0  0  0  0  0  0  0
    9.9793  -19.3869   20.1850 C   0  0  0  0  0  0  0  0  0  0  0  0
   10.3293  -20.3768   19.3387 N   0  0  0  0  0  0  0  0  0  0  0  0
   11.6740  -20.4135   19.3478 C   0  0  0  0  0  0  0  0  0  0  0  0
   12.1345  -19.4764   20.1729 N   0  0  0  0  0  0  0  0  0  0  0  0
    9.9916  -15.9939   23.0900 C   0  0  0  0  0  0  0  0  0  0  0  0
   10.8495  -15.0879   23.2228 O   0  0  0  0  0  0  0  0  0  0  0  0
    5.8639  -11.4880   27.7595 C   0  0  0  0  0  0  0  0  0  0  0  0
    5.9871  -12.7356   26.4933 S   0  0  0  0  0  0  0  0  0  0  0  0
    7.5259  -13.6241   26.4837 C   0  0  0  0  0  0  0  0  0  0  0  0
    7.7823  -14.5106   25.3207 C   0  0  0  0  0  0  0  0  0  0  0  0
    9.0672  -15.2702   25.3067 C   0  0  2  0  0  0  0  0  0  0  0  0
    9.0410  -16.1204   24.1206 N   0  0  0  0  0  0  0  0  0  0  0  0
    9.2825  -15.9830   26.5627 C   0  0  0  0  0  0  0  0  0  0  0  0
    9.7379  -15.3876   27.7105 O   0  0  0  0  0  0  0  0  0  0  0  0
    9.0430  -17.2144   26.6259 O   0  0  0  0  0  0  0  0  0  0  0  0
  2  4  1  0
  2  1  1  1
  3  2  1  0
  4  6  1  0
  4  5  1  6
  6  7  2  0
  8  9  1  0
  8  6  1  0
  9 16  1  0
 10 11  1  0
  9 10  1  6
 11 15  1  0
 12 11  2  0
 12 13  1  0
 13 14  1  0
 15 14  2  0
 16 17  2  0
 18 19  1  0
 19 20  1  0
 20 21  1  0
 22 21  1  1
 22 24  1  0
 23 22  1  0
 23 16  1  0
 24 26  2  0
 24 25  1  0
M  END
$$$$
