VHM.pdb
     RDKit          3D

 26 26  0  0  1  0  0  0  0  0999 V2000
    8.2735  -12.0971   18.8187 C   0  0  0  0  0  0  0  0  0  0  0  0
    8.3773  -13.0365   19.9816 C   0  0  1  0  0  0  0  0  0  0  0  0
    7.2059  -12.8782   20.9382 C   0  0  0  0  0  0  0  0  0  0  0  0
    8.5002  -14.4530   19.5162 C   0  0  2  0  0  0  0  0  0  0  0  0
    7.3272  -14.7963   18.6758 N   0  0  0  0  0  0  0  0  0  0  0  0
    8.5306  -15.4451   20.6139 C   0  0  0  0  0  0  0  0  0  0  0  0
    7.4193  -15.9770   20.9838 O   0  0  0  0  0  0  0  0  0  0  0  0
    9.6689  -15.8811   21.3094 N   0  0  0  0  0  0  0  0  0  0  0  0
    9.5462  -16.9083   22.3811 C   0  0  1  0  0  0  0  0  0  0  0  0
   10.5466  -17.9453   22.0017 C   0  0  0  0  0  0  0  0  0  0  0  0
   10.7408  -19.0616   22.9148 C   0  0  0  0  0  0  0  0  0  0  0  0
   10.1393  -19.3326   24.1193 C   0  0  0  0  0  0  0  0  0  0  0  0
   10.6332  -20.4653   24.6594 N   0  0  0  0  0  0  0  0  0  0  0  0
   11.5560  -20.9176   23.7914 C   0  0  0  0  0  0  0  0  0  0  0  0
   11.6263  -20.0894   22.7521 N   0  0  0  0  0  0  0  0  0  0  0  0
    9.7572  -16.2112   23.6461 C   0  0  0  0  0  0  0  0  0  0  0  0
   10.7477  -15.4576   23.8052 O   0  0  0  0  0  0  0  0  0  0  0  0
    6.5456  -10.8763   25.9060 C   0  0  0  0  0  0  0  0  0  0  0  0
    6.5233  -12.5651   26.4740 S   0  0  0  0  0  0  0  0  0  0  0  0
    7.9117  -13.5382   25.9420 C   0  0  0  0  0  0  0  0  0  0  0  0
    7.9742  -14.9402   26.4265 C   0  0  0  0  0  0  0  0  0  0  0  0
    9.1689  -15.7474   26.0399 C   0  0  2  0  0  0  0  0  0  0  0  0
    8.8759  -16.3358   24.7368 N   0  0  0  0  0  0  0  0  0  0  0  0
    9.5236  -16.7111   27.0779 C   0  0  0  0  0  0  0  0  0  0  0  0
   10.3046  -16.4113   28.1639 O   0  0  0  0  0  0  0  0  0  0  0  0
    9.1011  -17.8913   26.9988 O   0  0  0  0  0  0  0  0  0  0  0  0
  2  4  1  0
  2  1  1  6
  3  2  1  0
  4  6  1  0
  4  5  1  6
  6  7  2  0
  8  9  1  0
  8  6  1  0
  9 16  1  0
 10 11  1  0
  9 10  1  6
 11 15  1  0
 12 11  2  0
 12 13  1  0
 13 14  1  0
 15 14  2  0
 16 17  2  0
 18 19  1  0
 19 20  1  0
 20 21  1  0
 22 21  1  1
 22 24  1  0
 23 22  1  0
 23 16  1  0
 24 26  2  0
 24 25  1  0
M  END
$$$$
