VDL.pdb
     RDKit          3D

 24 23  0  0  1  0  0  0  0  0999 V2000
    7.7902  -12.5666   18.6150 C   0  0  0  0  0  0  0  0  0  0  0  0
    7.7990  -13.3747   19.8941 C   0  0  2  0  0  0  0  0  0  0  0  0
    8.6810  -12.6756   20.8757 C   0  0  0  0  0  0  0  0  0  0  0  0
    8.2730  -14.7693   19.5743 C   0  0  2  0  0  0  0  0  0  0  0  0
    7.4713  -15.3764   18.5548 N   0  0  0  0  0  0  0  0  0  0  0  0
    8.3575  -15.6154   20.8010 C   0  0  0  0  0  0  0  0  0  0  0  0
    7.3187  -16.1605   21.2531 O   0  0  0  0  0  0  0  0  0  0  0  0
    9.5859  -15.8369   21.4953 N   0  0  0  0  0  0  0  0  0  0  0  0
    9.6809  -16.6536   22.6845 C   0  0  1  0  0  0  0  0  0  0  0  0
   10.8317  -17.6112   22.6399 C   0  0  0  0  0  0  0  0  0  0  0  0
   10.8525  -18.5804   23.7274 C   0  0  0  0  0  0  0  0  0  0  0  0
    9.7967  -18.9012   24.3147 O   0  0  0  0  0  0  0  0  0  0  0  0
    9.6807  -15.8152   23.9049 C   0  0  0  0  0  0  0  0  0  0  0  0
   10.6714  -15.0950   24.1640 O   0  0  0  0  0  0  0  0  0  0  0  0
   12.0370  -19.1629   24.1301 O   0  0  0  0  0  0  0  0  0  0  0  0
    5.8706  -12.5030   25.8597 C   0  0  0  0  0  0  0  0  0  0  0  0
    7.2214  -12.9664   26.4010 C   0  0  2  0  0  0  0  0  0  0  0  0
    8.2903  -12.2919   25.5909 C   0  0  0  0  0  0  0  0  0  0  0  0
    7.2726  -14.4485   26.2779 C   0  0  0  0  0  0  0  0  0  0  0  0
    8.6467  -15.0100   26.0348 C   0  0  2  0  0  0  0  0  0  0  0  0
    8.5861  -15.7992   24.7999 N   0  0  0  0  0  0  0  0  0  0  0  0
    9.0159  -15.9489   27.1064 C   0  0  0  0  0  0  0  0  0  0  0  0
    9.3147  -15.5381   28.2492 O   0  0  0  0  0  0  0  0  0  0  0  0
    9.0569  -17.3437   26.9225 O   0  0  0  0  0  0  0  0  0  0  0  0
  2  1  1  6
  2  4  1  0
  3  2  1  0
  4  5  1  6
  6  7  2  0
  6  4  1  0
  8  6  1  0
  9  8  1  0
  9 10  1  6
 10 11  1  0
 11 15  1  0
 12 11  2  0
 13  9  1  0
 14 13  2  0
 17 16  1  6
 17 19  1  0
 18 17  1  0
 20 19  1  1
 20 22  1  0
 20 21  1  0
 21 13  1  0
 22 24  1  0
 23 22  2  0
M  END
$$$$
