VDL.pdb
     RDKit          3D

 24 23  0  0  1  0  0  0  0  0999 V2000
    7.2811  -12.9285   21.5611 C   0  0  0  0  0  0  0  0  0  0  0  0
    8.2566  -13.2250   20.4432 C   0  0  2  0  0  0  0  0  0  0  0  0
    7.9095  -12.3503   19.2836 C   0  0  0  0  0  0  0  0  0  0  0  0
    8.1713  -14.6931   20.1123 C   0  0  2  0  0  0  0  0  0  0  0  0
    6.9109  -15.0262   19.5199 N   0  0  0  0  0  0  0  0  0  0  0  0
    8.4754  -15.5426   21.3013 C   0  0  0  0  0  0  0  0  0  0  0  0
    7.5347  -16.0848   21.9349 O   0  0  0  0  0  0  0  0  0  0  0  0
    9.8092  -15.7706   21.7585 N   0  0  0  0  0  0  0  0  0  0  0  0
   10.1233  -16.6561   22.8573 C   0  0  1  0  0  0  0  0  0  0  0  0
   11.3882  -17.4273   22.6371 C   0  0  0  0  0  0  0  0  0  0  0  0
   11.6652  -18.4347   23.6525 C   0  0  0  0  0  0  0  0  0  0  0  0
   12.8422  -18.7396   23.9425 O   0  0  0  0  0  0  0  0  0  0  0  0
   10.1147  -15.9263   24.1456 C   0  0  0  0  0  0  0  0  0  0  0  0
   11.0838  -15.1953   24.4520 O   0  0  0  0  0  0  0  0  0  0  0  0
   10.6346  -19.0716   24.3134 O   0  0  0  0  0  0  0  0  0  0  0  0
    8.3479  -12.4732   26.0416 C   0  0  0  0  0  0  0  0  0  0  0  0
    7.3867  -13.6188   25.7317 C   0  0  2  0  0  0  0  0  0  0  0  0
    5.9923  -13.1201   25.9782 C   0  0  0  0  0  0  0  0  0  0  0  0
    7.7421  -14.7589   26.6196 C   0  0  0  0  0  0  0  0  0  0  0  0
    9.0965  -15.3585   26.3580 C   0  0  2  0  0  0  0  0  0  0  0  0
    9.0358  -16.0274   25.0541 N   0  0  0  0  0  0  0  0  0  0  0  0
    9.3943  -16.4078   27.3461 C   0  0  0  0  0  0  0  0  0  0  0  0
    9.1507  -17.6102   27.1034 O   0  0  0  0  0  0  0  0  0  0  0  0
    9.9615  -16.1357   28.6052 O   0  0  0  0  0  0  0  0  0  0  0  0
  2  1  1  1
  2  4  1  0
  3  2  1  0
  4  5  1  1
  6  7  2  0
  6  4  1  0
  8  6  1  0
  9  8  1  0
  9 10  1  6
 10 11  1  0
 11 15  1  0
 12 11  2  0
 13  9  1  0
 14 13  2  0
 17 16  1  1
 17 19  1  0
 18 17  1  0
 20 19  1  1
 20 22  1  0
 20 21  1  0
 21 13  1  0
 22 24  1  0
 23 22  2  0
M  END
$$$$
