VDL.pdb
     RDKit          3D

 24 23  0  0  1  0  0  0  0  0999 V2000
    7.5641  -12.9197   20.3372 C   0  0  0  0  0  0  0  0  0  0  0  0
    8.7433  -13.3321   19.4836 C   0  0  2  0  0  0  0  0  0  0  0  0
    8.7123  -12.5203   18.2305 C   0  0  0  0  0  0  0  0  0  0  0  0
    8.6478  -14.8133   19.2214 C   0  0  2  0  0  0  0  0  0  0  0  0
    7.4811  -15.1379   18.4572 N   0  0  0  0  0  0  0  0  0  0  0  0
    8.7282  -15.6013   20.4864 C   0  0  0  0  0  0  0  0  0  0  0  0
    7.6759  -16.0514   21.0065 O   0  0  0  0  0  0  0  0  0  0  0  0
    9.9677  -15.8711   21.1430 N   0  0  0  0  0  0  0  0  0  0  0  0
   10.0630  -16.6645   22.3479 C   0  0  1  0  0  0  0  0  0  0  0  0
   11.2773  -17.5410   22.3705 C   0  0  0  0  0  0  0  0  0  0  0  0
   11.3786  -18.4012   23.5418 C   0  0  0  0  0  0  0  0  0  0  0  0
   12.3836  -18.3512   24.2836 O   0  0  0  0  0  0  0  0  0  0  0  0
    9.9491  -15.8129   23.5538 C   0  0  0  0  0  0  0  0  0  0  0  0
   10.8983  -15.0633   23.8768 O   0  0  0  0  0  0  0  0  0  0  0  0
   10.3683  -19.2875   23.8553 O   0  0  0  0  0  0  0  0  0  0  0  0
    5.6623  -13.0085   26.7195 C   0  0  0  0  0  0  0  0  0  0  0  0
    7.1245  -13.4473   26.7628 C   0  0  2  0  0  0  0  0  0  0  0  0
    7.9717  -12.2097   26.6956 C   0  0  0  0  0  0  0  0  0  0  0  0
    7.3584  -14.3532   25.6057 C   0  0  0  0  0  0  0  0  0  0  0  0
    8.7233  -14.9844   25.5699 C   0  0  2  0  0  0  0  0  0  0  0  0
    8.7902  -15.8168   24.3641 N   0  0  0  0  0  0  0  0  0  0  0  0
    8.8982  -15.8971   26.7112 C   0  0  0  0  0  0  0  0  0  0  0  0
    8.3403  -17.0161   26.7335 O   0  0  0  0  0  0  0  0  0  0  0  0
    9.6885  -15.5798   27.8318 O   0  0  0  0  0  0  0  0  0  0  0  0
  2  1  1  1
  2  4  1  0
  3  2  1  0
  4  5  1  1
  6  7  2  0
  6  4  1  0
  8  6  1  0
  9  8  1  0
  9 10  1  1
 10 11  1  0
 11 15  1  0
 12 11  2  0
 13  9  1  0
 14 13  2  0
 17 16  1  6
 17 19  1  0
 18 17  1  0
 20 19  1  1
 20 22  1  0
 20 21  1  0
 21 13  1  0
 22 24  1  0
 23 22  2  0
M  END
$$$$
