VDL.pdb
     RDKit          3D

 24 23  0  0  1  0  0  0  0  0999 V2000
    7.8781  -13.2141   18.2431 C   0  0  0  0  0  0  0  0  0  0  0  0
    7.6357  -13.7162   19.6496 C   0  0  2  0  0  0  0  0  0  0  0  0
    7.2393  -12.5501   20.4942 C   0  0  0  0  0  0  0  0  0  0  0  0
    8.8921  -14.3901   20.1389 C   0  0  2  0  0  0  0  0  0  0  0  0
    9.4066  -15.3104   19.1699 N   0  0  0  0  0  0  0  0  0  0  0  0
    8.6878  -15.0323   21.4707 C   0  0  0  0  0  0  0  0  0  0  0  0
    7.8852  -14.5198   22.2915 O   0  0  0  0  0  0  0  0  0  0  0  0
    9.3748  -16.2223   21.8605 N   0  0  0  0  0  0  0  0  0  0  0  0
    9.1470  -16.8833   23.1260 C   0  0  1  0  0  0  0  0  0  0  0  0
    9.6230  -18.3033   23.1324 C   0  0  0  0  0  0  0  0  0  0  0  0
   11.0596  -18.4590   22.9465 C   0  0  0  0  0  0  0  0  0  0  0  0
   11.8664  -17.8494   23.6812 O   0  0  0  0  0  0  0  0  0  0  0  0
    9.7005  -16.0889   24.2462 C   0  0  0  0  0  0  0  0  0  0  0  0
   10.3276  -15.0319   24.0080 O   0  0  0  0  0  0  0  0  0  0  0  0
   11.5574  -19.2817   21.9566 O   0  0  0  0  0  0  0  0  0  0  0  0
    9.2122  -12.6554   26.9591 C   0  0  0  0  0  0  0  0  0  0  0  0
    8.2448  -13.3558   26.0074 C   0  0  2  0  0  0  0  0  0  0  0  0
    6.9378  -12.6195   26.0663 C   0  0  0  0  0  0  0  0  0  0  0  0
    8.1154  -14.7691   26.4545 C   0  0  0  0  0  0  0  0  0  0  0  0
    9.4230  -15.4846   26.6569 C   0  0  2  0  0  0  0  0  0  0  0  0
    9.5435  -16.4878   25.5938 N   0  0  0  0  0  0  0  0  0  0  0  0
    9.4111  -16.2288   27.9266 C   0  0  0  0  0  0  0  0  0  0  0  0
    9.7541  -15.6822   28.9979 O   0  0  0  0  0  0  0  0  0  0  0  0
    9.0214  -17.5780   28.0203 O   0  0  0  0  0  0  0  0  0  0  0  0
  2  1  1  6
  2  4  1  0
  3  2  1  0
  4  5  1  6
  6  7  2  0
  6  4  1  0
  8  6  1  0
  9  8  1  0
  9 10  1  6
 10 11  1  0
 11 15  1  0
 12 11  2  0
 13  9  1  0
 14 13  2  0
 17 16  1  1
 17 19  1  0
 18 17  1  0
 20 19  1  6
 20 22  1  0
 20 21  1  0
 21 13  1  0
 22 24  1  0
 23 22  2  0
M  END
$$$$
