VDL.pdb
     RDKit          3D

 24 23  0  0  1  0  0  0  0  0999 V2000
    7.7808  -12.4841   18.6731 C   0  0  0  0  0  0  0  0  0  0  0  0
    7.7342  -13.2778   19.9603 C   0  0  2  0  0  0  0  0  0  0  0  0
    8.4595  -12.5000   21.0087 C   0  0  0  0  0  0  0  0  0  0  0  0
    8.3482  -14.6312   19.7090 C   0  0  2  0  0  0  0  0  0  0  0  0
    7.7195  -15.2977   18.6085 N   0  0  0  0  0  0  0  0  0  0  0  0
    8.3545  -15.4693   20.9441 C   0  0  0  0  0  0  0  0  0  0  0  0
    7.3465  -16.1643   21.2290 O   0  0  0  0  0  0  0  0  0  0  0  0
    9.4730  -15.5174   21.8311 N   0  0  0  0  0  0  0  0  0  0  0  0
    9.5061  -16.3530   23.0105 C   0  0  1  0  0  0  0  0  0  0  0  0
   10.4886  -17.4778   22.8968 C   0  0  0  0  0  0  0  0  0  0  0  0
   10.4998  -18.3864   24.0355 C   0  0  0  0  0  0  0  0  0  0  0  0
   11.4912  -18.4435   24.7948 O   0  0  0  0  0  0  0  0  0  0  0  0
    9.7061  -15.5394   24.2313 C   0  0  0  0  0  0  0  0  0  0  0  0
   10.8072  -14.9780   24.4302 O   0  0  0  0  0  0  0  0  0  0  0  0
    9.4174  -19.2012   24.2982 O   0  0  0  0  0  0  0  0  0  0  0  0
    7.6957  -11.9669   25.6421 C   0  0  0  0  0  0  0  0  0  0  0  0
    6.8557  -13.2186   25.8871 C   0  0  2  0  0  0  0  0  0  0  0  0
    5.5173  -12.7732   26.4010 C   0  0  0  0  0  0  0  0  0  0  0  0
    7.5834  -14.0650   26.8712 C   0  0  0  0  0  0  0  0  0  0  0  0
    8.9191  -14.5690   26.3976 C   0  0  2  0  0  0  0  0  0  0  0  0
    8.6832  -15.3722   25.1932 N   0  0  0  0  0  0  0  0  0  0  0  0
    9.5073  -15.4805   27.3923 C   0  0  0  0  0  0  0  0  0  0  0  0
   10.0026  -15.0435   28.4542 O   0  0  0  0  0  0  0  0  0  0  0  0
    9.5517  -16.8768   27.2202 O   0  0  0  0  0  0  0  0  0  0  0  0
  2  1  1  6
  2  4  1  0
  3  2  1  0
  4  5  1  6
  6  7  2  0
  6  4  1  0
  8  6  1  0
  9  8  1  0
  9 10  1  6
 10 11  1  0
 11 15  1  0
 12 11  2  0
 13  9  1  0
 14 13  2  0
 17 16  1  1
 17 19  1  0
 18 17  1  0
 20 19  1  1
 20 22  1  0
 20 21  1  0
 21 13  1  0
 22 24  1  0
 23 22  2  0
M  END
$$$$
