VDL.pdb
     RDKit          3D

 24 23  0  0  1  0  0  0  0  0999 V2000
    7.4163  -12.4517   18.9573 C   0  0  0  0  0  0  0  0  0  0  0  0
    7.6734  -13.2408   20.2223 C   0  0  2  0  0  0  0  0  0  0  0  0
    8.6692  -12.4878   21.0417 C   0  0  0  0  0  0  0  0  0  0  0  0
    8.1556  -14.6159   19.8373 C   0  0  2  0  0  0  0  0  0  0  0  0
    7.2685  -15.2420   18.9036 N   0  0  0  0  0  0  0  0  0  0  0  0
    8.4005  -15.4682   21.0379 C   0  0  0  0  0  0  0  0  0  0  0  0
    7.4289  -16.0064   21.6269 O   0  0  0  0  0  0  0  0  0  0  0  0
    9.7107  -15.7032   21.5558 N   0  0  0  0  0  0  0  0  0  0  0  0
    9.9658  -16.5651   22.6882 C   0  0  1  0  0  0  0  0  0  0  0  0
   11.1907  -17.4085   22.5106 C   0  0  0  0  0  0  0  0  0  0  0  0
   11.3069  -18.5103   23.4566 C   0  0  0  0  0  0  0  0  0  0  0  0
   10.3339  -18.8456   24.1662 O   0  0  0  0  0  0  0  0  0  0  0  0
    9.9816  -15.7914   23.9505 C   0  0  0  0  0  0  0  0  0  0  0  0
   10.9551  -15.0490   24.2120 O   0  0  0  0  0  0  0  0  0  0  0  0
   12.4921  -19.2050   23.5879 O   0  0  0  0  0  0  0  0  0  0  0  0
    8.5245  -12.3436   25.9283 C   0  0  0  0  0  0  0  0  0  0  0  0
    7.4548  -13.4034   25.6738 C   0  0  2  0  0  0  0  0  0  0  0  0
    6.1234  -12.7921   26.0020 C   0  0  0  0  0  0  0  0  0  0  0  0
    7.7650  -14.5744   26.5380 C   0  0  0  0  0  0  0  0  0  0  0  0
    9.0617  -15.2652   26.2156 C   0  0  2  0  0  0  0  0  0  0  0  0
    8.9213  -15.8626   24.8835 N   0  0  0  0  0  0  0  0  0  0  0  0
    9.2950  -16.3817   27.1457 C   0  0  0  0  0  0  0  0  0  0  0  0
    9.5671  -16.1732   28.3484 O   0  0  0  0  0  0  0  0  0  0  0  0
    9.2292  -17.7319   26.7537 O   0  0  0  0  0  0  0  0  0  0  0  0
  2  1  1  6
  2  4  1  0
  3  2  1  0
  4  5  1  6
  6  7  2  0
  6  4  1  0
  8  6  1  0
  9  8  1  0
  9 10  1  6
 10 11  1  0
 11 15  1  0
 12 11  2  0
 13  9  1  0
 14 13  2  0
 17 16  1  1
 17 19  1  0
 18 17  1  0
 20 19  1  1
 20 22  1  0
 20 21  1  0
 21 13  1  0
 22 24  1  0
 23 22  2  0
M  END
$$$$
