VDL.pdb
     RDKit          3D

 24 23  0  0  1  0  0  0  0  0999 V2000
    8.0665  -12.5935   18.3583 C   0  0  0  0  0  0  0  0  0  0  0  0
    7.9032  -13.3674   19.6481 C   0  0  2  0  0  0  0  0  0  0  0  0
    8.5168  -12.5655   20.7484 C   0  0  0  0  0  0  0  0  0  0  0  0
    8.5512  -14.7178   19.4796 C   0  0  2  0  0  0  0  0  0  0  0  0
    8.0805  -15.3837   18.3025 N   0  0  0  0  0  0  0  0  0  0  0  0
    8.3932  -15.5591   20.7024 C   0  0  0  0  0  0  0  0  0  0  0  0
    7.2899  -16.1142   20.9368 O   0  0  0  0  0  0  0  0  0  0  0  0
    9.4570  -15.7649   21.6330 N   0  0  0  0  0  0  0  0  0  0  0  0
    9.3172  -16.5784   22.8200 C   0  0  1  0  0  0  0  0  0  0  0  0
   10.1673  -17.8109   22.7816 C   0  0  0  0  0  0  0  0  0  0  0  0
   11.5797  -17.5620   22.5254 C   0  0  0  0  0  0  0  0  0  0  0  0
   12.4309  -17.7406   23.4233 O   0  0  0  0  0  0  0  0  0  0  0  0
    9.5322  -15.7725   24.0433 C   0  0  0  0  0  0  0  0  0  0  0  0
   10.6353  -15.2113   24.2317 O   0  0  0  0  0  0  0  0  0  0  0  0
   12.0054  -17.1245   21.2877 O   0  0  0  0  0  0  0  0  0  0  0  0
    8.3382  -12.0988   25.6930 C   0  0  0  0  0  0  0  0  0  0  0  0
    7.1930  -13.1073   25.7545 C   0  0  2  0  0  0  0  0  0  0  0  0
    5.9661  -12.3731   26.2124 C   0  0  0  0  0  0  0  0  0  0  0  0
    7.5905  -14.1845   26.7010 C   0  0  0  0  0  0  0  0  0  0  0  0
    8.8182  -14.9533   26.2956 C   0  0  2  0  0  0  0  0  0  0  0  0
    8.5216  -15.6125   25.0194 N   0  0  0  0  0  0  0  0  0  0  0  0
    9.0936  -16.0293   27.2613 C   0  0  0  0  0  0  0  0  0  0  0  0
    8.7300  -17.2049   27.0380 O   0  0  0  0  0  0  0  0  0  0  0  0
    9.7707  -15.8137   28.4762 O   0  0  0  0  0  0  0  0  0  0  0  0
  2  1  1  6
  2  4  1  0
  3  2  1  0
  4  5  1  6
  6  7  2  0
  6  4  1  0
  8  6  1  0
  9  8  1  0
  9 10  1  6
 10 11  1  0
 11 15  1  0
 12 11  2  0
 13  9  1  0
 14 13  2  0
 17 16  1  1
 17 19  1  0
 18 17  1  0
 20 19  1  1
 20 22  1  0
 20 21  1  0
 21 13  1  0
 22 24  1  0
 23 22  2  0
M  END
$$$$
