VDL.pdb
     RDKit          3D

 24 23  0  0  1  0  0  0  0  0999 V2000
    8.1348  -12.4638   18.3137 C   0  0  0  0  0  0  0  0  0  0  0  0
    7.8416  -13.3492   19.5051 C   0  0  2  0  0  0  0  0  0  0  0  0
    8.1828  -12.5859   20.7425 C   0  0  0  0  0  0  0  0  0  0  0  0
    8.6412  -14.6191   19.3643 C   0  0  2  0  0  0  0  0  0  0  0  0
    8.3912  -15.2614   18.1091 N   0  0  0  0  0  0  0  0  0  0  0  0
    8.4205  -15.5380   20.5196 C   0  0  0  0  0  0  0  0  0  0  0  0
    7.5320  -16.4244   20.4480 O   0  0  0  0  0  0  0  0  0  0  0  0
    9.1863  -15.4535   21.7223 N   0  0  0  0  0  0  0  0  0  0  0  0
    8.9341  -16.2882   22.8755 C   0  0  1  0  0  0  0  0  0  0  0  0
    9.5381  -17.6527   22.7469 C   0  0  0  0  0  0  0  0  0  0  0  0
   10.9746  -17.6561   22.5041 C   0  0  0  0  0  0  0  0  0  0  0  0
   11.4679  -16.9574   21.5925 O   0  0  0  0  0  0  0  0  0  0  0  0
    9.3330  -15.6010   24.1249 C   0  0  0  0  0  0  0  0  0  0  0  0
   10.5207  -15.2383   24.2824 O   0  0  0  0  0  0  0  0  0  0  0  0
   11.8182  -18.4300   23.2747 O   0  0  0  0  0  0  0  0  0  0  0  0
    7.8650  -11.9339   25.5208 C   0  0  0  0  0  0  0  0  0  0  0  0
    6.9183  -13.0603   25.9299 C   0  0  2  0  0  0  0  0  0  0  0  0
    5.6844  -12.4288   26.5066 C   0  0  0  0  0  0  0  0  0  0  0  0
    7.6309  -13.9113   26.9210 C   0  0  0  0  0  0  0  0  0  0  0  0
    8.8314  -14.6357   26.3767 C   0  0  2  0  0  0  0  0  0  0  0  0
    8.4068  -15.3366   25.1602 N   0  0  0  0  0  0  0  0  0  0  0  0
    9.2752  -15.6762   27.3183 C   0  0  0  0  0  0  0  0  0  0  0  0
    8.9940  -16.8800   27.1287 O   0  0  0  0  0  0  0  0  0  0  0  0
   10.0303  -15.3938   28.4721 O   0  0  0  0  0  0  0  0  0  0  0  0
  2  1  1  6
  2  4  1  0
  3  2  1  0
  4  5  1  6
  6  7  2  0
  6  4  1  0
  8  6  1  0
  9  8  1  0
  9 10  1  6
 10 11  1  0
 11 15  1  0
 12 11  2  0
 13  9  1  0
 14 13  2  0
 17 16  1  1
 17 19  1  0
 18 17  1  0
 20 19  1  1
 20 22  1  0
 20 21  1  0
 21 13  1  0
 22 24  1  0
 23 22  2  0
M  END
$$$$
