VDL.pdb
     RDKit          3D

 24 23  0  0  1  0  0  0  0  0999 V2000
    7.3728  -13.1738   20.7364 C   0  0  0  0  0  0  0  0  0  0  0  0
    8.5298  -13.4619   19.8051 C   0  0  2  0  0  0  0  0  0  0  0  0
    8.3325  -12.6585   18.5617 C   0  0  0  0  0  0  0  0  0  0  0  0
    8.5716  -14.9451   19.5404 C   0  0  2  0  0  0  0  0  0  0  0  0
    7.4198  -15.3816   18.8100 N   0  0  0  0  0  0  0  0  0  0  0  0
    8.7662  -15.7224   20.7997 C   0  0  0  0  0  0  0  0  0  0  0  0
    7.7651  -16.0793   21.4711 O   0  0  0  0  0  0  0  0  0  0  0  0
   10.0604  -16.0846   21.2837 N   0  0  0  0  0  0  0  0  0  0  0  0
   10.2672  -16.7637   22.5431 C   0  0  1  0  0  0  0  0  0  0  0  0
   11.5319  -17.5657   22.5685 C   0  0  0  0  0  0  0  0  0  0  0  0
   11.6154  -18.5934   21.5393 C   0  0  0  0  0  0  0  0  0  0  0  0
   10.7053  -19.4405   21.4101 O   0  0  0  0  0  0  0  0  0  0  0  0
   10.1660  -15.8184   23.6782 C   0  0  0  0  0  0  0  0  0  0  0  0
   11.1534  -15.1154   23.9913 O   0  0  0  0  0  0  0  0  0  0  0  0
   12.6996  -18.6519   20.6876 O   0  0  0  0  0  0  0  0  0  0  0  0
    5.9167  -12.6532   26.5862 C   0  0  0  0  0  0  0  0  0  0  0  0
    7.3466  -13.1748   26.7114 C   0  0  2  0  0  0  0  0  0  0  0  0
    8.2631  -11.9859   26.7307 C   0  0  0  0  0  0  0  0  0  0  0  0
    7.6053  -14.0663   25.5484 C   0  0  0  0  0  0  0  0  0  0  0  0
    8.9296  -14.7785   25.5871 C   0  0  2  0  0  0  0  0  0  0  0  0
    8.9770  -15.6800   24.4311 N   0  0  0  0  0  0  0  0  0  0  0  0
    9.0188  -15.6344   26.7812 C   0  0  0  0  0  0  0  0  0  0  0  0
    9.7089  -15.2954   27.7675 O   0  0  0  0  0  0  0  0  0  0  0  0
    8.3479  -16.8666   26.8925 O   0  0  0  0  0  0  0  0  0  0  0  0
  2  1  1  1
  2  4  1  0
  3  2  1  0
  4  5  1  1
  6  7  2  0
  6  4  1  0
  8  6  1  0
  9  8  1  0
  9 10  1  6
 10 11  1  0
 11 15  1  0
 12 11  2  0
 13  9  1  0
 14 13  2  0
 17 16  1  6
 17 19  1  0
 18 17  1  0
 20 19  1  1
 20 22  1  0
 20 21  1  0
 21 13  1  0
 22 24  1  0
 23 22  2  0
M  END
$$$$
