VDL.pdb
     RDKit          3D

 24 23  0  0  1  0  0  0  0  0999 V2000
    7.6616  -12.3958   18.6547 C   0  0  0  0  0  0  0  0  0  0  0  0
    7.6958  -13.2416   19.9088 C   0  0  2  0  0  0  0  0  0  0  0  0
    8.5381  -12.5349   20.9193 C   0  0  0  0  0  0  0  0  0  0  0  0
    8.2336  -14.6036   19.5513 C   0  0  2  0  0  0  0  0  0  0  0  0
    7.4846  -15.2021   18.4876 N   0  0  0  0  0  0  0  0  0  0  0  0
    8.3184  -15.4918   20.7478 C   0  0  0  0  0  0  0  0  0  0  0  0
    7.3030  -16.1330   21.1194 O   0  0  0  0  0  0  0  0  0  0  0  0
    9.5216  -15.6482   21.5015 N   0  0  0  0  0  0  0  0  0  0  0  0
    9.6379  -16.5609   22.6168 C   0  0  1  0  0  0  0  0  0  0  0  0
   10.7597  -17.5393   22.4508 C   0  0  0  0  0  0  0  0  0  0  0  0
   10.6720  -18.7098   23.3136 C   0  0  0  0  0  0  0  0  0  0  0  0
   10.5921  -18.5816   24.5545 O   0  0  0  0  0  0  0  0  0  0  0  0
    9.7056  -15.8246   23.8996 C   0  0  0  0  0  0  0  0  0  0  0  0
   10.6990  -15.1056   24.1516 O   0  0  0  0  0  0  0  0  0  0  0  0
   10.6752  -19.9820   22.7787 O   0  0  0  0  0  0  0  0  0  0  0  0
    8.0131  -12.2944   26.0414 C   0  0  0  0  0  0  0  0  0  0  0  0
    7.0462  -13.4132   25.6601 C   0  0  2  0  0  0  0  0  0  0  0  0
    5.6568  -12.9386   25.9736 C   0  0  0  0  0  0  0  0  0  0  0  0
    7.4197  -14.6201   26.4464 C   0  0  0  0  0  0  0  0  0  0  0  0
    8.7808  -15.1771   26.1310 C   0  0  2  0  0  0  0  0  0  0  0  0
    8.6736  -15.9062   24.8629 N   0  0  0  0  0  0  0  0  0  0  0  0
    9.1787  -16.1680   27.1440 C   0  0  0  0  0  0  0  0  0  0  0  0
    8.8703  -17.3739   27.0225 O   0  0  0  0  0  0  0  0  0  0  0  0
    9.9176  -15.8335   28.2942 O   0  0  0  0  0  0  0  0  0  0  0  0
  2  1  1  6
  2  4  1  0
  3  2  1  0
  4  5  1  6
  6  7  2  0
  6  4  1  0
  8  6  1  0
  9  8  1  0
  9 10  1  6
 10 11  1  0
 11 15  1  0
 12 11  2  0
 13  9  1  0
 14 13  2  0
 17 16  1  1
 17 19  1  0
 18 17  1  0
 20 19  1  1
 20 22  1  0
 20 21  1  0
 21 13  1  0
 22 24  1  0
 23 22  2  0
M  END
$$$$
