VDL.pdb
     RDKit          3D

 24 23  0  0  1  0  0  0  0  0999 V2000
    7.2770  -12.8691   21.2285 C   0  0  0  0  0  0  0  0  0  0  0  0
    8.3203  -13.3679   20.2529 C   0  0  2  0  0  0  0  0  0  0  0  0
    8.1805  -12.5864   18.9880 C   0  0  0  0  0  0  0  0  0  0  0  0
    8.1153  -14.8473   20.0499 C   0  0  2  0  0  0  0  0  0  0  0  0
    6.8845  -15.1193   19.3704 N   0  0  0  0  0  0  0  0  0  0  0  0
    8.2256  -15.5984   21.3350 C   0  0  0  0  0  0  0  0  0  0  0  0
    7.1835  -16.0043   21.9093 O   0  0  0  0  0  0  0  0  0  0  0  0
    9.4827  -15.8812   21.9513 N   0  0  0  0  0  0  0  0  0  0  0  0
    9.6076  -16.6652   23.1596 C   0  0  1  0  0  0  0  0  0  0  0  0
   10.6014  -17.7780   23.0286 C   0  0  0  0  0  0  0  0  0  0  0  0
   10.5468  -18.7648   24.0990 C   0  0  0  0  0  0  0  0  0  0  0  0
    9.6761  -18.6874   24.9925 O   0  0  0  0  0  0  0  0  0  0  0  0
    9.8711  -15.7972   24.3298 C   0  0  0  0  0  0  0  0  0  0  0  0
   10.9664  -15.1984   24.4252 O   0  0  0  0  0  0  0  0  0  0  0  0
   11.4542  -19.8034   24.1476 O   0  0  0  0  0  0  0  0  0  0  0  0
    8.0009  -12.0744   26.0019 C   0  0  0  0  0  0  0  0  0  0  0  0
    7.1823  -13.3562   26.1411 C   0  0  2  0  0  0  0  0  0  0  0  0
    5.8325  -12.9764   26.6774 C   0  0  0  0  0  0  0  0  0  0  0  0
    7.9187  -14.2643   27.0617 C   0  0  0  0  0  0  0  0  0  0  0  0
    9.2239  -14.7807   26.5211 C   0  0  2  0  0  0  0  0  0  0  0  0
    8.9161  -15.6186   25.3573 N   0  0  0  0  0  0  0  0  0  0  0  0
    9.8747  -15.6626   27.5035 C   0  0  0  0  0  0  0  0  0  0  0  0
   10.3992  -15.1980   28.5394 O   0  0  0  0  0  0  0  0  0  0  0  0
    9.9500  -17.0594   27.3476 O   0  0  0  0  0  0  0  0  0  0  0  0
  2  1  1  1
  2  4  1  0
  3  2  1  0
  4  5  1  1
  6  7  2  0
  6  4  1  0
  8  6  1  0
  9  8  1  0
  9 10  1  6
 10 11  1  0
 11 15  1  0
 12 11  2  0
 13  9  1  0
 14 13  2  0
 17 16  1  1
 17 19  1  0
 18 17  1  0
 20 19  1  1
 20 22  1  0
 20 21  1  0
 21 13  1  0
 22 24  1  0
 23 22  2  0
M  END
$$$$
