VDL.pdb
     RDKit          3D

 24 23  0  0  1  0  0  0  0  0999 V2000
    7.7087  -12.5003   18.7065 C   0  0  0  0  0  0  0  0  0  0  0  0
    7.8218  -13.2591   20.0106 C   0  0  2  0  0  0  0  0  0  0  0  0
    8.8132  -12.5496   20.8730 C   0  0  0  0  0  0  0  0  0  0  0  0
    8.2265  -14.6782   19.7034 C   0  0  2  0  0  0  0  0  0  0  0  0
    7.3188  -15.2967   18.7846 N   0  0  0  0  0  0  0  0  0  0  0  0
    8.3995  -15.4819   20.9492 C   0  0  0  0  0  0  0  0  0  0  0  0
    7.3883  -15.9414   21.5381 O   0  0  0  0  0  0  0  0  0  0  0  0
    9.6836  -15.7565   21.5112 N   0  0  0  0  0  0  0  0  0  0  0  0
    9.8695  -16.5894   22.6782 C   0  0  1  0  0  0  0  0  0  0  0  0
   11.0894  -17.4534   22.5855 C   0  0  0  0  0  0  0  0  0  0  0  0
   11.0297  -18.6694   23.3856 C   0  0  0  0  0  0  0  0  0  0  0  0
   10.0153  -18.9346   24.0662 O   0  0  0  0  0  0  0  0  0  0  0  0
    9.8337  -15.7806   23.9179 C   0  0  0  0  0  0  0  0  0  0  0  0
   10.7743  -14.9954   24.1749 O   0  0  0  0  0  0  0  0  0  0  0  0
   12.0906  -19.5516   23.4079 O   0  0  0  0  0  0  0  0  0  0  0  0
    8.0065  -12.2665   25.9669 C   0  0  0  0  0  0  0  0  0  0  0  0
    7.0860  -13.4149   25.5592 C   0  0  2  0  0  0  0  0  0  0  0  0
    5.6721  -12.9684   25.7947 C   0  0  0  0  0  0  0  0  0  0  0  0
    7.4477  -14.5984   26.3855 C   0  0  0  0  0  0  0  0  0  0  0  0
    8.8187  -15.1554   26.1163 C   0  0  2  0  0  0  0  0  0  0  0  0
    8.7599  -15.8652   24.8341 N   0  0  0  0  0  0  0  0  0  0  0  0
    9.1729  -16.1627   27.1293 C   0  0  0  0  0  0  0  0  0  0  0  0
    9.4645  -15.8269   28.2982 O   0  0  0  0  0  0  0  0  0  0  0  0
    9.2071  -17.5433   26.8577 O   0  0  0  0  0  0  0  0  0  0  0  0
  2  1  1  6
  2  4  1  0
  3  2  1  0
  4  5  1  6
  6  7  2  0
  6  4  1  0
  8  6  1  0
  9  8  1  0
  9 10  1  6
 10 11  1  0
 11 15  1  0
 12 11  2  0
 13  9  1  0
 14 13  2  0
 17 16  1  1
 17 19  1  0
 18 17  1  0
 20 19  1  1
 20 22  1  0
 20 21  1  0
 21 13  1  0
 22 24  1  0
 23 22  2  0
M  END
$$$$
