VDL.pdb
     RDKit          3D

 24 23  0  0  1  0  0  0  0  0999 V2000
    7.8385  -12.7886   18.6809 C   0  0  0  0  0  0  0  0  0  0  0  0
    7.9291  -13.4234   20.0512 C   0  0  2  0  0  0  0  0  0  0  0  0
    8.8326  -12.5817   20.8911 C   0  0  0  0  0  0  0  0  0  0  0  0
    8.4303  -14.8358   19.8907 C   0  0  2  0  0  0  0  0  0  0  0  0
    7.6480  -15.5665   18.9395 N   0  0  0  0  0  0  0  0  0  0  0  0
    8.5194  -15.5396   21.2039 C   0  0  0  0  0  0  0  0  0  0  0  0
    7.4677  -15.9193   21.7784 O   0  0  0  0  0  0  0  0  0  0  0  0
    9.7667  -15.8050   21.8474 N   0  0  0  0  0  0  0  0  0  0  0  0
    9.8680  -16.5074   23.1069 C   0  0  1  0  0  0  0  0  0  0  0  0
   11.0380  -17.4411   23.1577 C   0  0  0  0  0  0  0  0  0  0  0  0
   10.9588  -18.5588   22.2267 C   0  0  0  0  0  0  0  0  0  0  0  0
   11.9625  -18.9146   21.5721 O   0  0  0  0  0  0  0  0  0  0  0  0
    9.8410  -15.5611   24.2454 C   0  0  0  0  0  0  0  0  0  0  0  0
   10.8111  -14.7938   24.4386 O   0  0  0  0  0  0  0  0  0  0  0  0
    9.7754  -19.2462   22.0493 O   0  0  0  0  0  0  0  0  0  0  0  0
    5.6037  -12.7023   26.8144 C   0  0  0  0  0  0  0  0  0  0  0  0
    7.0854  -12.8869   26.4937 C   0  0  2  0  0  0  0  0  0  0  0  0
    7.2898  -12.5030   25.0568 C   0  0  0  0  0  0  0  0  0  0  0  0
    7.4286  -14.3120   26.7500 C   0  0  0  0  0  0  0  0  0  0  0  0
    8.8300  -14.6984   26.3638 C   0  0  2  0  0  0  0  0  0  0  0  0
    8.7430  -15.4928   25.1339 N   0  0  0  0  0  0  0  0  0  0  0  0
    9.4201  -15.5806   27.3835 C   0  0  0  0  0  0  0  0  0  0  0  0
    9.8270  -15.1236   28.4742 O   0  0  0  0  0  0  0  0  0  0  0  0
    9.5637  -16.9693   27.2048 O   0  0  0  0  0  0  0  0  0  0  0  0
  2  1  1  6
  2  4  1  0
  3  2  1  0
  4  5  1  6
  6  7  2  0
  6  4  1  0
  8  6  1  0
  9  8  1  0
  9 10  1  6
 10 11  1  0
 11 15  1  0
 12 11  2  0
 13  9  1  0
 14 13  2  0
 17 16  1  6
 17 19  1  0
 18 17  1  0
 20 19  1  1
 20 22  1  0
 20 21  1  0
 21 13  1  0
 22 24  1  0
 23 22  2  0
M  END
$$$$
