VDL.pdb
     RDKit          3D

 24 23  0  0  1  0  0  0  0  0999 V2000
    7.4093  -13.1948   20.8557 C   0  0  0  0  0  0  0  0  0  0  0  0
    8.5421  -13.2766   19.8562 C   0  0  2  0  0  0  0  0  0  0  0  0
    8.2151  -12.3732   18.7129 C   0  0  0  0  0  0  0  0  0  0  0  0
    8.7041  -14.7148   19.4351 C   0  0  2  0  0  0  0  0  0  0  0  0
    7.6147  -15.1477   18.6126 N   0  0  0  0  0  0  0  0  0  0  0  0
    8.9117  -15.6111   20.6104 C   0  0  0  0  0  0  0  0  0  0  0  0
    7.9408  -16.2592   21.0771 O   0  0  0  0  0  0  0  0  0  0  0  0
   10.1849  -15.7677   21.2385 N   0  0  0  0  0  0  0  0  0  0  0  0
   10.3848  -16.5767   22.4199 C   0  0  1  0  0  0  0  0  0  0  0  0
   11.6451  -17.3840   22.3634 C   0  0  0  0  0  0  0  0  0  0  0  0
   11.6894  -18.3584   21.2814 C   0  0  0  0  0  0  0  0  0  0  0  0
   10.7645  -19.1859   21.1315 O   0  0  0  0  0  0  0  0  0  0  0  0
   10.2856  -15.7555   23.6479 C   0  0  0  0  0  0  0  0  0  0  0  0
   11.2583  -15.0536   24.0062 O   0  0  0  0  0  0  0  0  0  0  0  0
   12.7521  -18.3872   20.4014 O   0  0  0  0  0  0  0  0  0  0  0  0
    6.0355  -12.7911   26.6743 C   0  0  0  0  0  0  0  0  0  0  0  0
    7.4844  -13.2659   26.7607 C   0  0  2  0  0  0  0  0  0  0  0  0
    8.3616  -12.0475   26.7641 C   0  0  0  0  0  0  0  0  0  0  0  0
    7.7430  -14.1424   25.5864 C   0  0  0  0  0  0  0  0  0  0  0  0
    9.0436  -14.8960   25.6411 C   0  0  2  0  0  0  0  0  0  0  0  0
    9.1149  -15.7360   24.4408 N   0  0  0  0  0  0  0  0  0  0  0  0
    9.0572  -15.8162   26.7896 C   0  0  0  0  0  0  0  0  0  0  0  0
    8.4120  -16.8872   26.7657 O   0  0  0  0  0  0  0  0  0  0  0  0
    9.7819  -15.5594   27.9686 O   0  0  0  0  0  0  0  0  0  0  0  0
  2  1  1  1
  2  4  1  0
  3  2  1  0
  4  5  1  1
  6  7  2  0
  6  4  1  0
  8  6  1  0
  9  8  1  0
  9 10  1  6
 10 11  1  0
 11 15  1  0
 12 11  2  0
 13  9  1  0
 14 13  2  0
 17 16  1  6
 17 19  1  0
 18 17  1  0
 20 19  1  6
 20 22  1  0
 20 21  1  0
 21 13  1  0
 22 24  1  0
 23 22  2  0
M  END
$$$$
