VDL.pdb
     RDKit          3D

 24 23  0  0  1  0  0  0  0  0999 V2000
    7.2169  -13.1698   20.7979 C   0  0  0  0  0  0  0  0  0  0  0  0
    8.3582  -13.3771   19.8265 C   0  0  2  0  0  0  0  0  0  0  0  0
    8.0820  -12.5586   18.6084 C   0  0  0  0  0  0  0  0  0  0  0  0
    8.4680  -14.8502   19.5267 C   0  0  2  0  0  0  0  0  0  0  0  0
    7.3426  -15.3192   18.7757 N   0  0  0  0  0  0  0  0  0  0  0  0
    8.6870  -15.6486   20.7686 C   0  0  0  0  0  0  0  0  0  0  0  0
    7.6986  -16.1119   21.3922 O   0  0  0  0  0  0  0  0  0  0  0  0
    9.9906  -15.9138   21.2885 N   0  0  0  0  0  0  0  0  0  0  0  0
   10.2144  -16.6499   22.5126 C   0  0  1  0  0  0  0  0  0  0  0  0
   11.5022  -17.4144   22.5023 C   0  0  0  0  0  0  0  0  0  0  0  0
   11.5668  -18.5007   23.4710 C   0  0  0  0  0  0  0  0  0  0  0  0
   11.2380  -18.3119   24.6622 O   0  0  0  0  0  0  0  0  0  0  0  0
   10.0822  -15.7670   23.6938 C   0  0  0  0  0  0  0  0  0  0  0  0
   11.0018  -14.9661   23.9769 O   0  0  0  0  0  0  0  0  0  0  0  0
   11.9916  -19.7581   23.0931 O   0  0  0  0  0  0  0  0  0  0  0  0
    6.1618  -12.4726   26.6384 C   0  0  0  0  0  0  0  0  0  0  0  0
    7.5020  -13.1834   26.8140 C   0  0  2  0  0  0  0  0  0  0  0  0
    8.5739  -12.1325   26.8324 C   0  0  0  0  0  0  0  0  0  0  0  0
    7.6623  -14.1313   25.6781 C   0  0  0  0  0  0  0  0  0  0  0  0
    8.8900  -14.9972   25.7529 C   0  0  2  0  0  0  0  0  0  0  0  0
    8.9382  -15.7972   24.5245 N   0  0  0  0  0  0  0  0  0  0  0  0
    8.7771  -15.9551   26.8646 C   0  0  0  0  0  0  0  0  0  0  0  0
    8.0893  -16.9937   26.7537 O   0  0  0  0  0  0  0  0  0  0  0  0
    9.4216  -15.7718   28.1023 O   0  0  0  0  0  0  0  0  0  0  0  0
  2  1  1  1
  2  4  1  0
  3  2  1  0
  4  5  1  1
  6  7  2  0
  6  4  1  0
  8  6  1  0
  9  8  1  0
  9 10  1  6
 10 11  1  0
 11 15  1  0
 12 11  2  0
 13  9  1  0
 14 13  2  0
 17 16  1  6
 17 19  1  0
 18 17  1  0
 20 19  1  6
 20 22  1  0
 20 21  1  0
 21 13  1  0
 22 24  1  0
 23 22  2  0
M  END
$$$$
