VDL.pdb
     RDKit          3D

 24 23  0  0  1  0  0  0  0  0999 V2000
    7.0419  -12.9081   20.2738 C   0  0  0  0  0  0  0  0  0  0  0  0
    8.4649  -13.0693   19.7856 C   0  0  2  0  0  0  0  0  0  0  0  0
    8.6940  -12.0755   18.6947 C   0  0  0  0  0  0  0  0  0  0  0  0
    8.6537  -14.4926   19.3268 C   0  0  2  0  0  0  0  0  0  0  0  0
    7.8152  -14.7998   18.2073 N   0  0  0  0  0  0  0  0  0  0  0  0
    8.4703  -15.4601   20.4485 C   0  0  0  0  0  0  0  0  0  0  0  0
    7.4452  -16.1872   20.4810 O   0  0  0  0  0  0  0  0  0  0  0  0
    9.4230  -15.5988   21.5036 N   0  0  0  0  0  0  0  0  0  0  0  0
    9.2962  -16.5851   22.5530 C   0  0  1  0  0  0  0  0  0  0  0  0
   10.1485  -17.7941   22.3185 C   0  0  0  0  0  0  0  0  0  0  0  0
    9.9392  -18.8743   23.2734 C   0  0  0  0  0  0  0  0  0  0  0  0
    9.0309  -18.8006   24.1290 O   0  0  0  0  0  0  0  0  0  0  0  0
    9.5211  -15.9755   23.8835 C   0  0  0  0  0  0  0  0  0  0  0  0
   10.6598  -15.5548   24.1896 O   0  0  0  0  0  0  0  0  0  0  0  0
   10.7387  -19.9990   23.2522 O   0  0  0  0  0  0  0  0  0  0  0  0
    7.9848  -12.3889   26.4156 C   0  0  0  0  0  0  0  0  0  0  0  0
    6.9674  -13.4721   26.0637 C   0  0  2  0  0  0  0  0  0  0  0  0
    5.6351  -13.0344   26.5998 C   0  0  0  0  0  0  0  0  0  0  0  0
    7.4316  -14.7446   26.6798 C   0  0  0  0  0  0  0  0  0  0  0  0
    8.7424  -15.2565   26.1485 C   0  0  2  0  0  0  0  0  0  0  0  0
    8.4809  -15.8503   24.8331 N   0  0  0  0  0  0  0  0  0  0  0  0
    9.2522  -16.3448   26.9981 C   0  0  0  0  0  0  0  0  0  0  0  0
    8.8538  -17.5207   26.8482 O   0  0  0  0  0  0  0  0  0  0  0  0
   10.2028  -16.1411   28.0159 O   0  0  0  0  0  0  0  0  0  0  0  0
  2  1  1  6
  2  4  1  0
  3  2  1  0
  4  5  1  6
  6  7  2  0
  6  4  1  0
  8  6  1  0
  9  8  1  0
  9 10  1  6
 10 11  1  0
 11 15  1  0
 12 11  2  0
 13  9  1  0
 14 13  2  0
 17 16  1  1
 17 19  1  0
 18 17  1  0
 20 19  1  1
 20 22  1  0
 20 21  1  0
 21 13  1  0
 22 24  1  0
 23 22  2  0
M  END
$$$$
