TNS.pdb
     RDKit          3D

 22 21  0  0  1  0  0  0  0  0999 V2000
    8.3645  -12.7500   19.6300 C   0  0  0  0  0  0  0  0  0  0  0  0
    7.7315  -13.3078   18.3785 C   0  0  1  0  0  0  0  0  0  0  0  0
    7.4145  -12.2694   17.5056 O   0  0  0  0  0  0  0  0  0  0  0  0
    8.6049  -14.3457   17.7156 C   0  0  2  0  0  0  0  0  0  0  0  0
    8.0297  -14.7412   16.4730 N   0  0  0  0  0  0  0  0  0  0  0  0
    8.8111  -15.5288   18.6154 C   0  0  0  0  0  0  0  0  0  0  0  0
    7.9785  -16.4682   18.6228 O   0  0  0  0  0  0  0  0  0  0  0  0
   10.7828  -17.2349   17.6918 N   0  0  0  0  0  0  0  0  0  0  0  0
   11.8349  -17.0408   18.6157 C   0  0  0  0  0  0  0  0  0  0  0  0
   12.9667  -16.6856   18.1409 O   0  0  0  0  0  0  0  0  0  0  0  0
   11.5931  -17.2514   20.0635 C   0  0  0  0  0  0  0  0  0  0  0  0
   10.3003  -16.5293   20.4305 C   0  0  2  0  0  0  0  0  0  0  0  0
    9.9461  -15.5313   19.4224 N   0  0  0  0  0  0  0  0  0  0  0  0
   10.3752  -15.8984   21.7462 C   0  0  0  0  0  0  0  0  0  0  0  0
   11.0234  -14.8051   21.8807 O   0  0  0  0  0  0  0  0  0  0  0  0
    7.8012  -16.7014   24.7463 O   0  0  0  0  0  0  0  0  0  0  0  0
    8.5216  -15.5242   24.8253 C   0  0  0  0  0  0  0  0  0  0  0  0
    9.8818  -15.7119   24.1768 C   0  0  2  0  0  0  0  0  0  0  0  0
    9.7718  -16.4125   22.9185 N   0  0  0  0  0  0  0  0  0  0  0  0
   10.7799  -16.4349   25.1126 C   0  0  0  0  0  0  0  0  0  0  0  0
   11.0901  -15.8529   26.3329 O   0  0  0  0  0  0  0  0  0  0  0  0
   11.2774  -17.5592   24.8510 O   0  0  0  0  0  0  0  0  0  0  0  0
  2  4  1  0
  2  1  1  1
  3  2  1  0
  4  6  1  0
  4  5  1  6
  6 13  1  0
  6  7  2  0
  9  8  1  0
  9 11  1  0
 10  9  2  0
 12 11  1  6
 12 14  1  0
 13 12  1  0
 14 19  1  0
 14 15  2  0
 16 17  1  0
 18 17  1  1
 18 20  1  0
 19 18  1  0
 20 21  1  0
 22 20  2  0
M  END
$$$$
