TNS.pdb
     RDKit          3D

 22 21  0  0  1  0  0  0  0  0999 V2000
   -3.9437  -23.0250   22.9628 C   0  0  0  0  0  0  0  0  0  0  0  0
   -2.6337  -23.0032   23.7121 C   0  0  1  0  0  0  0  0  0  0  0  0
   -1.6342  -22.4687   22.9018 O   0  0  0  0  0  0  0  0  0  0  0  0
   -2.7428  -22.2628   25.0234 C   0  0  2  0  0  0  0  0  0  0  0  0
   -1.4411  -21.9785   25.5292 N   0  0  0  0  0  0  0  0  0  0  0  0
   -3.5485  -23.0466   26.0176 C   0  0  0  0  0  0  0  0  0  0  0  0
   -4.3125  -23.9631   25.6279 O   0  0  0  0  0  0  0  0  0  0  0  0
   -2.5786  -25.4675   28.5790 N   0  0  0  0  0  0  0  0  0  0  0  0
   -2.4285  -24.5808   29.6697 C   0  0  0  0  0  0  0  0  0  0  0  0
   -1.5667  -24.8949   30.5592 O   0  0  0  0  0  0  0  0  0  0  0  0
   -3.2549  -23.3516   29.7398 C   0  0  0  0  0  0  0  0  0  0  0  0
   -4.1281  -23.3044   28.4897 C   0  0  2  0  0  0  0  0  0  0  0  0
   -3.4084  -22.7133   27.3626 N   0  0  0  0  0  0  0  0  0  0  0  0
   -5.3758  -22.5785   28.7154 C   0  0  0  0  0  0  0  0  0  0  0  0
   -5.3408  -21.3139   28.8973 O   0  0  0  0  0  0  0  0  0  0  0  0
   -9.2069  -24.3048   28.6964 O   0  0  0  0  0  0  0  0  0  0  0  0
   -9.0468  -23.0065   28.2494 C   0  0  0  0  0  0  0  0  0  0  0  0
   -7.8453  -22.3750   28.9304 C   0  0  2  0  0  0  0  0  0  0  0  0
   -6.6576  -23.1771   28.7503 N   0  0  0  0  0  0  0  0  0  0  0  0
   -8.1415  -22.1775   30.3720 C   0  0  0  0  0  0  0  0  0  0  0  0
   -9.1396  -21.2866   30.7383 O   0  0  0  0  0  0  0  0  0  0  0  0
   -7.5266  -22.7839   31.2853 O   0  0  0  0  0  0  0  0  0  0  0  0
  2  4  1  0
  2  1  1  6
  3  2  1  0
  4  6  1  0
  4  5  1  1
  6 13  1  0
  6  7  2  0
  9  8  1  0
  9 11  1  0
 10  9  2  0
 12 11  1  1
 12 14  1  0
 13 12  1  0
 14 19  1  0
 14 15  2  0
 16 17  1  0
 18 17  1  6
 18 20  1  0
 19 18  1  0
 20 21  1  0
 22 20  2  0
M  END
$$$$
