TNS.pdb
     RDKit          3D

 22 21  0  0  1  0  0  0  0  0999 V2000
   13.4013  -16.5575   12.3736 C   0  0  0  0  0  0  0  0  0  0  0  0
   11.9956  -16.0077   12.3738 C   0  0  1  0  0  0  0  0  0  0  0  0
   11.5739  -15.7868   11.0645 O   0  0  0  0  0  0  0  0  0  0  0  0
   11.0375  -16.9013   13.1242 C   0  0  2  0  0  0  0  0  0  0  0  0
    9.6973  -16.4717   12.8999 N   0  0  0  0  0  0  0  0  0  0  0  0
   11.3588  -16.9230   14.5900 C   0  0  0  0  0  0  0  0  0  0  0  0
   10.9037  -16.0325   15.3486 O   0  0  0  0  0  0  0  0  0  0  0  0
   11.1903  -20.8243   17.9175 N   0  0  0  0  0  0  0  0  0  0  0  0
   11.7935  -20.5264   16.6742 C   0  0  0  0  0  0  0  0  0  0  0  0
   11.2530  -21.0289   15.6312 O   0  0  0  0  0  0  0  0  0  0  0  0
   12.9994  -19.6647   16.6274 C   0  0  0  0  0  0  0  0  0  0  0  0
   12.5359  -18.2229   16.4443 C   0  0  2  0  0  0  0  0  0  0  0  0
   12.1680  -17.9569   15.0544 N   0  0  0  0  0  0  0  0  0  0  0  0
   13.5434  -17.2597   16.8823 C   0  0  0  0  0  0  0  0  0  0  0  0
   14.5411  -17.0082   16.1241 O   0  0  0  0  0  0  0  0  0  0  0  0
   12.9084  -13.7450   18.1167 O   0  0  0  0  0  0  0  0  0  0  0  0
   13.7853  -14.3082   19.0249 C   0  0  0  0  0  0  0  0  0  0  0  0
   14.4604  -15.5176   18.4024 C   0  0  2  0  0  0  0  0  0  0  0  0
   13.5049  -16.5614   18.1126 N   0  0  0  0  0  0  0  0  0  0  0  0
   15.5280  -16.0094   19.3097 C   0  0  0  0  0  0  0  0  0  0  0  0
   16.6020  -15.1799   19.5973 O   0  0  0  0  0  0  0  0  0  0  0  0
   15.5061  -17.1509   19.8353 O   0  0  0  0  0  0  0  0  0  0  0  0
  2  4  1  0
  2  1  1  6
  3  2  1  0
  4  6  1  0
  4  5  1  1
  6 13  1  0
  6  7  2  0
  9  8  1  0
  9 11  1  0
 10  9  2  0
 12 11  1  6
 12 14  1  0
 13 12  1  0
 14 19  1  0
 14 15  2  0
 16 17  1  0
 18 17  1  1
 18 20  1  0
 19 18  1  0
 20 21  1  0
 22 20  2  0
M  END
$$$$
