TNS.pdb
     RDKit          3D

 22 21  0  0  1  0  0  0  0  0999 V2000
    8.2039  -11.9113   19.0791 C   0  0  0  0  0  0  0  0  0  0  0  0
    8.5931  -13.1856   19.7883 C   0  0  1  0  0  0  0  0  0  0  0  0
    7.5875  -13.5578   20.6779 O   0  0  0  0  0  0  0  0  0  0  0  0
    8.9190  -14.2968   18.8195 C   0  0  2  0  0  0  0  0  0  0  0  0
    7.8068  -14.5320   17.9598 N   0  0  0  0  0  0  0  0  0  0  0  0
    9.3108  -15.5482   19.5491 C   0  0  0  0  0  0  0  0  0  0  0  0
    8.5129  -16.5147   19.6171 O   0  0  0  0  0  0  0  0  0  0  0  0
   12.6497  -19.3085   21.4555 N   0  0  0  0  0  0  0  0  0  0  0  0
   13.0460  -17.9618   21.6226 C   0  0  0  0  0  0  0  0  0  0  0  0
   13.8135  -17.7005   22.6101 O   0  0  0  0  0  0  0  0  0  0  0  0
   12.5688  -16.9294   20.6712 C   0  0  0  0  0  0  0  0  0  0  0  0
   11.1098  -16.6294   21.0010 C   0  0  2  0  0  0  0  0  0  0  0  0
   10.5748  -15.5817   20.1328 N   0  0  0  0  0  0  0  0  0  0  0  0
   10.9268  -16.2531   22.4009 C   0  0  0  0  0  0  0  0  0  0  0  0
   11.5990  -15.2775   22.8804 O   0  0  0  0  0  0  0  0  0  0  0  0
    7.8921  -15.1972   24.1508 O   0  0  0  0  0  0  0  0  0  0  0  0
    8.4023  -16.1879   24.9690 C   0  0  0  0  0  0  0  0  0  0  0  0
    9.8688  -16.4139   24.6461 C   0  0  2  0  0  0  0  0  0  0  0  0
   10.0409  -16.8983   23.2962 N   0  0  0  0  0  0  0  0  0  0  0  0
   10.4514  -17.3608   25.6304 C   0  0  0  0  0  0  0  0  0  0  0  0
   11.1096  -18.4913   25.1689 O   0  0  0  0  0  0  0  0  0  0  0  0
   10.3772  -17.1865   26.8729 O   0  0  0  0  0  0  0  0  0  0  0  0
  2  4  1  0
  2  1  1  6
  3  2  1  0
  4  6  1  0
  4  5  1  1
  6 13  1  0
  6  7  2  0
  9  8  1  0
  9 11  1  0
 10  9  2  0
 12 11  1  6
 12 14  1  0
 13 12  1  0
 14 19  1  0
 14 15  2  0
 16 17  1  0
 18 17  1  1
 18 20  1  0
 19 18  1  0
 20 21  1  0
 22 20  2  0
M  END
$$$$
