TNS.pdb
     RDKit          3D

 22 21  0  0  1  0  0  0  0  0999 V2000
    9.4712  -15.5249   18.1503 C   0  0  0  0  0  0  0  0  0  0  0  0
    8.9167  -14.1408   18.3850 C   0  0  1  0  0  0  0  0  0  0  0  0
    9.0053  -13.3910   17.2142 O   0  0  0  0  0  0  0  0  0  0  0  0
    7.5041  -14.1787   18.9165 C   0  0  2  0  0  0  0  0  0  0  0  0
    6.9638  -12.8603   18.9512 N   0  0  0  0  0  0  0  0  0  0  0  0
    7.4575  -14.8165   20.2741 C   0  0  0  0  0  0  0  0  0  0  0  0
    7.8243  -14.1719   21.2867 O   0  0  0  0  0  0  0  0  0  0  0  0
    3.7350  -17.3442   21.7116 N   0  0  0  0  0  0  0  0  0  0  0  0
    4.7144  -17.7941   20.7970 C   0  0  0  0  0  0  0  0  0  0  0  0
    4.3859  -17.8247   19.5626 O   0  0  0  0  0  0  0  0  0  0  0  0
    6.0514  -18.2036   21.2905 C   0  0  0  0  0  0  0  0  0  0  0  0
    6.8568  -16.9366   21.5618 C   0  0  2  0  0  0  0  0  0  0  0  0
    6.9974  -16.1288   20.3512 N   0  0  0  0  0  0  0  0  0  0  0  0
    8.1762  -17.2299   22.1167 C   0  0  0  0  0  0  0  0  0  0  0  0
    9.1187  -17.5929   21.3335 O   0  0  0  0  0  0  0  0  0  0  0  0
   11.7941  -15.8802   24.4357 O   0  0  0  0  0  0  0  0  0  0  0  0
   10.4497  -15.7972   24.1247 C   0  0  0  0  0  0  0  0  0  0  0  0
    9.8832  -17.1920   23.9253 C   0  0  2  0  0  0  0  0  0  0  0  0
    8.5068  -17.1427   23.4900 N   0  0  0  0  0  0  0  0  0  0  0  0
   10.0158  -17.9643   25.1866 C   0  0  0  0  0  0  0  0  0  0  0  0
   11.2834  -18.2890   25.6470 O   0  0  0  0  0  0  0  0  0  0  0  0
    9.0267  -18.3415   25.8642 O   0  0  0  0  0  0  0  0  0  0  0  0
  2  4  1  0
  2  1  1  6
  3  2  1  0
  4  6  1  0
  4  5  1  1
  6 13  1  0
  6  7  2  0
  9  8  1  0
  9 11  1  0
 10  9  2  0
 12 11  1  6
 12 14  1  0
 13 12  1  0
 14 19  1  0
 14 15  2  0
 16 17  1  0
 18 17  1  1
 18 20  1  0
 19 18  1  0
 20 21  1  0
 22 20  2  0
M  END
$$$$
