TNS.pdb
     RDKit          3D

 22 21  0  0  1  0  0  0  0  0999 V2000
    8.9329  -12.5951   19.7251 C   0  0  0  0  0  0  0  0  0  0  0  0
    8.1328  -13.2066   18.6008 C   0  0  1  0  0  0  0  0  0  0  0  0
    7.4998  -12.2032   17.8705 O   0  0  0  0  0  0  0  0  0  0  0  0
    8.9806  -14.0888   17.7162 C   0  0  2  0  0  0  0  0  0  0  0  0
    8.2115  -14.5446   16.6063 N   0  0  0  0  0  0  0  0  0  0  0  0
    9.5455  -15.2430   18.4913 C   0  0  0  0  0  0  0  0  0  0  0  0
    8.9084  -16.3216   18.5706 O   0  0  0  0  0  0  0  0  0  0  0  0
   12.3346  -13.5890   19.2695 N   0  0  0  0  0  0  0  0  0  0  0  0
   13.3501  -14.5701   19.3383 C   0  0  0  0  0  0  0  0  0  0  0  0
   14.5443  -14.1881   19.0927 O   0  0  0  0  0  0  0  0  0  0  0  0
   13.0012  -15.9694   19.6835 C   0  0  0  0  0  0  0  0  0  0  0  0
   11.4978  -16.0268   19.9362 C   0  0  2  0  0  0  0  0  0  0  0  0
   10.7832  -15.0607   19.1033 N   0  0  0  0  0  0  0  0  0  0  0  0
   11.1660  -15.8085   21.3423 C   0  0  0  0  0  0  0  0  0  0  0  0
   11.3236  -14.6463   21.8501 O   0  0  0  0  0  0  0  0  0  0  0  0
    8.0568  -16.3466   23.0741 O   0  0  0  0  0  0  0  0  0  0  0  0
    8.9536  -16.9227   23.9544 C   0  0  0  0  0  0  0  0  0  0  0  0
   10.3674  -16.5022   23.5934 C   0  0  2  0  0  0  0  0  0  0  0  0
   10.6700  -16.8068   22.2142 N   0  0  0  0  0  0  0  0  0  0  0  0
   11.3296  -17.1658   24.5092 C   0  0  0  0  0  0  0  0  0  0  0  0
   11.2569  -16.9009   25.8689 O   0  0  0  0  0  0  0  0  0  0  0  0
   12.2148  -17.9634   24.1093 O   0  0  0  0  0  0  0  0  0  0  0  0
  2  4  1  0
  2  1  1  1
  3  2  1  0
  4  6  1  0
  4  5  1  6
  6 13  1  0
  6  7  2  0
  9  8  1  0
  9 11  1  0
 10  9  2  0
 12 11  1  1
 12 14  1  0
 13 12  1  0
 14 19  1  0
 14 15  2  0
 16 17  1  0
 18 17  1  1
 18 20  1  0
 19 18  1  0
 20 21  1  0
 22 20  2  0
M  END
$$$$
