TNS.pdb
     RDKit          3D

 22 21  0  0  1  0  0  0  0  0999 V2000
    7.7691  -12.0302   19.1861 C   0  0  0  0  0  0  0  0  0  0  0  0
    8.7265  -13.1268   19.5848 C   0  0  1  0  0  0  0  0  0  0  0  0
    8.0869  -14.0274   20.4339 O   0  0  0  0  0  0  0  0  0  0  0  0
    9.3246  -13.8212   18.3850 C   0  0  2  0  0  0  0  0  0  0  0  0
    8.2939  -14.4391   17.6189 N   0  0  0  0  0  0  0  0  0  0  0  0
   10.3595  -14.8236   18.8047 C   0  0  0  0  0  0  0  0  0  0  0  0
   10.0763  -16.0459   18.8386 O   0  0  0  0  0  0  0  0  0  0  0  0
   13.8113  -15.7547   17.2738 N   0  0  0  0  0  0  0  0  0  0  0  0
   14.5480  -14.8096   18.0237 C   0  0  0  0  0  0  0  0  0  0  0  0
   15.6090  -14.3420   17.4870 O   0  0  0  0  0  0  0  0  0  0  0  0
   14.0751  -14.4065   19.3701 C   0  0  0  0  0  0  0  0  0  0  0  0
   12.7544  -15.1227   19.6346 C   0  0  2  0  0  0  0  0  0  0  0  0
   11.6200  -14.3400   19.1465 N   0  0  0  0  0  0  0  0  0  0  0  0
   12.5688  -15.4327   21.0503 C   0  0  0  0  0  0  0  0  0  0  0  0
   13.1364  -14.7013   21.9315 O   0  0  0  0  0  0  0  0  0  0  0  0
    9.6505  -18.0132   22.5980 O   0  0  0  0  0  0  0  0  0  0  0  0
   10.1173  -16.9065   23.2825 C   0  0  0  0  0  0  0  0  0  0  0  0
   11.5847  -16.6864   22.9598 C   0  0  2  0  0  0  0  0  0  0  0  0
   11.7896  -16.5073   21.5413 N   0  0  0  0  0  0  0  0  0  0  0  0
   12.3806  -17.8301   23.4730 C   0  0  0  0  0  0  0  0  0  0  0  0
   12.4039  -18.0755   24.8381 O   0  0  0  0  0  0  0  0  0  0  0  0
   13.0403  -18.5943   22.7242 O   0  0  0  0  0  0  0  0  0  0  0  0
  2  4  1  0
  2  1  1  6
  3  2  1  0
  4  6  1  0
  4  5  1  1
  6 13  1  0
  6  7  2  0
  9  8  1  0
  9 11  1  0
 10  9  2  0
 12 11  1  1
 12 14  1  0
 13 12  1  0
 14 19  1  0
 14 15  2  0
 16 17  1  0
 18 17  1  6
 18 20  1  0
 19 18  1  0
 20 21  1  0
 22 20  2  0
M  END
$$$$
