TNS.pdb
     RDKit          3D

 22 21  0  0  1  0  0  0  0  0999 V2000
    8.3463  -12.5266   20.0919 C   0  0  0  0  0  0  0  0  0  0  0  0
    7.8165  -13.3452   18.9398 C   0  0  1  0  0  0  0  0  0  0  0  0
    7.4683  -12.5058   17.8838 O   0  0  0  0  0  0  0  0  0  0  0  0
    8.7935  -14.4111   18.5052 C   0  0  2  0  0  0  0  0  0  0  0  0
    8.3146  -15.0567   17.3283 N   0  0  0  0  0  0  0  0  0  0  0  0
    9.0315  -15.4031   19.6058 C   0  0  0  0  0  0  0  0  0  0  0  0
    8.2362  -16.3592   19.7759 O   0  0  0  0  0  0  0  0  0  0  0  0
   12.8062  -18.0342   22.7677 N   0  0  0  0  0  0  0  0  0  0  0  0
   12.4184  -16.6934   22.9917 C   0  0  0  0  0  0  0  0  0  0  0  0
   12.3930  -16.2909   24.2041 O   0  0  0  0  0  0  0  0  0  0  0  0
   12.0644  -15.8263   21.8421 C   0  0  0  0  0  0  0  0  0  0  0  0
   10.5954  -16.0686   21.5097 C   0  0  2  0  0  0  0  0  0  0  0  0
   10.1529  -15.2133   20.4094 N   0  0  0  0  0  0  0  0  0  0  0  0
    9.7278  -15.8720   22.6687 C   0  0  0  0  0  0  0  0  0  0  0  0
    9.5130  -14.6870   23.0966 O   0  0  0  0  0  0  0  0  0  0  0  0
    6.5912  -18.0526   23.6541 O   0  0  0  0  0  0  0  0  0  0  0  0
    6.7979  -16.8165   24.2377 C   0  0  0  0  0  0  0  0  0  0  0  0
    8.2750  -16.6331   24.5386 C   0  0  2  0  0  0  0  0  0  0  0  0
    9.0867  -16.9156   23.3777 N   0  0  0  0  0  0  0  0  0  0  0  0
    8.6583  -17.5010   25.6808 C   0  0  0  0  0  0  0  0  0  0  0  0
    7.9666  -17.3835   26.8774 O   0  0  0  0  0  0  0  0  0  0  0  0
    9.5873  -18.3452   25.6161 O   0  0  0  0  0  0  0  0  0  0  0  0
  2  4  1  0
  2  1  1  1
  3  2  1  0
  4  6  1  0
  4  5  1  6
  6 13  1  0
  6  7  2  0
  9  8  1  0
  9 11  1  0
 10  9  2  0
 12 11  1  1
 12 14  1  0
 13 12  1  0
 14 19  1  0
 14 15  2  0
 16 17  1  0
 18 17  1  6
 18 20  1  0
 19 18  1  0
 20 21  1  0
 22 20  2  0
M  END
$$$$
