TNS.pdb
     RDKit          3D

 22 21  0  0  1  0  0  0  0  0999 V2000
    7.9442  -16.2011   17.8433 C   0  0  0  0  0  0  0  0  0  0  0  0
    8.4471  -14.8391   17.4309 C   0  0  1  0  0  0  0  0  0  0  0  0
    7.9961  -14.5370   16.1478 O   0  0  0  0  0  0  0  0  0  0  0  0
    8.0618  -13.7682   18.4231 C   0  0  2  0  0  0  0  0  0  0  0  0
    8.4327  -12.4868   17.9216 N   0  0  0  0  0  0  0  0  0  0  0  0
    8.6886  -14.0255   19.7620 C   0  0  0  0  0  0  0  0  0  0  0  0
    9.9080  -13.7895   19.9434 O   0  0  0  0  0  0  0  0  0  0  0  0
    7.7899  -14.1144   25.3258 N   0  0  0  0  0  0  0  0  0  0  0  0
    7.5038  -15.1745   24.4354 C   0  0  0  0  0  0  0  0  0  0  0  0
    7.6735  -16.3627   24.8735 O   0  0  0  0  0  0  0  0  0  0  0  0
    7.0302  -14.8766   23.0622 C   0  0  0  0  0  0  0  0  0  0  0  0
    8.2522  -14.8092   22.1514 C   0  0  2  0  0  0  0  0  0  0  0  0
    7.8680  -14.5275   20.7691 N   0  0  0  0  0  0  0  0  0  0  0  0
    9.0476  -16.0336   22.2039 C   0  0  0  0  0  0  0  0  0  0  0  0
    8.8582  -16.9419   21.3249 O   0  0  0  0  0  0  0  0  0  0  0  0
   13.1385  -17.0860   21.4178 O   0  0  0  0  0  0  0  0  0  0  0  0
   11.9823  -16.3787   21.6901 C   0  0  0  0  0  0  0  0  0  0  0  0
   11.2324  -17.0432   22.8313 C   0  0  2  0  0  0  0  0  0  0  0  0
   10.0395  -16.3053   23.1760 N   0  0  0  0  0  0  0  0  0  0  0  0
   12.1339  -17.1768   24.0036 C   0  0  0  0  0  0  0  0  0  0  0  0
   13.2532  -17.9900   23.9030 O   0  0  0  0  0  0  0  0  0  0  0  0
   11.9309  -16.5834   25.0929 O   0  0  0  0  0  0  0  0  0  0  0  0
  2  4  1  0
  2  1  1  1
  3  2  1  0
  4  6  1  0
  4  5  1  6
  6 13  1  0
  6  7  2  0
  9  8  1  0
  9 11  1  0
 10  9  2  0
 12 11  1  1
 12 14  1  0
 13 12  1  0
 14 19  1  0
 14 15  2  0
 16 17  1  0
 18 17  1  6
 18 20  1  0
 19 18  1  0
 20 21  1  0
 22 20  2  0
M  END
$$$$
