TNS.pdb
     RDKit          3D

 22 21  0  0  1  0  0  0  0  0999 V2000
    8.8067  -12.7792   19.3581 C   0  0  0  0  0  0  0  0  0  0  0  0
    7.9409  -13.2831   18.2291 C   0  0  1  0  0  0  0  0  0  0  0  0
    7.6765  -12.2464   17.3368 O   0  0  0  0  0  0  0  0  0  0  0  0
    8.5537  -14.4745   17.5329 C   0  0  2  0  0  0  0  0  0  0  0  0
    7.7441  -14.8573   16.4243 N   0  0  0  0  0  0  0  0  0  0  0  0
    8.7378  -15.6183   18.4868 C   0  0  0  0  0  0  0  0  0  0  0  0
    7.7534  -16.3163   18.8321 O   0  0  0  0  0  0  0  0  0  0  0  0
   11.7743  -18.5420   21.7861 N   0  0  0  0  0  0  0  0  0  0  0  0
   11.8319  -18.7978   20.3970 C   0  0  0  0  0  0  0  0  0  0  0  0
   12.0829  -19.9979   20.0374 O   0  0  0  0  0  0  0  0  0  0  0  0
   11.6053  -17.6934   19.4338 C   0  0  0  0  0  0  0  0  0  0  0  0
   10.4238  -16.8701   19.9374 C   0  0  2  0  0  0  0  0  0  0  0  0
   10.0259  -15.8600   18.9579 N   0  0  0  0  0  0  0  0  0  0  0  0
   10.7039  -16.2310   21.2210 C   0  0  0  0  0  0  0  0  0  0  0  0
   11.7421  -15.4954   21.3413 O   0  0  0  0  0  0  0  0  0  0  0  0
    7.8692  -15.8210   24.1470 O   0  0  0  0  0  0  0  0  0  0  0  0
    8.8864  -14.8900   24.0488 C   0  0  0  0  0  0  0  0  0  0  0  0
   10.1529  -15.5658   23.5535 C   0  0  2  0  0  0  0  0  0  0  0  0
    9.8972  -16.3628   22.3763 N   0  0  0  0  0  0  0  0  0  0  0  0
   10.7297  -16.3939   24.6427 C   0  0  0  0  0  0  0  0  0  0  0  0
   10.9417  -17.7465   24.4198 O   0  0  0  0  0  0  0  0  0  0  0  0
   11.0384  -15.9251   25.7673 O   0  0  0  0  0  0  0  0  0  0  0  0
  2  4  1  0
  2  1  1  1
  3  2  1  0
  4  6  1  0
  4  5  1  6
  6 13  1  0
  6  7  2  0
  9  8  1  0
  9 11  1  0
 10  9  2  0
 12 11  1  6
 12 14  1  0
 13 12  1  0
 14 19  1  0
 14 15  2  0
 16 17  1  0
 18 17  1  1
 18 20  1  0
 19 18  1  0
 20 21  1  0
 22 20  2  0
M  END
$$$$
