TNS.pdb
     RDKit          3D

 22 21  0  0  1  0  0  0  0  0999 V2000
    7.3952  -12.2938   18.5067 C   0  0  0  0  0  0  0  0  0  0  0  0
    7.9861  -13.6360   18.8637 C   0  0  1  0  0  0  0  0  0  0  0  0
    8.1902  -14.3856   17.7072 O   0  0  0  0  0  0  0  0  0  0  0  0
    9.2549  -13.5004   19.6706 C   0  0  2  0  0  0  0  0  0  0  0  0
   10.3029  -12.9988   18.8453 N   0  0  0  0  0  0  0  0  0  0  0  0
    9.6387  -14.8108   20.2930 C   0  0  0  0  0  0  0  0  0  0  0  0
    8.8021  -15.4564   20.9704 O   0  0  0  0  0  0  0  0  0  0  0  0
   12.4461  -18.9185   21.2271 N   0  0  0  0  0  0  0  0  0  0  0  0
   13.2045  -18.2263   20.2555 C   0  0  0  0  0  0  0  0  0  0  0  0
   14.2200  -18.8321   19.7715 O   0  0  0  0  0  0  0  0  0  0  0  0
   12.8047  -16.8587   19.8449 C   0  0  0  0  0  0  0  0  0  0  0  0
   11.5274  -16.5000   20.5982 C   0  0  2  0  0  0  0  0  0  0  0  0
   10.9393  -15.2634   20.0854 N   0  0  0  0  0  0  0  0  0  0  0  0
   11.7504  -16.3820   22.0373 C   0  0  0  0  0  0  0  0  0  0  0  0
   12.5678  -15.5022   22.4746 O   0  0  0  0  0  0  0  0  0  0  0  0
    9.0455  -17.3041   24.8317 O   0  0  0  0  0  0  0  0  0  0  0  0
   10.1077  -16.4702   25.1273 C   0  0  0  0  0  0  0  0  0  0  0  0
   11.3587  -16.9654   24.4232 C   0  0  2  0  0  0  0  0  0  0  0  0
   11.1176  -17.1848   23.0160 N   0  0  0  0  0  0  0  0  0  0  0  0
   11.8378  -18.2071   25.0817 C   0  0  0  0  0  0  0  0  0  0  0  0
   12.1811  -18.1673   26.4251 O   0  0  0  0  0  0  0  0  0  0  0  0
   11.9482  -19.3029   24.4761 O   0  0  0  0  0  0  0  0  0  0  0  0
  2  4  1  0
  2  1  1  6
  3  2  1  0
  4  6  1  0
  4  5  1  6
  6 13  1  0
  6  7  2  0
  9  8  1  0
  9 11  1  0
 10  9  2  0
 12 11  1  6
 12 14  1  0
 13 12  1  0
 14 19  1  0
 14 15  2  0
 16 17  1  0
 18 17  1  1
 18 20  1  0
 19 18  1  0
 20 21  1  0
 22 20  2  0
M  END
$$$$
