YQL.pdb
     RDKit          3D

 30 30  0  0  1  0  0  0  0  0999 V2000
   30.4989  -25.9176  -17.3645 O   0  0  0  0  0  0  0  0  0  0  0  0
   29.2668  -25.5069  -16.8850 C   0  0  0  0  0  0  0  0  0  0  0  0
   28.9619  -24.1665  -16.8060 C   0  0  0  0  0  0  0  0  0  0  0  0
   27.7337  -23.7562  -16.3280 C   0  0  0  0  0  0  0  0  0  0  0  0
   26.7729  -24.6679  -15.9146 C   0  0  0  0  0  0  0  0  0  0  0  0
   25.4702  -24.1761  -15.4096 C   0  0  0  0  0  0  0  0  0  0  0  0
   24.3994  -24.7009  -16.3601 C   0  0  2  0  0  0  0  0  0  0  0  0
   24.5526  -24.1640  -17.6814 N   0  0  0  0  0  0  0  0  0  0  0  0
   23.0680  -24.3071  -15.8412 C   0  0  0  0  0  0  0  0  0  0  0  0
   22.4831  -23.2803  -16.3145 O   0  0  0  0  0  0  0  0  0  0  0  0
   27.0721  -26.0222  -15.9909 C   0  0  0  0  0  0  0  0  0  0  0  0
   28.3004  -26.3985  -16.4700 C   0  0  0  0  0  0  0  0  0  0  0  0
   19.9166  -27.5573  -11.4024 N   0  0  0  0  0  0  0  0  0  0  0  0
   20.1921  -28.0461  -12.7015 C   0  0  0  0  0  0  0  0  0  0  0  0
   20.0204  -29.2608  -12.9357 O   0  0  0  0  0  0  0  0  0  0  0  0
   20.6734  -27.1440  -13.7643 C   0  0  0  0  0  0  0  0  0  0  0  0
   20.6840  -25.7456  -13.2503 C   0  0  0  0  0  0  0  0  0  0  0  0
   21.1384  -24.7437  -14.3087 C   0  0  2  0  0  0  0  0  0  0  0  0
   22.4420  -25.0690  -14.8191 N   0  0  0  0  0  0  0  0  0  0  0  0
   21.1145  -23.4111  -13.6438 C   0  0  0  0  0  0  0  0  0  0  0  0
   21.9055  -23.2359  -12.6813 O   0  0  0  0  0  0  0  0  0  0  0  0
   22.8017  -19.7298  -14.0948 C   0  0  0  0  0  0  0  0  0  0  0  0
   21.6672  -19.9487  -15.1091 C   0  0  2  0  0  0  0  0  0  0  0  0
   21.7972  -18.9024  -16.1711 C   0  0  0  0  0  0  0  0  0  0  0  0
   20.3361  -19.9548  -14.4164 C   0  0  0  0  0  0  0  0  0  0  0  0
   20.2912  -21.0214  -13.3759 C   0  0  2  0  0  0  0  0  0  0  0  0
   20.2775  -22.3581  -14.0199 N   0  0  0  0  0  0  0  0  0  0  0  0
   19.0546  -20.9445  -12.6021 C   0  0  0  0  0  0  0  0  0  0  0  0
   18.8862  -19.9793  -11.6313 O   0  0  0  0  0  0  0  0  0  0  0  0
   18.1181  -21.7402  -12.7901 O   0  0  0  0  0  0  0  0  0  0  0  0
  2  3  2  0
  2  1  1  0
  4  3  1  0
  5  4  2  0
  6  5  1  0
  7  9  1  0
  7  6  1  0
  7  8  1  6
  9 10  2  0
 11  5  1  0
 11 12  2  0
 12  2  1  0
 14 15  2  0
 14 13  1  0
 16 14  1  0
 17 16  1  0
 18 17  1  1
 19 18  1  0
 19  9  1  0
 20 21  2  0
 20 18  1  0
 23 25  1  0
 23 22  1  1
 24 23  1  0
 26 25  1  6
 26 27  1  0
 27 20  1  0
 28 26  1  0
 28 29  1  0
 30 28  2  0
M  END
$$$$
