YQL.pdb
     RDKit          3D

 30 30  0  0  1  0  0  0  0  0999 V2000
   26.3420  -19.1905   -5.3521 O   0  0  0  0  0  0  0  0  0  0  0  0
   26.6471  -19.5020   -6.6660 C   0  0  0  0  0  0  0  0  0  0  0  0
   27.6415  -20.4100   -6.9536 C   0  0  0  0  0  0  0  0  0  0  0  0
   27.9464  -20.7210   -8.2635 C   0  0  0  0  0  0  0  0  0  0  0  0
   27.2705  -20.1376   -9.3256 C   0  0  0  0  0  0  0  0  0  0  0  0
   27.6357  -20.5056  -10.7130 C   0  0  0  0  0  0  0  0  0  0  0  0
   26.3751  -21.0541  -11.3727 C   0  0  2  0  0  0  0  0  0  0  0  0
   25.9365  -22.2702  -10.7514 N   0  0  0  0  0  0  0  0  0  0  0  0
   26.6663  -21.3304  -12.7996 C   0  0  0  0  0  0  0  0  0  0  0  0
   27.2596  -22.4080  -13.1269 O   0  0  0  0  0  0  0  0  0  0  0  0
   26.2658  -19.2205   -9.0445 C   0  0  0  0  0  0  0  0  0  0  0  0
   25.9861  -18.9322   -7.7336 C   0  0  0  0  0  0  0  0  0  0  0  0
   25.1246  -24.2985  -14.9282 N   0  0  0  0  0  0  0  0  0  0  0  0
   24.1631  -23.3049  -14.6266 C   0  0  0  0  0  0  0  0  0  0  0  0
   23.1245  -23.6384  -14.0186 O   0  0  0  0  0  0  0  0  0  0  0  0
   24.3769  -21.8996  -15.0196 C   0  0  0  0  0  0  0  0  0  0  0  0
   25.6802  -21.7845  -15.7323 C   0  0  0  0  0  0  0  0  0  0  0  0
   26.5311  -20.6344  -15.1996 C   0  0  2  0  0  0  0  0  0  0  0  0
   26.2870  -20.3994  -13.8028 N   0  0  0  0  0  0  0  0  0  0  0  0
   26.1841  -19.4511  -16.0351 C   0  0  0  0  0  0  0  0  0  0  0  0
   25.1443  -18.8145  -15.7243 O   0  0  0  0  0  0  0  0  0  0  0  0
   29.9491  -15.6787  -19.0040 C   0  0  0  0  0  0  0  0  0  0  0  0
   28.6197  -15.8341  -18.2473 C   0  0  2  0  0  0  0  0  0  0  0  0
   28.5567  -14.7566  -17.2107 C   0  0  0  0  0  0  0  0  0  0  0  0
   28.4882  -17.2229  -17.6943 C   0  0  0  0  0  0  0  0  0  0  0  0
   27.0523  -17.5884  -17.5305 C   0  0  2  0  0  0  0  0  0  0  0  0
   26.9338  -19.0118  -17.1284 N   0  0  0  0  0  0  0  0  0  0  0  0
   26.3370  -17.4768  -18.7993 C   0  0  0  0  0  0  0  0  0  0  0  0
   25.6698  -16.3175  -19.1359 O   0  0  0  0  0  0  0  0  0  0  0  0
   26.3047  -18.4157  -19.6135 O   0  0  0  0  0  0  0  0  0  0  0  0
  2  3  2  0
  2  1  1  0
  4  3  1  0
  5  4  2  0
  6  5  1  0
  7  9  1  0
  7  6  1  0
  7  8  1  1
  9 10  2  0
 11  5  1  0
 11 12  2  0
 12  2  1  0
 14 15  2  0
 14 13  1  0
 16 14  1  0
 17 16  1  0
 18 17  1  6
 19 18  1  0
 19  9  1  0
 20 21  2  0
 20 18  1  0
 23 25  1  0
 23 22  1  1
 24 23  1  0
 26 25  1  6
 26 27  1  0
 27 20  1  0
 28 26  1  0
 28 29  1  0
 30 28  2  0
M  END
$$$$
