YQL.pdb
     RDKit          3D

 30 30  0  0  1  0  0  0  0  0999 V2000
   28.3051  -19.7281   -4.7970 O   0  0  0  0  0  0  0  0  0  0  0  0
   28.0278  -19.7776   -6.1525 C   0  0  0  0  0  0  0  0  0  0  0  0
   29.0440  -19.9500   -7.0654 C   0  0  0  0  0  0  0  0  0  0  0  0
   28.7684  -19.9995   -8.4170 C   0  0  0  0  0  0  0  0  0  0  0  0
   27.4732  -19.8788   -8.8998 C   0  0  0  0  0  0  0  0  0  0  0  0
   27.2303  -19.9387  -10.3597 C   0  0  0  0  0  0  0  0  0  0  0  0
   26.4569  -21.2251  -10.6281 C   0  0  2  0  0  0  0  0  0  0  0  0
   27.3323  -22.3534  -10.7613 N   0  0  0  0  0  0  0  0  0  0  0  0
   25.6937  -21.0673  -11.8890 C   0  0  0  0  0  0  0  0  0  0  0  0
   26.2980  -21.1385  -13.0072 O   0  0  0  0  0  0  0  0  0  0  0  0
   26.4417  -19.7046   -7.9858 C   0  0  0  0  0  0  0  0  0  0  0  0
   26.7472  -19.6595   -6.6499 C   0  0  0  0  0  0  0  0  0  0  0  0
   19.4035  -21.4517  -12.2959 N   0  0  0  0  0  0  0  0  0  0  0  0
   19.7826  -21.2182  -13.6392 C   0  0  0  0  0  0  0  0  0  0  0  0
   18.9095  -21.2810  -14.5299 O   0  0  0  0  0  0  0  0  0  0  0  0
   21.1810  -20.9058  -13.9884 C   0  0  0  0  0  0  0  0  0  0  0  0
   22.0147  -20.9522  -12.7545 C   0  0  0  0  0  0  0  0  0  0  0  0
   23.4995  -20.7585  -13.0520 C   0  0  2  0  0  0  0  0  0  0  0  0
   24.2926  -20.8373  -11.8559 N   0  0  0  0  0  0  0  0  0  0  0  0
   23.6118  -19.4275  -13.7111 C   0  0  0  0  0  0  0  0  0  0  0  0
   23.5331  -18.4127  -12.9716 O   0  0  0  0  0  0  0  0  0  0  0  0
   26.7209  -16.4356  -15.8838 C   0  0  0  0  0  0  0  0  0  0  0  0
   27.2363  -17.8826  -15.8165 C   0  0  2  0  0  0  0  0  0  0  0  0
   27.6953  -18.2670  -17.1881 C   0  0  0  0  0  0  0  0  0  0  0  0
   26.1854  -18.7896  -15.2469 C   0  0  0  0  0  0  0  0  0  0  0  0
   24.8254  -18.3428  -15.6632 C   0  0  2  0  0  0  0  0  0  0  0  0
   23.7967  -19.2410  -15.0828 N   0  0  0  0  0  0  0  0  0  0  0  0
   24.6634  -18.4427  -17.1115 C   0  0  0  0  0  0  0  0  0  0  0  0
   24.5752  -17.3099  -17.8934 O   0  0  0  0  0  0  0  0  0  0  0  0
   24.5998  -19.5437  -17.6853 O   0  0  0  0  0  0  0  0  0  0  0  0
  2  3  2  0
  2  1  1  0
  4  3  1  0
  5  4  2  0
  6  5  1  0
  7  9  1  0
  7  6  1  0
  7  8  1  6
  9 10  2  0
 11  5  1  0
 11 12  2  0
 12  2  1  0
 14 15  2  0
 14 13  1  0
 16 14  1  0
 17 16  1  0
 18 17  1  1
 19 18  1  0
 19  9  1  0
 20 21  2  0
 20 18  1  0
 23 25  1  0
 23 22  1  6
 24 23  1  0
 26 25  1  6
 26 27  1  0
 27 20  1  0
 28 26  1  0
 28 29  1  0
 30 28  2  0
M  END
$$$$
