YQL.pdb
     RDKit          3D

 30 30  0  0  1  0  0  0  0  0999 V2000
   17.0871  -14.4915  -24.4109 O   0  0  0  0  0  0  0  0  0  0  0  0
   16.9662  -13.8088  -23.2125 C   0  0  0  0  0  0  0  0  0  0  0  0
   17.5703  -12.5828  -23.0456 C   0  0  0  0  0  0  0  0  0  0  0  0
   17.4503  -11.9015  -21.8511 C   0  0  0  0  0  0  0  0  0  0  0  0
   16.7256  -12.4203  -20.7877 C   0  0  0  0  0  0  0  0  0  0  0  0
   16.6272  -11.6495  -19.5268 C   0  0  0  0  0  0  0  0  0  0  0  0
   17.7224  -12.1699  -18.6022 C   0  0  2  0  0  0  0  0  0  0  0  0
   17.4230  -13.4838  -18.1109 N   0  0  0  0  0  0  0  0  0  0  0  0
   17.8468  -11.2500  -17.4467 C   0  0  0  0  0  0  0  0  0  0  0  0
   17.1214  -11.4278  -16.4158 O   0  0  0  0  0  0  0  0  0  0  0  0
   16.1129  -13.6567  -20.9475 C   0  0  0  0  0  0  0  0  0  0  0  0
   16.2503  -14.3091  -22.1456 C   0  0  0  0  0  0  0  0  0  0  0  0
   22.3675   -9.7747  -14.1080 N   0  0  0  0  0  0  0  0  0  0  0  0
   21.5106   -8.7111  -13.7378 C   0  0  0  0  0  0  0  0  0  0  0  0
   21.7917   -8.0376  -12.7243 O   0  0  0  0  0  0  0  0  0  0  0  0
   20.3061   -8.3979  -14.5290 C   0  0  0  0  0  0  0  0  0  0  0  0
   20.1736   -9.3918  -15.6311 C   0  0  0  0  0  0  0  0  0  0  0  0
   18.8765   -9.2150  -16.4165 C   0  0  2  0  0  0  0  0  0  0  0  0
   18.7705  -10.1718  -17.4838 N   0  0  0  0  0  0  0  0  0  0  0  0
   18.8945   -7.8137  -16.9211 C   0  0  0  0  0  0  0  0  0  0  0  0
   19.6677   -7.5594  -17.8805 O   0  0  0  0  0  0  0  0  0  0  0  0
   17.5207   -3.0900  -18.4813 C   0  0  0  0  0  0  0  0  0  0  0  0
   16.9165   -3.2719  -17.0793 C   0  0  2  0  0  0  0  0  0  0  0  0
   17.7267   -2.4528  -16.1241 C   0  0  0  0  0  0  0  0  0  0  0  0
   16.8401   -4.7278  -16.7240 C   0  0  0  0  0  0  0  0  0  0  0  0
   18.1726   -5.3770  -16.8831 C   0  0  2  0  0  0  0  0  0  0  0  0
   18.1149   -6.7788  -16.3999 N   0  0  0  0  0  0  0  0  0  0  0  0
   19.1779   -4.7160  -16.0546 C   0  0  0  0  0  0  0  0  0  0  0  0
   20.1053   -3.8619  -16.6138 O   0  0  0  0  0  0  0  0  0  0  0  0
   19.2321   -4.8990  -14.8262 O   0  0  0  0  0  0  0  0  0  0  0  0
  2  3  2  0
  2  1  1  0
  4  3  1  0
  5  4  2  0
  6  5  1  0
  7  9  1  0
  7  6  1  0
  7  8  1  1
  9 10  2  0
 11  5  1  0
 11 12  2  0
 12  2  1  0
 14 15  2  0
 14 13  1  0
 16 14  1  0
 17 16  1  0
 18 17  1  6
 19 18  1  0
 19  9  1  0
 20 21  2  0
 20 18  1  0
 23 25  1  0
 23 22  1  6
 24 23  1  0
 26 25  1  1
 26 27  1  0
 27 20  1  0
 28 26  1  0
 28 29  1  0
 30 28  2  0
M  END
$$$$
