YQL.pdb
     RDKit          3D

 30 30  0  0  1  0  0  0  0  0999 V2000
   11.8763  -10.6749   -8.3555 O   0  0  0  0  0  0  0  0  0  0  0  0
   12.7050   -9.7699   -8.9966 C   0  0  0  0  0  0  0  0  0  0  0  0
   12.7190   -8.4470   -8.6150 C   0  0  0  0  0  0  0  0  0  0  0  0
   13.5450   -7.5442   -9.2537 C   0  0  0  0  0  0  0  0  0  0  0  0
   14.3812   -7.9314  -10.2909 C   0  0  0  0  0  0  0  0  0  0  0  0
   15.2486   -6.9236  -10.9436 C   0  0  0  0  0  0  0  0  0  0  0  0
   16.6829   -7.2421  -10.5355 C   0  0  2  0  0  0  0  0  0  0  0  0
   16.9211   -6.9422   -9.1533 N   0  0  0  0  0  0  0  0  0  0  0  0
   17.6049   -6.4273  -11.3619 C   0  0  0  0  0  0  0  0  0  0  0  0
   17.9389   -5.2616  -10.9744 O   0  0  0  0  0  0  0  0  0  0  0  0
   14.3734   -9.2641  -10.6825 C   0  0  0  0  0  0  0  0  0  0  0  0
   13.5422  -10.1369  -10.0289 C   0  0  0  0  0  0  0  0  0  0  0  0
   19.8831   -9.7799  -14.5835 N   0  0  0  0  0  0  0  0  0  0  0  0
   20.8731   -9.2363  -13.7308 C   0  0  0  0  0  0  0  0  0  0  0  0
   21.6936  -10.0092  -13.1931 O   0  0  0  0  0  0  0  0  0  0  0  0
   20.9408   -7.7852  -13.4770 C   0  0  0  0  0  0  0  0  0  0  0  0
   19.8850   -7.1001  -14.2742 C   0  0  0  0  0  0  0  0  0  0  0  0
   19.0138   -6.1862  -13.4161 C   0  0  2  0  0  0  0  0  0  0  0  0
   18.1175   -6.9402  -12.5832 N   0  0  0  0  0  0  0  0  0  0  0  0
   18.2836   -5.3066  -14.3710 C   0  0  0  0  0  0  0  0  0  0  0  0
   17.1090   -5.6398  -14.6745 O   0  0  0  0  0  0  0  0  0  0  0  0
   15.8422   -2.4401  -17.3723 C   0  0  0  0  0  0  0  0  0  0  0  0
   16.1058   -1.7614  -16.0181 C   0  0  2  0  0  0  0  0  0  0  0  0
   16.7720   -0.4488  -16.2883 C   0  0  0  0  0  0  0  0  0  0  0  0
   16.8893   -2.6707  -15.1175 C   0  0  0  0  0  0  0  0  0  0  0  0
   18.0586   -3.2458  -15.8416 C   0  0  2  0  0  0  0  0  0  0  0  0
   18.8178   -4.1494  -14.9422 N   0  0  0  0  0  0  0  0  0  0  0  0
   18.9985   -2.1978  -16.2315 C   0  0  0  0  0  0  0  0  0  0  0  0
   18.9619   -1.6493  -17.4965 O   0  0  0  0  0  0  0  0  0  0  0  0
   19.8576   -1.7671  -15.4428 O   0  0  0  0  0  0  0  0  0  0  0  0
  2  3  2  0
  2  1  1  0
  4  3  1  0
  5  4  2  0
  6  5  1  0
  7  9  1  0
  7  6  1  0
  7  8  1  1
  9 10  2  0
 11  5  1  0
 11 12  2  0
 12  2  1  0
 14 15  2  0
 14 13  1  0
 16 14  1  0
 17 16  1  0
 18 17  1  6
 19 18  1  0
 19  9  1  0
 20 21  2  0
 20 18  1  0
 23 25  1  0
 23 22  1  6
 24 23  1  0
 26 25  1  1
 26 27  1  0
 27 20  1  0
 28 26  1  0
 28 29  1  0
 30 28  2  0
M  END
$$$$
