YQL.pdb
     RDKit          3D

 30 30  0  0  1  0  0  0  0  0999 V2000
   29.9346  -20.3918  -11.3731 O   0  0  0  0  0  0  0  0  0  0  0  0
   28.5939  -20.4120  -11.7176 C   0  0  0  0  0  0  0  0  0  0  0  0
   28.1797  -19.9167  -12.9337 C   0  0  0  0  0  0  0  0  0  0  0  0
   26.8431  -19.9365  -13.2778 C   0  0  0  0  0  0  0  0  0  0  0  0
   25.8794  -20.4500  -12.4217 C   0  0  0  0  0  0  0  0  0  0  0  0
   24.4581  -20.4483  -12.8384 C   0  0  0  0  0  0  0  0  0  0  0  0
   23.9919  -21.9001  -12.8303 C   0  0  2  0  0  0  0  0  0  0  0  0
   24.7382  -22.7029  -13.7555 N   0  0  0  0  0  0  0  0  0  0  0  0
   22.5610  -21.9427  -13.2146 C   0  0  0  0  0  0  0  0  0  0  0  0
   22.2382  -22.1302  -14.4316 O   0  0  0  0  0  0  0  0  0  0  0  0
   26.2885  -20.9518  -11.1927 C   0  0  0  0  0  0  0  0  0  0  0  0
   27.6229  -20.9182  -10.8796 C   0  0  0  0  0  0  0  0  0  0  0  0
   18.2700  -23.2971   -8.9275 N   0  0  0  0  0  0  0  0  0  0  0  0
   19.0878  -24.2478   -9.5834 C   0  0  0  0  0  0  0  0  0  0  0  0
   19.2343  -25.3744   -9.0648 O   0  0  0  0  0  0  0  0  0  0  0  0
   19.7577  -23.9214  -10.8561 C   0  0  0  0  0  0  0  0  0  0  0  0
   19.4375  -22.5152  -11.2300 C   0  0  0  0  0  0  0  0  0  0  0  0
   20.1674  -22.0728  -12.4957 C   0  0  2  0  0  0  0  0  0  0  0  0
   21.5488  -21.7754  -12.2325 N   0  0  0  0  0  0  0  0  0  0  0  0
   19.4251  -20.8832  -12.9983 C   0  0  0  0  0  0  0  0  0  0  0  0
   19.5290  -19.8196  -12.3345 O   0  0  0  0  0  0  0  0  0  0  0  0
   19.5363  -18.5236  -16.7683 C   0  0  0  0  0  0  0  0  0  0  0  0
   18.7846  -19.8570  -16.9134 C   0  0  2  0  0  0  0  0  0  0  0  0
   18.5333  -20.0822  -18.3714 C   0  0  0  0  0  0  0  0  0  0  0  0
   17.5422  -19.8550  -16.0719 C   0  0  0  0  0  0  0  0  0  0  0  0
   17.8852  -19.6897  -14.6306 C   0  0  2  0  0  0  0  0  0  0  0  0
   18.6309  -20.8780  -14.1472 N   0  0  0  0  0  0  0  0  0  0  0  0
   16.6780  -19.6222  -13.8109 C   0  0  0  0  0  0  0  0  0  0  0  0
   16.0546  -18.4162  -13.5674 O   0  0  0  0  0  0  0  0  0  0  0  0
   16.1744  -20.6415  -13.3079 O   0  0  0  0  0  0  0  0  0  0  0  0
  2  3  2  0
  2  1  1  0
  4  3  1  0
  5  4  2  0
  6  5  1  0
  7  9  1  0
  7  6  1  0
  7  8  1  6
  9 10  2  0
 11  5  1  0
 11 12  2  0
 12  2  1  0
 14 15  2  0
 14 13  1  0
 16 14  1  0
 17 16  1  0
 18 17  1  1
 19 18  1  0
 19  9  1  0
 20 21  2  0
 20 18  1  0
 23 25  1  0
 23 22  1  6
 24 23  1  0
 26 25  1  6
 26 27  1  0
 27 20  1  0
 28 26  1  0
 28 29  1  0
 30 28  2  0
M  END
$$$$
