YQL.pdb
     RDKit          3D

 30 30  0  0  1  0  0  0  0  0999 V2000
   28.9178  -19.3851   -4.7394 O   0  0  0  0  0  0  0  0  0  0  0  0
   28.2318  -19.6755   -5.9063 C   0  0  0  0  0  0  0  0  0  0  0  0
   27.6177  -20.8972   -6.0675 C   0  0  0  0  0  0  0  0  0  0  0  0
   26.9334  -21.1875   -7.2307 C   0  0  0  0  0  0  0  0  0  0  0  0
   26.8403  -20.2702   -8.2676 C   0  0  0  0  0  0  0  0  0  0  0  0
   26.0943  -20.6305   -9.4954 C   0  0  0  0  0  0  0  0  0  0  0  0
   24.8360  -19.7695   -9.5184 C   0  0  2  0  0  0  0  0  0  0  0  0
   23.8243  -20.2835   -8.6410 N   0  0  0  0  0  0  0  0  0  0  0  0
   24.2983  -19.7492  -10.8995 C   0  0  0  0  0  0  0  0  0  0  0  0
   23.1755  -20.2946  -11.1492 O   0  0  0  0  0  0  0  0  0  0  0  0
   27.4570  -19.0351   -8.1134 C   0  0  0  0  0  0  0  0  0  0  0  0
   28.1290  -18.7764   -6.9467 C   0  0  0  0  0  0  0  0  0  0  0  0
   27.0709  -16.6227  -15.6952 N   0  0  0  0  0  0  0  0  0  0  0  0
   25.7717  -16.8748  -16.1964 C   0  0  0  0  0  0  0  0  0  0  0  0
   25.4780  -16.4642  -17.3387 O   0  0  0  0  0  0  0  0  0  0  0  0
   24.7777  -17.6080  -15.3906 C   0  0  0  0  0  0  0  0  0  0  0  0
   25.3953  -18.0019  -14.0932 C   0  0  0  0  0  0  0  0  0  0  0  0
   24.4188  -18.7540  -13.1924 C   0  0  2  0  0  0  0  0  0  0  0  0
   25.0290  -19.1248  -11.9451 N   0  0  0  0  0  0  0  0  0  0  0  0
   23.9773  -19.9424  -13.9744 C   0  0  0  0  0  0  0  0  0  0  0  0
   24.6350  -21.0044  -13.8245 O   0  0  0  0  0  0  0  0  0  0  0  0
   20.4035  -23.0918  -15.4803 C   0  0  0  0  0  0  0  0  0  0  0  0
   20.5246  -22.7515  -13.9858 C   0  0  2  0  0  0  0  0  0  0  0  0
   19.1395  -22.6382  -13.4305 C   0  0  0  0  0  0  0  0  0  0  0  0
   21.3634  -21.5224  -13.7923 C   0  0  0  0  0  0  0  0  0  0  0  0
   22.0138  -21.1243  -15.0733 C   0  0  2  0  0  0  0  0  0  0  0  0
   22.8913  -19.9483  -14.8526 N   0  0  0  0  0  0  0  0  0  0  0  0
   21.0188  -20.6948  -16.0527 C   0  0  0  0  0  0  0  0  0  0  0  0
   20.4277  -19.4518  -15.9626 O   0  0  0  0  0  0  0  0  0  0  0  0
   20.6725  -21.4290  -16.9943 O   0  0  0  0  0  0  0  0  0  0  0  0
  2  3  2  0
  2  1  1  0
  4  3  1  0
  5  4  2  0
  6  5  1  0
  7  9  1  0
  7  6  1  0
  7  8  1  1
  9 10  2  0
 11  5  1  0
 11 12  2  0
 12  2  1  0
 14 15  2  0
 14 13  1  0
 16 14  1  0
 17 16  1  0
 18 17  1  6
 19 18  1  0
 19  9  1  0
 20 21  2  0
 20 18  1  0
 23 25  1  0
 23 22  1  6
 24 23  1  0
 26 25  1  1
 26 27  1  0
 27 20  1  0
 28 26  1  0
 28 29  1  0
 30 28  2  0
M  END
$$$$
