YQL.pdb
     RDKit          3D

 30 30  0  0  1  0  0  0  0  0999 V2000
   14.8496  -15.6104  -17.9243 O   0  0  0  0  0  0  0  0  0  0  0  0
   15.0349  -14.3362  -17.4155 C   0  0  0  0  0  0  0  0  0  0  0  0
   16.2951  -13.7842  -17.3618 C   0  0  0  0  0  0  0  0  0  0  0  0
   16.4806  -12.5139  -16.8546 C   0  0  0  0  0  0  0  0  0  0  0  0
   15.4173  -11.7557  -16.3859 C   0  0  0  0  0  0  0  0  0  0  0  0
   15.6695  -10.3976  -15.8513 C   0  0  0  0  0  0  0  0  0  0  0  0
   16.4257  -10.5711  -14.5386 C   0  0  2  0  0  0  0  0  0  0  0  0
   15.6188  -11.2129  -13.5414 N   0  0  0  0  0  0  0  0  0  0  0  0
   16.8220   -9.2337  -14.0372 C   0  0  0  0  0  0  0  0  0  0  0  0
   17.4616   -8.4374  -14.7970 O   0  0  0  0  0  0  0  0  0  0  0  0
   14.1424  -12.3049  -16.4362 C   0  0  0  0  0  0  0  0  0  0  0  0
   13.9902  -13.5688  -16.9455 C   0  0  0  0  0  0  0  0  0  0  0  0
   14.8852   -6.7160   -8.5498 N   0  0  0  0  0  0  0  0  0  0  0  0
   15.7487   -5.7173   -9.0593 C   0  0  0  0  0  0  0  0  0  0  0  0
   15.8449   -4.6349   -8.4440 O   0  0  0  0  0  0  0  0  0  0  0  0
   16.5237   -5.9434  -10.2935 C   0  0  0  0  0  0  0  0  0  0  0  0
   16.2114   -7.2998  -10.8249 C   0  0  0  0  0  0  0  0  0  0  0  0
   16.8566   -7.5507  -12.1855 C   0  0  2  0  0  0  0  0  0  0  0  0
   16.4918   -8.8364  -12.7142 N   0  0  0  0  0  0  0  0  0  0  0  0
   18.3252   -7.4318  -11.9670 C   0  0  0  0  0  0  0  0  0  0  0  0
   18.8354   -8.1689  -11.0843 O   0  0  0  0  0  0  0  0  0  0  0  0
   22.9665   -8.5461  -15.0968 C   0  0  0  0  0  0  0  0  0  0  0  0
   22.5365   -7.7546  -13.8507 C   0  0  2  0  0  0  0  0  0  0  0  0
   23.1163   -8.4397  -12.6532 C   0  0  0  0  0  0  0  0  0  0  0  0
   21.0436   -7.6094  -13.8090 C   0  0  0  0  0  0  0  0  0  0  0  0
   20.6371   -6.6843  -12.7129 C   0  0  2  0  0  0  0  0  0  0  0  0
   19.1588   -6.5624  -12.6740 N   0  0  0  0  0  0  0  0  0  0  0  0
   21.1373   -5.3337  -12.9570 C   0  0  0  0  0  0  0  0  0  0  0  0
   22.4418   -4.9979  -12.6608 O   0  0  0  0  0  0  0  0  0  0  0  0
   20.4100   -4.4467  -13.4365 O   0  0  0  0  0  0  0  0  0  0  0  0
  2  3  2  0
  2  1  1  0
  4  3  1  0
  5  4  2  0
  6  5  1  0
  7  9  1  0
  7  6  1  0
  7  8  1  1
  9 10  2  0
 11  5  1  0
 11 12  2  0
 12  2  1  0
 14 15  2  0
 14 13  1  0
 16 14  1  0
 17 16  1  0
 18 17  1  1
 19 18  1  0
 19  9  1  0
 20 21  2  0
 20 18  1  0
 23 25  1  0
 23 22  1  6
 24 23  1  0
 26 25  1  6
 26 27  1  0
 27 20  1  0
 28 26  1  0
 28 29  1  0
 30 28  2  0
M  END
$$$$
