YQL.pdb
     RDKit          3D

 30 30  0  0  1  0  0  0  0  0999 V2000
   20.3856  -27.7801    2.2713 O   0  0  0  0  0  0  0  0  0  0  0  0
   20.3025  -26.5382    2.8776 C   0  0  0  0  0  0  0  0  0  0  0  0
   20.6546  -25.4007    2.1862 C   0  0  0  0  0  0  0  0  0  0  0  0
   20.5720  -24.1622    2.7900 C   0  0  0  0  0  0  0  0  0  0  0  0
   20.1364  -24.0194    4.0997 C   0  0  0  0  0  0  0  0  0  0  0  0
   20.0657  -22.6679    4.7016 C   0  0  0  0  0  0  0  0  0  0  0  0
   18.5898  -22.3618    4.9320 C   0  0  2  0  0  0  0  0  0  0  0  0
   17.8493  -22.3610    3.7036 N   0  0  0  0  0  0  0  0  0  0  0  0
   18.4732  -21.0221    5.5553 C   0  0  0  0  0  0  0  0  0  0  0  0
   18.7261  -19.9807    4.8682 O   0  0  0  0  0  0  0  0  0  0  0  0
   19.7792  -25.1618    4.8046 C   0  0  0  0  0  0  0  0  0  0  0  0
   19.8721  -26.3776    4.1777 C   0  0  0  0  0  0  0  0  0  0  0  0
   15.6764  -21.6143    7.0473 N   0  0  0  0  0  0  0  0  0  0  0  0
   14.9297  -20.4146    7.1246 C   0  0  0  0  0  0  0  0  0  0  0  0
   13.8001  -20.3744    6.5936 O   0  0  0  0  0  0  0  0  0  0  0  0
   15.4690  -19.2298    7.8176 C   0  0  0  0  0  0  0  0  0  0  0  0
   16.7372  -19.6014    8.5056 C   0  0  0  0  0  0  0  0  0  0  0  0
   17.9297  -19.6154    7.5524 C   0  0  2  0  0  0  0  0  0  0  0  0
   18.0810  -20.8944    6.9144 N   0  0  0  0  0  0  0  0  0  0  0  0
   19.1158  -19.2593    8.3801 C   0  0  0  0  0  0  0  0  0  0  0  0
   20.0927  -20.0516    8.3534 O   0  0  0  0  0  0  0  0  0  0  0  0
   23.7365  -16.2531    8.8177 C   0  0  0  0  0  0  0  0  0  0  0  0
   22.7522  -16.9711    9.7557 C   0  0  2  0  0  0  0  0  0  0  0  0
   23.4938  -18.0820   10.4306 C   0  0  0  0  0  0  0  0  0  0  0  0
   21.5360  -17.4188    8.9992 C   0  0  0  0  0  0  0  0  0  0  0  0
   20.4208  -17.7324    9.9375 C   0  0  2  0  0  0  0  0  0  0  0  0
   19.2072  -18.1136    9.1736 N   0  0  0  0  0  0  0  0  0  0  0  0
   20.0437  -16.5534   10.7131 C   0  0  0  0  0  0  0  0  0  0  0  0
   20.5676  -16.3361   11.9703 O   0  0  0  0  0  0  0  0  0  0  0  0
   19.2434  -15.7113   10.2704 O   0  0  0  0  0  0  0  0  0  0  0  0
  2  3  2  0
  2  1  1  0
  4  3  1  0
  5  4  2  0
  6  5  1  0
  7  9  1  0
  7  6  1  0
  7  8  1  6
  9 10  2  0
 11  5  1  0
 11 12  2  0
 12  2  1  0
 14 15  2  0
 14 13  1  0
 16 14  1  0
 17 16  1  0
 18 17  1  1
 19 18  1  0
 19  9  1  0
 20 21  2  0
 20 18  1  0
 23 25  1  0
 23 22  1  6
 24 23  1  0
 26 25  1  6
 26 27  1  0
 27 20  1  0
 28 26  1  0
 28 29  1  0
 30 28  2  0
M  END
$$$$
