YQL.pdb
     RDKit          3D

 30 30  0  0  1  0  0  0  0  0999 V2000
   31.3979  -16.6115  -18.8410 O   0  0  0  0  0  0  0  0  0  0  0  0
   30.3661  -17.2467  -18.1712 C   0  0  0  0  0  0  0  0  0  0  0  0
   29.2958  -17.7611  -18.8681 C   0  0  0  0  0  0  0  0  0  0  0  0
   28.2667  -18.3945  -18.2009 C   0  0  0  0  0  0  0  0  0  0  0  0
   28.2726  -18.5344  -16.8204 C   0  0  0  0  0  0  0  0  0  0  0  0
   27.1440  -19.2226  -16.1522 C   0  0  0  0  0  0  0  0  0  0  0  0
   27.7122  -20.4815  -15.5061 C   0  0  2  0  0  0  0  0  0  0  0  0
   28.0264  -21.4843  -16.4825 N   0  0  0  0  0  0  0  0  0  0  0  0
   26.7039  -21.0327  -14.5699 C   0  0  0  0  0  0  0  0  0  0  0  0
   25.9027  -21.9395  -14.9653 O   0  0  0  0  0  0  0  0  0  0  0  0
   29.3486  -18.0184  -16.1094 C   0  0  0  0  0  0  0  0  0  0  0  0
   30.3553  -17.3948  -16.8003 C   0  0  0  0  0  0  0  0  0  0  0  0
   26.4153  -19.7877   -8.3392 N   0  0  0  0  0  0  0  0  0  0  0  0
   25.4667  -20.8211   -8.5266 C   0  0  0  0  0  0  0  0  0  0  0  0
   24.9767  -21.3768   -7.5212 O   0  0  0  0  0  0  0  0  0  0  0  0
   25.0595  -21.2394   -9.8809 C   0  0  0  0  0  0  0  0  0  0  0  0
   25.9356  -20.5700  -10.8830 C   0  0  0  0  0  0  0  0  0  0  0  0
   25.6293  -21.0178  -12.3099 C   0  0  2  0  0  0  0  0  0  0  0  0
   26.6270  -20.5544  -13.2348 N   0  0  0  0  0  0  0  0  0  0  0  0
   24.2787  -20.4745  -12.6253 C   0  0  0  0  0  0  0  0  0  0  0  0
   24.1716  -19.2248  -12.7234 O   0  0  0  0  0  0  0  0  0  0  0  0
   21.7640  -19.5852  -15.8898 C   0  0  0  0  0  0  0  0  0  0  0  0
   21.9431  -21.0787  -15.5713 C   0  0  2  0  0  0  0  0  0  0  0  0
   21.4983  -21.8568  -16.7697 C   0  0  0  0  0  0  0  0  0  0  0  0
   21.2197  -21.4373  -14.3064 C   0  0  0  0  0  0  0  0  0  0  0  0
   21.8015  -20.7068  -13.1444 C   0  0  2  0  0  0  0  0  0  0  0  0
   23.1390  -21.2590  -12.8161 N   0  0  0  0  0  0  0  0  0  0  0  0
   20.9899  -20.9018  -11.9456 C   0  0  0  0  0  0  0  0  0  0  0  0
   19.9030  -20.0929  -11.6876 O   0  0  0  0  0  0  0  0  0  0  0  0
   21.2488  -21.7966  -11.1223 O   0  0  0  0  0  0  0  0  0  0  0  0
  2  3  2  0
  2  1  1  0
  4  3  1  0
  5  4  2  0
  6  5  1  0
  7  9  1  0
  7  6  1  0
  7  8  1  6
  9 10  2  0
 11  5  1  0
 11 12  2  0
 12  2  1  0
 14 15  2  0
 14 13  1  0
 16 14  1  0
 17 16  1  0
 18 17  1  1
 19 18  1  0
 19  9  1  0
 20 21  2  0
 20 18  1  0
 23 25  1  0
 23 22  1  6
 24 23  1  0
 26 25  1  6
 26 27  1  0
 27 20  1  0
 28 26  1  0
 28 29  1  0
 30 28  2  0
M  END
$$$$
