YQL.pdb
     RDKit          3D

 30 30  0  0  1  0  0  0  0  0999 V2000
   16.6288   -9.7635  -23.0341 O   0  0  0  0  0  0  0  0  0  0  0  0
   17.8332   -9.9509  -22.3776 C   0  0  0  0  0  0  0  0  0  0  0  0
   18.3781   -8.9386  -21.6199 C   0  0  0  0  0  0  0  0  0  0  0  0
   19.5789   -9.1247  -20.9650 C   0  0  0  0  0  0  0  0  0  0  0  0
   20.2726  -10.3237  -21.0450 C   0  0  0  0  0  0  0  0  0  0  0  0
   21.5573  -10.4727  -20.3232 C   0  0  0  0  0  0  0  0  0  0  0  0
   21.2261  -11.0075  -18.9342 C   0  0  2  0  0  0  0  0  0  0  0  0
   20.2795  -12.0836  -18.9910 N   0  0  0  0  0  0  0  0  0  0  0  0
   20.6448   -9.9085  -18.1272 C   0  0  0  0  0  0  0  0  0  0  0  0
   19.3986   -9.9055  -17.8673 O   0  0  0  0  0  0  0  0  0  0  0  0
   19.7300  -11.3503  -21.8074 C   0  0  0  0  0  0  0  0  0  0  0  0
   18.5359  -11.1352  -22.4459 C   0  0  0  0  0  0  0  0  0  0  0  0
   20.3575   -6.5357  -13.4231 N   0  0  0  0  0  0  0  0  0  0  0  0
   20.3767   -7.9507  -13.4347 C   0  0  0  0  0  0  0  0  0  0  0  0
   19.7985   -8.5673  -12.5153 O   0  0  0  0  0  0  0  0  0  0  0  0
   21.0645   -8.6904  -14.5092 C   0  0  0  0  0  0  0  0  0  0  0  0
   21.6409   -7.7182  -15.4799 C   0  0  0  0  0  0  0  0  0  0  0  0
   20.9538   -7.7839  -16.8416 C   0  0  2  0  0  0  0  0  0  0  0  0
   21.4705   -8.8594  -17.6428 N   0  0  0  0  0  0  0  0  0  0  0  0
   21.1803   -6.4552  -17.4757 C   0  0  0  0  0  0  0  0  0  0  0  0
   22.2507   -6.3013  -18.1186 O   0  0  0  0  0  0  0  0  0  0  0  0
   18.4218   -2.0465  -20.5122 C   0  0  0  0  0  0  0  0  0  0  0  0
   19.6828   -2.5159  -19.7682 C   0  0  2  0  0  0  0  0  0  0  0  0
   20.7852   -2.6391  -20.7728 C   0  0  0  0  0  0  0  0  0  0  0  0
   19.4051   -3.7789  -19.0071 C   0  0  0  0  0  0  0  0  0  0  0  0
   20.5139   -4.0717  -18.0546 C   0  0  2  0  0  0  0  0  0  0  0  0
   20.2872   -5.3840  -17.4002 N   0  0  0  0  0  0  0  0  0  0  0  0
   20.5446   -3.0918  -16.9717 C   0  0  0  0  0  0  0  0  0  0  0  0
   21.1454   -1.8627  -17.1465 O   0  0  0  0  0  0  0  0  0  0  0  0
   20.0342   -3.3298  -15.8634 O   0  0  0  0  0  0  0  0  0  0  0  0
  2  3  2  0
  2  1  1  0
  4  3  1  0
  5  4  2  0
  6  5  1  0
  7  9  1  0
  7  6  1  0
  7  8  1  6
  9 10  2  0
 11  5  1  0
 11 12  2  0
 12  2  1  0
 14 15  2  0
 14 13  1  0
 16 14  1  0
 17 16  1  0
 18 17  1  1
 19 18  1  0
 19  9  1  0
 20 21  2  0
 20 18  1  0
 23 25  1  0
 23 22  1  6
 24 23  1  0
 26 25  1  6
 26 27  1  0
 27 20  1  0
 28 26  1  0
 28 29  1  0
 30 28  2  0
M  END
$$$$
