YQL.pdb
     RDKit          3D

 30 30  0  0  1  0  0  0  0  0999 V2000
   29.3614  -18.3445  -19.3790 O   0  0  0  0  0  0  0  0  0  0  0  0
   28.8004  -18.2168  -18.1197 C   0  0  0  0  0  0  0  0  0  0  0  0
   27.4493  -17.9924  -17.9787 C   0  0  0  0  0  0  0  0  0  0  0  0
   26.8892  -17.8650  -16.7235 C   0  0  0  0  0  0  0  0  0  0  0  0
   27.6575  -17.9572  -15.5718 C   0  0  0  0  0  0  0  0  0  0  0  0
   27.0082  -17.8134  -14.2484 C   0  0  0  0  0  0  0  0  0  0  0  0
   27.0611  -19.1817  -13.5774 C   0  0  2  0  0  0  0  0  0  0  0  0
   26.3219  -20.1644  -14.3158 N   0  0  0  0  0  0  0  0  0  0  0  0
   26.4744  -19.0696  -12.2209 C   0  0  0  0  0  0  0  0  0  0  0  0
   26.5470  -17.9666  -11.5895 O   0  0  0  0  0  0  0  0  0  0  0  0
   29.0216  -18.1834  -15.7048 C   0  0  0  0  0  0  0  0  0  0  0  0
   29.5484  -18.3055  -16.9647 C   0  0  0  0  0  0  0  0  0  0  0  0
   24.5501  -22.7659  -12.4878 N   0  0  0  0  0  0  0  0  0  0  0  0
   23.3510  -22.0187  -12.5695 C   0  0  0  0  0  0  0  0  0  0  0  0
   22.6240  -22.1570  -13.5755 O   0  0  0  0  0  0  0  0  0  0  0  0
   22.9606  -21.0921  -11.4907 C   0  0  0  0  0  0  0  0  0  0  0  0
   23.9597  -21.1768  -10.3887 C   0  0  0  0  0  0  0  0  0  0  0  0
   24.9959  -20.0580  -10.4602 C   0  0  2  0  0  0  0  0  0  0  0  0
   25.8322  -20.1859  -11.6222 N   0  0  0  0  0  0  0  0  0  0  0  0
   25.7780  -20.1468   -9.1956 C   0  0  0  0  0  0  0  0  0  0  0  0
   25.3807  -19.4513   -8.2254 O   0  0  0  0  0  0  0  0  0  0  0  0
   29.3474  -18.9612   -6.1706 C   0  0  0  0  0  0  0  0  0  0  0  0
   27.9789  -19.6217   -5.9357 C   0  0  2  0  0  0  0  0  0  0  0  0
   27.8353  -19.8624   -4.4657 C   0  0  0  0  0  0  0  0  0  0  0  0
   27.8408  -20.8584   -6.7742 C   0  0  0  0  0  0  0  0  0  0  0  0
   28.0867  -20.5479   -8.2114 C   0  0  2  0  0  0  0  0  0  0  0  0
   26.9110  -20.9453   -9.0247 N   0  0  0  0  0  0  0  0  0  0  0  0
   29.2067  -21.3291   -8.7303 C   0  0  0  0  0  0  0  0  0  0  0  0
   30.4648  -21.2166   -8.1763 O   0  0  0  0  0  0  0  0  0  0  0  0
   29.0659  -22.1164   -9.6821 O   0  0  0  0  0  0  0  0  0  0  0  0
  2  3  2  0
  2  1  1  0
  4  3  1  0
  5  4  2  0
  6  5  1  0
  7  9  1  0
  7  6  1  0
  7  8  1  6
  9 10  2  0
 11  5  1  0
 11 12  2  0
 12  2  1  0
 14 15  2  0
 14 13  1  0
 16 14  1  0
 17 16  1  0
 18 17  1  1
 19 18  1  0
 19  9  1  0
 20 21  2  0
 20 18  1  0
 23 25  1  0
 23 22  1  1
 24 23  1  0
 26 25  1  1
 26 27  1  0
 27 20  1  0
 28 26  1  0
 28 29  1  0
 30 28  2  0
M  END
$$$$
