YQL.pdb
     RDKit          3D

 30 30  0  0  1  0  0  0  0  0999 V2000
   31.8423  -25.3407  -18.4331 O   0  0  0  0  0  0  0  0  0  0  0  0
   31.1826  -24.3438  -17.7349 C   0  0  0  0  0  0  0  0  0  0  0  0
   30.4673  -24.6463  -16.5980 C   0  0  0  0  0  0  0  0  0  0  0  0
   29.8093  -23.6528  -15.9012 C   0  0  0  0  0  0  0  0  0  0  0  0
   29.8439  -22.3291  -16.3156 C   0  0  0  0  0  0  0  0  0  0  0  0
   29.1209  -21.3005  -15.5326 C   0  0  0  0  0  0  0  0  0  0  0  0
   27.6616  -21.3535  -15.9716 C   0  0  2  0  0  0  0  0  0  0  0  0
   27.4691  -20.7358  -17.2518 N   0  0  0  0  0  0  0  0  0  0  0  0
   26.8371  -20.6349  -14.9712 C   0  0  0  0  0  0  0  0  0  0  0  0
   26.8906  -19.3649  -14.9022 O   0  0  0  0  0  0  0  0  0  0  0  0
   30.5632  -22.0150  -17.4617 C   0  0  0  0  0  0  0  0  0  0  0  0
   31.2061  -23.0235  -18.1320 C   0  0  0  0  0  0  0  0  0  0  0  0
   21.1389  -21.7173  -13.1786 N   0  0  0  0  0  0  0  0  0  0  0  0
   21.5487  -20.8097  -12.1732 C   0  0  0  0  0  0  0  0  0  0  0  0
   20.6916  -20.3592  -11.3844 O   0  0  0  0  0  0  0  0  0  0  0  0
   22.9600  -20.3988  -12.0529 C   0  0  0  0  0  0  0  0  0  0  0  0
   23.7500  -21.0404  -13.1410 C   0  0  0  0  0  0  0  0  0  0  0  0
   25.2374  -20.7097  -13.0481 C   0  0  2  0  0  0  0  0  0  0  0  0
   25.9884  -21.3557  -14.0895 N   0  0  0  0  0  0  0  0  0  0  0  0
   25.6680  -21.1506  -11.6921 C   0  0  0  0  0  0  0  0  0  0  0  0
   25.5375  -22.3714  -11.4174 O   0  0  0  0  0  0  0  0  0  0  0  0
   27.6611  -18.6899   -6.3264 C   0  0  0  0  0  0  0  0  0  0  0  0
   27.2746  -19.9444   -7.1270 C   0  0  2  0  0  0  0  0  0  0  0  0
   28.2717  -21.0138   -6.8079 C   0  0  0  0  0  0  0  0  0  0  0  0
   27.1688  -19.6236   -8.5891 C   0  0  0  0  0  0  0  0  0  0  0  0
   26.4368  -20.7030   -9.3112 C   0  0  2  0  0  0  0  0  0  0  0  0
   26.2008  -20.3011  -10.7199 N   0  0  0  0  0  0  0  0  0  0  0  0
   25.1113  -20.9116   -8.7339 C   0  0  0  0  0  0  0  0  0  0  0  0
   24.8792  -21.9440   -7.8492 O   0  0  0  0  0  0  0  0  0  0  0  0
   24.1535  -20.1716   -9.0178 O   0  0  0  0  0  0  0  0  0  0  0  0
  2  3  2  0
  2  1  1  0
  4  3  1  0
  5  4  2  0
  6  5  1  0
  7  9  1  0
  7  6  1  0
  7  8  1  6
  9 10  2  0
 11  5  1  0
 11 12  2  0
 12  2  1  0
 14 15  2  0
 14 13  1  0
 16 14  1  0
 17 16  1  0
 18 17  1  6
 19 18  1  0
 19  9  1  0
 20 21  2  0
 20 18  1  0
 23 25  1  0
 23 22  1  1
 24 23  1  0
 26 25  1  1
 26 27  1  0
 27 20  1  0
 28 26  1  0
 28 29  1  0
 30 28  2  0
M  END
$$$$
