YQL.pdb
     RDKit          3D

 30 30  0  0  1  0  0  0  0  0999 V2000
   30.5932  -16.4956  -18.6090 O   0  0  0  0  0  0  0  0  0  0  0  0
   29.5659  -17.2368  -18.0506 C   0  0  0  0  0  0  0  0  0  0  0  0
   29.2402  -17.0849  -16.7215 C   0  0  0  0  0  0  0  0  0  0  0  0
   28.2160  -17.8236  -16.1639 C   0  0  0  0  0  0  0  0  0  0  0  0
   27.4860  -18.7353  -16.9129 C   0  0  0  0  0  0  0  0  0  0  0  0
   26.3965  -19.5034  -16.2673 C   0  0  0  0  0  0  0  0  0  0  0  0
   27.0560  -20.6217  -15.4676 C   0  0  2  0  0  0  0  0  0  0  0  0
   27.6886  -21.5843  -16.3223 N   0  0  0  0  0  0  0  0  0  0  0  0
   26.0164  -21.3112  -14.6670 C   0  0  0  0  0  0  0  0  0  0  0  0
   25.3587  -22.2734  -15.1788 O   0  0  0  0  0  0  0  0  0  0  0  0
   27.8079  -18.8950  -18.2548 C   0  0  0  0  0  0  0  0  0  0  0  0
   28.8301  -18.1470  -18.7796 C   0  0  0  0  0  0  0  0  0  0  0  0
   25.5734  -21.0913   -8.4381 N   0  0  0  0  0  0  0  0  0  0  0  0
   25.9087  -20.0020   -9.2769 C   0  0  0  0  0  0  0  0  0  0  0  0
   26.4596  -19.0016   -8.7715 O   0  0  0  0  0  0  0  0  0  0  0  0
   25.6162  -20.0402  -10.7218 C   0  0  0  0  0  0  0  0  0  0  0  0
   24.9589  -21.3356  -11.0530 C   0  0  0  0  0  0  0  0  0  0  0  0
   24.6945  -21.4841  -12.5492 C   0  0  2  0  0  0  0  0  0  0  0  0
   25.7506  -20.9040  -13.3326 N   0  0  0  0  0  0  0  0  0  0  0  0
   23.3842  -20.8209  -12.7982 C   0  0  0  0  0  0  0  0  0  0  0  0
   23.3736  -19.5631  -12.8240 O   0  0  0  0  0  0  0  0  0  0  0  0
   21.0424  -19.5643  -15.9422 C   0  0  0  0  0  0  0  0  0  0  0  0
   21.0298  -21.0861  -15.7234 C   0  0  2  0  0  0  0  0  0  0  0  0
   20.5053  -21.7218  -16.9725 C   0  0  0  0  0  0  0  0  0  0  0  0
   20.2526  -21.4335  -14.4877 C   0  0  0  0  0  0  0  0  0  0  0  0
   20.8889  -20.8316  -13.2814 C   0  0  2  0  0  0  0  0  0  0  0  0
   22.1824  -21.5028  -13.0019 N   0  0  0  0  0  0  0  0  0  0  0  0
   20.0672  -21.0501  -12.0935 C   0  0  0  0  0  0  0  0  0  0  0  0
   20.3153  -22.1102  -11.2467 O   0  0  0  0  0  0  0  0  0  0  0  0
   19.1228  -20.2942  -11.8068 O   0  0  0  0  0  0  0  0  0  0  0  0
  2  3  2  0
  2  1  1  0
  4  3  1  0
  5  4  2  0
  6  5  1  0
  7  9  1  0
  7  6  1  0
  7  8  1  6
  9 10  2  0
 11  5  1  0
 11 12  2  0
 12  2  1  0
 14 15  2  0
 14 13  1  0
 16 14  1  0
 17 16  1  0
 18 17  1  1
 19 18  1  0
 19  9  1  0
 20 21  2  0
 20 18  1  0
 23 25  1  0
 23 22  1  6
 24 23  1  0
 26 25  1  6
 26 27  1  0
 27 20  1  0
 28 26  1  0
 28 29  1  0
 30 28  2  0
M  END
$$$$
