MCH.pdb
     RDKit          3D

 25 25  0  0  1  0  0  0  0  0999 V2000
    6.6674  -11.9789   26.3824 C   0  0  0  0  0  0  0  0  0  0  0  0
    7.2419  -13.2242   27.5816 S   0  0  0  0  0  0  0  0  0  0  0  0
    7.2453  -14.8190   26.6626 C   0  0  0  0  0  0  0  0  0  0  0  0
    5.9712  -14.8791   25.8322 C   0  0  0  0  0  0  0  0  0  0  0  0
    5.8936  -16.2071   25.0803 C   0  0  2  0  0  0  0  0  0  0  0  0
    6.1890  -17.2868   26.0316 N   0  0  0  0  0  0  0  0  0  0  0  0
    7.0481  -16.1950   24.1362 C   0  0  0  0  0  0  0  0  0  0  0  0
    8.0697  -16.8000   24.4013 O   0  0  0  0  0  0  0  0  0  0  0  0
    6.9369  -15.4677   22.9147 N   0  0  0  0  0  0  0  0  0  0  0  0
    7.9453  -15.4350   21.9102 C   0  0  1  0  0  0  0  0  0  0  0  0
    7.7445  -14.3132   20.9004 C   0  0  0  0  0  0  0  0  0  0  0  0
    8.8097  -14.5958   19.4802 S   0  0  0  0  0  0  0  0  0  0  0  0
    9.3123  -15.3187   22.4183 C   0  0  0  0  0  0  0  0  0  0  0  0
    9.6466  -14.4335   23.2197 O   0  0  0  0  0  0  0  0  0  0  0  0
   10.3228  -16.2421   22.0023 N   0  0  0  0  0  0  0  0  0  0  0  0
   11.6985  -16.0736   22.4990 C   0  0  1  0  0  0  0  0  0  0  0  0
   12.0786  -17.4671   23.0142 C   0  0  0  0  0  0  0  0  0  0  0  0
   11.3732  -17.8232   24.2427 C   0  0  0  0  0  0  0  0  0  0  0  0
   11.7108  -17.4295   25.5370 C   0  0  0  0  0  0  0  0  0  0  0  0
   10.8122  -17.9957   26.3805 N   0  0  0  0  0  0  0  0  0  0  0  0
    9.9601  -18.7049   25.6415 C   0  0  0  0  0  0  0  0  0  0  0  0
   10.3033  -18.5982   24.3476 N   0  0  0  0  0  0  0  0  0  0  0  0
   12.5812  -15.6206   21.4260 C   0  0  0  0  0  0  0  0  0  0  0  0
   13.8983  -15.2921   21.6418 O   0  0  0  0  0  0  0  0  0  0  0  0
   12.1082  -15.5285   20.2515 O   0  0  0  0  0  0  0  0  0  0  0  0
  1  2  1  0
  2  3  1  0
  3  4  1  0
  4  5  1  0
  5  7  1  0
  5  6  1  1
  7  9  1  0
  7  8  2  0
  9 10  1  0
 10 11  1  6
 11 12  1  0
 13 10  1  0
 13 14  2  0
 15 13  1  0
 16 15  1  0
 16 17  1  6
 18 17  1  0
 18 19  2  0
 20 19  1  0
 21 20  1  0
 22 21  2  0
 22 18  1  0
 23 16  1  0
 24 23  1  0
 25 23  2  0
M  END
$$$$
