MCH.pdb
     RDKit          3D

 25 25  0  0  1  0  0  0  0  0999 V2000
   12.9707  -16.6855   14.1991 C   0  0  0  0  0  0  0  0  0  0  0  0
   12.0290  -15.2053   14.6896 S   0  0  0  0  0  0  0  0  0  0  0  0
   10.7602  -15.8082   15.8791 C   0  0  0  0  0  0  0  0  0  0  0  0
    9.9210  -14.6132   16.3082 C   0  0  0  0  0  0  0  0  0  0  0  0
    8.9389  -15.0245   17.4043 C   0  0  2  0  0  0  0  0  0  0  0  0
    7.6629  -14.3420   17.1517 N   0  0  0  0  0  0  0  0  0  0  0  0
    9.4657  -14.4112   18.6576 C   0  0  0  0  0  0  0  0  0  0  0  0
    9.1823  -13.2652   18.9515 O   0  0  0  0  0  0  0  0  0  0  0  0
   10.3035  -15.1883   19.5106 N   0  0  0  0  0  0  0  0  0  0  0  0
   10.1614  -15.2535   20.9256 C   0  0  1  0  0  0  0  0  0  0  0  0
    8.7449  -15.5956   21.3673 C   0  0  0  0  0  0  0  0  0  0  0  0
    8.6260  -15.4368   23.1539 S   0  0  0  0  0  0  0  0  0  0  0  0
   11.0603  -16.1986   21.5885 C   0  0  0  0  0  0  0  0  0  0  0  0
   10.9617  -17.4248   21.4326 O   0  0  0  0  0  0  0  0  0  0  0  0
   12.1021  -15.7286   22.4490 N   0  0  0  0  0  0  0  0  0  0  0  0
   13.1244  -16.6760   22.9232 C   0  0  1  0  0  0  0  0  0  0  0  0
   14.4363  -15.8894   22.8135 C   0  0  0  0  0  0  0  0  0  0  0  0
   14.7727  -15.5484   21.4336 C   0  0  0  0  0  0  0  0  0  0  0  0
   14.8502  -16.4304   20.3564 C   0  0  0  0  0  0  0  0  0  0  0  0
   15.2115  -15.7085   19.2664 N   0  0  0  0  0  0  0  0  0  0  0  0
   15.3500  -14.4409   19.6528 C   0  0  0  0  0  0  0  0  0  0  0  0
   15.0838  -14.3481   20.9657 N   0  0  0  0  0  0  0  0  0  0  0  0
   12.8425  -17.0931   24.2951 C   0  0  0  0  0  0  0  0  0  0  0  0
   13.6358  -17.9874   24.9733 O   0  0  0  0  0  0  0  0  0  0  0  0
   11.8244  -16.6081   24.8781 O   0  0  0  0  0  0  0  0  0  0  0  0
  1  2  1  0
  2  3  1  0
  3  4  1  0
  4  5  1  0
  5  7  1  0
  5  6  1  6
  7  9  1  0
  7  8  2  0
  9 10  1  0
 10 11  1  6
 11 12  1  0
 13 10  1  0
 13 14  2  0
 15 13  1  0
 16 15  1  0
 16 17  1  1
 18 17  1  0
 18 19  2  0
 20 19  1  0
 21 20  1  0
 22 21  2  0
 22 18  1  0
 23 16  1  0
 24 23  1  0
 25 23  2  0
M  END
$$$$
