MCH.pdb
     RDKit          3D

 25 25  0  0  1  0  0  0  0  0999 V2000
    8.5510  -11.8688   19.6883 C   0  0  0  0  0  0  0  0  0  0  0  0
    7.1825  -12.9585   19.1801 S   0  0  0  0  0  0  0  0  0  0  0  0
    7.9562  -14.6006   18.8749 C   0  0  0  0  0  0  0  0  0  0  0  0
    8.9653  -14.8522   19.9862 C   0  0  0  0  0  0  0  0  0  0  0  0
    8.5692  -16.0913   20.7879 C   0  0  2  0  0  0  0  0  0  0  0  0
    7.1077  -16.0901   20.9354 N   0  0  0  0  0  0  0  0  0  0  0  0
    9.0983  -15.8583   22.1628 C   0  0  0  0  0  0  0  0  0  0  0  0
   10.2805  -15.6326   22.3401 O   0  0  0  0  0  0  0  0  0  0  0  0
    8.1982  -15.8991   23.2680 N   0  0  0  0  0  0  0  0  0  0  0  0
    8.5936  -15.7389   24.6262 C   0  0  1  0  0  0  0  0  0  0  0  0
    7.5202  -15.0860   25.4865 C   0  0  0  0  0  0  0  0  0  0  0  0
    7.1644  -13.4443   24.8466 S   0  0  0  0  0  0  0  0  0  0  0  0
    8.9918  -16.9760   25.2981 C   0  0  0  0  0  0  0  0  0  0  0  0
    8.1832  -17.8822   25.5482 O   0  0  0  0  0  0  0  0  0  0  0  0
   10.3518  -17.1841   25.6903 N   0  0  0  0  0  0  0  0  0  0  0  0
   10.7224  -18.4429   26.3579 C   0  0  1  0  0  0  0  0  0  0  0  0
   12.1443  -18.7226   25.8561 C   0  0  0  0  0  0  0  0  0  0  0  0
   12.1852  -19.0340   24.4296 C   0  0  0  0  0  0  0  0  0  0  0  0
   11.1312  -19.5183   23.6558 C   0  0  0  0  0  0  0  0  0  0  0  0
   11.5997  -19.6903   22.3946 N   0  0  0  0  0  0  0  0  0  0  0  0
   12.8821  -19.3288   22.3904 C   0  0  0  0  0  0  0  0  0  0  0  0
   13.2329  -18.9323   23.6246 N   0  0  0  0  0  0  0  0  0  0  0  0
   10.6682  -18.2905   27.8103 C   0  0  0  0  0  0  0  0  0  0  0  0
   10.8149  -19.3523   28.6707 O   0  0  0  0  0  0  0  0  0  0  0  0
   10.4777  -17.1308   28.2904 O   0  0  0  0  0  0  0  0  0  0  0  0
  1  2  1  0
  2  3  1  0
  3  4  1  0
  4  5  1  0
  5  7  1  0
  5  6  1  1
  7  9  1  0
  7  8  2  0
  9 10  1  0
 10 11  1  1
 11 12  1  0
 13 10  1  0
 13 14  2  0
 15 13  1  0
 16 15  1  0
 16 17  1  1
 18 17  1  0
 18 19  2  0
 20 19  1  0
 21 20  1  0
 22 21  2  0
 22 18  1  0
 23 16  1  0
 24 23  1  0
 25 23  2  0
M  END
$$$$
