MCH.pdb
     RDKit          3D

 25 25  0  0  1  0  0  0  0  0999 V2000
    8.4517  -11.3773   20.1081 C   0  0  0  0  0  0  0  0  0  0  0  0
    7.3110  -12.4911   19.2268 S   0  0  0  0  0  0  0  0  0  0  0  0
    7.6468  -14.1683   19.9068 C   0  0  0  0  0  0  0  0  0  0  0  0
    8.3468  -13.9943   21.2470 C   0  0  0  0  0  0  0  0  0  0  0  0
    8.7492  -15.3556   21.8127 C   0  0  2  0  0  0  0  0  0  0  0  0
    7.5238  -16.1299   22.0510 N   0  0  0  0  0  0  0  0  0  0  0  0
    9.2996  -15.0727   23.1698 C   0  0  0  0  0  0  0  0  0  0  0  0
   10.3407  -14.4567   23.2984 O   0  0  0  0  0  0  0  0  0  0  0  0
    8.5860  -15.5304   24.3164 N   0  0  0  0  0  0  0  0  0  0  0  0
    8.9840  -15.2747   25.6591 C   0  0  1  0  0  0  0  0  0  0  0  0
    7.9425  -14.4963   26.4515 C   0  0  0  0  0  0  0  0  0  0  0  0
    8.6139  -14.0816   28.0666 S   0  0  0  0  0  0  0  0  0  0  0  0
    9.3150  -16.4684   26.4376 C   0  0  0  0  0  0  0  0  0  0  0  0
    8.4505  -17.2761   26.8089 O   0  0  0  0  0  0  0  0  0  0  0  0
   10.6712  -16.7480   26.7972 N   0  0  0  0  0  0  0  0  0  0  0  0
   10.9554  -17.8601   27.7192 C   0  0  1  0  0  0  0  0  0  0  0  0
   12.2666  -18.4533   27.1896 C   0  0  0  0  0  0  0  0  0  0  0  0
   12.1077  -19.0915   25.8854 C   0  0  0  0  0  0  0  0  0  0  0  0
   11.0736  -19.9435   25.4992 C   0  0  0  0  0  0  0  0  0  0  0  0
   11.3196  -20.3268   24.2216 N   0  0  0  0  0  0  0  0  0  0  0  0
   12.4518  -19.7387   23.8375 C   0  0  0  0  0  0  0  0  0  0  0  0
   12.9261  -18.9919   24.8478 N   0  0  0  0  0  0  0  0  0  0  0  0
   11.0832  -17.3717   29.0906 C   0  0  0  0  0  0  0  0  0  0  0  0
   11.2161  -18.2167   30.1665 O   0  0  0  0  0  0  0  0  0  0  0  0
   11.0700  -16.1181   29.2903 O   0  0  0  0  0  0  0  0  0  0  0  0
  1  2  1  0
  2  3  1  0
  3  4  1  0
  4  5  1  0
  5  7  1  0
  5  6  1  1
  7  9  1  0
  7  8  2  0
  9 10  1  0
 10 11  1  1
 11 12  1  0
 13 10  1  0
 13 14  2  0
 15 13  1  0
 16 15  1  0
 16 17  1  6
 18 17  1  0
 18 19  2  0
 20 19  1  0
 21 20  1  0
 22 21  2  0
 22 18  1  0
 23 16  1  0
 24 23  1  0
 25 23  2  0
M  END
$$$$
