MCH.pdb
     RDKit          3D

 25 25  0  0  1  0  0  0  0  0999 V2000
    8.7801  -19.1625   24.9642 C   0  0  0  0  0  0  0  0  0  0  0  0
    6.9829  -19.2436   25.2510 S   0  0  0  0  0  0  0  0  0  0  0  0
    6.2278  -18.2722   23.8818 C   0  0  0  0  0  0  0  0  0  0  0  0
    7.1813  -18.3220   22.6965 C   0  0  0  0  0  0  0  0  0  0  0  0
    7.2925  -16.9417   22.0505 C   0  0  2  0  0  0  0  0  0  0  0  0
    8.3228  -17.0097   21.0057 N   0  0  0  0  0  0  0  0  0  0  0  0
    7.8667  -16.0568   23.1049 C   0  0  0  0  0  0  0  0  0  0  0  0
    9.0481  -16.1192   23.3881 O   0  0  0  0  0  0  0  0  0  0  0  0
    7.0124  -15.1320   23.7745 N   0  0  0  0  0  0  0  0  0  0  0  0
    7.4254  -14.3009   24.8540 C   0  0  1  0  0  0  0  0  0  0  0  0
    6.4689  -13.1456   25.1165 C   0  0  0  0  0  0  0  0  0  0  0  0
    7.0912  -12.1593   26.4845 S   0  0  0  0  0  0  0  0  0  0  0  0
    7.6182  -14.9989   26.1253 C   0  0  0  0  0  0  0  0  0  0  0  0
    6.9641  -16.0068   26.4318 O   0  0  0  0  0  0  0  0  0  0  0  0
    8.5878  -14.5344   27.0691 N   0  0  0  0  0  0  0  0  0  0  0  0
    9.1767  -15.4889   28.0229 C   0  0  1  0  0  0  0  0  0  0  0  0
    9.9339  -16.4816   27.1324 C   0  0  0  0  0  0  0  0  0  0  0  0
   10.6612  -17.4863   27.9039 C   0  0  0  0  0  0  0  0  0  0  0  0
   10.9281  -17.4485   29.2719 C   0  0  0  0  0  0  0  0  0  0  0  0
   11.6429  -18.5603   29.5765 N   0  0  0  0  0  0  0  0  0  0  0  0
   11.8088  -19.2515   28.4496 C   0  0  0  0  0  0  0  0  0  0  0  0
   11.2133  -18.5978   27.4390 N   0  0  0  0  0  0  0  0  0  0  0  0
   10.0613  -14.8002   28.9603 C   0  0  0  0  0  0  0  0  0  0  0  0
   10.5721  -13.5487   28.7107 O   0  0  0  0  0  0  0  0  0  0  0  0
   10.3668  -15.3847   30.0450 O   0  0  0  0  0  0  0  0  0  0  0  0
  1  2  1  0
  2  3  1  0
  3  4  1  0
  4  5  1  0
  5  7  1  0
  5  6  1  6
  7  9  1  0
  7  8  2  0
  9 10  1  0
 10 11  1  1
 11 12  1  0
 13 10  1  0
 13 14  2  0
 15 13  1  0
 16 15  1  0
 16 17  1  6
 18 17  1  0
 18 19  2  0
 20 19  1  0
 21 20  1  0
 22 21  2  0
 22 18  1  0
 23 16  1  0
 24 23  1  0
 25 23  2  0
M  END
$$$$
