MCH.pdb
     RDKit          3D

 25 25  0  0  1  0  0  0  0  0999 V2000
    7.1562  -18.5858   20.3227 C   0  0  0  0  0  0  0  0  0  0  0  0
    7.1171  -17.5936   18.7954 S   0  0  0  0  0  0  0  0  0  0  0  0
    6.6871  -15.8871   19.3351 C   0  0  0  0  0  0  0  0  0  0  0  0
    7.5628  -15.5442   20.5318 C   0  0  0  0  0  0  0  0  0  0  0  0
    7.1490  -14.1956   21.1192 C   0  0  2  0  0  0  0  0  0  0  0  0
    7.5758  -13.1430   20.1876 N   0  0  0  0  0  0  0  0  0  0  0  0
    8.0021  -14.0127   22.3288 C   0  0  0  0  0  0  0  0  0  0  0  0
    9.1796  -13.7282   22.2174 O   0  0  0  0  0  0  0  0  0  0  0  0
    7.4176  -14.1714   23.6197 N   0  0  0  0  0  0  0  0  0  0  0  0
    8.1649  -14.2869   24.8259 C   0  0  1  0  0  0  0  0  0  0  0  0
    7.4903  -13.6112   26.0121 C   0  0  0  0  0  0  0  0  0  0  0  0
    5.7361  -13.4217   25.6680 S   0  0  0  0  0  0  0  0  0  0  0  0
    8.4705  -15.6600   25.2280 C   0  0  0  0  0  0  0  0  0  0  0  0
    7.6008  -16.5423   25.2809 O   0  0  0  0  0  0  0  0  0  0  0  0
    9.8069  -16.0351   25.5744 N   0  0  0  0  0  0  0  0  0  0  0  0
   10.0818  -17.4243   25.9770 C   0  0  1  0  0  0  0  0  0  0  0  0
   11.4334  -17.7377   25.3236 C   0  0  0  0  0  0  0  0  0  0  0  0
   11.3785  -17.6811   23.8651 C   0  0  0  0  0  0  0  0  0  0  0  0
   10.7592  -18.6029   23.0219 C   0  0  0  0  0  0  0  0  0  0  0  0
   10.9626  -18.1868   21.7470 N   0  0  0  0  0  0  0  0  0  0  0  0
   11.6735  -17.0612   21.8012 C   0  0  0  0  0  0  0  0  0  0  0  0
   11.9236  -16.7585   23.0854 N   0  0  0  0  0  0  0  0  0  0  0  0
   10.1316  -17.5378   27.4331 C   0  0  0  0  0  0  0  0  0  0  0  0
    9.9600  -16.4570   28.2648 O   0  0  0  0  0  0  0  0  0  0  0  0
   10.3419  -18.6807   27.9442 O   0  0  0  0  0  0  0  0  0  0  0  0
  1  2  1  0
  2  3  1  0
  3  4  1  0
  4  5  1  0
  5  7  1  0
  5  6  1  6
  7  9  1  0
  7  8  2  0
  9 10  1  0
 10 11  1  1
 11 12  1  0
 13 10  1  0
 13 14  2  0
 15 13  1  0
 16 15  1  0
 16 17  1  6
 18 17  1  0
 18 19  2  0
 20 19  1  0
 21 20  1  0
 22 21  2  0
 22 18  1  0
 23 16  1  0
 24 23  1  0
 25 23  2  0
M  END
$$$$
