MCH.pdb
     RDKit          3D

 25 25  0  0  1  0  0  0  0  0999 V2000
    7.3651  -11.1199   25.7694 C   0  0  0  0  0  0  0  0  0  0  0  0
    6.2410  -12.0226   26.8830 S   0  0  0  0  0  0  0  0  0  0  0  0
    5.7409  -13.5296   25.9518 C   0  0  0  0  0  0  0  0  0  0  0  0
    7.0041  -14.3112   25.6205 C   0  0  0  0  0  0  0  0  0  0  0  0
    6.6631  -15.5224   24.7534 C   0  0  2  0  0  0  0  0  0  0  0  0
    5.8689  -16.4542   25.5651 N   0  0  0  0  0  0  0  0  0  0  0  0
    7.9608  -16.2196   24.5202 C   0  0  0  0  0  0  0  0  0  0  0  0
    8.2851  -17.1684   25.2090 O   0  0  0  0  0  0  0  0  0  0  0  0
    8.8154  -15.7618   23.4746 N   0  0  0  0  0  0  0  0  0  0  0  0
    9.9972  -16.4364   23.0562 C   0  0  1  0  0  0  0  0  0  0  0  0
   10.3282  -16.2040   21.5882 C   0  0  0  0  0  0  0  0  0  0  0  0
    9.0064  -16.8716   20.5691 S   0  0  0  0  0  0  0  0  0  0  0  0
   11.1963  -16.1060   23.8266 C   0  0  0  0  0  0  0  0  0  0  0  0
   11.4741  -14.9416   24.1500 O   0  0  0  0  0  0  0  0  0  0  0  0
   12.0994  -17.1350   24.2417 N   0  0  0  0  0  0  0  0  0  0  0  0
   12.5601  -17.1657   25.6397 C   0  0  1  0  0  0  0  0  0  0  0  0
   11.2778  -17.4046   26.4462 C   0  0  0  0  0  0  0  0  0  0  0  0
   10.8541  -16.2216   27.1907 C   0  0  0  0  0  0  0  0  0  0  0  0
   11.4624  -14.9670   27.1707 C   0  0  0  0  0  0  0  0  0  0  0  0
   10.7673  -14.1658   28.0161 N   0  0  0  0  0  0  0  0  0  0  0  0
    9.7767  -14.8917   28.5330 C   0  0  0  0  0  0  0  0  0  0  0  0
    9.8329  -16.1359   28.0310 N   0  0  0  0  0  0  0  0  0  0  0  0
   13.5427  -18.2297   25.8345 C   0  0  0  0  0  0  0  0  0  0  0  0
   14.6187  -18.0962   26.6791 O   0  0  0  0  0  0  0  0  0  0  0  0
   13.3921  -19.3168   25.1964 O   0  0  0  0  0  0  0  0  0  0  0  0
  1  2  1  0
  2  3  1  0
  3  4  1  0
  4  5  1  0
  5  7  1  0
  5  6  1  1
  7  9  1  0
  7  8  2  0
  9 10  1  0
 10 11  1  6
 11 12  1  0
 13 10  1  0
 13 14  2  0
 15 13  1  0
 16 15  1  0
 16 17  1  1
 18 17  1  0
 18 19  2  0
 20 19  1  0
 21 20  1  0
 22 21  2  0
 22 18  1  0
 23 16  1  0
 24 23  1  0
 25 23  2  0
M  END
$$$$
