MCH.pdb
     RDKit          3D

 25 25  0  0  1  0  0  0  0  0999 V2000
    7.2398  -10.8740   25.2685 C   0  0  0  0  0  0  0  0  0  0  0  0
    6.3897  -11.5967   26.7086 S   0  0  0  0  0  0  0  0  0  0  0  0
    5.7932  -13.2442   26.1447 C   0  0  0  0  0  0  0  0  0  0  0  0
    7.0062  -14.0519   25.7057 C   0  0  0  0  0  0  0  0  0  0  0  0
    6.5634  -15.3889   25.1129 C   0  0  2  0  0  0  0  0  0  0  0  0
    6.1086  -16.2472   26.2149 N   0  0  0  0  0  0  0  0  0  0  0  0
    7.8121  -16.0315   24.6104 C   0  0  0  0  0  0  0  0  0  0  0  0
    8.4392  -16.7990   25.3157 O   0  0  0  0  0  0  0  0  0  0  0  0
    8.2593  -15.7375   23.2887 N   0  0  0  0  0  0  0  0  0  0  0  0
    9.4492  -16.2655   22.7124 C   0  0  1  0  0  0  0  0  0  0  0  0
    9.6069  -15.9104   21.2401 C   0  0  0  0  0  0  0  0  0  0  0  0
   11.0209  -16.7917   20.5655 S   0  0  0  0  0  0  0  0  0  0  0  0
   10.6851  -15.8678   23.3870 C   0  0  0  0  0  0  0  0  0  0  0  0
   11.1336  -14.7138   23.3184 O   0  0  0  0  0  0  0  0  0  0  0  0
   11.4252  -16.8139   24.1641 N   0  0  0  0  0  0  0  0  0  0  0  0
   12.6486  -16.3751   24.8557 C   0  0  1  0  0  0  0  0  0  0  0  0
   12.5282  -16.9994   26.2513 C   0  0  0  0  0  0  0  0  0  0  0  0
   11.4837  -16.3736   27.0581 C   0  0  0  0  0  0  0  0  0  0  0  0
   10.9424  -15.1020   26.8728 C   0  0  0  0  0  0  0  0  0  0  0  0
   10.0208  -14.9074   27.8487 N   0  0  0  0  0  0  0  0  0  0  0  0
    9.9944  -16.0072   28.6004 C   0  0  0  0  0  0  0  0  0  0  0  0
   10.8818  -16.8925   28.1186 N   0  0  0  0  0  0  0  0  0  0  0  0
   13.8371  -16.8387   24.1429 C   0  0  0  0  0  0  0  0  0  0  0  0
   13.7643  -17.6277   23.0198 O   0  0  0  0  0  0  0  0  0  0  0  0
   14.9781  -16.4970   24.5822 O   0  0  0  0  0  0  0  0  0  0  0  0
  1  2  1  0
  2  3  1  0
  3  4  1  0
  4  5  1  0
  5  7  1  0
  5  6  1  1
  7  9  1  0
  7  8  2  0
  9 10  1  0
 10 11  1  6
 11 12  1  0
 13 10  1  0
 13 14  2  0
 15 13  1  0
 16 15  1  0
 16 17  1  1
 18 17  1  0
 18 19  2  0
 20 19  1  0
 21 20  1  0
 22 21  2  0
 22 18  1  0
 23 16  1  0
 24 23  1  0
 25 23  2  0
M  END
$$$$
