MCH.pdb
     RDKit          3D

 25 25  0  0  1  0  0  0  0  0999 V2000
    8.0863  -12.6110   19.2890 C   0  0  0  0  0  0  0  0  0  0  0  0
    6.6549  -13.6944   19.5988 S   0  0  0  0  0  0  0  0  0  0  0  0
    7.2257  -15.3899   19.1659 C   0  0  0  0  0  0  0  0  0  0  0  0
    8.0807  -15.9000   20.3172 C   0  0  0  0  0  0  0  0  0  0  0  0
    9.5000  -15.3447   20.2068 C   0  0  2  0  0  0  0  0  0  0  0  0
   10.1724  -16.0314   19.0959 N   0  0  0  0  0  0  0  0  0  0  0  0
   10.2042  -15.8124   21.4355 C   0  0  0  0  0  0  0  0  0  0  0  0
   11.1292  -16.5985   21.3563 O   0  0  0  0  0  0  0  0  0  0  0  0
    9.7815  -15.3217   22.7059 N   0  0  0  0  0  0  0  0  0  0  0  0
   10.3757  -15.6958   23.9443 C   0  0  1  0  0  0  0  0  0  0  0  0
    9.7843  -14.9561   25.1367 C   0  0  0  0  0  0  0  0  0  0  0  0
    7.9920  -14.9459   24.9989 S   0  0  0  0  0  0  0  0  0  0  0  0
   10.3104  -17.1256   24.2478 C   0  0  0  0  0  0  0  0  0  0  0  0
    9.2866  -17.7969   24.0510 O   0  0  0  0  0  0  0  0  0  0  0  0
   11.4475  -17.8064   24.7864 N   0  0  0  0  0  0  0  0  0  0  0  0
   11.3228  -19.2230   25.1676 C   0  0  1  0  0  0  0  0  0  0  0  0
   12.4549  -19.9139   24.3975 C   0  0  0  0  0  0  0  0  0  0  0  0
   12.2336  -19.9134   22.9537 C   0  0  0  0  0  0  0  0  0  0  0  0
   11.1349  -20.4491   22.2827 C   0  0  0  0  0  0  0  0  0  0  0  0
   11.3366  -20.2558   20.9554 N   0  0  0  0  0  0  0  0  0  0  0  0
   12.5043  -19.6299   20.8142 C   0  0  0  0  0  0  0  0  0  0  0  0
   13.0446  -19.4248   22.0264 N   0  0  0  0  0  0  0  0  0  0  0  0
   11.4606  -19.3808   26.6138 C   0  0  0  0  0  0  0  0  0  0  0  0
   11.6559  -18.3140   27.4582 O   0  0  0  0  0  0  0  0  0  0  0  0
   11.3972  -20.5502   27.1038 O   0  0  0  0  0  0  0  0  0  0  0  0
  1  2  1  0
  2  3  1  0
  3  4  1  0
  4  5  1  0
  5  7  1  0
  5  6  1  6
  7  9  1  0
  7  8  2  0
  9 10  1  0
 10 11  1  1
 11 12  1  0
 13 10  1  0
 13 14  2  0
 15 13  1  0
 16 15  1  0
 16 17  1  6
 18 17  1  0
 18 19  2  0
 20 19  1  0
 21 20  1  0
 22 21  2  0
 22 18  1  0
 23 16  1  0
 24 23  1  0
 25 23  2  0
M  END
$$$$
