MCH.pdb
     RDKit          3D

 25 25  0  0  1  0  0  0  0  0999 V2000
    7.6091  -12.2098   20.2766 C   0  0  0  0  0  0  0  0  0  0  0  0
    8.0230  -11.9189   18.5265 S   0  0  0  0  0  0  0  0  0  0  0  0
    8.6340  -13.5367   17.8960 C   0  0  0  0  0  0  0  0  0  0  0  0
    8.6422  -14.5159   19.0612 C   0  0  0  0  0  0  0  0  0  0  0  0
    9.1472  -15.8820   18.5988 C   0  0  2  0  0  0  0  0  0  0  0  0
    8.3054  -16.3234   17.4788 N   0  0  0  0  0  0  0  0  0  0  0  0
    8.8308  -16.8191   19.7151 C   0  0  0  0  0  0  0  0  0  0  0  0
    7.7543  -17.3839   19.7615 O   0  0  0  0  0  0  0  0  0  0  0  0
    9.8097  -17.0483   20.7263 N   0  0  0  0  0  0  0  0  0  0  0  0
    9.6049  -17.8827   21.8614 C   0  0  1  0  0  0  0  0  0  0  0  0
   10.3280  -19.2187   21.7572 C   0  0  0  0  0  0  0  0  0  0  0  0
   12.0197  -18.9373   21.2185 S   0  0  0  0  0  0  0  0  0  0  0  0
    9.9885  -17.2829   23.1396 C   0  0  0  0  0  0  0  0  0  0  0  0
   10.9440  -16.4992   23.2417 O   0  0  0  0  0  0  0  0  0  0  0  0
    9.2571  -17.5841   24.3317 N   0  0  0  0  0  0  0  0  0  0  0  0
    9.7156  -17.0282   25.6156 C   0  0  1  0  0  0  0  0  0  0  0  0
    8.4167  -16.6715   26.3487 C   0  0  0  0  0  0  0  0  0  0  0  0
    7.8503  -15.4015   25.9016 C   0  0  0  0  0  0  0  0  0  0  0  0
    8.4147  -14.5201   24.9803 C   0  0  0  0  0  0  0  0  0  0  0  0
    7.5772  -13.4590   24.8687 N   0  0  0  0  0  0  0  0  0  0  0  0
    6.5447  -13.6757   25.6825 C   0  0  0  0  0  0  0  0  0  0  0  0
    6.7139  -14.8528   26.3064 N   0  0  0  0  0  0  0  0  0  0  0  0
   10.5117  -18.0115   26.3470 C   0  0  0  0  0  0  0  0  0  0  0  0
   11.2462  -17.6855   27.4622 O   0  0  0  0  0  0  0  0  0  0  0  0
   10.5221  -19.2112   25.9322 O   0  0  0  0  0  0  0  0  0  0  0  0
  1  2  1  0
  2  3  1  0
  3  4  1  0
  4  5  1  0
  5  7  1  0
  5  6  1  6
  7  9  1  0
  7  8  2  0
  9 10  1  0
 10 11  1  6
 11 12  1  0
 13 10  1  0
 13 14  2  0
 15 13  1  0
 16 15  1  0
 16 17  1  1
 18 17  1  0
 18 19  2  0
 20 19  1  0
 21 20  1  0
 22 21  2  0
 22 18  1  0
 23 16  1  0
 24 23  1  0
 25 23  2  0
M  END
$$$$
