MCH.pdb
     RDKit          3D

 25 25  0  0  1  0  0  0  0  0999 V2000
    8.8792  -11.6728   19.0583 C   0  0  0  0  0  0  0  0  0  0  0  0
    7.2559  -12.3478   19.5356 S   0  0  0  0  0  0  0  0  0  0  0  0
    7.4269  -14.1747   19.3891 C   0  0  0  0  0  0  0  0  0  0  0  0
    8.4546  -14.6286   20.4158 C   0  0  0  0  0  0  0  0  0  0  0  0
    7.7769  -15.4446   21.5158 C   0  0  2  0  0  0  0  0  0  0  0  0
    6.3799  -15.0014   21.6162 N   0  0  0  0  0  0  0  0  0  0  0  0
    8.4170  -15.0017   22.7880 C   0  0  0  0  0  0  0  0  0  0  0  0
    9.6211  -14.8401   22.8504 O   0  0  0  0  0  0  0  0  0  0  0  0
    7.5974  -14.7655   23.9307 N   0  0  0  0  0  0  0  0  0  0  0  0
    8.0867  -14.7087   25.2664 C   0  0  1  0  0  0  0  0  0  0  0  0
    7.2359  -13.8329   26.1761 C   0  0  0  0  0  0  0  0  0  0  0  0
    5.4973  -14.1650   25.8628 S   0  0  0  0  0  0  0  0  0  0  0  0
    8.2243  -16.0084   25.9239 C   0  0  0  0  0  0  0  0  0  0  0  0
    7.3010  -16.8355   25.9529 O   0  0  0  0  0  0  0  0  0  0  0  0
    9.4519  -16.3734   26.5615 N   0  0  0  0  0  0  0  0  0  0  0  0
    9.6493  -17.7661   26.9963 C   0  0  1  0  0  0  0  0  0  0  0  0
   10.4315  -18.4060   25.8428 C   0  0  0  0  0  0  0  0  0  0  0  0
   10.7868  -19.7975   26.1093 C   0  0  0  0  0  0  0  0  0  0  0  0
   10.5516  -20.5024   27.2891 C   0  0  0  0  0  0  0  0  0  0  0  0
   11.0560  -21.7505   27.1232 N   0  0  0  0  0  0  0  0  0  0  0  0
   11.5774  -21.8129   25.8987 C   0  0  0  0  0  0  0  0  0  0  0  0
   11.4128  -20.6283   25.2880 N   0  0  0  0  0  0  0  0  0  0  0  0
   10.3864  -17.8120   28.2573 C   0  0  0  0  0  0  0  0  0  0  0  0
   10.2369  -18.8342   29.1639 O   0  0  0  0  0  0  0  0  0  0  0  0
   11.1943  -16.8689   28.5207 O   0  0  0  0  0  0  0  0  0  0  0  0
  1  2  1  0
  2  3  1  0
  3  4  1  0
  4  5  1  0
  5  7  1  0
  5  6  1  1
  7  9  1  0
  7  8  2  0
  9 10  1  0
 10 11  1  1
 11 12  1  0
 13 10  1  0
 13 14  2  0
 15 13  1  0
 16 15  1  0
 16 17  1  6
 18 17  1  0
 18 19  2  0
 20 19  1  0
 21 20  1  0
 22 21  2  0
 22 18  1  0
 23 16  1  0
 24 23  1  0
 25 23  2  0
M  END
$$$$
