TQV.pdb
     RDKit          3D

 24 23  0  0  1  0  0  0  0  0999 V2000
   27.7531  -18.7428  -18.6459 C   0  0  0  0  0  0  0  0  0  0  0  0
   27.1480  -18.3705  -17.3097 C   0  0  1  0  0  0  0  0  0  0  0  0
   27.3182  -17.0277  -17.0166 O   0  0  0  0  0  0  0  0  0  0  0  0
   25.6920  -18.7990  -17.2454 C   0  0  2  0  0  0  0  0  0  0  0  0
   24.9741  -18.0022  -18.2099 N   0  0  0  0  0  0  0  0  0  0  0  0
   25.1230  -18.5771  -15.8915 C   0  0  0  0  0  0  0  0  0  0  0  0
   24.7293  -17.4428  -15.5026 O   0  0  0  0  0  0  0  0  0  0  0  0
   20.3395  -19.5722  -13.6564 N   0  0  0  0  0  0  0  0  0  0  0  0
   20.9506  -20.7849  -14.0480 C   0  0  0  0  0  0  0  0  0  0  0  0
   20.2670  -21.7894  -14.3133 O   0  0  0  0  0  0  0  0  0  0  0  0
   22.4526  -20.7824  -14.1218 C   0  0  0  0  0  0  0  0  0  0  0  0
   23.0088  -19.4856  -13.6122 C   0  0  0  0  0  0  0  0  0  0  0  0
   24.4933  -19.4975  -13.6192 C   0  0  2  0  0  0  0  0  0  0  0  0
   25.0068  -19.6463  -14.9922 N   0  0  0  0  0  0  0  0  0  0  0  0
   25.1031  -20.5287  -12.7491 C   0  0  0  0  0  0  0  0  0  0  0  0
   25.2666  -21.7338  -13.0434 O   0  0  0  0  0  0  0  0  0  0  0  0
   27.4586  -19.2975   -9.4577 C   0  0  0  0  0  0  0  0  0  0  0  0
   27.5159  -20.6682  -10.1258 C   0  0  2  0  0  0  0  0  0  0  0  0
   28.3884  -20.5605  -11.3610 C   0  0  0  0  0  0  0  0  0  0  0  0
   26.1264  -21.1243  -10.5230 C   0  0  2  0  0  0  0  0  0  0  0  0
   25.5612  -20.1584  -11.4446 N   0  0  0  0  0  0  0  0  0  0  0  0
   25.3010  -21.1784   -9.2925 C   0  0  0  0  0  0  0  0  0  0  0  0
   24.4017  -20.3049   -9.1000 O   0  0  0  0  0  0  0  0  0  0  0  0
   25.4482  -22.1374   -8.3192 O   0  0  0  0  0  0  0  0  0  0  0  0
  2  1  1  6
  3  2  1  0
  4  6  1  0
  4  2  1  0
  4  5  1  6
  6  7  2  0
  8  9  1  0
  9 11  1  0
 10  9  2  0
 11 12  1  0
 13 12  1  6
 14 13  1  0
 14  6  1  0
 15 21  1  0
 15 13  1  0
 16 15  2  0
 18 17  1  6
 19 18  1  0
 20 18  1  0
 20 21  1  6
 22 20  1  0
 22 24  1  0
 23 22  2  0
M  END
$$$$
