TQV.pdb
     RDKit          3D

 24 23  0  0  1  0  0  0  0  0999 V2000
   22.8220  -12.8720  -18.9030 C   0  0  0  0  0  0  0  0  0  0  0  0
   22.0068  -11.6141  -18.6952 C   0  0  1  0  0  0  0  0  0  0  0  0
   21.2956  -11.2606  -19.8297 O   0  0  0  0  0  0  0  0  0  0  0  0
   21.1175  -11.7509  -17.4712 C   0  0  2  0  0  0  0  0  0  0  0  0
   20.1819  -12.8140  -17.7454 N   0  0  0  0  0  0  0  0  0  0  0  0
   20.3774  -10.4924  -17.1980 C   0  0  0  0  0  0  0  0  0  0  0  0
   19.3291  -10.1762  -17.8257 O   0  0  0  0  0  0  0  0  0  0  0  0
   16.1784   -8.7920  -14.9273 N   0  0  0  0  0  0  0  0  0  0  0  0
   16.6169   -7.4487  -14.9532 C   0  0  0  0  0  0  0  0  0  0  0  0
   15.8265   -6.5133  -14.7358 O   0  0  0  0  0  0  0  0  0  0  0  0
   18.0734   -7.2274  -15.2548 C   0  0  0  0  0  0  0  0  0  0  0  0
   18.7711   -8.5329  -15.4992 C   0  0  0  0  0  0  0  0  0  0  0  0
   20.1805   -8.3198  -15.9142 C   0  0  2  0  0  0  0  0  0  0  0  0
   20.8355   -9.6052  -16.2140 N   0  0  0  0  0  0  0  0  0  0  0  0
   20.9996   -7.5631  -14.9402 C   0  0  0  0  0  0  0  0  0  0  0  0
   21.3325   -7.9558  -13.7998 O   0  0  0  0  0  0  0  0  0  0  0  0
   22.6282   -3.8887  -16.3294 C   0  0  0  0  0  0  0  0  0  0  0  0
   23.3756   -4.7744  -15.3366 C   0  0  2  0  0  0  0  0  0  0  0  0
   24.2151   -5.7648  -16.1195 C   0  0  0  0  0  0  0  0  0  0  0  0
   22.3987   -5.5231  -14.4524 C   0  0  2  0  0  0  0  0  0  0  0  0
   21.4752   -6.2599  -15.2925 N   0  0  0  0  0  0  0  0  0  0  0  0
   21.6527   -4.5200  -13.6551 C   0  0  0  0  0  0  0  0  0  0  0  0
   20.4474   -4.2548  -13.9479 O   0  0  0  0  0  0  0  0  0  0  0  0
   22.1934   -3.8391  -12.5909 O   0  0  0  0  0  0  0  0  0  0  0  0
  2  1  1  6
  3  2  1  0
  4  6  1  0
  4  2  1  0
  4  5  1  6
  6  7  2  0
  8  9  1  0
  9 11  1  0
 10  9  2  0
 11 12  1  0
 13 12  1  1
 14 13  1  0
 14  6  1  0
 15 21  1  0
 15 13  1  0
 16 15  2  0
 18 17  1  6
 19 18  1  0
 20 18  1  0
 20 21  1  6
 22 20  1  0
 22 24  1  0
 23 22  2  0
M  END
$$$$
