TQV.pdb
     RDKit          3D

 24 23  0  0  1  0  0  0  0  0999 V2000
   26.9112  -17.8302  -14.7643 C   0  0  0  0  0  0  0  0  0  0  0  0
   27.5924  -18.8234  -15.6806 C   0  0  1  0  0  0  0  0  0  0  0  0
   28.4348  -18.2027  -16.5878 O   0  0  0  0  0  0  0  0  0  0  0  0
   28.2998  -19.8973  -14.8718 C   0  0  2  0  0  0  0  0  0  0  0  0
   29.0916  -20.6704  -15.7970 N   0  0  0  0  0  0  0  0  0  0  0  0
   27.3269  -20.7844  -14.1844 C   0  0  0  0  0  0  0  0  0  0  0  0
   27.6193  -21.9596  -13.8291 O   0  0  0  0  0  0  0  0  0  0  0  0
   24.9458  -21.4655   -9.2581 N   0  0  0  0  0  0  0  0  0  0  0  0
   25.7996  -20.4148   -9.6638 C   0  0  0  0  0  0  0  0  0  0  0  0
   26.2041  -19.5678   -8.8479 O   0  0  0  0  0  0  0  0  0  0  0  0
   26.1804  -20.3878  -11.1183 C   0  0  0  0  0  0  0  0  0  0  0  0
   25.5671  -21.5443  -11.8511 C   0  0  0  0  0  0  0  0  0  0  0  0
   25.0324  -21.1222  -13.1702 C   0  0  2  0  0  0  0  0  0  0  0  0
   26.0307  -20.3277  -13.9072 N   0  0  0  0  0  0  0  0  0  0  0  0
   23.7562  -20.3743  -13.1047 C   0  0  0  0  0  0  0  0  0  0  0  0
   23.5523  -19.3272  -12.4507 O   0  0  0  0  0  0  0  0  0  0  0  0
   20.3201  -19.2177  -16.3271 C   0  0  0  0  0  0  0  0  0  0  0  0
   21.4070  -20.1485  -15.7972 C   0  0  2  0  0  0  0  0  0  0  0  0
   21.0004  -21.5773  -16.1004 C   0  0  0  0  0  0  0  0  0  0  0  0
   21.5733  -19.9739  -14.3011 C   0  0  2  0  0  0  0  0  0  0  0  0
   22.6268  -20.8564  -13.8400 N   0  0  0  0  0  0  0  0  0  0  0  0
   20.2919  -20.3519  -13.6582 C   0  0  0  0  0  0  0  0  0  0  0  0
   20.1847  -21.4782  -13.0847 O   0  0  0  0  0  0  0  0  0  0  0  0
   19.1814  -19.5425  -13.6409 O   0  0  0  0  0  0  0  0  0  0  0  0
  2  1  1  1
  3  2  1  0
  4  6  1  0
  4  2  1  0
  4  5  1  6
  6  7  2  0
  8  9  1  0
  9 11  1  0
 10  9  2  0
 11 12  1  0
 13 12  1  1
 14 13  1  0
 14  6  1  0
 15 21  1  0
 15 13  1  0
 16 15  2  0
 18 17  1  1
 19 18  1  0
 20 18  1  0
 20 21  1  1
 22 20  1  0
 22 24  1  0
 23 22  2  0
M  END
$$$$
