TQV.pdb
     RDKit          3D

 24 23  0  0  1  0  0  0  0  0999 V2000
   13.8499  -10.3007  -15.3420 C   0  0  0  0  0  0  0  0  0  0  0  0
   15.3353  -10.1713  -15.0829 C   0  0  1  0  0  0  0  0  0  0  0  0
   16.0047  -11.3677  -15.2794 O   0  0  0  0  0  0  0  0  0  0  0  0
   15.9229   -9.0355  -15.9029 C   0  0  2  0  0  0  0  0  0  0  0  0
   15.7841   -9.4009  -17.2914 N   0  0  0  0  0  0  0  0  0  0  0  0
   17.3579   -8.8246  -15.5829 C   0  0  0  0  0  0  0  0  0  0  0  0
   17.7518   -8.5066  -14.4268 O   0  0  0  0  0  0  0  0  0  0  0  0
   22.1348  -10.2992  -19.3752 N   0  0  0  0  0  0  0  0  0  0  0  0
   22.8536   -9.6122  -18.3708 C   0  0  0  0  0  0  0  0  0  0  0  0
   24.0916   -9.5077  -18.4279 O   0  0  0  0  0  0  0  0  0  0  0  0
   22.0402   -9.0266  -17.2497 C   0  0  0  0  0  0  0  0  0  0  0  0
   20.5834   -9.3364  -17.4303 C   0  0  0  0  0  0  0  0  0  0  0  0
   19.7649   -8.7153  -16.3588 C   0  0  2  0  0  0  0  0  0  0  0  0
   18.3318   -8.9770  -16.5798 N   0  0  0  0  0  0  0  0  0  0  0  0
   19.9807   -7.2606  -16.1864 C   0  0  0  0  0  0  0  0  0  0  0  0
   19.4771   -6.3559  -16.8889 O   0  0  0  0  0  0  0  0  0  0  0  0
   21.7351   -5.9724  -12.5763 C   0  0  0  0  0  0  0  0  0  0  0  0
   20.9006   -5.0580  -13.4685 C   0  0  2  0  0  0  0  0  0  0  0  0
   19.4389   -5.2523  -13.1160 C   0  0  0  0  0  0  0  0  0  0  0  0
   21.1206   -5.3959  -14.9294 C   0  0  2  0  0  0  0  0  0  0  0  0
   20.8354   -6.8024  -15.1337 N   0  0  0  0  0  0  0  0  0  0  0  0
   22.5442   -5.1270  -15.2445 C   0  0  0  0  0  0  0  0  0  0  0  0
   23.3299   -6.0950  -15.4781 O   0  0  0  0  0  0  0  0  0  0  0  0
   23.0855   -3.8651  -15.3025 O   0  0  0  0  0  0  0  0  0  0  0  0
  2  1  1  6
  3  2  1  0
  4  6  1  0
  4  2  1  0
  4  5  1  6
  6  7  2  0
  8  9  1  0
  9 11  1  0
 10  9  2  0
 11 12  1  0
 13 12  1  6
 14 13  1  0
 14  6  1  0
 15 21  1  0
 15 13  1  0
 16 15  2  0
 18 17  1  1
 19 18  1  0
 20 18  1  0
 20 21  1  1
 22 20  1  0
 22 24  1  0
 23 22  2  0
M  END
$$$$
