TQV.pdb
     RDKit          3D

 24 23  0  0  1  0  0  0  0  0999 V2000
   15.6072   -9.1552  -15.3359 C   0  0  0  0  0  0  0  0  0  0  0  0
   15.7941  -10.6253  -15.0291 C   0  0  1  0  0  0  0  0  0  0  0  0
   14.6088  -11.3340  -15.1327 O   0  0  0  0  0  0  0  0  0  0  0  0
   16.8996  -11.2134  -15.8891 C   0  0  2  0  0  0  0  0  0  0  0  0
   16.9983  -12.6124  -15.5519 N   0  0  0  0  0  0  0  0  0  0  0  0
   18.1998  -10.5440  -15.6295 C   0  0  0  0  0  0  0  0  0  0  0  0
   18.9491  -10.8745  -14.6691 O   0  0  0  0  0  0  0  0  0  0  0  0
   21.9290   -8.9761  -20.0319 N   0  0  0  0  0  0  0  0  0  0  0  0
   21.6243  -10.2528  -19.5077 C   0  0  0  0  0  0  0  0  0  0  0  0
   21.9209  -11.2876  -20.1304 O   0  0  0  0  0  0  0  0  0  0  0  0
   20.9312  -10.2786  -18.1733 C   0  0  0  0  0  0  0  0  0  0  0  0
   20.6410   -8.8860  -17.6967 C   0  0  0  0  0  0  0  0  0  0  0  0
   19.9764   -8.8997  -16.3693 C   0  0  2  0  0  0  0  0  0  0  0  0
   18.6364   -9.5053  -16.4636 N   0  0  0  0  0  0  0  0  0  0  0  0
   19.8744   -7.5729  -15.7200 C   0  0  0  0  0  0  0  0  0  0  0  0
   18.9887   -6.7161  -15.9369 O   0  0  0  0  0  0  0  0  0  0  0  0
   22.2940   -6.9866  -12.3291 C   0  0  0  0  0  0  0  0  0  0  0  0
   20.9899   -6.2241  -12.5452 C   0  0  2  0  0  0  0  0  0  0  0  0
   19.8490   -7.0716  -12.0173 C   0  0  0  0  0  0  0  0  0  0  0  0
   20.7759   -5.9446  -14.0192 C   0  0  2  0  0  0  0  0  0  0  0  0
   20.8564   -7.1939  -14.7501 N   0  0  0  0  0  0  0  0  0  0  0  0
   21.8587   -5.0363  -14.4674 C   0  0  0  0  0  0  0  0  0  0  0  0
   22.8238   -5.4974  -15.1492 O   0  0  0  0  0  0  0  0  0  0  0  0
   21.8888   -3.6914  -14.1864 O   0  0  0  0  0  0  0  0  0  0  0  0
  2  1  1  6
  3  2  1  0
  4  6  1  0
  4  2  1  0
  4  5  1  1
  6  7  2  0
  8  9  1  0
  9 11  1  0
 10  9  2  0
 11 12  1  0
 13 12  1  6
 14 13  1  0
 14  6  1  0
 15 21  1  0
 15 13  1  0
 16 15  2  0
 18 17  1  6
 19 18  1  0
 20 18  1  0
 20 21  1  6
 22 20  1  0
 22 24  1  0
 23 22  2  0
M  END
$$$$
