TQV.pdb
     RDKit          3D

 24 23  0  0  1  0  0  0  0  0999 V2000
   16.7816  -11.0602  -19.3655 C   0  0  0  0  0  0  0  0  0  0  0  0
   16.7936  -12.3820  -18.6286 C   0  0  1  0  0  0  0  0  0  0  0  0
   16.5477  -13.4517  -19.4732 O   0  0  0  0  0  0  0  0  0  0  0  0
   18.0854  -12.5448  -17.8461 C   0  0  2  0  0  0  0  0  0  0  0  0
   18.0298  -13.8343  -17.2021 N   0  0  0  0  0  0  0  0  0  0  0  0
   18.2335  -11.4804  -16.8207 C   0  0  0  0  0  0  0  0  0  0  0  0
   17.6952  -11.5608  -15.6820 O   0  0  0  0  0  0  0  0  0  0  0  0
   22.5396   -9.8115  -13.7472 N   0  0  0  0  0  0  0  0  0  0  0  0
   21.7762   -8.6682  -13.4193 C   0  0  0  0  0  0  0  0  0  0  0  0
   22.0851   -7.9479  -12.4536 O   0  0  0  0  0  0  0  0  0  0  0  0
   20.5885   -8.3841  -14.2969 C   0  0  0  0  0  0  0  0  0  0  0  0
   20.3589   -9.5088  -15.2629 C   0  0  0  0  0  0  0  0  0  0  0  0
   19.1874   -9.2386  -16.1339 C   0  0  2  0  0  0  0  0  0  0  0  0
   18.9918  -10.3346  -17.0991 N   0  0  0  0  0  0  0  0  0  0  0  0
   19.2446   -7.9477  -16.8569 C   0  0  0  0  0  0  0  0  0  0  0  0
   19.9127   -7.7137  -17.8887 O   0  0  0  0  0  0  0  0  0  0  0  0
   16.2707   -5.1549  -15.9719 C   0  0  0  0  0  0  0  0  0  0  0  0
   17.0889   -5.0838  -17.2580 C   0  0  2  0  0  0  0  0  0  0  0  0
   16.4386   -5.9874  -18.2873 C   0  0  0  0  0  0  0  0  0  0  0  0
   18.5123   -5.5399  -17.0081 C   0  0  2  0  0  0  0  0  0  0  0  0
   18.4828   -6.8395  -16.3667 N   0  0  0  0  0  0  0  0  0  0  0  0
   19.1490   -4.5535  -16.1025 C   0  0  0  0  0  0  0  0  0  0  0  0
   19.4476   -3.4007  -16.5391 O   0  0  0  0  0  0  0  0  0  0  0  0
   19.4458   -4.8105  -14.7855 O   0  0  0  0  0  0  0  0  0  0  0  0
  2  1  1  6
  3  2  1  0
  4  6  1  0
  4  2  1  0
  4  5  1  1
  6  7  2  0
  8  9  1  0
  9 11  1  0
 10  9  2  0
 11 12  1  0
 13 12  1  6
 14 13  1  0
 14  6  1  0
 15 21  1  0
 15 13  1  0
 16 15  2  0
 18 17  1  1
 19 18  1  0
 20 18  1  0
 20 21  1  1
 22 20  1  0
 22 24  1  0
 23 22  2  0
M  END
$$$$
