TQV.pdb
     RDKit          3D

 24 23  0  0  1  0  0  0  0  0999 V2000
   18.4950  -12.7021  -17.9684 C   0  0  0  0  0  0  0  0  0  0  0  0
   17.2412  -12.3483  -17.1983 C   0  0  1  0  0  0  0  0  0  0  0  0
   16.4247  -13.4489  -16.9981 O   0  0  0  0  0  0  0  0  0  0  0  0
   17.5938  -11.6428  -15.9000 C   0  0  2  0  0  0  0  0  0  0  0  0
   16.3651  -11.4740  -15.1636 N   0  0  0  0  0  0  0  0  0  0  0  0
   18.2088  -10.3153  -16.1565 C   0  0  0  0  0  0  0  0  0  0  0  0
   19.2682  -10.1811  -16.8292 O   0  0  0  0  0  0  0  0  0  0  0  0
   15.0415   -5.1295  -16.4318 N   0  0  0  0  0  0  0  0  0  0  0  0
   15.2034   -6.0700  -17.4742 C   0  0  0  0  0  0  0  0  0  0  0  0
   14.4320   -6.0831  -18.4498 O   0  0  0  0  0  0  0  0  0  0  0  0
   16.3471   -7.0359  -17.3305 C   0  0  0  0  0  0  0  0  0  0  0  0
   17.0736   -6.8125  -16.0370 C   0  0  0  0  0  0  0  0  0  0  0  0
   18.1649   -7.8024  -15.8555 C   0  0  2  0  0  0  0  0  0  0  0  0
   17.6140   -9.1529  -15.6462 N   0  0  0  0  0  0  0  0  0  0  0  0
   19.1110   -7.4799  -14.7632 C   0  0  0  0  0  0  0  0  0  0  0  0
   18.8839   -7.5947  -13.5381 O   0  0  0  0  0  0  0  0  0  0  0  0
   23.0963   -7.4211  -15.7965 C   0  0  0  0  0  0  0  0  0  0  0  0
   22.6303   -7.5945  -14.3538 C   0  0  2  0  0  0  0  0  0  0  0  0
   22.2719   -9.0521  -14.1404 C   0  0  0  0  0  0  0  0  0  0  0  0
   21.4181   -6.7274  -14.0791 C   0  0  2  0  0  0  0  0  0  0  0  0
   20.4148   -6.9892  -15.0921 N   0  0  0  0  0  0  0  0  0  0  0  0
   21.8492   -5.3112  -14.1614 C   0  0  0  0  0  0  0  0  0  0  0  0
   21.5796   -4.6314  -15.1978 O   0  0  0  0  0  0  0  0  0  0  0  0
   22.5404   -4.6669  -13.1635 O   0  0  0  0  0  0  0  0  0  0  0  0
  2  1  1  1
  3  2  1  0
  4  6  1  0
  4  2  1  0
  4  5  1  1
  6  7  2  0
  8  9  1  0
  9 11  1  0
 10  9  2  0
 11 12  1  0
 13 12  1  1
 14 13  1  0
 14  6  1  0
 15 21  1  0
 15 13  1  0
 16 15  2  0
 18 17  1  6
 19 18  1  0
 20 18  1  0
 20 21  1  6
 22 20  1  0
 22 24  1  0
 23 22  2  0
M  END
$$$$
