TQV.pdb
     RDKit          3D

 24 23  0  0  1  0  0  0  0  0999 V2000
   18.2555   -9.5712  -19.0963 C   0  0  0  0  0  0  0  0  0  0  0  0
   18.1917  -10.6863  -18.0751 C   0  0  1  0  0  0  0  0  0  0  0  0
   18.1172  -11.9345  -18.6705 O   0  0  0  0  0  0  0  0  0  0  0  0
   19.3469  -10.5784  -17.0946 C   0  0  2  0  0  0  0  0  0  0  0  0
   19.3097  -11.7587  -16.2662 N   0  0  0  0  0  0  0  0  0  0  0  0
   19.2221   -9.3671  -16.2441 C   0  0  0  0  0  0  0  0  0  0  0  0
   19.1782   -8.2031  -16.7299 O   0  0  0  0  0  0  0  0  0  0  0  0
   17.1764   -9.3903  -10.3999 N   0  0  0  0  0  0  0  0  0  0  0  0
   16.3105   -9.2520  -11.5083 C   0  0  0  0  0  0  0  0  0  0  0  0
   15.0906   -9.4677  -11.3980 O   0  0  0  0  0  0  0  0  0  0  0  0
   16.9473   -8.8349  -12.8052 C   0  0  0  0  0  0  0  0  0  0  0  0
   18.4353   -8.7178  -12.6545 C   0  0  0  0  0  0  0  0  0  0  0  0
   19.0771   -8.3350  -13.9373 C   0  0  2  0  0  0  0  0  0  0  0  0
   19.1482   -9.4900  -14.8495 N   0  0  0  0  0  0  0  0  0  0  0  0
   20.4227   -7.7338  -13.7954 C   0  0  0  0  0  0  0  0  0  0  0  0
   21.4471   -8.3184  -13.3779 O   0  0  0  0  0  0  0  0  0  0  0  0
   21.4714   -4.5352  -16.1362 C   0  0  0  0  0  0  0  0  0  0  0  0
   22.4711   -5.3326  -15.3035 C   0  0  2  0  0  0  0  0  0  0  0  0
   22.8094   -6.6054  -16.0547 C   0  0  0  0  0  0  0  0  0  0  0  0
   21.8789   -5.6816  -13.9529 C   0  0  2  0  0  0  0  0  0  0  0  0
   20.6153   -6.3622  -14.1564 N   0  0  0  0  0  0  0  0  0  0  0  0
   21.6475   -4.4130  -13.2211 C   0  0  0  0  0  0  0  0  0  0  0  0
   20.4667   -3.9677  -13.0932 O   0  0  0  0  0  0  0  0  0  0  0  0
   22.6532   -3.6660  -12.6563 O   0  0  0  0  0  0  0  0  0  0  0  0
  2  1  1  6
  3  2  1  0
  4  6  1  0
  4  2  1  0
  4  5  1  1
  6  7  2  0
  8  9  1  0
  9 11  1  0
 10  9  2  0
 11 12  1  0
 13 12  1  1
 14 13  1  0
 14  6  1  0
 15 21  1  0
 15 13  1  0
 16 15  2  0
 18 17  1  6
 19 18  1  0
 20 18  1  0
 20 21  1  6
 22 20  1  0
 22 24  1  0
 23 22  2  0
M  END
$$$$
