TQV.pdb
     RDKit          3D

 24 23  0  0  1  0  0  0  0  0999 V2000
   23.3156  -11.3233  -18.9134 C   0  0  0  0  0  0  0  0  0  0  0  0
   22.2301  -12.3724  -19.0206 C   0  0  1  0  0  0  0  0  0  0  0  0
   22.7365  -13.6118  -19.3745 O   0  0  0  0  0  0  0  0  0  0  0  0
   21.4095  -12.4233  -17.7432 C   0  0  2  0  0  0  0  0  0  0  0  0
   20.4637  -13.5022  -17.8914 N   0  0  0  0  0  0  0  0  0  0  0  0
   20.6817  -11.1484  -17.5177 C   0  0  0  0  0  0  0  0  0  0  0  0
   19.5686  -10.9019  -18.0591 O   0  0  0  0  0  0  0  0  0  0  0  0
   16.7925   -9.5207  -14.6903 N   0  0  0  0  0  0  0  0  0  0  0  0
   17.1361   -8.1601  -14.8587 C   0  0  0  0  0  0  0  0  0  0  0  0
   16.3589   -7.2555  -14.5058 O   0  0  0  0  0  0  0  0  0  0  0  0
   18.4768   -7.8820  -15.4805 C   0  0  0  0  0  0  0  0  0  0  0  0
   19.1784   -9.1617  -15.8282 C   0  0  0  0  0  0  0  0  0  0  0  0
   20.5390   -8.9009  -16.3619 C   0  0  2  0  0  0  0  0  0  0  0  0
   21.2256  -10.1654  -16.6790 N   0  0  0  0  0  0  0  0  0  0  0  0
   21.3982   -8.0801  -15.4785 C   0  0  0  0  0  0  0  0  0  0  0  0
   21.8595   -8.4326  -14.3701 O   0  0  0  0  0  0  0  0  0  0  0  0
   22.1997   -4.0707  -16.7207 C   0  0  0  0  0  0  0  0  0  0  0  0
   23.2854   -4.8951  -16.0349 C   0  0  2  0  0  0  0  0  0  0  0  0
   24.1056   -5.5880  -17.1053 C   0  0  0  0  0  0  0  0  0  0  0  0
   22.6666   -5.9311  -15.1183 C   0  0  2  0  0  0  0  0  0  0  0  0
   21.7587   -6.7573  -15.8894 N   0  0  0  0  0  0  0  0  0  0  0  0
   21.9099   -5.2086  -14.0677 C   0  0  0  0  0  0  0  0  0  0  0  0
   22.5340   -4.5181  -13.2061 O   0  0  0  0  0  0  0  0  0  0  0  0
   20.5400   -5.2370  -13.9611 O   0  0  0  0  0  0  0  0  0  0  0  0
  2  1  1  1
  3  2  1  0
  4  6  1  0
  4  2  1  0
  4  5  1  6
  6  7  2  0
  8  9  1  0
  9 11  1  0
 10  9  2  0
 11 12  1  0
 13 12  1  1
 14 13  1  0
 14  6  1  0
 15 21  1  0
 15 13  1  0
 16 15  2  0
 18 17  1  6
 19 18  1  0
 20 18  1  0
 20 21  1  6
 22 20  1  0
 22 24  1  0
 23 22  2  0
M  END
$$$$
