TQV.pdb
     RDKit          3D

 24 23  0  0  1  0  0  0  0  0999 V2000
   23.4083  -10.8287  -21.7686 C   0  0  0  0  0  0  0  0  0  0  0  0
   22.5274   -9.9698  -20.8874 C   0  0  1  0  0  0  0  0  0  0  0  0
   21.6062   -9.2424  -21.6224 O   0  0  0  0  0  0  0  0  0  0  0  0
   21.8729  -10.8114  -19.8053 C   0  0  2  0  0  0  0  0  0  0  0  0
   21.0329  -11.7767  -20.4710 N   0  0  0  0  0  0  0  0  0  0  0  0
   21.0487   -9.9753  -18.8954 C   0  0  0  0  0  0  0  0  0  0  0  0
   19.9904   -9.4036  -19.2778 O   0  0  0  0  0  0  0  0  0  0  0  0
   17.3131   -9.4369  -16.0849 N   0  0  0  0  0  0  0  0  0  0  0  0
   17.7999   -8.7917  -14.9256 C   0  0  0  0  0  0  0  0  0  0  0  0
   17.0561   -8.0769  -14.2310 O   0  0  0  0  0  0  0  0  0  0  0  0
   19.2483   -9.0211  -14.5922 C   0  0  0  0  0  0  0  0  0  0  0  0
   19.9172   -9.8384  -15.6577 C   0  0  0  0  0  0  0  0  0  0  0  0
   20.6752   -8.9768  -16.5996 C   0  0  2  0  0  0  0  0  0  0  0  0
   21.4349   -9.7967  -17.5597 N   0  0  0  0  0  0  0  0  0  0  0  0
   21.5856   -8.0077  -15.9483 C   0  0  0  0  0  0  0  0  0  0  0  0
   22.7328   -8.2560  -15.5147 O   0  0  0  0  0  0  0  0  0  0  0  0
   22.4497   -3.2192  -14.9299 C   0  0  0  0  0  0  0  0  0  0  0  0
   21.6832   -4.3007  -15.6860 C   0  0  2  0  0  0  0  0  0  0  0  0
   20.2014   -3.9994  -15.5770 C   0  0  0  0  0  0  0  0  0  0  0  0
   21.9693   -5.6664  -15.0949 C   0  0  2  0  0  0  0  0  0  0  0  0
   21.1560   -6.6530  -15.7782 N   0  0  0  0  0  0  0  0  0  0  0  0
   21.5970   -5.6234  -13.6604 C   0  0  0  0  0  0  0  0  0  0  0  0
   20.4838   -6.1020  -13.2853 O   0  0  0  0  0  0  0  0  0  0  0  0
   22.3983   -5.0852  -12.6822 O   0  0  0  0  0  0  0  0  0  0  0  0
  2  1  1  6
  3  2  1  0
  4  6  1  0
  4  2  1  0
  4  5  1  6
  6  7  2  0
  8  9  1  0
  9 11  1  0
 10  9  2  0
 11 12  1  0
 13 12  1  1
 14 13  1  0
 14  6  1  0
 15 21  1  0
 15 13  1  0
 16 15  2  0
 18 17  1  1
 19 18  1  0
 20 18  1  0
 20 21  1  6
 22 20  1  0
 22 24  1  0
 23 22  2  0
M  END
$$$$
