TQV.pdb
     RDKit          3D

 24 23  0  0  1  0  0  0  0  0999 V2000
   21.5728  -11.7835  -16.3857 C   0  0  0  0  0  0  0  0  0  0  0  0
   20.4356  -12.0457  -17.3493 C   0  0  1  0  0  0  0  0  0  0  0  0
   20.6086  -13.2274  -18.0504 O   0  0  0  0  0  0  0  0  0  0  0  0
   19.1005  -11.9889  -16.6269 C   0  0  2  0  0  0  0  0  0  0  0  0
   18.0785  -12.2710  -17.6049 N   0  0  0  0  0  0  0  0  0  0  0  0
   18.8653  -10.6489  -16.0310 C   0  0  0  0  0  0  0  0  0  0  0  0
   18.7024   -9.6156  -16.7371 O   0  0  0  0  0  0  0  0  0  0  0  0
   16.6523   -9.6844  -10.3964 N   0  0  0  0  0  0  0  0  0  0  0  0
   15.8246   -9.6464  -11.5414 C   0  0  0  0  0  0  0  0  0  0  0  0
   14.5900   -9.7592  -11.4424 O   0  0  0  0  0  0  0  0  0  0  0  0
   16.5200   -9.4643  -12.8623 C   0  0  0  0  0  0  0  0  0  0  0  0
   18.0009   -9.3214  -12.6693 C   0  0  0  0  0  0  0  0  0  0  0  0
   18.7021   -9.1871  -13.9709 C   0  0  2  0  0  0  0  0  0  0  0  0
   18.8175  -10.4957  -14.6383 N   0  0  0  0  0  0  0  0  0  0  0  0
   20.0389   -8.5560  -13.8860 C   0  0  0  0  0  0  0  0  0  0  0  0
   21.0611   -9.0685  -13.3781 O   0  0  0  0  0  0  0  0  0  0  0  0
   23.1941   -5.3211  -15.7136 C   0  0  0  0  0  0  0  0  0  0  0  0
   21.9174   -6.1561  -15.7532 C   0  0  2  0  0  0  0  0  0  0  0  0
   20.8234   -5.3244  -16.3934 C   0  0  0  0  0  0  0  0  0  0  0  0
   21.4993   -6.5543  -14.3521 C   0  0  2  0  0  0  0  0  0  0  0  0
   20.2246   -7.2412  -14.4203 N   0  0  0  0  0  0  0  0  0  0  0  0
   21.3522   -5.3123  -13.5557 C   0  0  0  0  0  0  0  0  0  0  0  0
   20.2064   -4.7860  -13.4181 O   0  0  0  0  0  0  0  0  0  0  0  0
   22.4021   -4.6748  -12.9394 O   0  0  0  0  0  0  0  0  0  0  0  0
  2  1  1  1
  3  2  1  0
  4  6  1  0
  4  2  1  0
  4  5  1  6
  6  7  2  0
  8  9  1  0
  9 11  1  0
 10  9  2  0
 11 12  1  0
 13 12  1  1
 14 13  1  0
 14  6  1  0
 15 21  1  0
 15 13  1  0
 16 15  2  0
 18 17  1  1
 19 18  1  0
 20 18  1  0
 20 21  1  6
 22 20  1  0
 22 24  1  0
 23 22  2  0
M  END
$$$$
