TQV.pdb
     RDKit          3D

 24 23  0  0  1  0  0  0  0  0999 V2000
   22.5470  -10.8607  -14.7729 C   0  0  0  0  0  0  0  0  0  0  0  0
   22.2694  -11.7619  -15.9566 C   0  0  1  0  0  0  0  0  0  0  0  0
   22.8223  -13.0212  -15.7938 O   0  0  0  0  0  0  0  0  0  0  0  0
   20.7796  -11.8149  -16.2487 C   0  0  2  0  0  0  0  0  0  0  0  0
   20.6059  -12.6567  -17.4071 N   0  0  0  0  0  0  0  0  0  0  0  0
   20.2356  -10.4615  -16.5287 C   0  0  0  0  0  0  0  0  0  0  0  0
   20.4694   -9.8502  -17.6078 O   0  0  0  0  0  0  0  0  0  0  0  0
   14.8002   -8.5426  -15.1171 N   0  0  0  0  0  0  0  0  0  0  0  0
   15.2033   -9.0551  -16.3710 C   0  0  0  0  0  0  0  0  0  0  0  0
   14.3676   -9.4899  -17.1831 O   0  0  0  0  0  0  0  0  0  0  0  0
   16.6800   -9.0411  -16.6546 C   0  0  0  0  0  0  0  0  0  0  0  0
   17.4355   -8.4240  -15.5148 C   0  0  0  0  0  0  0  0  0  0  0  0
   18.8991   -8.4534  -15.7614 C   0  0  2  0  0  0  0  0  0  0  0  0
   19.4311   -9.8154  -15.5797 N   0  0  0  0  0  0  0  0  0  0  0  0
   19.6800   -7.5037  -14.9364 C   0  0  0  0  0  0  0  0  0  0  0  0
   19.9820   -7.6549  -13.7316 O   0  0  0  0  0  0  0  0  0  0  0  0
   22.0581   -4.8312  -16.9870 C   0  0  0  0  0  0  0  0  0  0  0  0
   22.2888   -5.1693  -15.5169 C   0  0  2  0  0  0  0  0  0  0  0  0
   23.0783   -6.4615  -15.4431 C   0  0  0  0  0  0  0  0  0  0  0  0
   20.9662   -5.3397  -14.7970 C   0  0  2  0  0  0  0  0  0  0  0  0
   20.1524   -6.2897  -15.5294 N   0  0  0  0  0  0  0  0  0  0  0  0
   20.2913   -4.0197  -14.7762 C   0  0  0  0  0  0  0  0  0  0  0  0
   20.7293   -3.1017  -14.0184 O   0  0  0  0  0  0  0  0  0  0  0  0
   19.1928   -3.7146  -15.5436 O   0  0  0  0  0  0  0  0  0  0  0  0
  2  1  1  1
  3  2  1  0
  4  6  1  0
  4  2  1  0
  4  5  1  6
  6  7  2  0
  8  9  1  0
  9 11  1  0
 10  9  2  0
 11 12  1  0
 13 12  1  1
 14 13  1  0
 14  6  1  0
 15 21  1  0
 15 13  1  0
 16 15  2  0
 18 17  1  6
 19 18  1  0
 20 18  1  0
 20 21  1  6
 22 20  1  0
 22 24  1  0
 23 22  2  0
M  END
$$$$
