TQV.pdb
     RDKit          3D

 24 23  0  0  1  0  0  0  0  0999 V2000
   25.9669  -19.6516   -8.2206 C   0  0  0  0  0  0  0  0  0  0  0  0
   25.6097  -20.1966   -9.5865 C   0  0  1  0  0  0  0  0  0  0  0  0
   26.2879  -21.3696   -9.8732 O   0  0  0  0  0  0  0  0  0  0  0  0
   24.1043  -20.3479   -9.7234 C   0  0  2  0  0  0  0  0  0  0  0  0
   23.6918  -21.3493   -8.7707 N   0  0  0  0  0  0  0  0  0  0  0  0
   23.7272  -20.7773  -11.0944 C   0  0  0  0  0  0  0  0  0  0  0  0
   23.8145  -21.9780  -11.4734 O   0  0  0  0  0  0  0  0  0  0  0  0
   20.8782  -21.9296  -14.9197 N   0  0  0  0  0  0  0  0  0  0  0  0
   20.1732  -21.5646  -13.7504 C   0  0  0  0  0  0  0  0  0  0  0  0
   19.2836  -22.2983  -13.2844 O   0  0  0  0  0  0  0  0  0  0  0  0
   20.5609  -20.2565  -13.1179 C   0  0  0  0  0  0  0  0  0  0  0  0
   21.6882  -19.6141  -13.8710 C   0  0  0  0  0  0  0  0  0  0  0  0
   23.0011  -20.1554  -13.4382 C   0  0  2  0  0  0  0  0  0  0  0  0
   23.2543  -19.8382  -12.0217 N   0  0  0  0  0  0  0  0  0  0  0  0
   24.1501  -19.7080  -14.2579 C   0  0  0  0  0  0  0  0  0  0  0  0
   24.7047  -18.5881  -14.1943 O   0  0  0  0  0  0  0  0  0  0  0  0
   26.3292  -22.6388  -16.3785 C   0  0  0  0  0  0  0  0  0  0  0  0
   26.8861  -21.2615  -16.0298 C   0  0  2  0  0  0  0  0  0  0  0  0
   27.4469  -21.3163  -14.6223 C   0  0  0  0  0  0  0  0  0  0  0  0
   25.7941  -20.2131  -16.1015 C   0  0  2  0  0  0  0  0  0  0  0  0
   24.7094  -20.6047  -15.2232 N   0  0  0  0  0  0  0  0  0  0  0  0
   25.3071  -20.1649  -17.5011 C   0  0  0  0  0  0  0  0  0  0  0  0
   24.1307  -20.5550  -17.7709 O   0  0  0  0  0  0  0  0  0  0  0  0
   26.0646  -19.7139  -18.5553 O   0  0  0  0  0  0  0  0  0  0  0  0
  2  1  1  1
  3  2  1  0
  4  6  1  0
  4  2  1  0
  4  5  1  1
  6  7  2  0
  8  9  1  0
  9 11  1  0
 10  9  2  0
 11 12  1  0
 13 12  1  6
 14 13  1  0
 14  6  1  0
 15 21  1  0
 15 13  1  0
 16 15  2  0
 18 17  1  1
 19 18  1  0
 20 18  1  0
 20 21  1  1
 22 20  1  0
 22 24  1  0
 23 22  2  0
M  END
$$$$
