TQV.pdb
     RDKit          3D

 24 23  0  0  1  0  0  0  0  0999 V2000
   27.1224  -18.6399  -16.2180 C   0  0  0  0  0  0  0  0  0  0  0  0
   27.6798  -19.8391  -16.9538 C   0  0  1  0  0  0  0  0  0  0  0  0
   28.7545  -19.5026  -17.7599 O   0  0  0  0  0  0  0  0  0  0  0  0
   28.0121  -20.9559  -15.9791 C   0  0  2  0  0  0  0  0  0  0  0  0
   28.4234  -22.0937  -16.7644 N   0  0  0  0  0  0  0  0  0  0  0  0
   26.8331  -21.3196  -15.1521 C   0  0  0  0  0  0  0  0  0  0  0  0
   25.9139  -22.0706  -15.5810 O   0  0  0  0  0  0  0  0  0  0  0  0
   26.2810  -20.4195   -8.9764 N   0  0  0  0  0  0  0  0  0  0  0  0
   24.9823  -20.9029   -9.2542 C   0  0  0  0  0  0  0  0  0  0  0  0
   24.1659  -21.1066   -8.3383 O   0  0  0  0  0  0  0  0  0  0  0  0
   24.6573  -21.1504  -10.7015 C   0  0  0  0  0  0  0  0  0  0  0  0
   25.8487  -20.8729  -11.5699 C   0  0  0  0  0  0  0  0  0  0  0  0
   25.5179  -21.0438  -13.0070 C   0  0  2  0  0  0  0  0  0  0  0  0
   26.7098  -20.8263  -13.8457 N   0  0  0  0  0  0  0  0  0  0  0  0
   24.4115  -20.1857  -13.4887 C   0  0  0  0  0  0  0  0  0  0  0  0
   24.4212  -18.9355  -13.5390 O   0  0  0  0  0  0  0  0  0  0  0  0
   20.5686  -19.7779  -16.4403 C   0  0  0  0  0  0  0  0  0  0  0  0
   21.7408  -20.5579  -15.8517 C   0  0  2  0  0  0  0  0  0  0  0  0
   21.3364  -22.0149  -15.7412 C   0  0  0  0  0  0  0  0  0  0  0  0
   22.0986  -20.0241  -14.4792 C   0  0  2  0  0  0  0  0  0  0  0  0
   23.2024  -20.7990  -13.9476 N   0  0  0  0  0  0  0  0  0  0  0  0
   20.9106  -20.1895  -13.6077 C   0  0  0  0  0  0  0  0  0  0  0  0
   20.8765  -21.1366  -12.7647 O   0  0  0  0  0  0  0  0  0  0  0  0
   19.8132  -19.3634  -13.6523 O   0  0  0  0  0  0  0  0  0  0  0  0
  2  1  1  1
  3  2  1  0
  4  6  1  0
  4  2  1  0
  4  5  1  6
  6  7  2  0
  8  9  1  0
  9 11  1  0
 10  9  2  0
 11 12  1  0
 13 12  1  1
 14 13  1  0
 14  6  1  0
 15 21  1  0
 15 13  1  0
 16 15  2  0
 18 17  1  1
 19 18  1  0
 20 18  1  0
 20 21  1  1
 22 20  1  0
 22 24  1  0
 23 22  2  0
M  END
$$$$
