RCQ.pdb
     RDKit          3D

 27 26  0  0  1  0  0  0  0  0999 V2000
   28.0393  -25.6491  -16.5968 N   0  0  0  0  0  0  0  0  0  0  0  0
   26.6343  -25.4527  -16.6626 C   0  0  0  0  0  0  0  0  0  0  0  0
   25.8175  -26.2614  -16.1187 N   0  0  0  0  0  0  0  0  0  0  0  0
   26.1545  -24.3085  -17.3621 N   0  0  0  0  0  0  0  0  0  0  0  0
   27.0527  -23.3360  -17.9539 C   0  0  0  0  0  0  0  0  0  0  0  0
   26.7957  -22.0347  -17.2643 C   0  0  0  0  0  0  0  0  0  0  0  0
   25.7508  -22.0207  -16.2261 C   0  0  0  0  0  0  0  0  0  0  0  0
   25.4394  -20.7179  -15.5738 C   0  0  2  0  0  0  0  0  0  0  0  0
   26.5963  -19.9335  -15.2276 N   0  0  0  0  0  0  0  0  0  0  0  0
   24.5138  -20.8638  -14.4063 C   0  0  0  0  0  0  0  0  0  0  0  0
   24.9486  -20.5346  -13.2730 O   0  0  0  0  0  0  0  0  0  0  0  0
   24.8099  -26.0959  -16.1483 N   0  0  0  0  0  0  0  0  0  0  0  0
   23.2022  -21.3402  -14.4940 C   0  0  2  0  0  0  0  0  0  0  0  0
   22.2829  -21.4352  -13.3628 C   0  0  0  0  0  0  0  0  0  0  0  0
   21.9943  -19.9637  -13.0139 S   0  0  0  0  0  0  0  0  0  0  0  0
   20.5503  -19.3410  -13.8522 C   0  0  0  0  0  0  0  0  0  0  0  0
   21.0615  -22.1753  -13.7245 O   0  0  0  0  0  0  0  0  0  0  0  0
   20.4970  -21.9321  -14.8177 N   0  0  0  0  0  0  0  0  0  0  0  0
   18.9183  -27.1141  -10.3036 C   0  0  0  0  0  0  0  0  0  0  0  0
   20.0580  -27.0644  -11.1661 O   0  0  0  0  0  0  0  0  0  0  0  0
   20.8463  -28.0306  -11.1014 C   0  0  0  0  0  0  0  0  0  0  0  0
   20.2298  -25.9126  -12.0510 C   0  0  0  0  0  0  0  0  0  0  0  0
   19.0907  -24.9684  -12.1389 C   0  0  2  0  0  0  0  0  0  0  0  0
   19.3011  -23.9085  -13.1603 N   0  0  0  0  0  0  0  0  0  0  0  0
   20.5212  -23.1467  -12.8684 C   0  0  0  0  0  0  0  0  0  0  0  0
   18.1588  -23.0103  -13.3783 O   0  0  0  0  0  0  0  0  0  0  0  0
   17.2275  -23.3343  -14.3364 O   0  0  0  0  0  0  0  0  0  0  0  0
  2  1  1  0
  3  2  2  0
  4  2  1  0
  5  6  1  0
  5  4  1  0
  7  6  1  0
  8  7  1  0
  8  9  1  1
 10 11  2  0
 10  8  1  0
 12 10  1  0
 13 12  1  0
 14 15  1  0
 13 14  1  6
 16 13  1  0
 16 24  1  0
 17 16  2  0
 19 18  1  0
 19 20  2  0
 21 19  1  0
 22 21  1  0
 23 24  1  0
 23 22  1  6
 25 23  1  0
 26 25  1  0
 27 25  2  0
M  END
$$$$
