RCQ.pdb
     RDKit          3D

 27 26  0  0  1  0  0  0  0  0999 V2000
   30.2343  -25.1825  -16.4830 N   0  0  0  0  0  0  0  0  0  0  0  0
   28.8986  -25.3072  -16.9492 C   0  0  0  0  0  0  0  0  0  0  0  0
   28.3272  -26.4384  -17.0535 N   0  0  0  0  0  0  0  0  0  0  0  0
   28.2025  -24.1154  -17.3008 N   0  0  0  0  0  0  0  0  0  0  0  0
   28.8515  -22.8186  -17.3059 C   0  0  0  0  0  0  0  0  0  0  0  0
   28.8539  -22.3310  -15.8927 C   0  0  0  0  0  0  0  0  0  0  0  0
   27.8179  -21.3528  -15.5189 C   0  0  0  0  0  0  0  0  0  0  0  0
   27.4398  -20.3241  -16.5281 C   0  0  2  0  0  0  0  0  0  0  0  0
   28.4930  -19.4000  -16.8600 N   0  0  0  0  0  0  0  0  0  0  0  0
   26.1775  -19.6025  -16.1714 C   0  0  0  0  0  0  0  0  0  0  0  0
   26.2549  -18.6768  -15.3237 O   0  0  0  0  0  0  0  0  0  0  0  0
   27.3772  -26.5198  -17.4205 N   0  0  0  0  0  0  0  0  0  0  0  0
   24.9231  -19.8898  -16.7182 C   0  0  2  0  0  0  0  0  0  0  0  0
   23.6594  -19.3776  -16.1946 C   0  0  0  0  0  0  0  0  0  0  0  0
   22.8026  -19.1834  -17.4589 S   0  0  0  0  0  0  0  0  0  0  0  0
   23.2437  -17.7069  -18.3540 C   0  0  0  0  0  0  0  0  0  0  0  0
   23.0492  -20.3237  -15.2442 O   0  0  0  0  0  0  0  0  0  0  0  0
   23.5407  -21.4707  -15.1184 N   0  0  0  0  0  0  0  0  0  0  0  0
   24.9246  -20.1581  -10.3737 C   0  0  0  0  0  0  0  0  0  0  0  0
   23.7429  -20.8606   -9.9796 O   0  0  0  0  0  0  0  0  0  0  0  0
   23.7480  -21.3577   -8.8341 C   0  0  0  0  0  0  0  0  0  0  0  0
   22.6254  -20.9544  -10.9185 C   0  0  0  0  0  0  0  0  0  0  0  0
   22.8323  -20.3530  -12.2574 C   0  0  2  0  0  0  0  0  0  0  0  0
   21.6458  -20.4984  -13.1416 N   0  0  0  0  0  0  0  0  0  0  0  0
   21.9306  -19.9629  -14.4781 C   0  0  0  0  0  0  0  0  0  0  0  0
   20.3931  -19.9456  -12.6084 O   0  0  0  0  0  0  0  0  0  0  0  0
   20.2114  -18.5828  -12.6071 O   0  0  0  0  0  0  0  0  0  0  0  0
  2  1  1  0
  3  2  2  0
  4  2  1  0
  5  6  1  0
  5  4  1  0
  7  6  1  0
  8  7  1  0
  8  9  1  1
 10 11  2  0
 10  8  1  0
 12 10  1  0
 13 12  1  0
 14 15  1  0
 13 14  1  6
 16 13  1  0
 16 24  1  0
 17 16  2  0
 19 18  1  0
 19 20  2  0
 21 19  1  0
 22 21  1  0
 23 24  1  0
 23 22  1  6
 25 23  1  0
 26 25  1  0
 27 25  2  0
M  END
$$$$
