RCQ.pdb
     RDKit          3D

 27 26  0  0  1  0  0  0  0  0999 V2000
   14.4078  -13.2397  -14.9208 N   0  0  0  0  0  0  0  0  0  0  0  0
   13.3582  -12.5811  -15.6150 C   0  0  0  0  0  0  0  0  0  0  0  0
   12.1813  -13.0602  -15.6628 N   0  0  0  0  0  0  0  0  0  0  0  0
   13.6601  -11.3503  -16.2651 N   0  0  0  0  0  0  0  0  0  0  0  0
   14.9005  -10.6382  -16.0263 C   0  0  0  0  0  0  0  0  0  0  0  0
   15.7343  -10.7978  -17.2569 C   0  0  0  0  0  0  0  0  0  0  0  0
   17.0220  -10.0833  -17.2919 C   0  0  0  0  0  0  0  0  0  0  0  0
   18.2571  -10.8669  -17.0091 C   0  0  2  0  0  0  0  0  0  0  0  0
   18.0200  -12.2330  -16.6205 N   0  0  0  0  0  0  0  0  0  0  0  0
   19.1685  -10.1782  -16.0415 C   0  0  0  0  0  0  0  0  0  0  0  0
   18.9405  -10.3332  -14.8145 O   0  0  0  0  0  0  0  0  0  0  0  0
   11.4185  -12.5469  -16.1082 N   0  0  0  0  0  0  0  0  0  0  0  0
   20.2530   -9.3774  -16.4124 C   0  0  2  0  0  0  0  0  0  0  0  0
   21.1576   -8.7267  -15.4679 C   0  0  0  0  0  0  0  0  0  0  0  0
   22.4899   -8.6633  -16.2368 S   0  0  0  0  0  0  0  0  0  0  0  0
   23.7137   -7.6840  -15.3889 C   0  0  0  0  0  0  0  0  0  0  0  0
   20.6662   -7.3909  -15.0874 O   0  0  0  0  0  0  0  0  0  0  0  0
   20.2210   -6.6244  -15.9747 N   0  0  0  0  0  0  0  0  0  0  0  0
   17.3602   -5.9051  -10.0509 C   0  0  0  0  0  0  0  0  0  0  0  0
   17.7797   -4.6230  -10.5256 O   0  0  0  0  0  0  0  0  0  0  0  0
   17.3261   -3.6302   -9.9190 C   0  0  0  0  0  0  0  0  0  0  0  0
   18.6923   -4.5512  -11.6663 C   0  0  0  0  0  0  0  0  0  0  0  0
   19.2299   -5.8385  -12.1671 C   0  0  1  0  0  0  0  0  0  0  0  0
   20.1778   -5.6632  -13.2992 N   0  0  0  0  0  0  0  0  0  0  0  0
   20.6865   -6.9636  -13.7512 C   0  0  0  0  0  0  0  0  0  0  0  0
   21.2797   -4.7220  -13.0563 O   0  0  0  0  0  0  0  0  0  0  0  0
   22.4708   -5.2004  -12.5638 O   0  0  0  0  0  0  0  0  0  0  0  0
  2  1  1  0
  3  2  2  0
  4  2  1  0
  5  6  1  0
  5  4  1  0
  7  6  1  0
  8  7  1  0
  8  9  1  1
 10 11  2  0
 10  8  1  0
 12 10  1  0
 13 12  1  0
 14 15  1  0
 13 14  1  6
 16 13  1  0
 16 24  1  0
 17 16  2  0
 19 18  1  0
 19 20  2  0
 21 19  1  0
 22 21  1  0
 23 24  1  0
 23 22  1  6
 25 23  1  0
 26 25  1  0
 27 25  2  0
M  END
$$$$
