RCQ.pdb
     RDKit          3D

 27 26  0  0  1  0  0  0  0  0999 V2000
   28.3977  -16.9440  -18.0837 N   0  0  0  0  0  0  0  0  0  0  0  0
   28.8904  -18.1024  -18.7414 C   0  0  0  0  0  0  0  0  0  0  0  0
   29.9839  -18.0914  -19.3904 N   0  0  0  0  0  0  0  0  0  0  0  0
   28.1189  -19.2963  -18.6535 N   0  0  0  0  0  0  0  0  0  0  0  0
   27.3436  -19.6261  -17.4732 C   0  0  0  0  0  0  0  0  0  0  0  0
   27.8529  -20.9404  -16.9749 C   0  0  0  0  0  0  0  0  0  0  0  0
   27.2466  -21.4707  -15.7416 C   0  0  0  0  0  0  0  0  0  0  0  0
   27.1074  -20.5435  -14.5837 C   0  0  2  0  0  0  0  0  0  0  0  0
   28.3461  -20.2286  -13.9206 N   0  0  0  0  0  0  0  0  0  0  0  0
   26.0678  -20.9942  -13.6054 C   0  0  0  0  0  0  0  0  0  0  0  0
   25.0366  -21.5488  -14.0645 O   0  0  0  0  0  0  0  0  0  0  0  0
   30.2733  -18.8932  -19.9536 N   0  0  0  0  0  0  0  0  0  0  0  0
   26.1689  -20.8395  -12.2194 C   0  0  2  0  0  0  0  0  0  0  0  0
   25.0716  -21.0680  -11.2828 C   0  0  0  0  0  0  0  0  0  0  0  0
   25.6768  -20.6754   -9.9226 S   0  0  0  0  0  0  0  0  0  0  0  0
   27.4007  -21.1099   -9.7993 C   0  0  0  0  0  0  0  0  0  0  0  0
   23.8932  -20.2537  -11.6276 O   0  0  0  0  0  0  0  0  0  0  0  0
   24.0419  -19.0343  -11.8804 N   0  0  0  0  0  0  0  0  0  0  0  0
   22.8040  -21.1173  -16.7522 C   0  0  0  0  0  0  0  0  0  0  0  0
   21.5446  -20.4947  -16.4848 O   0  0  0  0  0  0  0  0  0  0  0  0
   20.8753  -20.1451  -17.4793 C   0  0  0  0  0  0  0  0  0  0  0  0
   21.1251  -20.3074  -15.0963 C   0  0  0  0  0  0  0  0  0  0  0  0
   22.1173  -20.6547  -14.0514 C   0  0  1  0  0  0  0  0  0  0  0  0
   21.5941  -20.4553  -12.6739 N   0  0  0  0  0  0  0  0  0  0  0  0
   22.6102  -20.8192  -11.6793 C   0  0  0  0  0  0  0  0  0  0  0  0
   20.3142  -21.1171  -12.3859 O   0  0  0  0  0  0  0  0  0  0  0  0
   20.3221  -22.3609  -11.8002 O   0  0  0  0  0  0  0  0  0  0  0  0
  2  1  1  0
  3  2  2  0
  4  2  1  0
  5  6  1  0
  5  4  1  0
  7  6  1  0
  8  7  1  0
  8  9  1  1
 10 11  2  0
 10  8  1  0
 12 10  1  0
 13 12  1  0
 14 15  1  0
 13 14  1  6
 16 13  1  0
 16 24  1  0
 17 16  2  0
 19 18  1  0
 19 20  2  0
 21 19  1  0
 22 21  1  0
 23 24  1  0
 23 22  1  6
 25 23  1  0
 26 25  1  0
 27 25  2  0
M  END
$$$$
