RCQ.pdb
     RDKit          3D

 27 26  0  0  1  0  0  0  0  0999 V2000
   21.3337  -29.6832  -15.8704 N   0  0  0  0  0  0  0  0  0  0  0  0
   21.8438  -29.3330  -17.1488 C   0  0  0  0  0  0  0  0  0  0  0  0
   21.4502  -29.9125  -18.2100 N   0  0  0  0  0  0  0  0  0  0  0  0
   22.8212  -28.2991  -17.2148 N   0  0  0  0  0  0  0  0  0  0  0  0
   23.2124  -27.5345  -16.0464 C   0  0  0  0  0  0  0  0  0  0  0  0
   22.9599  -26.0962  -16.3667 C   0  0  0  0  0  0  0  0  0  0  0  0
   23.9592  -25.1197  -15.9000 C   0  0  0  0  0  0  0  0  0  0  0  0
   24.0973  -24.9181  -14.4303 C   0  0  2  0  0  0  0  0  0  0  0  0
   23.2341  -25.7488  -13.6314 N   0  0  0  0  0  0  0  0  0  0  0  0
   23.9858  -23.4793  -14.0322 C   0  0  0  0  0  0  0  0  0  0  0  0
   22.8611  -22.9282  -14.1470 O   0  0  0  0  0  0  0  0  0  0  0  0
   21.8275  -29.6564  -19.1242 N   0  0  0  0  0  0  0  0  0  0  0  0
   25.0469  -22.7117  -13.5425 C   0  0  1  0  0  0  0  0  0  0  0  0
   24.9622  -21.2841  -13.2447 C   0  0  0  0  0  0  0  0  0  0  0  0
   26.2394  -21.0143  -12.4284 S   0  0  0  0  0  0  0  0  0  0  0  0
   26.2401  -21.8778  -10.8695 C   0  0  0  0  0  0  0  0  0  0  0  0
   24.9058  -20.4810  -14.4785 O   0  0  0  0  0  0  0  0  0  0  0  0
   25.4396  -20.9226  -15.5240 N   0  0  0  0  0  0  0  0  0  0  0  0
   20.7043  -21.8726  -16.8316 C   0  0  0  0  0  0  0  0  0  0  0  0
   20.4864  -20.5460  -17.3195 O   0  0  0  0  0  0  0  0  0  0  0  0
   19.6443  -20.4212  -18.2330 C   0  0  0  0  0  0  0  0  0  0  0  0
   21.2447  -19.4404  -16.7349 C   0  0  0  0  0  0  0  0  0  0  0  0
   22.2019  -19.7892  -15.6583 C   0  0  2  0  0  0  0  0  0  0  0  0
   23.3221  -18.8174  -15.5490 N   0  0  0  0  0  0  0  0  0  0  0  0
   24.2646  -19.2333  -14.5035 C   0  0  0  0  0  0  0  0  0  0  0  0
   22.9221  -17.4149  -15.3702 O   0  0  0  0  0  0  0  0  0  0  0  0
   22.4307  -16.7176  -16.4485 O   0  0  0  0  0  0  0  0  0  0  0  0
  2  1  1  0
  3  2  2  0
  4  2  1  0
  5  6  1  0
  5  4  1  0
  7  6  1  0
  8  7  1  0
  8  9  1  1
 10 11  2  0
 10  8  1  0
 12 10  1  0
 13 12  1  0
 14 15  1  0
 13 14  1  1
 16 13  1  0
 16 24  1  0
 17 16  2  0
 19 18  1  0
 19 20  2  0
 21 19  1  0
 22 21  1  0
 23 24  1  0
 23 22  1  6
 25 23  1  0
 26 25  1  0
 27 25  2  0
M  END
$$$$
