RCQ.pdb
     RDKit          3D

 27 26  0  0  1  0  0  0  0  0999 V2000
   26.0605  -19.9783   -7.3696 N   0  0  0  0  0  0  0  0  0  0  0  0
   25.5548  -20.9006   -8.3240 C   0  0  0  0  0  0  0  0  0  0  0  0
   24.3174  -21.1852   -8.3918 N   0  0  0  0  0  0  0  0  0  0  0  0
   26.4819  -21.5071   -9.2191 N   0  0  0  0  0  0  0  0  0  0  0  0
   27.1432  -20.7551  -10.2679 C   0  0  0  0  0  0  0  0  0  0  0  0
   26.4961  -21.1499  -11.5565 C   0  0  0  0  0  0  0  0  0  0  0  0
   25.6434  -20.1448  -12.2142 C   0  0  0  0  0  0  0  0  0  0  0  0
   24.9280  -20.5494  -13.4569 C   0  0  2  0  0  0  0  0  0  0  0  0
   25.2762  -21.8585  -13.9453 N   0  0  0  0  0  0  0  0  0  0  0  0
   25.0282  -19.5217  -14.5410 C   0  0  0  0  0  0  0  0  0  0  0  0
   24.2782  -18.5153  -14.4613 O   0  0  0  0  0  0  0  0  0  0  0  0
   23.9709  -21.8873   -9.0480 N   0  0  0  0  0  0  0  0  0  0  0  0
   25.8987  -19.6080  -15.6318 C   0  0  1  0  0  0  0  0  0  0  0  0
   26.0318  -18.5817  -16.6626 C   0  0  0  0  0  0  0  0  0  0  0  0
   27.4790  -18.7591  -17.1570 S   0  0  0  0  0  0  0  0  0  0  0  0
   28.6767  -18.3519  -15.9018 C   0  0  0  0  0  0  0  0  0  0  0  0
   25.0446  -18.7714  -17.7396 O   0  0  0  0  0  0  0  0  0  0  0  0
   24.8561  -19.9209  -18.2046 N   0  0  0  0  0  0  0  0  0  0  0  0
   19.5635  -17.3224  -16.4667 C   0  0  0  0  0  0  0  0  0  0  0  0
   19.5468  -18.3035  -17.5070 O   0  0  0  0  0  0  0  0  0  0  0  0
   18.4743  -18.9217  -17.6708 C   0  0  0  0  0  0  0  0  0  0  0  0
   20.7576  -18.5210  -18.2982 C   0  0  0  0  0  0  0  0  0  0  0  0
   21.8949  -17.6079  -18.0341 C   0  0  2  0  0  0  0  0  0  0  0  0
   23.0355  -17.8282  -18.9623 N   0  0  0  0  0  0  0  0  0  0  0  0
   24.3122  -17.6898  -18.2516 C   0  0  0  0  0  0  0  0  0  0  0  0
   23.0201  -17.0093  -20.1822 O   0  0  0  0  0  0  0  0  0  0  0  0
   22.1704  -17.3530  -21.2070 O   0  0  0  0  0  0  0  0  0  0  0  0
  2  1  1  0
  3  2  2  0
  4  2  1  0
  5  6  1  0
  5  4  1  0
  7  6  1  0
  8  7  1  0
  8  9  1  6
 10 11  2  0
 10  8  1  0
 12 10  1  0
 13 12  1  0
 14 15  1  0
 13 14  1  1
 16 13  1  0
 16 24  1  0
 17 16  2  0
 19 18  1  0
 19 20  2  0
 21 19  1  0
 22 21  1  0
 23 24  1  0
 23 22  1  1
 25 23  1  0
 26 25  1  0
 27 25  2  0
M  END
$$$$
