RCQ.pdb
     RDKit          3D

 27 26  0  0  1  0  0  0  0  0999 V2000
   22.1268  -15.8523  -18.7149 N   0  0  0  0  0  0  0  0  0  0  0  0
   22.5899  -17.1282  -18.2972 C   0  0  0  0  0  0  0  0  0  0  0  0
   23.6304  -17.6612  -18.7975 N   0  0  0  0  0  0  0  0  0  0  0  0
   21.8501  -17.8066  -17.2867 N   0  0  0  0  0  0  0  0  0  0  0  0
   22.2710  -17.8136  -15.8990 C   0  0  0  0  0  0  0  0  0  0  0  0
   23.3467  -18.8448  -15.7789 C   0  0  0  0  0  0  0  0  0  0  0  0
   23.1704  -19.8809  -14.7468 C   0  0  0  0  0  0  0  0  0  0  0  0
   21.8409  -19.9769  -14.0813 C   0  0  2  0  0  0  0  0  0  0  0  0
   21.1971  -18.7095  -13.8510 N   0  0  0  0  0  0  0  0  0  0  0  0
   21.8790  -20.8007  -12.8319 C   0  0  0  0  0  0  0  0  0  0  0  0
   22.4547  -21.9175  -12.8874 O   0  0  0  0  0  0  0  0  0  0  0  0
   23.9266  -18.6005  -18.5263 N   0  0  0  0  0  0  0  0  0  0  0  0
   21.3187  -20.4100  -11.6119 C   0  0  1  0  0  0  0  0  0  0  0  0
   21.4041  -21.1890  -10.3791 C   0  0  0  0  0  0  0  0  0  0  0  0
   21.9613  -20.1801   -9.3583 S   0  0  0  0  0  0  0  0  0  0  0  0
   21.7907  -20.7531   -7.6796 C   0  0  0  0  0  0  0  0  0  0  0  0
   20.0859  -21.7153   -9.9844 O   0  0  0  0  0  0  0  0  0  0  0  0
   19.1002  -20.9406   -9.9506 N   0  0  0  0  0  0  0  0  0  0  0  0
   18.0193  -27.7176  -10.4341 C   0  0  0  0  0  0  0  0  0  0  0  0
   16.9701  -27.0226   -9.7548 O   0  0  0  0  0  0  0  0  0  0  0  0
   15.9258  -27.6708   -9.5347 C   0  0  0  0  0  0  0  0  0  0  0  0
   17.1762  -25.6272   -9.3680 C   0  0  0  0  0  0  0  0  0  0  0  0
   18.4839  -25.0270   -9.7238 C   0  0  2  0  0  0  0  0  0  0  0  0
   18.6428  -23.6447   -9.1994 N   0  0  0  0  0  0  0  0  0  0  0  0
   19.9152  -23.0667   -9.6479 C   0  0  0  0  0  0  0  0  0  0  0  0
   18.4825  -23.5018   -7.7458 O   0  0  0  0  0  0  0  0  0  0  0  0
   17.2206  -23.3349   -7.2260 O   0  0  0  0  0  0  0  0  0  0  0  0
  2  1  1  0
  3  2  2  0
  4  2  1  0
  5  6  1  0
  5  4  1  0
  7  6  1  0
  8  7  1  0
  8  9  1  1
 10 11  2  0
 10  8  1  0
 12 10  1  0
 13 12  1  0
 14 15  1  0
 13 14  1  6
 16 13  1  0
 16 24  1  0
 17 16  2  0
 19 18  1  0
 19 20  2  0
 21 19  1  0
 22 21  1  0
 23 24  1  0
 23 22  1  6
 25 23  1  0
 26 25  1  0
 27 25  2  0
M  END
$$$$
