RCQ.pdb
     RDKit          3D

 27 26  0  0  1  0  0  0  0  0999 V2000
   30.4968  -25.5599  -15.9566 N   0  0  0  0  0  0  0  0  0  0  0  0
   30.2131  -24.4721  -16.8245 C   0  0  0  0  0  0  0  0  0  0  0  0
   30.8840  -24.2674  -17.8851 N   0  0  0  0  0  0  0  0  0  0  0  0
   29.1403  -23.6033  -16.4738 N   0  0  0  0  0  0  0  0  0  0  0  0
   28.7857  -22.4534  -17.2830 C   0  0  0  0  0  0  0  0  0  0  0  0
   29.4719  -21.2710  -16.6779 C   0  0  0  0  0  0  0  0  0  0  0  0
   28.6572  -20.0642  -16.4551 C   0  0  0  0  0  0  0  0  0  0  0  0
   27.2273  -20.1069  -16.8712 C   0  0  2  0  0  0  0  0  0  0  0  0
   27.0203  -20.0774  -18.2959 N   0  0  0  0  0  0  0  0  0  0  0  0
   26.3942  -19.0724  -16.1806 C   0  0  0  0  0  0  0  0  0  0  0  0
   26.5116  -18.9672  -14.9328 O   0  0  0  0  0  0  0  0  0  0  0  0
   30.6338  -23.5186  -18.5336 N   0  0  0  0  0  0  0  0  0  0  0  0
   25.4978  -18.2186  -16.8306 C   0  0  1  0  0  0  0  0  0  0  0  0
   24.6835  -17.2109  -16.1560 C   0  0  0  0  0  0  0  0  0  0  0  0
   25.2779  -15.8809  -16.6541 S   0  0  0  0  0  0  0  0  0  0  0  0
   25.2821  -14.6264  -15.3885 C   0  0  0  0  0  0  0  0  0  0  0  0
   23.2586  -17.3525  -16.5025 O   0  0  0  0  0  0  0  0  0  0  0  0
   22.9334  -17.5455  -17.6983 N   0  0  0  0  0  0  0  0  0  0  0  0
   18.5089  -18.5487  -12.3369 C   0  0  0  0  0  0  0  0  0  0  0  0
   17.8600  -18.4110  -13.6038 O   0  0  0  0  0  0  0  0  0  0  0  0
   16.6283  -18.6157  -13.6225 C   0  0  0  0  0  0  0  0  0  0  0  0
   18.6574  -18.0483  -14.7750 C   0  0  0  0  0  0  0  0  0  0  0  0
   20.0978  -17.7880  -14.5415 C   0  0  2  0  0  0  0  0  0  0  0  0
   20.8285  -17.4428  -15.7896 N   0  0  0  0  0  0  0  0  0  0  0  0
   22.2613  -17.2765  -15.5184 C   0  0  0  0  0  0  0  0  0  0  0  0
   20.2958  -16.2922  -16.5321 O   0  0  0  0  0  0  0  0  0  0  0  0
   19.2628  -16.4888  -17.4178 O   0  0  0  0  0  0  0  0  0  0  0  0
  2  1  1  0
  3  2  2  0
  4  2  1  0
  5  6  1  0
  5  4  1  0
  7  6  1  0
  8  7  1  0
  8  9  1  6
 10 11  2  0
 10  8  1  0
 12 10  1  0
 13 12  1  0
 14 15  1  0
 13 14  1  1
 16 13  1  0
 16 24  1  0
 17 16  2  0
 19 18  1  0
 19 20  2  0
 21 19  1  0
 22 21  1  0
 23 24  1  0
 23 22  1  6
 25 23  1  0
 26 25  1  0
 27 25  2  0
M  END
$$$$
