RCQ.pdb
     RDKit          3D

 27 26  0  0  1  0  0  0  0  0999 V2000
   22.8340  -20.9751   -8.3052 N   0  0  0  0  0  0  0  0  0  0  0  0
   21.5739  -21.6007   -8.4994 C   0  0  0  0  0  0  0  0  0  0  0  0
   20.8453  -21.9600   -7.5211 N   0  0  0  0  0  0  0  0  0  0  0  0
   21.1379  -21.8176   -9.8378 N   0  0  0  0  0  0  0  0  0  0  0  0
   21.9533  -21.4550  -10.9808 C   0  0  0  0  0  0  0  0  0  0  0  0
   21.9312  -19.9629  -11.0716 C   0  0  0  0  0  0  0  0  0  0  0  0
   22.6422  -19.3495  -12.2065 C   0  0  0  0  0  0  0  0  0  0  0  0
   23.5762  -20.2097  -12.9858 C   0  0  2  0  0  0  0  0  0  0  0  0
   23.6944  -21.5581  -12.4945 N   0  0  0  0  0  0  0  0  0  0  0  0
   24.9217  -19.5802  -13.1713 C   0  0  0  0  0  0  0  0  0  0  0  0
   24.9573  -18.3819  -13.5515 O   0  0  0  0  0  0  0  0  0  0  0  0
   19.9423  -22.4134   -7.6720 N   0  0  0  0  0  0  0  0  0  0  0  0
   26.1367  -20.2357  -12.9497 C   0  0  2  0  0  0  0  0  0  0  0  0
   27.2088  -20.3392  -13.9364 C   0  0  0  0  0  0  0  0  0  0  0  0
   28.4210  -20.7869  -13.0994 S   0  0  0  0  0  0  0  0  0  0  0  0
   28.1050  -20.6928  -11.3482 C   0  0  0  0  0  0  0  0  0  0  0  0
   26.8717  -21.3058  -14.9959 O   0  0  0  0  0  0  0  0  0  0  0  0
   25.9497  -22.1335  -14.8015 N   0  0  0  0  0  0  0  0  0  0  0  0
   24.5343  -17.4322  -16.4242 C   0  0  0  0  0  0  0  0  0  0  0  0
   23.9217  -18.6665  -16.8071 O   0  0  0  0  0  0  0  0  0  0  0  0
   22.6751  -18.7094  -16.7498 C   0  0  0  0  0  0  0  0  0  0  0  0
   24.7704  -19.7792  -17.2321 C   0  0  0  0  0  0  0  0  0  0  0  0
   26.2335  -19.5425  -17.2115 C   0  0  2  0  0  0  0  0  0  0  0  0
   27.0187  -20.7784  -17.4701 N   0  0  0  0  0  0  0  0  0  0  0  0
   27.5629  -21.3146  -16.2169 C   0  0  0  0  0  0  0  0  0  0  0  0
   28.0692  -20.6537  -18.4899 O   0  0  0  0  0  0  0  0  0  0  0  0
   29.3053  -20.1781  -18.1211 O   0  0  0  0  0  0  0  0  0  0  0  0
  2  1  1  0
  3  2  2  0
  4  2  1  0
  5  6  1  0
  5  4  1  0
  7  6  1  0
  8  7  1  0
  8  9  1  1
 10 11  2  0
 10  8  1  0
 12 10  1  0
 13 12  1  0
 14 15  1  0
 13 14  1  1
 16 13  1  0
 16 24  1  0
 17 16  2  0
 19 18  1  0
 19 20  2  0
 21 19  1  0
 22 21  1  0
 23 24  1  0
 23 22  1  1
 25 23  1  0
 26 25  1  0
 27 25  2  0
M  END
$$$$
