RCQ.pdb
     RDKit          3D

 27 26  0  0  1  0  0  0  0  0999 V2000
   12.7207  -15.1201  -16.8918 N   0  0  0  0  0  0  0  0  0  0  0  0
   13.6649  -15.8334  -17.6771 C   0  0  0  0  0  0  0  0  0  0  0  0
   13.3177  -16.7911  -18.4381 N   0  0  0  0  0  0  0  0  0  0  0  0
   15.0318  -15.4425  -17.5920 N   0  0  0  0  0  0  0  0  0  0  0  0
   15.4718  -14.3669  -16.7246 C   0  0  0  0  0  0  0  0  0  0  0  0
   16.9594  -14.2900  -16.8519 C   0  0  0  0  0  0  0  0  0  0  0  0
   17.6404  -13.2094  -16.1182 C   0  0  0  0  0  0  0  0  0  0  0  0
   18.3769  -12.1882  -16.9146 C   0  0  2  0  0  0  0  0  0  0  0  0
   19.1451  -12.7256  -18.0076 N   0  0  0  0  0  0  0  0  0  0  0  0
   19.2082  -11.2809  -16.0620 C   0  0  0  0  0  0  0  0  0  0  0  0
   18.6532  -10.7428  -15.0699 O   0  0  0  0  0  0  0  0  0  0  0  0
   14.0074  -17.3090  -18.9856 N   0  0  0  0  0  0  0  0  0  0  0  0
   20.5566  -10.9946  -16.2961 C   0  0  1  0  0  0  0  0  0  0  0  0
   21.3814  -10.1516  -15.4342 C   0  0  0  0  0  0  0  0  0  0  0  0
   22.7837  -10.7736  -15.5645 S   0  0  0  0  0  0  0  0  0  0  0  0
   24.0192   -9.8474  -14.6749 C   0  0  0  0  0  0  0  0  0  0  0  0
   21.3498   -8.7448  -15.8703 O   0  0  0  0  0  0  0  0  0  0  0  0
   21.4969   -8.4751  -17.0863 N   0  0  0  0  0  0  0  0  0  0  0  0
   17.4024   -4.6670  -16.5338 C   0  0  0  0  0  0  0  0  0  0  0  0
   18.5507   -3.8152  -16.5039 O   0  0  0  0  0  0  0  0  0  0  0  0
   18.3676   -2.6238  -16.8303 C   0  0  0  0  0  0  0  0  0  0  0  0
   19.8410   -4.3756  -16.1036 C   0  0  0  0  0  0  0  0  0  0  0  0
   19.8427   -5.7937  -15.6725 C   0  0  2  0  0  0  0  0  0  0  0  0
   21.1985   -6.2797  -15.3028 N   0  0  0  0  0  0  0  0  0  0  0  0
   21.1567   -7.7037  -14.9497 C   0  0  0  0  0  0  0  0  0  0  0  0
   21.8842   -5.4992  -14.2638 O   0  0  0  0  0  0  0  0  0  0  0  0
   22.3851   -4.2588  -14.5813 O   0  0  0  0  0  0  0  0  0  0  0  0
  2  1  1  0
  3  2  2  0
  4  2  1  0
  5  6  1  0
  5  4  1  0
  7  6  1  0
  8  7  1  0
  8  9  1  6
 10 11  2  0
 10  8  1  0
 12 10  1  0
 13 12  1  0
 14 15  1  0
 13 14  1  1
 16 13  1  0
 16 24  1  0
 17 16  2  0
 19 18  1  0
 19 20  2  0
 21 19  1  0
 22 21  1  0
 23 24  1  0
 23 22  1  6
 25 23  1  0
 26 25  1  0
 27 25  2  0
M  END
$$$$
