KKE.pdb
     RDKit          3D

 28 27  0  0  1  0  0  0  0  0999 V2000
   16.2376  -15.3156  -16.2747 N   0  0  0  0  0  0  0  0  0  0  0  0
   16.3631  -13.9373  -16.6774 C   0  0  1  0  0  0  0  0  0  0  0  0
   15.1722  -13.0972  -16.3781 C   0  0  0  0  0  0  0  0  0  0  0  0
   13.9380  -13.6143  -17.0180 C   0  0  0  0  0  0  0  0  0  0  0  0
   12.6888  -12.8396  -16.7953 C   0  0  0  0  0  0  0  0  0  0  0  0
   11.4626  -13.4899  -17.3901 C   0  0  0  0  0  0  0  0  0  0  0  0
   11.4760  -13.3442  -18.8319 N   0  0  0  0  0  0  0  0  0  0  0  0
   17.6248  -13.3312  -16.1224 C   0  0  0  0  0  0  0  0  0  0  0  0
   17.9396  -13.5019  -14.9179 O   0  0  0  0  0  0  0  0  0  0  0  0
   18.4699  -12.5642  -16.9429 N   0  0  0  0  0  0  0  0  0  0  0  0
   19.7477  -12.0069  -16.5495 C   0  0  1  0  0  0  0  0  0  0  0  0
   20.6486  -12.0474  -17.7478 C   0  0  0  0  0  0  0  0  0  0  0  0
   21.1113  -13.4474  -17.9931 C   0  0  0  0  0  0  0  0  0  0  0  0
   22.0890  -13.4869  -19.1217 C   0  0  0  0  0  0  0  0  0  0  0  0
   22.4521  -14.9001  -19.4992 C   0  0  0  0  0  0  0  0  0  0  0  0
   23.2479  -14.9589  -20.7060 N   0  0  0  0  0  0  0  0  0  0  0  0
   19.5325  -10.5612  -16.2145 C   0  0  0  0  0  0  0  0  0  0  0  0
   18.7827   -9.8894  -16.9501 O   0  0  0  0  0  0  0  0  0  0  0  0
   20.1977  -10.0433  -15.0759 N   0  0  0  0  0  0  0  0  0  0  0  0
   20.0022   -8.6125  -14.7805 C   0  0  1  0  0  0  0  0  0  0  0  0
   19.1227   -8.5515  -13.5922 C   0  0  0  0  0  0  0  0  0  0  0  0
   18.8984   -7.1934  -13.0129 C   0  0  0  0  0  0  0  0  0  0  0  0
   17.9358   -7.2752  -11.8976 C   0  0  0  0  0  0  0  0  0  0  0  0
   17.4263   -8.3986  -11.6023 O   0  0  0  0  0  0  0  0  0  0  0  0
   21.2559   -7.9112  -14.8240 C   0  0  0  0  0  0  0  0  0  0  0  0
   22.3376   -8.5747  -14.8322 O   0  0  0  0  0  0  0  0  0  0  0  0
   17.5368   -6.1921  -11.1306 O   0  0  0  0  0  0  0  0  0  0  0  0
   21.4315   -6.5258  -14.8685 O   0  0  0  0  0  0  0  0  0  0  0  0
  2  1  1  1
  3  4  1  0
  3  2  1  0
  4  5  1  0
  6  5  1  0
  7  6  1  0
  8  2  1  0
  8  9  2  0
 10  8  1  0
 11 10  1  0
 11 12  1  6
 13 12  1  0
 14 13  1  0
 15 14  1  0
 16 15  1  0
 17 11  1  0
 18 17  2  0
 19 17  1  0
 20 21  1  1
 20 19  1  0
 22 21  1  0
 23 22  1  0
 23 24  2  0
 25 20  1  0
 26 25  2  0
 27 23  1  0
 28 25  1  0
M  END
$$$$
