KKE.pdb
     RDKit          3D

 28 27  0  0  1  0  0  0  0  0999 V2000
   14.7050  -10.2139  -13.3987 N   0  0  0  0  0  0  0  0  0  0  0  0
   16.0058   -9.9914  -12.8190 C   0  0  1  0  0  0  0  0  0  0  0  0
   17.1447  -10.3821  -13.6928 C   0  0  0  0  0  0  0  0  0  0  0  0
   16.8673  -11.6155  -14.4687 C   0  0  0  0  0  0  0  0  0  0  0  0
   17.8567  -11.9909  -15.5128 C   0  0  0  0  0  0  0  0  0  0  0  0
   17.5758  -13.3280  -16.1560 C   0  0  0  0  0  0  0  0  0  0  0  0
   17.8699  -14.3969  -15.2226 N   0  0  0  0  0  0  0  0  0  0  0  0
   16.1387   -8.5722  -12.3335 C   0  0  0  0  0  0  0  0  0  0  0  0
   15.6752   -7.6196  -13.0093 O   0  0  0  0  0  0  0  0  0  0  0  0
   16.7842   -8.2908  -11.1170 N   0  0  0  0  0  0  0  0  0  0  0  0
   16.9727   -6.9720  -10.5484 C   0  0  1  0  0  0  0  0  0  0  0  0
   16.6645   -7.0613   -9.0834 C   0  0  0  0  0  0  0  0  0  0  0  0
   15.2572   -6.6261   -8.8291 C   0  0  0  0  0  0  0  0  0  0  0  0
   14.3385   -7.8038   -8.8121 C   0  0  0  0  0  0  0  0  0  0  0  0
   12.9259   -7.4076   -8.4673 C   0  0  0  0  0  0  0  0  0  0  0  0
   12.0100   -8.5255   -8.5349 N   0  0  0  0  0  0  0  0  0  0  0  0
   18.4268   -6.6260  -10.6677 C   0  0  0  0  0  0  0  0  0  0  0  0
   19.2565   -7.3500  -10.0827 O   0  0  0  0  0  0  0  0  0  0  0  0
   18.7721   -5.4912  -11.4423 N   0  0  0  0  0  0  0  0  0  0  0  0
   20.1312   -5.4587  -12.0118 C   0  0  1  0  0  0  0  0  0  0  0  0
   20.2942   -6.7208  -12.7666 C   0  0  0  0  0  0  0  0  0  0  0  0
   21.5806   -6.8784  -13.5086 C   0  0  0  0  0  0  0  0  0  0  0  0
   21.6472   -8.2196  -14.1203 C   0  0  0  0  0  0  0  0  0  0  0  0
   20.9886   -8.4489  -15.1797 O   0  0  0  0  0  0  0  0  0  0  0  0
   20.3957   -4.1821  -12.6167 C   0  0  0  0  0  0  0  0  0  0  0  0
   19.4260   -3.4911  -13.0555 O   0  0  0  0  0  0  0  0  0  0  0  0
   22.3923   -9.2722  -13.6128 O   0  0  0  0  0  0  0  0  0  0  0  0
   21.6475   -3.5830  -12.7783 O   0  0  0  0  0  0  0  0  0  0  0  0
  2  1  1  6
  3  4  1  0
  3  2  1  0
  4  5  1  0
  6  5  1  0
  7  6  1  0
  8  2  1  0
  8  9  2  0
 10  8  1  0
 11 10  1  0
 11 12  1  1
 13 12  1  0
 14 13  1  0
 15 14  1  0
 16 15  1  0
 17 11  1  0
 18 17  2  0
 19 17  1  0
 20 21  1  6
 20 19  1  0
 22 21  1  0
 23 22  1  0
 23 24  2  0
 25 20  1  0
 26 25  2  0
 27 23  1  0
 28 25  1  0
M  END
$$$$
