KKE.pdb
     RDKit          3D

 28 27  0  0  1  0  0  0  0  0999 V2000
   15.5933  -12.4066  -12.6996 N   0  0  0  0  0  0  0  0  0  0  0  0
   15.7872  -11.4486  -13.7590 C   0  0  1  0  0  0  0  0  0  0  0  0
   14.9744  -11.7055  -14.9783 C   0  0  0  0  0  0  0  0  0  0  0  0
   15.1632  -13.0784  -15.5070 C   0  0  0  0  0  0  0  0  0  0  0  0
   16.3385  -13.3046  -16.3888 C   0  0  0  0  0  0  0  0  0  0  0  0
   16.4491  -14.7236  -16.8930 C   0  0  0  0  0  0  0  0  0  0  0  0
   17.7105  -14.9062  -17.5828 N   0  0  0  0  0  0  0  0  0  0  0  0
   15.5982  -10.0440  -13.2504 C   0  0  0  0  0  0  0  0  0  0  0  0
   15.4795   -9.0844  -14.0529 O   0  0  0  0  0  0  0  0  0  0  0  0
   15.5521   -9.7841  -11.8698 N   0  0  0  0  0  0  0  0  0  0  0  0
   15.3348   -8.4869  -11.2632 C   0  0  1  0  0  0  0  0  0  0  0  0
   14.8624   -8.7163   -9.8585 C   0  0  0  0  0  0  0  0  0  0  0  0
   13.3723   -8.8320   -9.8323 C   0  0  0  0  0  0  0  0  0  0  0  0
   12.8788   -8.9388   -8.4265 C   0  0  0  0  0  0  0  0  0  0  0  0
   11.3732   -8.9569   -8.3611 C   0  0  0  0  0  0  0  0  0  0  0  0
   10.8840   -9.0823   -7.0053 N   0  0  0  0  0  0  0  0  0  0  0  0
   16.6632   -7.7976  -11.1693 C   0  0  0  0  0  0  0  0  0  0  0  0
   17.5636   -8.3387  -10.4976 O   0  0  0  0  0  0  0  0  0  0  0  0
   16.8158   -6.5664  -11.8534 N   0  0  0  0  0  0  0  0  0  0  0  0
   18.1423   -5.9268  -11.7912 C   0  0  1  0  0  0  0  0  0  0  0  0
   19.1108   -6.9339  -12.2778 C   0  0  0  0  0  0  0  0  0  0  0  0
   20.5275   -6.4763  -12.3955 C   0  0  0  0  0  0  0  0  0  0  0  0
   21.3676   -7.5707  -12.9188 C   0  0  0  0  0  0  0  0  0  0  0  0
   20.8262   -8.6800  -13.2103 O   0  0  0  0  0  0  0  0  0  0  0  0
   18.0919   -4.6026  -12.3477 C   0  0  0  0  0  0  0  0  0  0  0  0
   19.1355   -3.8809  -12.3261 O   0  0  0  0  0  0  0  0  0  0  0  0
   22.7355   -7.4759  -13.1204 O   0  0  0  0  0  0  0  0  0  0  0  0
   16.9842   -3.9932  -12.9423 O   0  0  0  0  0  0  0  0  0  0  0  0
  2  1  1  1
  3  4  1  0
  3  2  1  0
  4  5  1  0
  6  5  1  0
  7  6  1  0
  8  2  1  0
  8  9  2  0
 10  8  1  0
 11 10  1  0
 11 12  1  1
 13 12  1  0
 14 13  1  0
 15 14  1  0
 16 15  1  0
 17 11  1  0
 18 17  2  0
 19 17  1  0
 20 21  1  6
 20 19  1  0
 22 21  1  0
 23 22  1  0
 23 24  2  0
 25 20  1  0
 26 25  2  0
 27 23  1  0
 28 25  1  0
M  END
$$$$
