KKE.pdb
     RDKit          3D

 28 27  0  0  1  0  0  0  0  0999 V2000
   21.3023  -14.4094  -17.4425 N   0  0  0  0  0  0  0  0  0  0  0  0
   21.5367  -13.4695  -18.5099 C   0  0  1  0  0  0  0  0  0  0  0  0
   21.2867  -14.0105  -19.8731 C   0  0  0  0  0  0  0  0  0  0  0  0
   22.3427  -14.9557  -20.3107 C   0  0  0  0  0  0  0  0  0  0  0  0
   22.2288  -16.3596  -19.8352 C   0  0  0  0  0  0  0  0  0  0  0  0
   23.3719  -17.2407  -20.2794 C   0  0  0  0  0  0  0  0  0  0  0  0
   23.1614  -18.5964  -19.8123 N   0  0  0  0  0  0  0  0  0  0  0  0
   20.7786  -12.1905  -18.2716 C   0  0  0  0  0  0  0  0  0  0  0  0
   20.8310  -11.2518  -19.1054 O   0  0  0  0  0  0  0  0  0  0  0  0
   20.0009  -12.0262  -17.1123 N   0  0  0  0  0  0  0  0  0  0  0  0
   19.2118  -10.8563  -16.7857 C   0  0  1  0  0  0  0  0  0  0  0  0
   17.8780  -11.3322  -16.2919 C   0  0  0  0  0  0  0  0  0  0  0  0
   16.9677  -11.5933  -17.4485 C   0  0  0  0  0  0  0  0  0  0  0  0
   15.6709  -12.1654  -16.9770 C   0  0  0  0  0  0  0  0  0  0  0  0
   14.4949  -11.3447  -17.4405 C   0  0  0  0  0  0  0  0  0  0  0  0
   13.2416  -11.8293  -16.9043 N   0  0  0  0  0  0  0  0  0  0  0  0
   19.8790  -10.1607  -15.6370 C   0  0  0  0  0  0  0  0  0  0  0  0
   20.5255  -10.8500  -14.8236 O   0  0  0  0  0  0  0  0  0  0  0  0
   19.7337   -8.7545  -15.5449 N   0  0  0  0  0  0  0  0  0  0  0  0
   20.4988   -8.0711  -14.4865 C   0  0  1  0  0  0  0  0  0  0  0  0
   21.0783   -6.8610  -15.1103 C   0  0  0  0  0  0  0  0  0  0  0  0
   21.8597   -5.9676  -14.2038 C   0  0  0  0  0  0  0  0  0  0  0  0
   22.3384   -4.7883  -14.9504 C   0  0  0  0  0  0  0  0  0  0  0  0
   22.1943   -4.7541  -16.2100 O   0  0  0  0  0  0  0  0  0  0  0  0
   19.7301   -7.9967  -13.2744 C   0  0  0  0  0  0  0  0  0  0  0  0
   18.4647   -7.9324  -13.3457 O   0  0  0  0  0  0  0  0  0  0  0  0
   22.9480   -3.6896  -14.3655 O   0  0  0  0  0  0  0  0  0  0  0  0
   20.2328   -7.9949  -11.9709 O   0  0  0  0  0  0  0  0  0  0  0  0
  2  1  1  1
  3  4  1  0
  3  2  1  0
  4  5  1  0
  6  5  1  0
  7  6  1  0
  8  2  1  0
  8  9  2  0
 10  8  1  0
 11 10  1  0
 11 12  1  1
 13 12  1  0
 14 13  1  0
 15 14  1  0
 16 15  1  0
 17 11  1  0
 18 17  2  0
 19 17  1  0
 20 21  1  6
 20 19  1  0
 22 21  1  0
 23 22  1  0
 23 24  2  0
 25 20  1  0
 26 25  2  0
 27 23  1  0
 28 25  1  0
M  END
$$$$
