KKE.pdb
     RDKit          3D

 28 27  0  0  1  0  0  0  0  0999 V2000
   21.2122  -26.0881  -14.2324 N   0  0  0  0  0  0  0  0  0  0  0  0
   19.8643  -25.5836  -14.1528 C   0  0  1  0  0  0  0  0  0  0  0  0
   19.0605  -25.7760  -15.3900 C   0  0  0  0  0  0  0  0  0  0  0  0
   19.5085  -24.8994  -16.4995 C   0  0  0  0  0  0  0  0  0  0  0  0
   19.1908  -23.4517  -16.3841 C   0  0  0  0  0  0  0  0  0  0  0  0
   19.5155  -22.6625  -17.6299 C   0  0  0  0  0  0  0  0  0  0  0  0
   19.2653  -21.2534  -17.4016 N   0  0  0  0  0  0  0  0  0  0  0  0
   19.1591  -26.1321  -12.9407 C   0  0  0  0  0  0  0  0  0  0  0  0
   17.9617  -25.8309  -12.7072 O   0  0  0  0  0  0  0  0  0  0  0  0
   19.8295  -26.9892  -12.0510 N   0  0  0  0  0  0  0  0  0  0  0  0
   19.2562  -27.5852  -10.8618 C   0  0  1  0  0  0  0  0  0  0  0  0
   20.2359  -28.5953  -10.3431 C   0  0  0  0  0  0  0  0  0  0  0  0
   20.4024  -29.7021  -11.3337 C   0  0  0  0  0  0  0  0  0  0  0  0
   21.4345  -30.6751  -10.8651 C   0  0  0  0  0  0  0  0  0  0  0  0
   21.6702  -31.7706  -11.8729 C   0  0  0  0  0  0  0  0  0  0  0  0
   22.7415  -32.6590  -11.4777 N   0  0  0  0  0  0  0  0  0  0  0  0
   19.1443  -26.5118   -9.8207 C   0  0  0  0  0  0  0  0  0  0  0  0
   19.6083  -25.3844  -10.0819 O   0  0  0  0  0  0  0  0  0  0  0  0
   18.5144  -26.8455   -8.5964 N   0  0  0  0  0  0  0  0  0  0  0  0
   18.3172  -25.7533   -7.6263 C   0  0  1  0  0  0  0  0  0  0  0  0
   17.6377  -24.6640   -8.3619 C   0  0  0  0  0  0  0  0  0  0  0  0
   16.2527  -24.3344   -7.9108 C   0  0  0  0  0  0  0  0  0  0  0  0
   15.7101  -23.2271   -8.7213 C   0  0  0  0  0  0  0  0  0  0  0  0
   15.8521  -22.0349   -8.3126 O   0  0  0  0  0  0  0  0  0  0  0  0
   17.7948  -26.2640   -6.3888 C   0  0  0  0  0  0  0  0  0  0  0  0
   17.1289  -27.3443   -6.3957 O   0  0  0  0  0  0  0  0  0  0  0  0
   15.0412  -23.3954   -9.9234 O   0  0  0  0  0  0  0  0  0  0  0  0
   17.9469  -25.6912   -5.1236 O   0  0  0  0  0  0  0  0  0  0  0  0
  2  1  1  6
  3  4  1  0
  3  2  1  0
  4  5  1  0
  6  5  1  0
  7  6  1  0
  8  2  1  0
  8  9  2  0
 10  8  1  0
 11 10  1  0
 11 12  1  1
 13 12  1  0
 14 13  1  0
 15 14  1  0
 16 15  1  0
 17 11  1  0
 18 17  2  0
 19 17  1  0
 20 21  1  6
 20 19  1  0
 22 21  1  0
 23 22  1  0
 23 24  2  0
 25 20  1  0
 26 25  2  0
 27 23  1  0
 28 25  1  0
M  END
$$$$
