KKE.pdb
     RDKit          3D

 28 27  0  0  1  0  0  0  0  0999 V2000
   19.0601  -26.9402   -9.6771 N   0  0  0  0  0  0  0  0  0  0  0  0
   18.8602  -26.6093  -11.0656 C   0  0  1  0  0  0  0  0  0  0  0  0
   17.4394  -26.3885  -11.4479 C   0  0  0  0  0  0  0  0  0  0  0  0
   16.6295  -27.6283  -11.3616 C   0  0  0  0  0  0  0  0  0  0  0  0
   15.1774  -27.5057  -11.6552 C   0  0  0  0  0  0  0  0  0  0  0  0
   14.4298  -28.8137  -11.5538 C   0  0  0  0  0  0  0  0  0  0  0  0
   13.0091  -28.5858  -11.7272 N   0  0  0  0  0  0  0  0  0  0  0  0
   19.7312  -25.4493  -11.4693 C   0  0  0  0  0  0  0  0  0  0  0  0
   19.7939  -24.4180  -10.7541 O   0  0  0  0  0  0  0  0  0  0  0  0
   20.4875  -25.5017  -12.6529 N   0  0  0  0  0  0  0  0  0  0  0  0
   21.4390  -24.5009  -13.0900 C   0  0  1  0  0  0  0  0  0  0  0  0
   22.3811  -25.1604  -14.0526 C   0  0  0  0  0  0  0  0  0  0  0  0
   23.4669  -24.2086  -14.4392 C   0  0  0  0  0  0  0  0  0  0  0  0
   24.4345  -24.8655  -15.3686 C   0  0  0  0  0  0  0  0  0  0  0  0
   25.5617  -23.9405  -15.7494 C   0  0  0  0  0  0  0  0  0  0  0  0
   26.5173  -24.5738  -16.6320 N   0  0  0  0  0  0  0  0  0  0  0  0
   20.6853  -23.4595  -13.8619 C   0  0  0  0  0  0  0  0  0  0  0  0
   19.8099  -23.8375  -14.6652 O   0  0  0  0  0  0  0  0  0  0  0  0
   21.0153  -22.1013  -13.6303 N   0  0  0  0  0  0  0  0  0  0  0  0
   20.2209  -21.0884  -14.3485 C   0  0  1  0  0  0  0  0  0  0  0  0
   20.3714  -19.8284  -13.5875 C   0  0  0  0  0  0  0  0  0  0  0  0
   19.6860  -18.6317  -14.1607 C   0  0  0  0  0  0  0  0  0  0  0  0
   19.9971  -17.4381  -13.3507 C   0  0  0  0  0  0  0  0  0  0  0  0
   20.6135  -17.5809  -12.2514 O   0  0  0  0  0  0  0  0  0  0  0  0
   20.4818  -21.1489  -15.7605 C   0  0  0  0  0  0  0  0  0  0  0  0
   19.5080  -21.1071  -16.5732 O   0  0  0  0  0  0  0  0  0  0  0  0
   19.6586  -16.1427  -13.7087 O   0  0  0  0  0  0  0  0  0  0  0  0
   21.7352  -21.2442  -16.3703 O   0  0  0  0  0  0  0  0  0  0  0  0
  2  1  1  1
  3  4  1  0
  3  2  1  0
  4  5  1  0
  6  5  1  0
  7  6  1  0
  8  2  1  0
  8  9  2  0
 10  8  1  0
 11 10  1  0
 11 12  1  6
 13 12  1  0
 14 13  1  0
 15 14  1  0
 16 15  1  0
 17 11  1  0
 18 17  2  0
 19 17  1  0
 20 21  1  1
 20 19  1  0
 22 21  1  0
 23 22  1  0
 23 24  2  0
 25 20  1  0
 26 25  2  0
 27 23  1  0
 28 25  1  0
M  END
$$$$
