KKE.pdb
     RDKit          3D

 28 27  0  0  1  0  0  0  0  0999 V2000
   22.5908  -20.1716  -13.8088 N   0  0  0  0  0  0  0  0  0  0  0  0
   21.7486  -19.6834  -14.8718 C   0  0  1  0  0  0  0  0  0  0  0  0
   20.2915  -19.7316  -14.5748 C   0  0  0  0  0  0  0  0  0  0  0  0
   19.6747  -21.0217  -14.9688 C   0  0  0  0  0  0  0  0  0  0  0  0
   18.2122  -21.1651  -14.7440 C   0  0  0  0  0  0  0  0  0  0  0  0
   17.6821  -22.5374  -15.0847 C   0  0  0  0  0  0  0  0  0  0  0  0
   16.2735  -22.6193  -14.7541 N   0  0  0  0  0  0  0  0  0  0  0  0
   22.1819  -18.3090  -15.3084 C   0  0  0  0  0  0  0  0  0  0  0  0
   22.4289  -17.4168  -14.4587 O   0  0  0  0  0  0  0  0  0  0  0  0
   22.3162  -18.0023  -16.6735 N   0  0  0  0  0  0  0  0  0  0  0  0
   22.8299  -16.7594  -17.2115 C   0  0  1  0  0  0  0  0  0  0  0  0
   23.7543  -17.1020  -18.3417 C   0  0  0  0  0  0  0  0  0  0  0  0
   25.1628  -17.1750  -17.8465 C   0  0  0  0  0  0  0  0  0  0  0  0
   26.1031  -17.4424  -18.9760 C   0  0  0  0  0  0  0  0  0  0  0  0
   27.5319  -17.5345  -18.5056 C   0  0  0  0  0  0  0  0  0  0  0  0
   28.4516  -17.7961  -19.5914 N   0  0  0  0  0  0  0  0  0  0  0  0
   21.6768  -16.0064  -17.8045 C   0  0  0  0  0  0  0  0  0  0  0  0
   20.6449  -16.6414  -18.0988 O   0  0  0  0  0  0  0  0  0  0  0  0
   21.8303  -14.6110  -17.9953 N   0  0  0  0  0  0  0  0  0  0  0  0
   20.6210  -13.8481  -18.3536 C   0  0  1  0  0  0  0  0  0  0  0  0
   19.6242  -14.1324  -17.2978 C   0  0  0  0  0  0  0  0  0  0  0  0
   18.3547  -13.3490  -17.3680 C   0  0  0  0  0  0  0  0  0  0  0  0
   17.5044  -13.6640  -16.2039 C   0  0  0  0  0  0  0  0  0  0  0  0
   16.6621  -12.8045  -15.8034 O   0  0  0  0  0  0  0  0  0  0  0  0
   20.9629  -12.5013  -18.7208 C   0  0  0  0  0  0  0  0  0  0  0  0
   22.0988  -12.0391  -18.3945 O   0  0  0  0  0  0  0  0  0  0  0  0
   17.5581  -14.8557  -15.4985 O   0  0  0  0  0  0  0  0  0  0  0  0
   20.1609  -11.6054  -19.4323 O   0  0  0  0  0  0  0  0  0  0  0  0
  2  1  1  1
  3  4  1  0
  3  2  1  0
  4  5  1  0
  6  5  1  0
  7  6  1  0
  8  2  1  0
  8  9  2  0
 10  8  1  0
 11 10  1  0
 11 12  1  6
 13 12  1  0
 14 13  1  0
 15 14  1  0
 16 15  1  0
 17 11  1  0
 18 17  2  0
 19 17  1  0
 20 21  1  1
 20 19  1  0
 22 21  1  0
 23 22  1  0
 23 24  2  0
 25 20  1  0
 26 25  2  0
 27 23  1  0
 28 25  1  0
M  END
$$$$
