KKE.pdb
     RDKit          3D

 28 27  0  0  1  0  0  0  0  0999 V2000
   20.3156  -12.3542  -18.3111 N   0  0  0  0  0  0  0  0  0  0  0  0
   20.1035  -12.9425  -17.0124 C   0  0  1  0  0  0  0  0  0  0  0  0
   19.0204  -12.3045  -16.2166 C   0  0  0  0  0  0  0  0  0  0  0  0
   19.2047  -10.8390  -16.0802 C   0  0  0  0  0  0  0  0  0  0  0  0
   18.1380  -10.0899  -15.3652 C   0  0  0  0  0  0  0  0  0  0  0  0
   18.3529   -8.5953  -15.3580 C   0  0  0  0  0  0  0  0  0  0  0  0
   17.2904   -7.9468  -14.6159 N   0  0  0  0  0  0  0  0  0  0  0  0
   19.9072  -14.4311  -17.1257 C   0  0  0  0  0  0  0  0  0  0  0  0
   19.0965  -14.9071  -17.9595 O   0  0  0  0  0  0  0  0  0  0  0  0
   20.6272  -15.3116  -16.2999 N   0  0  0  0  0  0  0  0  0  0  0  0
   20.5366  -16.7569  -16.3276 C   0  0  1  0  0  0  0  0  0  0  0  0
   21.7044  -17.2995  -15.5587 C   0  0  0  0  0  0  0  0  0  0  0  0
   21.6914  -18.7937  -15.5955 C   0  0  0  0  0  0  0  0  0  0  0  0
   22.9137  -19.3456  -14.9375 C   0  0  0  0  0  0  0  0  0  0  0  0
   23.0184  -20.8388  -15.1123 C   0  0  0  0  0  0  0  0  0  0  0  0
   24.0574  -21.4166  -14.2879 N   0  0  0  0  0  0  0  0  0  0  0  0
   19.2995  -17.1521  -15.5779 C   0  0  0  0  0  0  0  0  0  0  0  0
   18.9317  -16.4363  -14.6256 O   0  0  0  0  0  0  0  0  0  0  0  0
   18.6197  -18.3213  -15.9996 N   0  0  0  0  0  0  0  0  0  0  0  0
   17.3255  -18.6110  -15.3563 C   0  0  1  0  0  0  0  0  0  0  0  0
   16.4628  -17.4370  -15.6144 C   0  0  0  0  0  0  0  0  0  0  0  0
   15.0349  -17.5695  -15.1974 C   0  0  0  0  0  0  0  0  0  0  0  0
   14.3139  -16.3103  -15.4653 C   0  0  0  0  0  0  0  0  0  0  0  0
   14.1573  -15.4755  -14.5233 O   0  0  0  0  0  0  0  0  0  0  0  0
   16.8923  -19.9450  -15.6696 C   0  0  0  0  0  0  0  0  0  0  0  0
   17.1042  -20.4089  -16.8317 O   0  0  0  0  0  0  0  0  0  0  0  0
   13.7823  -15.9628  -16.6971 O   0  0  0  0  0  0  0  0  0  0  0  0
   16.2447  -20.8323  -14.8062 O   0  0  0  0  0  0  0  0  0  0  0  0
  2  1  1  6
  3  4  1  0
  3  2  1  0
  4  5  1  0
  6  5  1  0
  7  6  1  0
  8  2  1  0
  8  9  2  0
 10  8  1  0
 11 10  1  0
 11 12  1  1
 13 12  1  0
 14 13  1  0
 15 14  1  0
 16 15  1  0
 17 11  1  0
 18 17  2  0
 19 17  1  0
 20 21  1  6
 20 19  1  0
 22 21  1  0
 23 22  1  0
 23 24  2  0
 25 20  1  0
 26 25  2  0
 27 23  1  0
 28 25  1  0
M  END
$$$$
