KKE.pdb
     RDKit          3D

 28 27  0  0  1  0  0  0  0  0999 V2000
   27.5049  -20.2347  -15.0787 N   0  0  0  0  0  0  0  0  0  0  0  0
   26.8947  -19.7478  -13.8671 C   0  0  1  0  0  0  0  0  0  0  0  0
   27.7937  -18.9277  -13.0110 C   0  0  0  0  0  0  0  0  0  0  0  0
   29.0344  -19.6494  -12.6368 C   0  0  0  0  0  0  0  0  0  0  0  0
   28.9674  -20.5271  -11.4387 C   0  0  0  0  0  0  0  0  0  0  0  0
   30.2675  -21.2327  -11.1355 C   0  0  0  0  0  0  0  0  0  0  0  0
   30.1193  -22.0544   -9.9509 N   0  0  0  0  0  0  0  0  0  0  0  0
   25.6065  -19.0290  -14.1690 C   0  0  0  0  0  0  0  0  0  0  0  0
   24.8866  -18.5894  -13.2377 O   0  0  0  0  0  0  0  0  0  0  0  0
   25.1887  -18.8392  -15.4976 N   0  0  0  0  0  0  0  0  0  0  0  0
   23.9255  -18.2625  -15.9095 C   0  0  1  0  0  0  0  0  0  0  0  0
   24.0035  -18.0062  -17.3851 C   0  0  0  0  0  0  0  0  0  0  0  0
   22.7642  -17.3119  -17.8501 C   0  0  0  0  0  0  0  0  0  0  0  0
   22.8563  -16.9927  -19.3065 C   0  0  0  0  0  0  0  0  0  0  0  0
   21.6068  -16.3191  -19.8126 C   0  0  0  0  0  0  0  0  0  0  0  0
   21.7298  -15.8983  -21.1914 N   0  0  0  0  0  0  0  0  0  0  0  0
   22.8608  -19.2979  -15.7026 C   0  0  0  0  0  0  0  0  0  0  0  0
   23.1213  -20.4808  -15.9986 O   0  0  0  0  0  0  0  0  0  0  0  0
   21.6164  -18.8672  -15.1800 N   0  0  0  0  0  0  0  0  0  0  0  0
   20.5949  -19.9035  -14.9455 C   0  0  1  0  0  0  0  0  0  0  0  0
   19.7510  -19.4092  -13.8352 C   0  0  0  0  0  0  0  0  0  0  0  0
   18.6091  -20.2869  -13.4400 C   0  0  0  0  0  0  0  0  0  0  0  0
   17.9064  -19.7058  -12.2799 C   0  0  0  0  0  0  0  0  0  0  0  0
   17.8338  -20.3731  -11.2037 O   0  0  0  0  0  0  0  0  0  0  0  0
   20.0209  -20.3386  -16.1892 C   0  0  0  0  0  0  0  0  0  0  0  0
   19.8597  -21.5801  -16.3969 O   0  0  0  0  0  0  0  0  0  0  0  0
   17.3054  -18.4570  -12.2774 O   0  0  0  0  0  0  0  0  0  0  0  0
   19.5937  -19.5205  -17.2380 O   0  0  0  0  0  0  0  0  0  0  0  0
  2  1  1  6
  3  4  1  0
  3  2  1  0
  4  5  1  0
  6  5  1  0
  7  6  1  0
  8  2  1  0
  8  9  2  0
 10  8  1  0
 11 10  1  0
 11 12  1  6
 13 12  1  0
 14 13  1  0
 15 14  1  0
 16 15  1  0
 17 11  1  0
 18 17  2  0
 19 17  1  0
 20 21  1  1
 20 19  1  0
 22 21  1  0
 23 22  1  0
 23 24  2  0
 25 20  1  0
 26 25  2  0
 27 23  1  0
 28 25  1  0
M  END
$$$$
