KKE.pdb
     RDKit          3D

 28 27  0  0  1  0  0  0  0  0999 V2000
   25.0725  -19.4606  -16.0141 N   0  0  0  0  0  0  0  0  0  0  0  0
   24.4399  -18.1886  -15.7707 C   0  0  1  0  0  0  0  0  0  0  0  0
   25.1555  -17.0227  -16.3556 C   0  0  0  0  0  0  0  0  0  0  0  0
   26.2945  -17.4289  -17.2146 C   0  0  0  0  0  0  0  0  0  0  0  0
   27.0378  -16.3424  -17.9053 C   0  0  0  0  0  0  0  0  0  0  0  0
   28.2144  -16.8364  -18.7126 C   0  0  0  0  0  0  0  0  0  0  0  0
   28.8769  -15.7191  -19.3552 N   0  0  0  0  0  0  0  0  0  0  0  0
   22.9943  -18.2216  -16.1908 C   0  0  0  0  0  0  0  0  0  0  0  0
   22.6829  -18.2377  -17.4081 O   0  0  0  0  0  0  0  0  0  0  0  0
   21.9705  -18.2343  -15.2279 N   0  0  0  0  0  0  0  0  0  0  0  0
   20.5496  -18.2482  -15.5086 C   0  0  1  0  0  0  0  0  0  0  0  0
   19.8946  -19.1332  -14.4904 C   0  0  0  0  0  0  0  0  0  0  0  0
   19.5873  -20.4662  -15.0931 C   0  0  0  0  0  0  0  0  0  0  0  0
   18.7833  -21.2971  -14.1473 C   0  0  0  0  0  0  0  0  0  0  0  0
   18.4392  -22.6412  -14.7358 C   0  0  0  0  0  0  0  0  0  0  0  0
   17.5632  -23.4085  -13.8772 N   0  0  0  0  0  0  0  0  0  0  0  0
   20.0252  -16.8616  -15.2828 C   0  0  0  0  0  0  0  0  0  0  0  0
   20.4560  -16.2187  -14.3052 O   0  0  0  0  0  0  0  0  0  0  0  0
   19.0666  -16.3631  -16.1992 N   0  0  0  0  0  0  0  0  0  0  0  0
   18.6258  -14.9689  -16.0135 C   0  0  1  0  0  0  0  0  0  0  0  0
   19.7379  -14.1163  -16.4885 C   0  0  0  0  0  0  0  0  0  0  0  0
   19.4529  -12.6524  -16.5672 C   0  0  0  0  0  0  0  0  0  0  0  0
   20.6270  -11.9399  -17.1069 C   0  0  0  0  0  0  0  0  0  0  0  0
   21.0920  -10.9455  -16.4718 O   0  0  0  0  0  0  0  0  0  0  0  0
   17.2845  -14.7935  -16.4988 C   0  0  0  0  0  0  0  0  0  0  0  0
   16.4678  -14.0940  -15.8249 O   0  0  0  0  0  0  0  0  0  0  0  0
   21.2749  -12.2832  -18.2830 O   0  0  0  0  0  0  0  0  0  0  0  0
   16.7533  -15.3182  -17.6797 O   0  0  0  0  0  0  0  0  0  0  0  0
  2  1  1  6
  3  4  1  0
  3  2  1  0
  4  5  1  0
  6  5  1  0
  7  6  1  0
  8  2  1  0
  8  9  2  0
 10  8  1  0
 11 10  1  0
 11 12  1  1
 13 12  1  0
 14 13  1  0
 15 14  1  0
 16 15  1  0
 17 11  1  0
 18 17  2  0
 19 17  1  0
 20 21  1  6
 20 19  1  0
 22 21  1  0
 23 22  1  0
 23 24  2  0
 25 20  1  0
 26 25  2  0
 27 23  1  0
 28 25  1  0
M  END
$$$$
