KKE.pdb
     RDKit          3D

 28 27  0  0  1  0  0  0  0  0999 V2000
   24.3592  -20.8424  -14.1959 N   0  0  0  0  0  0  0  0  0  0  0  0
   23.1410  -20.1770  -13.8075 C   0  0  1  0  0  0  0  0  0  0  0  0
   22.7656  -19.0255  -14.6716 C   0  0  0  0  0  0  0  0  0  0  0  0
   23.1069  -19.2511  -16.0973 C   0  0  0  0  0  0  0  0  0  0  0  0
   22.7749  -18.1593  -17.0500 C   0  0  0  0  0  0  0  0  0  0  0  0
   23.3044  -18.3949  -18.4445 C   0  0  0  0  0  0  0  0  0  0  0  0
   22.9781  -17.2671  -19.2942 N   0  0  0  0  0  0  0  0  0  0  0  0
   22.0118  -21.1641  -13.6750 C   0  0  0  0  0  0  0  0  0  0  0  0
   21.7525  -21.9672  -14.6061 O   0  0  0  0  0  0  0  0  0  0  0  0
   21.2294  -21.2024  -12.5080 N   0  0  0  0  0  0  0  0  0  0  0  0
   20.1661  -22.1478  -12.2367 C   0  0  1  0  0  0  0  0  0  0  0  0
   20.1609  -22.4135  -10.7607 C   0  0  0  0  0  0  0  0  0  0  0  0
   19.1861  -23.5004  -10.4399 C   0  0  0  0  0  0  0  0  0  0  0  0
   19.1557  -23.7610   -8.9694 C   0  0  0  0  0  0  0  0  0  0  0  0
   18.1926  -24.8649   -8.6158 C   0  0  0  0  0  0  0  0  0  0  0  0
   18.1580  -25.1289   -7.1937 N   0  0  0  0  0  0  0  0  0  0  0  0
   18.8646  -21.4787  -12.5638 C   0  0  0  0  0  0  0  0  0  0  0  0
   18.7160  -20.2842  -12.2385 O   0  0  0  0  0  0  0  0  0  0  0  0
   17.8771  -22.2485  -13.2266 N   0  0  0  0  0  0  0  0  0  0  0  0
   16.6465  -21.5479  -13.6360 C   0  0  1  0  0  0  0  0  0  0  0  0
   16.5508  -21.7031  -15.1044 C   0  0  0  0  0  0  0  0  0  0  0  0
   15.3285  -21.1319  -15.7447 C   0  0  0  0  0  0  0  0  0  0  0  0
   15.3257  -21.4407  -17.1876 C   0  0  0  0  0  0  0  0  0  0  0  0
   14.2205  -21.6565  -17.7712 O   0  0  0  0  0  0  0  0  0  0  0  0
   15.5536  -21.8978  -12.7708 C   0  0  0  0  0  0  0  0  0  0  0  0
   15.5462  -23.0365  -12.2108 O   0  0  0  0  0  0  0  0  0  0  0  0
   16.4662  -21.5147  -17.9716 O   0  0  0  0  0  0  0  0  0  0  0  0
   14.4554  -21.0945  -12.4537 O   0  0  0  0  0  0  0  0  0  0  0  0
  2  1  1  6
  3  4  1  0
  3  2  1  0
  4  5  1  0
  6  5  1  0
  7  6  1  0
  8  2  1  0
  8  9  2  0
 10  8  1  0
 11 10  1  0
 11 12  1  1
 13 12  1  0
 14 13  1  0
 15 14  1  0
 16 15  1  0
 17 11  1  0
 18 17  2  0
 19 17  1  0
 20 21  1  6
 20 19  1  0
 22 21  1  0
 23 22  1  0
 23 24  2  0
 25 20  1  0
 26 25  2  0
 27 23  1  0
 28 25  1  0
M  END
$$$$
