HTA.pdb
     RDKit          3D

 23 23  0  0  1  0  0  0  0  0999 V2000
   22.6847  -19.3459  -17.8756 N   0  0  0  0  0  0  0  0  0  0  0  0
   22.6708  -19.2017  -16.4576 C   0  0  1  0  0  0  0  0  0  0  0  0
   21.2654  -19.5114  -15.9675 C   0  0  0  0  0  0  0  0  0  0  0  0
   20.3535  -18.4789  -16.4854 C   0  0  0  0  0  0  0  0  0  0  0  0
   20.4192  -17.1311  -16.2355 C   0  0  0  0  0  0  0  0  0  0  0  0
   19.3966  -16.5783  -16.9067 N   0  0  0  0  0  0  0  0  0  0  0  0
   18.7241  -17.5394  -17.5463 C   0  0  0  0  0  0  0  0  0  0  0  0
   19.2948  -18.7182  -17.3018 N   0  0  0  0  0  0  0  0  0  0  0  0
   23.6385  -20.0652  -15.7504 C   0  0  0  0  0  0  0  0  0  0  0  0
   23.5455  -21.2964  -15.8538 O   0  0  0  0  0  0  0  0  0  0  0  0
   27.4564  -19.3818  -15.8203 C   0  0  0  0  0  0  0  0  0  0  0  0
   26.9525  -19.4343  -14.3896 C   0  0  1  0  0  0  0  0  0  0  0  0
   26.5913  -18.1250  -14.0451 O   0  0  0  0  0  0  0  0  0  0  0  0
   25.6579  -20.2573  -14.3132 C   0  0  2  0  0  0  0  0  0  0  0  0
   24.6507  -19.4664  -14.9701 N   0  0  0  0  0  0  0  0  0  0  0  0
   25.3183  -20.3488  -12.8834 C   0  0  0  0  0  0  0  0  0  0  0  0
   24.5104  -19.5237  -12.3913 O   0  0  0  0  0  0  0  0  0  0  0  0
   26.4082  -22.3258   -9.9156 C   0  0  0  0  0  0  0  0  0  0  0  0
   25.6128  -21.2081  -10.5955 C   0  0  2  0  0  0  0  0  0  0  0  0
   25.8629  -21.3351  -12.0153 N   0  0  0  0  0  0  0  0  0  0  0  0
   26.1737  -19.9316  -10.0595 C   0  0  0  0  0  0  0  0  0  0  0  0
   25.6846  -19.4802   -8.8484 O   0  0  0  0  0  0  0  0  0  0  0  0
   27.0415  -19.2707  -10.6401 O   0  0  0  0  0  0  0  0  0  0  0  0
  2  1  1  6
  3  2  1  0
  4  3  1  0
  5  4  2  0
  6  5  1  0
  7  6  1  0
  7  8  2  0
  8  4  1  0
  9  2  1  0
 10  9  2  0
 12 11  1  6
 12 13  1  0
 14 15  1  6
 14 12  1  0
 15  9  1  0
 16 14  1  0
 17 16  2  0
 19 18  1  1
 19 20  1  0
 20 16  1  0
 21 22  1  0
 21 19  1  0
 23 21  2  0
M  END
$$$$
