HTA.pdb
     RDKit          3D

 23 23  0  0  1  0  0  0  0  0999 V2000
   14.5282  -18.8902    3.4381 N   0  0  0  0  0  0  0  0  0  0  0  0
   15.6428  -19.3217    4.2148 C   0  0  1  0  0  0  0  0  0  0  0  0
   16.6776  -19.9069    3.2672 C   0  0  0  0  0  0  0  0  0  0  0  0
   16.1560  -21.1755    2.7338 C   0  0  0  0  0  0  0  0  0  0  0  0
   16.1473  -22.3890    3.3746 C   0  0  0  0  0  0  0  0  0  0  0  0
   15.5821  -23.2564    2.5203 N   0  0  0  0  0  0  0  0  0  0  0  0
   15.2536  -22.6115    1.3973 C   0  0  0  0  0  0  0  0  0  0  0  0
   15.5973  -21.3289    1.5054 N   0  0  0  0  0  0  0  0  0  0  0  0
   16.2668  -18.2558    5.0252 C   0  0  0  0  0  0  0  0  0  0  0  0
   16.3093  -17.0996    4.5821 O   0  0  0  0  0  0  0  0  0  0  0  0
   17.3645  -16.9848    9.6125 C   0  0  0  0  0  0  0  0  0  0  0  0
   16.8075  -17.9460    8.5782 C   0  0  1  0  0  0  0  0  0  0  0  0
   15.4200  -17.7513    8.5584 O   0  0  0  0  0  0  0  0  0  0  0  0
   17.3021  -17.5612    7.1760 C   0  0  2  0  0  0  0  0  0  0  0  0
   16.8022  -18.5796    6.2902 N   0  0  0  0  0  0  0  0  0  0  0  0
   18.7703  -17.6633    7.2207 C   0  0  0  0  0  0  0  0  0  0  0  0
   19.3097  -18.7918    7.1151 O   0  0  0  0  0  0  0  0  0  0  0  0
   21.7048  -15.3773    7.5026 C   0  0  0  0  0  0  0  0  0  0  0  0
   21.0536  -16.7455    7.2830 C   0  0  2  0  0  0  0  0  0  0  0  0
   19.6247  -16.5372    7.3792 N   0  0  0  0  0  0  0  0  0  0  0  0
   21.5502  -17.6107    8.3948 C   0  0  0  0  0  0  0  0  0  0  0  0
   22.7152  -18.3214    8.1769 O   0  0  0  0  0  0  0  0  0  0  0  0
   20.9763  -17.7186    9.4839 O   0  0  0  0  0  0  0  0  0  0  0  0
  2  1  1  6
  3  2  1  0
  4  3  1  0
  5  4  2  0
  6  5  1  0
  7  6  1  0
  7  8  2  0
  8  4  1  0
  9  2  1  0
 10  9  2  0
 12 11  1  1
 12 13  1  0
 14 15  1  6
 14 12  1  0
 15  9  1  0
 16 14  1  0
 17 16  2  0
 19 18  1  1
 19 20  1  0
 20 16  1  0
 21 22  1  0
 21 19  1  0
 23 21  2  0
M  END
$$$$
