HTA.pdb
     RDKit          3D

 23 23  0  0  1  0  0  0  0  0999 V2000
   22.6832  -12.9689  -16.3824 N   0  0  0  0  0  0  0  0  0  0  0  0
   23.5285  -11.8480  -16.6289 C   0  0  1  0  0  0  0  0  0  0  0  0
   24.4075  -12.1763  -17.8250 C   0  0  0  0  0  0  0  0  0  0  0  0
   25.2062  -13.3697  -17.5024 C   0  0  0  0  0  0  0  0  0  0  0  0
   24.9302  -14.6620  -17.8730 C   0  0  0  0  0  0  0  0  0  0  0  0
   25.9186  -15.4138  -17.3634 N   0  0  0  0  0  0  0  0  0  0  0  0
   26.7721  -14.6246  -16.7048 C   0  0  0  0  0  0  0  0  0  0  0  0
   26.3541  -13.3616  -16.7766 N   0  0  0  0  0  0  0  0  0  0  0  0
   22.8040  -10.5861  -16.8841 C   0  0  0  0  0  0  0  0  0  0  0  0
   22.8207  -10.0933  -18.0207 O   0  0  0  0  0  0  0  0  0  0  0  0
   19.2015  -10.1657  -15.9897 C   0  0  0  0  0  0  0  0  0  0  0  0
   19.9774   -9.0580  -15.3008 C   0  0  1  0  0  0  0  0  0  0  0  0
   20.3383   -9.5484  -14.0389 O   0  0  0  0  0  0  0  0  0  0  0  0
   21.2984   -8.7971  -16.0397 C   0  0  2  0  0  0  0  0  0  0  0  0
   22.1067   -9.9683  -15.8240 N   0  0  0  0  0  0  0  0  0  0  0  0
   21.9323   -7.6609  -15.3503 C   0  0  0  0  0  0  0  0  0  0  0  0
   22.6679   -7.8798  -14.3570 O   0  0  0  0  0  0  0  0  0  0  0  0
   22.2361   -3.9727  -15.7687 C   0  0  0  0  0  0  0  0  0  0  0  0
   22.4125   -5.2748  -14.9827 C   0  0  2  0  0  0  0  0  0  0  0  0
   21.7549   -6.3084  -15.7531 N   0  0  0  0  0  0  0  0  0  0  0  0
   21.7233   -5.0526  -13.6762 C   0  0  0  0  0  0  0  0  0  0  0  0
   22.3785   -4.2836  -12.7333 O   0  0  0  0  0  0  0  0  0  0  0  0
   20.6113   -5.5176  -13.4037 O   0  0  0  0  0  0  0  0  0  0  0  0
  2  1  1  6
  3  2  1  0
  4  3  1  0
  5  4  2  0
  6  5  1  0
  7  6  1  0
  7  8  2  0
  8  4  1  0
  9  2  1  0
 10  9  2  0
 12 11  1  6
 12 13  1  0
 14 15  1  1
 14 12  1  0
 15  9  1  0
 16 14  1  0
 17 16  2  0
 19 18  1  6
 19 20  1  0
 20 16  1  0
 21 22  1  0
 21 19  1  0
 23 21  2  0
M  END
$$$$
