HTA.pdb
     RDKit          3D

 23 23  0  0  1  0  0  0  0  0999 V2000
   21.3838  -21.5571  -15.7984 N   0  0  0  0  0  0  0  0  0  0  0  0
   21.1464  -22.9578  -15.6831 C   0  0  1  0  0  0  0  0  0  0  0  0
   22.2205  -23.6835  -16.4775 C   0  0  0  0  0  0  0  0  0  0  0  0
   22.0850  -23.3086  -17.8943 C   0  0  0  0  0  0  0  0  0  0  0  0
   21.2269  -23.8666  -18.8085 C   0  0  0  0  0  0  0  0  0  0  0  0
   21.4442  -23.2205  -19.9648 N   0  0  0  0  0  0  0  0  0  0  0  0
   22.3955  -22.3010  -19.7787 C   0  0  0  0  0  0  0  0  0  0  0  0
   22.8053  -22.3366  -18.5115 N   0  0  0  0  0  0  0  0  0  0  0  0
   21.1402  -23.4599  -14.2938 C   0  0  0  0  0  0  0  0  0  0  0  0
   21.9842  -23.0392  -13.4903 O   0  0  0  0  0  0  0  0  0  0  0  0
   18.5270  -22.8667  -11.9510 C   0  0  0  0  0  0  0  0  0  0  0  0
   18.5828  -24.3709  -12.1465 C   0  0  1  0  0  0  0  0  0  0  0  0
   17.7796  -24.6592  -13.2578 O   0  0  0  0  0  0  0  0  0  0  0  0
   20.0042  -24.8025  -12.5368 C   0  0  2  0  0  0  0  0  0  0  0  0
   20.1698  -24.4108  -13.9118 N   0  0  0  0  0  0  0  0  0  0  0  0
   20.0159  -26.2733  -12.4674 C   0  0  0  0  0  0  0  0  0  0  0  0
   19.5477  -26.9357  -13.4253 O   0  0  0  0  0  0  0  0  0  0  0  0
   21.2412  -28.9487  -10.1845 C   0  0  0  0  0  0  0  0  0  0  0  0
   20.4072  -28.4378  -11.3625 C   0  0  2  0  0  0  0  0  0  0  0  0
   20.5360  -26.9964  -11.3585 N   0  0  0  0  0  0  0  0  0  0  0  0
   19.0029  -28.8563  -11.0728 C   0  0  0  0  0  0  0  0  0  0  0  0
   18.6712  -30.1774  -11.3060 O   0  0  0  0  0  0  0  0  0  0  0  0
   18.1372  -28.0875  -10.6408 O   0  0  0  0  0  0  0  0  0  0  0  0
  2  1  1  1
  3  2  1  0
  4  3  1  0
  5  4  2  0
  6  5  1  0
  7  6  1  0
  7  8  2  0
  8  4  1  0
  9  2  1  0
 10  9  2  0
 12 11  1  6
 12 13  1  0
 14 15  1  6
 14 12  1  0
 15  9  1  0
 16 14  1  0
 17 16  2  0
 19 18  1  1
 19 20  1  0
 20 16  1  0
 21 22  1  0
 21 19  1  0
 23 21  2  0
M  END
$$$$
