HTA.pdb
     RDKit          3D

 23 23  0  0  1  0  0  0  0  0999 V2000
   21.0130  -15.8332  -18.0894 N   0  0  0  0  0  0  0  0  0  0  0  0
   20.2513  -14.7676  -17.5271 C   0  0  1  0  0  0  0  0  0  0  0  0
   19.7577  -15.2132  -16.1600 C   0  0  0  0  0  0  0  0  0  0  0  0
   18.8995  -16.3956  -16.3374 C   0  0  0  0  0  0  0  0  0  0  0  0
   18.6183  -17.0308  -17.5210 C   0  0  0  0  0  0  0  0  0  0  0  0
   17.8019  -18.0501  -17.2109 N   0  0  0  0  0  0  0  0  0  0  0  0
   17.5845  -18.0497  -15.8927 C   0  0  0  0  0  0  0  0  0  0  0  0
   18.2500  -17.0400  -15.3336 N   0  0  0  0  0  0  0  0  0  0  0  0
   20.9933  -13.4976  -17.3909 C   0  0  0  0  0  0  0  0  0  0  0  0
   22.2054  -13.5245  -17.1356 O   0  0  0  0  0  0  0  0  0  0  0  0
   20.6398  -10.8714  -20.0458 C   0  0  0  0  0  0  0  0  0  0  0  0
   20.3654  -10.2047  -18.7102 C   0  0  1  0  0  0  0  0  0  0  0  0
   18.9812  -10.2769  -18.5047 O   0  0  0  0  0  0  0  0  0  0  0  0
   20.9984  -11.0181  -17.5715 C   0  0  2  0  0  0  0  0  0  0  0  0
   20.3025  -12.2779  -17.5550 N   0  0  0  0  0  0  0  0  0  0  0  0
   20.6800  -10.2945  -16.3293 C   0  0  0  0  0  0  0  0  0  0  0  0
   20.0082  -10.8708  -15.4393 O   0  0  0  0  0  0  0  0  0  0  0  0
   21.8530   -9.1099  -13.8208 C   0  0  0  0  0  0  0  0  0  0  0  0
   20.8675   -8.4080  -14.7591 C   0  0  2  0  0  0  0  0  0  0  0  0
   21.0975   -8.9583  -16.0777 N   0  0  0  0  0  0  0  0  0  0  0  0
   21.2256   -6.9587  -14.7077 C   0  0  0  0  0  0  0  0  0  0  0  0
   20.8243   -6.2428  -13.5959 O   0  0  0  0  0  0  0  0  0  0  0  0
   21.8544   -6.3793  -15.5997 O   0  0  0  0  0  0  0  0  0  0  0  0
  2  1  1  1
  3  2  1  0
  4  3  1  0
  5  4  2  0
  6  5  1  0
  7  6  1  0
  7  8  2  0
  8  4  1  0
  9  2  1  0
 10  9  2  0
 12 11  1  6
 12 13  1  0
 14 15  1  1
 14 12  1  0
 15  9  1  0
 16 14  1  0
 17 16  2  0
 19 18  1  1
 19 20  1  0
 20 16  1  0
 21 22  1  0
 21 19  1  0
 23 21  2  0
M  END
$$$$
