HTA.pdb
     RDKit          3D

 23 23  0  0  1  0  0  0  0  0999 V2000
   21.4093   -7.0600  -16.0905 N   0  0  0  0  0  0  0  0  0  0  0  0
   22.5426   -6.6230  -16.8363 C   0  0  1  0  0  0  0  0  0  0  0  0
   23.0346   -7.7934  -17.6726 C   0  0  0  0  0  0  0  0  0  0  0  0
   23.4056   -8.8909  -16.7649 C   0  0  0  0  0  0  0  0  0  0  0  0
   24.3301   -8.8363  -15.7522 C   0  0  0  0  0  0  0  0  0  0  0  0
   24.3414  -10.0565  -15.1931 N   0  0  0  0  0  0  0  0  0  0  0  0
   23.4629  -10.8363  -15.8295 C   0  0  0  0  0  0  0  0  0  0  0  0
   22.8745  -10.1404  -16.8013 N   0  0  0  0  0  0  0  0  0  0  0  0
   22.2801   -5.4666  -17.7172 C   0  0  0  0  0  0  0  0  0  0  0  0
   23.1781   -5.0538  -18.4645 O   0  0  0  0  0  0  0  0  0  0  0  0
   18.8121   -2.6021  -19.6851 C   0  0  0  0  0  0  0  0  0  0  0  0
   19.2639   -3.8468  -18.9431 C   0  0  1  0  0  0  0  0  0  0  0  0
   19.2772   -4.8879  -19.8807 O   0  0  0  0  0  0  0  0  0  0  0  0
   20.7187   -3.6875  -18.4770 C   0  0  2  0  0  0  0  0  0  0  0  0
   21.0081   -4.8558  -17.6878 N   0  0  0  0  0  0  0  0  0  0  0  0
   20.7351   -2.5117  -17.5907 C   0  0  0  0  0  0  0  0  0  0  0  0
   20.2520   -2.6077  -16.4362 O   0  0  0  0  0  0  0  0  0  0  0  0
   22.1614    0.9215  -17.5625 C   0  0  0  0  0  0  0  0  0  0  0  0
   21.2411   -0.1727  -17.0147 C   0  0  2  0  0  0  0  0  0  0  0  0
   21.2762   -1.2540  -17.9758 N   0  0  0  0  0  0  0  0  0  0  0  0
   19.8822    0.4433  -16.9425 C   0  0  0  0  0  0  0  0  0  0  0  0
   19.5760    1.1798  -15.8140 O   0  0  0  0  0  0  0  0  0  0  0  0
   19.0322    0.3265  -17.8317 O   0  0  0  0  0  0  0  0  0  0  0  0
  2  1  1  6
  3  2  1  0
  4  3  1  0
  5  4  2  0
  6  5  1  0
  7  6  1  0
  7  8  2  0
  8  4  1  0
  9  2  1  0
 10  9  2  0
 12 11  1  6
 12 13  1  0
 14 15  1  1
 14 12  1  0
 15  9  1  0
 16 14  1  0
 17 16  2  0
 19 18  1  6
 19 20  1  0
 20 16  1  0
 21 22  1  0
 21 19  1  0
 23 21  2  0
M  END
$$$$
