HTA.pdb
     RDKit          3D

 23 23  0  0  1  0  0  0  0  0999 V2000
   19.8031  -12.8677  -18.5355 N   0  0  0  0  0  0  0  0  0  0  0  0
   19.8627  -11.9995  -17.4067 C   0  0  1  0  0  0  0  0  0  0  0  0
   20.4473  -12.7825  -16.2420 C   0  0  0  0  0  0  0  0  0  0  0  0
   19.5177  -13.8707  -15.8990 C   0  0  0  0  0  0  0  0  0  0  0  0
   18.2402  -13.7323  -15.4169 C   0  0  0  0  0  0  0  0  0  0  0  0
   17.7698  -14.9781  -15.2480 N   0  0  0  0  0  0  0  0  0  0  0  0
   18.7125  -15.8533  -15.6089 C   0  0  0  0  0  0  0  0  0  0  0  0
   19.7978  -15.1947  -16.0133 N   0  0  0  0  0  0  0  0  0  0  0  0
   20.6601  -10.7751  -17.6242 C   0  0  0  0  0  0  0  0  0  0  0  0
   21.8049  -10.8682  -18.0888 O   0  0  0  0  0  0  0  0  0  0  0  0
   20.0895   -8.2223  -19.9532 C   0  0  0  0  0  0  0  0  0  0  0  0
   19.9678   -7.5432  -18.6012 C   0  0  1  0  0  0  0  0  0  0  0  0
   18.6334   -7.6895  -18.1995 O   0  0  0  0  0  0  0  0  0  0  0  0
   20.8028   -8.2942  -17.5535 C   0  0  2  0  0  0  0  0  0  0  0  0
   20.0980   -9.5226  -17.2968 N   0  0  0  0  0  0  0  0  0  0  0  0
   20.7610   -7.4704  -16.3338 C   0  0  0  0  0  0  0  0  0  0  0  0
   19.8150   -7.6233  -15.5230 O   0  0  0  0  0  0  0  0  0  0  0  0
   22.8884   -4.9255  -14.6324 C   0  0  0  0  0  0  0  0  0  0  0  0
   21.6270   -5.7831  -14.7645 C   0  0  2  0  0  0  0  0  0  0  0  0
   21.7479   -6.4959  -16.0181 N   0  0  0  0  0  0  0  0  0  0  0  0
   20.4866   -4.8190  -14.7981 C   0  0  0  0  0  0  0  0  0  0  0  0
   19.9956   -4.3709  -13.5865 O   0  0  0  0  0  0  0  0  0  0  0  0
   19.9697   -4.4099  -15.8433 O   0  0  0  0  0  0  0  0  0  0  0  0
  2  1  1  6
  3  2  1  0
  4  3  1  0
  5  4  2  0
  6  5  1  0
  7  6  1  0
  7  8  2  0
  8  4  1  0
  9  2  1  0
 10  9  2  0
 12 11  1  6
 12 13  1  0
 14 15  1  1
 14 12  1  0
 15  9  1  0
 16 14  1  0
 17 16  2  0
 19 18  1  6
 19 20  1  0
 20 16  1  0
 21 22  1  0
 21 19  1  0
 23 21  2  0
M  END
$$$$
