HTA.pdb
     RDKit          3D

 23 23  0  0  1  0  0  0  0  0999 V2000
   18.6824  -12.3688  -16.3255 N   0  0  0  0  0  0  0  0  0  0  0  0
   18.4310  -10.9757  -16.1581 C   0  0  1  0  0  0  0  0  0  0  0  0
   17.6359  -10.7926  -14.8753 C   0  0  0  0  0  0  0  0  0  0  0  0
   16.2951  -11.3666  -15.0725 C   0  0  0  0  0  0  0  0  0  0  0  0
   15.7585  -11.8002  -16.2589 C   0  0  0  0  0  0  0  0  0  0  0  0
   14.5245  -12.2418  -15.9692 N   0  0  0  0  0  0  0  0  0  0  0  0
   14.3026  -12.0898  -14.6605 C   0  0  0  0  0  0  0  0  0  0  0  0
   15.3788  -11.5527  -14.0875 N   0  0  0  0  0  0  0  0  0  0  0  0
   19.6490  -10.1416  -16.1037 C   0  0  0  0  0  0  0  0  0  0  0  0
   20.6225  -10.5274  -15.4414 O   0  0  0  0  0  0  0  0  0  0  0  0
   22.0304   -6.3564  -18.1464 C   0  0  0  0  0  0  0  0  0  0  0  0
   20.9028   -7.3722  -18.1278 C   0  0  1  0  0  0  0  0  0  0  0  0
   21.2647   -8.3871  -19.0235 O   0  0  0  0  0  0  0  0  0  0  0  0
   20.8172   -8.0443  -16.7494 C   0  0  2  0  0  0  0  0  0  0  0  0
   19.6765   -8.9199  -16.8098 N   0  0  0  0  0  0  0  0  0  0  0  0
   20.5262   -6.9667  -15.7891 C   0  0  0  0  0  0  0  0  0  0  0  0
   19.4157   -6.3838  -15.8400 O   0  0  0  0  0  0  0  0  0  0  0  0
   22.0105   -5.5322  -12.7063 C   0  0  0  0  0  0  0  0  0  0  0  0
   21.0381   -5.4890  -13.8882 C   0  0  2  0  0  0  0  0  0  0  0  0
   21.4473   -6.5428  -14.7917 N   0  0  0  0  0  0  0  0  0  0  0  0
   21.2196   -4.1428  -14.5095 C   0  0  0  0  0  0  0  0  0  0  0  0
   20.4044   -3.1202  -14.0628 O   0  0  0  0  0  0  0  0  0  0  0  0
   22.0522   -3.9049  -15.3911 O   0  0  0  0  0  0  0  0  0  0  0  0
  2  1  1  1
  3  2  1  0
  4  3  1  0
  5  4  2  0
  6  5  1  0
  7  6  1  0
  7  8  2  0
  8  4  1  0
  9  2  1  0
 10  9  2  0
 12 11  1  1
 12 13  1  0
 14 15  1  6
 14 12  1  0
 15  9  1  0
 16 14  1  0
 17 16  2  0
 19 18  1  1
 19 20  1  0
 20 16  1  0
 21 22  1  0
 21 19  1  0
 23 21  2  0
M  END
$$$$
