HTA.pdb
     RDKit          3D

 23 23  0  0  1  0  0  0  0  0999 V2000
   23.4821  -20.6093  -18.6983 N   0  0  0  0  0  0  0  0  0  0  0  0
   23.9044  -21.4021  -17.5916 C   0  0  1  0  0  0  0  0  0  0  0  0
   25.0955  -22.2350  -18.0375 C   0  0  0  0  0  0  0  0  0  0  0  0
   24.6312  -23.2178  -19.0298 C   0  0  0  0  0  0  0  0  0  0  0  0
   24.1193  -24.4639  -18.7678 C   0  0  0  0  0  0  0  0  0  0  0  0
   23.8307  -25.0057  -19.9614 N   0  0  0  0  0  0  0  0  0  0  0  0
   24.1488  -24.1355  -20.9240 C   0  0  0  0  0  0  0  0  0  0  0  0
   24.6435  -23.0272  -20.3745 N   0  0  0  0  0  0  0  0  0  0  0  0
   24.2724  -20.6225  -16.3920 C   0  0  0  0  0  0  0  0  0  0  0  0
   25.0458  -19.6610  -16.5040 O   0  0  0  0  0  0  0  0  0  0  0  0
   21.8784  -18.8211  -14.6251 C   0  0  0  0  0  0  0  0  0  0  0  0
   22.4781  -19.7311  -13.5686 C   0  0  1  0  0  0  0  0  0  0  0  0
   21.7122  -20.9044  -13.5707 O   0  0  0  0  0  0  0  0  0  0  0  0
   23.8952  -20.1581  -13.9791 C   0  0  2  0  0  0  0  0  0  0  0  0
   23.7329  -20.9916  -15.1412 N   0  0  0  0  0  0  0  0  0  0  0  0
   24.4041  -20.9911  -12.8766 C   0  0  0  0  0  0  0  0  0  0  0  0
   23.9727  -22.1623  -12.7439 O   0  0  0  0  0  0  0  0  0  0  0  0
   26.5824  -20.5249   -9.8844 C   0  0  0  0  0  0  0  0  0  0  0  0
   25.4970  -21.2485  -10.6861 C   0  0  2  0  0  0  0  0  0  0  0  0
   25.3720  -20.5356  -11.9392 N   0  0  0  0  0  0  0  0  0  0  0  0
   24.2505  -21.1331   -9.8712 C   0  0  0  0  0  0  0  0  0  0  0  0
   24.1448  -21.9364   -8.7518 O   0  0  0  0  0  0  0  0  0  0  0  0
   23.3235  -20.3641  -10.1476 O   0  0  0  0  0  0  0  0  0  0  0  0
  2  1  1  6
  3  2  1  0
  4  3  1  0
  5  4  2  0
  6  5  1  0
  7  6  1  0
  7  8  2  0
  8  4  1  0
  9  2  1  0
 10  9  2  0
 12 11  1  6
 12 13  1  0
 14 15  1  6
 14 12  1  0
 15  9  1  0
 16 14  1  0
 17 16  2  0
 19 18  1  1
 19 20  1  0
 20 16  1  0
 21 22  1  0
 21 19  1  0
 23 21  2  0
M  END
$$$$
