HTA.pdb
     RDKit          3D

 23 23  0  0  1  0  0  0  0  0999 V2000
   19.4876  -12.3469  -18.1779 N   0  0  0  0  0  0  0  0  0  0  0  0
   19.4096  -11.4375  -17.0831 C   0  0  1  0  0  0  0  0  0  0  0  0
   19.8522  -12.1733  -15.8285 C   0  0  0  0  0  0  0  0  0  0  0  0
   18.8848  -13.2478  -15.5531 C   0  0  0  0  0  0  0  0  0  0  0  0
   17.5812  -13.0908  -15.1539 C   0  0  0  0  0  0  0  0  0  0  0  0
   17.0808  -14.3294  -15.0233 N   0  0  0  0  0  0  0  0  0  0  0  0
   18.0307  -15.2182  -15.3279 C   0  0  0  0  0  0  0  0  0  0  0  0
   19.1504  -14.5757  -15.6572 N   0  0  0  0  0  0  0  0  0  0  0  0
   20.2246  -10.2166  -17.2491 C   0  0  0  0  0  0  0  0  0  0  0  0
   21.4056  -10.3170  -17.6100 O   0  0  0  0  0  0  0  0  0  0  0  0
   19.6252   -7.5773  -19.5957 C   0  0  0  0  0  0  0  0  0  0  0  0
   19.5376   -6.9325  -18.2245 C   0  0  1  0  0  0  0  0  0  0  0  0
   18.2042   -7.0529  -17.8110 O   0  0  0  0  0  0  0  0  0  0  0  0
   20.3630   -7.7348  -17.2076 C   0  0  2  0  0  0  0  0  0  0  0  0
   19.6377   -8.9592  -16.9919 N   0  0  0  0  0  0  0  0  0  0  0  0
   20.3398   -6.9544  -15.9591 C   0  0  0  0  0  0  0  0  0  0  0  0
   19.3439   -7.0417  -15.2002 O   0  0  0  0  0  0  0  0  0  0  0  0
   22.6395   -4.7690  -14.0118 C   0  0  0  0  0  0  0  0  0  0  0  0
   21.2717   -5.3946  -14.2985 C   0  0  2  0  0  0  0  0  0  0  0  0
   21.3993   -6.0939  -15.5590 N   0  0  0  0  0  0  0  0  0  0  0  0
   20.3202   -4.2486  -14.4094 C   0  0  0  0  0  0  0  0  0  0  0  0
   19.7221   -3.8026  -13.2461 O   0  0  0  0  0  0  0  0  0  0  0  0
   20.0473   -3.6893  -15.4769 O   0  0  0  0  0  0  0  0  0  0  0  0
  2  1  1  6
  3  2  1  0
  4  3  1  0
  5  4  2  0
  6  5  1  0
  7  6  1  0
  7  8  2  0
  8  4  1  0
  9  2  1  0
 10  9  2  0
 12 11  1  6
 12 13  1  0
 14 15  1  1
 14 12  1  0
 15  9  1  0
 16 14  1  0
 17 16  2  0
 19 18  1  6
 19 20  1  0
 20 16  1  0
 21 22  1  0
 21 19  1  0
 23 21  2  0
M  END
$$$$
