HTA.pdb
     RDKit          3D

 23 23  0  0  1  0  0  0  0  0999 V2000
   20.5651  -10.3818  -15.9160 N   0  0  0  0  0  0  0  0  0  0  0  0
   19.3229   -9.7053  -15.7405 C   0  0  1  0  0  0  0  0  0  0  0  0
   18.3161  -10.7053  -15.1950 C   0  0  0  0  0  0  0  0  0  0  0  0
   18.1573  -11.7894  -16.1776 C   0  0  0  0  0  0  0  0  0  0  0  0
   17.3348  -11.7822  -17.2762 C   0  0  0  0  0  0  0  0  0  0  0  0
   17.5114  -12.9676  -17.8805 N   0  0  0  0  0  0  0  0  0  0  0  0
   18.4043  -13.6813  -17.1888 C   0  0  0  0  0  0  0  0  0  0  0  0
   18.8160  -12.9763  -16.1360 N   0  0  0  0  0  0  0  0  0  0  0  0
   19.3905   -8.5362  -14.8400 C   0  0  0  0  0  0  0  0  0  0  0  0
   18.7098   -8.5244  -13.8049 O   0  0  0  0  0  0  0  0  0  0  0  0
   21.9640   -4.6666  -13.4164 C   0  0  0  0  0  0  0  0  0  0  0  0
   21.7835   -5.9830  -14.1500 C   0  0  1  0  0  0  0  0  0  0  0  0
   22.2374   -6.9877  -13.2852 O   0  0  0  0  0  0  0  0  0  0  0  0
   20.2903   -6.2667  -14.3707 C   0  0  2  0  0  0  0  0  0  0  0  0
   20.2320   -7.4554  -15.1801 N   0  0  0  0  0  0  0  0  0  0  0  0
   19.7750   -5.1382  -15.1637 C   0  0  0  0  0  0  0  0  0  0  0  0
   20.2719   -4.9048  -16.2925 O   0  0  0  0  0  0  0  0  0  0  0  0
   17.0613   -2.5992  -14.9693 C   0  0  0  0  0  0  0  0  0  0  0  0
   18.3662   -3.1560  -15.5451 C   0  0  2  0  0  0  0  0  0  0  0  0
   18.7295   -4.2845  -14.7152 N   0  0  0  0  0  0  0  0  0  0  0  0
   19.3638   -2.0510  -15.4227 C   0  0  0  0  0  0  0  0  0  0  0  0
   19.5085   -1.2011  -16.5028 O   0  0  0  0  0  0  0  0  0  0  0  0
   20.0552   -1.8645  -14.4156 O   0  0  0  0  0  0  0  0  0  0  0  0
  2  1  1  1
  3  2  1  0
  4  3  1  0
  5  4  2  0
  6  5  1  0
  7  6  1  0
  7  8  2  0
  8  4  1  0
  9  2  1  0
 10  9  2  0
 12 11  1  1
 12 13  1  0
 14 15  1  6
 14 12  1  0
 15  9  1  0
 16 14  1  0
 17 16  2  0
 19 18  1  1
 19 20  1  0
 20 16  1  0
 21 22  1  0
 21 19  1  0
 23 21  2  0
M  END
$$$$
