HTA.pdb
     RDKit          3D

 23 23  0  0  1  0  0  0  0  0999 V2000
   19.2447  -13.3814  -16.3726 N   0  0  0  0  0  0  0  0  0  0  0  0
   19.1548  -11.9843  -16.6405 C   0  0  1  0  0  0  0  0  0  0  0  0
   17.6824  -11.6182  -16.7369 C   0  0  0  0  0  0  0  0  0  0  0  0
   17.0826  -12.3866  -17.8396 C   0  0  0  0  0  0  0  0  0  0  0  0
   17.2491  -12.1548  -19.1820 C   0  0  0  0  0  0  0  0  0  0  0  0
   16.5242  -13.0914  -19.8136 N   0  0  0  0  0  0  0  0  0  0  0  0
   15.9326  -13.8718  -18.9047 C   0  0  0  0  0  0  0  0  0  0  0  0
   16.2617  -13.4570  -17.6821 N   0  0  0  0  0  0  0  0  0  0  0  0
   19.8078  -11.1292  -15.6283 C   0  0  0  0  0  0  0  0  0  0  0  0
   19.4976  -11.2522  -14.4351 O   0  0  0  0  0  0  0  0  0  0  0  0
   23.3200  -11.1818  -15.0260 C   0  0  0  0  0  0  0  0  0  0  0  0
   23.0103   -9.7404  -15.3869 C   0  0  1  0  0  0  0  0  0  0  0  0
   23.1502   -9.6379  -16.7773 O   0  0  0  0  0  0  0  0  0  0  0  0
   21.5364   -9.4249  -15.0921 C   0  0  2  0  0  0  0  0  0  0  0  0
   20.7735  -10.1880  -16.0446 N   0  0  0  0  0  0  0  0  0  0  0  0
   21.3589   -7.9945  -15.3931 C   0  0  0  0  0  0  0  0  0  0  0  0
   20.6764   -7.6583  -16.3914 O   0  0  0  0  0  0  0  0  0  0  0  0
   20.1640   -5.3529  -14.5023 C   0  0  0  0  0  0  0  0  0  0  0  0
   21.6102   -5.5867  -14.9473 C   0  0  2  0  0  0  0  0  0  0  0  0
   21.9263   -6.9564  -14.6034 N   0  0  0  0  0  0  0  0  0  0  0  0
   22.4352   -4.6258  -14.1553 C   0  0  0  0  0  0  0  0  0  0  0  0
   22.5054   -3.3223  -14.6088 O   0  0  0  0  0  0  0  0  0  0  0  0
   23.0485   -4.9379  -13.1289 O   0  0  0  0  0  0  0  0  0  0  0  0
  2  1  1  1
  3  2  1  0
  4  3  1  0
  5  4  2  0
  6  5  1  0
  7  6  1  0
  7  8  2  0
  8  4  1  0
  9  2  1  0
 10  9  2  0
 12 11  1  6
 12 13  1  0
 14 15  1  6
 14 12  1  0
 15  9  1  0
 16 14  1  0
 17 16  2  0
 19 18  1  1
 19 20  1  0
 20 16  1  0
 21 22  1  0
 21 19  1  0
 23 21  2  0
M  END
$$$$
