MHY.pdb
     RDKit          3D

 31 32  0  0  1  0  0  0  0  0999 V2000
   27.4484  -34.9453  -25.1790 C   0  0  0  0  0  0  0  0  0  0  0  0
   28.4019  -33.7357  -24.2372 S   0  0  0  0  0  0  0  0  0  0  0  0
   29.5291  -34.5831  -23.1027 C   0  0  0  0  0  0  0  0  0  0  0  0
   28.7904  -35.0712  -21.8637 C   0  0  0  0  0  0  0  0  0  0  0  0
   29.2174  -34.4165  -20.6045 C   0  0  2  0  0  0  0  0  0  0  0  0
   30.6275  -34.5414  -20.3721 N   0  0  0  0  0  0  0  0  0  0  0  0
   28.4449  -34.9400  -19.4428 C   0  0  0  0  0  0  0  0  0  0  0  0
   28.8919  -35.9462  -18.8117 O   0  0  0  0  0  0  0  0  0  0  0  0
   27.2249  -34.3958  -18.9802 N   0  0  0  0  0  0  0  0  0  0  0  0
   26.4479  -34.9112  -17.8882 C   0  0  1  0  0  0  0  0  0  0  0  0
   26.0691  -33.7740  -16.9222 C   0  0  0  0  0  0  0  0  0  0  0  0
   27.2533  -32.9758  -16.5855 C   0  0  0  0  0  0  0  0  0  0  0  0
   28.5371  -33.0604  -17.0299 C   0  0  0  0  0  0  0  0  0  0  0  0
   29.2663  -32.1062  -16.3937 N   0  0  0  0  0  0  0  0  0  0  0  0
   28.4476  -31.4290  -15.5589 C   0  0  0  0  0  0  0  0  0  0  0  0
   27.2109  -31.9671  -15.6821 N   0  0  0  0  0  0  0  0  0  0  0  0
   25.2374  -35.6732  -18.3268 C   0  0  0  0  0  0  0  0  0  0  0  0
   24.6362  -35.4772  -19.4060 O   0  0  0  0  0  0  0  0  0  0  0  0
   28.4569  -41.5545  -16.2217 O   0  0  0  0  0  0  0  0  0  0  0  0
   27.4349  -40.8427  -16.8550 C   0  0  0  0  0  0  0  0  0  0  0  0
   27.6964  -39.7637  -17.6745 C   0  0  0  0  0  0  0  0  0  0  0  0
   26.6683  -39.0953  -18.2761 C   0  0  0  0  0  0  0  0  0  0  0  0
   25.3163  -39.4255  -18.1247 C   0  0  0  0  0  0  0  0  0  0  0  0
   24.2204  -38.6922  -18.7695 C   0  0  0  0  0  0  0  0  0  0  0  0
   23.6811  -37.6336  -17.8608 C   0  0  2  0  0  0  0  0  0  0  0  0
   24.7234  -36.6830  -17.4851 N   0  0  0  0  0  0  0  0  0  0  0  0
   23.1910  -38.2434  -16.6235 C   0  0  0  0  0  0  0  0  0  0  0  0
   23.6845  -37.9205  -15.5275 O   0  0  0  0  0  0  0  0  0  0  0  0
   25.1060  -40.5253  -17.2848 C   0  0  0  0  0  0  0  0  0  0  0  0
   26.1208  -41.1998  -16.6800 C   0  0  0  0  0  0  0  0  0  0  0  0
   22.1774  -39.1866  -16.6434 O   0  0  0  0  0  0  0  0  0  0  0  0
  2  1  1  0
  3  2  1  0
  4  3  1  0
  5  4  1  0
  5  6  1  1
  7  5  1  0
  7  8  2  0
  9  7  1  0
 10  9  1  0
 10 11  1  1
 12 11  1  0
 12 16  1  0
 13 12  2  0
 14 13  1  0
 14 15  1  0
 15 16  2  0
 17 10  1  0
 18 17  2  0
 19 20  1  0
 20 21  2  0
 20 30  1  0
 21 22  1  0
 22 23  2  0
 23 24  1  0
 25 24  1  6
 25 26  1  0
 25 27  1  0
 26 17  1  0
 27 31  1  0
 28 27  2  0
 29 23  1  0
 30 29  2  0
M  END
$$$$
