MHY.pdb
     RDKit          3D

 31 32  0  0  1  0  0  0  0  0999 V2000
   26.0000  -21.3862  -23.7956 C   0  0  0  0  0  0  0  0  0  0  0  0
   27.6092  -20.5846  -23.9605 S   0  0  0  0  0  0  0  0  0  0  0  0
   28.3682  -20.3779  -22.3304 C   0  0  0  0  0  0  0  0  0  0  0  0
   27.4601  -20.9185  -21.2339 C   0  0  0  0  0  0  0  0  0  0  0  0
   27.8569  -20.5169  -19.8635 C   0  0  2  0  0  0  0  0  0  0  0  0
   29.2163  -20.8627  -19.5626 N   0  0  0  0  0  0  0  0  0  0  0  0
   26.9308  -21.0949  -18.8493 C   0  0  0  0  0  0  0  0  0  0  0  0
   25.8453  -21.6236  -19.2400 O   0  0  0  0  0  0  0  0  0  0  0  0
   27.1682  -21.0973  -17.4557 N   0  0  0  0  0  0  0  0  0  0  0  0
   26.2565  -21.5860  -16.4599 C   0  0  1  0  0  0  0  0  0  0  0  0
   27.0308  -22.2852  -15.3279 C   0  0  0  0  0  0  0  0  0  0  0  0
   27.7898  -23.4237  -15.8575 C   0  0  0  0  0  0  0  0  0  0  0  0
   29.0957  -23.5255  -16.2278 C   0  0  0  0  0  0  0  0  0  0  0  0
   29.3078  -24.7898  -16.6790 N   0  0  0  0  0  0  0  0  0  0  0  0
   28.1463  -25.4747  -16.5920 C   0  0  0  0  0  0  0  0  0  0  0  0
   27.2168  -24.6302  -16.0849 N   0  0  0  0  0  0  0  0  0  0  0  0
   25.3447  -20.5304  -15.9187 C   0  0  0  0  0  0  0  0  0  0  0  0
   25.7343  -19.4402  -15.4451 O   0  0  0  0  0  0  0  0  0  0  0  0
   18.1719  -15.5271  -15.2313 O   0  0  0  0  0  0  0  0  0  0  0  0
   19.1510  -16.4511  -15.6056 C   0  0  0  0  0  0  0  0  0  0  0  0
   18.8849  -17.8024  -15.6906 C   0  0  0  0  0  0  0  0  0  0  0  0
   19.8702  -18.6726  -16.0617 C   0  0  0  0  0  0  0  0  0  0  0  0
   21.1810  -18.2940  -16.3750 C   0  0  0  0  0  0  0  0  0  0  0  0
   22.2331  -19.2411  -16.7628 C   0  0  0  0  0  0  0  0  0  0  0  0
   22.9407  -19.7737  -15.5574 C   0  0  2  0  0  0  0  0  0  0  0  0
   23.9516  -20.7573  -15.9339 N   0  0  0  0  0  0  0  0  0  0  0  0
   21.9858  -20.4545  -14.6813 C   0  0  0  0  0  0  0  0  0  0  0  0
   21.6763  -21.6412  -14.8936 O   0  0  0  0  0  0  0  0  0  0  0  0
   21.3979  -16.9149  -16.2731 C   0  0  0  0  0  0  0  0  0  0  0  0
   20.4255  -16.0376  -15.9052 C   0  0  0  0  0  0  0  0  0  0  0  0
   21.4081  -19.7995  -13.6067 O   0  0  0  0  0  0  0  0  0  0  0  0
  2  1  1  0
  3  2  1  0
  4  3  1  0
  5  4  1  0
  5  6  1  1
  7  5  1  0
  7  8  2  0
  9  7  1  0
 10  9  1  0
 10 11  1  1
 12 11  1  0
 12 16  1  0
 13 12  2  0
 14 13  1  0
 14 15  1  0
 15 16  2  0
 17 10  1  0
 18 17  2  0
 19 20  1  0
 20 21  2  0
 20 30  1  0
 21 22  1  0
 22 23  2  0
 23 24  1  0
 25 24  1  6
 25 26  1  0
 25 27  1  0
 26 17  1  0
 27 31  1  0
 28 27  2  0
 29 23  1  0
 30 29  2  0
M  END
$$$$
