MHY.pdb
     RDKit          3D

 31 32  0  0  1  0  0  0  0  0999 V2000
   32.5331  -28.1604  -23.9988 C   0  0  0  0  0  0  0  0  0  0  0  0
   34.0985  -27.3283  -23.6576 S   0  0  0  0  0  0  0  0  0  0  0  0
   33.7902  -25.7242  -22.8780 C   0  0  0  0  0  0  0  0  0  0  0  0
   32.9214  -25.8793  -21.6369 C   0  0  0  0  0  0  0  0  0  0  0  0
   32.4712  -24.5967  -21.0463 C   0  0  2  0  0  0  0  0  0  0  0  0
   33.5624  -23.8074  -20.5521 N   0  0  0  0  0  0  0  0  0  0  0  0
   31.4623  -24.8283  -19.9744 C   0  0  0  0  0  0  0  0  0  0  0  0
   31.8495  -24.8753  -18.7668 O   0  0  0  0  0  0  0  0  0  0  0  0
   30.0785  -25.0080  -20.2010 N   0  0  0  0  0  0  0  0  0  0  0  0
   29.0951  -25.2452  -19.1818 C   0  0  1  0  0  0  0  0  0  0  0  0
   27.8286  -24.4163  -19.4622 C   0  0  0  0  0  0  0  0  0  0  0  0
   28.0976  -22.9889  -19.2546 C   0  0  0  0  0  0  0  0  0  0  0  0
   29.2064  -22.3529  -18.7867 C   0  0  0  0  0  0  0  0  0  0  0  0
   28.9464  -21.0192  -18.7593 N   0  0  0  0  0  0  0  0  0  0  0  0
   27.6870  -20.8204  -19.2065 C   0  0  0  0  0  0  0  0  0  0  0  0
   27.1704  -22.0348  -19.5110 N   0  0  0  0  0  0  0  0  0  0  0  0
   28.7640  -26.6929  -19.0001 C   0  0  0  0  0  0  0  0  0  0  0  0
   28.9257  -27.5669  -19.8801 O   0  0  0  0  0  0  0  0  0  0  0  0
   28.4072  -34.8240  -16.4275 O   0  0  0  0  0  0  0  0  0  0  0  0
   28.6411  -33.4609  -16.6263 C   0  0  0  0  0  0  0  0  0  0  0  0
   29.2142  -32.6690  -15.6524 C   0  0  0  0  0  0  0  0  0  0  0  0
   29.4272  -31.3404  -15.8874 C   0  0  0  0  0  0  0  0  0  0  0  0
   29.0990  -30.6874  -17.0814 C   0  0  0  0  0  0  0  0  0  0  0  0
   29.3243  -29.2563  -17.3170 C   0  0  0  0  0  0  0  0  0  0  0  0
   28.0258  -28.5169  -17.3844 C   0  0  2  0  0  0  0  0  0  0  0  0
   28.2344  -27.1229  -17.7644 N   0  0  0  0  0  0  0  0  0  0  0  0
   27.3884  -28.5111  -16.0666 C   0  0  0  0  0  0  0  0  0  0  0  0
   27.6919  -27.6435  -15.2275 O   0  0  0  0  0  0  0  0  0  0  0  0
   28.5215  -31.5342  -18.0345 C   0  0  0  0  0  0  0  0  0  0  0  0
   28.3043  -32.8588  -17.8134 C   0  0  0  0  0  0  0  0  0  0  0  0
   26.4429  -29.4634  -15.7251 O   0  0  0  0  0  0  0  0  0  0  0  0
  2  1  1  0
  3  2  1  0
  4  3  1  0
  5  4  1  0
  5  6  1  1
  7  5  1  0
  7  8  2  0
  9  7  1  0
 10  9  1  0
 10 11  1  6
 12 11  1  0
 12 16  1  0
 13 12  2  0
 14 13  1  0
 14 15  1  0
 15 16  2  0
 17 10  1  0
 18 17  2  0
 19 20  1  0
 20 21  2  0
 20 30  1  0
 21 22  1  0
 22 23  2  0
 23 24  1  0
 25 24  1  1
 25 26  1  0
 25 27  1  0
 26 17  1  0
 27 31  1  0
 28 27  2  0
 29 23  1  0
 30 29  2  0
M  END
$$$$
