MHY.pdb
     RDKit          3D

 31 32  0  0  1  0  0  0  0  0999 V2000
   28.1109  -16.0292  -19.9719 C   0  0  0  0  0  0  0  0  0  0  0  0
   28.9468  -16.7856  -18.5618 S   0  0  0  0  0  0  0  0  0  0  0  0
   28.0370  -18.2520  -18.0162 C   0  0  0  0  0  0  0  0  0  0  0  0
   26.5819  -18.1874  -18.4608 C   0  0  0  0  0  0  0  0  0  0  0  0
   25.6027  -18.3228  -17.3566 C   0  0  2  0  0  0  0  0  0  0  0  0
   25.9858  -19.3241  -16.4033 N   0  0  0  0  0  0  0  0  0  0  0  0
   24.2368  -18.5961  -17.8857 C   0  0  0  0  0  0  0  0  0  0  0  0
   23.7700  -17.8461  -18.7968 O   0  0  0  0  0  0  0  0  0  0  0  0
   23.3995  -19.6447  -17.4409 N   0  0  0  0  0  0  0  0  0  0  0  0
   22.1102  -19.9646  -17.9860 C   0  0  1  0  0  0  0  0  0  0  0  0
   22.0219  -21.4704  -18.2936 C   0  0  0  0  0  0  0  0  0  0  0  0
   22.9573  -21.8269  -19.3663 C   0  0  0  0  0  0  0  0  0  0  0  0
   22.8017  -21.8218  -20.7186 C   0  0  0  0  0  0  0  0  0  0  0  0
   23.9595  -22.2630  -21.2770 N   0  0  0  0  0  0  0  0  0  0  0  0
   24.8332  -22.5416  -20.2846 C   0  0  0  0  0  0  0  0  0  0  0  0
   24.2121  -22.2702  -19.1121 N   0  0  0  0  0  0  0  0  0  0  0  0
   20.9722  -19.5224  -17.1211 C   0  0  0  0  0  0  0  0  0  0  0  0
   19.7694  -19.7657  -17.3632 O   0  0  0  0  0  0  0  0  0  0  0  0
   19.2043  -24.0758  -12.5204 O   0  0  0  0  0  0  0  0  0  0  0  0
   19.5608  -22.7518  -12.7892 C   0  0  0  0  0  0  0  0  0  0  0  0
   20.8781  -22.3633  -12.9227 C   0  0  0  0  0  0  0  0  0  0  0  0
   21.1842  -21.0587  -13.1870 C   0  0  0  0  0  0  0  0  0  0  0  0
   20.2356  -20.0405  -13.3391 C   0  0  0  0  0  0  0  0  0  0  0  0
   20.5790  -18.6400  -13.6132 C   0  0  0  0  0  0  0  0  0  0  0  0
   20.2428  -18.2757  -15.0244 C   0  0  2  0  0  0  0  0  0  0  0  0
   21.2500  -18.7823  -15.9518 N   0  0  0  0  0  0  0  0  0  0  0  0
   20.2204  -16.8193  -15.1697 C   0  0  0  0  0  0  0  0  0  0  0  0
   21.1928  -16.2243  -15.6691 O   0  0  0  0  0  0  0  0  0  0  0  0
   18.9169  -20.4867  -13.1943 C   0  0  0  0  0  0  0  0  0  0  0  0
   18.5984  -21.7829  -12.9315 C   0  0  0  0  0  0  0  0  0  0  0  0
   19.1276  -16.0758  -14.7567 O   0  0  0  0  0  0  0  0  0  0  0  0
  2  1  1  0
  3  2  1  0
  4  3  1  0
  5  4  1  0
  5  6  1  1
  7  5  1  0
  7  8  2  0
  9  7  1  0
 10  9  1  0
 10 11  1  1
 12 11  1  0
 12 16  1  0
 13 12  2  0
 14 13  1  0
 14 15  1  0
 15 16  2  0
 17 10  1  0
 18 17  2  0
 19 20  1  0
 20 21  2  0
 20 30  1  0
 21 22  1  0
 22 23  2  0
 23 24  1  0
 25 24  1  1
 25 26  1  0
 25 27  1  0
 26 17  1  0
 27 31  1  0
 28 27  2  0
 29 23  1  0
 30 29  2  0
M  END
$$$$
