MHY.pdb
     RDKit          3D

 31 32  0  0  1  0  0  0  0  0999 V2000
   15.3486  -15.0942  -23.4118 C   0  0  0  0  0  0  0  0  0  0  0  0
   15.0470  -13.8795  -22.1107 S   0  0  0  0  0  0  0  0  0  0  0  0
   16.5987  -13.0725  -21.6451 C   0  0  0  0  0  0  0  0  0  0  0  0
   16.3929  -12.1375  -20.4608 C   0  0  0  0  0  0  0  0  0  0  0  0
   17.6168  -11.4187  -20.0343 C   0  0  2  0  0  0  0  0  0  0  0  0
   18.7185  -12.3058  -19.7945 N   0  0  0  0  0  0  0  0  0  0  0  0
   17.3497  -10.5762  -18.8347 C   0  0  0  0  0  0  0  0  0  0  0  0
   16.3976   -9.7380  -18.8729 O   0  0  0  0  0  0  0  0  0  0  0  0
   18.0913  -10.6345  -17.6325 N   0  0  0  0  0  0  0  0  0  0  0  0
   17.8406   -9.8388  -16.4638 C   0  0  1  0  0  0  0  0  0  0  0  0
   18.1454  -10.6513  -15.1923 C   0  0  0  0  0  0  0  0  0  0  0  0
   17.2271  -11.7904  -15.0832 C   0  0  0  0  0  0  0  0  0  0  0  0
   15.9499  -11.8602  -14.6177 C   0  0  0  0  0  0  0  0  0  0  0  0
   15.5408  -13.1534  -14.7039 N   0  0  0  0  0  0  0  0  0  0  0  0
   16.5513  -13.8875  -15.2191 C   0  0  0  0  0  0  0  0  0  0  0  0
   17.5851  -13.0440  -15.4518 N   0  0  0  0  0  0  0  0  0  0  0  0
   18.5764   -8.5361  -16.4619 C   0  0  0  0  0  0  0  0  0  0  0  0
   19.8033   -8.4215  -16.6768 O   0  0  0  0  0  0  0  0  0  0  0  0
   12.3822   -4.5924  -17.8372 O   0  0  0  0  0  0  0  0  0  0  0  0
   13.7678   -4.7491  -17.7489 C   0  0  0  0  0  0  0  0  0  0  0  0
   14.5733   -3.7994  -17.1545 C   0  0  0  0  0  0  0  0  0  0  0  0
   15.9240   -3.9916  -17.0874 C   0  0  0  0  0  0  0  0  0  0  0  0
   16.5873   -5.1162  -17.5923 C   0  0  0  0  0  0  0  0  0  0  0  0
   18.0412   -5.3055  -17.5223 C   0  0  0  0  0  0  0  0  0  0  0  0
   18.4270   -6.0028  -16.2566 C   0  0  2  0  0  0  0  0  0  0  0  0
   17.8607   -7.3473  -16.2040 N   0  0  0  0  0  0  0  0  0  0  0  0
   17.8988   -5.2699  -15.1047 C   0  0  0  0  0  0  0  0  0  0  0  0
   18.2264   -4.0847  -14.9122 O   0  0  0  0  0  0  0  0  0  0  0  0
   15.7260   -6.0474  -18.1841 C   0  0  0  0  0  0  0  0  0  0  0  0
   14.3794   -5.8684  -18.2571 C   0  0  0  0  0  0  0  0  0  0  0  0
   17.0317   -5.8731  -14.2094 O   0  0  0  0  0  0  0  0  0  0  0  0
  2  1  1  0
  3  2  1  0
  4  3  1  0
  5  4  1  0
  5  6  1  1
  7  5  1  0
  7  8  2  0
  9  7  1  0
 10  9  1  0
 10 11  1  1
 12 11  1  0
 12 16  1  0
 13 12  2  0
 14 13  1  0
 14 15  1  0
 15 16  2  0
 17 10  1  0
 18 17  2  0
 19 20  1  0
 20 21  2  0
 20 30  1  0
 21 22  1  0
 22 23  2  0
 23 24  1  0
 25 24  1  6
 25 26  1  0
 25 27  1  0
 26 17  1  0
 27 31  1  0
 28 27  2  0
 29 23  1  0
 30 29  2  0
M  END
$$$$
