MHY.pdb
     RDKit          3D

 31 32  0  0  1  0  0  0  0  0999 V2000
   23.8026  -16.4180  -21.4451 C   0  0  0  0  0  0  0  0  0  0  0  0
   23.0786  -14.8585  -21.9960 S   0  0  0  0  0  0  0  0  0  0  0  0
   23.8869  -13.4712  -21.1606 C   0  0  0  0  0  0  0  0  0  0  0  0
   22.8726  -12.6267  -20.4008 C   0  0  0  0  0  0  0  0  0  0  0  0
   23.3806  -12.0687  -19.1252 C   0  0  2  0  0  0  0  0  0  0  0  0
   23.8706  -13.0845  -18.2386 N   0  0  0  0  0  0  0  0  0  0  0  0
   22.3393  -11.2418  -18.4527 C   0  0  0  0  0  0  0  0  0  0  0  0
   21.7878  -10.3016  -19.1027 O   0  0  0  0  0  0  0  0  0  0  0  0
   21.9105  -11.4223  -17.1178 N   0  0  0  0  0  0  0  0  0  0  0  0
   20.9411  -10.6078  -16.4406 C   0  0  1  0  0  0  0  0  0  0  0  0
   20.0859  -11.4729  -15.4973 C   0  0  0  0  0  0  0  0  0  0  0  0
   19.1802  -12.3288  -16.2719 C   0  0  0  0  0  0  0  0  0  0  0  0
   17.9962  -12.0469  -16.8814 C   0  0  0  0  0  0  0  0  0  0  0  0
   17.5329  -13.1909  -17.4503 N   0  0  0  0  0  0  0  0  0  0  0  0
   18.4182  -14.1807  -17.2008 C   0  0  0  0  0  0  0  0  0  0  0  0
   19.4297  -13.6445  -16.4772 N   0  0  0  0  0  0  0  0  0  0  0  0
   21.5433   -9.4478  -15.7123 C   0  0  0  0  0  0  0  0  0  0  0  0
   22.5776   -9.5174  -15.0124 O   0  0  0  0  0  0  0  0  0  0  0  0
   23.2594   -0.8409  -16.2029 O   0  0  0  0  0  0  0  0  0  0  0  0
   23.1061   -2.2295  -16.2276 C   0  0  0  0  0  0  0  0  0  0  0  0
   22.6379   -2.8924  -17.3437 C   0  0  0  0  0  0  0  0  0  0  0  0
   22.5039   -4.2516  -17.3271 C   0  0  0  0  0  0  0  0  0  0  0  0
   22.8131   -5.0621  -16.2283 C   0  0  0  0  0  0  0  0  0  0  0  0
   22.6548   -6.5213  -16.2207 C   0  0  0  0  0  0  0  0  0  0  0  0
   21.5085   -6.9279  -15.3501 C   0  0  2  0  0  0  0  0  0  0  0  0
   20.9218   -8.1841  -15.8072 N   0  0  0  0  0  0  0  0  0  0  0  0
   20.4537   -5.9147  -15.4122 C   0  0  0  0  0  0  0  0  0  0  0  0
   20.5967   -4.8248  -14.8285 O   0  0  0  0  0  0  0  0  0  0  0  0
   23.2828   -4.3414  -15.1240 C   0  0  0  0  0  0  0  0  0  0  0  0
   23.4214   -2.9882  -15.1275 C   0  0  0  0  0  0  0  0  0  0  0  0
   19.2820   -6.1437  -16.1136 O   0  0  0  0  0  0  0  0  0  0  0  0
  2  1  1  0
  3  2  1  0
  4  3  1  0
  5  4  1  0
  5  6  1  1
  7  5  1  0
  7  8  2  0
  9  7  1  0
 10  9  1  0
 10 11  1  1
 12 11  1  0
 12 16  1  0
 13 12  2  0
 14 13  1  0
 14 15  1  0
 15 16  2  0
 17 10  1  0
 18 17  2  0
 19 20  1  0
 20 21  2  0
 20 30  1  0
 21 22  1  0
 22 23  2  0
 23 24  1  0
 25 24  1  6
 25 26  1  0
 25 27  1  0
 26 17  1  0
 27 31  1  0
 28 27  2  0
 29 23  1  0
 30 29  2  0
M  END
$$$$
