MHY.pdb
     RDKit          3D

 31 32  0  0  1  0  0  0  0  0999 V2000
   18.4932  -11.1173  -22.2501 C   0  0  0  0  0  0  0  0  0  0  0  0
   19.1140  -11.0904  -20.5550 S   0  0  0  0  0  0  0  0  0  0  0  0
   19.1673   -9.3882  -19.9419 C   0  0  0  0  0  0  0  0  0  0  0  0
   19.7329   -9.3353  -18.5290 C   0  0  0  0  0  0  0  0  0  0  0  0
   20.8672   -8.3958  -18.3635 C   0  0  2  0  0  0  0  0  0  0  0  0
   22.0774   -9.0602  -17.9737 N   0  0  0  0  0  0  0  0  0  0  0  0
   20.5268   -7.3140  -17.3969 C   0  0  0  0  0  0  0  0  0  0  0  0
   19.5097   -6.5887  -17.6205 O   0  0  0  0  0  0  0  0  0  0  0  0
   21.2654   -7.0220  -16.2274 N   0  0  0  0  0  0  0  0  0  0  0  0
   20.9882   -5.9455  -15.3185 C   0  0  1  0  0  0  0  0  0  0  0  0
   21.3272   -6.3664  -13.8770 C   0  0  0  0  0  0  0  0  0  0  0  0
   20.4118   -7.4204  -13.4254 C   0  0  0  0  0  0  0  0  0  0  0  0
   19.3237   -7.9710  -14.0302 C   0  0  0  0  0  0  0  0  0  0  0  0
   18.7980   -8.8982  -13.1871 N   0  0  0  0  0  0  0  0  0  0  0  0
   19.5494   -8.9296  -12.0646 C   0  0  0  0  0  0  0  0  0  0  0  0
   20.5411   -8.0199  -12.2173 N   0  0  0  0  0  0  0  0  0  0  0  0
   21.6743   -4.6671  -15.6835 C   0  0  0  0  0  0  0  0  0  0  0  0
   22.8519   -4.5950  -16.0988 O   0  0  0  0  0  0  0  0  0  0  0  0
   23.7156    2.9417  -19.1364 O   0  0  0  0  0  0  0  0  0  0  0  0
   23.2213    1.6970  -18.7381 C   0  0  0  0  0  0  0  0  0  0  0  0
   21.9339    1.2953  -19.0305 C   0  0  0  0  0  0  0  0  0  0  0  0
   21.4897    0.0694  -18.6239 C   0  0  0  0  0  0  0  0  0  0  0  0
   22.2614   -0.8514  -17.9052 C   0  0  0  0  0  0  0  0  0  0  0  0
   21.7681   -2.1620  -17.4656 C   0  0  0  0  0  0  0  0  0  0  0  0
   21.4572   -2.1505  -16.0025 C   0  0  2  0  0  0  0  0  0  0  0  0
   20.9666   -3.4521  -15.5596 N   0  0  0  0  0  0  0  0  0  0  0  0
   20.3989   -1.1773  -15.7272 C   0  0  0  0  0  0  0  0  0  0  0  0
   19.2032   -1.5163  -15.7930 O   0  0  0  0  0  0  0  0  0  0  0  0
   23.5570   -0.3957  -17.6347 C   0  0  0  0  0  0  0  0  0  0  0  0
   24.0119    0.8226  -18.0342 C   0  0  0  0  0  0  0  0  0  0  0  0
   20.7005    0.1320  -15.3921 O   0  0  0  0  0  0  0  0  0  0  0  0
  2  1  1  0
  3  2  1  0
  4  3  1  0
  5  4  1  0
  5  6  1  1
  7  5  1  0
  7  8  2  0
  9  7  1  0
 10  9  1  0
 10 11  1  1
 12 11  1  0
 12 16  1  0
 13 12  2  0
 14 13  1  0
 14 15  1  0
 15 16  2  0
 17 10  1  0
 18 17  2  0
 19 20  1  0
 20 21  2  0
 20 30  1  0
 21 22  1  0
 22 23  2  0
 23 24  1  0
 25 24  1  6
 25 26  1  0
 25 27  1  0
 26 17  1  0
 27 31  1  0
 28 27  2  0
 29 23  1  0
 30 29  2  0
M  END
$$$$
