MHY.pdb
     RDKit          3D

 31 32  0  0  1  0  0  0  0  0999 V2000
   21.0040  -11.0573  -17.8786 C   0  0  0  0  0  0  0  0  0  0  0  0
   21.0749  -12.7599  -17.2823 S   0  0  0  0  0  0  0  0  0  0  0  0
   20.1241  -13.8405  -18.3796 C   0  0  0  0  0  0  0  0  0  0  0  0
   20.1873  -15.2873  -17.9086 C   0  0  0  0  0  0  0  0  0  0  0  0
   21.5412  -15.7371  -17.5072 C   0  0  2  0  0  0  0  0  0  0  0  0
   22.4892  -15.6484  -18.5803 N   0  0  0  0  0  0  0  0  0  0  0  0
   21.5015  -17.1201  -16.9539 C   0  0  0  0  0  0  0  0  0  0  0  0
   20.8065  -17.3464  -15.9165 O   0  0  0  0  0  0  0  0  0  0  0  0
   22.1950  -18.2233  -17.5021 N   0  0  0  0  0  0  0  0  0  0  0  0
   22.1802  -19.5582  -16.9733 C   0  0  1  0  0  0  0  0  0  0  0  0
   22.2420  -20.5845  -18.1191 C   0  0  0  0  0  0  0  0  0  0  0  0
   20.9454  -20.6651  -18.8012 C   0  0  0  0  0  0  0  0  0  0  0  0
   19.7009  -20.2984  -18.3895 C   0  0  0  0  0  0  0  0  0  0  0  0
   18.8231  -20.6019  -19.3816 N   0  0  0  0  0  0  0  0  0  0  0  0
   19.5104  -21.1530  -20.4061 C   0  0  0  0  0  0  0  0  0  0  0  0
   20.8150  -21.1880  -20.0442 N   0  0  0  0  0  0  0  0  0  0  0  0
   23.2555  -19.8101  -15.9639 C   0  0  0  0  0  0  0  0  0  0  0  0
   24.4534  -19.4841  -16.1166 O   0  0  0  0  0  0  0  0  0  0  0  0
   27.3479  -21.0922   -8.3375 O   0  0  0  0  0  0  0  0  0  0  0  0
   26.5010  -20.7407   -9.3916 C   0  0  0  0  0  0  0  0  0  0  0  0
   25.1284  -20.7250   -9.2510 C   0  0  0  0  0  0  0  0  0  0  0  0
   24.3356  -20.3740  -10.3065 C   0  0  0  0  0  0  0  0  0  0  0  0
   24.8176  -20.0150  -11.5708 C   0  0  0  0  0  0  0  0  0  0  0  0
   23.9536  -19.6494  -12.6996 C   0  0  0  0  0  0  0  0  0  0  0  0
   23.8629  -20.7706  -13.6856 C   0  0  2  0  0  0  0  0  0  0  0  0
   22.9197  -20.4551  -14.7542 N   0  0  0  0  0  0  0  0  0  0  0  0
   23.3694  -21.9779  -13.0209 C   0  0  0  0  0  0  0  0  0  0  0  0
   22.1548  -22.1111  -12.7844 O   0  0  0  0  0  0  0  0  0  0  0  0
   26.2141  -20.0472  -11.6602 C   0  0  0  0  0  0  0  0  0  0  0  0
   27.0150  -20.3945  -10.6169 C   0  0  0  0  0  0  0  0  0  0  0  0
   24.2348  -22.9901  -12.6413 O   0  0  0  0  0  0  0  0  0  0  0  0
  2  1  1  0
  3  2  1  0
  4  3  1  0
  5  4  1  0
  5  6  1  6
  7  5  1  0
  7  8  2  0
  9  7  1  0
 10  9  1  0
 10 11  1  6
 12 11  1  0
 12 16  1  0
 13 12  2  0
 14 13  1  0
 14 15  1  0
 15 16  2  0
 17 10  1  0
 18 17  2  0
 19 20  1  0
 20 21  2  0
 20 30  1  0
 21 22  1  0
 22 23  2  0
 23 24  1  0
 25 24  1  1
 25 26  1  0
 25 27  1  0
 26 17  1  0
 27 31  1  0
 28 27  2  0
 29 23  1  0
 30 29  2  0
M  END
$$$$
