MHY.pdb
     RDKit          3D

 31 32  0  0  1  0  0  0  0  0999 V2000
   22.2476  -14.3188  -19.3908 C   0  0  0  0  0  0  0  0  0  0  0  0
   22.7711  -16.0441  -19.2976 S   0  0  0  0  0  0  0  0  0  0  0  0
   22.1074  -16.8126  -17.7993 C   0  0  0  0  0  0  0  0  0  0  0  0
   22.6833  -18.2085  -17.6018 C   0  0  0  0  0  0  0  0  0  0  0  0
   23.4648  -18.3722  -16.3531 C   0  0  2  0  0  0  0  0  0  0  0  0
   24.5855  -17.4791  -16.2864 N   0  0  0  0  0  0  0  0  0  0  0  0
   23.9074  -19.7847  -16.1824 C   0  0  0  0  0  0  0  0  0  0  0  0
   23.0364  -20.7075  -16.2013 O   0  0  0  0  0  0  0  0  0  0  0  0
   25.2492  -20.1872  -15.9927 N   0  0  0  0  0  0  0  0  0  0  0  0
   25.6822  -21.5293  -15.7219 C   0  0  1  0  0  0  0  0  0  0  0  0
   26.8955  -21.8838  -16.6007 C   0  0  0  0  0  0  0  0  0  0  0  0
   26.5417  -21.7856  -18.0212 C   0  0  0  0  0  0  0  0  0  0  0  0
   26.0190  -22.7104  -18.8724 C   0  0  0  0  0  0  0  0  0  0  0  0
   25.8973  -22.1337  -20.0970 N   0  0  0  0  0  0  0  0  0  0  0  0
   26.3387  -20.8593  -20.0147 C   0  0  0  0  0  0  0  0  0  0  0  0
   26.7323  -20.6504  -18.7358 N   0  0  0  0  0  0  0  0  0  0  0  0
   25.9709  -21.7809  -14.2756 C   0  0  0  0  0  0  0  0  0  0  0  0
   27.0346  -22.2807  -13.8476 O   0  0  0  0  0  0  0  0  0  0  0  0
   27.1272  -19.9005   -5.9305 O   0  0  0  0  0  0  0  0  0  0  0  0
   26.9403  -20.0514   -7.3069 C   0  0  0  0  0  0  0  0  0  0  0  0
   26.9560  -21.2904   -7.9142 C   0  0  0  0  0  0  0  0  0  0  0  0
   26.7678  -21.3947   -9.2630 C   0  0  0  0  0  0  0  0  0  0  0  0
   26.5524  -20.3061  -10.1165 C   0  0  0  0  0  0  0  0  0  0  0  0
   26.3614  -20.4317  -11.5664 C   0  0  0  0  0  0  0  0  0  0  0  0
   25.2308  -21.3607  -11.8760 C   0  0  2  0  0  0  0  0  0  0  0  0
   24.9950  -21.4398  -13.3146 N   0  0  0  0  0  0  0  0  0  0  0  0
   23.9969  -20.8620  -11.2664 C   0  0  0  0  0  0  0  0  0  0  0  0
   23.1971  -20.1829  -11.9358 O   0  0  0  0  0  0  0  0  0  0  0  0
   26.5458  -19.0744   -9.4515 C   0  0  0  0  0  0  0  0  0  0  0  0
   26.7315  -18.9568   -8.1091 C   0  0  0  0  0  0  0  0  0  0  0  0
   23.6942  -21.1299   -9.9420 O   0  0  0  0  0  0  0  0  0  0  0  0
  2  1  1  0
  3  2  1  0
  4  3  1  0
  5  4  1  0
  5  6  1  6
  7  5  1  0
  7  8  2  0
  9  7  1  0
 10  9  1  0
 10 11  1  6
 12 11  1  0
 12 16  1  0
 13 12  2  0
 14 13  1  0
 14 15  1  0
 15 16  2  0
 17 10  1  0
 18 17  2  0
 19 20  1  0
 20 21  2  0
 20 30  1  0
 21 22  1  0
 22 23  2  0
 23 24  1  0
 25 24  1  6
 25 26  1  0
 25 27  1  0
 26 17  1  0
 27 31  1  0
 28 27  2  0
 29 23  1  0
 30 29  2  0
M  END
$$$$
