MHY.pdb
     RDKit          3D

 31 32  0  0  1  0  0  0  0  0999 V2000
   24.6188  -13.8895  -21.9987 C   0  0  0  0  0  0  0  0  0  0  0  0
   23.2451  -15.0604  -21.9611 S   0  0  0  0  0  0  0  0  0  0  0  0
   22.1720  -14.7109  -20.5461 C   0  0  0  0  0  0  0  0  0  0  0  0
   22.5473  -13.3884  -19.8909 C   0  0  0  0  0  0  0  0  0  0  0  0
   21.7443  -13.0556  -18.6905 C   0  0  2  0  0  0  0  0  0  0  0  0
   20.3771  -13.4727  -18.8122 N   0  0  0  0  0  0  0  0  0  0  0  0
   21.8242  -11.5999  -18.3823 C   0  0  0  0  0  0  0  0  0  0  0  0
   22.9662  -11.0614  -18.2542 O   0  0  0  0  0  0  0  0  0  0  0  0
   20.7047  -10.7534  -18.2133 N   0  0  0  0  0  0  0  0  0  0  0  0
   20.7626   -9.3361  -17.9905 C   0  0  1  0  0  0  0  0  0  0  0  0
   19.8569   -8.6025  -18.9962 C   0  0  0  0  0  0  0  0  0  0  0  0
   20.4839   -8.5778  -20.3225 C   0  0  0  0  0  0  0  0  0  0  0  0
   21.6734   -8.0587  -20.7332 C   0  0  0  0  0  0  0  0  0  0  0  0
   21.7858   -8.2714  -22.0707 N   0  0  0  0  0  0  0  0  0  0  0  0
   20.6779   -8.9181  -22.4950 C   0  0  0  0  0  0  0  0  0  0  0  0
   19.8816   -9.1052  -21.4155 N   0  0  0  0  0  0  0  0  0  0  0  0
   20.4390   -8.9411  -16.5841 C   0  0  0  0  0  0  0  0  0  0  0  0
   19.4767   -9.3989  -15.9291 O   0  0  0  0  0  0  0  0  0  0  0  0
   25.6165   -3.6049  -16.7426 O   0  0  0  0  0  0  0  0  0  0  0  0
   24.8605   -4.5484  -16.0423 C   0  0  0  0  0  0  0  0  0  0  0  0
   24.0741   -4.1987  -14.9638 C   0  0  0  0  0  0  0  0  0  0  0  0
   23.3489   -5.1518  -14.3069 C   0  0  0  0  0  0  0  0  0  0  0  0
   23.3364   -6.5092  -14.6489 C   0  0  0  0  0  0  0  0  0  0  0  0
   22.5599   -7.5249  -13.9279 C   0  0  0  0  0  0  0  0  0  0  0  0
   21.1908   -7.6637  -14.5141 C   0  0  2  0  0  0  0  0  0  0  0  0
   21.2586   -7.9933  -15.9346 N   0  0  0  0  0  0  0  0  0  0  0  0
   20.4716   -6.3936  -14.4026 C   0  0  0  0  0  0  0  0  0  0  0  0
   20.2005   -5.7353  -15.4235 O   0  0  0  0  0  0  0  0  0  0  0  0
   24.1494   -6.8105  -15.7478 C   0  0  0  0  0  0  0  0  0  0  0  0
   24.8762   -5.8710  -16.4109 C   0  0  0  0  0  0  0  0  0  0  0  0
   20.0814   -5.8982  -13.1698 O   0  0  0  0  0  0  0  0  0  0  0  0
  2  1  1  0
  3  2  1  0
  4  3  1  0
  5  4  1  0
  5  6  1  6
  7  5  1  0
  7  8  2  0
  9  7  1  0
 10  9  1  0
 10 11  1  6
 12 11  1  0
 12 16  1  0
 13 12  2  0
 14 13  1  0
 14 15  1  0
 15 16  2  0
 17 10  1  0
 18 17  2  0
 19 20  1  0
 20 21  2  0
 20 30  1  0
 21 22  1  0
 22 23  2  0
 23 24  1  0
 25 24  1  6
 25 26  1  0
 25 27  1  0
 26 17  1  0
 27 31  1  0
 28 27  2  0
 29 23  1  0
 30 29  2  0
M  END
$$$$
