MHY.pdb
     RDKit          3D

 31 32  0  0  1  0  0  0  0  0999 V2000
   28.9211  -18.3387   -5.5172 C   0  0  0  0  0  0  0  0  0  0  0  0
   27.3933  -19.2067   -5.9317 S   0  0  0  0  0  0  0  0  0  0  0  0
   27.7384  -20.5438   -7.1016 C   0  0  0  0  0  0  0  0  0  0  0  0
   27.5015  -20.0884   -8.5353 C   0  0  0  0  0  0  0  0  0  0  0  0
   26.1012  -20.2388   -8.9971 C   0  0  2  0  0  0  0  0  0  0  0  0
   25.5024  -21.4610   -8.5434 N   0  0  0  0  0  0  0  0  0  0  0  0
   26.0143  -20.1300  -10.4806 C   0  0  0  0  0  0  0  0  0  0  0  0
   26.3430  -19.0374  -11.0362 O   0  0  0  0  0  0  0  0  0  0  0  0
   25.5814  -21.1682  -11.3368 N   0  0  0  0  0  0  0  0  0  0  0  0
   25.2815  -21.0209  -12.7333 C   0  0  1  0  0  0  0  0  0  0  0  0
   26.0180  -22.0970  -13.5515 C   0  0  0  0  0  0  0  0  0  0  0  0
   25.8400  -21.8555  -14.9878 C   0  0  0  0  0  0  0  0  0  0  0  0
   26.3652  -20.8969  -15.7991 C   0  0  0  0  0  0  0  0  0  0  0  0
   25.8714  -21.0882  -17.0507 N   0  0  0  0  0  0  0  0  0  0  0  0
   25.0450  -22.1569  -17.0250 C   0  0  0  0  0  0  0  0  0  0  0  0
   25.0308  -22.6256  -15.7544 N   0  0  0  0  0  0  0  0  0  0  0  0
   23.8152  -21.0257  -13.0307 C   0  0  0  0  0  0  0  0  0  0  0  0
   22.9616  -21.6349  -12.3489 O   0  0  0  0  0  0  0  0  0  0  0  0
   15.9915  -20.3621  -12.0919 O   0  0  0  0  0  0  0  0  0  0  0  0
   17.3025  -20.0293  -12.4423 C   0  0  0  0  0  0  0  0  0  0  0  0
   17.6102  -19.4603  -13.6612 C   0  0  0  0  0  0  0  0  0  0  0  0
   18.9050  -19.1486  -13.9644 C   0  0  0  0  0  0  0  0  0  0  0  0
   19.9909  -19.3672  -13.1083 C   0  0  0  0  0  0  0  0  0  0  0  0
   21.3792  -19.0365  -13.4509 C   0  0  0  0  0  0  0  0  0  0  0  0
   21.9365  -20.0237  -14.4267 C   0  0  2  0  0  0  0  0  0  0  0  0
   23.3418  -20.3028  -14.1467 N   0  0  0  0  0  0  0  0  0  0  0  0
   21.8705  -19.4741  -15.7819 C   0  0  0  0  0  0  0  0  0  0  0  0
   22.8619  -18.9082  -16.2777 O   0  0  0  0  0  0  0  0  0  0  0  0
   19.6251  -19.9454  -11.8872 C   0  0  0  0  0  0  0  0  0  0  0  0
   18.3396  -20.2603  -11.5726 C   0  0  0  0  0  0  0  0  0  0  0  0
   20.7132  -19.5683  -16.5365 O   0  0  0  0  0  0  0  0  0  0  0  0
  2  1  1  0
  3  2  1  0
  4  3  1  0
  5  4  1  0
  5  6  1  6
  7  5  1  0
  7  8  2  0
  9  7  1  0
 10  9  1  0
 10 11  1  6
 12 11  1  0
 12 16  1  0
 13 12  2  0
 14 13  1  0
 14 15  1  0
 15 16  2  0
 17 10  1  0
 18 17  2  0
 19 20  1  0
 20 21  2  0
 20 30  1  0
 21 22  1  0
 22 23  2  0
 23 24  1  0
 25 24  1  1
 25 26  1  0
 25 27  1  0
 26 17  1  0
 27 31  1  0
 28 27  2  0
 29 23  1  0
 30 29  2  0
M  END
$$$$
