MHY.pdb
     RDKit          3D

 31 32  0  0  1  0  0  0  0  0999 V2000
   39.1061  -28.1267  -22.0510 C   0  0  0  0  0  0  0  0  0  0  0  0
   38.8726  -29.8694  -22.4610 S   0  0  0  0  0  0  0  0  0  0  0  0
   37.1551  -30.1661  -22.9487 C   0  0  0  0  0  0  0  0  0  0  0  0
   36.1910  -29.4522  -22.0106 C   0  0  0  0  0  0  0  0  0  0  0  0
   34.7962  -29.9485  -22.0801 C   0  0  2  0  0  0  0  0  0  0  0  0
   34.2739  -29.9315  -23.4161 N   0  0  0  0  0  0  0  0  0  0  0  0
   33.9106  -29.1809  -21.1598 C   0  0  0  0  0  0  0  0  0  0  0  0
   34.2389  -29.0748  -19.9385 O   0  0  0  0  0  0  0  0  0  0  0  0
   32.7054  -28.5513  -21.5464 N   0  0  0  0  0  0  0  0  0  0  0  0
   31.7944  -27.8870  -20.6572 C   0  0  1  0  0  0  0  0  0  0  0  0
   31.1356  -26.6907  -21.3676 C   0  0  0  0  0  0  0  0  0  0  0  0
   32.1119  -25.6127  -21.5616 C   0  0  0  0  0  0  0  0  0  0  0  0
   33.4130  -25.5124  -21.1743 C   0  0  0  0  0  0  0  0  0  0  0  0
   33.8788  -24.3000  -21.5744 N   0  0  0  0  0  0  0  0  0  0  0  0
   32.8799  -23.6464  -22.2072 C   0  0  0  0  0  0  0  0  0  0  0  0
   31.7963  -24.4588  -22.1977 N   0  0  0  0  0  0  0  0  0  0  0  0
   30.7650  -28.7997  -20.0691 C   0  0  0  0  0  0  0  0  0  0  0  0
   30.2319  -29.7483  -20.6861 O   0  0  0  0  0  0  0  0  0  0  0  0
   26.0523  -34.1592  -15.2728 O   0  0  0  0  0  0  0  0  0  0  0  0
   26.9754  -33.3460  -15.9352 C   0  0  0  0  0  0  0  0  0  0  0  0
   26.7608  -32.8963  -17.2220 C   0  0  0  0  0  0  0  0  0  0  0  0
   27.6881  -32.1015  -17.8335 C   0  0  0  0  0  0  0  0  0  0  0  0
   28.8874  -31.6884  -17.2413 C   0  0  0  0  0  0  0  0  0  0  0  0
   29.8802  -30.8421  -17.9139 C   0  0  0  0  0  0  0  0  0  0  0  0
   29.3936  -29.4316  -18.0192 C   0  0  2  0  0  0  0  0  0  0  0  0
   30.3542  -28.5966  -18.7341 N   0  0  0  0  0  0  0  0  0  0  0  0
   29.2395  -28.8580  -16.6812 C   0  0  0  0  0  0  0  0  0  0  0  0
   30.1958  -28.2799  -16.1333 O   0  0  0  0  0  0  0  0  0  0  0  0
   29.0562  -32.1714  -15.9384 C   0  0  0  0  0  0  0  0  0  0  0  0
   28.1405  -32.9631  -15.3178 C   0  0  0  0  0  0  0  0  0  0  0  0
   28.0377  -28.9463  -15.9991 O   0  0  0  0  0  0  0  0  0  0  0  0
  2  1  1  0
  3  2  1  0
  4  3  1  0
  5  4  1  0
  5  6  1  6
  7  5  1  0
  7  8  2  0
  9  7  1  0
 10  9  1  0
 10 11  1  6
 12 11  1  0
 12 16  1  0
 13 12  2  0
 14 13  1  0
 14 15  1  0
 15 16  2  0
 17 10  1  0
 18 17  2  0
 19 20  1  0
 20 21  2  0
 20 30  1  0
 21 22  1  0
 22 23  2  0
 23 24  1  0
 25 24  1  1
 25 26  1  0
 25 27  1  0
 26 17  1  0
 27 31  1  0
 28 27  2  0
 29 23  1  0
 30 29  2  0
M  END
$$$$
