SFP.pdb
     RDKit          3D

 25 26  0  0  1  0  0  0  0  0999 V2000
    8.7076  -19.5513   20.7740 O   0  0  0  0  0  0  0  0  0  0  0  0
    7.4578  -18.9586   20.6019 C   0  0  0  0  0  0  0  0  0  0  0  0
    7.6027  -17.5151   20.1038 C   0  0  2  0  0  0  0  0  0  0  0  0
    8.6482  -17.5298   19.1002 N   0  0  0  0  0  0  0  0  0  0  0  0
    8.0610  -16.7127   21.2595 C   0  0  0  0  0  0  0  0  0  0  0  0
    9.2752  -16.4007   21.3650 O   0  0  0  0  0  0  0  0  0  0  0  0
    7.1960  -16.2602   22.2840 N   0  0  0  0  0  0  0  0  0  0  0  0
    7.7094  -15.5018   23.4162 C   0  0  1  0  0  0  0  0  0  0  0  0
    6.6072  -14.5536   23.9034 C   0  0  0  0  0  0  0  0  0  0  0  0
    7.0388  -13.6946   25.0080 C   0  0  0  0  0  0  0  0  0  0  0  0
    6.6417  -14.0297   26.3127 C   0  0  0  0  0  0  0  0  0  0  0  0
    6.9948  -13.2796   27.4085 C   0  0  0  0  0  0  0  0  0  0  0  0
    7.7657  -12.1509   27.2625 C   0  0  0  0  0  0  0  0  0  0  0  0
    8.1745  -11.7894   26.0022 C   0  0  0  0  0  0  0  0  0  0  0  0
    7.8018  -12.5689   24.9050 C   0  0  0  0  0  0  0  0  0  0  0  0
    8.1920  -16.3126   24.5311 C   0  0  0  0  0  0  0  0  0  0  0  0
    7.4489  -17.2937   24.8796 O   0  0  0  0  0  0  0  0  0  0  0  0
    9.3915  -16.0704   25.1965 N   0  0  0  0  0  0  0  0  0  0  0  0
   10.1696  -14.8530   25.1581 C   0  0  0  0  0  0  0  0  0  0  0  0
   11.4903  -15.4890   24.6908 C   0  0  0  0  0  0  0  0  0  0  0  0
   11.6317  -16.6125   25.6673 C   0  0  0  0  0  0  0  0  0  0  0  0
   10.1732  -16.9617   26.0183 C   0  0  1  0  0  0  0  0  0  0  0  0
    9.9398  -16.7260   27.4498 C   0  0  0  0  0  0  0  0  0  0  0  0
    9.1792  -15.6302   27.8964 O   0  0  0  0  0  0  0  0  0  0  0  0
   10.4139  -17.4969   28.3032 O   0  0  0  0  0  0  0  0  0  0  0  0
  2  1  1  0
  3  2  1  0
  3  4  1  6
  5  3  1  0
  5  6  2  0
  7  5  1  0
  8  7  1  0
  8  9  1  1
  9 10  1  0
 10 11  2  0
 10 15  1  0
 11 12  1  0
 12 13  2  0
 14 13  1  0
 15 14  2  0
 16  8  1  0
 17 16  2  0
 18 22  1  0
 18 16  1  0
 19 20  1  0
 19 18  1  0
 20 21  1  0
 21 22  1  0
 23 24  1  0
 22 23  1  1
 25 23  2  0
M  END
$$$$
