SFP.pdb
     RDKit          3D

 25 26  0  0  1  0  0  0  0  0999 V2000
    9.0116  -18.9391   20.0147 O   0  0  0  0  0  0  0  0  0  0  0  0
    7.8057  -18.2446   19.9356 C   0  0  0  0  0  0  0  0  0  0  0  0
    8.0483  -16.7663   19.6063 C   0  0  2  0  0  0  0  0  0  0  0  0
    9.2006  -16.7248   18.7282 N   0  0  0  0  0  0  0  0  0  0  0  0
    8.3948  -16.1001   20.8813 C   0  0  0  0  0  0  0  0  0  0  0  0
    9.6012  -15.9041   21.1794 O   0  0  0  0  0  0  0  0  0  0  0  0
    7.4281  -15.6561   21.8145 N   0  0  0  0  0  0  0  0  0  0  0  0
    7.8293  -15.0535   23.0781 C   0  0  1  0  0  0  0  0  0  0  0  0
    6.7230  -14.0921   23.5287 C   0  0  0  0  0  0  0  0  0  0  0  0
    7.0116  -13.4494   24.8123 C   0  0  0  0  0  0  0  0  0  0  0  0
    6.4003  -13.9585   25.9697 C   0  0  0  0  0  0  0  0  0  0  0  0
    6.6083  -13.4165   27.2150 C   0  0  0  0  0  0  0  0  0  0  0  0
    7.4399  -12.3336   27.3747 C   0  0  0  0  0  0  0  0  0  0  0  0
    8.0567  -11.8061   26.2668 C   0  0  0  0  0  0  0  0  0  0  0  0
    7.8285  -12.3757   25.0122 C   0  0  0  0  0  0  0  0  0  0  0  0
    8.1226  -16.0047   24.1470 C   0  0  0  0  0  0  0  0  0  0  0  0
    7.2670  -16.9392   24.3224 O   0  0  0  0  0  0  0  0  0  0  0  0
    9.2623  -15.9383   24.9451 N   0  0  0  0  0  0  0  0  0  0  0  0
   10.1768  -14.8243   25.0536 C   0  0  0  0  0  0  0  0  0  0  0  0
   11.4572  -15.5965   24.6916 C   0  0  0  0  0  0  0  0  0  0  0  0
   11.3589  -16.7685   25.6151 C   0  0  0  0  0  0  0  0  0  0  0  0
    9.8401  -16.9516   25.7938 C   0  0  1  0  0  0  0  0  0  0  0  0
    9.4809  -16.7488   27.2042 C   0  0  0  0  0  0  0  0  0  0  0  0
    9.6827  -17.7581   28.1629 O   0  0  0  0  0  0  0  0  0  0  0  0
    8.9868  -15.6717   27.5823 O   0  0  0  0  0  0  0  0  0  0  0  0
  2  1  1  0
  3  2  1  0
  3  4  1  6
  5  3  1  0
  5  6  2  0
  7  5  1  0
  8  7  1  0
  8  9  1  1
  9 10  1  0
 10 11  2  0
 10 15  1  0
 11 12  1  0
 12 13  2  0
 14 13  1  0
 15 14  2  0
 16  8  1  0
 17 16  2  0
 18 22  1  0
 18 16  1  0
 19 20  1  0
 19 18  1  0
 20 21  1  0
 21 22  1  0
 23 24  1  0
 22 23  1  1
 25 23  2  0
M  END
$$$$
