SFP.pdb
     RDKit          3D

 25 26  0  0  1  0  0  0  0  0999 V2000
   11.4877  -18.6272   22.4671 O   0  0  0  0  0  0  0  0  0  0  0  0
   10.5746  -18.2277   21.4926 C   0  0  0  0  0  0  0  0  0  0  0  0
   10.7699  -16.7488   21.1358 C   0  0  2  0  0  0  0  0  0  0  0  0
   12.1739  -16.5854   20.8154 N   0  0  0  0  0  0  0  0  0  0  0  0
   10.4658  -15.9746   22.3596 C   0  0  0  0  0  0  0  0  0  0  0  0
   11.3869  -15.6914   23.1683 O   0  0  0  0  0  0  0  0  0  0  0  0
    9.1671  -15.5187   22.6886 N   0  0  0  0  0  0  0  0  0  0  0  0
    8.8803  -14.9619   24.0033 C   0  0  1  0  0  0  0  0  0  0  0  0
    7.4264  -14.4749   24.0161 C   0  0  0  0  0  0  0  0  0  0  0  0
    7.0865  -13.7205   25.2241 C   0  0  0  0  0  0  0  0  0  0  0  0
    7.4547  -12.3671   25.2954 C   0  0  0  0  0  0  0  0  0  0  0  0
    7.1821  -11.5835   26.3907 C   0  0  0  0  0  0  0  0  0  0  0  0
    6.5253  -12.1084   27.4782 C   0  0  0  0  0  0  0  0  0  0  0  0
    6.1484  -13.4287   27.4474 C   0  0  0  0  0  0  0  0  0  0  0  0
    6.4375  -14.2036   26.3221 C   0  0  0  0  0  0  0  0  0  0  0  0
    9.1048  -15.8758   25.1203 C   0  0  0  0  0  0  0  0  0  0  0  0
    8.8344  -17.1075   24.9058 O   0  0  0  0  0  0  0  0  0  0  0  0
    9.5936  -15.4707   26.3601 N   0  0  0  0  0  0  0  0  0  0  0  0
    9.5959  -14.1259   26.8898 C   0  0  0  0  0  0  0  0  0  0  0  0
   11.1064  -14.0361   27.1677 C   0  0  0  0  0  0  0  0  0  0  0  0
   11.3355  -15.3007   27.9320 C   0  0  0  0  0  0  0  0  0  0  0  0
   10.2575  -16.2501   27.3764 C   0  0  1  0  0  0  0  0  0  0  0  0
    9.3360  -16.6356   28.4541 C   0  0  0  0  0  0  0  0  0  0  0  0
    9.7253  -17.5358   29.4624 O   0  0  0  0  0  0  0  0  0  0  0  0
    8.1833  -16.1701   28.4972 O   0  0  0  0  0  0  0  0  0  0  0  0
  2  1  1  0
  3  2  1  0
  3  4  1  1
  5  3  1  0
  5  6  2  0
  7  5  1  0
  8  7  1  0
  8  9  1  6
  9 10  1  0
 10 11  2  0
 10 15  1  0
 11 12  1  0
 12 13  2  0
 14 13  1  0
 15 14  2  0
 16  8  1  0
 17 16  2  0
 18 22  1  0
 18 16  1  0
 19 20  1  0
 19 18  1  0
 20 21  1  0
 21 22  1  0
 23 24  1  0
 22 23  1  1
 25 23  2  0
M  END
$$$$
