SFP.pdb
     RDKit          3D

 25 26  0  0  1  0  0  0  0  0999 V2000
    9.0788  -18.8079   20.4508 O   0  0  0  0  0  0  0  0  0  0  0  0
    7.9678  -18.1985   19.8702 C   0  0  0  0  0  0  0  0  0  0  0  0
    8.2367  -16.7115   19.6074 C   0  0  2  0  0  0  0  0  0  0  0  0
    9.4318  -16.6482   18.7898 N   0  0  0  0  0  0  0  0  0  0  0  0
    8.5234  -16.0946   20.9214 C   0  0  0  0  0  0  0  0  0  0  0  0
    9.7079  -16.0333   21.3410 O   0  0  0  0  0  0  0  0  0  0  0  0
    7.5216  -15.5532   21.7615 N   0  0  0  0  0  0  0  0  0  0  0  0
    7.8577  -14.9984   23.0653 C   0  0  1  0  0  0  0  0  0  0  0  0
    6.6891  -14.1237   23.5350 C   0  0  0  0  0  0  0  0  0  0  0  0
    6.9477  -13.4638   24.8164 C   0  0  0  0  0  0  0  0  0  0  0  0
    6.4144  -14.0338   25.9839 C   0  0  0  0  0  0  0  0  0  0  0  0
    6.6010  -13.4813   27.2280 C   0  0  0  0  0  0  0  0  0  0  0  0
    7.3320  -12.3267   27.3764 C   0  0  0  0  0  0  0  0  0  0  0  0
    7.8704  -11.7382   26.2583 C   0  0  0  0  0  0  0  0  0  0  0  0
    7.6659  -12.3198   25.0052 C   0  0  0  0  0  0  0  0  0  0  0  0
    8.1771  -15.9882   24.0907 C   0  0  0  0  0  0  0  0  0  0  0  0
    7.4118  -17.0117   24.1461 O   0  0  0  0  0  0  0  0  0  0  0  0
    9.2502  -15.8666   24.9704 N   0  0  0  0  0  0  0  0  0  0  0  0
   10.0411  -14.6805   25.2087 C   0  0  0  0  0  0  0  0  0  0  0  0
   11.4125  -15.3029   24.8940 C   0  0  0  0  0  0  0  0  0  0  0  0
   11.3706  -16.5366   25.7380 C   0  0  0  0  0  0  0  0  0  0  0  0
    9.8689  -16.8738   25.7972 C   0  0  1  0  0  0  0  0  0  0  0  0
    9.4003  -16.7983   27.1879 C   0  0  0  0  0  0  0  0  0  0  0  0
    9.4368  -17.9213   28.0341 O   0  0  0  0  0  0  0  0  0  0  0  0
    8.9581  -15.7311   27.6491 O   0  0  0  0  0  0  0  0  0  0  0  0
  2  1  1  0
  3  2  1  0
  3  4  1  6
  5  3  1  0
  5  6  2  0
  7  5  1  0
  8  7  1  0
  8  9  1  1
  9 10  1  0
 10 11  2  0
 10 15  1  0
 11 12  1  0
 12 13  2  0
 14 13  1  0
 15 14  2  0
 16  8  1  0
 17 16  2  0
 18 22  1  0
 18 16  1  0
 19 20  1  0
 19 18  1  0
 20 21  1  0
 21 22  1  0
 23 24  1  0
 22 23  1  1
 25 23  2  0
M  END
$$$$
