SFP.pdb
     RDKit          3D

 25 26  0  0  1  0  0  0  0  0999 V2000
    5.7032  -21.7839   22.6690 O   0  0  0  0  0  0  0  0  0  0  0  0
    6.2030  -20.5118   22.9426 C   0  0  0  0  0  0  0  0  0  0  0  0
    5.1085  -19.4494   22.7812 C   0  0  2  0  0  0  0  0  0  0  0  0
    4.6908  -19.4973   21.3942 N   0  0  0  0  0  0  0  0  0  0  0  0
    5.7473  -18.1407   23.0431 C   0  0  0  0  0  0  0  0  0  0  0  0
    6.2051  -17.4631   22.0870 O   0  0  0  0  0  0  0  0  0  0  0  0
    5.8803  -17.5855   24.3379 N   0  0  0  0  0  0  0  0  0  0  0  0
    6.6578  -16.3736   24.5563 C   0  0  1  0  0  0  0  0  0  0  0  0
    6.3169  -15.8238   25.9465 C   0  0  0  0  0  0  0  0  0  0  0  0
    6.9621  -14.5397   26.2276 C   0  0  0  0  0  0  0  0  0  0  0  0
    6.1941  -13.3679   26.1303 C   0  0  0  0  0  0  0  0  0  0  0  0
    6.7161  -12.1198   26.3706 C   0  0  0  0  0  0  0  0  0  0  0  0
    8.0368  -11.9717   26.7222 C   0  0  0  0  0  0  0  0  0  0  0  0
    8.8214  -13.0939   26.8280 C   0  0  0  0  0  0  0  0  0  0  0  0
    8.2664  -14.3509   26.5783 C   0  0  0  0  0  0  0  0  0  0  0  0
    8.1035  -16.5400   24.4318 C   0  0  0  0  0  0  0  0  0  0  0  0
    8.6042  -17.5730   24.9962 O   0  0  0  0  0  0  0  0  0  0  0  0
    8.9236  -15.6529   23.7384 N   0  0  0  0  0  0  0  0  0  0  0  0
    8.6397  -14.2672   23.4410 C   0  0  0  0  0  0  0  0  0  0  0  0
    8.8177  -14.3623   21.9158 C   0  0  0  0  0  0  0  0  0  0  0  0
   10.1445  -15.0455   21.8216 C   0  0  0  0  0  0  0  0  0  0  0  0
   10.1970  -15.8948   23.1054 C   0  0  1  0  0  0  0  0  0  0  0  0
   11.3158  -15.4486   23.9472 C   0  0  0  0  0  0  0  0  0  0  0  0
   11.0943  -14.8322   25.1920 O   0  0  0  0  0  0  0  0  0  0  0  0
   12.4914  -15.6080   23.5732 O   0  0  0  0  0  0  0  0  0  0  0  0
  2  1  1  0
  3  2  1  0
  3  4  1  6
  5  3  1  0
  5  6  2  0
  7  5  1  0
  8  7  1  0
  8  9  1  1
  9 10  1  0
 10 11  2  0
 10 15  1  0
 11 12  1  0
 12 13  2  0
 14 13  1  0
 15 14  2  0
 16  8  1  0
 17 16  2  0
 18 22  1  0
 18 16  1  0
 19 20  1  0
 19 18  1  0
 20 21  1  0
 21 22  1  0
 23 24  1  0
 22 23  1  1
 25 23  2  0
M  END
$$$$
