SFP.pdb
     RDKit          3D

 25 26  0  0  1  0  0  0  0  0999 V2000
    7.2558  -20.3982   22.3431 O   0  0  0  0  0  0  0  0  0  0  0  0
    6.3971  -20.8076   23.3618 C   0  0  0  0  0  0  0  0  0  0  0  0
    5.1486  -19.9180   23.4131 C   0  0  2  0  0  0  0  0  0  0  0  0
    4.4756  -20.0808   22.1399 N   0  0  0  0  0  0  0  0  0  0  0  0
    5.6277  -18.5226   23.5255 C   0  0  0  0  0  0  0  0  0  0  0  0
    5.7436  -17.8137   22.4927 O   0  0  0  0  0  0  0  0  0  0  0  0
    5.9741  -17.9161   24.7562 N   0  0  0  0  0  0  0  0  0  0  0  0
    6.5758  -16.5904   24.7940 C   0  0  1  0  0  0  0  0  0  0  0  0
    6.5898  -16.1065   26.2489 C   0  0  0  0  0  0  0  0  0  0  0  0
    6.8886  -14.6785   26.3738 C   0  0  0  0  0  0  0  0  0  0  0  0
    5.8190  -13.7685   26.3906 C   0  0  0  0  0  0  0  0  0  0  0  0
    6.0047  -12.4114   26.4991 C   0  0  0  0  0  0  0  0  0  0  0  0
    7.2711  -11.8860   26.5971 C   0  0  0  0  0  0  0  0  0  0  0  0
    8.3441  -12.7432   26.5843 C   0  0  0  0  0  0  0  0  0  0  0  0
    8.1282  -14.1185   26.4730 C   0  0  0  0  0  0  0  0  0  0  0  0
    7.9223  -16.5104   24.2339 C   0  0  0  0  0  0  0  0  0  0  0  0
    8.6505  -17.5542   24.3616 O   0  0  0  0  0  0  0  0  0  0  0  0
    8.4191  -15.3842   23.5818 N   0  0  0  0  0  0  0  0  0  0  0  0
    8.0013  -14.0153   23.7835 C   0  0  0  0  0  0  0  0  0  0  0  0
    7.6420  -13.7110   22.3188 C   0  0  0  0  0  0  0  0  0  0  0  0
    8.8766  -14.1768   21.6154 C   0  0  0  0  0  0  0  0  0  0  0  0
    9.4012  -15.3007   22.5286 C   0  0  1  0  0  0  0  0  0  0  0  0
   10.7263  -14.9361   23.0488 C   0  0  0  0  0  0  0  0  0  0  0  0
   10.9377  -14.7148   24.4217 O   0  0  0  0  0  0  0  0  0  0  0  0
   11.6962  -14.8147   22.2795 O   0  0  0  0  0  0  0  0  0  0  0  0
  2  1  1  0
  3  2  1  0
  3  4  1  6
  5  3  1  0
  5  6  2  0
  7  5  1  0
  8  7  1  0
  8  9  1  1
  9 10  1  0
 10 11  2  0
 10 15  1  0
 11 12  1  0
 12 13  2  0
 14 13  1  0
 15 14  2  0
 16  8  1  0
 17 16  2  0
 18 22  1  0
 18 16  1  0
 19 20  1  0
 19 18  1  0
 20 21  1  0
 21 22  1  0
 23 24  1  0
 22 23  1  1
 25 23  2  0
M  END
$$$$
