SFP.pdb
     RDKit          3D

 25 26  0  0  1  0  0  0  0  0999 V2000
   12.1616  -18.9513   21.6553 O   0  0  0  0  0  0  0  0  0  0  0  0
   10.9011  -18.3594   21.7160 C   0  0  0  0  0  0  0  0  0  0  0  0
   10.9586  -16.9036   21.2365 C   0  0  2  0  0  0  0  0  0  0  0  0
   12.3305  -16.6553   20.8404 N   0  0  0  0  0  0  0  0  0  0  0  0
   10.6393  -16.0590   22.4087 C   0  0  0  0  0  0  0  0  0  0  0  0
   11.5670  -15.6105   23.1305 O   0  0  0  0  0  0  0  0  0  0  0  0
    9.3187  -15.7131   22.7813 N   0  0  0  0  0  0  0  0  0  0  0  0
    9.0499  -15.0364   24.0426 C   0  0  1  0  0  0  0  0  0  0  0  0
    7.6879  -14.3399   23.9376 C   0  0  0  0  0  0  0  0  0  0  0  0
    7.3061  -13.6421   25.1670 C   0  0  0  0  0  0  0  0  0  0  0  0
    6.4773  -14.3066   26.0855 C   0  0  0  0  0  0  0  0  0  0  0  0
    6.0645  -13.7284   27.2617 C   0  0  0  0  0  0  0  0  0  0  0  0
    6.4571  -12.4518   27.5871 C   0  0  0  0  0  0  0  0  0  0  0  0
    7.2680  -11.7682   26.7146 C   0  0  0  0  0  0  0  0  0  0  0  0
    7.6734  -12.3786   25.5257 C   0  0  0  0  0  0  0  0  0  0  0  0
    9.0737  -15.8997   25.2205 C   0  0  0  0  0  0  0  0  0  0  0  0
    8.6962  -17.1089   25.0427 O   0  0  0  0  0  0  0  0  0  0  0  0
    9.4864  -15.4719   26.4802 N   0  0  0  0  0  0  0  0  0  0  0  0
    9.3366  -14.1451   27.0334 C   0  0  0  0  0  0  0  0  0  0  0  0
   10.8223  -13.9065   27.3540 C   0  0  0  0  0  0  0  0  0  0  0  0
   11.1610  -15.1562   28.1019 C   0  0  0  0  0  0  0  0  0  0  0  0
   10.2011  -16.1997   27.5003 C   0  0  1  0  0  0  0  0  0  0  0  0
    9.2971  -16.6995   28.5454 C   0  0  0  0  0  0  0  0  0  0  0  0
    7.9042  -16.5274   28.4516 O   0  0  0  0  0  0  0  0  0  0  0  0
    9.7487  -17.2899   29.5428 O   0  0  0  0  0  0  0  0  0  0  0  0
  2  1  1  0
  3  2  1  0
  3  4  1  1
  5  3  1  0
  5  6  2  0
  7  5  1  0
  8  7  1  0
  8  9  1  6
  9 10  1  0
 10 11  2  0
 10 15  1  0
 11 12  1  0
 12 13  2  0
 14 13  1  0
 15 14  2  0
 16  8  1  0
 17 16  2  0
 18 22  1  0
 18 16  1  0
 19 20  1  0
 19 18  1  0
 20 21  1  0
 21 22  1  0
 23 24  1  0
 22 23  1  1
 25 23  2  0
M  END
$$$$
