SFP.pdb
     RDKit          3D

 25 26  0  0  1  0  0  0  0  0999 V2000
   11.7875  -18.8376   22.4424 O   0  0  0  0  0  0  0  0  0  0  0  0
   10.8007  -18.3081   21.6125 C   0  0  0  0  0  0  0  0  0  0  0  0
   11.1033  -16.8436   21.2713 C   0  0  2  0  0  0  0  0  0  0  0  0
   12.5336  -16.7598   21.0523 N   0  0  0  0  0  0  0  0  0  0  0  0
   10.7562  -16.0493   22.4705 C   0  0  0  0  0  0  0  0  0  0  0  0
   11.6602  -15.6879   23.2673 O   0  0  0  0  0  0  0  0  0  0  0  0
    9.4337  -15.6584   22.7883 N   0  0  0  0  0  0  0  0  0  0  0  0
    9.1271  -15.0221   24.0618 C   0  0  1  0  0  0  0  0  0  0  0  0
    7.7011  -14.4626   23.9924 C   0  0  0  0  0  0  0  0  0  0  0  0
    7.3176  -13.7233   25.1967 C   0  0  0  0  0  0  0  0  0  0  0  0
    7.6302  -12.3562   25.2723 C   0  0  0  0  0  0  0  0  0  0  0  0
    7.3141  -11.5849   26.3646 C   0  0  0  0  0  0  0  0  0  0  0  0
    6.6668  -12.1365   27.4446 C   0  0  0  0  0  0  0  0  0  0  0  0
    6.3437  -13.4709   27.4093 C   0  0  0  0  0  0  0  0  0  0  0  0
    6.6763  -14.2328   26.2872 C   0  0  0  0  0  0  0  0  0  0  0  0
    9.2613  -15.8885   25.2299 C   0  0  0  0  0  0  0  0  0  0  0  0
    9.0909  -17.1400   25.0279 O   0  0  0  0  0  0  0  0  0  0  0  0
    9.5665  -15.4192   26.5054 N   0  0  0  0  0  0  0  0  0  0  0  0
    9.2887  -14.1013   27.0299 C   0  0  0  0  0  0  0  0  0  0  0  0
   10.7315  -13.7519   27.4336 C   0  0  0  0  0  0  0  0  0  0  0  0
   11.1144  -14.9661   28.2179 C   0  0  0  0  0  0  0  0  0  0  0  0
   10.2698  -16.0827   27.5760 C   0  0  1  0  0  0  0  0  0  0  0  0
    9.3436  -16.6366   28.5734 C   0  0  0  0  0  0  0  0  0  0  0  0
    7.9722  -16.3249   28.5509 O   0  0  0  0  0  0  0  0  0  0  0  0
    9.7568  -17.3987   29.4655 O   0  0  0  0  0  0  0  0  0  0  0  0
  2  1  1  0
  3  2  1  0
  3  4  1  1
  5  3  1  0
  5  6  2  0
  7  5  1  0
  8  7  1  0
  8  9  1  6
  9 10  1  0
 10 11  2  0
 10 15  1  0
 11 12  1  0
 12 13  2  0
 14 13  1  0
 15 14  2  0
 16  8  1  0
 17 16  2  0
 18 22  1  0
 18 16  1  0
 19 20  1  0
 19 18  1  0
 20 21  1  0
 21 22  1  0
 23 24  1  0
 22 23  1  1
 25 23  2  0
M  END
$$$$
