SFP.pdb
     RDKit          3D

 25 26  0  0  1  0  0  0  0  0999 V2000
    6.8318  -20.3790   21.9645 O   0  0  0  0  0  0  0  0  0  0  0  0
    6.0744  -20.7351   23.0791 C   0  0  0  0  0  0  0  0  0  0  0  0
    4.8697  -19.7996   23.2414 C   0  0  2  0  0  0  0  0  0  0  0  0
    4.1227  -19.8728   22.0015 N   0  0  0  0  0  0  0  0  0  0  0  0
    5.4135  -18.4317   23.3916 C   0  0  0  0  0  0  0  0  0  0  0  0
    5.4378  -17.6539   22.4031 O   0  0  0  0  0  0  0  0  0  0  0  0
    5.9230  -17.9271   24.6116 N   0  0  0  0  0  0  0  0  0  0  0  0
    6.5420  -16.6105   24.6765 C   0  0  1  0  0  0  0  0  0  0  0  0
    6.6357  -16.1918   26.1486 C   0  0  0  0  0  0  0  0  0  0  0  0
    7.0449  -14.7964   26.3213 C   0  0  0  0  0  0  0  0  0  0  0  0
    6.0475  -13.8157   26.4470 C   0  0  0  0  0  0  0  0  0  0  0  0
    6.3379  -12.4823   26.6070 C   0  0  0  0  0  0  0  0  0  0  0  0
    7.6429  -12.0527   26.6508 C   0  0  0  0  0  0  0  0  0  0  0  0
    8.6477  -12.9812   26.5313 C   0  0  0  0  0  0  0  0  0  0  0  0
    8.3258  -14.3305   26.3694 C   0  0  0  0  0  0  0  0  0  0  0  0
    7.8592  -16.5191   24.0521 C   0  0  0  0  0  0  0  0  0  0  0  0
    8.6065  -17.5521   24.1554 O   0  0  0  0  0  0  0  0  0  0  0  0
    8.3095  -15.3936   23.3661 N   0  0  0  0  0  0  0  0  0  0  0  0
    7.7724  -14.0548   23.4570 C   0  0  0  0  0  0  0  0  0  0  0  0
    7.4919  -13.8628   21.9565 C   0  0  0  0  0  0  0  0  0  0  0  0
    8.8048  -14.2633   21.3633 C   0  0  0  0  0  0  0  0  0  0  0  0
    9.3522  -15.2877   22.3749 C   0  0  1  0  0  0  0  0  0  0  0  0
   10.6055  -14.7867   22.9559 C   0  0  0  0  0  0  0  0  0  0  0  0
   11.8000  -14.7680   22.2133 O   0  0  0  0  0  0  0  0  0  0  0  0
   10.6362  -14.3655   24.1259 O   0  0  0  0  0  0  0  0  0  0  0  0
  2  1  1  0
  3  2  1  0
  3  4  1  6
  5  3  1  0
  5  6  2  0
  7  5  1  0
  8  7  1  0
  8  9  1  1
  9 10  1  0
 10 11  2  0
 10 15  1  0
 11 12  1  0
 12 13  2  0
 14 13  1  0
 15 14  2  0
 16  8  1  0
 17 16  2  0
 18 22  1  0
 18 16  1  0
 19 20  1  0
 19 18  1  0
 20 21  1  0
 21 22  1  0
 23 24  1  0
 22 23  1  1
 25 23  2  0
M  END
$$$$
