SFP.pdb
     RDKit          3D

 25 26  0  0  1  0  0  0  0  0999 V2000
    8.2918  -20.3903   22.0471 O   0  0  0  0  0  0  0  0  0  0  0  0
    6.9546  -20.1490   22.3577 C   0  0  0  0  0  0  0  0  0  0  0  0
    6.4802  -18.8290   21.7372 C   0  0  2  0  0  0  0  0  0  0  0  0
    6.9835  -18.8096   20.3782 N   0  0  0  0  0  0  0  0  0  0  0  0
    7.1309  -17.7433   22.5034 C   0  0  0  0  0  0  0  0  0  0  0  0
    8.2245  -17.2638   22.1074 O   0  0  0  0  0  0  0  0  0  0  0  0
    6.5862  -17.1930   23.6880 N   0  0  0  0  0  0  0  0  0  0  0  0
    7.3427  -16.2387   24.4865 C   0  0  1  0  0  0  0  0  0  0  0  0
    6.3613  -15.4668   25.3765 C   0  0  0  0  0  0  0  0  0  0  0  0
    6.9764  -14.3175   26.0435 C   0  0  0  0  0  0  0  0  0  0  0  0
    6.7679  -13.0380   25.5033 C   0  0  0  0  0  0  0  0  0  0  0  0
    7.3097  -11.9039   26.0584 C   0  0  0  0  0  0  0  0  0  0  0  0
    8.0916  -11.9840   27.1862 C   0  0  0  0  0  0  0  0  0  0  0  0
    8.3194  -13.2178   27.7449 C   0  0  0  0  0  0  0  0  0  0  0  0
    7.7572  -14.3550   27.1611 C   0  0  0  0  0  0  0  0  0  0  0  0
    8.3983  -16.8251   25.3082 C   0  0  0  0  0  0  0  0  0  0  0  0
    8.0799  -17.8671   25.9782 O   0  0  0  0  0  0  0  0  0  0  0  0
    9.6926  -16.3150   25.3777 N   0  0  0  0  0  0  0  0  0  0  0  0
   10.1243  -14.9971   24.9705 C   0  0  0  0  0  0  0  0  0  0  0  0
   11.2211  -15.4527   23.9925 C   0  0  0  0  0  0  0  0  0  0  0  0
   11.9804  -16.4221   24.8408 C   0  0  0  0  0  0  0  0  0  0  0  0
   10.9073  -16.9676   25.8015 C   0  0  1  0  0  0  0  0  0  0  0  0
   11.2585  -16.6171   27.1846 C   0  0  0  0  0  0  0  0  0  0  0  0
   10.5115  -15.6732   27.9123 O   0  0  0  0  0  0  0  0  0  0  0  0
   12.2317  -17.1522   27.7449 O   0  0  0  0  0  0  0  0  0  0  0  0
  2  1  1  0
  3  2  1  0
  3  4  1  6
  5  3  1  0
  5  6  2  0
  7  5  1  0
  8  7  1  0
  8  9  1  1
  9 10  1  0
 10 11  2  0
 10 15  1  0
 11 12  1  0
 12 13  2  0
 14 13  1  0
 15 14  2  0
 16  8  1  0
 17 16  2  0
 18 22  1  0
 18 16  1  0
 19 20  1  0
 19 18  1  0
 20 21  1  0
 21 22  1  0
 23 24  1  0
 22 23  1  1
 25 23  2  0
M  END
$$$$
