SFP.pdb
     RDKit          3D

 25 26  0  0  1  0  0  0  0  0999 V2000
   10.8462  -18.9508   21.7681 O   0  0  0  0  0  0  0  0  0  0  0  0
    9.8503  -18.3292   21.0167 C   0  0  0  0  0  0  0  0  0  0  0  0
   10.2137  -16.8661   20.7338 C   0  0  2  0  0  0  0  0  0  0  0  0
   11.6149  -16.8550   20.3635 N   0  0  0  0  0  0  0  0  0  0  0  0
   10.0508  -16.1353   22.0100 C   0  0  0  0  0  0  0  0  0  0  0  0
   11.0589  -15.8694   22.7141 O   0  0  0  0  0  0  0  0  0  0  0  0
    8.7971  -15.7034   22.5043 N   0  0  0  0  0  0  0  0  0  0  0  0
    8.6835  -15.0837   23.8172 C   0  0  1  0  0  0  0  0  0  0  0  0
    7.3501  -14.3295   23.8828 C   0  0  0  0  0  0  0  0  0  0  0  0
    7.1483  -13.6342   25.1556 C   0  0  0  0  0  0  0  0  0  0  0  0
    7.6319  -12.3222   25.2871 C   0  0  0  0  0  0  0  0  0  0  0  0
    7.4926  -11.5957   26.4450 C   0  0  0  0  0  0  0  0  0  0  0  0
    6.8615  -12.1395   27.5384 C   0  0  0  0  0  0  0  0  0  0  0  0
    6.3745  -13.4205   27.4498 C   0  0  0  0  0  0  0  0  0  0  0  0
    6.5291  -14.1377   26.2615 C   0  0  0  0  0  0  0  0  0  0  0  0
    8.7841  -16.0079   24.9438 C   0  0  0  0  0  0  0  0  0  0  0  0
    8.1986  -17.1364   24.8032 O   0  0  0  0  0  0  0  0  0  0  0  0
    9.4769  -15.7187   26.1172 N   0  0  0  0  0  0  0  0  0  0  0  0
    9.7848  -14.4055   26.6367 C   0  0  0  0  0  0  0  0  0  0  0  0
   11.3081  -14.5963   26.7382 C   0  0  0  0  0  0  0  0  0  0  0  0
   11.3884  -15.8939   27.4771 C   0  0  0  0  0  0  0  0  0  0  0  0
   10.0990  -16.6223   27.0539 C   0  0  1  0  0  0  0  0  0  0  0  0
    9.2518  -16.8515   28.2324 C   0  0  0  0  0  0  0  0  0  0  0  0
    8.1277  -16.0470   28.4930 O   0  0  0  0  0  0  0  0  0  0  0  0
    9.5133  -17.7691   29.0304 O   0  0  0  0  0  0  0  0  0  0  0  0
  2  1  1  0
  3  2  1  0
  3  4  1  1
  5  3  1  0
  5  6  2  0
  7  5  1  0
  8  7  1  0
  8  9  1  6
  9 10  1  0
 10 11  2  0
 10 15  1  0
 11 12  1  0
 12 13  2  0
 14 13  1  0
 15 14  2  0
 16  8  1  0
 17 16  2  0
 18 22  1  0
 18 16  1  0
 19 20  1  0
 19 18  1  0
 20 21  1  0
 21 22  1  0
 23 24  1  0
 22 23  1  1
 25 23  2  0
M  END
$$$$
