SFP.pdb
     RDKit          3D

 25 26  0  0  1  0  0  0  0  0999 V2000
    8.2824  -20.3318   24.2584 O   0  0  0  0  0  0  0  0  0  0  0  0
    7.8247  -20.6260   25.5417 C   0  0  0  0  0  0  0  0  0  0  0  0
    6.4299  -20.0311   25.7729 C   0  0  2  0  0  0  0  0  0  0  0  0
    5.4903  -20.9212   25.1206 N   0  0  0  0  0  0  0  0  0  0  0  0
    6.4079  -18.7231   25.0817 C   0  0  0  0  0  0  0  0  0  0  0  0
    5.9877  -18.6454   23.8984 O   0  0  0  0  0  0  0  0  0  0  0  0
    6.8418  -17.5181   25.6836 N   0  0  0  0  0  0  0  0  0  0  0  0
    6.9444  -16.2892   24.9089 C   0  0  1  0  0  0  0  0  0  0  0  0
    6.7656  -15.1005   25.8608 C   0  0  0  0  0  0  0  0  0  0  0  0
    7.9665  -14.8123   26.6477 C   0  0  0  0  0  0  0  0  0  0  0  0
    8.5147  -15.8383   27.4346 C   0  0  0  0  0  0  0  0  0  0  0  0
    9.6356  -15.6575   28.2085 C   0  0  0  0  0  0  0  0  0  0  0  0
   10.2729  -14.4400   28.2401 C   0  0  0  0  0  0  0  0  0  0  0  0
    9.7675  -13.4108   27.4842 C   0  0  0  0  0  0  0  0  0  0  0  0
    8.6269  -13.6205   26.7062 C   0  0  0  0  0  0  0  0  0  0  0  0
    8.1881  -16.1380   24.1581 C   0  0  0  0  0  0  0  0  0  0  0  0
    9.1597  -16.8887   24.5168 O   0  0  0  0  0  0  0  0  0  0  0  0
    8.3446  -15.2464   23.0994 N   0  0  0  0  0  0  0  0  0  0  0  0
    7.8369  -13.8951   23.0264 C   0  0  0  0  0  0  0  0  0  0  0  0
    7.0513  -14.0603   21.7140 C   0  0  0  0  0  0  0  0  0  0  0  0
    8.0891  -14.6766   20.8314 C   0  0  0  0  0  0  0  0  0  0  0  0
    8.9784  -15.4535   21.8202 C   0  0  1  0  0  0  0  0  0  0  0  0
   10.3415  -14.9055   21.7941 C   0  0  0  0  0  0  0  0  0  0  0  0
   11.2434  -15.2363   20.7665 O   0  0  0  0  0  0  0  0  0  0  0  0
   10.7292  -14.1316   22.6874 O   0  0  0  0  0  0  0  0  0  0  0  0
  2  1  1  0
  3  2  1  0
  3  4  1  6
  5  3  1  0
  5  6  2  0
  7  5  1  0
  8  7  1  0
  8  9  1  1
  9 10  1  0
 10 11  2  0
 10 15  1  0
 11 12  1  0
 12 13  2  0
 14 13  1  0
 15 14  2  0
 16  8  1  0
 17 16  2  0
 18 22  1  0
 18 16  1  0
 19 20  1  0
 19 18  1  0
 20 21  1  0
 21 22  1  0
 23 24  1  0
 22 23  1  1
 25 23  2  0
M  END
$$$$
