VQE.pdb
     RDKit          3D

 26 25  0  0  1  0  0  0  0  0999 V2000
   25.4174   -9.9733  -15.1686 C   0  0  0  0  0  0  0  0  0  0  0  0
   26.3291  -10.2668  -16.3403 C   0  0  1  0  0  0  0  0  0  0  0  0
   27.4867  -11.0703  -15.8374 C   0  0  0  0  0  0  0  0  0  0  0  0
   25.5613  -10.9356  -17.4519 C   0  0  2  0  0  0  0  0  0  0  0  0
   26.4133  -11.3499  -18.5202 N   0  0  0  0  0  0  0  0  0  0  0  0
   24.4017  -10.1354  -17.8975 C   0  0  0  0  0  0  0  0  0  0  0  0
   24.6689   -9.1024  -18.6024 O   0  0  0  0  0  0  0  0  0  0  0  0
   18.9850  -12.3406  -19.6557 N   0  0  0  0  0  0  0  0  0  0  0  0
   20.3216  -12.3026  -20.1786 C   0  0  0  0  0  0  0  0  0  0  0  0
   20.7021  -13.2971  -20.8392 O   0  0  0  0  0  0  0  0  0  0  0  0
   21.1956  -11.1255  -19.9338 C   0  0  0  0  0  0  0  0  0  0  0  0
   20.8534  -10.5706  -18.5797 C   0  0  0  0  0  0  0  0  0  0  0  0
   21.9452   -9.6783  -18.0298 C   0  0  2  0  0  0  0  0  0  0  0  0
   23.0657  -10.4647  -17.5810 N   0  0  0  0  0  0  0  0  0  0  0  0
   21.4230   -8.7811  -16.9727 C   0  0  0  0  0  0  0  0  0  0  0  0
   21.6912   -9.0449  -15.7820 O   0  0  0  0  0  0  0  0  0  0  0  0
   20.6503   -7.6672  -17.2882 N   0  0  0  0  0  0  0  0  0  0  0  0
   20.2177   -6.6676  -16.3046 C   0  0  1  0  0  0  0  0  0  0  0  0
   21.3580   -6.1417  -15.5267 C   0  0  0  0  0  0  0  0  0  0  0  0
   20.9515   -5.0162  -14.6264 C   0  0  0  0  0  0  0  0  0  0  0  0
   22.0482   -4.4613  -13.7998 C   0  0  0  0  0  0  0  0  0  0  0  0
   21.8546   -3.3267  -13.2938 O   0  0  0  0  0  0  0  0  0  0  0  0
   19.5669   -5.5957  -17.0777 C   0  0  0  0  0  0  0  0  0  0  0  0
   18.6761   -4.6711  -16.5026 O   0  0  0  0  0  0  0  0  0  0  0  0
   23.2522   -5.0830  -13.5458 O   0  0  0  0  0  0  0  0  0  0  0  0
   19.8105   -5.4903  -18.3270 O   0  0  0  0  0  0  0  0  0  0  0  0
  2  1  1  1
  2  3  1  0
  4  2  1  0
  4  5  1  6
  6  4  1  0
  6  7  2  0
  9 10  2  0
  9  8  1  0
 11  9  1  0
 13 12  1  1
 12 11  1  0
 13 14  1  0
 14  6  1  0
 15 13  1  0
 16 15  2  0
 17 15  1  0
 18 19  1  6
 18 17  1  0
 19 20  1  0
 21 20  1  0
 21 25  1  0
 22 21  2  0
 23 24  1  0
 23 18  1  0
 26 23  2  0
M  END
$$$$
