VQE.pdb
     RDKit          3D

 26 25  0  0  1  0  0  0  0  0999 V2000
   28.2890  -12.4607  -15.4775 C   0  0  0  0  0  0  0  0  0  0  0  0
   27.1549  -11.5035  -15.7737 C   0  0  1  0  0  0  0  0  0  0  0  0
   27.7461  -10.2298  -16.2903 C   0  0  0  0  0  0  0  0  0  0  0  0
   26.1606  -12.1377  -16.7127 C   0  0  2  0  0  0  0  0  0  0  0  0
   26.7850  -12.6526  -17.8891 N   0  0  0  0  0  0  0  0  0  0  0  0
   25.0081  -11.2564  -16.9933 C   0  0  0  0  0  0  0  0  0  0  0  0
   25.0841  -10.5535  -18.0590 O   0  0  0  0  0  0  0  0  0  0  0  0
   19.0924  -12.0743  -15.6314 N   0  0  0  0  0  0  0  0  0  0  0  0
   19.5986  -12.1998  -16.9691 C   0  0  0  0  0  0  0  0  0  0  0  0
   18.9107  -12.8665  -17.7769 O   0  0  0  0  0  0  0  0  0  0  0  0
   20.8830  -11.5587  -17.3542 C   0  0  0  0  0  0  0  0  0  0  0  0
   21.4601  -10.9090  -16.1281 C   0  0  0  0  0  0  0  0  0  0  0  0
   22.7956  -10.2504  -16.3992 C   0  0  2  0  0  0  0  0  0  0  0  0
   23.8753  -11.1721  -16.1548 N   0  0  0  0  0  0  0  0  0  0  0  0
   22.9392   -8.9925  -15.6296 C   0  0  0  0  0  0  0  0  0  0  0  0
   24.0007   -8.7967  -15.0019 O   0  0  0  0  0  0  0  0  0  0  0  0
   21.9208   -8.0441  -15.6000 N   0  0  0  0  0  0  0  0  0  0  0  0
   22.0985   -6.6690  -15.1190 C   0  0  1  0  0  0  0  0  0  0  0  0
   23.2197   -5.9943  -15.8044 C   0  0  0  0  0  0  0  0  0  0  0  0
   23.3546   -4.5633  -15.3841 C   0  0  0  0  0  0  0  0  0  0  0  0
   24.2265   -3.7441  -16.2574 C   0  0  0  0  0  0  0  0  0  0  0  0
   25.2351   -4.3161  -16.7436 O   0  0  0  0  0  0  0  0  0  0  0  0
   20.8244   -5.9797  -15.3870 C   0  0  0  0  0  0  0  0  0  0  0  0
   20.2671   -5.0340  -14.5071 O   0  0  0  0  0  0  0  0  0  0  0  0
   24.0228   -2.4179  -16.5743 O   0  0  0  0  0  0  0  0  0  0  0  0
   20.1849   -6.2441  -16.4604 O   0  0  0  0  0  0  0  0  0  0  0  0
  2  1  1  6
  2  3  1  0
  4  2  1  0
  4  5  1  6
  6  4  1  0
  6  7  2  0
  9 10  2  0
  9  8  1  0
 11  9  1  0
 13 12  1  1
 12 11  1  0
 13 14  1  0
 14  6  1  0
 15 13  1  0
 16 15  2  0
 17 15  1  0
 18 19  1  6
 18 17  1  0
 19 20  1  0
 21 20  1  0
 21 25  1  0
 22 21  2  0
 23 24  1  0
 23 18  1  0
 26 23  2  0
M  END
$$$$
