VQE.pdb
     RDKit          3D

 26 25  0  0  1  0  0  0  0  0999 V2000
   18.7669  -14.8574  -16.7884 C   0  0  0  0  0  0  0  0  0  0  0  0
   18.2823  -13.4838  -17.1986 C   0  0  1  0  0  0  0  0  0  0  0  0
   16.8065  -13.5631  -17.4319 C   0  0  0  0  0  0  0  0  0  0  0  0
   18.6816  -12.4549  -16.1717 C   0  0  2  0  0  0  0  0  0  0  0  0
   18.1990  -12.7811  -14.8681 N   0  0  0  0  0  0  0  0  0  0  0  0
   18.3533  -11.0778  -16.5956 C   0  0  0  0  0  0  0  0  0  0  0  0
   18.9308  -10.6641  -17.6590 O   0  0  0  0  0  0  0  0  0  0  0  0
   13.1912   -8.0272  -16.8317 N   0  0  0  0  0  0  0  0  0  0  0  0
   13.9210   -8.4974  -17.9753 C   0  0  0  0  0  0  0  0  0  0  0  0
   13.2884   -8.5949  -19.0525 O   0  0  0  0  0  0  0  0  0  0  0  0
   15.3612   -8.8466  -17.8613 C   0  0  0  0  0  0  0  0  0  0  0  0
   15.7940   -8.5645  -16.4501 C   0  0  0  0  0  0  0  0  0  0  0  0
   17.2624   -8.8562  -16.2282 C   0  0  2  0  0  0  0  0  0  0  0  0
   17.4593  -10.2428  -15.8907 N   0  0  0  0  0  0  0  0  0  0  0  0
   17.8451   -7.9395  -15.2207 C   0  0  0  0  0  0  0  0  0  0  0  0
   17.8216   -8.2820  -14.0202 O   0  0  0  0  0  0  0  0  0  0  0  0
   18.4083   -6.7221  -15.5926 N   0  0  0  0  0  0  0  0  0  0  0  0
   19.1037   -5.8252  -14.6622 C   0  0  1  0  0  0  0  0  0  0  0  0
   20.5087   -5.6091  -15.0634 C   0  0  0  0  0  0  0  0  0  0  0  0
   21.1970   -4.6129  -14.1822 C   0  0  0  0  0  0  0  0  0  0  0  0
   22.6093   -4.3457  -14.5400 C   0  0  0  0  0  0  0  0  0  0  0  0
   23.3815   -5.3376  -14.5675 O   0  0  0  0  0  0  0  0  0  0  0  0
   18.3488   -4.5602  -14.6806 C   0  0  0  0  0  0  0  0  0  0  0  0
   18.2476   -3.7140  -13.5614 O   0  0  0  0  0  0  0  0  0  0  0  0
   23.1386   -3.1087  -14.8401 O   0  0  0  0  0  0  0  0  0  0  0  0
   17.7526   -4.2042  -15.7525 O   0  0  0  0  0  0  0  0  0  0  0  0
  2  1  1  1
  2  3  1  0
  4  2  1  0
  4  5  1  1
  6  4  1  0
  6  7  2  0
  9 10  2  0
  9  8  1  0
 11  9  1  0
 13 12  1  1
 12 11  1  0
 13 14  1  0
 14  6  1  0
 15 13  1  0
 16 15  2  0
 17 15  1  0
 18 19  1  6
 18 17  1  0
 19 20  1  0
 21 20  1  0
 21 25  1  0
 22 21  2  0
 23 24  1  0
 23 18  1  0
 26 23  2  0
M  END
$$$$
