VQE.pdb
     RDKit          3D

 26 25  0  0  1  0  0  0  0  0999 V2000
   27.4916  -12.1421  -15.6928 C   0  0  0  0  0  0  0  0  0  0  0  0
   26.4765  -11.0560  -15.9754 C   0  0  1  0  0  0  0  0  0  0  0  0
   27.1460   -9.9969  -16.7932 C   0  0  0  0  0  0  0  0  0  0  0  0
   25.2467  -11.6388  -16.6238 C   0  0  2  0  0  0  0  0  0  0  0  0
   25.5537  -12.3291  -17.8354 N   0  0  0  0  0  0  0  0  0  0  0  0
   24.1610  -10.6468  -16.7680 C   0  0  0  0  0  0  0  0  0  0  0  0
   24.0472  -10.1011  -17.9190 O   0  0  0  0  0  0  0  0  0  0  0  0
   18.5373  -10.8596  -14.7247 N   0  0  0  0  0  0  0  0  0  0  0  0
   18.5388   -9.5042  -15.1981 C   0  0  0  0  0  0  0  0  0  0  0  0
   17.4291   -8.9270  -15.2729 O   0  0  0  0  0  0  0  0  0  0  0  0
   19.8121   -8.8373  -15.5764 C   0  0  0  0  0  0  0  0  0  0  0  0
   20.9285   -9.8210  -15.3649 C   0  0  0  0  0  0  0  0  0  0  0  0
   22.2594   -9.2975  -15.8602 C   0  0  2  0  0  0  0  0  0  0  0  0
   23.2842  -10.2997  -15.7171 N   0  0  0  0  0  0  0  0  0  0  0  0
   22.6161   -8.0232  -15.1939 C   0  0  0  0  0  0  0  0  0  0  0  0
   23.2072   -8.0711  -14.0950 O   0  0  0  0  0  0  0  0  0  0  0  0
   22.3044   -6.7952  -15.7705 N   0  0  0  0  0  0  0  0  0  0  0  0
   22.6374   -5.5003  -15.1655 C   0  0  1  0  0  0  0  0  0  0  0  0
   22.3286   -4.3794  -16.0766 C   0  0  0  0  0  0  0  0  0  0  0  0
   23.3146   -4.2810  -17.1994 C   0  0  0  0  0  0  0  0  0  0  0  0
   23.0960   -3.1356  -18.1128 C   0  0  0  0  0  0  0  0  0  0  0  0
   24.0723   -2.3641  -18.2935 O   0  0  0  0  0  0  0  0  0  0  0  0
   21.8375   -5.4134  -13.9315 C   0  0  0  0  0  0  0  0  0  0  0  0
   22.2401   -4.6647  -12.8106 O   0  0  0  0  0  0  0  0  0  0  0  0
   21.9192   -2.8505  -18.7717 O   0  0  0  0  0  0  0  0  0  0  0  0
   20.7283   -6.0425  -13.8606 O   0  0  0  0  0  0  0  0  0  0  0  0
  2  1  1  6
  2  3  1  0
  4  2  1  0
  4  5  1  6
  6  4  1  0
  6  7  2  0
  9 10  2  0
  9  8  1  0
 11  9  1  0
 13 12  1  1
 12 11  1  0
 13 14  1  0
 14  6  1  0
 15 13  1  0
 16 15  2  0
 17 15  1  0
 18 19  1  6
 18 17  1  0
 19 20  1  0
 21 20  1  0
 21 25  1  0
 22 21  2  0
 23 24  1  0
 23 18  1  0
 26 23  2  0
M  END
$$$$
