VQE.pdb
     RDKit          3D

 26 25  0  0  1  0  0  0  0  0999 V2000
   17.2997   -9.0281  -17.4462 C   0  0  0  0  0  0  0  0  0  0  0  0
   16.7342  -10.0759  -16.5122 C   0  0  1  0  0  0  0  0  0  0  0  0
   15.6711  -10.8284  -17.2486 C   0  0  0  0  0  0  0  0  0  0  0  0
   17.8361  -10.9514  -15.9721 C   0  0  2  0  0  0  0  0  0  0  0  0
   17.3312  -12.0107  -15.1585 N   0  0  0  0  0  0  0  0  0  0  0  0
   18.9111  -10.1707  -15.3251 C   0  0  0  0  0  0  0  0  0  0  0  0
   18.6307   -9.6662  -14.1838 O   0  0  0  0  0  0  0  0  0  0  0  0
   24.9930  -10.9608  -16.1192 N   0  0  0  0  0  0  0  0  0  0  0  0
   24.0289  -11.8385  -15.5181 C   0  0  0  0  0  0  0  0  0  0  0  0
   24.3746  -13.0307  -15.3468 O   0  0  0  0  0  0  0  0  0  0  0  0
   22.6878  -11.3324  -15.1252 C   0  0  0  0  0  0  0  0  0  0  0  0
   22.5878   -9.8996  -15.5675 C   0  0  0  0  0  0  0  0  0  0  0  0
   21.2484   -9.2831  -15.2260 C   0  0  2  0  0  0  0  0  0  0  0  0
   20.1831   -9.9747  -15.9057 N   0  0  0  0  0  0  0  0  0  0  0  0
   21.2431   -7.8268  -15.4986 C   0  0  0  0  0  0  0  0  0  0  0  0
   20.9420   -7.4370  -16.6460 O   0  0  0  0  0  0  0  0  0  0  0  0
   21.5648   -6.9055  -14.5060 N   0  0  0  0  0  0  0  0  0  0  0  0
   21.4658   -5.4514  -14.6776 C   0  0  1  0  0  0  0  0  0  0  0  0
   20.0627   -4.9925  -14.6271 C   0  0  0  0  0  0  0  0  0  0  0  0
   19.9593   -3.4989  -14.6607 C   0  0  0  0  0  0  0  0  0  0  0  0
   18.5750   -2.9787  -14.7437 C   0  0  0  0  0  0  0  0  0  0  0  0
   17.6489   -3.8265  -14.6767 O   0  0  0  0  0  0  0  0  0  0  0  0
   22.2542   -4.8609  -13.5821 C   0  0  0  0  0  0  0  0  0  0  0  0
   22.6929   -3.5243  -13.5903 O   0  0  0  0  0  0  0  0  0  0  0  0
   18.2254   -1.6531  -14.8889 O   0  0  0  0  0  0  0  0  0  0  0  0
   22.5628   -5.5830  -12.5750 O   0  0  0  0  0  0  0  0  0  0  0  0
  2  1  1  6
  2  3  1  0
  4  2  1  0
  4  5  1  1
  6  4  1  0
  6  7  2  0
  9 10  2  0
  9  8  1  0
 11  9  1  0
 13 12  1  6
 12 11  1  0
 13 14  1  0
 14  6  1  0
 15 13  1  0
 16 15  2  0
 17 15  1  0
 18 19  1  1
 18 17  1  0
 19 20  1  0
 21 20  1  0
 21 25  1  0
 22 21  2  0
 23 24  1  0
 23 18  1  0
 26 23  2  0
M  END
$$$$
