VQE.pdb
     RDKit          3D

 26 25  0  0  1  0  0  0  0  0999 V2000
   11.8815  -21.0049   -2.3637 C   0  0  0  0  0  0  0  0  0  0  0  0
   11.3721  -21.5189   -3.6928 C   0  0  1  0  0  0  0  0  0  0  0  0
   10.7853  -20.3645   -4.4424 C   0  0  0  0  0  0  0  0  0  0  0  0
   12.4703  -22.2334   -4.4384 C   0  0  2  0  0  0  0  0  0  0  0  0
   12.0702  -22.6063   -5.7573 N   0  0  0  0  0  0  0  0  0  0  0  0
   13.0485  -23.3479   -3.6592 C   0  0  0  0  0  0  0  0  0  0  0  0
   12.2508  -24.3044   -3.3689 O   0  0  0  0  0  0  0  0  0  0  0  0
   18.3828  -26.3403   -3.7791 N   0  0  0  0  0  0  0  0  0  0  0  0
   17.1749  -26.6210   -4.5027 C   0  0  0  0  0  0  0  0  0  0  0  0
   17.2546  -27.4443   -5.4440 O   0  0  0  0  0  0  0  0  0  0  0  0
   15.8999  -25.9525   -4.1332 C   0  0  0  0  0  0  0  0  0  0  0  0
   16.1849  -25.0120   -2.9961 C   0  0  0  0  0  0  0  0  0  0  0  0
   14.9219  -24.4283   -2.4006 C   0  0  2  0  0  0  0  0  0  0  0  0
   14.3976  -23.3851   -3.2444 N   0  0  0  0  0  0  0  0  0  0  0  0
   15.1462  -23.9722   -1.0089 C   0  0  0  0  0  0  0  0  0  0  0  0
   14.9282  -22.7742   -0.7327 O   0  0  0  0  0  0  0  0  0  0  0  0
   15.5895  -24.8504   -0.0242 N   0  0  0  0  0  0  0  0  0  0  0  0
   15.7772  -24.4742    1.3819 C   0  0  1  0  0  0  0  0  0  0  0  0
   14.4992  -24.0952    2.0183 C   0  0  0  0  0  0  0  0  0  0  0  0
   13.6070  -25.2786    2.2336 C   0  0  0  0  0  0  0  0  0  0  0  0
   12.3544  -24.9808    2.9658 C   0  0  0  0  0  0  0  0  0  0  0  0
   11.5085  -24.2669    2.3694 O   0  0  0  0  0  0  0  0  0  0  0  0
   16.3656  -25.6534    2.0404 C   0  0  0  0  0  0  0  0  0  0  0  0
   16.8863  -25.6191    3.3468 O   0  0  0  0  0  0  0  0  0  0  0  0
   12.0468  -25.4182    4.2365 O   0  0  0  0  0  0  0  0  0  0  0  0
   16.4143  -26.7622    1.4085 O   0  0  0  0  0  0  0  0  0  0  0  0
  2  1  1  1
  2  3  1  0
  4  2  1  0
  4  5  1  6
  6  4  1  0
  6  7  2  0
  9 10  2  0
  9  8  1  0
 11  9  1  0
 13 12  1  6
 12 11  1  0
 13 14  1  0
 14  6  1  0
 15 13  1  0
 16 15  2  0
 17 15  1  0
 18 19  1  1
 18 17  1  0
 19 20  1  0
 21 20  1  0
 21 25  1  0
 22 21  2  0
 23 24  1  0
 23 18  1  0
 26 23  2  0
M  END
$$$$
