VQE.pdb
     RDKit          3D

 26 25  0  0  1  0  0  0  0  0999 V2000
   29.2192  -19.2087  -17.7986 C   0  0  0  0  0  0  0  0  0  0  0  0
   27.8029  -19.7380  -17.7365 C   0  0  1  0  0  0  0  0  0  0  0  0
   27.8076  -21.1384  -18.2633 C   0  0  0  0  0  0  0  0  0  0  0  0
   27.2548  -19.6161  -16.3375 C   0  0  2  0  0  0  0  0  0  0  0  0
   28.0658  -20.2990  -15.3810 N   0  0  0  0  0  0  0  0  0  0  0  0
   25.8228  -19.9723  -16.2595 C   0  0  0  0  0  0  0  0  0  0  0  0
   25.0333  -19.2935  -17.0020 O   0  0  0  0  0  0  0  0  0  0  0  0
   23.3422  -25.0156  -13.4597 N   0  0  0  0  0  0  0  0  0  0  0  0
   22.1744  -24.3989  -14.0228 C   0  0  0  0  0  0  0  0  0  0  0  0
   21.0937  -25.0240  -13.9155 O   0  0  0  0  0  0  0  0  0  0  0  0
   22.2684  -23.0780  -14.6978 C   0  0  0  0  0  0  0  0  0  0  0  0
   23.7103  -22.6547  -14.6842 C   0  0  0  0  0  0  0  0  0  0  0  0
   23.9189  -21.2987  -15.3234 C   0  0  2  0  0  0  0  0  0  0  0  0
   25.3236  -20.9961  -15.4251 N   0  0  0  0  0  0  0  0  0  0  0  0
   23.1629  -20.2456  -14.6061 C   0  0  0  0  0  0  0  0  0  0  0  0
   23.5785  -19.8699  -13.4902 O   0  0  0  0  0  0  0  0  0  0  0  0
   22.0146  -19.6813  -15.1540 N   0  0  0  0  0  0  0  0  0  0  0  0
   21.2862  -18.5601  -14.5488 C   0  0  1  0  0  0  0  0  0  0  0  0
   21.0216  -17.4900  -15.5319 C   0  0  0  0  0  0  0  0  0  0  0  0
   20.3038  -16.3283  -14.9172 C   0  0  0  0  0  0  0  0  0  0  0  0
   19.9160  -15.2668  -15.8747 C   0  0  0  0  0  0  0  0  0  0  0  0
   20.2003  -15.4660  -17.0832 O   0  0  0  0  0  0  0  0  0  0  0  0
   20.0277  -19.1271  -14.0340 C   0  0  0  0  0  0  0  0  0  0  0  0
   19.3504  -18.5985  -12.9200 O   0  0  0  0  0  0  0  0  0  0  0  0
   19.2767  -14.0897  -15.5489 O   0  0  0  0  0  0  0  0  0  0  0  0
   19.5184  -20.1452  -14.6129 O   0  0  0  0  0  0  0  0  0  0  0  0
  2  1  1  1
  2  3  1  0
  4  2  1  0
  4  5  1  1
  6  4  1  0
  6  7  2  0
  9 10  2  0
  9  8  1  0
 11  9  1  0
 13 12  1  1
 12 11  1  0
 13 14  1  0
 14  6  1  0
 15 13  1  0
 16 15  2  0
 17 15  1  0
 18 19  1  6
 18 17  1  0
 19 20  1  0
 21 20  1  0
 21 25  1  0
 22 21  2  0
 23 24  1  0
 23 18  1  0
 26 23  2  0
M  END
$$$$
