VQE.pdb
     RDKit          3D

 26 25  0  0  1  0  0  0  0  0999 V2000
   33.2280  -26.9252  -14.9315 C   0  0  0  0  0  0  0  0  0  0  0  0
   32.9505  -25.5659  -15.5359 C   0  0  1  0  0  0  0  0  0  0  0  0
   34.1472  -24.6997  -15.2985 C   0  0  0  0  0  0  0  0  0  0  0  0
   32.5761  -25.7012  -16.9898 C   0  0  2  0  0  0  0  0  0  0  0  0
   32.5253  -24.4371  -17.6517 N   0  0  0  0  0  0  0  0  0  0  0  0
   31.3615  -26.5198  -17.1858 C   0  0  0  0  0  0  0  0  0  0  0  0
   31.4368  -27.7380  -16.8041 O   0  0  0  0  0  0  0  0  0  0  0  0
   25.9771  -27.0600  -16.6611 N   0  0  0  0  0  0  0  0  0  0  0  0
   26.4365  -25.7438  -16.3177 C   0  0  0  0  0  0  0  0  0  0  0  0
   25.9731  -25.2353  -15.2704 O   0  0  0  0  0  0  0  0  0  0  0  0
   27.4178  -25.0366  -17.1815 C   0  0  0  0  0  0  0  0  0  0  0  0
   27.8041  -25.9663  -18.2973 C   0  0  0  0  0  0  0  0  0  0  0  0
   28.9966  -26.8282  -17.9425 C   0  0  2  0  0  0  0  0  0  0  0  0
   30.1724  -26.0169  -17.7575 N   0  0  0  0  0  0  0  0  0  0  0  0
   29.2001  -27.9008  -18.9442 C   0  0  0  0  0  0  0  0  0  0  0  0
   29.7220  -27.6020  -20.0385 O   0  0  0  0  0  0  0  0  0  0  0  0
   28.8219  -29.2144  -18.6821 N   0  0  0  0  0  0  0  0  0  0  0  0
   29.2265  -30.3608  -19.5043 C   0  0  1  0  0  0  0  0  0  0  0  0
   30.6926  -30.5412  -19.5013 C   0  0  0  0  0  0  0  0  0  0  0  0
   31.1158  -31.7094  -20.3373 C   0  0  0  0  0  0  0  0  0  0  0  0
   32.5799  -31.9243  -20.3997 C   0  0  0  0  0  0  0  0  0  0  0  0
   33.0700  -32.7182  -19.5568 O   0  0  0  0  0  0  0  0  0  0  0  0
   28.5491  -31.5332  -18.9238 C   0  0  0  0  0  0  0  0  0  0  0  0
   28.6643  -32.8274  -19.4631 O   0  0  0  0  0  0  0  0  0  0  0  0
   33.4389  -31.3276  -21.2979 O   0  0  0  0  0  0  0  0  0  0  0  0
   27.8195  -31.3828  -17.8864 O   0  0  0  0  0  0  0  0  0  0  0  0
  2  1  1  6
  2  3  1  0
  4  2  1  0
  4  5  1  1
  6  4  1  0
  6  7  2  0
  9 10  2  0
  9  8  1  0
 11  9  1  0
 13 12  1  6
 12 11  1  0
 13 14  1  0
 14  6  1  0
 15 13  1  0
 16 15  2  0
 17 15  1  0
 18 19  1  1
 18 17  1  0
 19 20  1  0
 21 20  1  0
 21 25  1  0
 22 21  2  0
 23 24  1  0
 23 18  1  0
 26 23  2  0
M  END
$$$$
