VQE.pdb
     RDKit          3D

 26 25  0  0  1  0  0  0  0  0999 V2000
   22.9959   -7.0033  -22.5281 C   0  0  0  0  0  0  0  0  0  0  0  0
   23.4305   -8.1138  -23.4597 C   0  0  1  0  0  0  0  0  0  0  0  0
   23.8515   -7.4944  -24.7550 C   0  0  0  0  0  0  0  0  0  0  0  0
   24.4994   -8.9573  -22.8128 C   0  0  2  0  0  0  0  0  0  0  0  0
   24.9376  -10.0161  -23.6648 N   0  0  0  0  0  0  0  0  0  0  0  0
   24.1192   -9.4084  -21.4579 C   0  0  0  0  0  0  0  0  0  0  0  0
   23.2575  -10.3516  -21.4005 O   0  0  0  0  0  0  0  0  0  0  0  0
   26.5211  -11.4697  -14.9898 N   0  0  0  0  0  0  0  0  0  0  0  0
   26.5153  -10.7006  -16.2022 C   0  0  0  0  0  0  0  0  0  0  0  0
   27.6293  -10.3657  -16.6681 O   0  0  0  0  0  0  0  0  0  0  0  0
   25.2330  -10.3306  -16.8563 C   0  0  0  0  0  0  0  0  0  0  0  0
   25.5514   -9.7839  -18.2195 C   0  0  0  0  0  0  0  0  0  0  0  0
   24.3127   -9.3354  -18.9644 C   0  0  2  0  0  0  0  0  0  0  0  0
   24.6567   -8.8518  -20.2770 N   0  0  0  0  0  0  0  0  0  0  0  0
   23.5441   -8.3424  -18.1781 C   0  0  0  0  0  0  0  0  0  0  0  0
   23.9379   -7.1575  -18.1680 O   0  0  0  0  0  0  0  0  0  0  0  0
   22.4079   -8.7107  -17.4634 N   0  0  0  0  0  0  0  0  0  0  0  0
   21.5855   -7.7696  -16.6942 C   0  0  1  0  0  0  0  0  0  0  0  0
   20.2121   -8.2785  -16.5030 C   0  0  0  0  0  0  0  0  0  0  0  0
   19.3698   -7.3334  -15.7030 C   0  0  0  0  0  0  0  0  0  0  0  0
   17.9604   -7.7563  -15.5339 C   0  0  0  0  0  0  0  0  0  0  0  0
   17.3989   -8.2623  -16.5387 O   0  0  0  0  0  0  0  0  0  0  0  0
   22.2701   -7.5989  -15.4008 C   0  0  0  0  0  0  0  0  0  0  0  0
   22.2522   -6.3909  -14.6801 O   0  0  0  0  0  0  0  0  0  0  0  0
   17.2229   -7.6383  -14.3751 O   0  0  0  0  0  0  0  0  0  0  0  0
   22.9145   -8.5816  -14.9007 O   0  0  0  0  0  0  0  0  0  0  0  0
  2  1  1  1
  2  3  1  0
  4  2  1  0
  4  5  1  6
  6  4  1  0
  6  7  2  0
  9 10  2  0
  9  8  1  0
 11  9  1  0
 13 12  1  1
 12 11  1  0
 13 14  1  0
 14  6  1  0
 15 13  1  0
 16 15  2  0
 17 15  1  0
 18 19  1  1
 18 17  1  0
 19 20  1  0
 21 20  1  0
 21 25  1  0
 22 21  2  0
 23 24  1  0
 23 18  1  0
 26 23  2  0
M  END
$$$$
