VQE.pdb
     RDKit          3D

 26 25  0  0  1  0  0  0  0  0999 V2000
   18.0782  -13.1796  -17.5863 C   0  0  0  0  0  0  0  0  0  0  0  0
   19.2104  -12.5332  -16.8177 C   0  0  1  0  0  0  0  0  0  0  0  0
   19.9900  -13.6167  -16.1418 C   0  0  0  0  0  0  0  0  0  0  0  0
   20.0394  -11.6653  -17.7297 C   0  0  2  0  0  0  0  0  0  0  0  0
   20.5275  -12.3867  -18.8612 N   0  0  0  0  0  0  0  0  0  0  0  0
   21.0916  -10.9258  -17.0020 C   0  0  0  0  0  0  0  0  0  0  0  0
   20.6856  -10.0520  -16.1611 O   0  0  0  0  0  0  0  0  0  0  0  0
   27.2700  -12.0917  -17.1472 N   0  0  0  0  0  0  0  0  0  0  0  0
   27.2314  -10.9170  -16.3225 C   0  0  0  0  0  0  0  0  0  0  0  0
   28.3220  -10.5154  -15.8540 O   0  0  0  0  0  0  0  0  0  0  0  0
   25.9437  -10.2262  -16.0512 C   0  0  0  0  0  0  0  0  0  0  0  0
   24.8509  -11.0053  -16.7275 C   0  0  0  0  0  0  0  0  0  0  0  0
   23.4860  -10.3864  -16.5158 C   0  0  2  0  0  0  0  0  0  0  0  0
   22.4720  -11.1470  -17.2001 N   0  0  0  0  0  0  0  0  0  0  0  0
   23.4797   -8.9563  -16.9031 C   0  0  0  0  0  0  0  0  0  0  0  0
   23.5212   -8.6683  -18.1174 O   0  0  0  0  0  0  0  0  0  0  0  0
   23.4288   -7.9489  -15.9439 N   0  0  0  0  0  0  0  0  0  0  0  0
   23.2642   -6.5256  -16.2616 C   0  0  1  0  0  0  0  0  0  0  0  0
   21.9870   -5.9968  -15.7407 C   0  0  0  0  0  0  0  0  0  0  0  0
   21.7946   -4.5528  -16.0874 C   0  0  0  0  0  0  0  0  0  0  0  0
   20.5149   -3.9719  -15.6198 C   0  0  0  0  0  0  0  0  0  0  0  0
   20.5166   -2.7428  -15.3551 O   0  0  0  0  0  0  0  0  0  0  0  0
   24.4114   -5.8386  -15.6434 C   0  0  0  0  0  0  0  0  0  0  0  0
   24.8930   -4.5966  -16.0957 O   0  0  0  0  0  0  0  0  0  0  0  0
   19.3353   -4.6653  -15.4516 O   0  0  0  0  0  0  0  0  0  0  0  0
   25.0067   -6.3838  -14.6537 O   0  0  0  0  0  0  0  0  0  0  0  0
  2  1  1  6
  2  3  1  0
  4  2  1  0
  4  5  1  6
  6  4  1  0
  6  7  2  0
  9 10  2  0
  9  8  1  0
 11  9  1  0
 13 12  1  6
 12 11  1  0
 13 14  1  0
 14  6  1  0
 15 13  1  0
 16 15  2  0
 17 15  1  0
 18 19  1  1
 18 17  1  0
 19 20  1  0
 21 20  1  0
 21 25  1  0
 22 21  2  0
 23 24  1  0
 23 18  1  0
 26 23  2  0
M  END
$$$$
