VQE.pdb
     RDKit          3D

 26 25  0  0  1  0  0  0  0  0999 V2000
   29.1763  -19.4457  -18.2428 C   0  0  0  0  0  0  0  0  0  0  0  0
   27.8798  -18.9643  -17.6287 C   0  0  1  0  0  0  0  0  0  0  0  0
   28.2152  -18.1142  -16.4440 C   0  0  0  0  0  0  0  0  0  0  0  0
   27.0351  -18.2626  -18.6615 C   0  0  2  0  0  0  0  0  0  0  0  0
   27.7545  -17.2262  -19.3302 N   0  0  0  0  0  0  0  0  0  0  0  0
   25.7321  -17.8229  -18.1206 C   0  0  0  0  0  0  0  0  0  0  0  0
   25.7298  -16.7058  -17.4981 O   0  0  0  0  0  0  0  0  0  0  0  0
   20.6881  -16.7065  -20.6315 N   0  0  0  0  0  0  0  0  0  0  0  0
   20.2214  -16.6230  -19.2763 C   0  0  0  0  0  0  0  0  0  0  0  0
   19.0889  -16.1182  -19.0953 O   0  0  0  0  0  0  0  0  0  0  0  0
   21.0620  -17.1197  -18.1557 C   0  0  0  0  0  0  0  0  0  0  0  0
   22.3751  -17.5725  -18.7295 C   0  0  0  0  0  0  0  0  0  0  0  0
   23.2924  -18.1581  -17.6777 C   0  0  2  0  0  0  0  0  0  0  0  0
   24.5419  -18.5685  -18.2654 N   0  0  0  0  0  0  0  0  0  0  0  0
   22.6273  -19.2552  -16.9367 C   0  0  0  0  0  0  0  0  0  0  0  0
   22.5713  -20.3838  -17.4678 O   0  0  0  0  0  0  0  0  0  0  0  0
   22.0743  -19.0438  -15.6769 N   0  0  0  0  0  0  0  0  0  0  0  0
   21.4360  -20.0962  -14.8776 C   0  0  1  0  0  0  0  0  0  0  0  0
   21.1472  -19.6356  -13.5042 C   0  0  0  0  0  0  0  0  0  0  0  0
   20.3661  -20.6485  -12.7253 C   0  0  0  0  0  0  0  0  0  0  0  0
   20.0377  -20.2410  -11.3397 C   0  0  0  0  0  0  0  0  0  0  0  0
   20.4116  -19.0939  -10.9855 O   0  0  0  0  0  0  0  0  0  0  0  0
   20.1945  -20.4466  -15.5890 C   0  0  0  0  0  0  0  0  0  0  0  0
   19.6708  -21.7519  -15.6151 O   0  0  0  0  0  0  0  0  0  0  0  0
   19.3637  -21.0122  -10.4170 O   0  0  0  0  0  0  0  0  0  0  0  0
   19.5558  -19.5358  -16.2165 O   0  0  0  0  0  0  0  0  0  0  0  0
  2  1  1  6
  2  3  1  0
  4  2  1  0
  4  5  1  1
  6  4  1  0
  6  7  2  0
  9 10  2  0
  9  8  1  0
 11  9  1  0
 13 12  1  6
 12 11  1  0
 13 14  1  0
 14  6  1  0
 15 13  1  0
 16 15  2  0
 17 15  1  0
 18 19  1  1
 18 17  1  0
 19 20  1  0
 21 20  1  0
 21 25  1  0
 22 21  2  0
 23 24  1  0
 23 18  1  0
 26 23  2  0
M  END
$$$$
