NRL.pdb
     RDKit          3D

 28 27  0  0  1  0  0  0  0  0999 V2000
   21.0900  -17.3167  -15.0773 N   0  0  0  0  0  0  0  0  0  0  0  0
   20.8076  -18.3066  -16.0522 C   0  0  0  0  0  0  0  0  0  0  0  0
   19.6371  -18.4247  -16.4864 O   0  0  0  0  0  0  0  0  0  0  0  0
   21.8888  -19.1919  -16.5512 C   0  0  0  0  0  0  0  0  0  0  0  0
   23.1461  -18.9707  -15.7246 C   0  0  2  0  0  0  0  0  0  0  0  0
   23.4498  -17.5792  -15.5728 N   0  0  0  0  0  0  0  0  0  0  0  0
   24.2665  -19.7439  -16.3169 C   0  0  0  0  0  0  0  0  0  0  0  0
   24.0727  -20.2035  -17.4819 O   0  0  0  0  0  0  0  0  0  0  0  0
   31.1286  -23.9533  -14.5092 N   0  0  0  0  0  0  0  0  0  0  0  0
   30.3143  -24.0772  -15.6926 C   0  0  0  0  0  0  0  0  0  0  0  0
   30.2548  -25.2172  -16.2683 N   0  0  0  0  0  0  0  0  0  0  0  0
   29.6119  -22.9489  -16.1793 N   0  0  0  0  0  0  0  0  0  0  0  0
   29.6568  -21.7333  -15.4115 C   0  0  0  0  0  0  0  0  0  0  0  0
   28.3080  -21.4253  -14.7737 C   0  0  0  0  0  0  0  0  0  0  0  0
   27.2229  -21.7147  -15.7878 C   0  0  0  0  0  0  0  0  0  0  0  0
   25.8494  -21.3163  -15.2395 C   0  0  2  0  0  0  0  0  0  0  0  0
   25.4955  -19.9813  -15.6621 N   0  0  0  0  0  0  0  0  0  0  0  0
   25.8826  -21.4468  -13.7669 C   0  0  0  0  0  0  0  0  0  0  0  0
   26.9477  -21.2257  -13.1396 O   0  0  0  0  0  0  0  0  0  0  0  0
   29.6863  -25.3795  -17.1141 C   0  0  0  0  0  0  0  0  0  0  0  0
   26.3124  -19.5070   -8.9989 C   0  0  1  0  0  0  0  0  0  0  0  0
   26.3587  -20.5414  -10.1307 C   0  0  0  0  0  0  0  0  0  0  0  0
   25.9689  -21.8771   -9.5266 C   0  0  0  0  0  0  0  0  0  0  0  0
   25.3940  -20.1815  -11.2120 C   0  0  2  0  0  0  0  0  0  0  0  0
   24.4760  -21.2357  -11.6956 N   0  0  0  0  0  0  0  0  0  0  0  0
   24.7424  -21.8217  -12.9770 C   0  0  0  0  0  0  0  0  0  0  0  0
   23.0639  -20.7587  -11.6863 O   0  0  0  0  0  0  0  0  0  0  0  0
   22.6533  -20.0761  -12.6558 O   0  0  0  0  0  0  0  0  0  0  0  0
  1  2  1  0
  2  3  2  0
  4  2  1  0
  4  5  1  0
  5  6  1  6
  7  8  2  0
  7  5  1  0
 10  9  1  0
 10 12  1  0
 11 10  2  0
 13 12  1  0
 13 14  1  0
 14 15  1  0
 16 15  1  1
 16 17  1  0
 17  7  1  0
 18 16  1  0
 19 18  2  0
 21 20  1  1
 21 23  1  0
 22 21  1  0
 24 23  1  1
 24 26  1  0
 24 25  1  0
 25 18  1  0
 26 28  1  0
 27 26  2  0
M  END
$$$$
