NRL.pdb
     RDKit          3D

 28 27  0  0  1  0  0  0  0  0999 V2000
   15.6910  -31.3645   -8.4149 N   0  0  0  0  0  0  0  0  0  0  0  0
   14.8404  -30.7699   -9.3808 C   0  0  0  0  0  0  0  0  0  0  0  0
   14.1377  -31.5042  -10.1154 O   0  0  0  0  0  0  0  0  0  0  0  0
   14.7850  -29.2935   -9.5180 C   0  0  0  0  0  0  0  0  0  0  0  0
   15.7214  -28.6553   -8.5037 C   0  0  2  0  0  0  0  0  0  0  0  0
   15.0880  -28.4686   -7.2326 N   0  0  0  0  0  0  0  0  0  0  0  0
   16.2695  -27.3951   -9.0652 C   0  0  0  0  0  0  0  0  0  0  0  0
   15.4898  -26.3962   -9.0595 O   0  0  0  0  0  0  0  0  0  0  0  0
   21.0620  -29.9712  -10.5144 N   0  0  0  0  0  0  0  0  0  0  0  0
   21.3394  -29.7846  -11.9169 C   0  0  0  0  0  0  0  0  0  0  0  0
   21.3017  -30.8085  -12.6816 N   0  0  0  0  0  0  0  0  0  0  0  0
   21.6421  -28.4905  -12.4037 N   0  0  0  0  0  0  0  0  0  0  0  0
   21.2960  -27.3565  -11.5891 C   0  0  0  0  0  0  0  0  0  0  0  0
   19.7959  -27.2907  -11.3315 C   0  0  0  0  0  0  0  0  0  0  0  0
   19.5083  -26.0630  -10.4950 C   0  0  0  0  0  0  0  0  0  0  0  0
   18.0250  -25.9996  -10.1187 C   0  0  2  0  0  0  0  0  0  0  0  0
   17.5758  -27.2652   -9.5870 N   0  0  0  0  0  0  0  0  0  0  0  0
   17.2599  -25.5928  -11.3170 C   0  0  0  0  0  0  0  0  0  0  0  0
   16.9036  -26.4542  -12.1582 O   0  0  0  0  0  0  0  0  0  0  0  0
   21.5449  -30.7587  -13.6832 C   0  0  0  0  0  0  0  0  0  0  0  0
   12.5884  -25.3358  -12.5331 C   0  0  1  0  0  0  0  0  0  0  0  0
   14.0955  -25.3714  -12.8167 C   0  0  0  0  0  0  0  0  0  0  0  0
   14.2695  -25.9191  -14.2205 C   0  0  0  0  0  0  0  0  0  0  0  0
   14.6777  -23.9986  -12.7403 C   0  0  2  0  0  0  0  0  0  0  0  0
   16.1511  -23.8719  -12.7737 N   0  0  0  0  0  0  0  0  0  0  0  0
   16.8829  -24.2345  -11.5951 C   0  0  0  0  0  0  0  0  0  0  0  0
   16.5591  -22.4940  -13.1697 O   0  0  0  0  0  0  0  0  0  0  0  0
   16.1615  -22.0422  -14.2707 O   0  0  0  0  0  0  0  0  0  0  0  0
  1  2  1  0
  2  3  2  0
  4  2  1  0
  4  5  1  0
  5  6  1  1
  7  8  2  0
  7  5  1  0
 10  9  1  0
 10 12  1  0
 11 10  2  0
 13 12  1  0
 13 14  1  0
 14 15  1  0
 16 15  1  6
 16 17  1  0
 17  7  1  0
 18 16  1  0
 19 18  2  0
 21 20  1  1
 21 23  1  0
 22 21  1  0
 24 23  1  6
 24 26  1  0
 24 25  1  0
 25 18  1  0
 26 28  1  0
 27 26  2  0
M  END
$$$$
