NRL.pdb
     RDKit          3D

 28 27  0  0  1  0  0  0  0  0999 V2000
   19.6314  -17.5375  -15.6068 N   0  0  0  0  0  0  0  0  0  0  0  0
   19.6800  -18.8847  -16.0458 C   0  0  0  0  0  0  0  0  0  0  0  0
   18.6396  -19.4225  -16.4941 O   0  0  0  0  0  0  0  0  0  0  0  0
   20.9509  -19.6473  -15.9740 C   0  0  0  0  0  0  0  0  0  0  0  0
   22.0328  -18.7714  -15.3614 C   0  0  2  0  0  0  0  0  0  0  0  0
   22.3234  -17.6298  -16.1763 N   0  0  0  0  0  0  0  0  0  0  0  0
   23.2330  -19.5980  -15.0783 C   0  0  0  0  0  0  0  0  0  0  0  0
   23.0167  -20.7456  -14.5862 O   0  0  0  0  0  0  0  0  0  0  0  0
   30.0039  -22.9029  -16.7740 N   0  0  0  0  0  0  0  0  0  0  0  0
   29.4457  -22.2004  -17.9026 C   0  0  0  0  0  0  0  0  0  0  0  0
   29.3037  -22.8385  -19.0013 N   0  0  0  0  0  0  0  0  0  0  0  0
   29.0748  -20.8413  -17.7663 N   0  0  0  0  0  0  0  0  0  0  0  0
   29.2186  -20.2204  -16.4768 C   0  0  0  0  0  0  0  0  0  0  0  0
   28.0630  -20.5799  -15.5515 C   0  0  0  0  0  0  0  0  0  0  0  0
   26.8953  -19.6721  -15.8707 C   0  0  0  0  0  0  0  0  0  0  0  0
   25.6676  -20.0567  -15.0397 C   0  0  2  0  0  0  0  0  0  0  0  0
   24.5586  -19.1763  -15.3246 N   0  0  0  0  0  0  0  0  0  0  0  0
   26.0488  -20.0324  -13.6111 C   0  0  0  0  0  0  0  0  0  0  0  0
   26.4031  -18.9547  -13.0729 O   0  0  0  0  0  0  0  0  0  0  0  0
   28.8947  -22.4039  -19.8432 C   0  0  0  0  0  0  0  0  0  0  0  0
   24.2597  -20.6343   -8.7469 C   0  0  2  0  0  0  0  0  0  0  0  0
   25.3849  -19.7326   -9.2705 C   0  0  0  0  0  0  0  0  0  0  0  0
   26.6756  -20.2255   -8.6445 C   0  0  0  0  0  0  0  0  0  0  0  0
   25.4837  -19.8248  -10.7575 C   0  0  2  0  0  0  0  0  0  0  0  0
   25.9519  -21.1015  -11.3394 N   0  0  0  0  0  0  0  0  0  0  0  0
   26.0418  -21.1954  -12.7674 C   0  0  0  0  0  0  0  0  0  0  0  0
   25.1306  -22.2444  -10.8483 O   0  0  0  0  0  0  0  0  0  0  0  0
   25.6822  -23.1205  -10.1394 O   0  0  0  0  0  0  0  0  0  0  0  0
  1  2  1  0
  2  3  2  0
  4  2  1  0
  4  5  1  0
  5  6  1  6
  7  8  2  0
  7  5  1  0
 10  9  1  0
 10 12  1  0
 11 10  2  0
 13 12  1  0
 13 14  1  0
 14 15  1  0
 16 15  1  6
 16 17  1  0
 17  7  1  0
 18 16  1  0
 19 18  2  0
 21 20  1  1
 21 23  1  0
 22 21  1  0
 24 23  1  1
 24 26  1  0
 24 25  1  0
 25 18  1  0
 26 28  1  0
 27 26  2  0
M  END
$$$$
