NRL.pdb
     RDKit          3D

 28 27  0  0  1  0  0  0  0  0999 V2000
   17.6859  -20.3351  -10.4280 N   0  0  0  0  0  0  0  0  0  0  0  0
   17.8367  -21.6590  -10.9121 C   0  0  0  0  0  0  0  0  0  0  0  0
   16.9457  -22.5073  -10.6684 O   0  0  0  0  0  0  0  0  0  0  0  0
   19.0379  -22.0334  -11.6987 C   0  0  0  0  0  0  0  0  0  0  0  0
   19.9778  -20.8409  -11.7857 C   0  0  2  0  0  0  0  0  0  0  0  0
   19.3801  -19.7364  -12.4744 N   0  0  0  0  0  0  0  0  0  0  0  0
   21.2629  -21.2709  -12.3919 C   0  0  0  0  0  0  0  0  0  0  0  0
   21.8750  -22.2073  -11.7967 O   0  0  0  0  0  0  0  0  0  0  0  0
   21.7763  -18.1058  -19.4923 N   0  0  0  0  0  0  0  0  0  0  0  0
   22.4410  -17.1587  -18.6322 C   0  0  0  0  0  0  0  0  0  0  0  0
   22.3359  -15.9148  -18.9079 N   0  0  0  0  0  0  0  0  0  0  0  0
   23.1825  -17.6247  -17.5203 N   0  0  0  0  0  0  0  0  0  0  0  0
   23.2086  -19.0395  -17.2615 C   0  0  0  0  0  0  0  0  0  0  0  0
   23.0959  -19.3372  -15.7717 C   0  0  0  0  0  0  0  0  0  0  0  0
   23.2062  -20.8333  -15.5738 C   0  0  0  0  0  0  0  0  0  0  0  0
   23.0633  -21.1955  -14.0926 C   0  0  2  0  0  0  0  0  0  0  0  0
   21.8139  -20.7020  -13.5618 N   0  0  0  0  0  0  0  0  0  0  0  0
   24.2325  -20.6528  -13.3678 C   0  0  0  0  0  0  0  0  0  0  0  0
   24.1713  -19.5168  -12.8363 O   0  0  0  0  0  0  0  0  0  0  0  0
   22.6970  -15.1782  -18.2819 C   0  0  0  0  0  0  0  0  0  0  0  0
   28.3445  -19.8180  -10.1210 C   0  0  2  0  0  0  0  0  0  0  0  0
   28.6126  -21.0252  -11.0287 C   0  0  0  0  0  0  0  0  0  0  0  0
   29.2928  -22.0789  -10.1755 C   0  0  0  0  0  0  0  0  0  0  0  0
   27.3325  -21.5707  -11.5702 C   0  0  1  0  0  0  0  0  0  0  0  0
   26.6183  -20.7703  -12.5886 N   0  0  0  0  0  0  0  0  0  0  0  0
   25.4757  -21.3587  -13.2246 C   0  0  0  0  0  0  0  0  0  0  0  0
   27.5531  -20.3022  -13.6511 O   0  0  0  0  0  0  0  0  0  0  0  0
   27.8234  -21.0787  -14.5989 O   0  0  0  0  0  0  0  0  0  0  0  0
  1  2  1  0
  2  3  2  0
  4  2  1  0
  4  5  1  0
  5  6  1  6
  7  8  2  0
  7  5  1  0
 10  9  1  0
 10 12  1  0
 11 10  2  0
 13 12  1  0
 13 14  1  0
 14 15  1  0
 16 15  1  6
 16 17  1  0
 17  7  1  0
 18 16  1  0
 19 18  2  0
 21 20  1  6
 21 23  1  0
 22 21  1  0
 24 23  1  1
 24 26  1  0
 24 25  1  0
 25 18  1  0
 26 28  1  0
 27 26  2  0
M  END
$$$$
