NRL.pdb
     RDKit          3D

 28 27  0  0  1  0  0  0  0  0999 V2000
   27.9491  -20.2553  -19.4510 N   0  0  0  0  0  0  0  0  0  0  0  0
   28.1458  -21.6071  -19.0713 C   0  0  0  0  0  0  0  0  0  0  0  0
   28.5455  -22.4331  -19.9261 O   0  0  0  0  0  0  0  0  0  0  0  0
   27.8804  -22.0362  -17.6759 C   0  0  0  0  0  0  0  0  0  0  0  0
   27.3104  -20.8677  -16.8867 C   0  0  2  0  0  0  0  0  0  0  0  0
   28.2137  -19.7567  -16.8463 N   0  0  0  0  0  0  0  0  0  0  0  0
   26.9109  -21.3351  -15.5355 C   0  0  0  0  0  0  0  0  0  0  0  0
   26.0221  -22.2376  -15.4975 O   0  0  0  0  0  0  0  0  0  0  0  0
   30.7489  -21.2642   -7.8558 N   0  0  0  0  0  0  0  0  0  0  0  0
   30.7644  -22.1764   -8.9722 C   0  0  0  0  0  0  0  0  0  0  0  0
   31.8019  -22.9033   -9.1442 N   0  0  0  0  0  0  0  0  0  0  0  0
   29.6457  -22.2423   -9.8368 N   0  0  0  0  0  0  0  0  0  0  0  0
   28.5235  -21.3835   -9.5679 C   0  0  0  0  0  0  0  0  0  0  0  0
   27.4319  -21.5450  -10.6183 C   0  0  0  0  0  0  0  0  0  0  0  0
   27.9877  -21.1075  -11.9559 C   0  0  0  0  0  0  0  0  0  0  0  0
   26.9379  -21.2732  -13.0587 C   0  0  2  0  0  0  0  0  0  0  0  0
   27.4585  -20.8356  -14.3329 N   0  0  0  0  0  0  0  0  0  0  0  0
   25.7265  -20.5237  -12.6619 C   0  0  0  0  0  0  0  0  0  0  0  0
   25.7725  -19.2752  -12.5357 O   0  0  0  0  0  0  0  0  0  0  0  0
   31.9026  -23.5399   -9.9501 C   0  0  0  0  0  0  0  0  0  0  0  0
   21.5989  -18.3582  -14.9328 C   0  0  2  0  0  0  0  0  0  0  0  0
   21.3884  -19.6961  -14.2126 C   0  0  0  0  0  0  0  0  0  0  0  0
   20.5043  -20.5459  -15.1054 C   0  0  0  0  0  0  0  0  0  0  0  0
   22.6937  -20.3885  -13.9972 C   0  0  1  0  0  0  0  0  0  0  0  0
   23.2151  -20.4621  -12.6150 N   0  0  0  0  0  0  0  0  0  0  0  0
   24.4576  -21.1455  -12.4018 C   0  0  0  0  0  0  0  0  0  0  0  0
   22.1994  -21.0437  -11.6920 O   0  0  0  0  0  0  0  0  0  0  0  0
   22.3464  -22.2284  -11.3057 O   0  0  0  0  0  0  0  0  0  0  0  0
  1  2  1  0
  2  3  2  0
  4  2  1  0
  4  5  1  0
  5  6  1  1
  7  8  2  0
  7  5  1  0
 10  9  1  0
 10 12  1  0
 11 10  2  0
 13 12  1  0
 13 14  1  0
 14 15  1  0
 16 15  1  1
 16 17  1  0
 17  7  1  0
 18 16  1  0
 19 18  2  0
 21 20  1  1
 21 23  1  0
 22 21  1  0
 24 23  1  6
 24 26  1  0
 24 25  1  0
 25 18  1  0
 26 28  1  0
 27 26  2  0
M  END
$$$$
