NRL.pdb
     RDKit          3D

 28 27  0  0  1  0  0  0  0  0999 V2000
   17.6580  -19.4144  -13.5484 N   0  0  0  0  0  0  0  0  0  0  0  0
   18.5739  -18.7521  -12.6925 C   0  0  0  0  0  0  0  0  0  0  0  0
   18.2631  -17.6400  -12.2032 O   0  0  0  0  0  0  0  0  0  0  0  0
   19.8858  -19.3716  -12.3814 C   0  0  0  0  0  0  0  0  0  0  0  0
   20.0009  -20.7040  -13.1055 C   0  0  2  0  0  0  0  0  0  0  0  0
   18.9941  -21.6317  -12.6841 N   0  0  0  0  0  0  0  0  0  0  0  0
   21.3778  -21.2347  -12.9431 C   0  0  0  0  0  0  0  0  0  0  0  0
   21.5114  -22.2016  -12.1350 O   0  0  0  0  0  0  0  0  0  0  0  0
   27.0782  -24.7612  -16.4243 N   0  0  0  0  0  0  0  0  0  0  0  0
   28.1861  -23.8914  -16.1166 C   0  0  0  0  0  0  0  0  0  0  0  0
   29.3558  -24.4032  -16.0513 N   0  0  0  0  0  0  0  0  0  0  0  0
   27.9528  -22.5127  -15.8976 N   0  0  0  0  0  0  0  0  0  0  0  0
   26.6031  -22.0247  -15.9955 C   0  0  0  0  0  0  0  0  0  0  0  0
   25.9235  -21.9842  -14.6327 C   0  0  0  0  0  0  0  0  0  0  0  0
   24.5093  -21.4792  -14.8190 C   0  0  0  0  0  0  0  0  0  0  0  0
   23.7960  -21.3569  -13.4692 C   0  0  2  0  0  0  0  0  0  0  0  0
   22.5056  -20.7271  -13.6258 N   0  0  0  0  0  0  0  0  0  0  0  0
   24.6758  -20.6082  -12.5461 C   0  0  0  0  0  0  0  0  0  0  0  0
   24.8833  -19.3834  -12.7297 O   0  0  0  0  0  0  0  0  0  0  0  0
   30.1891  -23.8463  -15.8053 C   0  0  0  0  0  0  0  0  0  0  0  0
   27.1254  -18.8046   -8.1229 C   0  0  1  0  0  0  0  0  0  0  0  0
   27.6108  -20.2157   -8.4781 C   0  0  0  0  0  0  0  0  0  0  0  0
   27.8587  -20.9417   -7.1695 C   0  0  0  0  0  0  0  0  0  0  0  0
   26.5737  -20.9459   -9.2659 C   0  0  1  0  0  0  0  0  0  0  0  0
   26.3299  -20.5077  -10.6575 N   0  0  0  0  0  0  0  0  0  0  0  0
   25.3319  -21.2046  -11.4155 C   0  0  0  0  0  0  0  0  0  0  0  0
   27.5952  -20.5047  -11.4452 O   0  0  0  0  0  0  0  0  0  0  0  0
   28.0367  -21.5965  -11.8780 O   0  0  0  0  0  0  0  0  0  0  0  0
  1  2  1  0
  2  3  2  0
  4  2  1  0
  4  5  1  0
  5  6  1  1
  7  8  2  0
  7  5  1  0
 10  9  1  0
 10 12  1  0
 11 10  2  0
 13 12  1  0
 13 14  1  0
 14 15  1  0
 16 15  1  6
 16 17  1  0
 17  7  1  0
 18 16  1  0
 19 18  2  0
 21 20  1  1
 21 23  1  0
 22 21  1  0
 24 23  1  1
 24 26  1  0
 24 25  1  0
 25 18  1  0
 26 28  1  0
 27 26  2  0
M  END
$$$$
