NRL.pdb
     RDKit          3D

 28 27  0  0  1  0  0  0  0  0999 V2000
   25.0758  -24.5927  -18.7799 N   0  0  0  0  0  0  0  0  0  0  0  0
   24.1118  -23.5669  -18.6108 C   0  0  0  0  0  0  0  0  0  0  0  0
   24.3756  -22.4055  -19.0035 O   0  0  0  0  0  0  0  0  0  0  0  0
   22.8054  -23.8684  -17.9753 C   0  0  0  0  0  0  0  0  0  0  0  0
   22.7559  -25.3396  -17.5931 C   0  0  2  0  0  0  0  0  0  0  0  0
   22.6352  -26.1878  -18.7410 N   0  0  0  0  0  0  0  0  0  0  0  0
   21.6720  -25.5539  -16.6015 C   0  0  0  0  0  0  0  0  0  0  0  0
   20.4880  -25.4079  -17.0289 O   0  0  0  0  0  0  0  0  0  0  0  0
   20.3101  -30.1857  -10.0898 N   0  0  0  0  0  0  0  0  0  0  0  0
   21.5395  -29.7165  -10.6790 C   0  0  0  0  0  0  0  0  0  0  0  0
   22.4956  -30.5521  -10.8276 N   0  0  0  0  0  0  0  0  0  0  0  0
   21.6540  -28.3616  -11.0721 N   0  0  0  0  0  0  0  0  0  0  0  0
   20.5565  -27.4746  -10.7927 C   0  0  0  0  0  0  0  0  0  0  0  0
   20.0717  -26.7711  -12.0540 C   0  0  0  0  0  0  0  0  0  0  0  0
   21.2214  -26.7039  -13.0354 C   0  0  0  0  0  0  0  0  0  0  0  0
   20.7819  -26.0305  -14.3389 C   0  0  2  0  0  0  0  0  0  0  0  0
   21.8948  -25.9013  -15.2504 N   0  0  0  0  0  0  0  0  0  0  0  0
   20.1778  -24.7230  -14.0043 C   0  0  0  0  0  0  0  0  0  0  0  0
   20.8478  -23.8607  -13.3843 O   0  0  0  0  0  0  0  0  0  0  0  0
   23.4209  -30.2735  -11.1897 C   0  0  0  0  0  0  0  0  0  0  0  0
   17.5484  -21.9212  -17.6911 C   0  0  1  0  0  0  0  0  0  0  0  0
   18.4751  -22.1920  -16.4990 C   0  0  0  0  0  0  0  0  0  0  0  0
   19.4117  -21.0041  -16.3867 C   0  0  0  0  0  0  0  0  0  0  0  0
   17.6855  -22.3266  -15.2389 C   0  0  2  0  0  0  0  0  0  0  0  0
   18.3108  -23.0445  -14.1070 N   0  0  0  0  0  0  0  0  0  0  0  0
   18.8320  -24.3580  -14.3508 C   0  0  0  0  0  0  0  0  0  0  0  0
   17.3808  -23.1209  -12.9446 O   0  0  0  0  0  0  0  0  0  0  0  0
   16.8833  -22.0576  -12.5018 O   0  0  0  0  0  0  0  0  0  0  0  0
  1  2  1  0
  2  3  2  0
  4  2  1  0
  4  5  1  0
  5  6  1  6
  7  8  2  0
  7  5  1  0
 10  9  1  0
 10 12  1  0
 11 10  2  0
 13 12  1  0
 13 14  1  0
 14 15  1  0
 16 15  1  1
 16 17  1  0
 17  7  1  0
 18 16  1  0
 19 18  2  0
 21 20  1  6
 21 23  1  0
 22 21  1  0
 24 23  1  6
 24 26  1  0
 24 25  1  0
 25 18  1  0
 26 28  1  0
 27 26  2  0
M  END
$$$$
