NRL.pdb
     RDKit          3D

 28 27  0  0  1  0  0  0  0  0999 V2000
   21.3260  -15.7767  -15.6891 N   0  0  0  0  0  0  0  0  0  0  0  0
   20.6092  -16.7462  -14.9432 C   0  0  0  0  0  0  0  0  0  0  0  0
   19.4201  -16.5153  -14.6185 O   0  0  0  0  0  0  0  0  0  0  0  0
   21.2627  -18.0198  -14.5526 C   0  0  0  0  0  0  0  0  0  0  0  0
   22.7382  -17.9642  -14.9169 C   0  0  2  0  0  0  0  0  0  0  0  0
   22.9364  -17.7387  -16.3175 N   0  0  0  0  0  0  0  0  0  0  0  0
   23.4117  -19.1944  -14.4303 C   0  0  0  0  0  0  0  0  0  0  0  0
   22.6757  -20.0329  -13.8294 O   0  0  0  0  0  0  0  0  0  0  0  0
   27.7096  -25.4314  -15.9041 N   0  0  0  0  0  0  0  0  0  0  0  0
   27.5812  -24.4464  -16.9491 C   0  0  0  0  0  0  0  0  0  0  0  0
   27.1360  -24.8261  -18.0857 N   0  0  0  0  0  0  0  0  0  0  0  0
   27.9465  -23.1033  -16.6925 N   0  0  0  0  0  0  0  0  0  0  0  0
   28.3570  -22.7500  -15.3599 C   0  0  0  0  0  0  0  0  0  0  0  0
   27.1624  -22.4024  -14.4809 C   0  0  0  0  0  0  0  0  0  0  0  0
   26.5287  -21.1363  -15.0149 C   0  0  0  0  0  0  0  0  0  0  0  0
   25.3518  -20.7067  -14.1339 C   0  0  2  0  0  0  0  0  0  0  0  0
   24.7882  -19.4618  -14.6016 N   0  0  0  0  0  0  0  0  0  0  0  0
   25.8278  -20.6156  -12.7368 C   0  0  0  0  0  0  0  0  0  0  0  0
   26.9124  -20.0382  -12.4781 O   0  0  0  0  0  0  0  0  0  0  0  0
   27.0705  -24.1880  -18.8941 C   0  0  0  0  0  0  0  0  0  0  0  0
   28.2304  -20.5890   -8.2711 C   0  0  2  0  0  0  0  0  0  0  0  0
   26.8395  -19.9551   -8.4006 C   0  0  0  0  0  0  0  0  0  0  0  0
   26.9619  -18.5180   -7.9308 C   0  0  0  0  0  0  0  0  0  0  0  0
   26.3808  -19.9791   -9.8213 C   0  0  1  0  0  0  0  0  0  0  0  0
   25.6667  -21.1848  -10.2948 N   0  0  0  0  0  0  0  0  0  0  0  0
   25.1115  -21.1603  -11.6167 C   0  0  0  0  0  0  0  0  0  0  0  0
   24.5871  -21.5734   -9.3434 O   0  0  0  0  0  0  0  0  0  0  0  0
   23.4266  -21.1390   -9.5408 O   0  0  0  0  0  0  0  0  0  0  0  0
  1  2  1  0
  2  3  2  0
  4  2  1  0
  4  5  1  0
  5  6  1  6
  7  8  2  0
  7  5  1  0
 10  9  1  0
 10 12  1  0
 11 10  2  0
 13 12  1  0
 13 14  1  0
 14 15  1  0
 16 15  1  6
 16 17  1  0
 17  7  1  0
 18 16  1  0
 19 18  2  0
 21 20  1  1
 21 23  1  0
 22 21  1  0
 24 23  1  6
 24 26  1  0
 24 25  1  0
 25 18  1  0
 26 28  1  0
 27 26  2  0
M  END
$$$$
