NRL.pdb
     RDKit          3D

 28 27  0  0  1  0  0  0  0  0999 V2000
   19.8806  -32.2613   -6.2974 N   0  0  0  0  0  0  0  0  0  0  0  0
   20.6941  -32.6887   -5.2178 C   0  0  0  0  0  0  0  0  0  0  0  0
   21.8332  -33.1568   -5.4549 O   0  0  0  0  0  0  0  0  0  0  0  0
   20.1994  -32.5816   -3.8230 C   0  0  0  0  0  0  0  0  0  0  0  0
   18.7804  -32.0346   -3.8299 C   0  0  2  0  0  0  0  0  0  0  0  0
   18.0158  -32.5415   -4.9299 N   0  0  0  0  0  0  0  0  0  0  0  0
   18.8249  -30.5512   -3.7940 C   0  0  0  0  0  0  0  0  0  0  0  0
   19.4312  -30.0348   -2.8083 O   0  0  0  0  0  0  0  0  0  0  0  0
   15.1616  -24.7653   -8.9695 N   0  0  0  0  0  0  0  0  0  0  0  0
   14.5982  -25.1313   -7.6939 C   0  0  0  0  0  0  0  0  0  0  0  0
   13.3399  -24.9822   -7.5241 N   0  0  0  0  0  0  0  0  0  0  0  0
   15.4415  -25.6391   -6.6769 N   0  0  0  0  0  0  0  0  0  0  0  0
   16.8629  -25.4727   -6.8223 C   0  0  0  0  0  0  0  0  0  0  0  0
   17.6205  -26.0962   -5.6569 C   0  0  0  0  0  0  0  0  0  0  0  0
   17.5021  -27.6011   -5.7607 C   0  0  0  0  0  0  0  0  0  0  0  0
   18.2584  -28.2838   -4.6171 C   0  0  2  0  0  0  0  0  0  0  0  0
   18.2417  -29.7194   -4.7757 N   0  0  0  0  0  0  0  0  0  0  0  0
   17.6514  -27.8549   -3.3388 C   0  0  0  0  0  0  0  0  0  0  0  0
   16.5881  -28.3885   -2.9370 O   0  0  0  0  0  0  0  0  0  0  0  0
   12.8799  -25.1621   -6.6180 C   0  0  0  0  0  0  0  0  0  0  0  0
   20.9833  -25.7425    0.3384 C   0  0  2  0  0  0  0  0  0  0  0  0
   19.8466  -26.7293    0.0431 C   0  0  0  0  0  0  0  0  0  0  0  0
   19.7226  -27.6374    1.2518 C   0  0  0  0  0  0  0  0  0  0  0  0
   18.5602  -26.0016   -0.1692 C   0  0  2  0  0  0  0  0  0  0  0  0
   17.6485  -26.5053   -1.2194 N   0  0  0  0  0  0  0  0  0  0  0  0
   18.2123  -26.8354   -2.4959 C   0  0  0  0  0  0  0  0  0  0  0  0
   16.5164  -25.5613   -1.4406 O   0  0  0  0  0  0  0  0  0  0  0  0
   15.7010  -25.3707   -0.5061 O   0  0  0  0  0  0  0  0  0  0  0  0
  1  2  1  0
  2  3  2  0
  4  2  1  0
  4  5  1  0
  5  6  1  6
  7  8  2  0
  7  5  1  0
 10  9  1  0
 10 12  1  0
 11 10  2  0
 13 12  1  0
 13 14  1  0
 14 15  1  0
 16 15  1  6
 16 17  1  0
 17  7  1  0
 18 16  1  0
 19 18  2  0
 21 20  1  6
 21 23  1  0
 22 21  1  0
 24 23  1  1
 24 26  1  0
 24 25  1  0
 25 18  1  0
 26 28  1  0
 27 26  2  0
M  END
$$$$
