NRL.pdb
     RDKit          3D

 28 27  0  0  1  0  0  0  0  0999 V2000
   20.2824  -30.0955  -13.6947 N   0  0  0  0  0  0  0  0  0  0  0  0
   20.2834  -28.9669  -14.5527 C   0  0  0  0  0  0  0  0  0  0  0  0
   19.7147  -29.0427  -15.6679 O   0  0  0  0  0  0  0  0  0  0  0  0
   20.9515  -27.7106  -14.1320 C   0  0  0  0  0  0  0  0  0  0  0  0
   22.0593  -27.3718  -15.1174 C   0  0  2  0  0  0  0  0  0  0  0  0
   23.1244  -28.3287  -15.0762 N   0  0  0  0  0  0  0  0  0  0  0  0
   22.5232  -25.9822  -14.8772 C   0  0  0  0  0  0  0  0  0  0  0  0
   23.2295  -25.8011  -13.8407 O   0  0  0  0  0  0  0  0  0  0  0  0
   22.1825  -18.9623  -19.4867 N   0  0  0  0  0  0  0  0  0  0  0  0
   23.1383  -19.9898  -19.8176 C   0  0  0  0  0  0  0  0  0  0  0  0
   23.5030  -20.1054  -21.0374 N   0  0  0  0  0  0  0  0  0  0  0  0
   23.6406  -20.8322  -18.7972 N   0  0  0  0  0  0  0  0  0  0  0  0
   23.2921  -20.5353  -17.4335 C   0  0  0  0  0  0  0  0  0  0  0  0
   23.8651  -21.5692  -16.4725 C   0  0  0  0  0  0  0  0  0  0  0  0
   23.2100  -22.9027  -16.7594 C   0  0  0  0  0  0  0  0  0  0  0  0
   22.7835  -23.5875  -15.4574 C   0  0  2  0  0  0  0  0  0  0  0  0
   22.2226  -24.8917  -15.7234 N   0  0  0  0  0  0  0  0  0  0  0  0
   21.8297  -22.7001  -14.7579 C   0  0  0  0  0  0  0  0  0  0  0  0
   20.6366  -22.6306  -15.1432 O   0  0  0  0  0  0  0  0  0  0  0  0
   24.1834  -20.8177  -21.3451 C   0  0  0  0  0  0  0  0  0  0  0  0
   19.8461  -20.6866   -9.6470 C   0  0  2  0  0  0  0  0  0  0  0  0
   20.4118  -19.9125  -10.8445 C   0  0  0  0  0  0  0  0  0  0  0  0
   21.0361  -18.6432  -10.2968 C   0  0  0  0  0  0  0  0  0  0  0  0
   21.4535  -20.7188  -11.5473 C   0  0  1  0  0  0  0  0  0  0  0  0
   21.2359  -21.0302  -12.9768 N   0  0  0  0  0  0  0  0  0  0  0  0
   22.1849  -21.8843  -13.6297 C   0  0  0  0  0  0  0  0  0  0  0  0
   21.1028  -19.7820  -13.7804 O   0  0  0  0  0  0  0  0  0  0  0  0
   22.1361  -19.2766  -14.2818 O   0  0  0  0  0  0  0  0  0  0  0  0
  1  2  1  0
  2  3  2  0
  4  2  1  0
  4  5  1  0
  5  6  1  1
  7  8  2  0
  7  5  1  0
 10  9  1  0
 10 12  1  0
 11 10  2  0
 13 12  1  0
 13 14  1  0
 14 15  1  0
 16 15  1  6
 16 17  1  0
 17  7  1  0
 18 16  1  0
 19 18  2  0
 21 20  1  6
 21 23  1  0
 22 21  1  0
 24 23  1  1
 24 26  1  0
 24 25  1  0
 25 18  1  0
 26 28  1  0
 27 26  2  0
M  END
$$$$
