NRL.pdb
     RDKit          3D

 28 27  0  0  1  0  0  0  0  0999 V2000
   26.6744  -36.6787   -0.4343 N   0  0  0  0  0  0  0  0  0  0  0  0
   27.6689  -36.4208    0.5426 C   0  0  0  0  0  0  0  0  0  0  0  0
   27.4324  -36.6872    1.7450 O   0  0  0  0  0  0  0  0  0  0  0  0
   28.9751  -35.8415    0.1425 C   0  0  0  0  0  0  0  0  0  0  0  0
   28.9802  -35.5927   -1.3579 C   0  0  2  0  0  0  0  0  0  0  0  0
   30.3076  -35.5906   -1.8963 N   0  0  0  0  0  0  0  0  0  0  0  0
   28.2371  -34.3416   -1.6516 C   0  0  0  0  0  0  0  0  0  0  0  0
   28.8217  -33.2602   -1.3442 O   0  0  0  0  0  0  0  0  0  0  0  0
   24.9884  -31.7034   -8.7354 N   0  0  0  0  0  0  0  0  0  0  0  0
   25.9428  -32.5301   -8.0393 C   0  0  0  0  0  0  0  0  0  0  0  0
   26.7747  -33.2082   -8.7340 N   0  0  0  0  0  0  0  0  0  0  0  0
   25.9338  -32.5686   -6.6245 N   0  0  0  0  0  0  0  0  0  0  0  0
   25.0823  -31.6464   -5.9218 C   0  0  0  0  0  0  0  0  0  0  0  0
   25.3573  -31.6627   -4.4235 C   0  0  0  0  0  0  0  0  0  0  0  0
   25.9937  -32.9890   -4.0690 C   0  0  0  0  0  0  0  0  0  0  0  0
   26.3432  -33.0406   -2.5787 C   0  0  2  0  0  0  0  0  0  0  0  0
   26.9523  -34.3051   -2.2379 N   0  0  0  0  0  0  0  0  0  0  0  0
   25.1093  -32.7869   -1.8042 C   0  0  0  0  0  0  0  0  0  0  0  0
   24.1264  -33.5603   -1.9160 O   0  0  0  0  0  0  0  0  0  0  0  0
   27.4611  -33.8476   -8.3039 C   0  0  0  0  0  0  0  0  0  0  0  0
   24.6405  -30.6376    3.5122 C   0  0  1  0  0  0  0  0  0  0  0  0
   24.5429  -31.5210    2.2619 C   0  0  0  0  0  0  0  0  0  0  0  0
   23.7339  -32.7453    2.6463 C   0  0  0  0  0  0  0  0  0  0  0  0
   23.8526  -30.7930    1.1560 C   0  0  2  0  0  0  0  0  0  0  0  0
   23.7459  -31.4709   -0.1543 N   0  0  0  0  0  0  0  0  0  0  0  0
   24.9514  -31.6798   -0.9021 C   0  0  0  0  0  0  0  0  0  0  0  0
   22.7654  -30.7760   -1.0361 O   0  0  0  0  0  0  0  0  0  0  0  0
   23.1126  -30.4794   -2.2048 O   0  0  0  0  0  0  0  0  0  0  0  0
  1  2  1  0
  2  3  2  0
  4  2  1  0
  4  5  1  0
  5  6  1  1
  7  8  2  0
  7  5  1  0
 10  9  1  0
 10 12  1  0
 11 10  2  0
 13 12  1  0
 13 14  1  0
 14 15  1  0
 16 15  1  6
 16 17  1  0
 17  7  1  0
 18 16  1  0
 19 18  2  0
 21 20  1  1
 21 23  1  0
 22 21  1  0
 24 23  1  1
 24 26  1  0
 24 25  1  0
 25 18  1  0
 26 28  1  0
 27 26  2  0
M  END
$$$$
