NRL.pdb
     RDKit          3D

 28 27  0  0  1  0  0  0  0  0999 V2000
   20.8576  -30.1644   -9.9212 N   0  0  0  0  0  0  0  0  0  0  0  0
   21.2545  -29.1120  -10.7843 C   0  0  0  0  0  0  0  0  0  0  0  0
   22.4170  -29.1088  -11.2547 O   0  0  0  0  0  0  0  0  0  0  0  0
   20.3012  -28.0272  -11.1253 C   0  0  0  0  0  0  0  0  0  0  0  0
   19.0831  -28.1205  -10.2195 C   0  0  2  0  0  0  0  0  0  0  0  0
   18.2169  -29.1976  -10.5953 N   0  0  0  0  0  0  0  0  0  0  0  0
   18.3908  -26.8077  -10.1896 C   0  0  0  0  0  0  0  0  0  0  0  0
   17.6195  -26.5613  -11.1644 O   0  0  0  0  0  0  0  0  0  0  0  0
   15.3580  -23.8896   -3.1381 N   0  0  0  0  0  0  0  0  0  0  0  0
   14.8938  -25.1247   -3.7191 C   0  0  0  0  0  0  0  0  0  0  0  0
   14.1222  -25.8680   -3.0216 N   0  0  0  0  0  0  0  0  0  0  0  0
   15.2990  -25.4771   -5.0287 N   0  0  0  0  0  0  0  0  0  0  0  0
   16.1520  -24.5685   -5.7471 C   0  0  0  0  0  0  0  0  0  0  0  0
   16.5066  -25.1080   -7.1269 C   0  0  0  0  0  0  0  0  0  0  0  0
   17.4622  -24.1386   -7.7877 C   0  0  0  0  0  0  0  0  0  0  0  0
   17.8191  -24.6088   -9.2010 C   0  0  2  0  0  0  0  0  0  0  0  0
   18.5484  -25.8548   -9.1586 N   0  0  0  0  0  0  0  0  0  0  0  0
   18.5857  -23.5340   -9.8673 C   0  0  0  0  0  0  0  0  0  0  0  0
   19.8371  -23.5002   -9.7689 O   0  0  0  0  0  0  0  0  0  0  0  0
   13.7584  -26.7682   -3.3713 C   0  0  0  0  0  0  0  0  0  0  0  0
   18.6781  -21.6380  -14.9461 C   0  0  2  0  0  0  0  0  0  0  0  0
   19.6636  -22.4575  -14.1032 C   0  0  0  0  0  0  0  0  0  0  0  0
   20.7957  -21.5258  -13.7143 C   0  0  0  0  0  0  0  0  0  0  0  0
   18.9977  -22.9759  -12.8715 C   0  0  2  0  0  0  0  0  0  0  0  0
   18.5734  -21.9924  -11.8514 N   0  0  0  0  0  0  0  0  0  0  0  0
   17.9780  -22.4904  -10.6456 C   0  0  0  0  0  0  0  0  0  0  0  0
   17.6547  -20.9766  -12.4394 O   0  0  0  0  0  0  0  0  0  0  0  0
   16.4545  -21.2896  -12.6292 O   0  0  0  0  0  0  0  0  0  0  0  0
  1  2  1  0
  2  3  2  0
  4  2  1  0
  4  5  1  0
  5  6  1  6
  7  8  2  0
  7  5  1  0
 10  9  1  0
 10 12  1  0
 11 10  2  0
 13 12  1  0
 13 14  1  0
 14 15  1  0
 16 15  1  1
 16 17  1  0
 17  7  1  0
 18 16  1  0
 19 18  2  0
 21 20  1  6
 21 23  1  0
 22 21  1  0
 24 23  1  1
 24 26  1  0
 24 25  1  0
 25 18  1  0
 26 28  1  0
 27 26  2  0
M  END
$$$$
