NRL.pdb
     RDKit          3D

 28 27  0  0  1  0  0  0  0  0999 V2000
   17.3105  -16.3274  -16.5043 N   0  0  0  0  0  0  0  0  0  0  0  0
   18.3726  -15.9236  -15.6564 C   0  0  0  0  0  0  0  0  0  0  0  0
   18.6847  -16.6431  -14.6778 O   0  0  0  0  0  0  0  0  0  0  0  0
   19.1050  -14.6620  -15.9274 C   0  0  0  0  0  0  0  0  0  0  0  0
   18.4433  -13.9312  -17.0855 C   0  0  2  0  0  0  0  0  0  0  0  0
   18.6400  -14.6111  -18.3308 N   0  0  0  0  0  0  0  0  0  0  0  0
   18.9179  -12.5250  -17.1153 C   0  0  0  0  0  0  0  0  0  0  0  0
   19.9563  -12.3011  -17.8064 O   0  0  0  0  0  0  0  0  0  0  0  0
   13.4577   -6.9407  -14.4098 N   0  0  0  0  0  0  0  0  0  0  0  0
   13.0973   -8.2413  -14.9171 C   0  0  0  0  0  0  0  0  0  0  0  0
   11.8666   -8.5851  -14.8785 N   0  0  0  0  0  0  0  0  0  0  0  0
   14.1020   -9.0917  -15.4375 N   0  0  0  0  0  0  0  0  0  0  0  0
   15.4630   -8.6260  -15.4280 C   0  0  0  0  0  0  0  0  0  0  0  0
   16.4149   -9.6704  -15.9970 C   0  0  0  0  0  0  0  0  0  0  0  0
   17.8169   -9.1017  -15.9745 C   0  0  0  0  0  0  0  0  0  0  0  0
   18.8250  -10.1253  -16.5053 C   0  0  2  0  0  0  0  0  0  0  0  0
   18.2853  -11.4630  -16.4313 N   0  0  0  0  0  0  0  0  0  0  0  0
   20.0786   -9.9842  -15.7339 C   0  0  0  0  0  0  0  0  0  0  0  0
   20.1839  -10.5168  -14.6016 O   0  0  0  0  0  0  0  0  0  0  0  0
   11.5330   -9.4861  -15.2552 C   0  0  0  0  0  0  0  0  0  0  0  0
   24.9511  -10.6906  -14.0192 C   0  0  2  0  0  0  0  0  0  0  0  0
   24.8993   -9.6435  -15.1391 C   0  0  0  0  0  0  0  0  0  0  0  0
   26.1021   -9.8880  -16.0304 C   0  0  0  0  0  0  0  0  0  0  0  0
   23.6468   -9.7902  -15.9387 C   0  0  1  0  0  0  0  0  0  0  0  0
   22.4232   -9.1334  -15.4296 N   0  0  0  0  0  0  0  0  0  0  0  0
   21.2235   -9.2553  -16.2056 C   0  0  0  0  0  0  0  0  0  0  0  0
   22.6639   -7.6858  -15.1687 O   0  0  0  0  0  0  0  0  0  0  0  0
   22.4975   -6.8698  -16.1072 O   0  0  0  0  0  0  0  0  0  0  0  0
  1  2  1  0
  2  3  2  0
  4  2  1  0
  4  5  1  0
  5  6  1  6
  7  8  2  0
  7  5  1  0
 10  9  1  0
 10 12  1  0
 11 10  2  0
 13 12  1  0
 13 14  1  0
 14 15  1  0
 16 15  1  1
 16 17  1  0
 17  7  1  0
 18 16  1  0
 19 18  2  0
 21 20  1  1
 21 23  1  0
 22 21  1  0
 24 23  1  1
 24 26  1  0
 24 25  1  0
 25 18  1  0
 26 28  1  0
 27 26  2  0
M  END
$$$$
