NRL.pdb
     RDKit          3D

 28 27  0  0  1  0  0  0  0  0999 V2000
   18.7393  -20.6079  -13.7832 N   0  0  0  0  0  0  0  0  0  0  0  0
   19.3596  -20.1691  -12.5861 C   0  0  0  0  0  0  0  0  0  0  0  0
   18.7912  -20.3776  -11.4878 O   0  0  0  0  0  0  0  0  0  0  0  0
   20.6678  -19.4708  -12.6364 C   0  0  0  0  0  0  0  0  0  0  0  0
   21.0865  -19.2841  -14.0865 C   0  0  2  0  0  0  0  0  0  0  0  0
   21.2202  -20.5351  -14.7712 N   0  0  0  0  0  0  0  0  0  0  0  0
   22.3221  -18.4629  -14.1398 C   0  0  0  0  0  0  0  0  0  0  0  0
   22.2626  -17.3282  -13.5786 O   0  0  0  0  0  0  0  0  0  0  0  0
   26.5050  -21.9624  -11.5095 N   0  0  0  0  0  0  0  0  0  0  0  0
   26.4670  -22.3106  -12.9081 C   0  0  0  0  0  0  0  0  0  0  0  0
   25.8225  -23.3597  -13.2521 N   0  0  0  0  0  0  0  0  0  0  0  0
   27.1353  -21.4931  -13.8506 N   0  0  0  0  0  0  0  0  0  0  0  0
   27.5973  -20.1988  -13.4255 C   0  0  0  0  0  0  0  0  0  0  0  0
   26.4520  -19.1982  -13.3368 C   0  0  0  0  0  0  0  0  0  0  0  0
   25.9690  -18.8994  -14.7393 C   0  0  0  0  0  0  0  0  0  0  0  0
   24.6983  -18.0449  -14.7037 C   0  0  2  0  0  0  0  0  0  0  0  0
   23.5189  -18.8763  -14.7664 N   0  0  0  0  0  0  0  0  0  0  0  0
   24.7600  -17.0760  -15.8191 C   0  0  0  0  0  0  0  0  0  0  0  0
   24.4789  -17.4423  -16.9868 O   0  0  0  0  0  0  0  0  0  0  0  0
   25.7758  -23.6827  -14.2311 C   0  0  0  0  0  0  0  0  0  0  0  0
   24.0934  -11.2647  -15.7594 C   0  0  1  0  0  0  0  0  0  0  0  0
   23.9536  -12.7764  -15.9793 C   0  0  0  0  0  0  0  0  0  0  0  0
   22.8507  -12.9754  -17.0016 C   0  0  0  0  0  0  0  0  0  0  0  0
   25.2285  -13.3521  -16.5013 C   0  0  2  0  0  0  0  0  0  0  0  0
   25.2695  -14.8063  -16.7688 N   0  0  0  0  0  0  0  0  0  0  0  0
   25.1318  -15.6979  -15.6542 C   0  0  0  0  0  0  0  0  0  0  0  0
   26.5074  -15.1773  -17.5117 O   0  0  0  0  0  0  0  0  0  0  0  0
   27.5059  -15.5672  -16.8596 O   0  0  0  0  0  0  0  0  0  0  0  0
  1  2  1  0
  2  3  2  0
  4  2  1  0
  4  5  1  0
  5  6  1  1
  7  8  2  0
  7  5  1  0
 10  9  1  0
 10 12  1  0
 11 10  2  0
 13 12  1  0
 13 14  1  0
 14 15  1  0
 16 15  1  6
 16 17  1  0
 17  7  1  0
 18 16  1  0
 19 18  2  0
 21 20  1  1
 21 23  1  0
 22 21  1  0
 24 23  1  6
 24 26  1  0
 24 25  1  0
 25 18  1  0
 26 28  1  0
 27 26  2  0
M  END
$$$$
