DKF.pdb
     RDKit          3D

 29 29  0  0  1  0  0  0  0  0999 V2000
   15.3420  -12.3539  -14.9461 N   0  0  0  0  0  0  0  0  0  0  0  0
   15.7369  -11.2357  -15.7493 C   0  0  1  0  0  0  0  0  0  0  0  0
   14.7796  -10.0882  -15.6643 C   0  0  0  0  0  0  0  0  0  0  0  0
   13.5261  -10.2739  -16.3911 C   0  0  0  0  0  0  0  0  0  0  0  0
   13.1855  -11.2913  -17.0375 O   0  0  0  0  0  0  0  0  0  0  0  0
   17.1517  -10.8479  -15.5762 C   0  0  0  0  0  0  0  0  0  0  0  0
   17.5755  -10.4690  -14.4478 O   0  0  0  0  0  0  0  0  0  0  0  0
   12.6087   -9.2230  -16.3718 O   0  0  0  0  0  0  0  0  0  0  0  0
   18.0477  -10.8925  -16.6552 N   0  0  0  0  0  0  0  0  0  0  0  0
   19.4761  -10.5650  -16.5475 C   0  0  1  0  0  0  0  0  0  0  0  0
   20.2660  -11.3154  -17.5744 C   0  0  0  0  0  0  0  0  0  0  0  0
   20.3058  -12.7740  -17.3200 C   0  0  0  0  0  0  0  0  0  0  0  0
   21.0582  -13.5493  -18.3877 C   0  0  0  0  0  0  0  0  0  0  0  0
   20.9735  -15.0434  -18.1617 C   0  0  0  0  0  0  0  0  0  0  0  0
   21.6318  -15.7598  -19.2664 N   0  0  0  0  0  0  0  0  0  0  0  0
   19.6810   -9.1142  -16.5481 C   0  0  0  0  0  0  0  0  0  0  0  0
   19.0397   -8.3661  -17.3000 O   0  0  0  0  0  0  0  0  0  0  0  0
   20.6395   -8.5537  -15.6644 N   0  0  0  0  0  0  0  0  0  0  0  0
   20.9965   -7.1307  -15.6733 C   0  0  1  0  0  0  0  0  0  0  0  0
   20.5974   -6.5540  -14.3469 C   0  0  0  0  0  0  0  0  0  0  0  0
   20.9483   -5.1224  -14.2614 C   0  0  0  0  0  0  0  0  0  0  0  0
   20.1085   -4.2047  -14.8268 C   0  0  0  0  0  0  0  0  0  0  0  0
   20.3853   -2.8717  -14.7598 C   0  0  0  0  0  0  0  0  0  0  0  0
   21.5213   -2.4269  -14.1183 C   0  0  0  0  0  0  0  0  0  0  0  0
   22.3644   -3.3325  -13.5517 C   0  0  0  0  0  0  0  0  0  0  0  0
   22.0901   -4.6790  -13.6160 C   0  0  0  0  0  0  0  0  0  0  0  0
   22.4446   -6.9867  -15.9586 C   0  0  0  0  0  0  0  0  0  0  0  0
   23.2777   -7.8367  -15.5659 O   0  0  0  0  0  0  0  0  0  0  0  0
   22.9403   -5.8965  -16.6769 O   0  0  0  0  0  0  0  0  0  0  0  0
  2  1  1  1
  3  2  1  0
  4  8  1  0
  4  3  1  0
  5  4  2  0
  6  2  1  0
  7  6  2  0
  9  6  1  0
 10  9  1  0
 10 11  1  6
 12 13  1  0
 12 11  1  0
 13 14  1  0
 14 15  1  0
 16 17  2  0
 16 10  1  0
 18 16  1  0
 19 18  1  0
 19 20  1  1
 20 21  1  0
 21 26  2  0
 21 22  1  0
 22 23  2  0
 23 24  1  0
 25 24  2  0
 26 25  1  0
 27 29  1  0
 27 19  1  0
 28 27  2  0
M  END
$$$$
