DKF.pdb
     RDKit          3D

 29 29  0  0  1  0  0  0  0  0999 V2000
   26.6622  -18.7456  -20.1518 N   0  0  0  0  0  0  0  0  0  0  0  0
   27.3600  -19.2834  -19.0224 C   0  0  1  0  0  0  0  0  0  0  0  0
   27.8526  -18.2275  -18.0829 C   0  0  0  0  0  0  0  0  0  0  0  0
   28.8640  -17.3306  -18.6366 C   0  0  0  0  0  0  0  0  0  0  0  0
   29.3147  -17.3496  -19.8051 O   0  0  0  0  0  0  0  0  0  0  0  0
   26.6480  -20.3924  -18.3551 C   0  0  0  0  0  0  0  0  0  0  0  0
   25.4876  -20.2155  -17.8879 O   0  0  0  0  0  0  0  0  0  0  0  0
   29.3884  -16.3517  -17.7921 O   0  0  0  0  0  0  0  0  0  0  0  0
   27.2431  -21.6568  -18.2278 N   0  0  0  0  0  0  0  0  0  0  0  0
   26.6595  -22.7624  -17.4555 C   0  0  1  0  0  0  0  0  0  0  0  0
   27.4229  -24.0285  -17.6916 C   0  0  0  0  0  0  0  0  0  0  0  0
   26.8271  -25.1984  -17.0058 C   0  0  0  0  0  0  0  0  0  0  0  0
   25.5322  -25.6726  -17.6430 C   0  0  0  0  0  0  0  0  0  0  0  0
   24.9494  -26.8628  -16.9122 C   0  0  0  0  0  0  0  0  0  0  0  0
   23.6679  -27.2528  -17.5226 N   0  0  0  0  0  0  0  0  0  0  0  0
   26.5005  -22.3893  -16.0475 C   0  0  0  0  0  0  0  0  0  0  0  0
   27.4353  -21.9073  -15.3918 O   0  0  0  0  0  0  0  0  0  0  0  0
   25.2427  -22.5868  -15.4206 N   0  0  0  0  0  0  0  0  0  0  0  0
   25.0428  -22.4512  -13.9735 C   0  0  1  0  0  0  0  0  0  0  0  0
   25.4410  -21.0568  -13.5886 C   0  0  0  0  0  0  0  0  0  0  0  0
   25.1857  -20.8063  -12.1562 C   0  0  0  0  0  0  0  0  0  0  0  0
   26.1726  -21.0863  -11.2536 C   0  0  0  0  0  0  0  0  0  0  0  0
   25.9860  -20.8577   -9.9228 C   0  0  0  0  0  0  0  0  0  0  0  0
   24.7940  -20.3385   -9.4650 C   0  0  0  0  0  0  0  0  0  0  0  0
   23.8045  -20.0560  -10.3555 C   0  0  0  0  0  0  0  0  0  0  0  0
   23.9872  -20.2845  -11.6997 C   0  0  0  0  0  0  0  0  0  0  0  0
   23.6333  -22.7676  -13.6380 C   0  0  0  0  0  0  0  0  0  0  0  0
   23.3424  -23.5708  -12.7210 O   0  0  0  0  0  0  0  0  0  0  0  0
   22.5711  -22.1834  -14.3313 O   0  0  0  0  0  0  0  0  0  0  0  0
  2  1  1  6
  3  2  1  0
  4  8  1  0
  4  3  1  0
  5  4  2  0
  6  2  1  0
  7  6  2  0
  9  6  1  0
 10  9  1  0
 10 11  1  1
 12 13  1  0
 12 11  1  0
 13 14  1  0
 14 15  1  0
 16 17  2  0
 16 10  1  0
 18 16  1  0
 19 18  1  0
 19 20  1  6
 20 21  1  0
 21 26  2  0
 21 22  1  0
 22 23  2  0
 23 24  1  0
 25 24  2  0
 26 25  1  0
 27 29  1  0
 27 19  1  0
 28 27  2  0
M  END
$$$$
