DKF.pdb
     RDKit          3D

 29 29  0  0  1  0  0  0  0  0999 V2000
   28.0982  -20.6215  -15.5857 N   0  0  0  0  0  0  0  0  0  0  0  0
   28.1187  -19.3721  -14.8857 C   0  0  1  0  0  0  0  0  0  0  0  0
   28.0755  -18.1887  -15.8011 C   0  0  0  0  0  0  0  0  0  0  0  0
   28.5111  -18.4505  -17.1706 C   0  0  0  0  0  0  0  0  0  0  0  0
   29.6537  -18.2420  -17.6399 O   0  0  0  0  0  0  0  0  0  0  0  0
   27.1550  -19.2992  -13.7686 C   0  0  0  0  0  0  0  0  0  0  0  0
   26.9196  -18.1955  -13.2006 O   0  0  0  0  0  0  0  0  0  0  0  0
   27.5728  -18.9852  -18.0538 O   0  0  0  0  0  0  0  0  0  0  0  0
   26.4858  -20.4478  -13.3190 N   0  0  0  0  0  0  0  0  0  0  0  0
   25.4742  -20.4415  -12.2532 C   0  0  1  0  0  0  0  0  0  0  0  0
   24.2314  -21.1440  -12.7045 C   0  0  0  0  0  0  0  0  0  0  0  0
   23.1383  -21.0814  -11.7070 C   0  0  0  0  0  0  0  0  0  0  0  0
   21.8727  -21.7900  -12.1580 C   0  0  0  0  0  0  0  0  0  0  0  0
   20.7366  -21.5888  -11.1786 C   0  0  0  0  0  0  0  0  0  0  0  0
   19.5689  -22.3860  -11.5883 N   0  0  0  0  0  0  0  0  0  0  0  0
   26.0394  -20.9322  -10.9935 C   0  0  0  0  0  0  0  0  0  0  0  0
   26.5600  -22.0535  -10.9062 O   0  0  0  0  0  0  0  0  0  0  0  0
   25.9874  -20.1000   -9.8451 N   0  0  0  0  0  0  0  0  0  0  0  0
   26.4100  -20.5501   -8.5142 C   0  0  1  0  0  0  0  0  0  0  0  0
   27.4588  -19.5958   -8.0238 C   0  0  0  0  0  0  0  0  0  0  0  0
   27.8115  -19.8693   -6.6165 C   0  0  0  0  0  0  0  0  0  0  0  0
   28.5734  -20.9671   -6.3310 C   0  0  0  0  0  0  0  0  0  0  0  0
   28.9347  -21.2507   -5.0477 C   0  0  0  0  0  0  0  0  0  0  0  0
   28.5354  -20.4313   -4.0137 C   0  0  0  0  0  0  0  0  0  0  0  0
   27.7763  -19.3353   -4.2870 C   0  0  0  0  0  0  0  0  0  0  0  0
   27.4089  -19.0441   -5.5803 C   0  0  0  0  0  0  0  0  0  0  0  0
   25.2289  -20.6263   -7.6207 C   0  0  0  0  0  0  0  0  0  0  0  0
   24.1743  -19.9982   -7.8734 O   0  0  0  0  0  0  0  0  0  0  0  0
   25.2435  -21.4016   -6.4592 O   0  0  0  0  0  0  0  0  0  0  0  0
  2  1  1  6
  3  2  1  0
  4  8  1  0
  4  3  1  0
  5  4  2  0
  6  2  1  0
  7  6  2  0
  9  6  1  0
 10  9  1  0
 10 11  1  6
 12 13  1  0
 12 11  1  0
 13 14  1  0
 14 15  1  0
 16 17  2  0
 16 10  1  0
 18 16  1  0
 19 18  1  0
 19 20  1  1
 20 21  1  0
 21 26  2  0
 21 22  1  0
 22 23  2  0
 23 24  1  0
 25 24  2  0
 26 25  1  0
 27 29  1  0
 27 19  1  0
 28 27  2  0
M  END
$$$$
