DKF.pdb
     RDKit          3D

 29 29  0  0  1  0  0  0  0  0999 V2000
   17.7097  -13.5784  -18.3801 N   0  0  0  0  0  0  0  0  0  0  0  0
   17.4812  -12.8898  -17.1451 C   0  0  1  0  0  0  0  0  0  0  0  0
   17.8000  -13.7234  -15.9436 C   0  0  0  0  0  0  0  0  0  0  0  0
   17.1549  -15.0337  -15.9116 C   0  0  0  0  0  0  0  0  0  0  0  0
   17.7311  -16.1459  -15.9067 O   0  0  0  0  0  0  0  0  0  0  0  0
   18.0638  -11.5330  -17.1030 C   0  0  0  0  0  0  0  0  0  0  0  0
   19.2237  -11.3228  -17.5576 O   0  0  0  0  0  0  0  0  0  0  0  0
   15.7604  -15.0644  -15.8836 O   0  0  0  0  0  0  0  0  0  0  0  0
   17.3446  -10.4572  -16.5604 N   0  0  0  0  0  0  0  0  0  0  0  0
   17.8936   -9.1038  -16.3985 C   0  0  1  0  0  0  0  0  0  0  0  0
   16.8252   -8.1529  -15.9557 C   0  0  0  0  0  0  0  0  0  0  0  0
   17.2964   -6.7509  -15.8775 C   0  0  0  0  0  0  0  0  0  0  0  0
   16.2572   -5.7990  -15.3106 C   0  0  0  0  0  0  0  0  0  0  0  0
   16.7125   -4.3579  -15.3899 C   0  0  0  0  0  0  0  0  0  0  0  0
   15.6352   -3.4619  -14.9389 N   0  0  0  0  0  0  0  0  0  0  0  0
   19.0921   -9.1236  -15.5556 C   0  0  0  0  0  0  0  0  0  0  0  0
   19.2314   -9.9479  -14.6407 O   0  0  0  0  0  0  0  0  0  0  0  0
   20.1181   -8.1728  -15.7951 N   0  0  0  0  0  0  0  0  0  0  0  0
   21.4737   -8.3081  -15.2506 C   0  0  1  0  0  0  0  0  0  0  0  0
   22.1949   -9.3321  -16.0767 C   0  0  0  0  0  0  0  0  0  0  0  0
   23.5902   -9.4960  -15.6227 C   0  0  0  0  0  0  0  0  0  0  0  0
   24.5812   -8.8342  -16.2913 C   0  0  0  0  0  0  0  0  0  0  0  0
   25.8818   -8.9451  -15.8986 C   0  0  0  0  0  0  0  0  0  0  0  0
   26.2189   -9.7297  -14.8166 C   0  0  0  0  0  0  0  0  0  0  0  0
   25.2396  -10.3931  -14.1436 C   0  0  0  0  0  0  0  0  0  0  0  0
   23.9253  -10.2848  -14.5353 C   0  0  0  0  0  0  0  0  0  0  0  0
   22.1410   -6.9837  -15.2525 C   0  0  0  0  0  0  0  0  0  0  0  0
   21.9344   -6.1470  -16.1625 O   0  0  0  0  0  0  0  0  0  0  0  0
   23.0284   -6.6141  -14.2396 O   0  0  0  0  0  0  0  0  0  0  0  0
  2  1  1  6
  3  2  1  0
  4  8  1  0
  4  3  1  0
  5  4  2  0
  6  2  1  0
  7  6  2  0
  9  6  1  0
 10  9  1  0
 10 11  1  1
 12 13  1  0
 12 11  1  0
 13 14  1  0
 14 15  1  0
 16 17  2  0
 16 10  1  0
 18 16  1  0
 19 18  1  0
 19 20  1  6
 20 21  1  0
 21 26  2  0
 21 22  1  0
 22 23  2  0
 23 24  1  0
 25 24  2  0
 26 25  1  0
 27 29  1  0
 27 19  1  0
 28 27  2  0
M  END
$$$$
