DKF.pdb
     RDKit          3D

 29 29  0  0  1  0  0  0  0  0999 V2000
   28.0165  -22.1810  -16.9285 N   0  0  0  0  0  0  0  0  0  0  0  0
   27.2311  -22.7057  -15.8517 C   0  0  1  0  0  0  0  0  0  0  0  0
   27.6750  -24.0664  -15.4137 C   0  0  0  0  0  0  0  0  0  0  0  0
   27.3485  -25.1501  -16.3372 C   0  0  0  0  0  0  0  0  0  0  0  0
   26.2137  -25.4222  -16.7924 O   0  0  0  0  0  0  0  0  0  0  0  0
   27.0343  -21.7542  -14.7391 C   0  0  0  0  0  0  0  0  0  0  0  0
   27.9216  -20.8961  -14.4695 O   0  0  0  0  0  0  0  0  0  0  0  0
   28.3936  -25.9708  -16.7623 O   0  0  0  0  0  0  0  0  0  0  0  0
   25.8647  -21.7844  -13.9643 N   0  0  0  0  0  0  0  0  0  0  0  0
   25.5174  -20.7636  -12.9660 C   0  0  1  0  0  0  0  0  0  0  0  0
   24.0959  -20.3250  -13.1358 C   0  0  0  0  0  0  0  0  0  0  0  0
   23.6359  -19.4255  -12.0527 C   0  0  0  0  0  0  0  0  0  0  0  0
   22.3401  -19.8808  -11.4038 C   0  0  0  0  0  0  0  0  0  0  0  0
   21.1443  -19.6219  -12.2946 C   0  0  0  0  0  0  0  0  0  0  0  0
   19.9179  -20.1218  -11.6524 N   0  0  0  0  0  0  0  0  0  0  0  0
   25.8694  -21.2117  -11.6161 C   0  0  0  0  0  0  0  0  0  0  0  0
   25.5391  -22.3291  -11.1939 O   0  0  0  0  0  0  0  0  0  0  0  0
   26.6073  -20.3415  -10.7722 N   0  0  0  0  0  0  0  0  0  0  0  0
   26.8532  -20.6248   -9.3539 C   0  0  1  0  0  0  0  0  0  0  0  0
   28.0075  -19.7732   -8.9140 C   0  0  0  0  0  0  0  0  0  0  0  0
   28.2838  -19.9527   -7.4749 C   0  0  0  0  0  0  0  0  0  0  0  0
   27.7563  -19.0574   -6.5874 C   0  0  0  0  0  0  0  0  0  0  0  0
   27.9736  -19.1921   -5.2486 C   0  0  0  0  0  0  0  0  0  0  0  0
   28.7321  -20.2375   -4.7670 C   0  0  0  0  0  0  0  0  0  0  0  0
   29.2621  -21.1347   -5.6422 C   0  0  0  0  0  0  0  0  0  0  0  0
   29.0459  -21.0040   -6.9945 C   0  0  0  0  0  0  0  0  0  0  0  0
   25.6148  -20.3725   -8.5780 C   0  0  0  0  0  0  0  0  0  0  0  0
   24.9024  -19.3635   -8.7906 O   0  0  0  0  0  0  0  0  0  0  0  0
   25.1914  -21.2494   -7.5771 O   0  0  0  0  0  0  0  0  0  0  0  0
  2  1  1  6
  3  2  1  0
  4  8  1  0
  4  3  1  0
  5  4  2  0
  6  2  1  0
  7  6  2  0
  9  6  1  0
 10  9  1  0
 10 11  1  1
 12 13  1  0
 12 11  1  0
 13 14  1  0
 14 15  1  0
 16 17  2  0
 16 10  1  0
 18 16  1  0
 19 18  1  0
 19 20  1  1
 20 21  1  0
 21 26  2  0
 21 22  1  0
 22 23  2  0
 23 24  1  0
 25 24  2  0
 26 25  1  0
 27 29  1  0
 27 19  1  0
 28 27  2  0
M  END
$$$$
