DKF.pdb
     RDKit          3D

 29 29  0  0  1  0  0  0  0  0999 V2000
   19.8689  -10.9687  -18.3347 N   0  0  0  0  0  0  0  0  0  0  0  0
   19.5895   -9.5910  -18.6093 C   0  0  1  0  0  0  0  0  0  0  0  0
   18.2533   -9.1524  -18.0969 C   0  0  0  0  0  0  0  0  0  0  0  0
   17.1240   -9.9662  -18.5399 C   0  0  0  0  0  0  0  0  0  0  0  0
   16.7232  -11.0302  -18.0144 O   0  0  0  0  0  0  0  0  0  0  0  0
   20.6948   -8.6771  -18.2555 C   0  0  0  0  0  0  0  0  0  0  0  0
   21.2327   -8.7389  -17.1139 O   0  0  0  0  0  0  0  0  0  0  0  0
   16.4129   -9.5272  -19.6571 O   0  0  0  0  0  0  0  0  0  0  0  0
   21.1664   -7.7277  -19.1750 N   0  0  0  0  0  0  0  0  0  0  0  0
   22.2486   -6.7764  -18.8872 C   0  0  1  0  0  0  0  0  0  0  0  0
   22.8875   -6.3074  -20.1575 C   0  0  0  0  0  0  0  0  0  0  0  0
   23.6862   -7.3609  -20.8253 C   0  0  0  0  0  0  0  0  0  0  0  0
   24.2948   -6.9091  -22.1416 C   0  0  0  0  0  0  0  0  0  0  0  0
   25.0901   -8.0147  -22.8017 C   0  0  0  0  0  0  0  0  0  0  0  0
   24.2255   -9.1795  -23.0515 N   0  0  0  0  0  0  0  0  0  0  0  0
   21.7831   -5.7087  -17.9981 C   0  0  0  0  0  0  0  0  0  0  0  0
   20.8939   -4.9166  -18.3414 O   0  0  0  0  0  0  0  0  0  0  0  0
   22.3677   -5.5803  -16.7114 N   0  0  0  0  0  0  0  0  0  0  0  0
   21.9826   -4.5305  -15.7616 C   0  0  1  0  0  0  0  0  0  0  0  0
   20.6126   -4.8628  -15.2481 C   0  0  0  0  0  0  0  0  0  0  0  0
   20.6519   -6.0262  -14.3400 C   0  0  0  0  0  0  0  0  0  0  0  0
   20.3229   -7.2571  -14.8338 C   0  0  0  0  0  0  0  0  0  0  0  0
   20.3588   -8.3612  -14.0353 C   0  0  0  0  0  0  0  0  0  0  0  0
   20.7290   -8.2529  -12.7119 C   0  0  0  0  0  0  0  0  0  0  0  0
   21.0586   -7.0316  -12.2100 C   0  0  0  0  0  0  0  0  0  0  0  0
   21.0244   -5.9139  -13.0112 C   0  0  0  0  0  0  0  0  0  0  0  0
   23.0007   -4.4392  -14.6871 C   0  0  0  0  0  0  0  0  0  0  0  0
   22.9098   -3.5914  -13.7686 O   0  0  0  0  0  0  0  0  0  0  0  0
   24.1040   -5.2947  -14.6549 O   0  0  0  0  0  0  0  0  0  0  0  0
  2  1  1  1
  3  2  1  0
  4  8  1  0
  4  3  1  0
  5  4  2  0
  6  2  1  0
  7  6  2  0
  9  6  1  0
 10  9  1  0
 10 11  1  6
 12 13  1  0
 12 11  1  0
 13 14  1  0
 14 15  1  0
 16 17  2  0
 16 10  1  0
 18 16  1  0
 19 18  1  0
 19 20  1  1
 20 21  1  0
 21 26  2  0
 21 22  1  0
 22 23  2  0
 23 24  1  0
 25 24  2  0
 26 25  1  0
 27 29  1  0
 27 19  1  0
 28 27  2  0
M  END
$$$$
