DKF.pdb
     RDKit          3D

 29 29  0  0  1  0  0  0  0  0999 V2000
   25.1869  -16.9396  -14.5273 N   0  0  0  0  0  0  0  0  0  0  0  0
   24.1266  -17.8948  -14.4045 C   0  0  1  0  0  0  0  0  0  0  0  0
   23.1909  -17.8826  -15.5726 C   0  0  0  0  0  0  0  0  0  0  0  0
   23.5504  -16.9556  -16.6428 C   0  0  0  0  0  0  0  0  0  0  0  0
   22.8532  -16.6687  -17.6431 O   0  0  0  0  0  0  0  0  0  0  0  0
   24.5835  -19.2455  -14.0186 C   0  0  0  0  0  0  0  0  0  0  0  0
   23.7518  -20.1884  -13.8935 O   0  0  0  0  0  0  0  0  0  0  0  0
   24.7893  -16.3200  -16.5552 O   0  0  0  0  0  0  0  0  0  0  0  0
   25.9423  -19.5065  -13.7848 N   0  0  0  0  0  0  0  0  0  0  0  0
   26.4702  -20.8262  -13.4120 C   0  0  1  0  0  0  0  0  0  0  0  0
   27.4912  -21.2838  -14.4068 C   0  0  0  0  0  0  0  0  0  0  0  0
   27.1252  -22.5595  -15.0646 C   0  0  0  0  0  0  0  0  0  0  0  0
   28.2422  -23.1379  -15.9161 C   0  0  0  0  0  0  0  0  0  0  0  0
   27.7584  -24.2891  -16.7711 C   0  0  0  0  0  0  0  0  0  0  0  0
   28.8311  -24.7321  -17.6765 N   0  0  0  0  0  0  0  0  0  0  0  0
   26.9187  -20.8344  -12.0170 C   0  0  0  0  0  0  0  0  0  0  0  0
   28.0376  -20.4136  -11.6901 O   0  0  0  0  0  0  0  0  0  0  0  0
   26.0474  -21.3383  -11.0166 N   0  0  0  0  0  0  0  0  0  0  0  0
   26.3450  -21.2520   -9.5825 C   0  0  1  0  0  0  0  0  0  0  0  0
   27.2962  -20.1087   -9.3841 C   0  0  0  0  0  0  0  0  0  0  0  0
   27.7005  -19.9918   -7.9689 C   0  0  0  0  0  0  0  0  0  0  0  0
   27.2631  -18.9174   -7.2468 C   0  0  0  0  0  0  0  0  0  0  0  0
   27.6000  -18.7759   -5.9336 C   0  0  0  0  0  0  0  0  0  0  0  0
   28.3904  -19.7182   -5.3112 C   0  0  0  0  0  0  0  0  0  0  0  0
   28.8314  -20.7921   -6.0212 C   0  0  0  0  0  0  0  0  0  0  0  0
   28.4944  -20.9402   -7.3467 C   0  0  0  0  0  0  0  0  0  0  0  0
   25.0802  -21.0952   -8.8243 C   0  0  0  0  0  0  0  0  0  0  0  0
   24.1327  -20.4040   -9.2661 O   0  0  0  0  0  0  0  0  0  0  0  0
   24.8929  -21.7115   -7.5853 O   0  0  0  0  0  0  0  0  0  0  0  0
  2  1  1  6
  3  2  1  0
  4  8  1  0
  4  3  1  0
  5  4  2  0
  6  2  1  0
  7  6  2  0
  9  6  1  0
 10  9  1  0
 10 11  1  6
 12 13  1  0
 12 11  1  0
 13 14  1  0
 14 15  1  0
 16 17  2  0
 16 10  1  0
 18 16  1  0
 19 18  1  0
 19 20  1  6
 20 21  1  0
 21 26  2  0
 21 22  1  0
 22 23  2  0
 23 24  1  0
 25 24  2  0
 26 25  1  0
 27 29  1  0
 27 19  1  0
 28 27  2  0
M  END
$$$$
