DKF.pdb
     RDKit          3D

 29 29  0  0  1  0  0  0  0  0999 V2000
   19.1690  -21.2293  -14.0381 N   0  0  0  0  0  0  0  0  0  0  0  0
   20.0906  -20.2764  -13.4956 C   0  0  1  0  0  0  0  0  0  0  0  0
   19.5607  -19.5751  -12.2842 C   0  0  0  0  0  0  0  0  0  0  0  0
   18.4058  -18.7135  -12.5246 C   0  0  0  0  0  0  0  0  0  0  0  0
   17.9984  -18.3102  -13.6383 O   0  0  0  0  0  0  0  0  0  0  0  0
   21.4617  -20.8010  -13.3308 C   0  0  0  0  0  0  0  0  0  0  0  0
   21.7238  -21.6204  -12.4056 O   0  0  0  0  0  0  0  0  0  0  0  0
   17.6755  -18.2906  -11.4137 O   0  0  0  0  0  0  0  0  0  0  0  0
   22.4938  -20.4018  -14.1936 N   0  0  0  0  0  0  0  0  0  0  0  0
   23.8939  -20.8222  -14.0447 C   0  0  1  0  0  0  0  0  0  0  0  0
   24.6565  -20.5659  -15.3075 C   0  0  0  0  0  0  0  0  0  0  0  0
   25.9203  -21.3345  -15.3849 C   0  0  0  0  0  0  0  0  0  0  0  0
   25.7057  -22.8361  -15.4656 C   0  0  0  0  0  0  0  0  0  0  0  0
   27.0163  -23.5864  -15.5641 C   0  0  0  0  0  0  0  0  0  0  0  0
   26.7738  -25.0371  -15.5054 N   0  0  0  0  0  0  0  0  0  0  0  0
   24.4872  -20.2445  -12.8358 C   0  0  0  0  0  0  0  0  0  0  0  0
   24.3474  -19.0467  -12.5501 O   0  0  0  0  0  0  0  0  0  0  0  0
   25.2413  -21.0805  -11.9719 N   0  0  0  0  0  0  0  0  0  0  0  0
   26.2853  -20.5682  -11.0773 C   0  0  1  0  0  0  0  0  0  0  0  0
   25.8500  -20.8417   -9.6678 C   0  0  0  0  0  0  0  0  0  0  0  0
   26.8338  -20.3234   -8.6965 C   0  0  0  0  0  0  0  0  0  0  0  0
   27.6764  -21.2050   -8.0801 C   0  0  0  0  0  0  0  0  0  0  0  0
   28.6096  -20.7695   -7.1870 C   0  0  0  0  0  0  0  0  0  0  0  0
   28.7181  -19.4278   -6.8905 C   0  0  0  0  0  0  0  0  0  0  0  0
   27.8838  -18.5413   -7.4988 C   0  0  0  0  0  0  0  0  0  0  0  0
   26.9402  -18.9750   -8.4011 C   0  0  0  0  0  0  0  0  0  0  0  0
   27.5824  -21.2006  -11.4191 C   0  0  0  0  0  0  0  0  0  0  0  0
   27.6607  -22.4151  -11.7183 O   0  0  0  0  0  0  0  0  0  0  0  0
   28.7714  -20.4681  -11.4210 O   0  0  0  0  0  0  0  0  0  0  0  0
  2  1  1  1
  3  2  1  0
  4  8  1  0
  4  3  1  0
  5  4  2  0
  6  2  1  0
  7  6  2  0
  9  6  1  0
 10  9  1  0
 10 11  1  6
 12 13  1  0
 12 11  1  0
 13 14  1  0
 14 15  1  0
 16 17  2  0
 16 10  1  0
 18 16  1  0
 19 18  1  0
 19 20  1  1
 20 21  1  0
 21 26  2  0
 21 22  1  0
 22 23  2  0
 23 24  1  0
 25 24  2  0
 26 25  1  0
 27 29  1  0
 27 19  1  0
 28 27  2  0
M  END
$$$$
