DKF.pdb
     RDKit          3D

 29 29  0  0  1  0  0  0  0  0999 V2000
   26.5950  -20.7559  -18.8467 N   0  0  0  0  0  0  0  0  0  0  0  0
   27.3140  -20.0492  -17.8292 C   0  0  1  0  0  0  0  0  0  0  0  0
   28.0210  -18.8364  -18.3486 C   0  0  0  0  0  0  0  0  0  0  0  0
   28.9794  -19.0916  -19.4211 C   0  0  0  0  0  0  0  0  0  0  0  0
   28.9654  -18.5850  -20.5665 O   0  0  0  0  0  0  0  0  0  0  0  0
   26.5256  -19.8029  -16.6046 C   0  0  0  0  0  0  0  0  0  0  0  0
   26.8565  -18.8796  -15.8082 O   0  0  0  0  0  0  0  0  0  0  0  0
   30.0178  -19.9854  -19.1576 O   0  0  0  0  0  0  0  0  0  0  0  0
   25.4002  -20.5852  -16.3034 N   0  0  0  0  0  0  0  0  0  0  0  0
   24.5720  -20.4005  -15.1038 C   0  0  1  0  0  0  0  0  0  0  0  0
   23.1710  -20.8644  -15.3560 C   0  0  0  0  0  0  0  0  0  0  0  0
   22.4279  -19.9799  -16.2830 C   0  0  0  0  0  0  0  0  0  0  0  0
   21.0555  -20.5154  -16.6532 C   0  0  0  0  0  0  0  0  0  0  0  0
   20.3621  -19.6313  -17.6670 C   0  0  0  0  0  0  0  0  0  0  0  0
   19.1260  -20.2765  -18.1387 N   0  0  0  0  0  0  0  0  0  0  0  0
   25.2168  -20.9909  -13.9279 C   0  0  0  0  0  0  0  0  0  0  0  0
   25.4559  -22.2048  -13.8568 O   0  0  0  0  0  0  0  0  0  0  0  0
   25.5752  -20.1485  -12.8434 N   0  0  0  0  0  0  0  0  0  0  0  0
   26.1468  -20.6587  -11.5923 C   0  0  1  0  0  0  0  0  0  0  0  0
   27.1915  -19.6820  -11.1386 C   0  0  0  0  0  0  0  0  0  0  0  0
   27.7265  -20.0518   -9.8132 C   0  0  0  0  0  0  0  0  0  0  0  0
   27.1155  -19.5563   -8.6959 C   0  0  0  0  0  0  0  0  0  0  0  0
   27.5667  -19.8824   -7.4517 C   0  0  0  0  0  0  0  0  0  0  0  0
   28.6508  -20.7201   -7.3005 C   0  0  0  0  0  0  0  0  0  0  0  0
   29.2667  -21.2191   -8.4067 C   0  0  0  0  0  0  0  0  0  0  0  0
   28.8156  -20.8937   -9.6649 C   0  0  0  0  0  0  0  0  0  0  0  0
   25.0635  -20.8556  -10.5987 C   0  0  0  0  0  0  0  0  0  0  0  0
   25.1710  -21.6885   -9.6684 O   0  0  0  0  0  0  0  0  0  0  0  0
   23.8776  -20.1208  -10.6594 O   0  0  0  0  0  0  0  0  0  0  0  0
  2  1  1  6
  3  2  1  0
  4  8  1  0
  4  3  1  0
  5  4  2  0
  6  2  1  0
  7  6  2  0
  9  6  1  0
 10  9  1  0
 10 11  1  6
 12 13  1  0
 12 11  1  0
 13 14  1  0
 14 15  1  0
 16 17  2  0
 16 10  1  0
 18 16  1  0
 19 18  1  0
 19 20  1  1
 20 21  1  0
 21 26  2  0
 21 22  1  0
 22 23  2  0
 23 24  1  0
 25 24  2  0
 26 25  1  0
 27 29  1  0
 27 19  1  0
 28 27  2  0
M  END
$$$$
