DKF.pdb
     RDKit          3D

 29 29  0  0  1  0  0  0  0  0999 V2000
   20.8903   -5.3611  -22.1077 N   0  0  0  0  0  0  0  0  0  0  0  0
   21.6460   -6.1241  -21.1598 C   0  0  1  0  0  0  0  0  0  0  0  0
   23.1080   -5.8044  -21.1850 C   0  0  0  0  0  0  0  0  0  0  0  0
   23.7499   -5.9492  -22.4893 C   0  0  0  0  0  0  0  0  0  0  0  0
   23.4818   -6.8108  -23.3580 O   0  0  0  0  0  0  0  0  0  0  0  0
   21.0604   -6.1377  -19.8038 C   0  0  0  0  0  0  0  0  0  0  0  0
   20.6193   -5.0715  -19.2890 O   0  0  0  0  0  0  0  0  0  0  0  0
   24.7628   -5.0459  -22.8124 O   0  0  0  0  0  0  0  0  0  0  0  0
   20.9828   -7.3282  -19.0649 N   0  0  0  0  0  0  0  0  0  0  0  0
   20.4302   -7.4140  -17.7061 C   0  0  1  0  0  0  0  0  0  0  0  0
   19.6533   -8.6823  -17.5340 C   0  0  0  0  0  0  0  0  0  0  0  0
   19.0536   -8.8136  -16.1861 C   0  0  0  0  0  0  0  0  0  0  0  0
   18.1163  -10.0022  -16.0592 C   0  0  0  0  0  0  0  0  0  0  0  0
   17.4605  -10.0577  -14.6964 C   0  0  0  0  0  0  0  0  0  0  0  0
   16.4952  -11.1677  -14.6448 N   0  0  0  0  0  0  0  0  0  0  0  0
   21.4733   -7.1866  -16.7026 C   0  0  0  0  0  0  0  0  0  0  0  0
   22.4771   -7.9100  -16.6309 O   0  0  0  0  0  0  0  0  0  0  0  0
   21.3277   -6.1097  -15.7898 N   0  0  0  0  0  0  0  0  0  0  0  0
   22.2978   -5.8294  -14.7255 C   0  0  1  0  0  0  0  0  0  0  0  0
   23.1308   -4.6618  -15.1661 C   0  0  0  0  0  0  0  0  0  0  0  0
   22.2992   -3.4575  -15.3601 C   0  0  0  0  0  0  0  0  0  0  0  0
   22.1024   -2.6167  -14.3011 C   0  0  0  0  0  0  0  0  0  0  0  0
   21.3536   -1.4860  -14.4381 C   0  0  0  0  0  0  0  0  0  0  0  0
   20.7808   -1.1719  -15.6518 C   0  0  0  0  0  0  0  0  0  0  0  0
   20.9705   -2.0024  -16.7130 C   0  0  0  0  0  0  0  0  0  0  0  0
   21.7254   -3.1448  -16.5807 C   0  0  0  0  0  0  0  0  0  0  0  0
   21.5773   -5.5832  -13.4529 C   0  0  0  0  0  0  0  0  0  0  0  0
   22.1917   -5.3290  -12.3906 O   0  0  0  0  0  0  0  0  0  0  0  0
   20.1831   -5.6252  -13.3858 O   0  0  0  0  0  0  0  0  0  0  0  0
  2  1  1  6
  3  2  1  0
  4  8  1  0
  4  3  1  0
  5  4  2  0
  6  2  1  0
  7  6  2  0
  9  6  1  0
 10  9  1  0
 10 11  1  1
 12 13  1  0
 12 11  1  0
 13 14  1  0
 14 15  1  0
 16 17  2  0
 16 10  1  0
 18 16  1  0
 19 18  1  0
 19 20  1  6
 20 21  1  0
 21 26  2  0
 21 22  1  0
 22 23  2  0
 23 24  1  0
 25 24  2  0
 26 25  1  0
 27 29  1  0
 27 19  1  0
 28 27  2  0
M  END
$$$$
