DKF.pdb
     RDKit          3D

 29 29  0  0  1  0  0  0  0  0999 V2000
   18.8429  -17.8446  -18.4483 N   0  0  0  0  0  0  0  0  0  0  0  0
   19.6801  -17.5505  -17.3240 C   0  0  1  0  0  0  0  0  0  0  0  0
   18.9054  -17.3031  -16.0674 C   0  0  0  0  0  0  0  0  0  0  0  0
   17.9546  -16.1962  -16.1354 C   0  0  0  0  0  0  0  0  0  0  0  0
   17.7349  -15.4649  -17.1284 O   0  0  0  0  0  0  0  0  0  0  0  0
   20.8055  -18.4927  -17.1567 C   0  0  0  0  0  0  0  0  0  0  0  0
   20.5859  -19.7044  -16.8741 O   0  0  0  0  0  0  0  0  0  0  0  0
   17.2113  -15.9144  -14.9889 O   0  0  0  0  0  0  0  0  0  0  0  0
   22.1327  -18.0629  -17.3076 N   0  0  0  0  0  0  0  0  0  0  0  0
   23.2983  -18.9511  -17.1992 C   0  0  1  0  0  0  0  0  0  0  0  0
   24.3812  -18.5135  -18.1360 C   0  0  0  0  0  0  0  0  0  0  0  0
   25.3943  -19.5662  -18.3795 C   0  0  0  0  0  0  0  0  0  0  0  0
   26.4553  -19.6407  -17.2950 C   0  0  0  0  0  0  0  0  0  0  0  0
   27.4833  -20.7123  -17.5874 C   0  0  0  0  0  0  0  0  0  0  0  0
   28.5775  -20.6444  -16.6051 N   0  0  0  0  0  0  0  0  0  0  0  0
   23.7126  -19.1012  -15.8018 C   0  0  0  0  0  0  0  0  0  0  0  0
   24.2534  -18.1758  -15.1797 O   0  0  0  0  0  0  0  0  0  0  0  0
   23.4882  -20.3398  -15.1463 N   0  0  0  0  0  0  0  0  0  0  0  0
   24.1277  -20.6968  -13.8751 C   0  0  1  0  0  0  0  0  0  0  0  0
   23.6286  -19.7414  -12.8314 C   0  0  0  0  0  0  0  0  0  0  0  0
   24.0983  -20.1289  -11.4864 C   0  0  0  0  0  0  0  0  0  0  0  0
   25.4244  -19.9900  -11.1878 C   0  0  0  0  0  0  0  0  0  0  0  0
   25.9000  -20.3220   -9.9542 C   0  0  0  0  0  0  0  0  0  0  0  0
   25.0472  -20.8050   -8.9850 C   0  0  0  0  0  0  0  0  0  0  0  0
   23.7245  -20.9472   -9.2720 C   0  0  0  0  0  0  0  0  0  0  0  0
   23.2389  -20.6136  -10.5151 C   0  0  0  0  0  0  0  0  0  0  0  0
   23.8329  -22.1145  -13.5551 C   0  0  0  0  0  0  0  0  0  0  0  0
   22.7689  -22.6627  -13.9267 O   0  0  0  0  0  0  0  0  0  0  0  0
   24.7295  -22.8978  -12.8251 O   0  0  0  0  0  0  0  0  0  0  0  0
  2  1  1  6
  3  2  1  0
  4  8  1  0
  4  3  1  0
  5  4  2  0
  6  2  1  0
  7  6  2  0
  9  6  1  0
 10  9  1  0
 10 11  1  6
 12 13  1  0
 12 11  1  0
 13 14  1  0
 14 15  1  0
 16 17  2  0
 16 10  1  0
 18 16  1  0
 19 18  1  0
 19 20  1  1
 20 21  1  0
 21 26  2  0
 21 22  1  0
 22 23  2  0
 23 24  1  0
 25 24  2  0
 26 25  1  0
 27 29  1  0
 27 19  1  0
 28 27  2  0
M  END
$$$$
