YGT.pdb
     RDKit          3D

 24 24  0  0  1  0  0  0  0  0999 V2000
    5.3589  -10.1270   26.9878 O   0  0  0  0  0  0  0  0  0  0  0  0
    5.9755  -11.3529   26.7160 C   0  0  0  0  0  0  0  0  0  0  0  0
    5.5045  -12.5343   27.2355 C   0  0  0  0  0  0  0  0  0  0  0  0
    6.1378  -13.7366   26.9479 C   0  0  0  0  0  0  0  0  0  0  0  0
    7.2603  -13.7941   26.1329 C   0  0  0  0  0  0  0  0  0  0  0  0
    7.8723  -15.0771   25.8732 C   0  0  0  0  0  0  0  0  0  0  0  0
    7.8988  -15.5802   24.4706 C   0  0  2  0  0  0  0  0  0  0  0  0
    6.4724  -15.7660   24.1181 N   0  0  0  0  0  0  0  0  0  0  0  0
    8.5193  -16.9193   24.3304 C   0  0  0  0  0  0  0  0  0  0  0  0
    9.6801  -17.1754   24.7849 O   0  0  0  0  0  0  0  0  0  0  0  0
    7.7120  -12.5870   25.6238 C   0  0  0  0  0  0  0  0  0  0  0  0
    7.0883  -11.3874   25.9047 C   0  0  0  0  0  0  0  0  0  0  0  0
    7.8566  -18.0061   23.6800 N   0  0  0  0  0  0  0  0  0  0  0  0
    8.4608  -19.2381   23.3118 C   0  0  0  0  0  0  0  0  0  0  0  0
    9.5871  -19.1696   22.3864 C   0  0  0  0  0  0  0  0  0  0  0  0
    9.5717  -19.9642   21.3819 O   0  0  0  0  0  0  0  0  0  0  0  0
    9.1643  -17.7651   20.3686 C   0  0  0  0  0  0  0  0  0  0  0  0
   10.5285  -17.1642   20.3980 C   0  0  1  0  0  0  0  0  0  0  0  0
   10.4096  -15.8384   20.8580 O   0  0  0  0  0  0  0  0  0  0  0  0
   11.4962  -17.9112   21.2948 C   0  0  2  0  0  0  0  0  0  0  0  0
   10.7100  -18.3290   22.4568 N   0  0  0  0  0  0  0  0  0  0  0  0
   12.6147  -17.0458   21.6787 C   0  0  0  0  0  0  0  0  0  0  0  0
   13.4829  -16.7076   20.8405 O   0  0  0  0  0  0  0  0  0  0  0  0
   12.7375  -16.5826   22.9746 O   0  0  0  0  0  0  0  0  0  0  0  0
  2  1  1  0
  3  2  2  0
  4  3  1  0
  5 11  1  0
  5  4  2  0
  6  5  1  0
  7  6  1  0
  7  8  1  1
  9 10  2  0
  9  7  1  0
 11 12  2  0
 12  2  1  0
 13  9  1  0
 14 13  1  0
 14 15  1  0
 15 16  2  0
 18 17  1  1
 18 20  1  0
 18 19  1  0
 21 15  1  0
 20 21  1  1
 22 20  1  0
 22 24  1  0
 23 22  2  0
M  END
$$$$
