YGT.pdb
     RDKit          3D

 24 24  0  0  1  0  0  0  0  0999 V2000
    5.3834  -10.8860   27.4228 O   0  0  0  0  0  0  0  0  0  0  0  0
    5.9736  -11.9289   26.7009 C   0  0  0  0  0  0  0  0  0  0  0  0
    5.8816  -13.2378   27.1084 C   0  0  0  0  0  0  0  0  0  0  0  0
    6.4780  -14.2524   26.3710 C   0  0  0  0  0  0  0  0  0  0  0  0
    7.1840  -13.9896   25.2047 C   0  0  0  0  0  0  0  0  0  0  0  0
    7.7810  -15.0907   24.4842 C   0  0  0  0  0  0  0  0  0  0  0  0
    6.9524  -15.8133   23.4779 C   0  0  2  0  0  0  0  0  0  0  0  0
    6.3531  -16.9379   24.2324 N   0  0  0  0  0  0  0  0  0  0  0  0
    7.7457  -16.4412   22.3943 C   0  0  0  0  0  0  0  0  0  0  0  0
    8.1527  -17.6448   22.4674 O   0  0  0  0  0  0  0  0  0  0  0  0
    7.2596  -12.6608   24.8191 C   0  0  0  0  0  0  0  0  0  0  0  0
    6.6695  -11.6459   25.5463 C   0  0  0  0  0  0  0  0  0  0  0  0
    8.1022  -15.7396   21.2011 N   0  0  0  0  0  0  0  0  0  0  0  0
    9.0917  -16.1503   20.2680 C   0  0  0  0  0  0  0  0  0  0  0  0
   10.4081  -16.4795   20.8049 C   0  0  0  0  0  0  0  0  0  0  0  0
   11.3923  -16.4865   19.9852 O   0  0  0  0  0  0  0  0  0  0  0  0
   12.0945  -15.5100   24.4002 C   0  0  0  0  0  0  0  0  0  0  0  0
   12.1229  -16.9599   24.0539 C   0  0  1  0  0  0  0  0  0  0  0  0
   11.0107  -17.5738   24.6621 O   0  0  0  0  0  0  0  0  0  0  0  0
   12.0753  -17.2236   22.5617 C   0  0  2  0  0  0  0  0  0  0  0  0
   10.7425  -16.7979   22.1312 N   0  0  0  0  0  0  0  0  0  0  0  0
   12.3085  -18.6431   22.2823 C   0  0  0  0  0  0  0  0  0  0  0  0
   11.3883  -19.3711   21.8417 O   0  0  0  0  0  0  0  0  0  0  0  0
   13.5490  -19.2117   22.4984 O   0  0  0  0  0  0  0  0  0  0  0  0
  2  1  1  0
  3  2  2  0
  4  3  1  0
  5 11  1  0
  5  4  2  0
  6  5  1  0
  7  6  1  0
  7  8  1  1
  9 10  2  0
  9  7  1  0
 11 12  2  0
 12  2  1  0
 13  9  1  0
 14 13  1  0
 14 15  1  0
 15 16  2  0
 18 17  1  6
 18 20  1  0
 18 19  1  0
 21 15  1  0
 20 21  1  1
 22 20  1  0
 22 24  1  0
 23 22  2  0
M  END
$$$$
