YGT.pdb
     RDKit          3D

 24 24  0  0  1  0  0  0  0  0999 V2000
   10.3085  -13.6685   29.8608 O   0  0  0  0  0  0  0  0  0  0  0  0
    9.6816  -13.9641   28.6456 C   0  0  0  0  0  0  0  0  0  0  0  0
    8.3216  -13.8551   28.4841 C   0  0  0  0  0  0  0  0  0  0  0  0
    7.7270  -14.1556   27.2653 C   0  0  0  0  0  0  0  0  0  0  0  0
    8.4735  -14.5738   26.1719 C   0  0  0  0  0  0  0  0  0  0  0  0
    7.7935  -14.8711   24.9320 C   0  0  0  0  0  0  0  0  0  0  0  0
    7.1663  -16.2134   24.7705 C   0  0  2  0  0  0  0  0  0  0  0  0
    8.2870  -17.1670   24.9370 N   0  0  0  0  0  0  0  0  0  0  0  0
    6.6338  -16.4614   23.4093 C   0  0  0  0  0  0  0  0  0  0  0  0
    5.6963  -15.7578   22.9135 O   0  0  0  0  0  0  0  0  0  0  0  0
    9.8420  -14.6743   26.3650 C   0  0  0  0  0  0  0  0  0  0  0  0
   10.4412  -14.3775   27.5733 C   0  0  0  0  0  0  0  0  0  0  0  0
    7.1375  -17.5012   22.5677 N   0  0  0  0  0  0  0  0  0  0  0  0
    6.7343  -17.7445   21.2273 C   0  0  0  0  0  0  0  0  0  0  0  0
    7.2016  -16.8012   20.2166 C   0  0  0  0  0  0  0  0  0  0  0  0
    6.7686  -16.9579   19.0214 O   0  0  0  0  0  0  0  0  0  0  0  0
    6.8053  -13.2075   20.0360 C   0  0  0  0  0  0  0  0  0  0  0  0
    8.2486  -13.4441   19.7464 C   0  0  1  0  0  0  0  0  0  0  0  0
    8.9777  -13.1719   20.9203 O   0  0  0  0  0  0  0  0  0  0  0  0
    8.5484  -14.8612   19.2986 C   0  0  2  0  0  0  0  0  0  0  0  0
    8.0843  -15.7223   20.3878 N   0  0  0  0  0  0  0  0  0  0  0  0
    9.9823  -15.0290   19.0473 C   0  0  0  0  0  0  0  0  0  0  0  0
   10.5378  -14.4519   18.0834 O   0  0  0  0  0  0  0  0  0  0  0  0
   10.7550  -15.8279   19.8681 O   0  0  0  0  0  0  0  0  0  0  0  0
  2  1  1  0
  3  2  2  0
  4  3  1  0
  5 11  1  0
  5  4  2  0
  6  5  1  0
  7  6  1  0
  7  8  1  6
  9 10  2  0
  9  7  1  0
 11 12  2  0
 12  2  1  0
 13  9  1  0
 14 13  1  0
 14 15  1  0
 15 16  2  0
 18 17  1  1
 18 20  1  0
 18 19  1  0
 21 15  1  0
 20 21  1  1
 22 20  1  0
 22 24  1  0
 23 22  2  0
M  END
$$$$
