YGT.pdb
     RDKit          3D

 24 24  0  0  1  0  0  0  0  0999 V2000
   11.3338  -14.4503   30.2385 O   0  0  0  0  0  0  0  0  0  0  0  0
   10.5781  -14.5719   29.0675 C   0  0  0  0  0  0  0  0  0  0  0  0
   10.9889  -15.3542   28.0155 C   0  0  0  0  0  0  0  0  0  0  0  0
   10.2172  -15.4557   26.8651 C   0  0  0  0  0  0  0  0  0  0  0  0
    9.0124  -14.7787   26.7317 C   0  0  0  0  0  0  0  0  0  0  0  0
    8.2575  -14.9267   25.5085 C   0  0  0  0  0  0  0  0  0  0  0  0
    7.1624  -15.9368   25.4678 C   0  0  2  0  0  0  0  0  0  0  0  0
    7.8181  -17.2078   25.8523 N   0  0  0  0  0  0  0  0  0  0  0  0
    6.6161  -16.1678   24.1091 C   0  0  0  0  0  0  0  0  0  0  0  0
    5.9910  -15.2615   23.4707 O   0  0  0  0  0  0  0  0  0  0  0  0
    8.6244  -13.9978   27.8087 C   0  0  0  0  0  0  0  0  0  0  0  0
    9.3855  -13.8915   28.9561 C   0  0  0  0  0  0  0  0  0  0  0  0
    6.7566  -17.4175   23.4296 N   0  0  0  0  0  0  0  0  0  0  0  0
    6.2320  -17.7203   22.1445 C   0  0  0  0  0  0  0  0  0  0  0  0
    6.7332  -16.9300   21.0248 C   0  0  0  0  0  0  0  0  0  0  0  0
    6.3203  -17.2426   19.8532 O   0  0  0  0  0  0  0  0  0  0  0  0
    7.9956  -13.0477   21.1503 C   0  0  0  0  0  0  0  0  0  0  0  0
    7.6657  -13.7852   19.8972 C   0  0  1  0  0  0  0  0  0  0  0  0
    8.2234  -13.0758   18.8158 O   0  0  0  0  0  0  0  0  0  0  0  0
    8.1939  -15.2062   19.8781 C   0  0  2  0  0  0  0  0  0  0  0  0
    7.6295  -15.8496   21.0658 N   0  0  0  0  0  0  0  0  0  0  0  0
    9.6591  -15.2110   19.9026 C   0  0  0  0  0  0  0  0  0  0  0  0
   10.3199  -14.8712   18.8933 O   0  0  0  0  0  0  0  0  0  0  0  0
   10.3458  -15.5905   21.0398 O   0  0  0  0  0  0  0  0  0  0  0  0
  2  1  1  0
  3  2  2  0
  4  3  1  0
  5 11  1  0
  5  4  2  0
  6  5  1  0
  7  6  1  0
  7  8  1  6
  9 10  2  0
  9  7  1  0
 11 12  2  0
 12  2  1  0
 13  9  1  0
 14 13  1  0
 14 15  1  0
 15 16  2  0
 18 17  1  1
 18 20  1  0
 18 19  1  0
 21 15  1  0
 20 21  1  1
 22 20  1  0
 22 24  1  0
 23 22  2  0
M  END
$$$$
