YGT.pdb
     RDKit          3D

 24 24  0  0  1  0  0  0  0  0999 V2000
    6.5764  -10.7332   28.1601 O   0  0  0  0  0  0  0  0  0  0  0  0
    6.6441  -11.9451   27.4646 C   0  0  0  0  0  0  0  0  0  0  0  0
    5.5259  -12.5432   26.9360 C   0  0  0  0  0  0  0  0  0  0  0  0
    5.6241  -13.7469   26.2501 C   0  0  0  0  0  0  0  0  0  0  0  0
    6.8423  -14.3888   26.0720 C   0  0  0  0  0  0  0  0  0  0  0  0
    6.8759  -15.6393   25.3488 C   0  0  0  0  0  0  0  0  0  0  0  0
    7.9072  -15.8185   24.2879 C   0  0  2  0  0  0  0  0  0  0  0  0
    7.9188  -14.5273   23.5626 N   0  0  0  0  0  0  0  0  0  0  0  0
    7.5474  -16.8390   23.2745 C   0  0  0  0  0  0  0  0  0  0  0  0
    8.0983  -17.9859   23.2476 O   0  0  0  0  0  0  0  0  0  0  0  0
    7.9519  -13.7618   26.6160 C   0  0  0  0  0  0  0  0  0  0  0  0
    7.8631  -12.5651   27.2993 C   0  0  0  0  0  0  0  0  0  0  0  0
    6.5613  -16.6032   22.2669 N   0  0  0  0  0  0  0  0  0  0  0  0
    6.5436  -17.1968   20.9762 C   0  0  0  0  0  0  0  0  0  0  0  0
    7.4240  -16.6126   19.9697 C   0  0  0  0  0  0  0  0  0  0  0  0
    7.3350  -17.0675   18.7756 O   0  0  0  0  0  0  0  0  0  0  0  0
    7.2369  -13.4264   18.7543 C   0  0  0  0  0  0  0  0  0  0  0  0
    8.7073  -13.5700   18.9553 C   0  0  1  0  0  0  0  0  0  0  0  0
    9.0510  -12.8980   20.1444 O   0  0  0  0  0  0  0  0  0  0  0  0
    9.1631  -15.0125   19.0560 C   0  0  2  0  0  0  0  0  0  0  0  0
    8.3773  -15.5962   20.1444 N   0  0  0  0  0  0  0  0  0  0  0  0
   10.6015  -15.0798   19.3281 C   0  0  0  0  0  0  0  0  0  0  0  0
   11.0288  -15.5134   20.4237 O   0  0  0  0  0  0  0  0  0  0  0  0
   11.5199  -14.6665   18.3823 O   0  0  0  0  0  0  0  0  0  0  0  0
  2  1  1  0
  3  2  2  0
  4  3  1  0
  5 11  1  0
  5  4  2  0
  6  5  1  0
  7  6  1  0
  7  8  1  6
  9 10  2  0
  9  7  1  0
 11 12  2  0
 12  2  1  0
 13  9  1  0
 14 13  1  0
 14 15  1  0
 15 16  2  0
 18 17  1  1
 18 20  1  0
 18 19  1  0
 21 15  1  0
 20 21  1  1
 22 20  1  0
 22 24  1  0
 23 22  2  0
M  END
$$$$
