YGT.pdb
     RDKit          3D

 24 24  0  0  1  0  0  0  0  0999 V2000
    8.3651  -12.0123   17.1098 O   0  0  0  0  0  0  0  0  0  0  0  0
    7.9573  -12.7258   18.2419 C   0  0  0  0  0  0  0  0  0  0  0  0
    6.6744  -13.1975   18.3806 C   0  0  0  0  0  0  0  0  0  0  0  0
    6.2984  -13.9030   19.5163 C   0  0  0  0  0  0  0  0  0  0  0  0
    7.1929  -14.1583   20.5470 C   0  0  0  0  0  0  0  0  0  0  0  0
    6.7380  -14.8980   21.7020 C   0  0  0  0  0  0  0  0  0  0  0  0
    7.2817  -16.2673   21.9275 C   0  0  2  0  0  0  0  0  0  0  0  0
    6.3635  -17.1568   21.1799 N   0  0  0  0  0  0  0  0  0  0  0  0
    7.2038  -16.7135   23.3391 C   0  0  0  0  0  0  0  0  0  0  0  0
    6.1464  -17.2276   23.8262 O   0  0  0  0  0  0  0  0  0  0  0  0
    8.4789  -13.6704   20.3789 C   0  0  0  0  0  0  0  0  0  0  0  0
    8.8610  -12.9681   19.2530 C   0  0  0  0  0  0  0  0  0  0  0  0
    8.3068  -16.5976   24.2409 N   0  0  0  0  0  0  0  0  0  0  0  0
    8.3262  -17.0627   25.5832 C   0  0  0  0  0  0  0  0  0  0  0  0
    9.5022  -16.7283   26.3799 C   0  0  0  0  0  0  0  0  0  0  0  0
   10.6150  -16.5975   25.7591 O   0  0  0  0  0  0  0  0  0  0  0  0
   10.0719  -13.7816   28.6017 C   0  0  0  0  0  0  0  0  0  0  0  0
   10.4396  -15.0062   29.3686 C   0  0  1  0  0  0  0  0  0  0  0  0
    9.3398  -15.3612   30.1737 O   0  0  0  0  0  0  0  0  0  0  0  0
   10.8028  -16.1835   28.4850 C   0  0  2  0  0  0  0  0  0  0  0  0
    9.5740  -16.5288   27.7682 N   0  0  0  0  0  0  0  0  0  0  0  0
   11.2918  -17.3029   29.2946 C   0  0  0  0  0  0  0  0  0  0  0  0
   10.6389  -18.3695   29.3777 O   0  0  0  0  0  0  0  0  0  0  0  0
   12.4847  -17.2077   29.9852 O   0  0  0  0  0  0  0  0  0  0  0  0
  2  1  1  0
  3  2  2  0
  4  3  1  0
  5 11  1  0
  5  4  2  0
  6  5  1  0
  7  6  1  0
  7  8  1  6
  9 10  2  0
  9  7  1  0
 11 12  2  0
 12  2  1  0
 13  9  1  0
 14 13  1  0
 14 15  1  0
 15 16  2  0
 18 17  1  6
 18 20  1  0
 18 19  1  0
 21 15  1  0
 20 21  1  1
 22 20  1  0
 22 24  1  0
 23 22  2  0
M  END
$$$$
