YGT.pdb
     RDKit          3D

 24 24  0  0  1  0  0  0  0  0999 V2000
   10.9744  -14.2970   30.1227 O   0  0  0  0  0  0  0  0  0  0  0  0
   10.0780  -14.5599   29.0813 C   0  0  0  0  0  0  0  0  0  0  0  0
    9.6800  -13.5831   28.2010 C   0  0  0  0  0  0  0  0  0  0  0  0
    8.7885  -13.8739   27.1764 C   0  0  0  0  0  0  0  0  0  0  0  0
    8.2682  -15.1491   27.0011 C   0  0  0  0  0  0  0  0  0  0  0  0
    7.3445  -15.3855   25.9152 C   0  0  0  0  0  0  0  0  0  0  0  0
    7.2270  -16.7681   25.3712 C   0  0  2  0  0  0  0  0  0  0  0  0
    8.6186  -17.1557   25.0448 N   0  0  0  0  0  0  0  0  0  0  0  0
    6.4841  -16.8424   24.0905 C   0  0  0  0  0  0  0  0  0  0  0  0
    5.3390  -16.3070   23.9432 O   0  0  0  0  0  0  0  0  0  0  0  0
    8.6877  -16.1130   27.9040 C   0  0  0  0  0  0  0  0  0  0  0  0
    9.5737  -15.8323   28.9253 C   0  0  0  0  0  0  0  0  0  0  0  0
    7.0038  -17.5159   22.9417 N   0  0  0  0  0  0  0  0  0  0  0  0
    6.3792  -17.5726   21.6669 C   0  0  0  0  0  0  0  0  0  0  0  0
    6.9035  -16.6832   20.6356 C   0  0  0  0  0  0  0  0  0  0  0  0
    6.3124  -16.6878   19.4993 O   0  0  0  0  0  0  0  0  0  0  0  0
    7.0719  -13.1516   20.3653 C   0  0  0  0  0  0  0  0  0  0  0  0
    8.4534  -13.5897   20.0155 C   0  0  1  0  0  0  0  0  0  0  0  0
    9.2719  -13.3887   21.1440 O   0  0  0  0  0  0  0  0  0  0  0  0
    8.5365  -15.0455   19.6005 C   0  0  2  0  0  0  0  0  0  0  0  0
    7.9961  -15.8056   20.7289 N   0  0  0  0  0  0  0  0  0  0  0  0
    9.9231  -15.4192   19.3087 C   0  0  0  0  0  0  0  0  0  0  0  0
   10.5430  -16.2180   20.0492 O   0  0  0  0  0  0  0  0  0  0  0  0
   10.5790  -14.8988   18.2096 O   0  0  0  0  0  0  0  0  0  0  0  0
  2  1  1  0
  3  2  2  0
  4  3  1  0
  5 11  1  0
  5  4  2  0
  6  5  1  0
  7  6  1  0
  7  8  1  6
  9 10  2  0
  9  7  1  0
 11 12  2  0
 12  2  1  0
 13  9  1  0
 14 13  1  0
 14 15  1  0
 15 16  2  0
 18 17  1  1
 18 20  1  0
 18 19  1  0
 21 15  1  0
 20 21  1  1
 22 20  1  0
 22 24  1  0
 23 22  2  0
M  END
$$$$
