YGT.pdb
     RDKit          3D

 24 24  0  0  1  0  0  0  0  0999 V2000
   11.2622  -14.5306   30.3218 O   0  0  0  0  0  0  0  0  0  0  0  0
   10.3653  -14.7038   29.2623 C   0  0  0  0  0  0  0  0  0  0  0  0
    9.6834  -15.8813   29.0724 C   0  0  0  0  0  0  0  0  0  0  0  0
    8.7989  -16.0240   28.0111 C   0  0  0  0  0  0  0  0  0  0  0  0
    8.5695  -14.9947   27.1080 C   0  0  0  0  0  0  0  0  0  0  0  0
    7.6368  -15.2079   26.0251 C   0  0  0  0  0  0  0  0  0  0  0  0
    7.3919  -16.6036   25.5635 C   0  0  2  0  0  0  0  0  0  0  0  0
    8.7408  -17.1334   25.2580 N   0  0  0  0  0  0  0  0  0  0  0  0
    6.6365  -16.6854   24.2905 C   0  0  0  0  0  0  0  0  0  0  0  0
    5.5639  -16.0274   24.0996 O   0  0  0  0  0  0  0  0  0  0  0  0
    9.2713  -13.8197   27.3251 C   0  0  0  0  0  0  0  0  0  0  0  0
   10.1524  -13.6694   28.3777 C   0  0  0  0  0  0  0  0  0  0  0  0
    7.0623  -17.5036   23.1985 N   0  0  0  0  0  0  0  0  0  0  0  0
    6.4029  -17.6134   21.9449 C   0  0  0  0  0  0  0  0  0  0  0  0
    6.9342  -16.8109   20.8479 C   0  0  0  0  0  0  0  0  0  0  0  0
    6.5355  -17.0956   19.6645 O   0  0  0  0  0  0  0  0  0  0  0  0
    6.8199  -13.3059   19.9328 C   0  0  0  0  0  0  0  0  0  0  0  0
    8.2662  -13.6624   19.8681 C   0  0  1  0  0  0  0  0  0  0  0  0
    8.8859  -13.1777   21.0364 O   0  0  0  0  0  0  0  0  0  0  0  0
    8.5145  -15.1543   19.7623 C   0  0  2  0  0  0  0  0  0  0  0  0
    7.8463  -15.7456   20.9229 N   0  0  0  0  0  0  0  0  0  0  0  0
    9.9522  -15.4379   19.7608 C   0  0  0  0  0  0  0  0  0  0  0  0
   10.6689  -15.1208   18.7827 O   0  0  0  0  0  0  0  0  0  0  0  0
   10.5507  -16.0619   20.8385 O   0  0  0  0  0  0  0  0  0  0  0  0
  2  1  1  0
  3  2  2  0
  4  3  1  0
  5 11  1  0
  5  4  2  0
  6  5  1  0
  7  6  1  0
  7  8  1  6
  9 10  2  0
  9  7  1  0
 11 12  2  0
 12  2  1  0
 13  9  1  0
 14 13  1  0
 14 15  1  0
 15 16  2  0
 18 17  1  1
 18 20  1  0
 18 19  1  0
 21 15  1  0
 20 21  1  1
 22 20  1  0
 22 24  1  0
 23 22  2  0
M  END
$$$$
