YGT.pdb
     RDKit          3D

 24 24  0  0  1  0  0  0  0  0999 V2000
    8.4634  -12.4814   27.8891 O   0  0  0  0  0  0  0  0  0  0  0  0
    7.8253  -13.5841   27.3112 C   0  0  0  0  0  0  0  0  0  0  0  0
    8.0550  -14.8669   27.7461 C   0  0  0  0  0  0  0  0  0  0  0  0
    7.4066  -15.9424   27.1527 C   0  0  0  0  0  0  0  0  0  0  0  0
    6.5096  -15.7681   26.1075 C   0  0  0  0  0  0  0  0  0  0  0  0
    5.8686  -16.9291   25.5337 C   0  0  0  0  0  0  0  0  0  0  0  0
    6.6749  -17.8244   24.6565 C   0  0  2  0  0  0  0  0  0  0  0  0
    7.6403  -18.4699   25.5756 N   0  0  0  0  0  0  0  0  0  0  0  0
    7.4999  -17.0976   23.6620 C   0  0  0  0  0  0  0  0  0  0  0  0
    6.9863  -16.2986   22.8149 O   0  0  0  0  0  0  0  0  0  0  0  0
    6.2983  -14.4635   25.6907 C   0  0  0  0  0  0  0  0  0  0  0  0
    6.9388  -13.3887   26.2751 C   0  0  0  0  0  0  0  0  0  0  0  0
    8.9199  -17.2446   23.5909 N   0  0  0  0  0  0  0  0  0  0  0  0
    9.7992  -16.4071   22.8534 C   0  0  0  0  0  0  0  0  0  0  0  0
   10.9605  -15.8819   23.5641 C   0  0  0  0  0  0  0  0  0  0  0  0
   11.8071  -15.2017   22.8850 O   0  0  0  0  0  0  0  0  0  0  0  0
   11.1267  -14.0874   27.1425 C   0  0  0  0  0  0  0  0  0  0  0  0
   12.1004  -15.2064   26.9914 C   0  0  1  0  0  0  0  0  0  0  0  0
   11.5183  -16.3659   27.5396 O   0  0  0  0  0  0  0  0  0  0  0  0
   12.4821  -15.4819   25.5502 C   0  0  2  0  0  0  0  0  0  0  0  0
   11.2777  -16.0301   24.9242 N   0  0  0  0  0  0  0  0  0  0  0  0
   13.6037  -16.4229   25.4858 C   0  0  0  0  0  0  0  0  0  0  0  0
   13.4668  -17.5509   24.9569 O   0  0  0  0  0  0  0  0  0  0  0  0
   14.8385  -16.0876   26.0071 O   0  0  0  0  0  0  0  0  0  0  0  0
  2  1  1  0
  3  2  2  0
  4  3  1  0
  5 11  1  0
  5  4  2  0
  6  5  1  0
  7  6  1  0
  7  8  1  1
  9 10  2  0
  9  7  1  0
 11 12  2  0
 12  2  1  0
 13  9  1  0
 14 13  1  0
 14 15  1  0
 15 16  2  0
 18 17  1  6
 18 20  1  0
 18 19  1  0
 21 15  1  0
 20 21  1  6
 22 20  1  0
 22 24  1  0
 23 22  2  0
M  END
$$$$
