YGT.pdb
     RDKit          3D

 24 24  0  0  1  0  0  0  0  0999 V2000
   11.1530  -14.5504   30.5165 O   0  0  0  0  0  0  0  0  0  0  0  0
   10.2650  -14.7029   29.4463 C   0  0  0  0  0  0  0  0  0  0  0  0
    9.8406  -15.9397   29.0247 C   0  0  0  0  0  0  0  0  0  0  0  0
    8.9582  -16.0601   27.9588 C   0  0  0  0  0  0  0  0  0  0  0  0
    8.4737  -14.9484   27.2827 C   0  0  0  0  0  0  0  0  0  0  0  0
    7.5581  -15.1424   26.1817 C   0  0  0  0  0  0  0  0  0  0  0  0
    7.8086  -16.2705   25.2404 C   0  0  2  0  0  0  0  0  0  0  0  0
    9.1409  -15.9801   24.6625 N   0  0  0  0  0  0  0  0  0  0  0  0
    6.8756  -16.3027   24.0887 C   0  0  0  0  0  0  0  0  0  0  0  0
    5.6429  -16.5873   24.2274 O   0  0  0  0  0  0  0  0  0  0  0  0
    8.9193  -13.7150   27.7304 C   0  0  0  0  0  0  0  0  0  0  0  0
    9.7964  -13.5865   28.7892 C   0  0  0  0  0  0  0  0  0  0  0  0
    7.2972  -16.0158   22.7533 N   0  0  0  0  0  0  0  0  0  0  0  0
    6.4698  -16.0646   21.5995 C   0  0  0  0  0  0  0  0  0  0  0  0
    7.0963  -15.7316   20.3243 C   0  0  0  0  0  0  0  0  0  0  0  0
    6.3878  -15.8730   19.2666 O   0  0  0  0  0  0  0  0  0  0  0  0
    8.0507  -12.6761   19.0299 C   0  0  0  0  0  0  0  0  0  0  0  0
    9.2505  -13.5147   18.7467 C   0  0  1  0  0  0  0  0  0  0  0  0
   10.2272  -13.2175   19.7170 O   0  0  0  0  0  0  0  0  0  0  0  0
    8.9651  -15.0034   18.7759 C   0  0  2  0  0  0  0  0  0  0  0  0
    8.4033  -15.2683   20.1015 N   0  0  0  0  0  0  0  0  0  0  0  0
   10.1938  -15.7676   18.5444 C   0  0  0  0  0  0  0  0  0  0  0  0
   10.7130  -16.4437   19.4631 O   0  0  0  0  0  0  0  0  0  0  0  0
   10.8083  -15.7601   17.3069 O   0  0  0  0  0  0  0  0  0  0  0  0
  2  1  1  0
  3  2  2  0
  4  3  1  0
  5 11  1  0
  5  4  2  0
  6  5  1  0
  7  6  1  0
  7  8  1  6
  9 10  2  0
  9  7  1  0
 11 12  2  0
 12  2  1  0
 13  9  1  0
 14 13  1  0
 14 15  1  0
 15 16  2  0
 18 17  1  1
 18 20  1  0
 18 19  1  0
 21 15  1  0
 20 21  1  1
 22 20  1  0
 22 24  1  0
 23 22  2  0
M  END
$$$$
