YGT.pdb
     RDKit          3D

 24 24  0  0  1  0  0  0  0  0999 V2000
    6.5216  -10.7988   28.5742 O   0  0  0  0  0  0  0  0  0  0  0  0
    6.7999  -11.5321   27.4158 C   0  0  0  0  0  0  0  0  0  0  0  0
    5.8059  -11.9534   26.5662 C   0  0  0  0  0  0  0  0  0  0  0  0
    6.1126  -12.6802   25.4230 C   0  0  0  0  0  0  0  0  0  0  0  0
    7.4214  -13.0076   25.0949 C   0  0  0  0  0  0  0  0  0  0  0  0
    7.6728  -13.7663   23.8911 C   0  0  0  0  0  0  0  0  0  0  0  0
    7.3790  -15.2275   23.8984 C   0  0  2  0  0  0  0  0  0  0  0  0
    8.2618  -15.7762   24.9533 N   0  0  0  0  0  0  0  0  0  0  0  0
    7.7759  -15.9205   22.6494 C   0  0  0  0  0  0  0  0  0  0  0  0
    7.2225  -15.6658   21.5320 O   0  0  0  0  0  0  0  0  0  0  0  0
    8.4019  -12.5692   25.9705 C   0  0  0  0  0  0  0  0  0  0  0  0
    8.1056  -11.8461   27.1091 C   0  0  0  0  0  0  0  0  0  0  0  0
    8.8027  -16.9144   22.6183 N   0  0  0  0  0  0  0  0  0  0  0  0
    9.2668  -17.5837   21.4542 C   0  0  0  0  0  0  0  0  0  0  0  0
   10.4519  -18.4220   21.6040 C   0  0  0  0  0  0  0  0  0  0  0  0
   10.4956  -19.2022   22.6189 O   0  0  0  0  0  0  0  0  0  0  0  0
   12.3209  -20.5087   18.8055 C   0  0  0  0  0  0  0  0  0  0  0  0
   13.2664  -19.6966   19.6238 C   0  0  1  0  0  0  0  0  0  0  0  0
   13.5314  -18.5029   18.9247 O   0  0  0  0  0  0  0  0  0  0  0  0
   12.7298  -19.3524   20.9993 C   0  0  2  0  0  0  0  0  0  0  0  0
   11.5750  -18.4843   20.7630 N   0  0  0  0  0  0  0  0  0  0  0  0
   13.7580  -18.6821   21.7999 C   0  0  0  0  0  0  0  0  0  0  0  0
   13.6802  -17.4565   22.0502 O   0  0  0  0  0  0  0  0  0  0  0  0
   14.8373  -19.3867   22.2974 O   0  0  0  0  0  0  0  0  0  0  0  0
  2  1  1  0
  3  2  2  0
  4  3  1  0
  5 11  1  0
  5  4  2  0
  6  5  1  0
  7  6  1  0
  7  8  1  1
  9 10  2  0
  9  7  1  0
 11 12  2  0
 12  2  1  0
 13  9  1  0
 14 13  1  0
 14 15  1  0
 15 16  2  0
 18 17  1  6
 18 20  1  0
 18 19  1  0
 21 15  1  0
 20 21  1  6
 22 20  1  0
 22 24  1  0
 23 22  2  0
M  END
$$$$
