YGT.pdb
     RDKit          3D

 24 24  0  0  1  0  0  0  0  0999 V2000
   11.1653  -14.8113   30.5061 O   0  0  0  0  0  0  0  0  0  0  0  0
   10.2817  -14.9543   29.4310 C   0  0  0  0  0  0  0  0  0  0  0  0
    9.7810  -13.8695   28.7527 C   0  0  0  0  0  0  0  0  0  0  0  0
    8.9051  -14.0424   27.6887 C   0  0  0  0  0  0  0  0  0  0  0  0
    8.5036  -15.3041   27.2709 C   0  0  0  0  0  0  0  0  0  0  0  0
    7.5897  -15.4152   26.1571 C   0  0  0  0  0  0  0  0  0  0  0  0
    8.0986  -15.9786   24.8746 C   0  0  2  0  0  0  0  0  0  0  0  0
    9.2337  -15.1000   24.5101 N   0  0  0  0  0  0  0  0  0  0  0  0
    7.1359  -15.8682   23.7526 C   0  0  0  0  0  0  0  0  0  0  0  0
    6.0946  -16.5967   23.6835 O   0  0  0  0  0  0  0  0  0  0  0  0
    9.0250  -16.3785   27.9738 C   0  0  0  0  0  0  0  0  0  0  0  0
    9.8962  -16.2154   29.0327 C   0  0  0  0  0  0  0  0  0  0  0  0
    7.3125  -14.9393   22.6806 N   0  0  0  0  0  0  0  0  0  0  0  0
    6.5037  -14.8624   21.5151 C   0  0  0  0  0  0  0  0  0  0  0  0
    7.1445  -15.1885   20.2452 C   0  0  0  0  0  0  0  0  0  0  0  0
    6.3904  -15.2875   19.2146 O   0  0  0  0  0  0  0  0  0  0  0  0
    7.5826  -13.1560   18.7610 C   0  0  0  0  0  0  0  0  0  0  0  0
    8.9880  -13.6044   18.5445 C   0  0  1  0  0  0  0  0  0  0  0  0
    9.8099  -12.9129   19.4556 O   0  0  0  0  0  0  0  0  0  0  0  0
    9.1814  -15.0952   18.7411 C   0  0  2  0  0  0  0  0  0  0  0  0
    8.5091  -15.4143   20.0018 N   0  0  0  0  0  0  0  0  0  0  0  0
   10.6079  -15.4274   18.7873 C   0  0  0  0  0  0  0  0  0  0  0  0
   11.1722  -15.6885   19.8756 O   0  0  0  0  0  0  0  0  0  0  0  0
   11.3637  -15.4605   17.6312 O   0  0  0  0  0  0  0  0  0  0  0  0
  2  1  1  0
  3  2  2  0
  4  3  1  0
  5 11  1  0
  5  4  2  0
  6  5  1  0
  7  6  1  0
  7  8  1  6
  9 10  2  0
  9  7  1  0
 11 12  2  0
 12  2  1  0
 13  9  1  0
 14 13  1  0
 14 15  1  0
 15 16  2  0
 18 17  1  1
 18 20  1  0
 18 19  1  0
 21 15  1  0
 20 21  1  1
 22 20  1  0
 22 24  1  0
 23 22  2  0
M  END
$$$$
