YGT.pdb
     RDKit          3D

 24 24  0  0  1  0  0  0  0  0999 V2000
    6.5688  -11.0163   28.4191 O   0  0  0  0  0  0  0  0  0  0  0  0
    6.7833  -11.9407   27.3912 C   0  0  0  0  0  0  0  0  0  0  0  0
    5.7800  -12.7558   26.9258 C   0  0  0  0  0  0  0  0  0  0  0  0
    6.0228  -13.6644   25.9037 C   0  0  0  0  0  0  0  0  0  0  0  0
    7.2750  -13.7856   25.3164 C   0  0  0  0  0  0  0  0  0  0  0  0
    7.4614  -14.7509   24.2573 C   0  0  0  0  0  0  0  0  0  0  0  0
    7.1945  -16.1875   24.5511 C   0  0  2  0  0  0  0  0  0  0  0  0
    8.2855  -16.5852   25.4702 N   0  0  0  0  0  0  0  0  0  0  0  0
    7.3302  -17.0717   23.3689 C   0  0  0  0  0  0  0  0  0  0  0  0
    8.4027  -17.7122   23.1256 O   0  0  0  0  0  0  0  0  0  0  0  0
    8.2664  -12.9507   25.8064 C   0  0  0  0  0  0  0  0  0  0  0  0
    8.0336  -12.0446   26.8222 C   0  0  0  0  0  0  0  0  0  0  0  0
    6.2694  -17.2634   22.4302 N   0  0  0  0  0  0  0  0  0  0  0  0
    6.3974  -17.8800   21.1567 C   0  0  0  0  0  0  0  0  0  0  0  0
    7.1636  -17.1561   20.1475 C   0  0  0  0  0  0  0  0  0  0  0  0
    7.2391  -17.6781   18.9803 O   0  0  0  0  0  0  0  0  0  0  0  0
    6.8643  -13.4770   19.2594 C   0  0  0  0  0  0  0  0  0  0  0  0
    8.3148  -13.8070   19.3596 C   0  0  1  0  0  0  0  0  0  0  0  0
    8.7758  -13.3634   20.6144 O   0  0  0  0  0  0  0  0  0  0  0  0
    8.6060  -15.2887   19.2243 C   0  0  2  0  0  0  0  0  0  0  0  0
    7.8445  -15.9364   20.2936 N   0  0  0  0  0  0  0  0  0  0  0  0
   10.0434  -15.5443   19.3499 C   0  0  0  0  0  0  0  0  0  0  0  0
   10.4928  -16.2402   20.2904 O   0  0  0  0  0  0  0  0  0  0  0  0
   10.9367  -15.0235   18.4335 O   0  0  0  0  0  0  0  0  0  0  0  0
  2  1  1  0
  3  2  2  0
  4  3  1  0
  5 11  1  0
  5  4  2  0
  6  5  1  0
  7  6  1  0
  7  8  1  1
  9 10  2  0
  9  7  1  0
 11 12  2  0
 12  2  1  0
 13  9  1  0
 14 13  1  0
 14 15  1  0
 15 16  2  0
 18 17  1  1
 18 20  1  0
 18 19  1  0
 21 15  1  0
 20 21  1  1
 22 20  1  0
 22 24  1  0
 23 22  2  0
M  END
$$$$
