YGT.pdb
     RDKit          3D

 24 24  0  0  1  0  0  0  0  0999 V2000
   11.6733  -16.2880   31.0986 O   0  0  0  0  0  0  0  0  0  0  0  0
   11.0899  -15.7249   29.9586 C   0  0  0  0  0  0  0  0  0  0  0  0
   11.6812  -15.8112   28.7215 C   0  0  0  0  0  0  0  0  0  0  0  0
   11.0781  -15.2421   27.6073 C   0  0  0  0  0  0  0  0  0  0  0  0
    9.8665  -14.5700   27.6960 C   0  0  0  0  0  0  0  0  0  0  0  0
    9.2924  -14.0002   26.4986 C   0  0  0  0  0  0  0  0  0  0  0  0
    8.2501  -14.7785   25.7711 C   0  0  2  0  0  0  0  0  0  0  0  0
    8.9551  -15.9953   25.3068 N   0  0  0  0  0  0  0  0  0  0  0  0
    7.7592  -14.1114   24.5416 C   0  0  0  0  0  0  0  0  0  0  0  0
    7.1901  -12.9735   24.5733 O   0  0  0  0  0  0  0  0  0  0  0  0
    9.2944  -14.4992   28.9561 C   0  0  0  0  0  0  0  0  0  0  0  0
    9.8872  -15.0622   30.0690 C   0  0  0  0  0  0  0  0  0  0  0  0
    7.8939  -14.6992   23.2456 N   0  0  0  0  0  0  0  0  0  0  0  0
    8.6348  -14.1502   22.1647 C   0  0  0  0  0  0  0  0  0  0  0  0
    8.5585  -14.8538   20.8885 C   0  0  0  0  0  0  0  0  0  0  0  0
    8.8028  -16.1112   20.8949 O   0  0  0  0  0  0  0  0  0  0  0  0
    6.3847  -13.4678   17.8242 C   0  0  0  0  0  0  0  0  0  0  0  0
    7.6026  -14.1842   17.3483 C   0  0  1  0  0  0  0  0  0  0  0  0
    8.5595  -13.2180   16.9812 O   0  0  0  0  0  0  0  0  0  0  0  0
    8.2069  -15.1033   18.3917 C   0  0  2  0  0  0  0  0  0  0  0  0
    8.2472  -14.3196   19.6274 N   0  0  0  0  0  0  0  0  0  0  0  0
    9.5445  -15.5388   17.9811 C   0  0  0  0  0  0  0  0  0  0  0  0
    9.6968  -16.3251   17.0171 O   0  0  0  0  0  0  0  0  0  0  0  0
   10.6690  -15.0921   18.6481 O   0  0  0  0  0  0  0  0  0  0  0  0
  2  1  1  0
  3  2  2  0
  4  3  1  0
  5 11  1  0
  5  4  2  0
  6  5  1  0
  7  6  1  0
  7  8  1  6
  9 10  2  0
  9  7  1  0
 11 12  2  0
 12  2  1  0
 13  9  1  0
 14 13  1  0
 14 15  1  0
 15 16  2  0
 18 17  1  1
 18 20  1  0
 18 19  1  0
 21 15  1  0
 20 21  1  1
 22 20  1  0
 22 24  1  0
 23 22  2  0
M  END
$$$$
