WWT.pdb
     RDKit          3D

 36 39  0  0  1  0  0  0  0  0999 V2000
    8.9871  -17.1216   21.8742 N   0  0  0  0  0  0  0  0  0  0  0  0
    9.2510  -15.7981   22.3108 C   0  0  1  0  0  0  0  0  0  0  0  0
    8.0361  -14.9432   22.2579 C   0  0  0  0  0  0  0  0  0  0  0  0
    7.6254  -14.7328   20.8455 C   0  0  0  0  0  0  0  0  0  0  0  0
    6.6905  -15.5142   20.1440 C   0  0  0  0  0  0  0  0  0  0  0  0
    6.5293  -15.0320   18.9086 N   0  0  0  0  0  0  0  0  0  0  0  0
    7.3183  -13.9588   18.7511 C   0  0  0  0  0  0  0  0  0  0  0  0
    7.5496  -13.0976   17.6962 C   0  0  0  0  0  0  0  0  0  0  0  0
    8.4347  -12.0511   17.7797 C   0  0  0  0  0  0  0  0  0  0  0  0
    9.0901  -11.8959   18.9751 C   0  0  0  0  0  0  0  0  0  0  0  0
    8.8958  -12.7314   20.0667 C   0  0  0  0  0  0  0  0  0  0  0  0
    8.0041  -13.7607   19.9413 C   0  0  0  0  0  0  0  0  0  0  0  0
    9.9220  -15.7346   23.6586 C   0  0  0  0  0  0  0  0  0  0  0  0
   10.7787  -14.8620   23.8109 O   0  0  0  0  0  0  0  0  0  0  0  0
    9.5975  -16.6222   24.7057 N   0  0  0  0  0  0  0  0  0  0  0  0
   10.0832  -16.6285   26.0481 C   0  0  1  0  0  0  0  0  0  0  0  0
    9.4514  -15.6446   26.9689 C   0  0  0  0  0  0  0  0  0  0  0  0
    8.1097  -15.2087   26.5492 C   0  0  0  0  0  0  0  0  0  0  0  0
    7.0198  -16.0027   26.1915 C   0  0  0  0  0  0  0  0  0  0  0  0
    5.9765  -15.2141   25.8980 N   0  0  0  0  0  0  0  0  0  0  0  0
    6.3559  -13.9320   26.0536 C   0  0  0  0  0  0  0  0  0  0  0  0
    5.6870  -12.7380   25.8813 C   0  0  0  0  0  0  0  0  0  0  0  0
    6.2958  -11.5186   26.0984 C   0  0  0  0  0  0  0  0  0  0  0  0
    7.6146  -11.4774   26.5004 C   0  0  0  0  0  0  0  0  0  0  0  0
    8.2658  -12.6815   26.6672 C   0  0  0  0  0  0  0  0  0  0  0  0
    7.6755  -13.9096   26.4566 C   0  0  0  0  0  0  0  0  0  0  0  0
   10.2758  -17.9886   26.6501 C   0  0  0  0  0  0  0  0  0  0  0  0
   10.0024  -18.1336   27.8655 O   0  0  0  0  0  0  0  0  0  0  0  0
   10.0854  -21.7070   24.5986 C   0  0  0  0  0  0  0  0  0  0  0  0
   11.2685  -21.4160   25.4428 C   0  0  1  0  0  0  0  0  0  0  0  0
   12.3251  -21.0061   24.5967 O   0  0  0  0  0  0  0  0  0  0  0  0
   11.0737  -20.3393   26.4809 C   0  0  2  0  0  0  0  0  0  0  0  0
   10.7523  -19.0702   25.8576 N   0  0  0  0  0  0  0  0  0  0  0  0
   12.1875  -20.1512   27.3958 C   0  0  0  0  0  0  0  0  0  0  0  0
   12.6806  -21.0749   28.3008 O   0  0  0  0  0  0  0  0  0  0  0  0
   12.7983  -19.0337   27.3943 O   0  0  0  0  0  0  0  0  0  0  0  0
  2  3  1  0
  2  1  1  1
  4 12  1  0
  4  3  1  0
  5  4  2  0
  6  5  1  0
  6  7  1  0
  7  8  1  0
  7 12  2  0
  8  9  2  0
  9 10  1  0
 11 10  2  0
 12 11  1  0
 13  2  1  0
 14 13  2  0
 15 13  1  0
 16 15  1  0
 16 17  1  1
 18 17  1  0
 19 18  2  0
 20 19  1  0
 21 20  1  0
 21 26  2  0
 22 21  1  0
 23 22  2  0
 23 24  1  0
 24 25  2  0
 25 26  1  0
 26 18  1  0
 27 16  1  0
 27 28  2  0
 30 32  1  0
 30 29  1  6
 31 30  1  0
 32 33  1  6
 33 27  1  0
 34 32  1  0
 35 34  1  0
 36 34  2  0
M  END
$$$$
