WWT.pdb
     RDKit          3D

 36 39  0  0  1  0  0  0  0  0999 V2000
   10.7415  -16.4525   20.6191 N   0  0  0  0  0  0  0  0  0  0  0  0
    9.7930  -16.1246   21.6214 C   0  0  1  0  0  0  0  0  0  0  0  0
    8.4579  -16.7127   21.3364 C   0  0  0  0  0  0  0  0  0  0  0  0
    7.7376  -15.8764   20.3416 C   0  0  0  0  0  0  0  0  0  0  0  0
    6.6292  -16.2884   19.5811 C   0  0  0  0  0  0  0  0  0  0  0  0
    6.2052  -15.2821   18.8116 N   0  0  0  0  0  0  0  0  0  0  0  0
    6.9838  -14.2108   19.0235 C   0  0  0  0  0  0  0  0  0  0  0  0
    7.0008  -12.9318   18.5021 C   0  0  0  0  0  0  0  0  0  0  0  0
    7.9282  -11.9931   18.8823 C   0  0  0  0  0  0  0  0  0  0  0  0
    8.8521  -12.3872   19.8170 C   0  0  0  0  0  0  0  0  0  0  0  0
    8.8808  -13.6587   20.3736 C   0  0  0  0  0  0  0  0  0  0  0  0
    7.9381  -14.5626   19.9679 C   0  0  0  0  0  0  0  0  0  0  0  0
   10.2606  -16.4477   23.0171 C   0  0  0  0  0  0  0  0  0  0  0  0
   11.2270  -17.2059   23.1165 O   0  0  0  0  0  0  0  0  0  0  0  0
    9.6349  -15.9170   24.1644 N   0  0  0  0  0  0  0  0  0  0  0  0
    9.9920  -16.0964   25.5349 C   0  0  1  0  0  0  0  0  0  0  0  0
    9.5341  -15.0306   26.4673 C   0  0  0  0  0  0  0  0  0  0  0  0
    8.1363  -14.6173   26.2629 C   0  0  0  0  0  0  0  0  0  0  0  0
    7.0624  -15.3976   25.8338 C   0  0  0  0  0  0  0  0  0  0  0  0
    5.9539  -14.6446   25.8036 N   0  0  0  0  0  0  0  0  0  0  0  0
    6.2755  -13.3988   26.1995 C   0  0  0  0  0  0  0  0  0  0  0  0
    5.5285  -12.2482   26.3435 C   0  0  0  0  0  0  0  0  0  0  0  0
    6.0874  -11.0595   26.7668 C   0  0  0  0  0  0  0  0  0  0  0  0
    7.4345  -11.0055   27.0584 C   0  0  0  0  0  0  0  0  0  0  0  0
    8.1639  -12.1662   26.9083 C   0  0  0  0  0  0  0  0  0  0  0  0
    7.6244  -13.3634   26.4878 C   0  0  0  0  0  0  0  0  0  0  0  0
    9.8096  -17.4877   26.0645 C   0  0  0  0  0  0  0  0  0  0  0  0
    8.7178  -18.0612   25.8362 O   0  0  0  0  0  0  0  0  0  0  0  0
   11.4969  -20.4853   25.0895 C   0  0  0  0  0  0  0  0  0  0  0  0
   11.6356  -20.4198   26.5638 C   0  0  1  0  0  0  0  0  0  0  0  0
   12.9480  -19.9871   26.8654 O   0  0  0  0  0  0  0  0  0  0  0  0
   10.6778  -19.4878   27.2631 C   0  0  2  0  0  0  0  0  0  0  0  0
   10.8486  -18.1249   26.7989 N   0  0  0  0  0  0  0  0  0  0  0  0
   10.7425  -19.5073   28.7151 C   0  0  0  0  0  0  0  0  0  0  0  0
   10.4268  -20.5699   29.5437 O   0  0  0  0  0  0  0  0  0  0  0  0
   11.1246  -18.4563   29.3245 O   0  0  0  0  0  0  0  0  0  0  0  0
  2  3  1  0
  2  1  1  6
  4 12  1  0
  4  3  1  0
  5  4  2  0
  6  5  1  0
  6  7  1  0
  7  8  1  0
  7 12  2  0
  8  9  2  0
  9 10  1  0
 11 10  2  0
 12 11  1  0
 13  2  1  0
 14 13  2  0
 15 13  1  0
 16 15  1  0
 16 17  1  1
 18 17  1  0
 19 18  2  0
 20 19  1  0
 21 20  1  0
 21 26  2  0
 22 21  1  0
 23 22  2  0
 23 24  1  0
 24 25  2  0
 25 26  1  0
 26 18  1  0
 27 16  1  0
 27 28  2  0
 30 32  1  0
 30 29  1  6
 31 30  1  0
 32 33  1  6
 33 27  1  0
 34 32  1  0
 35 34  1  0
 36 34  2  0
M  END
$$$$
