WWT.pdb
     RDKit          3D

 36 39  0  0  1  0  0  0  0  0999 V2000
    8.9357  -16.7801   22.0000 N   0  0  0  0  0  0  0  0  0  0  0  0
    9.3344  -15.5881   22.6573 C   0  0  1  0  0  0  0  0  0  0  0  0
    8.3091  -14.5185   22.5381 C   0  0  0  0  0  0  0  0  0  0  0  0
    7.7122  -14.5379   21.1775 C   0  0  0  0  0  0  0  0  0  0  0  0
    6.6091  -15.3151   20.7829 C   0  0  0  0  0  0  0  0  0  0  0  0
    6.3114  -15.0675   19.5044 N   0  0  0  0  0  0  0  0  0  0  0  0
    7.1698  -14.1561   19.0235 C   0  0  0  0  0  0  0  0  0  0  0  0
    7.3229  -13.5549   17.7894 C   0  0  0  0  0  0  0  0  0  0  0  0
    8.3098  -12.6345   17.5353 C   0  0  0  0  0  0  0  0  0  0  0  0
    9.1508  -12.3336   18.5769 C   0  0  0  0  0  0  0  0  0  0  0  0
    9.0421  -12.9073   19.8364 C   0  0  0  0  0  0  0  0  0  0  0  0
    8.0441  -13.8183   20.0470 C   0  0  0  0  0  0  0  0  0  0  0  0
    9.7536  -15.8048   24.0885 C   0  0  0  0  0  0  0  0  0  0  0  0
   10.5833  -15.0182   24.5484 O   0  0  0  0  0  0  0  0  0  0  0  0
    9.2320  -16.8512   24.8774 N   0  0  0  0  0  0  0  0  0  0  0  0
    9.4699  -17.1272   26.2577 C   0  0  1  0  0  0  0  0  0  0  0  0
    8.3128  -16.9123   27.1688 C   0  0  0  0  0  0  0  0  0  0  0  0
    7.4008  -15.8418   26.7349 C   0  0  0  0  0  0  0  0  0  0  0  0
    6.0967  -15.9645   26.2546 C   0  0  0  0  0  0  0  0  0  0  0  0
    5.6058  -14.7449   25.9934 N   0  0  0  0  0  0  0  0  0  0  0  0
    6.5517  -13.8338   26.2890 C   0  0  0  0  0  0  0  0  0  0  0  0
    6.5742  -12.4572   26.2040 C   0  0  0  0  0  0  0  0  0  0  0  0
    7.6827  -11.7185   26.5647 C   0  0  0  0  0  0  0  0  0  0  0  0
    8.8110  -12.3637   27.0262 C   0  0  0  0  0  0  0  0  0  0  0  0
    8.7687  -13.7399   27.1039 C   0  0  0  0  0  0  0  0  0  0  0  0
    7.6714  -14.4959   26.7496 C   0  0  0  0  0  0  0  0  0  0  0  0
   10.2356  -18.3870   26.5333 C   0  0  0  0  0  0  0  0  0  0  0  0
    9.7274  -19.2188   27.3224 O   0  0  0  0  0  0  0  0  0  0  0  0
   12.5014  -20.3554   23.7405 C   0  0  0  0  0  0  0  0  0  0  0  0
   13.1550  -20.1872   25.0602 C   0  0  1  0  0  0  0  0  0  0  0  0
   14.1115  -19.1511   24.9508 O   0  0  0  0  0  0  0  0  0  0  0  0
   12.2315  -19.8347   26.1995 C   0  0  2  0  0  0  0  0  0  0  0  0
   11.4951  -18.6191   25.9129 N   0  0  0  0  0  0  0  0  0  0  0  0
   12.8702  -19.7088   27.4991 C   0  0  0  0  0  0  0  0  0  0  0  0
   13.5460  -20.7000   28.1891 O   0  0  0  0  0  0  0  0  0  0  0  0
   12.8245  -18.5851   28.0967 O   0  0  0  0  0  0  0  0  0  0  0  0
  2  3  1  0
  2  1  1  1
  4 12  1  0
  4  3  1  0
  5  4  2  0
  6  5  1  0
  6  7  1  0
  7  8  1  0
  7 12  2  0
  8  9  2  0
  9 10  1  0
 11 10  2  0
 12 11  1  0
 13  2  1  0
 14 13  2  0
 15 13  1  0
 16 15  1  0
 16 17  1  1
 18 17  1  0
 19 18  2  0
 20 19  1  0
 21 20  1  0
 21 26  2  0
 22 21  1  0
 23 22  2  0
 23 24  1  0
 24 25  2  0
 25 26  1  0
 26 18  1  0
 27 16  1  0
 27 28  2  0
 30 32  1  0
 30 29  1  6
 31 30  1  0
 32 33  1  6
 33 27  1  0
 34 32  1  0
 35 34  1  0
 36 34  2  0
M  END
$$$$
