WWT.pdb
     RDKit          3D

 36 39  0  0  1  0  0  0  0  0999 V2000
    8.1086  -16.1454   21.4183 N   0  0  0  0  0  0  0  0  0  0  0  0
    8.9999  -15.1514   21.8972 C   0  0  1  0  0  0  0  0  0  0  0  0
    8.4825  -13.7788   21.6564 C   0  0  0  0  0  0  0  0  0  0  0  0
    8.1480  -13.6082   20.2187 C   0  0  0  0  0  0  0  0  0  0  0  0
    7.5355  -12.4759   19.6537 C   0  0  0  0  0  0  0  0  0  0  0  0
    7.4108  -12.6365   18.3334 N   0  0  0  0  0  0  0  0  0  0  0  0
    7.9139  -13.8309   17.9881 C   0  0  0  0  0  0  0  0  0  0  0  0
    8.0347  -14.4979   16.7846 C   0  0  0  0  0  0  0  0  0  0  0  0
    8.5928  -15.7489   16.6880 C   0  0  0  0  0  0  0  0  0  0  0  0
    9.0318  -16.3165   17.8575 C   0  0  0  0  0  0  0  0  0  0  0  0
    8.9353  -15.6914   19.0933 C   0  0  0  0  0  0  0  0  0  0  0  0
    8.3740  -14.4454   19.1444 C   0  0  0  0  0  0  0  0  0  0  0  0
    9.4051  -15.3526   23.3347 C   0  0  0  0  0  0  0  0  0  0  0  0
   10.1271  -14.4874   23.8336 O   0  0  0  0  0  0  0  0  0  0  0  0
    8.9876  -16.4703   24.0871 N   0  0  0  0  0  0  0  0  0  0  0  0
    9.3703  -16.8439   25.4106 C   0  0  1  0  0  0  0  0  0  0  0  0
    8.3585  -16.5901   26.4722 C   0  0  0  0  0  0  0  0  0  0  0  0
    7.3972  -15.5263   26.1399 C   0  0  0  0  0  0  0  0  0  0  0  0
    6.1581  -15.6520   25.5112 C   0  0  0  0  0  0  0  0  0  0  0  0
    5.5855  -14.4436   25.4184 N   0  0  0  0  0  0  0  0  0  0  0  0
    6.4153  -13.5369   25.9673 C   0  0  0  0  0  0  0  0  0  0  0  0
    6.3219  -12.1701   26.1285 C   0  0  0  0  0  0  0  0  0  0  0  0
    7.3226  -11.4325   26.7279 C   0  0  0  0  0  0  0  0  0  0  0  0
    8.4579  -12.0689   27.1847 C   0  0  0  0  0  0  0  0  0  0  0  0
    8.5323  -13.4353   27.0144 C   0  0  0  0  0  0  0  0  0  0  0  0
    7.5436  -14.1901   26.4194 C   0  0  0  0  0  0  0  0  0  0  0  0
   10.0519  -18.1749   25.5255 C   0  0  0  0  0  0  0  0  0  0  0  0
    9.3290  -19.1965   25.6065 O   0  0  0  0  0  0  0  0  0  0  0  0
   13.2710  -19.3049   23.4136 C   0  0  0  0  0  0  0  0  0  0  0  0
   13.4051  -19.5841   24.8632 C   0  0  1  0  0  0  0  0  0  0  0  0
   14.2678  -18.6127   25.4223 O   0  0  0  0  0  0  0  0  0  0  0  0
   12.1182  -19.5555   25.6494 C   0  0  2  0  0  0  0  0  0  0  0  0
   11.4722  -18.2621   25.5399 N   0  0  0  0  0  0  0  0  0  0  0  0
   12.2420  -19.9078   27.0542 C   0  0  0  0  0  0  0  0  0  0  0  0
   12.6296  -21.1323   27.5697 O   0  0  0  0  0  0  0  0  0  0  0  0
   11.9744  -19.0248   27.9322 O   0  0  0  0  0  0  0  0  0  0  0  0
  2  3  1  0
  2  1  1  1
  4 12  1  0
  4  3  1  0
  5  4  2  0
  6  5  1  0
  6  7  1  0
  7  8  1  0
  7 12  2  0
  8  9  2  0
  9 10  1  0
 11 10  2  0
 12 11  1  0
 13  2  1  0
 14 13  2  0
 15 13  1  0
 16 15  1  0
 16 17  1  1
 18 17  1  0
 19 18  2  0
 20 19  1  0
 21 20  1  0
 21 26  2  0
 22 21  1  0
 23 22  2  0
 23 24  1  0
 24 25  2  0
 25 26  1  0
 26 18  1  0
 27 16  1  0
 27 28  2  0
 30 32  1  0
 30 29  1  6
 31 30  1  0
 32 33  1  1
 33 27  1  0
 34 32  1  0
 35 34  1  0
 36 34  2  0
M  END
$$$$
