WWT.pdb
     RDKit          3D

 36 39  0  0  1  0  0  0  0  0999 V2000
    6.8666  -16.7537   20.6059 N   0  0  0  0  0  0  0  0  0  0  0  0
    8.1798  -17.1541   20.9624 C   0  0  1  0  0  0  0  0  0  0  0  0
    9.0818  -17.2139   19.7824 C   0  0  0  0  0  0  0  0  0  0  0  0
    8.6396  -18.2920   18.8604 C   0  0  0  0  0  0  0  0  0  0  0  0
    7.8406  -18.1102   17.7181 C   0  0  0  0  0  0  0  0  0  0  0  0
    7.6595  -19.2794   17.0979 N   0  0  0  0  0  0  0  0  0  0  0  0
    8.3037  -20.2397   17.7772 C   0  0  0  0  0  0  0  0  0  0  0  0
    8.4436  -21.6015   17.5931 C   0  0  0  0  0  0  0  0  0  0  0  0
    9.1652  -22.3913   18.4540 C   0  0  0  0  0  0  0  0  0  0  0  0
    9.7502  -21.7591   19.5220 C   0  0  0  0  0  0  0  0  0  0  0  0
    9.6421  -20.3947   19.7547 C   0  0  0  0  0  0  0  0  0  0  0  0
    8.9153  -19.6447   18.8718 C   0  0  0  0  0  0  0  0  0  0  0  0
    8.7731  -16.3352   22.0796 C   0  0  0  0  0  0  0  0  0  0  0  0
    9.0486  -15.1622   21.8214 O   0  0  0  0  0  0  0  0  0  0  0  0
    9.0080  -16.8690   23.3640 N   0  0  0  0  0  0  0  0  0  0  0  0
    9.7558  -16.3011   24.4392 C   0  0  1  0  0  0  0  0  0  0  0  0
    9.0173  -16.1285   25.7199 C   0  0  0  0  0  0  0  0  0  0  0  0
    7.7621  -15.3711   25.5891 C   0  0  0  0  0  0  0  0  0  0  0  0
    6.4952  -15.8552   25.2622 C   0  0  0  0  0  0  0  0  0  0  0  0
    5.6189  -14.8410   25.2724 N   0  0  0  0  0  0  0  0  0  0  0  0
    6.2784  -13.7129   25.5955 C   0  0  0  0  0  0  0  0  0  0  0  0
    5.8655  -12.4046   25.7400 C   0  0  0  0  0  0  0  0  0  0  0  0
    6.7409  -11.3926   26.0776 C   0  0  0  0  0  0  0  0  0  0  0  0
    8.0739  -11.6838   26.2795 C   0  0  0  0  0  0  0  0  0  0  0  0
    8.4669  -12.9972   26.1305 C   0  0  0  0  0  0  0  0  0  0  0  0
    7.6082  -14.0225   25.7949 C   0  0  0  0  0  0  0  0  0  0  0  0
   11.1445  -16.8423   24.6058 C   0  0  0  0  0  0  0  0  0  0  0  0
   11.2844  -17.8992   25.2664 O   0  0  0  0  0  0  0  0  0  0  0  0
   15.8502  -16.7046   22.9584 C   0  0  0  0  0  0  0  0  0  0  0  0
   14.4584  -16.1951   22.9802 C   0  0  1  0  0  0  0  0  0  0  0  0
   13.8683  -16.4676   21.7240 O   0  0  0  0  0  0  0  0  0  0  0  0
   13.5670  -16.7926   24.0401 C   0  0  2  0  0  0  0  0  0  0  0  0
   12.2577  -16.1701   24.0278 N   0  0  0  0  0  0  0  0  0  0  0  0
   14.0995  -16.7538   25.3921 C   0  0  0  0  0  0  0  0  0  0  0  0
   15.0136  -17.6320   25.9475 O   0  0  0  0  0  0  0  0  0  0  0  0
   13.7080  -15.8307   26.1774 O   0  0  0  0  0  0  0  0  0  0  0  0
  2  3  1  0
  2  1  1  6
  4 12  1  0
  4  3  1  0
  5  4  2  0
  6  5  1  0
  6  7  1  0
  7  8  1  0
  7 12  2  0
  8  9  2  0
  9 10  1  0
 11 10  2  0
 12 11  1  0
 13  2  1  0
 14 13  2  0
 15 13  1  0
 16 15  1  0
 16 17  1  1
 18 17  1  0
 19 18  2  0
 20 19  1  0
 21 20  1  0
 21 26  2  0
 22 21  1  0
 23 22  2  0
 23 24  1  0
 24 25  2  0
 25 26  1  0
 26 18  1  0
 27 16  1  0
 27 28  2  0
 30 32  1  0
 30 29  1  6
 31 30  1  0
 32 33  1  1
 33 27  1  0
 34 32  1  0
 35 34  1  0
 36 34  2  0
M  END
$$$$
