WWT.pdb
     RDKit          3D

 36 39  0  0  1  0  0  0  0  0999 V2000
   10.9888  -16.1605   21.3439 N   0  0  0  0  0  0  0  0  0  0  0  0
    9.9396  -16.0639   22.2934 C   0  0  1  0  0  0  0  0  0  0  0  0
    8.7210  -16.7908   21.8504 C   0  0  0  0  0  0  0  0  0  0  0  0
    7.9700  -15.9688   20.8664 C   0  0  0  0  0  0  0  0  0  0  0  0
    7.2826  -16.4662   19.7454 C   0  0  0  0  0  0  0  0  0  0  0  0
    6.6886  -15.4631   19.0932 N   0  0  0  0  0  0  0  0  0  0  0  0
    6.9493  -14.3117   19.7297 C   0  0  0  0  0  0  0  0  0  0  0  0
    6.5999  -12.9964   19.4935 C   0  0  0  0  0  0  0  0  0  0  0  0
    7.0087  -11.9678   20.3062 C   0  0  0  0  0  0  0  0  0  0  0  0
    7.7920  -12.3087   21.3799 C   0  0  0  0  0  0  0  0  0  0  0  0
    8.1725  -13.6132   21.6641 C   0  0  0  0  0  0  0  0  0  0  0  0
    7.7423  -14.6076   20.8296 C   0  0  0  0  0  0  0  0  0  0  0  0
   10.3538  -16.4625   23.6864 C   0  0  0  0  0  0  0  0  0  0  0  0
   11.5384  -16.7615   23.8484 O   0  0  0  0  0  0  0  0  0  0  0  0
    9.4439  -16.4971   24.7635 N   0  0  0  0  0  0  0  0  0  0  0  0
    9.6971  -16.8196   26.1309 C   0  0  1  0  0  0  0  0  0  0  0  0
    8.6996  -16.3098   27.1109 C   0  0  0  0  0  0  0  0  0  0  0  0
    7.7137  -15.3823   26.5330 C   0  0  0  0  0  0  0  0  0  0  0  0
    6.5131  -15.6916   25.8935 C   0  0  0  0  0  0  0  0  0  0  0  0
    5.8976  -14.5557   25.5365 N   0  0  0  0  0  0  0  0  0  0  0  0
    6.6624  -13.5180   25.9242 C   0  0  0  0  0  0  0  0  0  0  0  0
    6.5063  -12.1528   25.8029 C   0  0  0  0  0  0  0  0  0  0  0  0
    7.4459  -11.2622   26.2810 C   0  0  0  0  0  0  0  0  0  0  0  0
    8.5821  -11.7380   26.9016 C   0  0  0  0  0  0  0  0  0  0  0  0
    8.7196  -13.1056   27.0131 C   0  0  0  0  0  0  0  0  0  0  0  0
    7.7925  -14.0116   26.5433 C   0  0  0  0  0  0  0  0  0  0  0  0
   10.1301  -18.2332   26.3830 C   0  0  0  0  0  0  0  0  0  0  0  0
    9.2627  -19.1346   26.2939 O   0  0  0  0  0  0  0  0  0  0  0  0
   13.0801  -20.0540   24.7531 C   0  0  0  0  0  0  0  0  0  0  0  0
   13.1432  -20.2450   26.2216 C   0  0  1  0  0  0  0  0  0  0  0  0
   14.1817  -19.4300   26.7291 O   0  0  0  0  0  0  0  0  0  0  0  0
   11.8833  -19.8968   26.9742 C   0  0  2  0  0  0  0  0  0  0  0  0
   11.4831  -18.5285   26.7104 N   0  0  0  0  0  0  0  0  0  0  0  0
   11.9415  -20.1067   28.4114 C   0  0  0  0  0  0  0  0  0  0  0  0
   12.1169  -21.3137   29.0654 O   0  0  0  0  0  0  0  0  0  0  0  0
   11.8224  -19.0996   29.1819 O   0  0  0  0  0  0  0  0  0  0  0  0
  2  3  1  0
  2  1  1  6
  4 12  1  0
  4  3  1  0
  5  4  2  0
  6  5  1  0
  6  7  1  0
  7  8  1  0
  7 12  2  0
  8  9  2  0
  9 10  1  0
 11 10  2  0
 12 11  1  0
 13  2  1  0
 14 13  2  0
 15 13  1  0
 16 15  1  0
 16 17  1  1
 18 17  1  0
 19 18  2  0
 20 19  1  0
 21 20  1  0
 21 26  2  0
 22 21  1  0
 23 22  2  0
 23 24  1  0
 24 25  2  0
 25 26  1  0
 26 18  1  0
 27 16  1  0
 27 28  2  0
 30 32  1  0
 30 29  1  6
 31 30  1  0
 32 33  1  1
 33 27  1  0
 34 32  1  0
 35 34  1  0
 36 34  2  0
M  END
$$$$
