WWT.pdb
     RDKit          3D

 36 39  0  0  1  0  0  0  0  0999 V2000
    8.5154  -17.0067   21.9783 N   0  0  0  0  0  0  0  0  0  0  0  0
    8.8604  -15.7323   22.4966 C   0  0  1  0  0  0  0  0  0  0  0  0
    7.7502  -14.7546   22.3515 C   0  0  0  0  0  0  0  0  0  0  0  0
    7.4174  -14.5752   20.9145 C   0  0  0  0  0  0  0  0  0  0  0  0
    6.4663  -15.3236   20.1991 C   0  0  0  0  0  0  0  0  0  0  0  0
    6.3918  -14.8818   18.9406 N   0  0  0  0  0  0  0  0  0  0  0  0
    7.2545  -13.8673   18.7809 C   0  0  0  0  0  0  0  0  0  0  0  0
    7.5877  -13.0649   17.7071 C   0  0  0  0  0  0  0  0  0  0  0  0
    8.5339  -12.0734   17.7936 C   0  0  0  0  0  0  0  0  0  0  0  0
    9.1439  -11.9123   19.0120 C   0  0  0  0  0  0  0  0  0  0  0  0
    8.8476  -12.6899   20.1232 C   0  0  0  0  0  0  0  0  0  0  0  0
    7.8979  -13.6654   19.9940 C   0  0  0  0  0  0  0  0  0  0  0  0
    9.3820  -15.7815   23.9096 C   0  0  0  0  0  0  0  0  0  0  0  0
   10.0312  -14.8076   24.2952 O   0  0  0  0  0  0  0  0  0  0  0  0
    9.1478  -16.8801   24.7626 N   0  0  0  0  0  0  0  0  0  0  0  0
    9.6330  -17.0957   26.0878 C   0  0  1  0  0  0  0  0  0  0  0  0
    8.6704  -16.8023   27.1844 C   0  0  0  0  0  0  0  0  0  0  0  0
    7.6221  -15.8365   26.8175 C   0  0  0  0  0  0  0  0  0  0  0  0
    6.3587  -16.0981   26.2868 C   0  0  0  0  0  0  0  0  0  0  0  0
    5.7024  -14.9417   26.1185 N   0  0  0  0  0  0  0  0  0  0  0  0
    6.5014  -13.9368   26.5233 C   0  0  0  0  0  0  0  0  0  0  0  0
    6.3271  -12.5689   26.5606 C   0  0  0  0  0  0  0  0  0  0  0  0
    7.3105  -11.7168   27.0202 C   0  0  0  0  0  0  0  0  0  0  0  0
    8.5110  -12.2353   27.4589 C   0  0  0  0  0  0  0  0  0  0  0  0
    8.6659  -13.6048   27.4138 C   0  0  0  0  0  0  0  0  0  0  0  0
    7.6958  -14.4729   26.9594 C   0  0  0  0  0  0  0  0  0  0  0  0
   10.4108  -18.3629   26.2837 C   0  0  0  0  0  0  0  0  0  0  0  0
    9.8561  -19.2982   26.9085 O   0  0  0  0  0  0  0  0  0  0  0  0
   12.8312  -20.0148   23.4998 C   0  0  0  0  0  0  0  0  0  0  0  0
   13.4416  -19.9606   24.8494 C   0  0  1  0  0  0  0  0  0  0  0  0
   14.3954  -18.9162   24.8614 O   0  0  0  0  0  0  0  0  0  0  0  0
   12.4805  -19.7113   25.9848 C   0  0  2  0  0  0  0  0  0  0  0  0
   11.7328  -18.4874   25.7720 N   0  0  0  0  0  0  0  0  0  0  0  0
   13.0798  -19.6784   27.3087 C   0  0  0  0  0  0  0  0  0  0  0  0
   13.7588  -20.7085   27.9359 O   0  0  0  0  0  0  0  0  0  0  0  0
   12.9916  -18.6084   27.9936 O   0  0  0  0  0  0  0  0  0  0  0  0
  2  3  1  0
  2  1  1  1
  4 12  1  0
  4  3  1  0
  5  4  2  0
  6  5  1  0
  6  7  1  0
  7  8  1  0
  7 12  2  0
  8  9  2  0
  9 10  1  0
 11 10  2  0
 12 11  1  0
 13  2  1  0
 14 13  2  0
 15 13  1  0
 16 15  1  0
 16 17  1  1
 18 17  1  0
 19 18  2  0
 20 19  1  0
 21 20  1  0
 21 26  2  0
 22 21  1  0
 23 22  2  0
 23 24  1  0
 24 25  2  0
 25 26  1  0
 26 18  1  0
 27 16  1  0
 27 28  2  0
 30 32  1  0
 30 29  1  6
 31 30  1  0
 32 33  1  6
 33 27  1  0
 34 32  1  0
 35 34  1  0
 36 34  2  0
M  END
$$$$
