WWT.pdb
     RDKit          3D

 36 39  0  0  1  0  0  0  0  0999 V2000
   11.4538  -18.0591   19.8874 N   0  0  0  0  0  0  0  0  0  0  0  0
   10.4823  -17.2159   20.4849 C   0  0  1  0  0  0  0  0  0  0  0  0
    9.0999  -17.5968   20.0931 C   0  0  0  0  0  0  0  0  0  0  0  0
    8.5005  -16.5309   19.2490 C   0  0  0  0  0  0  0  0  0  0  0  0
    8.1789  -16.6555   17.8860 C   0  0  0  0  0  0  0  0  0  0  0  0
    7.6252  -15.5234   17.4431 N   0  0  0  0  0  0  0  0  0  0  0  0
    7.5621  -14.6427   18.4527 C   0  0  0  0  0  0  0  0  0  0  0  0
    7.0998  -13.3449   18.5526 C   0  0  0  0  0  0  0  0  0  0  0  0
    7.1536  -12.6315   19.7247 C   0  0  0  0  0  0  0  0  0  0  0  0
    7.6956  -13.2738   20.8093 C   0  0  0  0  0  0  0  0  0  0  0  0
    8.1747  -14.5760   20.7649 C   0  0  0  0  0  0  0  0  0  0  0  0
    8.1007  -15.2511   19.5779 C   0  0  0  0  0  0  0  0  0  0  0  0
   10.6284  -17.0996   21.9802 C   0  0  0  0  0  0  0  0  0  0  0  0
   11.0769  -18.0833   22.5717 O   0  0  0  0  0  0  0  0  0  0  0  0
   10.2745  -15.9297   22.6843 N   0  0  0  0  0  0  0  0  0  0  0  0
   10.3274  -15.6884   24.0903 C   0  0  1  0  0  0  0  0  0  0  0  0
    9.8393  -14.3549   24.5363 C   0  0  0  0  0  0  0  0  0  0  0  0
    9.5933  -14.2619   25.9844 C   0  0  0  0  0  0  0  0  0  0  0  0
   10.3260  -14.8413   27.0206 C   0  0  0  0  0  0  0  0  0  0  0  0
    9.7831  -14.4908   28.1949 N   0  0  0  0  0  0  0  0  0  0  0  0
    8.7197  -13.7017   27.9528 C   0  0  0  0  0  0  0  0  0  0  0  0
    7.8155  -13.0794   28.7883 C   0  0  0  0  0  0  0  0  0  0  0  0
    6.7792  -12.3081   28.3026 C   0  0  0  0  0  0  0  0  0  0  0  0
    6.6306  -12.1459   26.9410 C   0  0  0  0  0  0  0  0  0  0  0  0
    7.5445  -12.7758   26.1226 C   0  0  0  0  0  0  0  0  0  0  0  0
    8.5867  -13.5494   26.5878 C   0  0  0  0  0  0  0  0  0  0  0  0
    9.8620  -16.8255   24.9504 C   0  0  0  0  0  0  0  0  0  0  0  0
    8.6748  -17.2085   24.8204 O   0  0  0  0  0  0  0  0  0  0  0  0
   10.1641  -19.9991   24.3982 C   0  0  0  0  0  0  0  0  0  0  0  0
   10.7904  -19.8742   25.7358 C   0  0  1  0  0  0  0  0  0  0  0  0
   12.1918  -19.7945   25.5619 O   0  0  0  0  0  0  0  0  0  0  0  0
   10.3633  -18.6722   26.5407 C   0  0  2  0  0  0  0  0  0  0  0  0
   10.7480  -17.4412   25.8782 N   0  0  0  0  0  0  0  0  0  0  0  0
   10.8416  -18.6433   27.9131 C   0  0  0  0  0  0  0  0  0  0  0  0
   11.7232  -17.7294   28.4635 O   0  0  0  0  0  0  0  0  0  0  0  0
   10.4295  -19.5352   28.7234 O   0  0  0  0  0  0  0  0  0  0  0  0
  2  3  1  0
  2  1  1  1
  4 12  1  0
  4  3  1  0
  5  4  2  0
  6  5  1  0
  6  7  1  0
  7  8  1  0
  7 12  2  0
  8  9  2  0
  9 10  1  0
 11 10  2  0
 12 11  1  0
 13  2  1  0
 14 13  2  0
 15 13  1  0
 16 15  1  0
 16 17  1  6
 18 17  1  0
 19 18  2  0
 20 19  1  0
 21 20  1  0
 21 26  2  0
 22 21  1  0
 23 22  2  0
 23 24  1  0
 24 25  2  0
 25 26  1  0
 26 18  1  0
 27 16  1  0
 27 28  2  0
 30 32  1  0
 30 29  1  6
 31 30  1  0
 32 33  1  6
 33 27  1  0
 34 32  1  0
 35 34  1  0
 36 34  2  0
M  END
$$$$
