WWT.pdb
     RDKit          3D

 36 39  0  0  1  0  0  0  0  0999 V2000
    9.4795  -18.2458   20.5096 N   0  0  0  0  0  0  0  0  0  0  0  0
    9.0752  -17.1894   21.3653 C   0  0  1  0  0  0  0  0  0  0  0  0
    7.5953  -17.0903   21.4643 C   0  0  0  0  0  0  0  0  0  0  0  0
    7.1170  -15.8927   20.7262 C   0  0  0  0  0  0  0  0  0  0  0  0
    6.0429  -15.8700   19.8194 C   0  0  0  0  0  0  0  0  0  0  0  0
    5.8586  -14.6283   19.3624 N   0  0  0  0  0  0  0  0  0  0  0  0
    6.7654  -13.8157   19.9247 C   0  0  0  0  0  0  0  0  0  0  0  0
    7.0306  -12.4651   19.8090 C   0  0  0  0  0  0  0  0  0  0  0  0
    8.0462  -11.8515   20.5003 C   0  0  0  0  0  0  0  0  0  0  0  0
    8.7982  -12.6511   21.3235 C   0  0  0  0  0  0  0  0  0  0  0  0
    8.5755  -14.0127   21.4774 C   0  0  0  0  0  0  0  0  0  0  0  0
    7.5527  -14.5835   20.7714 C   0  0  0  0  0  0  0  0  0  0  0  0
    9.7252  -17.2370   22.7240 C   0  0  0  0  0  0  0  0  0  0  0  0
   10.4297  -18.2184   22.9675 O   0  0  0  0  0  0  0  0  0  0  0  0
    9.5471  -16.2171   23.6820 N   0  0  0  0  0  0  0  0  0  0  0  0
   10.0868  -16.1325   25.0008 C   0  0  1  0  0  0  0  0  0  0  0  0
    9.7298  -14.9082   25.7682 C   0  0  0  0  0  0  0  0  0  0  0  0
    8.2897  -14.6046   25.7735 C   0  0  0  0  0  0  0  0  0  0  0  0
    7.2241  -15.4844   25.5820 C   0  0  0  0  0  0  0  0  0  0  0  0
    6.0704  -14.8104   25.6880 N   0  0  0  0  0  0  0  0  0  0  0  0
    6.3544  -13.5192   25.9418 C   0  0  0  0  0  0  0  0  0  0  0  0
    5.5538  -12.4123   26.1327 C   0  0  0  0  0  0  0  0  0  0  0  0
    6.0801  -11.1603   26.3776 C   0  0  0  0  0  0  0  0  0  0  0  0
    7.4484  -10.9957   26.4359 C   0  0  0  0  0  0  0  0  0  0  0  0
    8.2315  -12.1142   26.2427 C   0  0  0  0  0  0  0  0  0  0  0  0
    7.7254  -13.3732   25.9978 C   0  0  0  0  0  0  0  0  0  0  0  0
   10.0109  -17.3973   25.8032 C   0  0  0  0  0  0  0  0  0  0  0  0
    8.8898  -17.7401   26.2488 O   0  0  0  0  0  0  0  0  0  0  0  0
   11.7517  -20.8155   24.7901 C   0  0  0  0  0  0  0  0  0  0  0  0
   12.0036  -20.4617   26.2072 C   0  0  1  0  0  0  0  0  0  0  0  0
   13.3265  -19.9724   26.3121 O   0  0  0  0  0  0  0  0  0  0  0  0
   11.0847  -19.4152   26.7862 C   0  0  2  0  0  0  0  0  0  0  0  0
   11.1790  -18.1739   26.0429 N   0  0  0  0  0  0  0  0  0  0  0  0
   11.2736  -19.1381   28.2006 C   0  0  0  0  0  0  0  0  0  0  0  0
   11.7299  -17.9570   28.7592 O   0  0  0  0  0  0  0  0  0  0  0  0
   11.0021  -20.0525   29.0445 O   0  0  0  0  0  0  0  0  0  0  0  0
  2  3  1  0
  2  1  1  6
  4 12  1  0
  4  3  1  0
  5  4  2  0
  6  5  1  0
  6  7  1  0
  7  8  1  0
  7 12  2  0
  8  9  2  0
  9 10  1  0
 11 10  2  0
 12 11  1  0
 13  2  1  0
 14 13  2  0
 15 13  1  0
 16 15  1  0
 16 17  1  1
 18 17  1  0
 19 18  2  0
 20 19  1  0
 21 20  1  0
 21 26  2  0
 22 21  1  0
 23 22  2  0
 23 24  1  0
 24 25  2  0
 25 26  1  0
 26 18  1  0
 27 16  1  0
 27 28  2  0
 30 32  1  0
 30 29  1  6
 31 30  1  0
 32 33  1  6
 33 27  1  0
 34 32  1  0
 35 34  1  0
 36 34  2  0
M  END
$$$$
