WWT.pdb
     RDKit          3D

 36 39  0  0  1  0  0  0  0  0999 V2000
   10.2830  -18.7968   20.1674 N   0  0  0  0  0  0  0  0  0  0  0  0
    9.5795  -17.6241   20.5437 C   0  0  1  0  0  0  0  0  0  0  0  0
    8.2777  -17.5062   19.8357 C   0  0  0  0  0  0  0  0  0  0  0  0
    8.2116  -16.2120   19.1087 C   0  0  0  0  0  0  0  0  0  0  0  0
    8.2891  -16.0565   17.7136 C   0  0  0  0  0  0  0  0  0  0  0  0
    8.1615  -14.7664   17.3911 N   0  0  0  0  0  0  0  0  0  0  0  0
    8.0019  -14.0485   18.5127 C   0  0  0  0  0  0  0  0  0  0  0  0
    7.8355  -12.6999   18.7607 C   0  0  0  0  0  0  0  0  0  0  0  0
    7.6988  -12.1954   20.0305 C   0  0  0  0  0  0  0  0  0  0  0  0
    7.7356  -13.1034   21.0585 C   0  0  0  0  0  0  0  0  0  0  0  0
    7.9001  -14.4684   20.8663 C   0  0  0  0  0  0  0  0  0  0  0  0
    8.0313  -14.9289   19.5852 C   0  0  0  0  0  0  0  0  0  0  0  0
    9.4216  -17.4728   22.0347 C   0  0  0  0  0  0  0  0  0  0  0  0
    9.9144  -18.3574   22.7370 O   0  0  0  0  0  0  0  0  0  0  0  0
    8.7462  -16.3789   22.6149 N   0  0  0  0  0  0  0  0  0  0  0  0
    8.7097  -15.9826   23.9858 C   0  0  1  0  0  0  0  0  0  0  0  0
    7.9614  -14.7294   24.2770 C   0  0  0  0  0  0  0  0  0  0  0  0
    7.9642  -14.3477   25.6984 C   0  0  0  0  0  0  0  0  0  0  0  0
    8.6162  -14.9795   26.7577 C   0  0  0  0  0  0  0  0  0  0  0  0
    8.3825  -14.2994   27.8888 N   0  0  0  0  0  0  0  0  0  0  0  0
    7.5980  -13.2452   27.5963 C   0  0  0  0  0  0  0  0  0  0  0  0
    7.0627  -12.2412   28.3761 C   0  0  0  0  0  0  0  0  0  0  0  0
    6.2637  -11.2485   27.8463 C   0  0  0  0  0  0  0  0  0  0  0  0
    5.9829  -11.2479   26.4958 C   0  0  0  0  0  0  0  0  0  0  0  0
    6.5273  -12.2598   25.7333 C   0  0  0  0  0  0  0  0  0  0  0  0
    7.3284  -13.2596   26.2431 C   0  0  0  0  0  0  0  0  0  0  0  0
    8.4459  -17.0896   24.9628 C   0  0  0  0  0  0  0  0  0  0  0  0
    7.2529  -17.4207   25.1624 O   0  0  0  0  0  0  0  0  0  0  0  0
    9.1951  -20.5668   24.6511 C   0  0  0  0  0  0  0  0  0  0  0  0
    9.8065  -20.1377   25.9314 C   0  0  1  0  0  0  0  0  0  0  0  0
   11.1924  -19.9514   25.7187 O   0  0  0  0  0  0  0  0  0  0  0  0
    9.2599  -18.8577   26.5127 C   0  0  2  0  0  0  0  0  0  0  0  0
    9.5223  -17.7352   25.6332 N   0  0  0  0  0  0  0  0  0  0  0  0
    9.7289  -18.5340   27.8499 C   0  0  0  0  0  0  0  0  0  0  0  0
    9.4368  -19.2169   29.0176 O   0  0  0  0  0  0  0  0  0  0  0  0
   10.4894  -17.5240   28.0036 O   0  0  0  0  0  0  0  0  0  0  0  0
  2  3  1  0
  2  1  1  1
  4 12  1  0
  4  3  1  0
  5  4  2  0
  6  5  1  0
  6  7  1  0
  7  8  1  0
  7 12  2  0
  8  9  2  0
  9 10  1  0
 11 10  2  0
 12 11  1  0
 13  2  1  0
 14 13  2  0
 15 13  1  0
 16 15  1  0
 16 17  1  6
 18 17  1  0
 19 18  2  0
 20 19  1  0
 21 20  1  0
 21 26  2  0
 22 21  1  0
 23 22  2  0
 23 24  1  0
 24 25  2  0
 25 26  1  0
 26 18  1  0
 27 16  1  0
 27 28  2  0
 30 32  1  0
 30 29  1  6
 31 30  1  0
 32 33  1  6
 33 27  1  0
 34 32  1  0
 35 34  1  0
 36 34  2  0
M  END
$$$$
