WWT.pdb
     RDKit          3D

 36 39  0  0  1  0  0  0  0  0999 V2000
    8.4689  -17.3308   21.8915 N   0  0  0  0  0  0  0  0  0  0  0  0
    8.6993  -16.0081   22.3491 C   0  0  1  0  0  0  0  0  0  0  0  0
    7.5052  -15.1417   22.1676 C   0  0  0  0  0  0  0  0  0  0  0  0
    7.3222  -14.8261   20.7272 C   0  0  0  0  0  0  0  0  0  0  0  0
    6.5735  -15.5899   19.8147 C   0  0  0  0  0  0  0  0  0  0  0  0
    6.5876  -15.0067   18.6129 N   0  0  0  0  0  0  0  0  0  0  0  0
    7.3157  -13.8823   18.6805 C   0  0  0  0  0  0  0  0  0  0  0  0
    7.6595  -12.9172   17.7540 C   0  0  0  0  0  0  0  0  0  0  0  0
    8.4440  -11.8361   18.0726 C   0  0  0  0  0  0  0  0  0  0  0  0
    8.8786  -11.7551   19.3715 C   0  0  0  0  0  0  0  0  0  0  0  0
    8.5632  -12.6959   20.3424 C   0  0  0  0  0  0  0  0  0  0  0  0
    7.7782  -13.7565   19.9830 C   0  0  0  0  0  0  0  0  0  0  0  0
    9.2272  -15.9456   23.7592 C   0  0  0  0  0  0  0  0  0  0  0  0
    9.8429  -14.9262   24.0761 O   0  0  0  0  0  0  0  0  0  0  0  0
    9.0351  -16.9931   24.6841 N   0  0  0  0  0  0  0  0  0  0  0  0
    9.5937  -17.1396   25.9896 C   0  0  1  0  0  0  0  0  0  0  0  0
    8.6911  -16.7939   27.1215 C   0  0  0  0  0  0  0  0  0  0  0  0
    7.6229  -15.8457   26.7664 C   0  0  0  0  0  0  0  0  0  0  0  0
    6.3375  -16.1308   26.3054 C   0  0  0  0  0  0  0  0  0  0  0  0
    5.6692  -14.9834   26.1230 N   0  0  0  0  0  0  0  0  0  0  0  0
    6.4818  -13.9615   26.4511 C   0  0  0  0  0  0  0  0  0  0  0  0
    6.3036  -12.5937   26.4434 C   0  0  0  0  0  0  0  0  0  0  0  0
    7.3037  -11.7220   26.8235 C   0  0  0  0  0  0  0  0  0  0  0  0
    8.5253  -12.2201   27.2259 C   0  0  0  0  0  0  0  0  0  0  0  0
    8.6837  -13.5900   27.2267 C   0  0  0  0  0  0  0  0  0  0  0  0
    7.6974  -14.4774   26.8517 C   0  0  0  0  0  0  0  0  0  0  0  0
   10.3885  -18.3928   26.2061 C   0  0  0  0  0  0  0  0  0  0  0  0
    9.8005  -19.3773   26.7140 O   0  0  0  0  0  0  0  0  0  0  0  0
   13.0828  -19.7073   23.5282 C   0  0  0  0  0  0  0  0  0  0  0  0
   13.5644  -19.8131   24.9260 C   0  0  1  0  0  0  0  0  0  0  0  0
   14.5085  -18.7835   25.1472 O   0  0  0  0  0  0  0  0  0  0  0  0
   12.5006  -19.6901   25.9881 C   0  0  2  0  0  0  0  0  0  0  0  0
   11.7630  -18.4504   25.8421 N   0  0  0  0  0  0  0  0  0  0  0  0
   12.9755  -19.8025   27.3573 C   0  0  0  0  0  0  0  0  0  0  0  0
   12.9367  -18.8192   28.3304 O   0  0  0  0  0  0  0  0  0  0  0  0
   13.4872  -20.9047   27.7387 O   0  0  0  0  0  0  0  0  0  0  0  0
  2  3  1  0
  2  1  1  1
  4 12  1  0
  4  3  1  0
  5  4  2  0
  6  5  1  0
  6  7  1  0
  7  8  1  0
  7 12  2  0
  8  9  2  0
  9 10  1  0
 11 10  2  0
 12 11  1  0
 13  2  1  0
 14 13  2  0
 15 13  1  0
 16 15  1  0
 16 17  1  1
 18 17  1  0
 19 18  2  0
 20 19  1  0
 21 20  1  0
 21 26  2  0
 22 21  1  0
 23 22  2  0
 23 24  1  0
 24 25  2  0
 25 26  1  0
 26 18  1  0
 27 16  1  0
 27 28  2  0
 30 32  1  0
 30 29  1  6
 31 30  1  0
 32 33  1  1
 33 27  1  0
 34 32  1  0
 35 34  1  0
 36 34  2  0
M  END
$$$$
