WWT.pdb
     RDKit          3D

 36 39  0  0  1  0  0  0  0  0999 V2000
    7.9233  -19.7457   27.4618 N   0  0  0  0  0  0  0  0  0  0  0  0
    8.1915  -18.4799   26.8808 C   0  0  1  0  0  0  0  0  0  0  0  0
    9.6246  -18.1048   27.0036 C   0  0  0  0  0  0  0  0  0  0  0  0
    9.8103  -17.1823   28.1536 C   0  0  0  0  0  0  0  0  0  0  0  0
   10.3376  -17.5390   29.4071 C   0  0  0  0  0  0  0  0  0  0  0  0
   10.3987  -16.4643   30.1982 N   0  0  0  0  0  0  0  0  0  0  0  0
    9.9335  -15.4000   29.5277 C   0  0  0  0  0  0  0  0  0  0  0  0
    9.7668  -14.0691   29.8576 C   0  0  0  0  0  0  0  0  0  0  0  0
    9.2478  -13.1512   28.9779 C   0  0  0  0  0  0  0  0  0  0  0  0
    8.8961  -13.6211   27.7376 C   0  0  0  0  0  0  0  0  0  0  0  0
    9.0422  -14.9472   27.3537 C   0  0  0  0  0  0  0  0  0  0  0  0
    9.5644  -15.8280   28.2601 C   0  0  0  0  0  0  0  0  0  0  0  0
    7.7001  -18.3560   25.4616 C   0  0  0  0  0  0  0  0  0  0  0  0
    7.6504  -19.3943   24.7995 O   0  0  0  0  0  0  0  0  0  0  0  0
    7.3119  -17.1206   24.9024 N   0  0  0  0  0  0  0  0  0  0  0  0
    7.2828  -16.7373   23.5276 C   0  0  1  0  0  0  0  0  0  0  0  0
    6.8007  -15.3565   23.2515 C   0  0  0  0  0  0  0  0  0  0  0  0
    6.6954  -15.0352   21.8190 C   0  0  0  0  0  0  0  0  0  0  0  0
    5.9863  -15.7218   20.8331 C   0  0  0  0  0  0  0  0  0  0  0  0
    6.1306  -15.0861   19.6619 N   0  0  0  0  0  0  0  0  0  0  0  0
    6.9124  -14.0078   19.8572 C   0  0  0  0  0  0  0  0  0  0  0  0
    7.3749  -13.0288   19.0025 C   0  0  0  0  0  0  0  0  0  0  0  0
    8.1883  -12.0016   19.4360 C   0  0  0  0  0  0  0  0  0  0  0  0
    8.5588  -11.9395   20.7632 C   0  0  0  0  0  0  0  0  0  0  0  0
    8.0862  -12.9272   21.6015 C   0  0  0  0  0  0  0  0  0  0  0  0
    7.2723  -13.9607   21.1885 C   0  0  0  0  0  0  0  0  0  0  0  0
    8.4904  -17.1310   22.7301 C   0  0  0  0  0  0  0  0  0  0  0  0
    8.3198  -17.8950   21.7503 O   0  0  0  0  0  0  0  0  0  0  0  0
    9.8268  -16.3546   20.1775 C   0  0  0  0  0  0  0  0  0  0  0  0
   11.0431  -16.3188   21.0239 C   0  0  1  0  0  0  0  0  0  0  0  0
   11.3301  -14.9678   21.3284 O   0  0  0  0  0  0  0  0  0  0  0  0
   10.9452  -17.0680   22.3294 C   0  0  2  0  0  0  0  0  0  0  0  0
    9.7808  -16.6462   23.0833 N   0  0  0  0  0  0  0  0  0  0  0  0
   12.1197  -16.9842   23.1819 C   0  0  0  0  0  0  0  0  0  0  0  0
   12.1752  -16.4735   24.4669 O   0  0  0  0  0  0  0  0  0  0  0  0
   13.2318  -17.4151   22.7350 O   0  0  0  0  0  0  0  0  0  0  0  0
  2  3  1  0
  2  1  1  6
  4 12  1  0
  4  3  1  0
  5  4  2  0
  6  5  1  0
  6  7  1  0
  7  8  1  0
  7 12  2  0
  8  9  2  0
  9 10  1  0
 11 10  2  0
 12 11  1  0
 13  2  1  0
 14 13  2  0
 15 13  1  0
 16 15  1  0
 16 17  1  1
 18 17  1  0
 19 18  2  0
 20 19  1  0
 21 20  1  0
 21 26  2  0
 22 21  1  0
 23 22  2  0
 23 24  1  0
 24 25  2  0
 25 26  1  0
 26 18  1  0
 27 16  1  0
 27 28  2  0
 30 32  1  0
 30 29  1  1
 31 30  1  0
 32 33  1  1
 33 27  1  0
 34 32  1  0
 35 34  1  0
 36 34  2  0
M  END
$$$$
