FEN.pdb
     RDKit          3D

 29 29  0  0  1  0  0  0  0  0999 V2000
   19.1328  -14.2092    7.2038 N   0  0  0  0  0  0  0  0  0  0  0  0
   18.4034  -15.3012    6.6432 C   0  0  1  0  0  0  0  0  0  0  0  0
   18.6332  -15.4233    5.1623 C   0  0  0  0  0  0  0  0  0  0  0  0
   18.2219  -14.1551    4.5021 C   0  0  0  0  0  0  0  0  0  0  0  0
   16.9001  -13.8663    4.2391 C   0  0  0  0  0  0  0  0  0  0  0  0
   16.5330  -12.6732    3.6201 C   0  0  0  0  0  0  0  0  0  0  0  0
   17.4729  -11.7352    3.2464 C   0  0  0  0  0  0  0  0  0  0  0  0
   18.7977  -12.0255    3.5104 C   0  0  0  0  0  0  0  0  0  0  0  0
   19.1633  -13.2099    4.1249 C   0  0  0  0  0  0  0  0  0  0  0  0
   18.6544  -16.5897    7.3411 C   0  0  0  0  0  0  0  0  0  0  0  0
   19.8331  -17.0396    7.3149 O   0  0  0  0  0  0  0  0  0  0  0  0
   17.6312  -17.3015    8.0142 N   0  0  0  0  0  0  0  0  0  0  0  0
   17.8840  -18.5352    8.6876 C   0  0  1  0  0  0  0  0  0  0  0  0
   17.3377  -18.6472   10.0661 C   0  0  0  0  0  0  0  0  0  0  0  0
   17.6078  -19.9090   10.7981 C   0  0  0  0  0  0  0  0  0  0  0  0
   18.3494  -19.8025   12.0470 C   0  0  0  0  0  0  0  0  0  0  0  0
   17.7595  -19.5099   13.1111 O   0  0  0  0  0  0  0  0  0  0  0  0
   17.5672  -19.7435    7.8537 C   0  0  0  0  0  0  0  0  0  0  0  0
   16.5225  -19.7038    7.1554 O   0  0  0  0  0  0  0  0  0  0  0  0
   19.7149  -20.0195   12.0933 O   0  0  0  0  0  0  0  0  0  0  0  0
   19.2672  -24.9361    5.5889 N   0  0  0  0  0  0  0  0  0  0  0  0
   18.8712  -23.6105    5.2932 C   0  0  0  0  0  0  0  0  0  0  0  0
   18.1846  -23.4368    4.2564 O   0  0  0  0  0  0  0  0  0  0  0  0
   19.2163  -22.4445    6.1226 C   0  0  0  0  0  0  0  0  0  0  0  0
   18.0546  -22.0550    6.9698 C   0  0  2  0  0  0  0  0  0  0  0  0
   18.3616  -20.8988    7.8136 N   0  0  0  0  0  0  0  0  0  0  0  0
   17.6091  -23.1553    7.8174 C   0  0  0  0  0  0  0  0  0  0  0  0
   17.1822  -24.2458    7.3027 O   0  0  0  0  0  0  0  0  0  0  0  0
   17.6193  -23.0968    9.1988 O   0  0  0  0  0  0  0  0  0  0  0  0
  2  1  1  1
  2  3  1  0
  2 10  1  0
  3  4  1  0
  4  5  2  0
  5  6  1  0
  7  6  2  0
  8  7  1  0
  9  4  1  0
  9  8  2  0
 10 11  2  0
 10 12  1  0
 12 13  1  0
 13 18  1  0
 13 14  1  1
 14 15  1  0
 15 16  1  0
 16 20  1  0
 17 16  2  0
 18 26  1  0
 19 18  2  0
 21 22  1  0
 22 24  1  0
 23 22  2  0
 25 24  1  1
 25 27  1  0
 26 25  1  0
 27 28  2  0
 27 29  1  0
M  END
$$$$
