FEN.pdb
     RDKit          3D

 29 29  0  0  1  0  0  0  0  0999 V2000
   24.8647  -11.5404  -18.0536 N   0  0  0  0  0  0  0  0  0  0  0  0
   24.3862  -11.2624  -16.7373 C   0  0  1  0  0  0  0  0  0  0  0  0
   25.4895  -10.7912  -15.8310 C   0  0  0  0  0  0  0  0  0  0  0  0
   26.5458  -11.8370  -15.7695 C   0  0  0  0  0  0  0  0  0  0  0  0
   26.3506  -13.0315  -15.1101 C   0  0  0  0  0  0  0  0  0  0  0  0
   27.3513  -14.0000  -15.0630 C   0  0  0  0  0  0  0  0  0  0  0  0
   28.5736  -13.8048  -15.6717 C   0  0  0  0  0  0  0  0  0  0  0  0
   28.7685  -12.6071  -16.3326 C   0  0  0  0  0  0  0  0  0  0  0  0
   27.7757  -11.6448  -16.3798 C   0  0  0  0  0  0  0  0  0  0  0  0
   23.2318  -10.3256  -16.7223 C   0  0  0  0  0  0  0  0  0  0  0  0
   23.1248   -9.5267  -17.6932 O   0  0  0  0  0  0  0  0  0  0  0  0
   22.2789  -10.3104  -15.6743 N   0  0  0  0  0  0  0  0  0  0  0  0
   21.1160   -9.4826  -15.7200 C   0  0  1  0  0  0  0  0  0  0  0  0
   19.8313  -10.1468  -15.3744 C   0  0  0  0  0  0  0  0  0  0  0  0
   18.6037   -9.3162  -15.4399 C   0  0  0  0  0  0  0  0  0  0  0  0
   17.3371   -9.9882  -15.1847 C   0  0  0  0  0  0  0  0  0  0  0  0
   17.1875  -11.1935  -15.4861 O   0  0  0  0  0  0  0  0  0  0  0  0
   21.2885   -8.1753  -15.0011 C   0  0  0  0  0  0  0  0  0  0  0  0
   22.2721   -8.0697  -14.2253 O   0  0  0  0  0  0  0  0  0  0  0  0
   16.2721   -9.3201  -14.6073 O   0  0  0  0  0  0  0  0  0  0  0  0
   22.9797   -2.9938  -15.7401 N   0  0  0  0  0  0  0  0  0  0  0  0
   22.4401   -3.9503  -14.8484 C   0  0  0  0  0  0  0  0  0  0  0  0
   22.2093   -3.5708  -13.6739 O   0  0  0  0  0  0  0  0  0  0  0  0
   22.1403   -5.3430  -15.2187 C   0  0  0  0  0  0  0  0  0  0  0  0
   20.7782   -5.7183  -14.7466 C   0  0  2  0  0  0  0  0  0  0  0  0
   20.4223   -7.0814  -15.1446 N   0  0  0  0  0  0  0  0  0  0  0  0
   19.7605   -4.7987  -15.2426 C   0  0  0  0  0  0  0  0  0  0  0  0
   19.2808   -4.9281  -16.4213 O   0  0  0  0  0  0  0  0  0  0  0  0
   19.2570   -3.7527  -14.4915 O   0  0  0  0  0  0  0  0  0  0  0  0
  2  1  1  6
  2  3  1  0
  2 10  1  0
  3  4  1  0
  4  5  2  0
  5  6  1  0
  7  6  2  0
  8  7  1  0
  9  4  1  0
  9  8  2  0
 10 11  2  0
 10 12  1  0
 12 13  1  0
 13 18  1  0
 13 14  1  1
 14 15  1  0
 15 16  1  0
 16 20  1  0
 17 16  2  0
 18 26  1  0
 19 18  2  0
 21 22  1  0
 22 24  1  0
 23 22  2  0
 25 24  1  6
 25 27  1  0
 26 25  1  0
 27 28  2  0
 27 29  1  0
M  END
$$$$
