FEN.pdb
     RDKit          3D

 29 29  0  0  1  0  0  0  0  0999 V2000
   20.4654  -31.7716   -1.6671 N   0  0  0  0  0  0  0  0  0  0  0  0
   21.7719  -31.2174   -1.8246 C   0  0  1  0  0  0  0  0  0  0  0  0
   22.0828  -30.2093   -0.7533 C   0  0  0  0  0  0  0  0  0  0  0  0
   21.1746  -29.0414   -0.9089 C   0  0  0  0  0  0  0  0  0  0  0  0
   21.3634  -28.0983   -1.8962 C   0  0  0  0  0  0  0  0  0  0  0  0
   20.5025  -27.0107   -2.0274 C   0  0  0  0  0  0  0  0  0  0  0  0
   19.4299  -26.8330   -1.1786 C   0  0  0  0  0  0  0  0  0  0  0  0
   19.2412  -27.7788   -0.1891 C   0  0  0  0  0  0  0  0  0  0  0  0
   20.0955  -28.8590   -0.0579 C   0  0  0  0  0  0  0  0  0  0  0  0
   22.8356  -32.2513   -1.9246 C   0  0  0  0  0  0  0  0  0  0  0  0
   22.7380  -33.2544   -1.1652 O   0  0  0  0  0  0  0  0  0  0  0  0
   23.9228  -32.1387   -2.8257 N   0  0  0  0  0  0  0  0  0  0  0  0
   25.0034  -33.0724   -2.8292 C   0  0  1  0  0  0  0  0  0  0  0  0
   25.8479  -33.0847   -4.0530 C   0  0  0  0  0  0  0  0  0  0  0  0
   26.8981  -34.1292   -4.1372 C   0  0  0  0  0  0  0  0  0  0  0  0
   27.7579  -34.1083   -5.3125 C   0  0  0  0  0  0  0  0  0  0  0  0
   27.2613  -34.0549   -6.4599 O   0  0  0  0  0  0  0  0  0  0  0  0
   25.8270  -33.0331   -1.5738 C   0  0  0  0  0  0  0  0  0  0  0  0
   26.2552  -31.9115   -1.2005 O   0  0  0  0  0  0  0  0  0  0  0  0
   29.1360  -34.1464   -5.1962 O   0  0  0  0  0  0  0  0  0  0  0  0
   28.0917  -33.2235    2.8056 N   0  0  0  0  0  0  0  0  0  0  0  0
   26.7102  -33.5282    2.8070 C   0  0  0  0  0  0  0  0  0  0  0  0
   26.0914  -33.3724    3.8883 O   0  0  0  0  0  0  0  0  0  0  0  0
   25.9731  -34.0102    1.6276 C   0  0  0  0  0  0  0  0  0  0  0  0
   26.8847  -34.0987    0.4528 C   0  0  2  0  0  0  0  0  0  0  0  0
   26.1419  -34.1645   -0.8069 N   0  0  0  0  0  0  0  0  0  0  0  0
   27.7714  -35.2535    0.5411 C   0  0  0  0  0  0  0  0  0  0  0  0
   28.6407  -35.3407    1.4754 O   0  0  0  0  0  0  0  0  0  0  0  0
   27.7325  -36.3060   -0.3548 O   0  0  0  0  0  0  0  0  0  0  0  0
  2  1  1  1
  2  3  1  0
  2 10  1  0
  3  4  1  0
  4  5  2  0
  5  6  1  0
  7  6  2  0
  8  7  1  0
  9  4  1  0
  9  8  2  0
 10 11  2  0
 10 12  1  0
 12 13  1  0
 13 18  1  0
 13 14  1  6
 14 15  1  0
 15 16  1  0
 16 20  1  0
 17 16  2  0
 18 26  1  0
 19 18  2  0
 21 22  1  0
 22 24  1  0
 23 22  2  0
 25 24  1  1
 25 27  1  0
 26 25  1  0
 27 28  2  0
 27 29  1  0
M  END
$$$$
