FEN.pdb
     RDKit          3D

 29 29  0  0  1  0  0  0  0  0999 V2000
   18.0337  -10.8858  -14.5444 N   0  0  0  0  0  0  0  0  0  0  0  0
   17.5895   -9.5316  -14.6310 C   0  0  1  0  0  0  0  0  0  0  0  0
   16.1498   -9.4432  -15.0553 C   0  0  0  0  0  0  0  0  0  0  0  0
   16.0293   -9.9146  -16.4611 C   0  0  0  0  0  0  0  0  0  0  0  0
   16.4180   -9.1325  -17.5275 C   0  0  0  0  0  0  0  0  0  0  0  0
   16.2982   -9.5905  -18.8379 C   0  0  0  0  0  0  0  0  0  0  0  0
   15.7879  -10.8402  -19.1217 C   0  0  0  0  0  0  0  0  0  0  0  0
   15.3984  -11.6236  -18.0523 C   0  0  0  0  0  0  0  0  0  0  0  0
   15.5169  -11.1698  -16.7507 C   0  0  0  0  0  0  0  0  0  0  0  0
   17.8394   -8.7554  -13.3878 C   0  0  0  0  0  0  0  0  0  0  0  0
   17.6087   -9.3341  -12.2904 O   0  0  0  0  0  0  0  0  0  0  0  0
   18.3160   -7.4215  -13.4074 N   0  0  0  0  0  0  0  0  0  0  0  0
   18.6284   -6.7112  -12.2085 C   0  0  1  0  0  0  0  0  0  0  0  0
   19.6934   -5.6798  -12.3227 C   0  0  0  0  0  0  0  0  0  0  0  0
   21.0193   -6.1308  -12.8121 C   0  0  0  0  0  0  0  0  0  0  0  0
   22.0679   -5.1241  -12.9015 C   0  0  0  0  0  0  0  0  0  0  0  0
   23.1859   -5.4149  -13.3825 O   0  0  0  0  0  0  0  0  0  0  0  0
   17.4147   -6.1942  -11.4905 C   0  0  0  0  0  0  0  0  0  0  0  0
   16.4941   -5.7055  -12.1935 O   0  0  0  0  0  0  0  0  0  0  0  0
   21.8608   -3.8289  -12.4615 O   0  0  0  0  0  0  0  0  0  0  0  0
   13.5263   -6.6422   -7.3575 N   0  0  0  0  0  0  0  0  0  0  0  0
   14.7444   -5.9230   -7.3480 C   0  0  0  0  0  0  0  0  0  0  0  0
   14.7608   -4.8342   -6.7227 O   0  0  0  0  0  0  0  0  0  0  0  0
   15.9724   -6.3761   -8.0214 C   0  0  0  0  0  0  0  0  0  0  0  0
   16.0025   -5.8777   -9.4248 C   0  0  2  0  0  0  0  0  0  0  0  0
   17.2557   -6.2246  -10.0973 N   0  0  0  0  0  0  0  0  0  0  0  0
   15.8133   -4.4329   -9.4908 C   0  0  0  0  0  0  0  0  0  0  0  0
   14.6385   -3.9271   -9.5040 O   0  0  0  0  0  0  0  0  0  0  0  0
   16.8636   -3.5351   -9.5406 O   0  0  0  0  0  0  0  0  0  0  0  0
  2  1  1  1
  2  3  1  0
  2 10  1  0
  3  4  1  0
  4  5  2  0
  5  6  1  0
  7  6  2  0
  8  7  1  0
  9  4  1  0
  9  8  2  0
 10 11  2  0
 10 12  1  0
 12 13  1  0
 13 18  1  0
 13 14  1  6
 14 15  1  0
 15 16  1  0
 16 20  1  0
 17 16  2  0
 18 26  1  0
 19 18  2  0
 21 22  1  0
 22 24  1  0
 23 22  2  0
 25 24  1  1
 25 27  1  0
 26 25  1  0
 27 28  2  0
 27 29  1  0
M  END
$$$$
