FEN.pdb
     RDKit          3D

 29 29  0  0  1  0  0  0  0  0999 V2000
   30.8414  -10.0766  -17.4377 N   0  0  0  0  0  0  0  0  0  0  0  0
   30.0403  -10.5023  -18.5403 C   0  0  1  0  0  0  0  0  0  0  0  0
   28.9771  -11.4762  -18.1138 C   0  0  0  0  0  0  0  0  0  0  0  0
   28.0727  -10.8095  -17.1387 C   0  0  0  0  0  0  0  0  0  0  0  0
   27.9484  -11.2528  -15.8395 C   0  0  0  0  0  0  0  0  0  0  0  0
   27.0965  -10.6158  -14.9396 C   0  0  0  0  0  0  0  0  0  0  0  0
   26.3451   -9.5197  -15.3095 C   0  0  0  0  0  0  0  0  0  0  0  0
   26.4702   -9.0759  -16.6121 C   0  0  0  0  0  0  0  0  0  0  0  0
   27.3158   -9.7078  -17.5064 C   0  0  0  0  0  0  0  0  0  0  0  0
   29.4637   -9.3709  -19.3134 C   0  0  0  0  0  0  0  0  0  0  0  0
   29.4656   -8.2356  -18.7623 O   0  0  0  0  0  0  0  0  0  0  0  0
   28.9287   -9.5340  -20.6149 N   0  0  0  0  0  0  0  0  0  0  0  0
   28.4900   -8.4232  -21.3981 C   0  0  1  0  0  0  0  0  0  0  0  0
   28.7401   -8.5200  -22.8607 C   0  0  0  0  0  0  0  0  0  0  0  0
   28.3832   -7.3395  -23.6854 C   0  0  0  0  0  0  0  0  0  0  0  0
   27.8816   -7.5988  -25.0279 C   0  0  0  0  0  0  0  0  0  0  0  0
   27.7415   -8.7735  -25.4358 O   0  0  0  0  0  0  0  0  0  0  0  0
   27.0823   -7.9989  -21.0916 C   0  0  0  0  0  0  0  0  0  0  0  0
   26.2433   -8.9072  -20.8641 O   0  0  0  0  0  0  0  0  0  0  0  0
   27.5485   -6.5639  -25.8835 O   0  0  0  0  0  0  0  0  0  0  0  0
   22.7154   -5.3271  -20.1926 N   0  0  0  0  0  0  0  0  0  0  0  0
   23.8346   -4.5535  -19.8049 C   0  0  0  0  0  0  0  0  0  0  0  0
   23.6055   -3.4945  -19.1705 O   0  0  0  0  0  0  0  0  0  0  0  0
   25.2294   -4.9186  -20.1014 C   0  0  0  0  0  0  0  0  0  0  0  0
   25.2844   -6.2667  -20.7329 C   0  0  2  0  0  0  0  0  0  0  0  0
   26.6580   -6.6626  -21.0482 N   0  0  0  0  0  0  0  0  0  0  0  0
   24.4823   -6.3280  -21.9496 C   0  0  0  0  0  0  0  0  0  0  0  0
   25.0070   -6.0897  -23.0915 O   0  0  0  0  0  0  0  0  0  0  0  0
   23.1356   -6.6414  -21.9515 O   0  0  0  0  0  0  0  0  0  0  0  0
  2  1  1  1
  2  3  1  0
  2 10  1  0
  3  4  1  0
  4  5  2  0
  5  6  1  0
  7  6  2  0
  8  7  1  0
  9  4  1  0
  9  8  2  0
 10 11  2  0
 10 12  1  0
 12 13  1  0
 13 18  1  0
 13 14  1  6
 14 15  1  0
 15 16  1  0
 16 20  1  0
 17 16  2  0
 18 26  1  0
 19 18  2  0
 21 22  1  0
 22 24  1  0
 23 22  2  0
 25 24  1  6
 25 27  1  0
 26 25  1  0
 27 28  2  0
 27 29  1  0
M  END
$$$$
