FEN.pdb
     RDKit          3D

 29 29  0  0  1  0  0  0  0  0999 V2000
   15.6692  -11.8362  -11.6438 N   0  0  0  0  0  0  0  0  0  0  0  0
   15.1867  -10.5878  -11.1464 C   0  0  1  0  0  0  0  0  0  0  0  0
   14.3129  -10.7700   -9.9364 C   0  0  0  0  0  0  0  0  0  0  0  0
   12.9892  -11.2932  -10.3692 C   0  0  0  0  0  0  0  0  0  0  0  0
   12.6939  -12.6392  -10.3426 C   0  0  0  0  0  0  0  0  0  0  0  0
   11.4485  -13.1115  -10.7516 C   0  0  0  0  0  0  0  0  0  0  0  0
   10.4632  -12.2556  -11.1980 C   0  0  0  0  0  0  0  0  0  0  0  0
   10.7600  -10.9063  -11.2244 C   0  0  0  0  0  0  0  0  0  0  0  0
   11.9963  -10.4364  -10.8187 C   0  0  0  0  0  0  0  0  0  0  0  0
   16.2712   -9.6033  -10.8914 C   0  0  0  0  0  0  0  0  0  0  0  0
   17.4592  -10.0230  -10.9613 O   0  0  0  0  0  0  0  0  0  0  0  0
   16.0085   -8.2463  -10.5813 N   0  0  0  0  0  0  0  0  0  0  0  0
   17.0547   -7.2832  -10.4494 C   0  0  1  0  0  0  0  0  0  0  0  0
   18.1710   -7.3984  -11.4250 C   0  0  0  0  0  0  0  0  0  0  0  0
   19.2746   -6.4140  -11.3065 C   0  0  0  0  0  0  0  0  0  0  0  0
   20.3897   -6.5571  -12.2323 C   0  0  0  0  0  0  0  0  0  0  0  0
   20.2839   -6.1666  -13.4165 O   0  0  0  0  0  0  0  0  0  0  0  0
   16.5527   -5.8730  -10.3280 C   0  0  0  0  0  0  0  0  0  0  0  0
   15.9987   -5.3696  -11.3381 O   0  0  0  0  0  0  0  0  0  0  0  0
   21.5873   -7.1235  -11.8337 O   0  0  0  0  0  0  0  0  0  0  0  0
   14.2976   -1.6941   -8.2441 N   0  0  0  0  0  0  0  0  0  0  0  0
   14.7566   -2.5478   -7.2136 C   0  0  0  0  0  0  0  0  0  0  0  0
   14.4626   -2.2304   -6.0349 O   0  0  0  0  0  0  0  0  0  0  0  0
   15.5473   -3.7672   -7.4468 C   0  0  0  0  0  0  0  0  0  0  0  0
   15.8384   -3.9207   -8.8996 C   0  0  2  0  0  0  0  0  0  0  0  0
   16.6687   -5.0967   -9.1655 N   0  0  0  0  0  0  0  0  0  0  0  0
   16.4983   -2.7409   -9.4474 C   0  0  0  0  0  0  0  0  0  0  0  0
   17.7681   -2.7131   -9.5991 O   0  0  0  0  0  0  0  0  0  0  0  0
   15.8138   -1.6026   -9.8316 O   0  0  0  0  0  0  0  0  0  0  0  0
  2  1  1  1
  2  3  1  0
  2 10  1  0
  3  4  1  0
  4  5  2  0
  5  6  1  0
  7  6  2  0
  8  7  1  0
  9  4  1  0
  9  8  2  0
 10 11  2  0
 10 12  1  0
 12 13  1  0
 13 18  1  0
 13 14  1  6
 14 15  1  0
 15 16  1  0
 16 20  1  0
 17 16  2  0
 18 26  1  0
 19 18  2  0
 21 22  1  0
 22 24  1  0
 23 22  2  0
 25 24  1  1
 25 27  1  0
 26 25  1  0
 27 28  2  0
 27 29  1  0
M  END
$$$$
