FEN.pdb
     RDKit          3D

 29 29  0  0  1  0  0  0  0  0999 V2000
   15.0449  -10.2049  -10.4468 N   0  0  0  0  0  0  0  0  0  0  0  0
   14.8852   -8.8964   -9.8982 C   0  0  1  0  0  0  0  0  0  0  0  0
   14.5281   -8.9436   -8.4384 C   0  0  0  0  0  0  0  0  0  0  0  0
   13.0467   -8.9601   -8.3024 C   0  0  0  0  0  0  0  0  0  0  0  0
   12.3224  -10.1310   -8.3664 C   0  0  0  0  0  0  0  0  0  0  0  0
   10.9352  -10.1277   -8.2367 C   0  0  0  0  0  0  0  0  0  0  0  0
   10.2317   -8.9577   -8.0394 C   0  0  0  0  0  0  0  0  0  0  0  0
   10.9585   -7.7843   -7.9753 C   0  0  0  0  0  0  0  0  0  0  0  0
   12.3359   -7.7865   -8.1042 C   0  0  0  0  0  0  0  0  0  0  0  0
   16.0564   -8.0141  -10.1439 C   0  0  0  0  0  0  0  0  0  0  0  0
   17.1659   -8.5753  -10.3597 O   0  0  0  0  0  0  0  0  0  0  0  0
   15.9574   -6.6010  -10.1412 N   0  0  0  0  0  0  0  0  0  0  0  0
   17.0373   -5.7654  -10.5594 C   0  0  1  0  0  0  0  0  0  0  0  0
   17.8109   -6.2431  -11.7360 C   0  0  0  0  0  0  0  0  0  0  0  0
   18.8793   -5.3503  -12.2484 C   0  0  0  0  0  0  0  0  0  0  0  0
   19.6436   -5.8246  -13.3938 C   0  0  0  0  0  0  0  0  0  0  0  0
   20.6224   -6.5870  -13.2304 O   0  0  0  0  0  0  0  0  0  0  0  0
   16.6555   -4.3181  -10.6831 C   0  0  0  0  0  0  0  0  0  0  0  0
   15.9407   -3.9926  -11.6649 O   0  0  0  0  0  0  0  0  0  0  0  0
   19.3132   -5.4497  -14.6839 O   0  0  0  0  0  0  0  0  0  0  0  0
   15.8367   -1.6679   -6.3171 N   0  0  0  0  0  0  0  0  0  0  0  0
   15.7013   -1.5728   -7.7220 C   0  0  0  0  0  0  0  0  0  0  0  0
   14.5757   -1.8446   -8.2076 O   0  0  0  0  0  0  0  0  0  0  0  0
   16.7919   -1.1792   -8.6288 C   0  0  0  0  0  0  0  0  0  0  0  0
   16.6774   -1.9143   -9.9194 C   0  0  2  0  0  0  0  0  0  0  0  0
   17.0495   -3.3230   -9.7765 N   0  0  0  0  0  0  0  0  0  0  0  0
   17.4998   -1.3103  -10.9617 C   0  0  0  0  0  0  0  0  0  0  0  0
   17.3790   -0.0709  -11.2539 O   0  0  0  0  0  0  0  0  0  0  0  0
   18.4426   -2.0175  -11.6847 O   0  0  0  0  0  0  0  0  0  0  0  0
  2  1  1  1
  2  3  1  0
  2 10  1  0
  3  4  1  0
  4  5  2  0
  5  6  1  0
  7  6  2  0
  8  7  1  0
  9  4  1  0
  9  8  2  0
 10 11  2  0
 10 12  1  0
 12 13  1  0
 13 18  1  0
 13 14  1  6
 14 15  1  0
 15 16  1  0
 16 20  1  0
 17 16  2  0
 18 26  1  0
 19 18  2  0
 21 22  1  0
 22 24  1  0
 23 22  2  0
 25 24  1  1
 25 27  1  0
 26 25  1  0
 27 28  2  0
 27 29  1  0
M  END
$$$$
