FEN.pdb
     RDKit          3D

 29 29  0  0  1  0  0  0  0  0999 V2000
   23.6711  -35.1928  -10.4896 N   0  0  0  0  0  0  0  0  0  0  0  0
   23.4852  -33.9955   -9.7343 C   0  0  1  0  0  0  0  0  0  0  0  0
   22.2453  -33.2570  -10.1563 C   0  0  0  0  0  0  0  0  0  0  0  0
   22.3825  -32.8555  -11.5822 C   0  0  0  0  0  0  0  0  0  0  0  0
   21.8133  -33.5865  -12.6027 C   0  0  0  0  0  0  0  0  0  0  0  0
   21.9518  -33.1953  -13.9328 C   0  0  0  0  0  0  0  0  0  0  0  0
   22.6610  -32.0650  -14.2825 C   0  0  0  0  0  0  0  0  0  0  0  0
   23.2313  -31.3327  -13.2589 C   0  0  0  0  0  0  0  0  0  0  0  0
   23.0945  -31.7204  -11.9379 C   0  0  0  0  0  0  0  0  0  0  0  0
   23.5098  -34.2231   -8.2652 C   0  0  0  0  0  0  0  0  0  0  0  0
   22.7741  -35.1427   -7.8118 O   0  0  0  0  0  0  0  0  0  0  0  0
   24.3159  -33.4541   -7.3903 N   0  0  0  0  0  0  0  0  0  0  0  0
   24.3912  -33.7298   -5.9911 C   0  0  1  0  0  0  0  0  0  0  0  0
   25.7286  -33.5551   -5.3651 C   0  0  0  0  0  0  0  0  0  0  0  0
   25.8387  -33.8517   -3.9156 C   0  0  0  0  0  0  0  0  0  0  0  0
   27.1523  -33.6938   -3.3070 C   0  0  0  0  0  0  0  0  0  0  0  0
   27.3192  -33.9312   -2.0897 O   0  0  0  0  0  0  0  0  0  0  0  0
   23.3031  -33.0674   -5.1954 C   0  0  0  0  0  0  0  0  0  0  0  0
   23.1057  -31.8424   -5.3976 O   0  0  0  0  0  0  0  0  0  0  0  0
   28.2440  -33.2805   -4.0496 O   0  0  0  0  0  0  0  0  0  0  0  0
   20.0751  -35.6722   -2.0604 N   0  0  0  0  0  0  0  0  0  0  0  0
   19.6492  -34.3982   -2.5039 C   0  0  0  0  0  0  0  0  0  0  0  0
   18.8236  -33.7877   -1.7812 O   0  0  0  0  0  0  0  0  0  0  0  0
   20.1149  -33.7618   -3.7468 C   0  0  0  0  0  0  0  0  0  0  0  0
   21.4200  -33.0811   -3.5175 C   0  0  2  0  0  0  0  0  0  0  0  0
   22.5076  -33.7317   -4.2503 N   0  0  0  0  0  0  0  0  0  0  0  0
   21.7647  -33.0336   -2.1010 C   0  0  0  0  0  0  0  0  0  0  0  0
   21.1221  -32.2745   -1.2967 O   0  0  0  0  0  0  0  0  0  0  0  0
   22.7819  -33.7876   -1.5455 O   0  0  0  0  0  0  0  0  0  0  0  0
  2  1  1  6
  2  3  1  0
  2 10  1  0
  3  4  1  0
  4  5  2  0
  5  6  1  0
  7  6  2  0
  8  7  1  0
  9  4  1  0
  9  8  2  0
 10 11  2  0
 10 12  1  0
 12 13  1  0
 13 18  1  0
 13 14  1  1
 14 15  1  0
 15 16  1  0
 16 20  1  0
 17 16  2  0
 18 26  1  0
 19 18  2  0
 21 22  1  0
 22 24  1  0
 23 22  2  0
 25 24  1  1
 25 27  1  0
 26 25  1  0
 27 28  2  0
 27 29  1  0
M  END
$$$$
