FEN.pdb
     RDKit          3D

 29 29  0  0  1  0  0  0  0  0999 V2000
   25.5555  -10.3993  -18.0981 N   0  0  0  0  0  0  0  0  0  0  0  0
   25.0065  -10.1557  -16.8027 C   0  0  1  0  0  0  0  0  0  0  0  0
   26.0739   -9.8159  -15.7997 C   0  0  0  0  0  0  0  0  0  0  0  0
   27.0334  -10.9493  -15.7107 C   0  0  0  0  0  0  0  0  0  0  0  0
   26.7179  -12.1211  -15.0572 C   0  0  0  0  0  0  0  0  0  0  0  0
   27.6290  -13.1727  -14.9840 C   0  0  0  0  0  0  0  0  0  0  0  0
   28.8794  -13.0855  -15.5599 C   0  0  0  0  0  0  0  0  0  0  0  0
   29.1950  -11.9105  -16.2149 C   0  0  0  0  0  0  0  0  0  0  0  0
   28.2910  -10.8657  -16.2881 C   0  0  0  0  0  0  0  0  0  0  0  0
   23.9230   -9.1377  -16.8106 C   0  0  0  0  0  0  0  0  0  0  0  0
   24.0122   -8.2071  -17.6583 O   0  0  0  0  0  0  0  0  0  0  0  0
   22.8265   -9.1877  -15.9152 N   0  0  0  0  0  0  0  0  0  0  0  0
   21.6955   -8.3268  -16.0540 C   0  0  1  0  0  0  0  0  0  0  0  0
   20.3645   -8.9866  -15.9888 C   0  0  0  0  0  0  0  0  0  0  0  0
   19.1749   -8.1290  -16.2135 C   0  0  0  0  0  0  0  0  0  0  0  0
   17.8723   -8.7774  -16.1536 C   0  0  0  0  0  0  0  0  0  0  0  0
   17.7766   -9.9759  -15.8063 O   0  0  0  0  0  0  0  0  0  0  0  0
   21.7659   -7.1074  -15.1801 C   0  0  0  0  0  0  0  0  0  0  0  0
   22.1310   -7.2728  -13.9884 O   0  0  0  0  0  0  0  0  0  0  0  0
   16.7133   -8.0941  -16.4758 O   0  0  0  0  0  0  0  0  0  0  0  0
   21.5731   -2.2322  -13.3340 N   0  0  0  0  0  0  0  0  0  0  0  0
   22.2940   -2.3327  -14.5470 C   0  0  0  0  0  0  0  0  0  0  0  0
   22.9722   -1.3344  -14.8935 O   0  0  0  0  0  0  0  0  0  0  0  0
   22.2908   -3.5256  -15.4094 C   0  0  0  0  0  0  0  0  0  0  0  0
   21.5396   -4.6319  -14.7531 C   0  0  2  0  0  0  0  0  0  0  0  0
   21.4486   -5.8120  -15.6146 N   0  0  0  0  0  0  0  0  0  0  0  0
   20.1938   -4.2201  -14.3698 C   0  0  0  0  0  0  0  0  0  0  0  0
   19.9942   -3.5576  -13.2940 O   0  0  0  0  0  0  0  0  0  0  0  0
   19.0718   -4.5087  -15.1245 O   0  0  0  0  0  0  0  0  0  0  0  0
  2  1  1  6
  2  3  1  0
  2 10  1  0
  3  4  1  0
  4  5  2  0
  5  6  1  0
  7  6  2  0
  8  7  1  0
  9  4  1  0
  9  8  2  0
 10 11  2  0
 10 12  1  0
 12 13  1  0
 13 18  1  0
 13 14  1  1
 14 15  1  0
 15 16  1  0
 16 20  1  0
 17 16  2  0
 18 26  1  0
 19 18  2  0
 21 22  1  0
 22 24  1  0
 23 22  2  0
 25 24  1  6
 25 27  1  0
 26 25  1  0
 27 28  2  0
 27 29  1  0
M  END
$$$$
