FEN.pdb
     RDKit          3D

 29 29  0  0  1  0  0  0  0  0999 V2000
   25.9078   -8.4371  -16.1371 N   0  0  0  0  0  0  0  0  0  0  0  0
   24.6575   -8.9780  -15.7092 C   0  0  1  0  0  0  0  0  0  0  0  0
   24.8438  -10.1590  -14.7976 C   0  0  0  0  0  0  0  0  0  0  0  0
   25.6902  -11.1719  -15.4838 C   0  0  0  0  0  0  0  0  0  0  0  0
   26.9692  -11.4608  -15.0590 C   0  0  0  0  0  0  0  0  0  0  0  0
   27.7477  -12.4129  -15.7137 C   0  0  0  0  0  0  0  0  0  0  0  0
   27.2731  -13.1033  -16.8096 C   0  0  0  0  0  0  0  0  0  0  0  0
   25.9909  -12.8131  -17.2349 C   0  0  0  0  0  0  0  0  0  0  0  0
   25.2171  -11.8679  -16.5855 C   0  0  0  0  0  0  0  0  0  0  0  0
   23.7581   -7.9601  -15.1047 C   0  0  0  0  0  0  0  0  0  0  0  0
   24.2179   -7.2813  -14.1453 O   0  0  0  0  0  0  0  0  0  0  0  0
   22.4372   -7.7421  -15.5675 N   0  0  0  0  0  0  0  0  0  0  0  0
   21.5997   -6.7252  -15.0163 C   0  0  1  0  0  0  0  0  0  0  0  0
   22.2374   -5.3973  -14.8131 C   0  0  0  0  0  0  0  0  0  0  0  0
   22.8092   -4.7334  -16.0103 C   0  0  0  0  0  0  0  0  0  0  0  0
   23.4214   -3.4270  -15.8120 C   0  0  0  0  0  0  0  0  0  0  0  0
   24.6180   -3.3354  -15.4576 O   0  0  0  0  0  0  0  0  0  0  0  0
   20.2686   -6.6144  -15.7031 C   0  0  0  0  0  0  0  0  0  0  0  0
   19.5220   -5.6619  -15.3624 O   0  0  0  0  0  0  0  0  0  0  0  0
   22.7049   -2.2598  -16.0078 O   0  0  0  0  0  0  0  0  0  0  0  0
   17.5550  -11.2510  -17.2019 N   0  0  0  0  0  0  0  0  0  0  0  0
   18.2656  -10.8366  -16.0511 C   0  0  0  0  0  0  0  0  0  0  0  0
   17.9589  -11.3819  -14.9624 O   0  0  0  0  0  0  0  0  0  0  0  0
   19.3273   -9.8170  -16.0627 C   0  0  0  0  0  0  0  0  0  0  0  0
   18.7652   -8.4946  -16.4555 C   0  0  2  0  0  0  0  0  0  0  0  0
   19.8184   -7.5049  -16.6888 N   0  0  0  0  0  0  0  0  0  0  0  0
   17.8432   -7.9777  -15.4503 C   0  0  0  0  0  0  0  0  0  0  0  0
   17.9401   -8.3384  -14.2270 O   0  0  0  0  0  0  0  0  0  0  0  0
   16.8293   -7.0846  -15.7436 O   0  0  0  0  0  0  0  0  0  0  0  0
  2  1  1  1
  2  3  1  0
  2 10  1  0
  3  4  1  0
  4  5  2  0
  5  6  1  0
  7  6  2  0
  8  7  1  0
  9  4  1  0
  9  8  2  0
 10 11  2  0
 10 12  1  0
 12 13  1  0
 13 18  1  0
 13 14  1  6
 14 15  1  0
 15 16  1  0
 16 20  1  0
 17 16  2  0
 18 26  1  0
 19 18  2  0
 21 22  1  0
 22 24  1  0
 23 22  2  0
 25 24  1  1
 25 27  1  0
 26 25  1  0
 27 28  2  0
 27 29  1  0
M  END
$$$$
