FEN.pdb
     RDKit          3D

 29 29  0  0  1  0  0  0  0  0999 V2000
   23.8579  -13.3836  -17.7682 N   0  0  0  0  0  0  0  0  0  0  0  0
   23.8611  -12.6943  -16.5178 C   0  0  1  0  0  0  0  0  0  0  0  0
   25.2582  -12.3931  -16.0508 C   0  0  0  0  0  0  0  0  0  0  0  0
   25.9784  -13.6742  -15.8195 C   0  0  0  0  0  0  0  0  0  0  0  0
   26.8823  -14.1765  -16.7308 C   0  0  0  0  0  0  0  0  0  0  0  0
   27.5479  -15.3780  -16.4974 C   0  0  0  0  0  0  0  0  0  0  0  0
   27.3313  -16.1119  -15.3498 C   0  0  0  0  0  0  0  0  0  0  0  0
   26.4250  -15.6078  -14.4367 C   0  0  0  0  0  0  0  0  0  0  0  0
   25.7635  -14.4149  -14.6675 C   0  0  0  0  0  0  0  0  0  0  0  0
   23.0137  -11.4727  -16.5231 C   0  0  0  0  0  0  0  0  0  0  0  0
   23.0791  -10.7299  -17.5412 O   0  0  0  0  0  0  0  0  0  0  0  0
   22.1607  -11.1345  -15.4439 N   0  0  0  0  0  0  0  0  0  0  0  0
   21.3898   -9.9324  -15.4358 C   0  0  1  0  0  0  0  0  0  0  0  0
   20.1490   -9.9614  -14.6168 C   0  0  0  0  0  0  0  0  0  0  0  0
   19.3476   -8.7140  -14.5624 C   0  0  0  0  0  0  0  0  0  0  0  0
   18.1063   -8.7590  -13.8020 C   0  0  0  0  0  0  0  0  0  0  0  0
   17.0111   -8.5317  -14.3631 O   0  0  0  0  0  0  0  0  0  0  0  0
   22.2105   -8.7017  -15.1761 C   0  0  0  0  0  0  0  0  0  0  0  0
   23.4122   -8.8694  -14.8466 O   0  0  0  0  0  0  0  0  0  0  0  0
   18.1015   -9.0516  -12.4498 O   0  0  0  0  0  0  0  0  0  0  0  0
   25.4509   -4.9121  -17.4397 N   0  0  0  0  0  0  0  0  0  0  0  0
   24.4446   -5.1396  -16.4718 C   0  0  0  0  0  0  0  0  0  0  0  0
   24.3476   -4.3031  -15.5404 O   0  0  0  0  0  0  0  0  0  0  0  0
   23.5214   -6.2857  -16.4987 C   0  0  0  0  0  0  0  0  0  0  0  0
   22.5776   -6.2123  -15.3486 C   0  0  2  0  0  0  0  0  0  0  0  0
   21.7155   -7.3933  -15.2776 N   0  0  0  0  0  0  0  0  0  0  0  0
   21.7420   -5.0183  -15.4090 C   0  0  0  0  0  0  0  0  0  0  0  0
   22.1342   -3.9185  -14.8868 O   0  0  0  0  0  0  0  0  0  0  0  0
   20.5020   -4.9943  -16.0203 O   0  0  0  0  0  0  0  0  0  0  0  0
  2  1  1  6
  2  3  1  0
  2 10  1  0
  3  4  1  0
  4  5  2  0
  5  6  1  0
  7  6  2  0
  8  7  1  0
  9  4  1  0
  9  8  2  0
 10 11  2  0
 10 12  1  0
 12 13  1  0
 13 18  1  0
 13 14  1  1
 14 15  1  0
 15 16  1  0
 16 20  1  0
 17 16  2  0
 18 26  1  0
 19 18  2  0
 21 22  1  0
 22 24  1  0
 23 22  2  0
 25 24  1  6
 25 27  1  0
 26 25  1  0
 27 28  2  0
 27 29  1  0
M  END
$$$$
