FEN.pdb
     RDKit          3D

 29 29  0  0  1  0  0  0  0  0999 V2000
   29.2636  -13.4552  -19.6456 N   0  0  0  0  0  0  0  0  0  0  0  0
   28.4170  -12.3775  -19.2448 C   0  0  1  0  0  0  0  0  0  0  0  0
   29.1396  -11.4007  -18.3591 C   0  0  0  0  0  0  0  0  0  0  0  0
   29.6984  -12.1296  -17.1888 C   0  0  0  0  0  0  0  0  0  0  0  0
   31.0334  -12.4627  -17.1077 C   0  0  0  0  0  0  0  0  0  0  0  0
   31.5396  -13.1455  -16.0037 C   0  0  0  0  0  0  0  0  0  0  0  0
   30.7295  -13.5150  -14.9501 C   0  0  0  0  0  0  0  0  0  0  0  0
   29.3913  -13.1807  -15.0321 C   0  0  0  0  0  0  0  0  0  0  0  0
   28.8877  -12.5029  -16.1279 C   0  0  0  0  0  0  0  0  0  0  0  0
   27.7630  -11.6925  -20.3909 C   0  0  0  0  0  0  0  0  0  0  0  0
   28.4925  -11.3927  -21.3760 O   0  0  0  0  0  0  0  0  0  0  0  0
   26.3817  -11.3785  -20.4011 N   0  0  0  0  0  0  0  0  0  0  0  0
   25.7596  -10.7347  -21.5137 C   0  0  1  0  0  0  0  0  0  0  0  0
   25.5552  -11.5776  -22.7215 C   0  0  0  0  0  0  0  0  0  0  0  0
   25.9096  -13.0138  -22.6095 C   0  0  0  0  0  0  0  0  0  0  0  0
   25.6688  -13.8469  -23.7796 C   0  0  0  0  0  0  0  0  0  0  0  0
   26.5922  -14.0818  -24.5909 O   0  0  0  0  0  0  0  0  0  0  0  0
   24.5221   -9.9693  -21.1418 C   0  0  0  0  0  0  0  0  0  0  0  0
   23.7996  -10.4492  -20.2317 O   0  0  0  0  0  0  0  0  0  0  0  0
   24.4240  -14.3978  -24.0263 O   0  0  0  0  0  0  0  0  0  0  0  0
   20.7289   -6.7918  -19.0665 N   0  0  0  0  0  0  0  0  0  0  0  0
   21.8029   -6.4853  -19.9348 C   0  0  0  0  0  0  0  0  0  0  0  0
   21.7301   -5.4083  -20.5762 O   0  0  0  0  0  0  0  0  0  0  0  0
   22.9807   -7.3479  -20.1227 C   0  0  0  0  0  0  0  0  0  0  0  0
   22.8867   -8.0697  -21.4223 C   0  0  2  0  0  0  0  0  0  0  0  0
   24.1327   -8.7658  -21.7479 N   0  0  0  0  0  0  0  0  0  0  0  0
   22.5462   -7.1697  -22.5185 C   0  0  0  0  0  0  0  0  0  0  0  0
   21.4278   -6.5491  -22.5317 O   0  0  0  0  0  0  0  0  0  0  0  0
   23.3880   -6.9309  -23.5891 O   0  0  0  0  0  0  0  0  0  0  0  0
  2  1  1  6
  2  3  1  0
  2 10  1  0
  3  4  1  0
  4  5  2  0
  5  6  1  0
  7  6  2  0
  8  7  1  0
  9  4  1  0
  9  8  2  0
 10 11  2  0
 10 12  1  0
 12 13  1  0
 13 18  1  0
 13 14  1  6
 14 15  1  0
 15 16  1  0
 16 20  1  0
 17 16  2  0
 18 26  1  0
 19 18  2  0
 21 22  1  0
 22 24  1  0
 23 22  2  0
 25 24  1  1
 25 27  1  0
 26 25  1  0
 27 28  2  0
 27 29  1  0
M  END
$$$$
