YKN.pdb
     RDKit          3D

 30 30  0  0  1  0  0  0  0  0999 V2000
   10.1102  -14.3941   30.3630 O   0  0  0  0  0  0  0  0  0  0  0  0
   10.4154  -14.7914   29.0659 C   0  0  0  0  0  0  0  0  0  0  0  0
   11.3643  -15.7591   28.7940 C   0  0  0  0  0  0  0  0  0  0  0  0
   11.6870  -16.1715   27.5271 C   0  0  0  0  0  0  0  0  0  0  0  0
   11.0210  -15.5812   26.4646 C   0  0  0  0  0  0  0  0  0  0  0  0
   11.3195  -15.9802   25.0587 C   0  0  0  0  0  0  0  0  0  0  0  0
   10.2952  -16.9574   24.5679 C   0  0  2  0  0  0  0  0  0  0  0  0
   10.1945  -18.0710   25.4585 N   0  0  0  0  0  0  0  0  0  0  0  0
   10.6931  -17.3842   23.1820 C   0  0  0  0  0  0  0  0  0  0  0  0
   11.4788  -18.3426   23.0104 O   0  0  0  0  0  0  0  0  0  0  0  0
   10.0621  -14.6064   26.6939 C   0  0  0  0  0  0  0  0  0  0  0  0
    9.7713  -14.2242   27.9861 C   0  0  0  0  0  0  0  0  0  0  0  0
   10.1834  -16.7066   22.0563 N   0  0  0  0  0  0  0  0  0  0  0  0
   10.4972  -16.8691   20.6885 C   0  0  1  0  0  0  0  0  0  0  0  0
    9.5436  -16.2278   19.6909 C   0  0  0  0  0  0  0  0  0  0  0  0
    9.6893  -16.6729   18.2871 C   0  0  0  0  0  0  0  0  0  0  0  0
    8.7588  -15.9693   17.3115 C   0  0  0  0  0  0  0  0  0  0  0  0
    8.9826  -16.6208   15.9337 C   0  0  0  0  0  0  0  0  0  0  0  0
    8.2429  -15.9325   14.9222 N   0  0  0  0  0  0  0  0  0  0  0  0
   11.8739  -16.6183   20.2784 C   0  0  0  0  0  0  0  0  0  0  0  0
   12.5920  -15.7982   20.9314 O   0  0  0  0  0  0  0  0  0  0  0  0
   16.2938  -20.0216   20.2983 N   0  0  0  0  0  0  0  0  0  0  0  0
   15.7979  -18.7032   20.1689 C   0  0  0  0  0  0  0  0  0  0  0  0
   16.5636  -17.7197   19.9644 O   0  0  0  0  0  0  0  0  0  0  0  0
   14.3414  -18.4529   20.2744 C   0  0  0  0  0  0  0  0  0  0  0  0
   13.9340  -17.5360   19.1455 C   0  0  2  0  0  0  0  0  0  0  0  0
   12.5221  -17.2308   19.1663 N   0  0  0  0  0  0  0  0  0  0  0  0
   14.2432  -18.1504   17.8303 C   0  0  0  0  0  0  0  0  0  0  0  0
   15.2204  -17.7744   17.1355 O   0  0  0  0  0  0  0  0  0  0  0  0
   13.4648  -19.1802   17.2935 O   0  0  0  0  0  0  0  0  0  0  0  0
  2  1  1  0
  3  2  2  0
  4  3  1  0
  5 11  1  0
  5  4  2  0
  6  5  1  0
  7  6  1  0
  7  9  1  0
  7  8  1  1
  9 10  2  0
 11 12  2  0
 12  2  1  0
 13  9  1  0
 13 14  1  0
 14 15  1  6
 15 16  1  0
 16 17  1  0
 17 18  1  0
 18 19  1  0
 20 14  1  0
 20 21  2  0
 22 23  1  0
 23 25  1  0
 24 23  2  0
 26 25  1  1
 26 27  1  0
 27 20  1  0
 28 30  1  0
 28 26  1  0
 29 28  2  0
M  END
$$$$
