YKN.pdb
     RDKit          3D

 30 30  0  0  1  0  0  0  0  0999 V2000
    5.2137  -10.6796   28.2094 O   0  0  0  0  0  0  0  0  0  0  0  0
    5.9029  -11.6843   27.5392 C   0  0  0  0  0  0  0  0  0  0  0  0
    7.0773  -12.2261   28.0271 C   0  0  0  0  0  0  0  0  0  0  0  0
    7.7790  -13.2163   27.3899 C   0  0  0  0  0  0  0  0  0  0  0  0
    7.2774  -13.6964   26.1904 C   0  0  0  0  0  0  0  0  0  0  0  0
    7.9870  -14.7738   25.4417 C   0  0  0  0  0  0  0  0  0  0  0  0
    7.0187  -15.8362   25.0188 C   0  0  2  0  0  0  0  0  0  0  0  0
    6.9352  -16.8639   26.0089 N   0  0  0  0  0  0  0  0  0  0  0  0
    7.4767  -16.3744   23.6915 C   0  0  0  0  0  0  0  0  0  0  0  0
    8.0506  -17.4836   23.6165 O   0  0  0  0  0  0  0  0  0  0  0  0
    6.1022  -13.1801   25.6662 C   0  0  0  0  0  0  0  0  0  0  0  0
    5.4312  -12.1844   26.3434 C   0  0  0  0  0  0  0  0  0  0  0  0
    7.2637  -15.6325   22.5124 N   0  0  0  0  0  0  0  0  0  0  0  0
    8.0298  -15.5863   21.3264 C   0  0  1  0  0  0  0  0  0  0  0  0
    7.7192  -14.4527   20.3597 C   0  0  0  0  0  0  0  0  0  0  0  0
    8.2885  -14.5943   19.0010 C   0  0  0  0  0  0  0  0  0  0  0  0
    7.8153  -13.5377   18.0149 C   0  0  0  0  0  0  0  0  0  0  0  0
    8.2509  -14.0085   16.6144 C   0  0  0  0  0  0  0  0  0  0  0  0
    7.7744  -13.1117   15.6080 N   0  0  0  0  0  0  0  0  0  0  0  0
    9.4746  -15.7397   21.4507 C   0  0  0  0  0  0  0  0  0  0  0  0
   10.0661  -15.3528   22.5068 O   0  0  0  0  0  0  0  0  0  0  0  0
   13.2034  -18.9796   23.2032 N   0  0  0  0  0  0  0  0  0  0  0  0
   12.6466  -18.8366   21.9108 C   0  0  0  0  0  0  0  0  0  0  0  0
   13.2199  -19.2953   20.8830 O   0  0  0  0  0  0  0  0  0  0  0  0
   11.3548  -18.1309   21.7419 C   0  0  0  0  0  0  0  0  0  0  0  0
   11.5602  -16.9896   20.7741 C   0  0  2  0  0  0  0  0  0  0  0  0
   10.3268  -16.3067   20.4586 N   0  0  0  0  0  0  0  0  0  0  0  0
   12.1439  -17.4780   19.4999 C   0  0  0  0  0  0  0  0  0  0  0  0
   11.4243  -17.8803   18.5516 O   0  0  0  0  0  0  0  0  0  0  0  0
   13.5248  -17.5170   19.2857 O   0  0  0  0  0  0  0  0  0  0  0  0
  2  1  1  0
  3  2  2  0
  4  3  1  0
  5 11  1  0
  5  4  2  0
  6  5  1  0
  7  6  1  0
  7  9  1  0
  7  8  1  1
  9 10  2  0
 11 12  2  0
 12  2  1  0
 13  9  1  0
 13 14  1  0
 14 15  1  1
 15 16  1  0
 16 17  1  0
 17 18  1  0
 18 19  1  0
 20 14  1  0
 20 21  2  0
 22 23  1  0
 23 25  1  0
 24 23  2  0
 26 25  1  1
 26 27  1  0
 27 20  1  0
 28 30  1  0
 28 26  1  0
 29 28  2  0
M  END
$$$$
