YKN.pdb
     RDKit          3D

 30 30  0  0  1  0  0  0  0  0999 V2000
   10.6509  -14.5789   31.0458 O   0  0  0  0  0  0  0  0  0  0  0  0
   10.1791  -14.6471   29.7395 C   0  0  0  0  0  0  0  0  0  0  0  0
    9.2883  -13.7228   29.2269 C   0  0  0  0  0  0  0  0  0  0  0  0
    8.8055  -13.7636   27.9445 C   0  0  0  0  0  0  0  0  0  0  0  0
    9.2388  -14.7913   27.1218 C   0  0  0  0  0  0  0  0  0  0  0  0
    8.7565  -14.8988   25.7144 C   0  0  0  0  0  0  0  0  0  0  0  0
    7.6455  -15.8998   25.6216 C   0  0  2  0  0  0  0  0  0  0  0  0
    8.1391  -17.2221   25.8481 N   0  0  0  0  0  0  0  0  0  0  0  0
    7.0154  -15.7634   24.2631 C   0  0  0  0  0  0  0  0  0  0  0  0
    6.0797  -16.5175   23.9150 O   0  0  0  0  0  0  0  0  0  0  0  0
   10.1322  -15.7392   27.5969 C   0  0  0  0  0  0  0  0  0  0  0  0
   10.5903  -15.6568   28.8945 C   0  0  0  0  0  0  0  0  0  0  0  0
    7.4737  -14.7806   23.3629 N   0  0  0  0  0  0  0  0  0  0  0  0
    7.4303  -14.7616   21.9511 C   0  0  1  0  0  0  0  0  0  0  0  0
    7.5012  -13.3943   21.2866 C   0  0  0  0  0  0  0  0  0  0  0  0
    7.2009  -13.3689   19.8378 C   0  0  0  0  0  0  0  0  0  0  0  0
    8.3570  -12.8952   18.9709 C   0  0  0  0  0  0  0  0  0  0  0  0
    7.8560  -12.9078   17.5143 C   0  0  0  0  0  0  0  0  0  0  0  0
    8.9028  -12.5325   16.6157 N   0  0  0  0  0  0  0  0  0  0  0  0
    8.2926  -15.6964   21.2376 C   0  0  0  0  0  0  0  0  0  0  0  0
    8.1798  -15.8310   19.9790 O   0  0  0  0  0  0  0  0  0  0  0  0
   13.9040  -15.6581   21.8433 N   0  0  0  0  0  0  0  0  0  0  0  0
   12.7892  -15.5343   20.9815 C   0  0  0  0  0  0  0  0  0  0  0  0
   12.9090  -15.5813   19.7250 O   0  0  0  0  0  0  0  0  0  0  0  0
   11.4361  -15.3432   21.5543 C   0  0  0  0  0  0  0  0  0  0  0  0
   10.6435  -16.6096   21.3328 C   0  0  2  0  0  0  0  0  0  0  0  0
    9.2947  -16.5109   21.8411 N   0  0  0  0  0  0  0  0  0  0  0  0
   11.2947  -17.7626   22.0032 C   0  0  0  0  0  0  0  0  0  0  0  0
   12.5102  -18.0307   21.8306 O   0  0  0  0  0  0  0  0  0  0  0  0
   10.5919  -18.6123   22.8626 O   0  0  0  0  0  0  0  0  0  0  0  0
  2  1  1  0
  3  2  2  0
  4  3  1  0
  5 11  1  0
  5  4  2  0
  6  5  1  0
  7  6  1  0
  7  9  1  0
  7  8  1  6
  9 10  2  0
 11 12  2  0
 12  2  1  0
 13  9  1  0
 13 14  1  0
 14 15  1  6
 15 16  1  0
 16 17  1  0
 17 18  1  0
 18 19  1  0
 20 14  1  0
 20 21  2  0
 22 23  1  0
 23 25  1  0
 24 23  2  0
 26 25  1  1
 26 27  1  0
 27 20  1  0
 28 30  1  0
 28 26  1  0
 29 28  2  0
M  END
$$$$
