YKN.pdb
     RDKit          3D

 30 30  0  0  1  0  0  0  0  0999 V2000
    6.4915  -10.5444   26.3877 O   0  0  0  0  0  0  0  0  0  0  0  0
    6.8140  -11.8950   26.4606 C   0  0  0  0  0  0  0  0  0  0  0  0
    6.2458  -12.7405   27.3950 C   0  0  0  0  0  0  0  0  0  0  0  0
    6.5434  -14.0751   27.4917 C   0  0  0  0  0  0  0  0  0  0  0  0
    7.4660  -14.5992   26.6001 C   0  0  0  0  0  0  0  0  0  0  0  0
    7.8382  -16.0429   26.6456 C   0  0  0  0  0  0  0  0  0  0  0  0
    6.9408  -16.8388   25.7477 C   0  0  2  0  0  0  0  0  0  0  0  0
    6.7052  -18.1381   26.2951 N   0  0  0  0  0  0  0  0  0  0  0  0
    7.5918  -16.9121   24.3942 C   0  0  0  0  0  0  0  0  0  0  0  0
    8.1781  -17.9533   24.0236 O   0  0  0  0  0  0  0  0  0  0  0  0
    8.0593  -13.7853   25.6473 C   0  0  0  0  0  0  0  0  0  0  0  0
    7.7281  -12.4484   25.5884 C   0  0  0  0  0  0  0  0  0  0  0  0
    7.5484  -15.8041   23.5242 N   0  0  0  0  0  0  0  0  0  0  0  0
    7.9490  -15.7033   22.1733 C   0  0  1  0  0  0  0  0  0  0  0  0
    7.5830  -14.4156   21.4495 C   0  0  0  0  0  0  0  0  0  0  0  0
    7.8954  -14.3816   20.0033 C   0  0  0  0  0  0  0  0  0  0  0  0
    7.6041  -13.0470   19.3351 C   0  0  0  0  0  0  0  0  0  0  0  0
    7.8916  -13.2288   17.8327 C   0  0  0  0  0  0  0  0  0  0  0  0
    7.4275  -12.1000   17.0882 N   0  0  0  0  0  0  0  0  0  0  0  0
    9.3215  -16.0730   21.8478 C   0  0  0  0  0  0  0  0  0  0  0  0
    9.7323  -15.9977   20.6477 O   0  0  0  0  0  0  0  0  0  0  0  0
   14.2208  -15.1408   20.9854 N   0  0  0  0  0  0  0  0  0  0  0  0
   13.6745  -15.0469   22.2868 C   0  0  0  0  0  0  0  0  0  0  0  0
   14.4064  -14.9808   23.3142 O   0  0  0  0  0  0  0  0  0  0  0  0
   12.2039  -15.0249   22.4660 C   0  0  0  0  0  0  0  0  0  0  0  0
   11.7148  -16.4511   22.5542 C   0  0  2  0  0  0  0  0  0  0  0  0
   10.2912  -16.5315   22.7867 N   0  0  0  0  0  0  0  0  0  0  0  0
   12.3936  -17.1733   23.6589 C   0  0  0  0  0  0  0  0  0  0  0  0
   13.6421  -17.3110   23.6933 O   0  0  0  0  0  0  0  0  0  0  0  0
   11.6814  -17.7392   24.7206 O   0  0  0  0  0  0  0  0  0  0  0  0
  2  1  1  0
  3  2  2  0
  4  3  1  0
  5 11  1  0
  5  4  2  0
  6  5  1  0
  7  6  1  0
  7  9  1  0
  7  8  1  1
  9 10  2  0
 11 12  2  0
 12  2  1  0
 13  9  1  0
 13 14  1  0
 14 15  1  1
 15 16  1  0
 16 17  1  0
 17 18  1  0
 18 19  1  0
 20 14  1  0
 20 21  2  0
 22 23  1  0
 23 25  1  0
 24 23  2  0
 26 25  1  1
 26 27  1  0
 27 20  1  0
 28 30  1  0
 28 26  1  0
 29 28  2  0
M  END
$$$$
