YKN.pdb
     RDKit          3D

 30 30  0  0  1  0  0  0  0  0999 V2000
    6.0862  -10.6302   27.6056 O   0  0  0  0  0  0  0  0  0  0  0  0
    6.5928  -11.8274   27.1119 C   0  0  0  0  0  0  0  0  0  0  0  0
    7.9496  -12.0818   27.0415 C   0  0  0  0  0  0  0  0  0  0  0  0
    8.4790  -13.2510   26.5600 C   0  0  0  0  0  0  0  0  0  0  0  0
    7.5993  -14.2278   26.1210 C   0  0  0  0  0  0  0  0  0  0  0  0
    8.1033  -15.5254   25.5851 C   0  0  0  0  0  0  0  0  0  0  0  0
    6.9894  -16.2843   24.9306 C   0  0  2  0  0  0  0  0  0  0  0  0
    6.6576  -17.4478   25.6920 N   0  0  0  0  0  0  0  0  0  0  0  0
    7.4290  -16.6355   23.5361 C   0  0  0  0  0  0  0  0  0  0  0  0
    8.2060  -17.5952   23.3346 O   0  0  0  0  0  0  0  0  0  0  0  0
    6.2307  -14.0126   26.1744 C   0  0  0  0  0  0  0  0  0  0  0  0
    5.7450  -12.8202   26.6670 C   0  0  0  0  0  0  0  0  0  0  0  0
    6.9689  -15.8844   22.4359 N   0  0  0  0  0  0  0  0  0  0  0  0
    7.6944  -15.3232   21.3616 C   0  0  1  0  0  0  0  0  0  0  0  0
    7.5927  -13.8149   21.1863 C   0  0  0  0  0  0  0  0  0  0  0  0
    8.1616  -13.2753   19.9311 C   0  0  0  0  0  0  0  0  0  0  0  0
    7.5579  -13.8699   18.6683 C   0  0  0  0  0  0  0  0  0  0  0  0
    8.3035  -13.2378   17.4778 C   0  0  0  0  0  0  0  0  0  0  0  0
    7.7305  -13.6622   16.2386 N   0  0  0  0  0  0  0  0  0  0  0  0
    9.0810  -15.7418   21.1929 C   0  0  0  0  0  0  0  0  0  0  0  0
    9.4777  -16.1897   20.0719 O   0  0  0  0  0  0  0  0  0  0  0  0
   14.5278  -16.4647   23.7058 N   0  0  0  0  0  0  0  0  0  0  0  0
   13.7741  -15.8241   22.6947 C   0  0  0  0  0  0  0  0  0  0  0  0
   14.2465  -15.6149   21.5421 O   0  0  0  0  0  0  0  0  0  0  0  0
   12.3900  -15.3798   22.9809 C   0  0  0  0  0  0  0  0  0  0  0  0
   11.4685  -16.0128   21.9653 C   0  0  2  0  0  0  0  0  0  0  0  0
   10.0801  -15.6959   22.2088 N   0  0  0  0  0  0  0  0  0  0  0  0
   11.6031  -17.4908   21.9812 C   0  0  0  0  0  0  0  0  0  0  0  0
   10.8548  -18.2178   22.6816 O   0  0  0  0  0  0  0  0  0  0  0  0
   12.5688  -18.1541   21.2183 O   0  0  0  0  0  0  0  0  0  0  0  0
  2  1  1  0
  3  2  2  0
  4  3  1  0
  5 11  1  0
  5  4  2  0
  6  5  1  0
  7  6  1  0
  7  9  1  0
  7  8  1  1
  9 10  2  0
 11 12  2  0
 12  2  1  0
 13  9  1  0
 13 14  1  0
 14 15  1  1
 15 16  1  0
 16 17  1  0
 17 18  1  0
 18 19  1  0
 20 14  1  0
 20 21  2  0
 22 23  1  0
 23 25  1  0
 24 23  2  0
 26 25  1  1
 26 27  1  0
 27 20  1  0
 28 30  1  0
 28 26  1  0
 29 28  2  0
M  END
$$$$
