YKN.pdb
     RDKit          3D

 30 30  0  0  1  0  0  0  0  0999 V2000
    5.2144  -10.8233   28.1946 O   0  0  0  0  0  0  0  0  0  0  0  0
    5.8923  -11.8457   27.5399 C   0  0  0  0  0  0  0  0  0  0  0  0
    7.2361  -12.0930   27.7493 C   0  0  0  0  0  0  0  0  0  0  0  0
    7.9315  -13.0924   27.1194 C   0  0  0  0  0  0  0  0  0  0  0  0
    7.2429  -13.8956   26.2241 C   0  0  0  0  0  0  0  0  0  0  0  0
    7.9342  -15.0029   25.5024 C   0  0  0  0  0  0  0  0  0  0  0  0
    6.9512  -15.7808   24.6817 C   0  0  2  0  0  0  0  0  0  0  0  0
    6.6294  -17.0182   25.3212 N   0  0  0  0  0  0  0  0  0  0  0  0
    7.5550  -15.9951   23.3213 C   0  0  0  0  0  0  0  0  0  0  0  0
    7.5473  -17.1282   22.7910 O   0  0  0  0  0  0  0  0  0  0  0  0
    5.8940  -13.6811   25.9853 C   0  0  0  0  0  0  0  0  0  0  0  0
    5.2369  -12.6632   26.6429 C   0  0  0  0  0  0  0  0  0  0  0  0
    8.1388  -14.9174   22.6256 N   0  0  0  0  0  0  0  0  0  0  0  0
    8.6150  -14.8549   21.2971 C   0  0  1  0  0  0  0  0  0  0  0  0
    7.9715  -13.8145   20.3920 C   0  0  0  0  0  0  0  0  0  0  0  0
    8.5417  -13.7080   19.0305 C   0  0  0  0  0  0  0  0  0  0  0  0
    7.8428  -14.5738   17.9938 C   0  0  0  0  0  0  0  0  0  0  0  0
    8.6204  -14.4047   16.6749 C   0  0  0  0  0  0  0  0  0  0  0  0
    8.0559  -15.2216   15.6462 N   0  0  0  0  0  0  0  0  0  0  0  0
   10.0596  -14.8483   21.0984 C   0  0  0  0  0  0  0  0  0  0  0  0
   10.5401  -14.6824   19.9338 O   0  0  0  0  0  0  0  0  0  0  0  0
   11.3210  -16.8397   25.2129 N   0  0  0  0  0  0  0  0  0  0  0  0
   11.4169  -17.7642   24.1465 C   0  0  0  0  0  0  0  0  0  0  0  0
   11.8991  -18.9205   24.3076 O   0  0  0  0  0  0  0  0  0  0  0  0
   10.9429  -17.3795   22.7965 C   0  0  0  0  0  0  0  0  0  0  0  0
   11.7923  -16.2318   22.3040 C   0  0  2  0  0  0  0  0  0  0  0  0
   11.0293  -15.0175   22.1296 N   0  0  0  0  0  0  0  0  0  0  0  0
   12.4187  -16.5620   20.9996 C   0  0  0  0  0  0  0  0  0  0  0  0
   13.3305  -17.4208   20.8998 O   0  0  0  0  0  0  0  0  0  0  0  0
   12.0285  -15.9361   19.8120 O   0  0  0  0  0  0  0  0  0  0  0  0
  2  1  1  0
  3  2  2  0
  4  3  1  0
  5 11  1  0
  5  4  2  0
  6  5  1  0
  7  6  1  0
  7  9  1  0
  7  8  1  1
  9 10  2  0
 11 12  2  0
 12  2  1  0
 13  9  1  0
 13 14  1  0
 14 15  1  1
 15 16  1  0
 16 17  1  0
 17 18  1  0
 18 19  1  0
 20 14  1  0
 20 21  2  0
 22 23  1  0
 23 25  1  0
 24 23  2  0
 26 25  1  6
 26 27  1  0
 27 20  1  0
 28 30  1  0
 28 26  1  0
 29 28  2  0
M  END
$$$$
