YKN.pdb
     RDKit          3D

 30 30  0  0  1  0  0  0  0  0999 V2000
    6.1225  -10.5138   27.5216 O   0  0  0  0  0  0  0  0  0  0  0  0
    6.5199  -11.7894   27.1362 C   0  0  0  0  0  0  0  0  0  0  0  0
    7.8425  -12.1085   26.8919 C   0  0  0  0  0  0  0  0  0  0  0  0
    8.2648  -13.3557   26.5108 C   0  0  0  0  0  0  0  0  0  0  0  0
    7.3073  -14.3470   26.3642 C   0  0  0  0  0  0  0  0  0  0  0  0
    7.6933  -15.7278   25.9528 C   0  0  0  0  0  0  0  0  0  0  0  0
    6.7194  -16.2611   24.9469 C   0  0  2  0  0  0  0  0  0  0  0  0
    6.2331  -17.5440   25.3482 N   0  0  0  0  0  0  0  0  0  0  0  0
    7.4174  -16.3190   23.6162 C   0  0  0  0  0  0  0  0  0  0  0  0
    8.0635  -17.3356   23.2783 O   0  0  0  0  0  0  0  0  0  0  0  0
    5.9696  -14.0685   26.5994 C   0  0  0  0  0  0  0  0  0  0  0  0
    5.5926  -12.7986   26.9811 C   0  0  0  0  0  0  0  0  0  0  0  0
    7.3512  -15.2242   22.7312 N   0  0  0  0  0  0  0  0  0  0  0  0
    8.0343  -15.0074   21.5138 C   0  0  1  0  0  0  0  0  0  0  0  0
    7.7893  -13.6728   20.8247 C   0  0  0  0  0  0  0  0  0  0  0  0
    8.5254  -13.4601   19.5586 C   0  0  0  0  0  0  0  0  0  0  0  0
    7.7394  -13.8339   18.3115 C   0  0  0  0  0  0  0  0  0  0  0  0
    8.6999  -13.6809   17.1170 C   0  0  0  0  0  0  0  0  0  0  0  0
    8.0434  -14.0200   15.8930 N   0  0  0  0  0  0  0  0  0  0  0  0
    9.4572  -15.3236   21.4737 C   0  0  0  0  0  0  0  0  0  0  0  0
   10.2493  -14.7958   22.3157 O   0  0  0  0  0  0  0  0  0  0  0  0
   13.2664  -19.7498   20.7208 N   0  0  0  0  0  0  0  0  0  0  0  0
   12.8070  -18.5948   21.3960 C   0  0  0  0  0  0  0  0  0  0  0  0
   13.5624  -17.9172   22.1481 O   0  0  0  0  0  0  0  0  0  0  0  0
   11.4024  -18.1552   21.2264 C   0  0  0  0  0  0  0  0  0  0  0  0
   11.4080  -16.7339   20.7154 C   0  0  2  0  0  0  0  0  0  0  0  0
   10.0744  -16.2065   20.5402 N   0  0  0  0  0  0  0  0  0  0  0  0
   12.1025  -16.6476   19.4065 C   0  0  0  0  0  0  0  0  0  0  0  0
   13.3528  -16.7303   19.3120 O   0  0  0  0  0  0  0  0  0  0  0  0
   11.4040  -16.4699   18.2086 O   0  0  0  0  0  0  0  0  0  0  0  0
  2  1  1  0
  3  2  2  0
  4  3  1  0
  5 11  1  0
  5  4  2  0
  6  5  1  0
  7  6  1  0
  7  9  1  0
  7  8  1  1
  9 10  2  0
 11 12  2  0
 12  2  1  0
 13  9  1  0
 13 14  1  0
 14 15  1  1
 15 16  1  0
 16 17  1  0
 17 18  1  0
 18 19  1  0
 20 14  1  0
 20 21  2  0
 22 23  1  0
 23 25  1  0
 24 23  2  0
 26 25  1  6
 26 27  1  0
 27 20  1  0
 28 30  1  0
 28 26  1  0
 29 28  2  0
M  END
$$$$
