YKN.pdb
     RDKit          3D

 30 30  0  0  1  0  0  0  0  0999 V2000
    6.9905  -10.5699   26.6334 O   0  0  0  0  0  0  0  0  0  0  0  0
    6.9925  -11.9603   26.6213 C   0  0  0  0  0  0  0  0  0  0  0  0
    5.8418  -12.7022   26.8114 C   0  0  0  0  0  0  0  0  0  0  0  0
    5.8120  -14.0726   26.8051 C   0  0  0  0  0  0  0  0  0  0  0  0
    7.0055  -14.7454   26.5959 C   0  0  0  0  0  0  0  0  0  0  0  0
    7.0492  -16.2362   26.5753 C   0  0  0  0  0  0  0  0  0  0  0  0
    6.3882  -16.7578   25.3360 C   0  0  2  0  0  0  0  0  0  0  0  0
    5.9446  -18.1028   25.5301 N   0  0  0  0  0  0  0  0  0  0  0  0
    7.3769  -16.6525   24.2079 C   0  0  0  0  0  0  0  0  0  0  0  0
    8.3734  -17.4075   24.1603 O   0  0  0  0  0  0  0  0  0  0  0  0
    8.1825  -14.0390   26.4010 C   0  0  0  0  0  0  0  0  0  0  0  0
    8.1630  -12.6607   26.4157 C   0  0  0  0  0  0  0  0  0  0  0  0
    7.1913  -15.6984   23.1874 N   0  0  0  0  0  0  0  0  0  0  0  0
    8.0769  -15.2875   22.1664 C   0  0  1  0  0  0  0  0  0  0  0  0
    7.6410  -14.0956   21.3267 C   0  0  0  0  0  0  0  0  0  0  0  0
    8.4573  -13.8267   20.1220 C   0  0  0  0  0  0  0  0  0  0  0  0
    7.7262  -14.0626   18.8096 C   0  0  0  0  0  0  0  0  0  0  0  0
    8.7438  -13.8102   17.6811 C   0  0  0  0  0  0  0  0  0  0  0  0
    8.1184  -13.9251   16.4005 N   0  0  0  0  0  0  0  0  0  0  0  0
    9.4872  -15.1517   22.5117 C   0  0  0  0  0  0  0  0  0  0  0  0
    9.8217  -14.6785   23.6426 O   0  0  0  0  0  0  0  0  0  0  0  0
   13.7910  -17.1576   24.6232 N   0  0  0  0  0  0  0  0  0  0  0  0
   13.2123  -17.5089   23.3812 C   0  0  0  0  0  0  0  0  0  0  0  0
   13.8465  -18.1727   22.5138 O   0  0  0  0  0  0  0  0  0  0  0  0
   11.8236  -17.0931   23.0745 C   0  0  0  0  0  0  0  0  0  0  0  0
   11.8785  -15.8836   22.1715 C   0  0  2  0  0  0  0  0  0  0  0  0
   10.5763  -15.5141   21.6664 N   0  0  0  0  0  0  0  0  0  0  0  0
   12.7594  -16.1373   21.0043 C   0  0  0  0  0  0  0  0  0  0  0  0
   12.3888  -16.8455   20.0347 O   0  0  0  0  0  0  0  0  0  0  0  0
   14.0484  -15.6025   20.9201 O   0  0  0  0  0  0  0  0  0  0  0  0
  2  1  1  0
  3  2  2  0
  4  3  1  0
  5 11  1  0
  5  4  2  0
  6  5  1  0
  7  6  1  0
  7  9  1  0
  7  8  1  1
  9 10  2  0
 11 12  2  0
 12  2  1  0
 13  9  1  0
 13 14  1  0
 14 15  1  1
 15 16  1  0
 16 17  1  0
 17 18  1  0
 18 19  1  0
 20 14  1  0
 20 21  2  0
 22 23  1  0
 23 25  1  0
 24 23  2  0
 26 25  1  1
 26 27  1  0
 27 20  1  0
 28 30  1  0
 28 26  1  0
 29 28  2  0
M  END
$$$$
