YKN.pdb
     RDKit          3D

 30 30  0  0  1  0  0  0  0  0999 V2000
    5.8998  -10.6825   27.7186 O   0  0  0  0  0  0  0  0  0  0  0  0
    6.3691  -11.8926   27.2194 C   0  0  0  0  0  0  0  0  0  0  0  0
    7.6876  -12.2853   27.3541 C   0  0  0  0  0  0  0  0  0  0  0  0
    8.1797  -13.4708   26.8730 C   0  0  0  0  0  0  0  0  0  0  0  0
    7.3011  -14.3179   26.2163 C   0  0  0  0  0  0  0  0  0  0  0  0
    7.7656  -15.6246   25.6671 C   0  0  0  0  0  0  0  0  0  0  0  0
    6.7080  -16.2252   24.7920 C   0  0  2  0  0  0  0  0  0  0  0  0
    6.2212  -17.4453   25.3559 N   0  0  0  0  0  0  0  0  0  0  0  0
    7.3054  -16.4387   23.4286 C   0  0  0  0  0  0  0  0  0  0  0  0
    8.0234  -17.4364   23.1957 O   0  0  0  0  0  0  0  0  0  0  0  0
    5.9703  -13.9618   26.0598 C   0  0  0  0  0  0  0  0  0  0  0  0
    5.5212  -12.7586   26.5609 C   0  0  0  0  0  0  0  0  0  0  0  0
    7.0620  -15.5136   22.3937 N   0  0  0  0  0  0  0  0  0  0  0  0
    7.8453  -15.2038   21.2596 C   0  0  1  0  0  0  0  0  0  0  0  0
    7.6596  -13.8163   20.6629 C   0  0  0  0  0  0  0  0  0  0  0  0
    8.4039  -13.5513   19.4115 C   0  0  0  0  0  0  0  0  0  0  0  0
    7.6226  -13.8636   18.1448 C   0  0  0  0  0  0  0  0  0  0  0  0
    8.5563  -13.5576   16.9585 C   0  0  0  0  0  0  0  0  0  0  0  0
    7.9098  -13.8492   15.7171 N   0  0  0  0  0  0  0  0  0  0  0  0
    9.2665  -15.5258   21.3136 C   0  0  0  0  0  0  0  0  0  0  0  0
    9.9258  -15.3144   22.3791 O   0  0  0  0  0  0  0  0  0  0  0  0
   12.6156  -20.0662   21.4215 N   0  0  0  0  0  0  0  0  0  0  0  0
   12.1502  -18.7442   21.6129 C   0  0  0  0  0  0  0  0  0  0  0  0
   12.7027  -17.9542   22.4290 O   0  0  0  0  0  0  0  0  0  0  0  0
   10.9822  -18.2582   20.8417 C   0  0  0  0  0  0  0  0  0  0  0  0
   11.2431  -16.8269   20.4362 C   0  0  2  0  0  0  0  0  0  0  0  0
   10.0227  -16.0792   20.2394 N   0  0  0  0  0  0  0  0  0  0  0  0
   12.0155  -16.7706   19.1700 C   0  0  0  0  0  0  0  0  0  0  0  0
   11.4517  -16.7925   18.0473 O   0  0  0  0  0  0  0  0  0  0  0  0
   13.4112  -16.6902   19.1577 O   0  0  0  0  0  0  0  0  0  0  0  0
  2  1  1  0
  3  2  2  0
  4  3  1  0
  5 11  1  0
  5  4  2  0
  6  5  1  0
  7  6  1  0
  7  9  1  0
  7  8  1  1
  9 10  2  0
 11 12  2  0
 12  2  1  0
 13  9  1  0
 13 14  1  0
 14 15  1  1
 15 16  1  0
 16 17  1  0
 17 18  1  0
 18 19  1  0
 20 14  1  0
 20 21  2  0
 22 23  1  0
 23 25  1  0
 24 23  2  0
 26 25  1  6
 26 27  1  0
 27 20  1  0
 28 30  1  0
 28 26  1  0
 29 28  2  0
M  END
$$$$
