YKN.pdb
     RDKit          3D

 30 30  0  0  1  0  0  0  0  0999 V2000
    7.9811  -13.9097   14.5252 O   0  0  0  0  0  0  0  0  0  0  0  0
    7.9829  -14.2059   15.8838 C   0  0  0  0  0  0  0  0  0  0  0  0
    7.8538  -15.4979   16.3581 C   0  0  0  0  0  0  0  0  0  0  0  0
    7.8518  -15.8211   17.6902 C   0  0  0  0  0  0  0  0  0  0  0  0
    7.9870  -14.7905   18.6069 C   0  0  0  0  0  0  0  0  0  0  0  0
    7.9941  -15.0672   20.0726 C   0  0  0  0  0  0  0  0  0  0  0  0
    9.3556  -14.8096   20.6428 C   0  0  2  0  0  0  0  0  0  0  0  0
   10.3089  -15.7286   20.1043 N   0  0  0  0  0  0  0  0  0  0  0  0
    9.2562  -14.9200   22.1392 C   0  0  0  0  0  0  0  0  0  0  0  0
    9.7913  -15.8746   22.7456 O   0  0  0  0  0  0  0  0  0  0  0  0
    8.1191  -13.4803   18.1730 C   0  0  0  0  0  0  0  0  0  0  0  0
    8.1156  -13.2040   16.8224 C   0  0  0  0  0  0  0  0  0  0  0  0
    8.5564  -13.9453   22.8785 N   0  0  0  0  0  0  0  0  0  0  0  0
    8.2122  -13.9289   24.2485 C   0  0  1  0  0  0  0  0  0  0  0  0
    7.1781  -12.8981   24.6778 C   0  0  0  0  0  0  0  0  0  0  0  0
    6.9401  -12.7969   26.1349 C   0  0  0  0  0  0  0  0  0  0  0  0
    5.9509  -11.7114   26.5298 C   0  0  0  0  0  0  0  0  0  0  0  0
    5.8703  -11.7203   28.0680 C   0  0  0  0  0  0  0  0  0  0  0  0
    4.9844  -10.6997   28.5344 N   0  0  0  0  0  0  0  0  0  0  0  0
    7.9203  -15.2077   24.8855 C   0  0  0  0  0  0  0  0  0  0  0  0
    6.9458  -15.9135   24.4767 O   0  0  0  0  0  0  0  0  0  0  0  0
   11.4893  -19.3308   24.6233 N   0  0  0  0  0  0  0  0  0  0  0  0
   10.1292  -18.9926   24.8149 C   0  0  0  0  0  0  0  0  0  0  0  0
    9.2589  -19.8632   25.0974 O   0  0  0  0  0  0  0  0  0  0  0  0
    9.6981  -17.5811   24.6835 C   0  0  0  0  0  0  0  0  0  0  0  0
    9.0961  -17.1441   25.9980 C   0  0  2  0  0  0  0  0  0  0  0  0
    8.6543  -15.7688   25.9710 N   0  0  0  0  0  0  0  0  0  0  0  0
   10.0816  -17.2796   27.0995 C   0  0  0  0  0  0  0  0  0  0  0  0
   10.6076  -18.3839   27.3873 O   0  0  0  0  0  0  0  0  0  0  0  0
   10.4780  -16.1868   27.8762 O   0  0  0  0  0  0  0  0  0  0  0  0
  2  1  1  0
  3  2  2  0
  4  3  1  0
  5 11  1  0
  5  4  2  0
  6  5  1  0
  7  6  1  0
  7  9  1  0
  7  8  1  6
  9 10  2  0
 11 12  2  0
 12  2  1  0
 13  9  1  0
 13 14  1  0
 14 15  1  6
 15 16  1  0
 16 17  1  0
 17 18  1  0
 18 19  1  0
 20 14  1  0
 20 21  2  0
 22 23  1  0
 23 25  1  0
 24 23  2  0
 26 25  1  6
 26 27  1  0
 27 20  1  0
 28 30  1  0
 28 26  1  0
 29 28  2  0
M  END
$$$$
