YKN.pdb
     RDKit          3D

 30 30  0  0  1  0  0  0  0  0999 V2000
    8.9838  -12.2017   17.3400 O   0  0  0  0  0  0  0  0  0  0  0  0
    8.6906  -12.7855   18.5675 C   0  0  0  0  0  0  0  0  0  0  0  0
    9.3401  -13.9186   19.0203 C   0  0  0  0  0  0  0  0  0  0  0  0
    9.0733  -14.5168   20.2244 C   0  0  0  0  0  0  0  0  0  0  0  0
    8.0969  -13.9488   21.0275 C   0  0  0  0  0  0  0  0  0  0  0  0
    7.7538  -14.5447   22.3511 C   0  0  0  0  0  0  0  0  0  0  0  0
    6.9402  -15.7891   22.1648 C   0  0  2  0  0  0  0  0  0  0  0  0
    5.6228  -15.4662   21.7135 N   0  0  0  0  0  0  0  0  0  0  0  0
    6.9173  -16.5245   23.4762 C   0  0  0  0  0  0  0  0  0  0  0  0
    6.6673  -15.9199   24.5426 O   0  0  0  0  0  0  0  0  0  0  0  0
    7.4216  -12.8119   20.6106 C   0  0  0  0  0  0  0  0  0  0  0  0
    7.7246  -12.2456   19.3908 C   0  0  0  0  0  0  0  0  0  0  0  0
    7.1781  -17.9089   23.5190 N   0  0  0  0  0  0  0  0  0  0  0  0
    7.2539  -18.7775   24.6305 C   0  0  1  0  0  0  0  0  0  0  0  0
    6.9173  -20.2395   24.3755 C   0  0  0  0  0  0  0  0  0  0  0  0
    6.9551  -21.1228   25.5624 C   0  0  0  0  0  0  0  0  0  0  0  0
    6.5757  -22.5672   25.2754 C   0  0  0  0  0  0  0  0  0  0  0  0
    6.5773  -23.3053   26.6274 C   0  0  0  0  0  0  0  0  0  0  0  0
    6.0623  -24.6309   26.4810 N   0  0  0  0  0  0  0  0  0  0  0  0
    8.4395  -18.6895   25.4749 C   0  0  0  0  0  0  0  0  0  0  0  0
    9.5964  -18.7033   24.9493 O   0  0  0  0  0  0  0  0  0  0  0  0
   11.7354  -17.1850   29.7627 N   0  0  0  0  0  0  0  0  0  0  0  0
   10.6191  -18.0490   29.8536 C   0  0  0  0  0  0  0  0  0  0  0  0
   10.5981  -19.0303   30.6486 O   0  0  0  0  0  0  0  0  0  0  0  0
    9.4335  -17.8090   28.9980 C   0  0  0  0  0  0  0  0  0  0  0  0
    9.6299  -18.5488   27.6959 C   0  0  2  0  0  0  0  0  0  0  0  0
    8.4270  -18.5851   26.8965 N   0  0  0  0  0  0  0  0  0  0  0  0
   10.0484  -19.9509   27.9448 C   0  0  0  0  0  0  0  0  0  0  0  0
    9.2154  -20.8573   28.1968 O   0  0  0  0  0  0  0  0  0  0  0  0
   11.3910  -20.3391   27.9121 O   0  0  0  0  0  0  0  0  0  0  0  0
  2  1  1  0
  3  2  2  0
  4  3  1  0
  5 11  1  0
  5  4  2  0
  6  5  1  0
  7  6  1  0
  7  9  1  0
  7  8  1  1
  9 10  2  0
 11 12  2  0
 12  2  1  0
 13  9  1  0
 13 14  1  0
 14 15  1  6
 15 16  1  0
 16 17  1  0
 17 18  1  0
 18 19  1  0
 20 14  1  0
 20 21  2  0
 22 23  1  0
 23 25  1  0
 24 23  2  0
 26 25  1  1
 26 27  1  0
 27 20  1  0
 28 30  1  0
 28 26  1  0
 29 28  2  0
M  END
$$$$
