MRV.pdb
     RDKit          3D

 27 26  0  0  1  0  0  0  0  0999 V2000
   17.2418  -24.1542  -16.3026 C   0  0  0  0  0  0  0  0  0  0  0  0
   15.9516  -24.3267  -15.0621 S   0  0  0  0  0  0  0  0  0  0  0  0
   16.5033  -23.5763  -13.5242 C   0  0  0  0  0  0  0  0  0  0  0  0
   17.6202  -22.6168  -13.7545 C   0  0  0  0  0  0  0  0  0  0  0  0
   18.1684  -22.0184  -12.4736 C   0  0  2  0  0  0  0  0  0  0  0  0
   17.2299  -21.1983  -11.7705 N   0  0  0  0  0  0  0  0  0  0  0  0
   19.3334  -21.1880  -12.8657 C   0  0  0  0  0  0  0  0  0  0  0  0
   19.2168  -19.9615  -12.9141 O   0  0  0  0  0  0  0  0  0  0  0  0
   27.6051  -21.2131  -10.5563 N   0  0  0  0  0  0  0  0  0  0  0  0
   27.2351  -21.2122  -11.9162 C   0  0  0  0  0  0  0  0  0  0  0  0
   28.0670  -21.0128  -12.8846 N   0  0  0  0  0  0  0  0  0  0  0  0
   25.8707  -21.4420  -12.2820 N   0  0  0  0  0  0  0  0  0  0  0  0
   25.5079  -21.4498  -13.6945 C   0  0  0  0  0  0  0  0  0  0  0  0
   24.1922  -20.7596  -13.8735 C   0  0  0  0  0  0  0  0  0  0  0  0
   23.0333  -21.5614  -13.4033 C   0  0  0  0  0  0  0  0  0  0  0  0
   21.6961  -20.9154  -13.6017 C   0  0  2  0  0  0  0  0  0  0  0  0
   20.6012  -21.7673  -13.1934 N   0  0  0  0  0  0  0  0  0  0  0  0
   21.5988  -20.6158  -15.0798 C   0  0  0  0  0  0  0  0  0  0  0  0
   21.4516  -21.5257  -15.9336 O   0  0  0  0  0  0  0  0  0  0  0  0
   27.7612  -20.9765  -13.8808 C   0  0  0  0  0  0  0  0  0  0  0  0
   21.1241  -17.2186  -18.6520 C   0  0  2  0  0  0  0  0  0  0  0  0
   21.0146  -17.6303  -17.2018 C   0  0  0  0  0  0  0  0  0  0  0  0
   19.5923  -17.6638  -16.7145 C   0  0  1  0  0  0  0  0  0  0  0  0
   21.6542  -18.9762  -16.9694 N   0  0  0  0  0  0  0  0  0  0  0  0
   21.6724  -19.2806  -15.5522 C   0  0  0  0  0  0  0  0  0  0  0  0
   23.0497  -19.0166  -17.5178 O   0  0  0  0  0  0  0  0  0  0  0  0
   24.1516  -18.6832  -16.7430 O   0  0  0  0  0  0  0  0  0  0  0  0
  2  1  1  0
  3  4  1  0
  3  2  1  0
  4  5  1  0
  5  6  1  6
  7  8  2  0
  7  5  1  0
 10 12  1  0
 10  9  1  0
 11 10  2  0
 13 14  1  0
 13 12  1  0
 14 15  1  0
 16 15  1  6
 16 17  1  0
 17  7  1  0
 18 16  1  0
 19 18  2  0
 21 20  1  1
 21 22  1  0
 23 21  1  0
 23 24  1  1
 24 18  1  0
 25 26  1  0
 25 23  1  0
 27 25  2  0
M  END
$$$$
