MRV.pdb
     RDKit          3D

 27 26  0  0  1  0  0  0  0  0999 V2000
   31.3729  -21.0324   -9.8070 C   0  0  0  0  0  0  0  0  0  0  0  0
   31.6367  -22.3901  -10.9560 S   0  0  0  0  0  0  0  0  0  0  0  0
   31.1467  -21.8736  -12.6070 C   0  0  0  0  0  0  0  0  0  0  0  0
   29.7214  -21.4395  -12.6429 C   0  0  0  0  0  0  0  0  0  0  0  0
   29.2923  -20.9064  -13.9961 C   0  0  2  0  0  0  0  0  0  0  0  0
   30.0727  -19.7980  -14.4548 N   0  0  0  0  0  0  0  0  0  0  0  0
   27.8820  -20.4720  -13.8458 C   0  0  0  0  0  0  0  0  0  0  0  0
   27.6344  -19.3748  -13.3409 O   0  0  0  0  0  0  0  0  0  0  0  0
   21.1331  -20.1022  -17.6974 N   0  0  0  0  0  0  0  0  0  0  0  0
   22.0779  -21.1136  -17.9629 C   0  0  0  0  0  0  0  0  0  0  0  0
   22.4834  -21.4209  -19.1507 N   0  0  0  0  0  0  0  0  0  0  0  0
   22.6411  -21.8622  -16.8810 N   0  0  0  0  0  0  0  0  0  0  0  0
   22.0369  -21.7583  -15.5577 C   0  0  0  0  0  0  0  0  0  0  0  0
   23.0141  -21.1322  -14.6130 C   0  0  0  0  0  0  0  0  0  0  0  0
   24.4251  -21.5115  -14.8820 C   0  0  0  0  0  0  0  0  0  0  0  0
   25.4315  -20.8977  -13.9574 C   0  0  2  0  0  0  0  0  0  0  0  0
   26.7872  -21.2912  -14.2711 N   0  0  0  0  0  0  0  0  0  0  0  0
   25.0599  -21.3714  -12.5712 C   0  0  0  0  0  0  0  0  0  0  0  0
   25.0992  -22.5859  -12.2516 O   0  0  0  0  0  0  0  0  0  0  0  0
   23.1774  -22.1802  -19.3215 C   0  0  0  0  0  0  0  0  0  0  0  0
   24.5688  -20.4184   -7.8146 C   0  0  2  0  0  0  0  0  0  0  0  0
   25.0344  -20.0798   -9.2122 C   0  0  0  0  0  0  0  0  0  0  0  0
   26.5114  -20.2921   -9.3986 C   0  0  1  0  0  0  0  0  0  0  0  0
   24.2803  -20.8798  -10.2447 N   0  0  0  0  0  0  0  0  0  0  0  0
   24.6500  -20.4461  -11.5777 C   0  0  0  0  0  0  0  0  0  0  0  0
   22.7979  -20.7478  -10.0581 O   0  0  0  0  0  0  0  0  0  0  0  0
   22.0979  -21.5458   -9.1643 O   0  0  0  0  0  0  0  0  0  0  0  0
  2  1  1  0
  3  4  1  0
  3  2  1  0
  4  5  1  0
  5  6  1  1
  7  8  2  0
  7  5  1  0
 10 12  1  0
 10  9  1  0
 11 10  2  0
 13 14  1  0
 13 12  1  0
 14 15  1  0
 16 15  1  6
 16 17  1  0
 17  7  1  0
 18 16  1  0
 19 18  2  0
 21 20  1  1
 21 22  1  0
 23 21  1  0
 23 24  1  6
 24 18  1  0
 25 26  1  0
 25 23  1  0
 27 25  2  0
M  END
$$$$
