MRV.pdb
     RDKit          3D

 27 26  0  0  1  0  0  0  0  0999 V2000
   25.7413  -13.7558  -16.0692 C   0  0  0  0  0  0  0  0  0  0  0  0
   27.3225  -14.5919  -15.8847 S   0  0  0  0  0  0  0  0  0  0  0  0
   27.1734  -16.2812  -16.4817 C   0  0  0  0  0  0  0  0  0  0  0  0
   26.1998  -17.0638  -15.6688 C   0  0  0  0  0  0  0  0  0  0  0  0
   25.6365  -18.2649  -16.4032 C   0  0  2  0  0  0  0  0  0  0  0  0
   24.7093  -17.9266  -17.4393 N   0  0  0  0  0  0  0  0  0  0  0  0
   24.9400  -19.0882  -15.3847 C   0  0  0  0  0  0  0  0  0  0  0  0
   23.8613  -18.7047  -14.9271 O   0  0  0  0  0  0  0  0  0  0  0  0
   21.8632  -26.9875  -13.3606 N   0  0  0  0  0  0  0  0  0  0  0  0
   21.3533  -25.9302  -14.1406 C   0  0  0  0  0  0  0  0  0  0  0  0
   20.1259  -25.8611  -14.5386 N   0  0  0  0  0  0  0  0  0  0  0  0
   22.2141  -24.8560  -14.5318 N   0  0  0  0  0  0  0  0  0  0  0  0
   23.5490  -24.7706  -13.9507 C   0  0  0  0  0  0  0  0  0  0  0  0
   23.7834  -23.3814  -13.4461 C   0  0  0  0  0  0  0  0  0  0  0  0
   24.4525  -22.4967  -14.4344 C   0  0  0  0  0  0  0  0  0  0  0  0
   24.7439  -21.1105  -13.9459 C   0  0  2  0  0  0  0  0  0  0  0  0
   25.4825  -20.3254  -14.9097 N   0  0  0  0  0  0  0  0  0  0  0  0
   25.5555  -21.2813  -12.6825 C   0  0  0  0  0  0  0  0  0  0  0  0
   26.6797  -21.8422  -12.6860 O   0  0  0  0  0  0  0  0  0  0  0  0
   19.7510  -25.0276  -15.0405 C   0  0  0  0  0  0  0  0  0  0  0  0
   27.6861  -19.6977  -10.8518 C   0  0  2  0  0  0  0  0  0  0  0  0
   26.6334  -19.9566   -9.7985 C   0  0  0  0  0  0  0  0  0  0  0  0
   25.7880  -18.7458   -9.5140 C   0  0  2  0  0  0  0  0  0  0  0  0
   25.7416  -21.1071  -10.1931 N   0  0  0  0  0  0  0  0  0  0  0  0
   25.0644  -20.8072  -11.4393 C   0  0  0  0  0  0  0  0  0  0  0  0
   24.7333  -21.4047   -9.1233 O   0  0  0  0  0  0  0  0  0  0  0  0
   23.3712  -21.2444   -9.3350 O   0  0  0  0  0  0  0  0  0  0  0  0
  2  1  1  0
  3  4  1  0
  3  2  1  0
  4  5  1  0
  5  6  1  6
  7  8  2  0
  7  5  1  0
 10 12  1  0
 10  9  1  0
 11 10  2  0
 13 14  1  0
 13 12  1  0
 14 15  1  0
 16 15  1  6
 16 17  1  0
 17  7  1  0
 18 16  1  0
 19 18  2  0
 21 20  1  1
 21 22  1  0
 23 21  1  0
 23 24  1  1
 24 18  1  0
 25 26  1  0
 25 23  1  0
 27 25  2  0
M  END
$$$$
