MRV.pdb
     RDKit          3D

 27 26  0  0  1  0  0  0  0  0999 V2000
   15.1227  -23.5984    5.7368 C   0  0  0  0  0  0  0  0  0  0  0  0
   13.6154  -23.0804    4.9045 S   0  0  0  0  0  0  0  0  0  0  0  0
   13.9858  -21.7037    3.8090 C   0  0  0  0  0  0  0  0  0  0  0  0
   15.3505  -21.1590    4.0587 C   0  0  0  0  0  0  0  0  0  0  0  0
   15.6773  -19.9495    3.2044 C   0  0  2  0  0  0  0  0  0  0  0  0
   16.0338  -20.2728    1.8568 N   0  0  0  0  0  0  0  0  0  0  0  0
   16.8261  -19.2753    3.8571 C   0  0  0  0  0  0  0  0  0  0  0  0
   17.9738  -19.5431    3.4951 O   0  0  0  0  0  0  0  0  0  0  0  0
   19.1585  -11.1234    5.4094 N   0  0  0  0  0  0  0  0  0  0  0  0
   20.1396  -11.8778    6.0836 C   0  0  0  0  0  0  0  0  0  0  0  0
   21.1707  -11.3572    6.6626 N   0  0  0  0  0  0  0  0  0  0  0  0
   20.0192  -13.3023    6.1511 N   0  0  0  0  0  0  0  0  0  0  0  0
   18.7826  -13.9307    5.7007 C   0  0  0  0  0  0  0  0  0  0  0  0
   18.8924  -15.4145    5.8603 C   0  0  0  0  0  0  0  0  0  0  0  0
   17.6977  -16.1529    5.3759 C   0  0  0  0  0  0  0  0  0  0  0  0
   17.7965  -17.6450    5.4692 C   0  0  2  0  0  0  0  0  0  0  0  0
   16.6464  -18.3146    4.9037 N   0  0  0  0  0  0  0  0  0  0  0  0
   17.9085  -17.9589    6.9433 C   0  0  0  0  0  0  0  0  0  0  0  0
   16.9335  -17.8318    7.7254 O   0  0  0  0  0  0  0  0  0  0  0  0
   21.8701  -11.9354    7.1763 C   0  0  0  0  0  0  0  0  0  0  0  0
   19.8272  -20.4922   10.5539 C   0  0  2  0  0  0  0  0  0  0  0  0
   19.5685  -20.1763    9.0986 C   0  0  0  0  0  0  0  0  0  0  0  0
   18.4500  -20.9965    8.5174 C   0  0  1  0  0  0  0  0  0  0  0  0
   19.2661  -18.7114    8.9062 N   0  0  0  0  0  0  0  0  0  0  0  0
   19.1346  -18.4117    7.4939 C   0  0  0  0  0  0  0  0  0  0  0  0
   20.3350  -17.8516    9.5128 O   0  0  0  0  0  0  0  0  0  0  0  0
   20.2439  -17.3775   10.8137 O   0  0  0  0  0  0  0  0  0  0  0  0
  2  1  1  0
  3  4  1  0
  3  2  1  0
  4  5  1  0
  5  6  1  6
  7  8  2  0
  7  5  1  0
 10 12  1  0
 10  9  1  0
 11 10  2  0
 13 14  1  0
 13 12  1  0
 14 15  1  0
 16 15  1  1
 16 17  1  0
 17  7  1  0
 18 16  1  0
 19 18  2  0
 21 20  1  6
 21 22  1  0
 23 21  1  0
 23 24  1  6
 24 18  1  0
 25 26  1  0
 25 23  1  0
 27 25  2  0
M  END
$$$$
