MRV.pdb
     RDKit          3D

 27 26  0  0  1  0  0  0  0  0999 V2000
   32.5640  -21.7285   -8.0361 C   0  0  0  0  0  0  0  0  0  0  0  0
   33.4902  -21.8424   -9.5732 S   0  0  0  0  0  0  0  0  0  0  0  0
   32.4072  -22.4467  -10.8749 C   0  0  0  0  0  0  0  0  0  0  0  0
   31.1088  -21.7153  -10.8885 C   0  0  0  0  0  0  0  0  0  0  0  0
   30.1138  -22.2812  -11.8831 C   0  0  2  0  0  0  0  0  0  0  0  0
   30.6643  -22.5130  -13.1834 N   0  0  0  0  0  0  0  0  0  0  0  0
   29.0213  -21.2840  -11.9943 C   0  0  0  0  0  0  0  0  0  0  0  0
   28.4767  -20.8624  -10.9717 O   0  0  0  0  0  0  0  0  0  0  0  0
   29.5009  -19.6117  -18.1819 N   0  0  0  0  0  0  0  0  0  0  0  0
   28.2356  -19.0275  -18.3912 C   0  0  0  0  0  0  0  0  0  0  0  0
   27.4413  -19.3648  -19.3530 N   0  0  0  0  0  0  0  0  0  0  0  0
   27.7718  -18.0007  -17.5088 N   0  0  0  0  0  0  0  0  0  0  0  0
   28.4434  -17.8108  -16.2283 C   0  0  0  0  0  0  0  0  0  0  0  0
   28.4512  -19.1036  -15.4746 C   0  0  0  0  0  0  0  0  0  0  0  0
   27.2105  -19.3416  -14.6928 C   0  0  0  0  0  0  0  0  0  0  0  0
   27.4261  -19.9105  -13.3236 C   0  0  2  0  0  0  0  0  0  0  0  0
   28.5728  -20.7892  -13.2610 N   0  0  0  0  0  0  0  0  0  0  0  0
   26.1656  -20.6758  -12.9926 C   0  0  0  0  0  0  0  0  0  0  0  0
   25.8515  -21.7315  -13.5971 O   0  0  0  0  0  0  0  0  0  0  0  0
   26.5142  -18.9086  -19.4935 C   0  0  0  0  0  0  0  0  0  0  0  0
   24.9343  -21.3228   -9.3272 C   0  0  2  0  0  0  0  0  0  0  0  0
   23.7888  -20.7985  -10.1625 C   0  0  0  0  0  0  0  0  0  0  0  0
   23.4584  -19.3634   -9.8576 C   0  0  2  0  0  0  0  0  0  0  0  0
   24.0802  -20.9421  -11.6352 N   0  0  0  0  0  0  0  0  0  0  0  0
   25.2887  -20.2177  -11.9764 C   0  0  0  0  0  0  0  0  0  0  0  0
   22.9353  -20.4447  -12.4668 O   0  0  0  0  0  0  0  0  0  0  0  0
   21.7415  -21.1454  -12.5642 O   0  0  0  0  0  0  0  0  0  0  0  0
  2  1  1  0
  3  4  1  0
  3  2  1  0
  4  5  1  0
  5  6  1  6
  7  8  2  0
  7  5  1  0
 10 12  1  0
 10  9  1  0
 11 10  2  0
 13 14  1  0
 13 12  1  0
 14 15  1  0
 16 15  1  6
 16 17  1  0
 17  7  1  0
 18 16  1  0
 19 18  2  0
 21 20  1  1
 21 22  1  0
 23 21  1  0
 23 24  1  6
 24 18  1  0
 25 26  1  0
 25 23  1  0
 27 25  2  0
M  END
$$$$
