MRV.pdb
     RDKit          3D

 27 26  0  0  1  0  0  0  0  0999 V2000
   28.8522  -14.4059  -17.5289 C   0  0  0  0  0  0  0  0  0  0  0  0
   29.3453  -16.0577  -18.0404 S   0  0  0  0  0  0  0  0  0  0  0  0
   27.9036  -17.1320  -18.0463 C   0  0  0  0  0  0  0  0  0  0  0  0
   27.2955  -17.2374  -16.6897 C   0  0  0  0  0  0  0  0  0  0  0  0
   27.9556  -18.2883  -15.8183 C   0  0  2  0  0  0  0  0  0  0  0  0
   28.4132  -19.4350  -16.5417 N   0  0  0  0  0  0  0  0  0  0  0  0
   26.9322  -18.7177  -14.8341 C   0  0  0  0  0  0  0  0  0  0  0  0
   26.3673  -17.8724  -14.1366 O   0  0  0  0  0  0  0  0  0  0  0  0
   22.7337  -24.6493  -16.1195 N   0  0  0  0  0  0  0  0  0  0  0  0
   23.7725  -25.0014  -15.2346 C   0  0  0  0  0  0  0  0  0  0  0  0
   24.6422  -25.9244  -15.4821 N   0  0  0  0  0  0  0  0  0  0  0  0
   23.9021  -24.3193  -13.9831 N   0  0  0  0  0  0  0  0  0  0  0  0
   22.9377  -23.2807  -13.6394 C   0  0  0  0  0  0  0  0  0  0  0  0
   23.6678  -22.0471  -13.2097 C   0  0  0  0  0  0  0  0  0  0  0  0
   24.7376  -21.6324  -14.1535 C   0  0  0  0  0  0  0  0  0  0  0  0
   25.5529  -20.4573  -13.7072 C   0  0  2  0  0  0  0  0  0  0  0  0
   26.5741  -20.0937  -14.6643 N   0  0  0  0  0  0  0  0  0  0  0  0
   26.1887  -20.8699  -12.3998 C   0  0  0  0  0  0  0  0  0  0  0  0
   27.1003  -21.7329  -12.3476 O   0  0  0  0  0  0  0  0  0  0  0  0
   25.4265  -26.1381  -14.8290 C   0  0  0  0  0  0  0  0  0  0  0  0
   26.1568  -18.5169   -8.9316 C   0  0  2  0  0  0  0  0  0  0  0  0
   26.9864  -19.7618   -9.1477 C   0  0  0  0  0  0  0  0  0  0  0  0
   27.4992  -20.3473   -7.8609 C   0  0  1  0  0  0  0  0  0  0  0  0
   26.2056  -20.8114   -9.8980 N   0  0  0  0  0  0  0  0  0  0  0  0
   25.7685  -20.2871  -11.1770 C   0  0  0  0  0  0  0  0  0  0  0  0
   25.0202  -21.2770   -9.1056 O   0  0  0  0  0  0  0  0  0  0  0  0
   25.1571  -22.1034   -7.9993 O   0  0  0  0  0  0  0  0  0  0  0  0
  2  1  1  0
  3  4  1  0
  3  2  1  0
  4  5  1  0
  5  6  1  6
  7  8  2  0
  7  5  1  0
 10 12  1  0
 10  9  1  0
 11 10  2  0
 13 14  1  0
 13 12  1  0
 14 15  1  0
 16 15  1  6
 16 17  1  0
 17  7  1  0
 18 16  1  0
 19 18  2  0
 21 20  1  6
 21 22  1  0
 23 21  1  0
 23 24  1  6
 24 18  1  0
 25 26  1  0
 25 23  1  0
 27 25  2  0
M  END
$$$$
