MRV.pdb
     RDKit          3D

 27 26  0  0  1  0  0  0  0  0999 V2000
   31.3051  -21.1897   -7.6068 C   0  0  0  0  0  0  0  0  0  0  0  0
   31.8486  -22.3531   -8.8656 S   0  0  0  0  0  0  0  0  0  0  0  0
   31.9368  -21.5119  -10.4521 C   0  0  0  0  0  0  0  0  0  0  0  0
   30.6099  -20.9662  -10.8555 C   0  0  0  0  0  0  0  0  0  0  0  0
   30.0863  -21.5611  -12.1483 C   0  0  2  0  0  0  0  0  0  0  0  0
   30.9793  -21.4125  -13.2565 N   0  0  0  0  0  0  0  0  0  0  0  0
   28.8202  -20.8505  -12.4524 C   0  0  0  0  0  0  0  0  0  0  0  0
   28.8289  -19.6255  -12.5907 O   0  0  0  0  0  0  0  0  0  0  0  0
   26.6148  -19.4245  -17.5546 N   0  0  0  0  0  0  0  0  0  0  0  0
   25.4021  -18.7069  -17.5320 C   0  0  0  0  0  0  0  0  0  0  0  0
   25.2601  -17.5246  -18.0338 N   0  0  0  0  0  0  0  0  0  0  0  0
   24.2425  -19.2892  -16.9283 N   0  0  0  0  0  0  0  0  0  0  0  0
   24.3730  -20.5596  -16.2241 C   0  0  0  0  0  0  0  0  0  0  0  0
   24.7560  -20.3018  -14.8007 C   0  0  0  0  0  0  0  0  0  0  0  0
   26.0088  -20.9870  -14.3904 C   0  0  0  0  0  0  0  0  0  0  0  0
   26.3810  -20.8134  -12.9496 C   0  0  2  0  0  0  0  0  0  0  0  0
   27.5759  -21.5452  -12.5921 N   0  0  0  0  0  0  0  0  0  0  0  0
   25.2012  -21.3239  -12.1551 C   0  0  0  0  0  0  0  0  0  0  0  0
   24.8912  -22.5413  -12.1342 O   0  0  0  0  0  0  0  0  0  0  0  0
   24.3521  -17.0129  -18.0012 C   0  0  0  0  0  0  0  0  0  0  0  0
   22.2115  -20.5733   -8.3373 C   0  0  2  0  0  0  0  0  0  0  0  0
   23.3298  -20.1183   -9.2467 C   0  0  0  0  0  0  0  0  0  0  0  0
   24.6809  -20.2050   -8.5920 C   0  0  1  0  0  0  0  0  0  0  0  0
   23.3441  -20.9119  -10.5291 N   0  0  0  0  0  0  0  0  0  0  0  0
   24.3984  -20.4311  -11.4002 C   0  0  0  0  0  0  0  0  0  0  0  0
   22.0226  -20.8295  -11.2339 O   0  0  0  0  0  0  0  0  0  0  0  0
   21.7731  -19.8801  -12.2147 O   0  0  0  0  0  0  0  0  0  0  0  0
  2  1  1  0
  3  4  1  0
  3  2  1  0
  4  5  1  0
  5  6  1  6
  7  8  2  0
  7  5  1  0
 10 12  1  0
 10  9  1  0
 11 10  2  0
 13 14  1  0
 13 12  1  0
 14 15  1  0
 16 15  1  6
 16 17  1  0
 17  7  1  0
 18 16  1  0
 19 18  2  0
 21 20  1  1
 21 22  1  0
 23 21  1  0
 23 24  1  6
 24 18  1  0
 25 26  1  0
 25 23  1  0
 27 25  2  0
M  END
$$$$
