MRV.pdb
     RDKit          3D

 27 26  0  0  1  0  0  0  0  0999 V2000
   27.0275  -17.6337  -16.2418 C   0  0  0  0  0  0  0  0  0  0  0  0
   27.9088  -17.7381  -14.6780 S   0  0  0  0  0  0  0  0  0  0  0  0
   27.5068  -19.2948  -13.8733 C   0  0  0  0  0  0  0  0  0  0  0  0
   26.0602  -19.6245  -14.0136 C   0  0  0  0  0  0  0  0  0  0  0  0
   25.6453  -20.8465  -13.2174 C   0  0  2  0  0  0  0  0  0  0  0  0
   26.2619  -22.0604  -13.6578 N   0  0  0  0  0  0  0  0  0  0  0  0
   24.1755  -20.9689  -13.3759 C   0  0  0  0  0  0  0  0  0  0  0  0
   23.7179  -21.6973  -14.2592 O   0  0  0  0  0  0  0  0  0  0  0  0
   20.3738  -22.8168   -7.9055 N   0  0  0  0  0  0  0  0  0  0  0  0
   19.3875  -21.9555   -8.4266 C   0  0  0  0  0  0  0  0  0  0  0  0
   18.1197  -22.1968   -8.3627 N   0  0  0  0  0  0  0  0  0  0  0  0
   19.7751  -20.7367   -9.0688 N   0  0  0  0  0  0  0  0  0  0  0  0
   21.1332  -20.2388   -8.8824 C   0  0  0  0  0  0  0  0  0  0  0  0
   21.9124  -20.4359  -10.1446 C   0  0  0  0  0  0  0  0  0  0  0  0
   21.0995  -20.2639  -11.3762 C   0  0  0  0  0  0  0  0  0  0  0  0
   21.8389  -20.4951  -12.6586 C   0  0  2  0  0  0  0  0  0  0  0  0
   23.2605  -20.2633  -12.5301 N   0  0  0  0  0  0  0  0  0  0  0  0
   21.2428  -19.5303  -13.6574 C   0  0  0  0  0  0  0  0  0  0  0  0
   21.5929  -18.3246  -13.7067 O   0  0  0  0  0  0  0  0  0  0  0  0
   17.4107  -21.5566   -8.7809 C   0  0  0  0  0  0  0  0  0  0  0  0
   18.8663  -18.8734  -17.9056 C   0  0  2  0  0  0  0  0  0  0  0  0
   19.5203  -19.7729  -16.8820 C   0  0  0  0  0  0  0  0  0  0  0  0
   20.8528  -20.2989  -17.3395 C   0  0  1  0  0  0  0  0  0  0  0  0
   19.6901  -19.0614  -15.5631 N   0  0  0  0  0  0  0  0  0  0  0  0
   20.2569  -19.9637  -14.5801 C   0  0  0  0  0  0  0  0  0  0  0  0
   18.3827  -18.5205  -15.0651 O   0  0  0  0  0  0  0  0  0  0  0  0
   17.9494  -17.2415  -15.3845 O   0  0  0  0  0  0  0  0  0  0  0  0
  2  1  1  0
  3  4  1  0
  3  2  1  0
  4  5  1  0
  5  6  1  6
  7  8  2  0
  7  5  1  0
 10 12  1  0
 10  9  1  0
 11 10  2  0
 13 14  1  0
 13 12  1  0
 14 15  1  0
 16 15  1  1
 16 17  1  0
 17  7  1  0
 18 16  1  0
 19 18  2  0
 21 20  1  6
 21 22  1  0
 23 21  1  0
 23 24  1  6
 24 18  1  0
 25 26  1  0
 25 23  1  0
 27 25  2  0
M  END
$$$$
