MRV.pdb
     RDKit          3D

 27 26  0  0  1  0  0  0  0  0999 V2000
   25.6364  -17.6508  -19.4879 C   0  0  0  0  0  0  0  0  0  0  0  0
   27.3661  -17.7105  -19.9759 S   0  0  0  0  0  0  0  0  0  0  0  0
   28.1554  -19.1224  -19.1911 C   0  0  0  0  0  0  0  0  0  0  0  0
   27.2840  -19.7214  -18.1409 C   0  0  0  0  0  0  0  0  0  0  0  0
   27.9651  -20.8264  -17.3571 C   0  0  2  0  0  0  0  0  0  0  0  0
   28.2758  -21.9834  -18.1396 N   0  0  0  0  0  0  0  0  0  0  0  0
   27.0239  -21.2142  -16.2781 C   0  0  0  0  0  0  0  0  0  0  0  0
   26.0839  -21.9699  -16.5340 O   0  0  0  0  0  0  0  0  0  0  0  0
   23.4207  -19.8477  -10.0509 N   0  0  0  0  0  0  0  0  0  0  0  0
   23.8498  -20.7903   -9.0951 C   0  0  0  0  0  0  0  0  0  0  0  0
   23.0835  -21.2784   -8.1764 N   0  0  0  0  0  0  0  0  0  0  0  0
   25.2031  -21.2556   -9.1133 N   0  0  0  0  0  0  0  0  0  0  0  0
   26.1249  -20.7143  -10.1054 C   0  0  0  0  0  0  0  0  0  0  0  0
   25.6718  -21.1133  -11.4747 C   0  0  0  0  0  0  0  0  0  0  0  0
   26.6068  -20.6996  -12.5525 C   0  0  0  0  0  0  0  0  0  0  0  0
   26.1858  -21.0871  -13.9372 C   0  0  2  0  0  0  0  0  0  0  0  0
   27.1707  -20.7365  -14.9362 N   0  0  0  0  0  0  0  0  0  0  0  0
   24.8944  -20.3464  -14.1974 C   0  0  0  0  0  0  0  0  0  0  0  0
   24.8228  -19.0937  -14.1338 O   0  0  0  0  0  0  0  0  0  0  0  0
   23.4271  -21.9709   -7.4766 C   0  0  0  0  0  0  0  0  0  0  0  0
   22.9139  -20.2123  -17.2601 C   0  0  2  0  0  0  0  0  0  0  0  0
   21.9791  -20.7317  -16.1919 C   0  0  0  0  0  0  0  0  0  0  0  0
   21.7828  -22.2208  -16.2675 C   0  0  2  0  0  0  0  0  0  0  0  0
   22.4693  -20.3616  -14.8144 N   0  0  0  0  0  0  0  0  0  0  0  0
   23.7096  -21.0539  -14.5249 C   0  0  0  0  0  0  0  0  0  0  0  0
   21.4461  -20.6887  -13.7675 O   0  0  0  0  0  0  0  0  0  0  0  0
   21.6082  -21.7525  -12.8914 O   0  0  0  0  0  0  0  0  0  0  0  0
  2  1  1  0
  3  4  1  0
  3  2  1  0
  4  5  1  0
  5  6  1  6
  7  8  2  0
  7  5  1  0
 10 12  1  0
 10  9  1  0
 11 10  2  0
 13 14  1  0
 13 12  1  0
 14 15  1  0
 16 15  1  1
 16 17  1  0
 17  7  1  0
 18 16  1  0
 19 18  2  0
 21 20  1  6
 21 22  1  0
 23 21  1  0
 23 24  1  1
 24 18  1  0
 25 26  1  0
 25 23  1  0
 27 25  2  0
M  END
$$$$
