MRV.pdb
     RDKit          3D

 27 26  0  0  1  0  0  0  0  0999 V2000
   23.2541  -24.9212  -19.5580 C   0  0  0  0  0  0  0  0  0  0  0  0
   24.4878  -23.7743  -18.9289 S   0  0  0  0  0  0  0  0  0  0  0  0
   25.4988  -24.6073  -17.6974 C   0  0  0  0  0  0  0  0  0  0  0  0
   24.6595  -25.2687  -16.6584 C   0  0  0  0  0  0  0  0  0  0  0  0
   24.5059  -24.4406  -15.3974 C   0  0  2  0  0  0  0  0  0  0  0  0
   25.6766  -24.4172  -14.5748 N   0  0  0  0  0  0  0  0  0  0  0  0
   23.3918  -25.0500  -14.6308 C   0  0  0  0  0  0  0  0  0  0  0  0
   23.4791  -26.2225  -14.2597 O   0  0  0  0  0  0  0  0  0  0  0  0
   17.4410  -25.6832   -9.4058 N   0  0  0  0  0  0  0  0  0  0  0  0
   18.4672  -24.9168   -8.8177 C   0  0  0  0  0  0  0  0  0  0  0  0
   18.9068  -25.1089   -7.6180 N   0  0  0  0  0  0  0  0  0  0  0  0
   19.0797  -23.8587   -9.5617 N   0  0  0  0  0  0  0  0  0  0  0  0
   18.6544  -23.6211  -10.9363 C   0  0  0  0  0  0  0  0  0  0  0  0
   19.3352  -24.5978  -11.8430 C   0  0  0  0  0  0  0  0  0  0  0  0
   20.4476  -24.0025  -12.6274 C   0  0  0  0  0  0  0  0  0  0  0  0
   21.1536  -24.9539  -13.5446 C   0  0  2  0  0  0  0  0  0  0  0  0
   22.2064  -24.3162  -14.3036 N   0  0  0  0  0  0  0  0  0  0  0  0
   20.0924  -25.4910  -14.4769 C   0  0  0  0  0  0  0  0  0  0  0  0
   19.5729  -24.7791  -15.3725 O   0  0  0  0  0  0  0  0  0  0  0  0
   19.6837  -24.5429   -7.2138 C   0  0  0  0  0  0  0  0  0  0  0  0
   18.1710  -29.2977  -16.7989 C   0  0  2  0  0  0  0  0  0  0  0  0
   19.2142  -28.6347  -15.9290 C   0  0  0  0  0  0  0  0  0  0  0  0
   20.4707  -28.2993  -16.6843 C   0  0  1  0  0  0  0  0  0  0  0  0
   18.6696  -27.3845  -15.2848 N   0  0  0  0  0  0  0  0  0  0  0  0
   19.6456  -26.8325  -14.3660 C   0  0  0  0  0  0  0  0  0  0  0  0
   17.3861  -27.6616  -14.5599 O   0  0  0  0  0  0  0  0  0  0  0  0
   16.1524  -27.5492  -15.1849 O   0  0  0  0  0  0  0  0  0  0  0  0
  2  1  1  0
  3  4  1  0
  3  2  1  0
  4  5  1  0
  5  6  1  1
  7  8  2  0
  7  5  1  0
 10 12  1  0
 10  9  1  0
 11 10  2  0
 13 14  1  0
 13 12  1  0
 14 15  1  0
 16 15  1  1
 16 17  1  0
 17  7  1  0
 18 16  1  0
 19 18  2  0
 21 20  1  1
 21 22  1  0
 23 21  1  0
 23 24  1  1
 24 18  1  0
 25 26  1  0
 25 23  1  0
 27 25  2  0
M  END
$$$$
