MRV.pdb
     RDKit          3D

 27 26  0  0  1  0  0  0  0  0999 V2000
   26.2271  -15.5002  -22.0574 C   0  0  0  0  0  0  0  0  0  0  0  0
   25.6398  -16.4928  -20.6778 S   0  0  0  0  0  0  0  0  0  0  0  0
   24.1095  -17.3122  -21.1458 C   0  0  0  0  0  0  0  0  0  0  0  0
   23.5360  -18.0882  -20.0099 C   0  0  0  0  0  0  0  0  0  0  0  0
   24.5147  -19.0769  -19.4065 C   0  0  2  0  0  0  0  0  0  0  0  0
   24.7512  -20.2280  -20.2230 N   0  0  0  0  0  0  0  0  0  0  0  0
   23.9249  -19.5146  -18.1176 C   0  0  0  0  0  0  0  0  0  0  0  0
   23.0540  -20.3873  -18.1130 O   0  0  0  0  0  0  0  0  0  0  0  0
   25.6042  -21.1637  -10.2015 N   0  0  0  0  0  0  0  0  0  0  0  0
   24.1987  -21.0667  -10.1667 C   0  0  0  0  0  0  0  0  0  0  0  0
   23.5085  -21.0537   -9.0743 N   0  0  0  0  0  0  0  0  0  0  0  0
   23.4618  -20.9753  -11.3901 N   0  0  0  0  0  0  0  0  0  0  0  0
   24.1801  -20.7115  -12.6315 C   0  0  0  0  0  0  0  0  0  0  0  0
   23.8257  -19.3459  -13.1303 C   0  0  0  0  0  0  0  0  0  0  0  0
   24.4747  -18.9992  -14.4209 C   0  0  0  0  0  0  0  0  0  0  0  0
   23.6945  -19.3789  -15.6424 C   0  0  2  0  0  0  0  0  0  0  0  0
   24.3360  -18.9527  -16.8663 N   0  0  0  0  0  0  0  0  0  0  0  0
   22.3496  -18.7050  -15.4980 C   0  0  0  0  0  0  0  0  0  0  0  0
   22.2427  -17.4637  -15.3358 O   0  0  0  0  0  0  0  0  0  0  0  0
   22.4689  -20.9726   -9.0751 C   0  0  0  0  0  0  0  0  0  0  0  0
   19.6479  -18.2625  -17.7861 C   0  0  2  0  0  0  0  0  0  0  0  0
   19.0328  -19.0125  -16.6269 C   0  0  0  0  0  0  0  0  0  0  0  0
   18.8566  -20.4784  -16.9129 C   0  0  2  0  0  0  0  0  0  0  0  0
   19.8541  -18.8432  -15.3733 N   0  0  0  0  0  0  0  0  0  0  0  0
   21.1529  -19.4648  -15.5415 C   0  0  0  0  0  0  0  0  0  0  0  0
   19.1568  -19.4323  -14.1831 O   0  0  0  0  0  0  0  0  0  0  0  0
   19.6204  -20.5801  -13.5560 O   0  0  0  0  0  0  0  0  0  0  0  0
  2  1  1  0
  3  4  1  0
  3  2  1  0
  4  5  1  0
  5  6  1  6
  7  8  2  0
  7  5  1  0
 10 12  1  0
 10  9  1  0
 11 10  2  0
 13 14  1  0
 13 12  1  0
 14 15  1  0
 16 15  1  1
 16 17  1  0
 17  7  1  0
 18 16  1  0
 19 18  2  0
 21 20  1  6
 21 22  1  0
 23 21  1  0
 23 24  1  1
 24 18  1  0
 25 26  1  0
 25 23  1  0
 27 25  2  0
M  END
$$$$
