MRV.pdb
     RDKit          3D

 27 26  0  0  1  0  0  0  0  0999 V2000
   24.9494  -15.3893  -19.4700 C   0  0  0  0  0  0  0  0  0  0  0  0
   26.6191  -15.0675  -20.0549 S   0  0  0  0  0  0  0  0  0  0  0  0
   27.6240  -16.5396  -19.8195 C   0  0  0  0  0  0  0  0  0  0  0  0
   26.9755  -17.4994  -18.8817 C   0  0  0  0  0  0  0  0  0  0  0  0
   27.8341  -18.7118  -18.5781 C   0  0  2  0  0  0  0  0  0  0  0  0
   28.0378  -19.5724  -19.7031 N   0  0  0  0  0  0  0  0  0  0  0  0
   27.1276  -19.4685  -17.5157 C   0  0  0  0  0  0  0  0  0  0  0  0
   26.2411  -20.2674  -17.8256 O   0  0  0  0  0  0  0  0  0  0  0  0
   25.3063  -19.1852   -9.7339 N   0  0  0  0  0  0  0  0  0  0  0  0
   25.3762  -20.5906   -9.6561 C   0  0  0  0  0  0  0  0  0  0  0  0
   24.5647  -21.3103   -8.9539 N   0  0  0  0  0  0  0  0  0  0  0  0
   26.3895  -21.2933  -10.3824 N   0  0  0  0  0  0  0  0  0  0  0  0
   27.1956  -20.5664  -11.3566 C   0  0  0  0  0  0  0  0  0  0  0  0
   26.5254  -20.6180  -12.6936 C   0  0  0  0  0  0  0  0  0  0  0  0
   27.3075  -19.9642  -13.7744 C   0  0  0  0  0  0  0  0  0  0  0  0
   26.6636  -19.9943  -15.1269 C   0  0  2  0  0  0  0  0  0  0  0  0
   27.4426  -19.3014  -16.1289 N   0  0  0  0  0  0  0  0  0  0  0  0
   25.3194  -19.3245  -14.9581 C   0  0  0  0  0  0  0  0  0  0  0  0
   25.2143  -18.1357  -14.5654 O   0  0  0  0  0  0  0  0  0  0  0  0
   24.6435  -22.3489   -8.9054 C   0  0  0  0  0  0  0  0  0  0  0  0
   20.5834  -19.0162  -16.0294 C   0  0  2  0  0  0  0  0  0  0  0  0
   21.9968  -19.4906  -16.2781 C   0  0  0  0  0  0  0  0  0  0  0  0
   22.6884  -18.7095  -17.3612 C   0  0  1  0  0  0  0  0  0  0  0  0
   22.8199  -19.4310  -15.0157 N   0  0  0  0  0  0  0  0  0  0  0  0
   24.1213  -20.0285  -15.2414 C   0  0  0  0  0  0  0  0  0  0  0  0
   22.1279  -20.1284  -13.8823 O   0  0  0  0  0  0  0  0  0  0  0  0
   22.4178  -21.4426  -13.5442 O   0  0  0  0  0  0  0  0  0  0  0  0
  2  1  1  0
  3  4  1  0
  3  2  1  0
  4  5  1  0
  5  6  1  6
  7  8  2  0
  7  5  1  0
 10 12  1  0
 10  9  1  0
 11 10  2  0
 13 14  1  0
 13 12  1  0
 14 15  1  0
 16 15  1  1
 16 17  1  0
 17  7  1  0
 18 16  1  0
 19 18  2  0
 21 20  1  6
 21 22  1  0
 23 21  1  0
 23 24  1  6
 24 18  1  0
 25 26  1  0
 25 23  1  0
 27 25  2  0
M  END
$$$$
