MRV.pdb
     RDKit          3D

 27 26  0  0  1  0  0  0  0  0999 V2000
   30.6790  -22.4190  -10.6894 C   0  0  0  0  0  0  0  0  0  0  0  0
   30.4449  -21.1461   -9.4412 S   0  0  0  0  0  0  0  0  0  0  0  0
   28.6913  -20.7795   -9.2895 C   0  0  0  0  0  0  0  0  0  0  0  0
   28.0735  -20.5065  -10.6180 C   0  0  0  0  0  0  0  0  0  0  0  0
   26.5789  -20.2612  -10.5436 C   0  0  2  0  0  0  0  0  0  0  0  0
   25.8976  -21.1177   -9.6217 N   0  0  0  0  0  0  0  0  0  0  0  0
   26.0476  -20.5031  -11.9073 C   0  0  0  0  0  0  0  0  0  0  0  0
   26.3746  -19.7523  -12.8290 O   0  0  0  0  0  0  0  0  0  0  0  0
   25.6928  -24.4503  -17.8602 N   0  0  0  0  0  0  0  0  0  0  0  0
   26.0685  -25.2333  -16.7502 C   0  0  0  0  0  0  0  0  0  0  0  0
   27.1982  -25.8540  -16.6610 N   0  0  0  0  0  0  0  0  0  0  0  0
   25.1738  -25.3707  -15.6417 N   0  0  0  0  0  0  0  0  0  0  0  0
   23.8425  -24.7817  -15.7288 C   0  0  0  0  0  0  0  0  0  0  0  0
   23.9056  -23.3464  -15.3103 C   0  0  0  0  0  0  0  0  0  0  0  0
   24.4510  -23.1511  -13.9422 C   0  0  0  0  0  0  0  0  0  0  0  0
   24.5889  -21.7216  -13.5152 C   0  0  2  0  0  0  0  0  0  0  0  0
   25.1591  -21.5891  -12.1930 N   0  0  0  0  0  0  0  0  0  0  0  0
   23.1908  -21.1482  -13.5387 C   0  0  0  0  0  0  0  0  0  0  0  0
   22.3937  -21.3019  -12.5797 O   0  0  0  0  0  0  0  0  0  0  0  0
   27.4517  -26.4293  -15.8291 C   0  0  0  0  0  0  0  0  0  0  0  0
   22.2261  -17.6293  -15.4601 C   0  0  2  0  0  0  0  0  0  0  0  0
   21.3113  -18.7913  -15.7723 C   0  0  0  0  0  0  0  0  0  0  0  0
   21.5987  -19.4116  -17.1119 C   0  0  2  0  0  0  0  0  0  0  0  0
   21.3949  -19.8512  -14.7027 N   0  0  0  0  0  0  0  0  0  0  0  0
   22.7317  -20.4104  -14.6595 C   0  0  0  0  0  0  0  0  0  0  0  0
   20.3930  -20.9421  -14.9390 O   0  0  0  0  0  0  0  0  0  0  0  0
   19.0855  -20.8475  -14.4839 O   0  0  0  0  0  0  0  0  0  0  0  0
  2  1  1  0
  3  4  1  0
  3  2  1  0
  4  5  1  0
  5  6  1  1
  7  8  2  0
  7  5  1  0
 10 12  1  0
 10  9  1  0
 11 10  2  0
 13 14  1  0
 13 12  1  0
 14 15  1  0
 16 15  1  1
 16 17  1  0
 17  7  1  0
 18 16  1  0
 19 18  2  0
 21 20  1  6
 21 22  1  0
 23 21  1  0
 23 24  1  1
 24 18  1  0
 25 26  1  0
 25 23  1  0
 27 25  2  0
M  END
$$$$
