MRV.pdb
     RDKit          3D

 27 26  0  0  1  0  0  0  0  0999 V2000
   26.6859  -16.8046  -17.3250 C   0  0  0  0  0  0  0  0  0  0  0  0
   27.5108  -17.7773  -18.5926 S   0  0  0  0  0  0  0  0  0  0  0  0
   28.1491  -19.2892  -17.8585 C   0  0  0  0  0  0  0  0  0  0  0  0
   27.2092  -19.8423  -16.8427 C   0  0  0  0  0  0  0  0  0  0  0  0
   27.7623  -21.0496  -16.1106 C   0  0  2  0  0  0  0  0  0  0  0  0
   27.9736  -22.1885  -16.9508 N   0  0  0  0  0  0  0  0  0  0  0  0
   26.7658  -21.3989  -15.0688 C   0  0  0  0  0  0  0  0  0  0  0  0
   25.8740  -22.2098  -15.3282 O   0  0  0  0  0  0  0  0  0  0  0  0
   22.5176  -20.7743   -8.6422 N   0  0  0  0  0  0  0  0  0  0  0  0
   23.6068  -21.1909   -7.8508 C   0  0  0  0  0  0  0  0  0  0  0  0
   23.4945  -21.9891   -6.8409 N   0  0  0  0  0  0  0  0  0  0  0  0
   24.9253  -20.7239   -8.1536 N   0  0  0  0  0  0  0  0  0  0  0  0
   25.1095  -19.7895   -9.2580 C   0  0  0  0  0  0  0  0  0  0  0  0
   24.8343  -20.4890  -10.5520 C   0  0  0  0  0  0  0  0  0  0  0  0
   26.0103  -20.5433  -11.4583 C   0  0  0  0  0  0  0  0  0  0  0  0
   25.7273  -21.0782  -12.8290 C   0  0  2  0  0  0  0  0  0  0  0  0
   26.8042  -20.8211  -13.7591 N   0  0  0  0  0  0  0  0  0  0  0  0
   24.4658  -20.3848  -13.2892 C   0  0  0  0  0  0  0  0  0  0  0  0
   24.3933  -19.1343  -13.3878 O   0  0  0  0  0  0  0  0  0  0  0  0
   24.3143  -22.2694   -6.2607 C   0  0  0  0  0  0  0  0  0  0  0  0
   20.4257  -20.5277  -15.9687 C   0  0  2  0  0  0  0  0  0  0  0  0
   21.7172  -21.1205  -15.4536 C   0  0  0  0  0  0  0  0  0  0  0  0
   22.8498  -20.9823  -16.4333 C   0  0  1  0  0  0  0  0  0  0  0  0
   22.1147  -20.4972  -14.1391 N   0  0  0  0  0  0  0  0  0  0  0  0
   23.3112  -21.1359  -13.6271 C   0  0  0  0  0  0  0  0  0  0  0  0
   21.0090  -20.6028  -13.1311 O   0  0  0  0  0  0  0  0  0  0  0  0
   20.0710  -19.5939  -12.9639 O   0  0  0  0  0  0  0  0  0  0  0  0
  2  1  1  0
  3  4  1  0
  3  2  1  0
  4  5  1  0
  5  6  1  6
  7  8  2  0
  7  5  1  0
 10 12  1  0
 10  9  1  0
 11 10  2  0
 13 14  1  0
 13 12  1  0
 14 15  1  0
 16 15  1  1
 16 17  1  0
 17  7  1  0
 18 16  1  0
 19 18  2  0
 21 20  1  6
 21 22  1  0
 23 21  1  0
 23 24  1  6
 24 18  1  0
 25 26  1  0
 25 23  1  0
 27 25  2  0
M  END
$$$$
