YPA.pdb
     RDKit          3D

 25 26  0  0  1  0  0  0  0  0999 V2000
   21.3950  -10.7029    6.3739 O   0  0  0  0  0  0  0  0  0  0  0  0
   20.5292  -11.7899    6.3883 C   0  0  0  0  0  0  0  0  0  0  0  0
   20.7501  -12.8595    7.2249 C   0  0  0  0  0  0  0  0  0  0  0  0
   19.8878  -13.9608    7.2510 C   0  0  0  0  0  0  0  0  0  0  0  0
   18.7778  -14.0249    6.4405 C   0  0  0  0  0  0  0  0  0  0  0  0
   17.8359  -15.1723    6.4459 C   0  0  0  0  0  0  0  0  0  0  0  0
   17.9121  -16.0306    5.2148 C   0  0  2  0  0  0  0  0  0  0  0  0
   16.8252  -15.8382    4.2884 N   0  0  0  0  0  0  0  0  0  0  0  0
   18.0876  -17.4365    5.6199 C   0  0  0  0  0  0  0  0  0  0  0  0
   17.1788  -18.2787    5.4155 O   0  0  0  0  0  0  0  0  0  0  0  0
   18.5665  -12.9319    5.5964 C   0  0  0  0  0  0  0  0  0  0  0  0
   19.4162  -11.8463    5.5705 C   0  0  0  0  0  0  0  0  0  0  0  0
   19.2926  -17.9322    6.2690 N   0  0  0  0  0  0  0  0  0  0  0  0
   20.4046  -17.1299    6.6914 C   0  0  0  0  0  0  0  0  0  0  0  0
   21.4428  -18.0927    7.1857 C   0  0  0  0  0  0  0  0  0  0  0  0
   21.0234  -19.4461    6.5827 C   0  0  0  0  0  0  0  0  0  0  0  0
   19.5436  -19.3092    6.5988 C   0  0  1  0  0  0  0  0  0  0  0  0
   18.9298  -19.7015    7.8897 C   0  0  0  0  0  0  0  0  0  0  0  0
   18.9390  -18.8550    8.8130 O   0  0  0  0  0  0  0  0  0  0  0  0
   16.7367  -22.4975    9.1572 C   0  0  0  0  0  0  0  0  0  0  0  0
   17.7286  -21.3722    9.3534 C   0  0  2  0  0  0  0  0  0  0  0  0
   18.3455  -20.9541    8.1349 N   0  0  0  0  0  0  0  0  0  0  0  0
   18.7701  -21.8677   10.2750 C   0  0  0  0  0  0  0  0  0  0  0  0
   20.0612  -22.0247    9.8119 O   0  0  0  0  0  0  0  0  0  0  0  0
   18.5220  -22.1518   11.4671 O   0  0  0  0  0  0  0  0  0  0  0  0
  1  2  1  0
  2  3  2  0
  2 12  1  0
  3  4  1  0
  4  5  2  0
  5  6  1  0
  6  7  1  0
  7  9  1  0
  7  8  1  1
  9 13  1  0
 10  9  2  0
 11  5  1  0
 12 11  2  0
 13 14  1  0
 13 17  1  0
 14 15  1  0
 15 16  1  0
 17 16  1  0
 18 22  1  0
 17 18  1  1
 19 18  2  0
 21 20  1  6
 21 22  1  0
 21 23  1  0
 23 24  1  0
 25 23  2  0
M  END
$$$$
