YPA.pdb
     RDKit          3D

 25 26  0  0  1  0  0  0  0  0999 V2000
   22.7415  -22.2732   -8.0083 O   0  0  0  0  0  0  0  0  0  0  0  0
   23.1118  -21.8799   -9.2887 C   0  0  0  0  0  0  0  0  0  0  0  0
   24.3914  -21.4500   -9.5547 C   0  0  0  0  0  0  0  0  0  0  0  0
   24.7794  -21.0510  -10.8382 C   0  0  0  0  0  0  0  0  0  0  0  0
   23.8983  -21.0701  -11.8947 C   0  0  0  0  0  0  0  0  0  0  0  0
   24.2751  -20.6621  -13.2714 C   0  0  0  0  0  0  0  0  0  0  0  0
   23.9981  -19.2173  -13.5775 C   0  0  2  0  0  0  0  0  0  0  0  0
   22.6004  -18.8666  -13.5735 N   0  0  0  0  0  0  0  0  0  0  0  0
   24.6849  -18.8514  -14.8289 C   0  0  0  0  0  0  0  0  0  0  0  0
   24.0274  -18.6006  -15.8690 O   0  0  0  0  0  0  0  0  0  0  0  0
   22.6028  -21.5086  -11.6096 C   0  0  0  0  0  0  0  0  0  0  0  0
   22.2201  -21.9021  -10.3447 C   0  0  0  0  0  0  0  0  0  0  0  0
   26.1332  -18.7599  -14.9432 N   0  0  0  0  0  0  0  0  0  0  0  0
   27.0782  -19.1775  -13.9477 C   0  0  0  0  0  0  0  0  0  0  0  0
   28.4266  -18.7724  -14.4641 C   0  0  0  0  0  0  0  0  0  0  0  0
   28.1187  -17.7200  -15.5452 C   0  0  0  0  0  0  0  0  0  0  0  0
   26.8383  -18.2460  -16.0864 C   0  0  1  0  0  0  0  0  0  0  0  0
   27.0216  -19.2689  -17.1434 C   0  0  0  0  0  0  0  0  0  0  0  0
   27.2443  -20.4451  -16.7747 O   0  0  0  0  0  0  0  0  0  0  0  0
   26.2317  -19.5125  -20.8038 C   0  0  0  0  0  0  0  0  0  0  0  0
   26.9815  -19.9652  -19.5703 C   0  0  2  0  0  0  0  0  0  0  0  0
   26.9614  -18.9981  -18.5194 N   0  0  0  0  0  0  0  0  0  0  0  0
   28.3804  -20.2054  -19.9767 C   0  0  0  0  0  0  0  0  0  0  0  0
   29.3788  -19.4001  -19.4663 O   0  0  0  0  0  0  0  0  0  0  0  0
   28.6939  -21.1180  -20.7719 O   0  0  0  0  0  0  0  0  0  0  0  0
  1  2  1  0
  2  3  2  0
  2 12  1  0
  3  4  1  0
  4  5  2  0
  5  6  1  0
  6  7  1  0
  7  9  1  0
  7  8  1  6
  9 13  1  0
 10  9  2  0
 11  5  1  0
 12 11  2  0
 13 14  1  0
 13 17  1  0
 14 15  1  0
 15 16  1  0
 17 16  1  0
 18 22  1  0
 17 18  1  6
 19 18  2  0
 21 20  1  6
 21 22  1  0
 21 23  1  0
 23 24  1  0
 25 23  2  0
M  END
$$$$
