YPA.pdb
     RDKit          3D

 25 26  0  0  1  0  0  0  0  0999 V2000
   14.9121  -13.4136  -21.1712 O   0  0  0  0  0  0  0  0  0  0  0  0
   15.6978  -12.6914  -20.2811 C   0  0  0  0  0  0  0  0  0  0  0  0
   15.2458  -12.3986  -19.0150 C   0  0  0  0  0  0  0  0  0  0  0  0
   16.0249  -11.6728  -18.1076 C   0  0  0  0  0  0  0  0  0  0  0  0
   17.2801  -11.2179  -18.4398 C   0  0  0  0  0  0  0  0  0  0  0  0
   18.1388  -10.4522  -17.5017 C   0  0  0  0  0  0  0  0  0  0  0  0
   19.2149  -11.2738  -16.8497 C   0  0  2  0  0  0  0  0  0  0  0  0
   18.7269  -12.3994  -16.0937 N   0  0  0  0  0  0  0  0  0  0  0  0
   20.0901  -10.3839  -16.0663 C   0  0  0  0  0  0  0  0  0  0  0  0
   19.8362  -10.1363  -14.8617 O   0  0  0  0  0  0  0  0  0  0  0  0
   17.7255  -11.5225  -19.7284 C   0  0  0  0  0  0  0  0  0  0  0  0
   16.9580  -12.2380  -20.6230 C   0  0  0  0  0  0  0  0  0  0  0  0
   21.2758   -9.7464  -16.6201 N   0  0  0  0  0  0  0  0  0  0  0  0
   21.6829   -9.7898  -17.9952 C   0  0  0  0  0  0  0  0  0  0  0  0
   23.0136   -9.1006  -18.0528 C   0  0  0  0  0  0  0  0  0  0  0  0
   23.5049   -9.1010  -16.5934 C   0  0  0  0  0  0  0  0  0  0  0  0
   22.2156   -8.9598  -15.8676 C   0  0  1  0  0  0  0  0  0  0  0  0
   21.7776   -7.5521  -15.7131 C   0  0  0  0  0  0  0  0  0  0  0  0
   21.1247   -7.0452  -16.6542 O   0  0  0  0  0  0  0  0  0  0  0  0
   21.6958   -5.0667  -12.8490 C   0  0  0  0  0  0  0  0  0  0  0  0
   21.4632   -5.4965  -14.2807 C   0  0  2  0  0  0  0  0  0  0  0  0
   22.0503   -6.7625  -14.5851 N   0  0  0  0  0  0  0  0  0  0  0  0
   22.0674   -4.4649  -15.1470 C   0  0  0  0  0  0  0  0  0  0  0  0
   21.4304   -3.2487  -15.2925 O   0  0  0  0  0  0  0  0  0  0  0  0
   23.1421   -4.6557  -15.7570 O   0  0  0  0  0  0  0  0  0  0  0  0
  1  2  1  0
  2  3  2  0
  2 12  1  0
  3  4  1  0
  4  5  2  0
  5  6  1  0
  6  7  1  0
  7  9  1  0
  7  8  1  1
  9 13  1  0
 10  9  2  0
 11  5  1  0
 12 11  2  0
 13 14  1  0
 13 17  1  0
 14 15  1  0
 15 16  1  0
 17 16  1  0
 18 22  1  0
 17 18  1  6
 19 18  2  0
 21 20  1  1
 21 22  1  0
 21 23  1  0
 23 24  1  0
 25 23  2  0
M  END
$$$$
