YPA.pdb
     RDKit          3D

 25 26  0  0  1  0  0  0  0  0999 V2000
   25.0928  -21.2661   -7.5559 O   0  0  0  0  0  0  0  0  0  0  0  0
   25.0762  -21.1559   -8.9412 C   0  0  0  0  0  0  0  0  0  0  0  0
   26.2471  -21.0654   -9.6578 C   0  0  0  0  0  0  0  0  0  0  0  0
   26.2470  -20.9540  -11.0524 C   0  0  0  0  0  0  0  0  0  0  0  0
   25.0746  -20.9300  -11.7722 C   0  0  0  0  0  0  0  0  0  0  0  0
   25.0346  -20.8212  -13.2521 C   0  0  0  0  0  0  0  0  0  0  0  0
   24.3861  -19.5622  -13.7545 C   0  0  2  0  0  0  0  0  0  0  0  0
   22.9512  -19.5403  -13.6241 N   0  0  0  0  0  0  0  0  0  0  0  0
   24.8483  -19.2997  -15.1289 C   0  0  0  0  0  0  0  0  0  0  0  0
   24.1352  -19.6134  -16.1138 O   0  0  0  0  0  0  0  0  0  0  0  0
   23.8939  -21.0225  -11.0311 C   0  0  0  0  0  0  0  0  0  0  0  0
   23.8937  -21.1324   -9.6566 C   0  0  0  0  0  0  0  0  0  0  0  0
   26.1290  -18.6774  -15.4316 N   0  0  0  0  0  0  0  0  0  0  0  0
   27.2152  -18.5094  -14.5095 C   0  0  0  0  0  0  0  0  0  0  0  0
   28.2565  -17.7149  -15.2400 C   0  0  0  0  0  0  0  0  0  0  0  0
   27.4927  -17.0780  -16.4157 C   0  0  0  0  0  0  0  0  0  0  0  0
   26.5041  -18.1468  -16.7145 C   0  0  1  0  0  0  0  0  0  0  0  0
   27.0248  -19.1921  -17.6275 C   0  0  0  0  0  0  0  0  0  0  0  0
   27.6344  -20.1568  -17.1109 O   0  0  0  0  0  0  0  0  0  0  0  0
   26.5563  -20.1085  -21.2634 C   0  0  0  0  0  0  0  0  0  0  0  0
   27.2742  -20.1887  -19.9342 C   0  0  2  0  0  0  0  0  0  0  0  0
   26.8763  -19.1633  -19.0230 N   0  0  0  0  0  0  0  0  0  0  0  0
   28.7177  -20.0522  -20.2119 C   0  0  0  0  0  0  0  0  0  0  0  0
   29.3715  -21.0590  -20.8938 O   0  0  0  0  0  0  0  0  0  0  0  0
   29.3725  -19.0508  -19.8487 O   0  0  0  0  0  0  0  0  0  0  0  0
  1  2  1  0
  2  3  2  0
  2 12  1  0
  3  4  1  0
  4  5  2  0
  5  6  1  0
  6  7  1  0
  7  9  1  0
  7  8  1  6
  9 13  1  0
 10  9  2  0
 11  5  1  0
 12 11  2  0
 13 14  1  0
 13 17  1  0
 14 15  1  0
 15 16  1  0
 17 16  1  0
 18 22  1  0
 17 18  1  6
 19 18  2  0
 21 20  1  6
 21 22  1  0
 21 23  1  0
 23 24  1  0
 25 23  2  0
M  END
$$$$
