YPA.pdb
     RDKit          3D

 25 26  0  0  1  0  0  0  0  0999 V2000
   16.6180  -23.2448  -11.4875 O   0  0  0  0  0  0  0  0  0  0  0  0
   17.9212  -22.9202  -11.8448 C   0  0  0  0  0  0  0  0  0  0  0  0
   18.7715  -22.3166  -10.9473 C   0  0  0  0  0  0  0  0  0  0  0  0
   20.0859  -21.9837  -11.2919 C   0  0  0  0  0  0  0  0  0  0  0  0
   20.5893  -22.2450  -12.5454 C   0  0  0  0  0  0  0  0  0  0  0  0
   21.9801  -21.9140  -12.9451 C   0  0  0  0  0  0  0  0  0  0  0  0
   22.2400  -20.4410  -13.0887 C   0  0  2  0  0  0  0  0  0  0  0  0
   21.3817  -19.7759  -14.0361 N   0  0  0  0  0  0  0  0  0  0  0  0
   23.6737  -20.2304  -13.3567 C   0  0  0  0  0  0  0  0  0  0  0  0
   24.0542  -19.7352  -14.4462 O   0  0  0  0  0  0  0  0  0  0  0  0
   19.7145  -22.8577  -13.4460 C   0  0  0  0  0  0  0  0  0  0  0  0
   18.4190  -23.1861  -13.1067 C   0  0  0  0  0  0  0  0  0  0  0  0
   24.7193  -20.5742  -12.4040 N   0  0  0  0  0  0  0  0  0  0  0  0
   24.5249  -21.2718  -11.1655 C   0  0  0  0  0  0  0  0  0  0  0  0
   25.8604  -21.2798  -10.4832 C   0  0  0  0  0  0  0  0  0  0  0  0
   26.6544  -20.1656  -11.1898 C   0  0  0  0  0  0  0  0  0  0  0  0
   26.1161  -20.2757  -12.5708 C   0  0  1  0  0  0  0  0  0  0  0  0
   26.8154  -21.2888  -13.3965 C   0  0  0  0  0  0  0  0  0  0  0  0
   26.7022  -22.4886  -13.0546 O   0  0  0  0  0  0  0  0  0  0  0  0
   26.5541  -22.4874  -16.1657 C   0  0  0  0  0  0  0  0  0  0  0  0
   27.8197  -21.8413  -15.6465 C   0  0  2  0  0  0  0  0  0  0  0  0
   27.5895  -20.9844  -14.5272 N   0  0  0  0  0  0  0  0  0  0  0  0
   28.3862  -21.0455  -16.7535 C   0  0  0  0  0  0  0  0  0  0  0  0
   28.1061  -19.6955  -16.8258 O   0  0  0  0  0  0  0  0  0  0  0  0
   29.1148  -21.5546  -17.6328 O   0  0  0  0  0  0  0  0  0  0  0  0
  1  2  1  0
  2  3  2  0
  2 12  1  0
  3  4  1  0
  4  5  2  0
  5  6  1  0
  6  7  1  0
  7  9  1  0
  7  8  1  6
  9 13  1  0
 10  9  2  0
 11  5  1  0
 12 11  2  0
 13 14  1  0
 13 17  1  0
 14 15  1  0
 15 16  1  0
 17 16  1  0
 18 22  1  0
 17 18  1  6
 19 18  2  0
 21 20  1  6
 21 22  1  0
 21 23  1  0
 23 24  1  0
 25 23  2  0
M  END
$$$$
