YPA.pdb
     RDKit          3D

 25 26  0  0  1  0  0  0  0  0999 V2000
   10.7324   -7.8688   -5.4334 O   0  0  0  0  0  0  0  0  0  0  0  0
   11.7437   -7.7968   -6.3838 C   0  0  0  0  0  0  0  0  0  0  0  0
   11.9458   -8.8202   -7.2809 C   0  0  0  0  0  0  0  0  0  0  0  0
   12.9594   -8.7626   -8.2434 C   0  0  0  0  0  0  0  0  0  0  0  0
   13.8017   -7.6787   -8.3373 C   0  0  0  0  0  0  0  0  0  0  0  0
   14.8826   -7.5780   -9.3498 C   0  0  0  0  0  0  0  0  0  0  0  0
   14.4246   -7.0555  -10.6822 C   0  0  2  0  0  0  0  0  0  0  0  0
   13.5018   -7.9196  -11.3738 N   0  0  0  0  0  0  0  0  0  0  0  0
   15.6048   -6.7010  -11.4902 C   0  0  0  0  0  0  0  0  0  0  0  0
   16.0552   -7.4997  -12.3483 O   0  0  0  0  0  0  0  0  0  0  0  0
   13.5848   -6.6477   -7.4199 C   0  0  0  0  0  0  0  0  0  0  0  0
   12.5857   -6.7041   -6.4712 C   0  0  0  0  0  0  0  0  0  0  0  0
   16.3118   -5.4360  -11.3522 N   0  0  0  0  0  0  0  0  0  0  0  0
   16.1391   -4.4945  -10.2835 C   0  0  0  0  0  0  0  0  0  0  0  0
   16.9818   -3.3065  -10.6410 C   0  0  0  0  0  0  0  0  0  0  0  0
   17.2396   -3.4644  -12.1509 C   0  0  0  0  0  0  0  0  0  0  0  0
   17.3071   -4.9446  -12.2665 C   0  0  1  0  0  0  0  0  0  0  0  0
   18.6537   -5.4966  -11.9854 C   0  0  0  0  0  0  0  0  0  0  0  0
   18.9688   -5.6638  -10.7847 O   0  0  0  0  0  0  0  0  0  0  0  0
   21.4983   -6.9564  -14.0313 C   0  0  0  0  0  0  0  0  0  0  0  0
   20.8673   -6.4329  -12.7599 C   0  0  2  0  0  0  0  0  0  0  0  0
   19.5868   -5.8385  -12.9769 N   0  0  0  0  0  0  0  0  0  0  0  0
   21.7833   -5.4148  -12.2084 C   0  0  0  0  0  0  0  0  0  0  0  0
   22.8825   -5.8212  -11.4784 O   0  0  0  0  0  0  0  0  0  0  0  0
   21.5969   -4.1904  -12.3802 O   0  0  0  0  0  0  0  0  0  0  0  0
  1  2  1  0
  2  3  2  0
  2 12  1  0
  3  4  1  0
  4  5  2  0
  5  6  1  0
  6  7  1  0
  7  9  1  0
  7  8  1  6
  9 13  1  0
 10  9  2  0
 11  5  1  0
 12 11  2  0
 13 14  1  0
 13 17  1  0
 14 15  1  0
 15 16  1  0
 17 16  1  0
 18 22  1  0
 17 18  1  1
 19 18  2  0
 21 20  1  6
 21 22  1  0
 21 23  1  0
 23 24  1  0
 25 23  2  0
M  END
$$$$
