YPA.pdb
     RDKit          3D

 25 26  0  0  1  0  0  0  0  0999 V2000
   16.2409  -22.7383    1.8762 O   0  0  0  0  0  0  0  0  0  0  0  0
   16.4912  -21.4463    2.3226 C   0  0  0  0  0  0  0  0  0  0  0  0
   16.4542  -21.1414    3.6637 C   0  0  0  0  0  0  0  0  0  0  0  0
   16.7040  -19.8457    4.1286 C   0  0  0  0  0  0  0  0  0  0  0  0
   16.9984  -18.8158    3.2652 C   0  0  0  0  0  0  0  0  0  0  0  0
   17.2769  -17.4309    3.7213 C   0  0  0  0  0  0  0  0  0  0  0  0
   16.0465  -16.6490    4.0860 C   0  0  2  0  0  0  0  0  0  0  0  0
   15.1150  -16.4675    3.0017 N   0  0  0  0  0  0  0  0  0  0  0  0
   16.4530  -15.3826    4.7204 C   0  0  0  0  0  0  0  0  0  0  0  0
   16.6402  -14.3520    4.0277 O   0  0  0  0  0  0  0  0  0  0  0  0
   17.0321  -19.1402    1.9068 C   0  0  0  0  0  0  0  0  0  0  0  0
   16.7862  -20.4171    1.4482 C   0  0  0  0  0  0  0  0  0  0  0  0
   16.6617  -15.2429    6.1543 N   0  0  0  0  0  0  0  0  0  0  0  0
   16.5590  -16.2986    7.1205 C   0  0  0  0  0  0  0  0  0  0  0  0
   16.7352  -15.6490    8.4607 C   0  0  0  0  0  0  0  0  0  0  0  0
   16.4743  -14.1547    8.1955 C   0  0  0  0  0  0  0  0  0  0  0  0
   17.0188  -14.0189    6.8193 C   0  0  1  0  0  0  0  0  0  0  0  0
   18.4785  -13.7632    6.7860 C   0  0  0  0  0  0  0  0  0  0  0  0
   19.2392  -14.7549    6.8697 O   0  0  0  0  0  0  0  0  0  0  0  0
   20.7573  -10.8523    6.0106 C   0  0  0  0  0  0  0  0  0  0  0  0
   20.4483  -12.1893    6.6472 C   0  0  2  0  0  0  0  0  0  0  0  0
   19.0515  -12.4873    6.6681 N   0  0  0  0  0  0  0  0  0  0  0  0
   20.9499  -12.1355    8.0346 C   0  0  0  0  0  0  0  0  0  0  0  0
   22.3062  -12.0047    8.2569 O   0  0  0  0  0  0  0  0  0  0  0  0
   20.1846  -12.2049    9.0210 O   0  0  0  0  0  0  0  0  0  0  0  0
  1  2  1  0
  2  3  2  0
  2 12  1  0
  3  4  1  0
  4  5  2  0
  5  6  1  0
  6  7  1  0
  7  9  1  0
  7  8  1  6
  9 13  1  0
 10  9  2  0
 11  5  1  0
 12 11  2  0
 13 14  1  0
 13 17  1  0
 14 15  1  0
 15 16  1  0
 17 16  1  0
 18 22  1  0
 17 18  1  1
 19 18  2  0
 21 20  1  1
 21 22  1  0
 21 23  1  0
 23 24  1  0
 25 23  2  0
M  END
$$$$
