YPA.pdb
     RDKit          3D

 25 26  0  0  1  0  0  0  0  0999 V2000
   21.6720  -17.7981  -16.2558 O   0  0  0  0  0  0  0  0  0  0  0  0
   22.2969  -18.3851  -15.1620 C   0  0  0  0  0  0  0  0  0  0  0  0
   23.5670  -18.0112  -14.7879 C   0  0  0  0  0  0  0  0  0  0  0  0
   24.2093  -18.5927  -13.6894 C   0  0  0  0  0  0  0  0  0  0  0  0
   23.5996  -19.5660  -12.9317 C   0  0  0  0  0  0  0  0  0  0  0  0
   24.2456  -20.1999  -11.7552 C   0  0  0  0  0  0  0  0  0  0  0  0
   25.3307  -21.1779  -12.1075 C   0  0  2  0  0  0  0  0  0  0  0  0
   24.8766  -22.3277  -12.8480 N   0  0  0  0  0  0  0  0  0  0  0  0
   26.0741  -21.5311  -10.8851 C   0  0  0  0  0  0  0  0  0  0  0  0
   25.5526  -22.2649  -10.0095 O   0  0  0  0  0  0  0  0  0  0  0  0
   22.3106  -19.9354  -13.3236 C   0  0  0  0  0  0  0  0  0  0  0  0
   21.6772  -19.3625  -14.4061 C   0  0  0  0  0  0  0  0  0  0  0  0
   27.4264  -21.0652  -10.6146 N   0  0  0  0  0  0  0  0  0  0  0  0
   28.2028  -20.2123  -11.4680 C   0  0  0  0  0  0  0  0  0  0  0  0
   29.5568  -20.1142  -10.8306 C   0  0  0  0  0  0  0  0  0  0  0  0
   29.6081  -21.3102   -9.8620 C   0  0  0  0  0  0  0  0  0  0  0  0
   28.1862  -21.3816   -9.4353 C   0  0  1  0  0  0  0  0  0  0  0  0
   27.8662  -20.4840   -8.2999 C   0  0  0  0  0  0  0  0  0  0  0  0
   27.5159  -19.3126   -8.5723 O   0  0  0  0  0  0  0  0  0  0  0  0
   27.7865  -20.7630   -4.5050 C   0  0  0  0  0  0  0  0  0  0  0  0
   27.6663  -20.0314   -5.8237 C   0  0  2  0  0  0  0  0  0  0  0  0
   27.9332  -20.8668   -6.9511 N   0  0  0  0  0  0  0  0  0  0  0  0
   28.6475  -18.9285   -5.7989 C   0  0  0  0  0  0  0  0  0  0  0  0
   28.4013  -17.8244   -5.0073 O   0  0  0  0  0  0  0  0  0  0  0  0
   29.6995  -18.9598   -6.4738 O   0  0  0  0  0  0  0  0  0  0  0  0
  1  2  1  0
  2  3  2  0
  2 12  1  0
  3  4  1  0
  4  5  2  0
  5  6  1  0
  6  7  1  0
  7  9  1  0
  7  8  1  1
  9 13  1  0
 10  9  2  0
 11  5  1  0
 12 11  2  0
 13 14  1  0
 13 17  1  0
 14 15  1  0
 15 16  1  0
 17 16  1  0
 18 22  1  0
 17 18  1  1
 19 18  2  0
 21 20  1  1
 21 22  1  0
 21 23  1  0
 23 24  1  0
 25 23  2  0
M  END
$$$$
