YPA.pdb
     RDKit          3D

 25 26  0  0  1  0  0  0  0  0999 V2000
   28.5089  -19.0599   -5.3911 O   0  0  0  0  0  0  0  0  0  0  0  0
   28.0436  -19.5712   -6.5966 C   0  0  0  0  0  0  0  0  0  0  0  0
   26.6953  -19.6478   -6.8595 C   0  0  0  0  0  0  0  0  0  0  0  0
   26.2114  -20.1598   -8.0681 C   0  0  0  0  0  0  0  0  0  0  0  0
   27.0625  -20.6108   -9.0506 C   0  0  0  0  0  0  0  0  0  0  0  0
   26.5870  -21.1528  -10.3482 C   0  0  0  0  0  0  0  0  0  0  0  0
   25.5969  -20.2692  -11.0531 C   0  0  2  0  0  0  0  0  0  0  0  0
   24.2652  -20.3134  -10.5044 N   0  0  0  0  0  0  0  0  0  0  0  0
   25.6395  -20.5575  -12.4977 C   0  0  0  0  0  0  0  0  0  0  0  0
   24.7713  -21.2934  -13.0283 O   0  0  0  0  0  0  0  0  0  0  0  0
   28.4284  -20.5270   -8.7696 C   0  0  0  0  0  0  0  0  0  0  0  0
   28.9057  -20.0223   -7.5785 C   0  0  0  0  0  0  0  0  0  0  0  0
   26.6638  -20.0252  -13.3845 N   0  0  0  0  0  0  0  0  0  0  0  0
   27.8389  -19.3130  -12.9716 C   0  0  0  0  0  0  0  0  0  0  0  0
   28.5140  -18.8654  -14.2338 C   0  0  0  0  0  0  0  0  0  0  0  0
   27.4160  -18.9677  -15.3086 C   0  0  0  0  0  0  0  0  0  0  0  0
   26.6574  -20.1476  -14.8174 C   0  0  1  0  0  0  0  0  0  0  0  0
   27.2179  -21.4409  -15.2761 C   0  0  0  0  0  0  0  0  0  0  0  0
   27.9751  -22.0528  -14.4879 O   0  0  0  0  0  0  0  0  0  0  0  0
   25.8068  -24.1168  -16.0033 C   0  0  0  0  0  0  0  0  0  0  0  0
   26.8671  -23.4095  -16.8182 C   0  0  2  0  0  0  0  0  0  0  0  0
   26.9524  -22.0131  -16.5301 N   0  0  0  0  0  0  0  0  0  0  0  0
   26.5115  -23.5867  -18.2401 C   0  0  0  0  0  0  0  0  0  0  0  0
   26.5543  -24.8508  -18.7936 O   0  0  0  0  0  0  0  0  0  0  0  0
   26.1712  -22.6262  -18.9646 O   0  0  0  0  0  0  0  0  0  0  0  0
  1  2  1  0
  2  3  2  0
  2 12  1  0
  3  4  1  0
  4  5  2  0
  5  6  1  0
  6  7  1  0
  7  9  1  0
  7  8  1  1
  9 13  1  0
 10  9  2  0
 11  5  1  0
 12 11  2  0
 13 14  1  0
 13 17  1  0
 14 15  1  0
 15 16  1  0
 17 16  1  0
 18 22  1  0
 17 18  1  1
 19 18  2  0
 21 20  1  1
 21 22  1  0
 21 23  1  0
 23 24  1  0
 25 23  2  0
M  END
$$$$
