YPA.pdb
     RDKit          3D

 25 26  0  0  1  0  0  0  0  0999 V2000
   20.6163  -28.5411  -11.1701 O   0  0  0  0  0  0  0  0  0  0  0  0
   21.3519  -29.4923  -10.4735 C   0  0  0  0  0  0  0  0  0  0  0  0
   22.6208  -29.2134  -10.0209 C   0  0  0  0  0  0  0  0  0  0  0  0
   23.3738  -30.1603   -9.3183 C   0  0  0  0  0  0  0  0  0  0  0  0
   22.8794  -31.4153   -9.0472 C   0  0  0  0  0  0  0  0  0  0  0  0
   23.6449  -32.4431   -8.2981 C   0  0  0  0  0  0  0  0  0  0  0  0
   24.3632  -33.4294   -9.1752 C   0  0  2  0  0  0  0  0  0  0  0  0
   23.4973  -34.2215  -10.0114 N   0  0  0  0  0  0  0  0  0  0  0  0
   25.2685  -34.2415   -8.3430 C   0  0  0  0  0  0  0  0  0  0  0  0
   24.8660  -35.3062   -7.8124 O   0  0  0  0  0  0  0  0  0  0  0  0
   21.5901  -31.6842   -9.5131 C   0  0  0  0  0  0  0  0  0  0  0  0
   20.8476  -30.7511  -10.2055 C   0  0  0  0  0  0  0  0  0  0  0  0
   26.6533  -33.8748   -8.0840 N   0  0  0  0  0  0  0  0  0  0  0  0
   27.2686  -32.6289   -8.4410 C   0  0  0  0  0  0  0  0  0  0  0  0
   28.7184  -32.7681   -8.0834 C   0  0  0  0  0  0  0  0  0  0  0  0
   28.9334  -34.2874   -7.9542 C   0  0  0  0  0  0  0  0  0  0  0  0
   27.6145  -34.7083   -7.4136 C   0  0  1  0  0  0  0  0  0  0  0  0
   27.5218  -34.6025   -5.9380 C   0  0  0  0  0  0  0  0  0  0  0  0
   28.4265  -35.1460   -5.2634 O   0  0  0  0  0  0  0  0  0  0  0  0
   25.3319  -32.7363   -3.4608 C   0  0  0  0  0  0  0  0  0  0  0  0
   26.3992  -33.7358   -3.8487 C   0  0  2  0  0  0  0  0  0  0  0  0
   26.4891  -33.9359   -5.2601 N   0  0  0  0  0  0  0  0  0  0  0  0
   26.0499  -35.0163   -3.2023 C   0  0  0  0  0  0  0  0  0  0  0  0
   26.4238  -35.2341   -1.8912 O   0  0  0  0  0  0  0  0  0  0  0  0
   25.4238  -35.9156   -3.8045 O   0  0  0  0  0  0  0  0  0  0  0  0
  1  2  1  0
  2  3  2  0
  2 12  1  0
  3  4  1  0
  4  5  2  0
  5  6  1  0
  6  7  1  0
  7  9  1  0
  7  8  1  1
  9 13  1  0
 10  9  2  0
 11  5  1  0
 12 11  2  0
 13 14  1  0
 13 17  1  0
 14 15  1  0
 15 16  1  0
 17 16  1  0
 18 22  1  0
 17 18  1  1
 19 18  2  0
 21 20  1  6
 21 22  1  0
 21 23  1  0
 23 24  1  0
 25 23  2  0
M  END
$$$$
