YPA.pdb
     RDKit          3D

 25 26  0  0  1  0  0  0  0  0999 V2000
   19.3958  -28.4999   -2.9122 O   0  0  0  0  0  0  0  0  0  0  0  0
   18.9528  -27.7758   -1.8119 C   0  0  0  0  0  0  0  0  0  0  0  0
   17.7983  -27.0302   -1.8737 C   0  0  0  0  0  0  0  0  0  0  0  0
   17.3393  -26.2961   -0.7747 C   0  0  0  0  0  0  0  0  0  0  0  0
   18.0221  -26.2861    0.4197 C   0  0  0  0  0  0  0  0  0  0  0  0
   17.5624  -25.5265    1.6094 C   0  0  0  0  0  0  0  0  0  0  0  0
   17.1320  -26.3937    2.7587 C   0  0  2  0  0  0  0  0  0  0  0  0
   16.1180  -27.3618    2.4252 N   0  0  0  0  0  0  0  0  0  0  0  0
   16.7616  -25.5336    3.8965 C   0  0  0  0  0  0  0  0  0  0  0  0
   15.5558  -25.2834    4.1426 O   0  0  0  0  0  0  0  0  0  0  0  0
   19.1925  -27.0475    0.4675 C   0  0  0  0  0  0  0  0  0  0  0  0
   19.6450  -27.7712   -0.6154 C   0  0  0  0  0  0  0  0  0  0  0  0
   17.7410  -24.9296    4.7882 N   0  0  0  0  0  0  0  0  0  0  0  0
   19.1656  -24.9947    4.6317 C   0  0  0  0  0  0  0  0  0  0  0  0
   19.7442  -24.3383    5.8498 C   0  0  0  0  0  0  0  0  0  0  0  0
   18.5876  -24.3381    6.8665 C   0  0  0  0  0  0  0  0  0  0  0  0
   17.4231  -24.1596    5.9604 C   0  0  1  0  0  0  0  0  0  0  0  0
   17.1358  -22.7405    5.6430 C   0  0  0  0  0  0  0  0  0  0  0  0
   17.7693  -22.2225    4.6945 O   0  0  0  0  0  0  0  0  0  0  0  0
   14.4238  -20.2684    6.4336 C   0  0  0  0  0  0  0  0  0  0  0  0
   15.8401  -20.6068    6.0235 C   0  0  2  0  0  0  0  0  0  0  0  0
   16.2051  -21.9516    6.3371 N   0  0  0  0  0  0  0  0  0  0  0  0
   16.7344  -19.6835    6.7497 C   0  0  0  0  0  0  0  0  0  0  0  0
   16.7293  -18.3423    6.4221 O   0  0  0  0  0  0  0  0  0  0  0  0
   17.5008  -20.0764    7.6563 O   0  0  0  0  0  0  0  0  0  0  0  0
  1  2  1  0
  2  3  2  0
  2 12  1  0
  3  4  1  0
  4  5  2  0
  5  6  1  0
  6  7  1  0
  7  9  1  0
  7  8  1  6
  9 13  1  0
 10  9  2  0
 11  5  1  0
 12 11  2  0
 13 14  1  0
 13 17  1  0
 14 15  1  0
 15 16  1  0
 17 16  1  0
 18 22  1  0
 17 18  1  6
 19 18  2  0
 21 20  1  1
 21 22  1  0
 21 23  1  0
 23 24  1  0
 25 23  2  0
M  END
$$$$
