YPA.pdb
     RDKit          3D

 25 26  0  0  1  0  0  0  0  0999 V2000
   17.8249  -26.0001  -14.9618 O   0  0  0  0  0  0  0  0  0  0  0  0
   18.7728  -24.9852  -14.9089 C   0  0  0  0  0  0  0  0  0  0  0  0
   20.0858  -25.2586  -14.6016 C   0  0  0  0  0  0  0  0  0  0  0  0
   21.0516  -24.2481  -14.5445 C   0  0  0  0  0  0  0  0  0  0  0  0
   20.7326  -22.9331  -14.7934 C   0  0  0  0  0  0  0  0  0  0  0  0
   21.7308  -21.8352  -14.7503 C   0  0  0  0  0  0  0  0  0  0  0  0
   21.9901  -21.2995  -13.3705 C   0  0  2  0  0  0  0  0  0  0  0  0
   20.8828  -20.5786  -12.7954 N   0  0  0  0  0  0  0  0  0  0  0  0
   23.2432  -20.5241  -13.3842 C   0  0  0  0  0  0  0  0  0  0  0  0
   23.2186  -19.2709  -13.4603 O   0  0  0  0  0  0  0  0  0  0  0  0
   19.3960  -22.6707  -15.1038 C   0  0  0  0  0  0  0  0  0  0  0  0
   18.4439  -23.6664  -15.1603 C   0  0  0  0  0  0  0  0  0  0  0  0
   24.5601  -21.1406  -13.3142 N   0  0  0  0  0  0  0  0  0  0  0  0
   24.8194  -22.5470  -13.1996 C   0  0  0  0  0  0  0  0  0  0  0  0
   26.3046  -22.6803  -13.0392 C   0  0  0  0  0  0  0  0  0  0  0  0
   26.7679  -21.2754  -12.6118 C   0  0  0  0  0  0  0  0  0  0  0  0
   25.8074  -20.4267  -13.3642 C   0  0  1  0  0  0  0  0  0  0  0  0
   26.2381  -20.1391  -14.7531 C   0  0  0  0  0  0  0  0  0  0  0  0
   25.9402  -20.9782  -15.6342 O   0  0  0  0  0  0  0  0  0  0  0  0
   27.4254  -17.0052  -16.4907 C   0  0  0  0  0  0  0  0  0  0  0  0
   27.0734  -18.4762  -16.4599 C   0  0  2  0  0  0  0  0  0  0  0  0
   26.9538  -18.9932  -15.1338 N   0  0  0  0  0  0  0  0  0  0  0  0
   28.1549  -19.1958  -17.1613 C   0  0  0  0  0  0  0  0  0  0  0  0
   28.9624  -20.0601  -16.4492 O   0  0  0  0  0  0  0  0  0  0  0  0
   28.3663  -19.0487  -18.3849 O   0  0  0  0  0  0  0  0  0  0  0  0
  1  2  1  0
  2  3  2  0
  2 12  1  0
  3  4  1  0
  4  5  2  0
  5  6  1  0
  6  7  1  0
  7  9  1  0
  7  8  1  6
  9 13  1  0
 10  9  2  0
 11  5  1  0
 12 11  2  0
 13 14  1  0
 13 17  1  0
 14 15  1  0
 15 16  1  0
 17 16  1  0
 18 22  1  0
 17 18  1  6
 19 18  2  0
 21 20  1  1
 21 22  1  0
 21 23  1  0
 23 24  1  0
 25 23  2  0
M  END
$$$$
