YPA.pdb
     RDKit          3D

 25 26  0  0  1  0  0  0  0  0999 V2000
   18.1907  -13.5368  -22.2046 O   0  0  0  0  0  0  0  0  0  0  0  0
   18.3469  -12.6647  -21.1338 C   0  0  0  0  0  0  0  0  0  0  0  0
   17.2973  -11.8938  -20.6902 C   0  0  0  0  0  0  0  0  0  0  0  0
   17.4387  -11.0114  -19.6138 C   0  0  0  0  0  0  0  0  0  0  0  0
   18.6352  -10.8740  -18.9485 C   0  0  0  0  0  0  0  0  0  0  0  0
   18.8214   -9.9549  -17.7978 C   0  0  0  0  0  0  0  0  0  0  0  0
   18.9388  -10.6523  -16.4719 C   0  0  2  0  0  0  0  0  0  0  0  0
   17.7891  -11.4434  -16.1130 N   0  0  0  0  0  0  0  0  0  0  0  0
   19.3094   -9.6659  -15.4418 C   0  0  0  0  0  0  0  0  0  0  0  0
   18.4256   -9.0051  -14.8424 O   0  0  0  0  0  0  0  0  0  0  0  0
   19.6917  -11.6628  -19.4101 C   0  0  0  0  0  0  0  0  0  0  0  0
   19.5527  -12.5327  -20.4710 C   0  0  0  0  0  0  0  0  0  0  0  0
   20.6878   -9.3954  -15.0596 N   0  0  0  0  0  0  0  0  0  0  0  0
   21.8508   -9.9998  -15.6432 C   0  0  0  0  0  0  0  0  0  0  0  0
   23.0182   -9.5033  -14.8434 C   0  0  0  0  0  0  0  0  0  0  0  0
   22.3901   -8.9841  -13.5368 C   0  0  0  0  0  0  0  0  0  0  0  0
   21.0925   -8.4640  -14.0414 C   0  0  1  0  0  0  0  0  0  0  0  0
   21.1724   -7.0732  -14.5480 C   0  0  0  0  0  0  0  0  0  0  0  0
   21.6282   -6.9058  -15.7027 O   0  0  0  0  0  0  0  0  0  0  0  0
   19.6275   -3.7890  -13.5725 C   0  0  0  0  0  0  0  0  0  0  0  0
   20.6550   -4.6124  -14.3173 C   0  0  2  0  0  0  0  0  0  0  0  0
   20.7716   -5.9447  -13.8158 N   0  0  0  0  0  0  0  0  0  0  0  0
   21.9533   -3.9260  -14.1665 C   0  0  0  0  0  0  0  0  0  0  0  0
   22.9062   -4.4628  -13.3240 O   0  0  0  0  0  0  0  0  0  0  0  0
   22.2212   -2.8692  -14.7787 O   0  0  0  0  0  0  0  0  0  0  0  0
  1  2  1  0
  2  3  2  0
  2 12  1  0
  3  4  1  0
  4  5  2  0
  5  6  1  0
  6  7  1  0
  7  9  1  0
  7  8  1  1
  9 13  1  0
 10  9  2  0
 11  5  1  0
 12 11  2  0
 13 14  1  0
 13 17  1  0
 14 15  1  0
 15 16  1  0
 17 16  1  0
 18 22  1  0
 17 18  1  6
 19 18  2  0
 21 20  1  1
 21 22  1  0
 21 23  1  0
 23 24  1  0
 25 23  2  0
M  END
$$$$
