YPA.pdb
     RDKit          3D

 25 26  0  0  1  0  0  0  0  0999 V2000
   28.1392  -24.2047  -22.8025 O   0  0  0  0  0  0  0  0  0  0  0  0
   27.3902  -24.0592  -21.6410 C   0  0  0  0  0  0  0  0  0  0  0  0
   26.8776  -22.8350  -21.2783 C   0  0  0  0  0  0  0  0  0  0  0  0
   26.1219  -22.6725  -20.1123 C   0  0  0  0  0  0  0  0  0  0  0  0
   25.8560  -23.7304  -19.2738 C   0  0  0  0  0  0  0  0  0  0  0  0
   25.0517  -23.5986  -18.0331 C   0  0  0  0  0  0  0  0  0  0  0  0
   25.8131  -23.0290  -16.8695 C   0  0  2  0  0  0  0  0  0  0  0  0
   26.9243  -23.8366  -16.4342 N   0  0  0  0  0  0  0  0  0  0  0  0
   24.8665  -22.7115  -15.7856 C   0  0  0  0  0  0  0  0  0  0  0  0
   24.6270  -23.5485  -14.8806 O   0  0  0  0  0  0  0  0  0  0  0  0
   26.3830  -24.9669  -19.6547 C   0  0  0  0  0  0  0  0  0  0  0  0
   27.1279  -25.1275  -20.8040 C   0  0  0  0  0  0  0  0  0  0  0  0
   24.1615  -21.4412  -15.6928 N   0  0  0  0  0  0  0  0  0  0  0  0
   24.2565  -20.3621  -16.6335 C   0  0  0  0  0  0  0  0  0  0  0  0
   23.4552  -19.2362  -16.0509 C   0  0  0  0  0  0  0  0  0  0  0  0
   23.3174  -19.5995  -14.5609 C   0  0  0  0  0  0  0  0  0  0  0  0
   23.2467  -21.0817  -14.6431 C   0  0  1  0  0  0  0  0  0  0  0  0
   21.8772  -21.5934  -14.8878 C   0  0  0  0  0  0  0  0  0  0  0  0
   21.4747  -21.6181  -16.0738 O   0  0  0  0  0  0  0  0  0  0  0  0
   19.3277  -23.5138  -12.8687 C   0  0  0  0  0  0  0  0  0  0  0  0
   19.7627  -22.7069  -14.0721 C   0  0  2  0  0  0  0  0  0  0  0  0
   21.0142  -22.0465  -13.8778 N   0  0  0  0  0  0  0  0  0  0  0  0
   18.7168  -21.6940  -14.3165 C   0  0  0  0  0  0  0  0  0  0  0  0
   17.4784  -22.0997  -14.7724 O   0  0  0  0  0  0  0  0  0  0  0  0
   18.9149  -20.4746  -14.1240 O   0  0  0  0  0  0  0  0  0  0  0  0
  1  2  1  0
  2  3  2  0
  2 12  1  0
  3  4  1  0
  4  5  2  0
  5  6  1  0
  6  7  1  0
  7  9  1  0
  7  8  1  1
  9 13  1  0
 10  9  2  0
 11  5  1  0
 12 11  2  0
 13 14  1  0
 13 17  1  0
 14 15  1  0
 15 16  1  0
 17 16  1  0
 18 22  1  0
 17 18  1  6
 19 18  2  0
 21 20  1  1
 21 22  1  0
 21 23  1  0
 23 24  1  0
 25 23  2  0
M  END
$$$$
