YPA.pdb
     RDKit          3D

 25 26  0  0  1  0  0  0  0  0999 V2000
   24.7963  -17.2774  -17.1681 O   0  0  0  0  0  0  0  0  0  0  0  0
   24.9737  -17.8890  -15.9329 C   0  0  0  0  0  0  0  0  0  0  0  0
   23.9531  -18.5962  -15.3404 C   0  0  0  0  0  0  0  0  0  0  0  0
   24.1162  -19.2175  -14.0975 C   0  0  0  0  0  0  0  0  0  0  0  0
   25.3060  -19.1498  -13.4099 C   0  0  0  0  0  0  0  0  0  0  0  0
   25.5193  -19.8024  -12.0938 C   0  0  0  0  0  0  0  0  0  0  0  0
   26.1026  -21.1842  -12.1847 C   0  0  2  0  0  0  0  0  0  0  0  0
   25.2252  -22.1616  -12.7775 N   0  0  0  0  0  0  0  0  0  0  0  0
   26.6027  -21.5825  -10.8569 C   0  0  0  0  0  0  0  0  0  0  0  0
   25.8294  -22.0936  -10.0097 O   0  0  0  0  0  0  0  0  0  0  0  0
   26.3329  -18.4284  -14.0237 C   0  0  0  0  0  0  0  0  0  0  0  0
   26.1726  -17.8161  -15.2487 C   0  0  0  0  0  0  0  0  0  0  0  0
   27.9891  -21.4139  -10.4463 N   0  0  0  0  0  0  0  0  0  0  0  0
   29.0595  -20.9572  -11.2854 C   0  0  0  0  0  0  0  0  0  0  0  0
   30.3062  -21.0672  -10.4591 C   0  0  0  0  0  0  0  0  0  0  0  0
   29.9222  -22.0279   -9.3185 C   0  0  0  0  0  0  0  0  0  0  0  0
   28.4932  -21.6688   -9.1239 C   0  0  1  0  0  0  0  0  0  0  0  0
   28.2943  -20.5171   -8.2121 C   0  0  0  0  0  0  0  0  0  0  0  0
   27.6664  -19.5298   -8.6594 O   0  0  0  0  0  0  0  0  0  0  0  0
   26.7926  -20.2984   -5.4422 C   0  0  0  0  0  0  0  0  0  0  0  0
   28.1601  -19.7634   -5.8058 C   0  0  2  0  0  0  0  0  0  0  0  0
   28.7646  -20.4693   -6.8904 N   0  0  0  0  0  0  0  0  0  0  0  0
   29.0122  -19.9003   -4.6079 C   0  0  0  0  0  0  0  0  0  0  0  0
   29.1501  -18.8260   -3.7519 O   0  0  0  0  0  0  0  0  0  0  0  0
   29.6168  -20.9616   -4.3404 O   0  0  0  0  0  0  0  0  0  0  0  0
  1  2  1  0
  2  3  2  0
  2 12  1  0
  3  4  1  0
  4  5  2  0
  5  6  1  0
  6  7  1  0
  7  9  1  0
  7  8  1  1
  9 13  1  0
 10  9  2  0
 11  5  1  0
 12 11  2  0
 13 14  1  0
 13 17  1  0
 14 15  1  0
 15 16  1  0
 17 16  1  0
 18 22  1  0
 17 18  1  1
 19 18  2  0
 21 20  1  1
 21 22  1  0
 21 23  1  0
 23 24  1  0
 25 23  2  0
M  END
$$$$
