EHI.pdb
     RDKit          3D

 28 28  0  0  1  0  0  0  0  0999 V2000
   23.3846  -18.8757  -14.5368 N   0  0  0  0  0  0  0  0  0  0  0  0
   22.4499  -19.7867  -13.9241 C   0  0  1  0  0  0  0  0  0  0  0  0
   21.4920  -20.2691  -14.9758 C   0  0  0  0  0  0  0  0  0  0  0  0
   21.6296  -19.5665  -16.2981 C   0  0  0  0  0  0  0  0  0  0  0  0
   22.7102  -20.2666  -17.0781 C   0  0  0  0  0  0  0  0  0  0  0  0
   22.6726  -21.4763  -17.3787 O   0  0  0  0  0  0  0  0  0  0  0  0
   23.1968  -20.9224  -13.3074 C   0  0  0  0  0  0  0  0  0  0  0  0
   22.6544  -21.9490  -12.8453 O   0  0  0  0  0  0  0  0  0  0  0  0
   23.8409  -19.5710  -17.5108 O   0  0  0  0  0  0  0  0  0  0  0  0
   24.6402  -20.8023  -13.2512 N   0  0  0  0  0  0  0  0  0  0  0  0
   25.4105  -21.8318  -12.6001 C   0  0  1  0  0  0  0  0  0  0  0  0
   26.4697  -22.4109  -13.4545 C   0  0  0  0  0  0  0  0  0  0  0  0
   25.9972  -23.2417  -14.5777 C   0  0  0  0  0  0  0  0  0  0  0  0
   24.7239  -23.5124  -14.9721 C   0  0  0  0  0  0  0  0  0  0  0  0
   24.7471  -24.2979  -16.0901 N   0  0  0  0  0  0  0  0  0  0  0  0
   26.0475  -24.5099  -16.3838 C   0  0  0  0  0  0  0  0  0  0  0  0
   26.8012  -23.8808  -15.4835 N   0  0  0  0  0  0  0  0  0  0  0  0
   25.9055  -21.2782  -11.2912 C   0  0  0  0  0  0  0  0  0  0  0  0
   26.9839  -20.5802  -11.2574 O   0  0  0  0  0  0  0  0  0  0  0  0
   27.8375  -18.5746   -7.3345 C   0  0  0  0  0  0  0  0  0  0  0  0
   26.4891  -19.1877   -7.3209 C   0  0  0  0  0  0  0  0  0  0  0  0
   25.9494  -19.6156   -8.6609 C   0  0  2  0  0  0  0  0  0  0  0  0
   24.6801  -18.8223   -8.9632 C   0  0  0  0  0  0  0  0  0  0  0  0
   25.6636  -21.0590   -8.7817 C   0  0  2  0  0  0  0  0  0  0  0  0
   25.2189  -21.4975  -10.0699 N   0  0  0  0  0  0  0  0  0  0  0  0
   24.7687  -21.5134   -7.6796 C   0  0  0  0  0  0  0  0  0  0  0  0
   25.1846  -21.4372   -6.4731 O   0  0  0  0  0  0  0  0  0  0  0  0
   23.5020  -22.0174   -7.8632 O   0  0  0  0  0  0  0  0  0  0  0  0
  2  1  1  6
  2  3  1  0
  2  7  1  0
  3  4  1  0
  4  5  1  0
  5  6  2  0
  5  9  1  0
  7  8  2  0
 10  7  1  0
 10 11  1  0
 11 12  1  6
 12 13  1  0
 13 17  1  0
 13 14  2  0
 14 15  1  0
 16 15  1  0
 17 16  2  0
 18 25  1  0
 18 11  1  0
 19 18  2  0
 21 22  1  0
 21 20  1  0
 22 23  1  1
 24 26  1  0
 24 22  1  0
 24 25  1  6
 26 28  1  0
 27 26  2  0
M  END
$$$$
