EHI.pdb
     RDKit          3D

 28 28  0  0  1  0  0  0  0  0999 V2000
   42.1835  -11.3388  -13.2927 N   0  0  0  0  0  0  0  0  0  0  0  0
   41.5645  -10.0533  -13.0844 C   0  0  1  0  0  0  0  0  0  0  0  0
   40.3329   -9.9705  -13.9402 C   0  0  0  0  0  0  0  0  0  0  0  0
   40.6168   -9.8459  -15.4116 C   0  0  0  0  0  0  0  0  0  0  0  0
   41.0539   -8.4297  -15.6751 C   0  0  0  0  0  0  0  0  0  0  0  0
   40.3329   -7.4336  -15.4670 O   0  0  0  0  0  0  0  0  0  0  0  0
   41.2330   -9.8916  -11.6380 C   0  0  0  0  0  0  0  0  0  0  0  0
   40.5345  -10.6964  -10.9852 O   0  0  0  0  0  0  0  0  0  0  0  0
   42.3257   -8.1597  -16.1839 O   0  0  0  0  0  0  0  0  0  0  0  0
   41.7648   -8.7192  -10.9721 N   0  0  0  0  0  0  0  0  0  0  0  0
   41.6072   -8.5837   -9.5459 C   0  0  1  0  0  0  0  0  0  0  0  0
   42.8680   -8.7500   -8.7907 C   0  0  0  0  0  0  0  0  0  0  0  0
   43.2859  -10.1437   -8.5501 C   0  0  0  0  0  0  0  0  0  0  0  0
   42.6509  -11.3014   -8.8766 C   0  0  0  0  0  0  0  0  0  0  0  0
   43.4178  -12.3676   -8.4990 N   0  0  0  0  0  0  0  0  0  0  0  0
   44.5339  -11.8579   -7.9363 C   0  0  0  0  0  0  0  0  0  0  0  0
   44.4621  -10.5281   -7.9635 N   0  0  0  0  0  0  0  0  0  0  0  0
   40.8954   -7.2842   -9.2826 C   0  0  0  0  0  0  0  0  0  0  0  0
   41.2071   -6.2350   -9.9559 O   0  0  0  0  0  0  0  0  0  0  0  0
   35.5902   -4.7983   -7.3256 C   0  0  0  0  0  0  0  0  0  0  0  0
   37.0618   -4.7334   -7.4814 C   0  0  0  0  0  0  0  0  0  0  0  0
   37.7423   -6.0309   -7.8324 C   0  0  2  0  0  0  0  0  0  0  0  0
   37.3738   -7.0846   -6.7905 C   0  0  0  0  0  0  0  0  0  0  0  0
   39.2121   -5.9491   -7.9455 C   0  0  2  0  0  0  0  0  0  0  0  0
   39.8751   -7.1660   -8.3050 N   0  0  0  0  0  0  0  0  0  0  0  0
   39.7995   -5.3113   -6.7330 C   0  0  0  0  0  0  0  0  0  0  0  0
   40.2077   -6.0563   -5.7777 O   0  0  0  0  0  0  0  0  0  0  0  0
   39.9415   -3.9541   -6.5589 O   0  0  0  0  0  0  0  0  0  0  0  0
  2  1  1  1
  2  3  1  0
  2  7  1  0
  3  4  1  0
  4  5  1  0
  5  6  2  0
  5  9  1  0
  7  8  2  0
 10  7  1  0
 10 11  1  0
 11 12  1  1
 12 13  1  0
 13 17  1  0
 13 14  2  0
 14 15  1  0
 16 15  1  0
 17 16  2  0
 18 25  1  0
 18 11  1  0
 19 18  2  0
 21 22  1  0
 21 20  1  0
 22 23  1  1
 24 26  1  0
 24 22  1  0
 24 25  1  1
 26 28  1  0
 27 26  2  0
M  END
$$$$
