EHI.pdb
     RDKit          3D

 28 28  0  0  1  0  0  0  0  0999 V2000
   27.8765  -30.7529  -17.7950 N   0  0  0  0  0  0  0  0  0  0  0  0
   26.5047  -31.1087  -17.5294 C   0  0  1  0  0  0  0  0  0  0  0  0
   26.4843  -32.4080  -16.7759 C   0  0  0  0  0  0  0  0  0  0  0  0
   25.1036  -32.8974  -16.4364 C   0  0  0  0  0  0  0  0  0  0  0  0
   24.9083  -32.7243  -14.9537 C   0  0  0  0  0  0  0  0  0  0  0  0
   25.8208  -32.8643  -14.1153 O   0  0  0  0  0  0  0  0  0  0  0  0
   25.8522  -30.0171  -16.7479 C   0  0  0  0  0  0  0  0  0  0  0  0
   26.4694  -29.0645  -16.2251 O   0  0  0  0  0  0  0  0  0  0  0  0
   23.6557  -32.3920  -14.4342 O   0  0  0  0  0  0  0  0  0  0  0  0
   24.4123  -30.0901  -16.5989 N   0  0  0  0  0  0  0  0  0  0  0  0
   23.6632  -28.8807  -16.3674 C   0  0  1  0  0  0  0  0  0  0  0  0
   23.6233  -27.9743  -17.5354 C   0  0  0  0  0  0  0  0  0  0  0  0
   22.8592  -26.7271  -17.3466 C   0  0  0  0  0  0  0  0  0  0  0  0
   22.2386  -26.2585  -16.2306 C   0  0  0  0  0  0  0  0  0  0  0  0
   21.6823  -25.0382  -16.4933 N   0  0  0  0  0  0  0  0  0  0  0  0
   21.9656  -24.7563  -17.7826 C   0  0  0  0  0  0  0  0  0  0  0  0
   22.6697  -25.7620  -18.2995 N   0  0  0  0  0  0  0  0  0  0  0  0
   22.3086  -29.2716  -15.8414 C   0  0  0  0  0  0  0  0  0  0  0  0
   21.5582  -30.0590  -16.5256 O   0  0  0  0  0  0  0  0  0  0  0  0
   20.7488  -27.9019  -10.3488 C   0  0  0  0  0  0  0  0  0  0  0  0
   20.7001  -27.9181  -11.8292 C   0  0  0  0  0  0  0  0  0  0  0  0
   20.6761  -29.2815  -12.4700 C   0  0  2  0  0  0  0  0  0  0  0  0
   21.8977  -30.0715  -12.0062 C   0  0  0  0  0  0  0  0  0  0  0  0
   20.6321  -29.2719  -13.9458 C   0  0  2  0  0  0  0  0  0  0  0  0
   21.8156  -28.7997  -14.5984 N   0  0  0  0  0  0  0  0  0  0  0  0
   19.3977  -28.5924  -14.4321 C   0  0  0  0  0  0  0  0  0  0  0  0
   19.5119  -27.5433  -15.1537 O   0  0  0  0  0  0  0  0  0  0  0  0
   18.1175  -29.0165  -14.1608 O   0  0  0  0  0  0  0  0  0  0  0  0
  2  1  1  1
  2  3  1  0
  2  7  1  0
  3  4  1  0
  4  5  1  0
  5  6  2  0
  5  9  1  0
  7  8  2  0
 10  7  1  0
 10 11  1  0
 11 12  1  6
 12 13  1  0
 13 17  1  0
 13 14  2  0
 14 15  1  0
 16 15  1  0
 17 16  2  0
 18 25  1  0
 18 11  1  0
 19 18  2  0
 21 22  1  0
 21 20  1  0
 22 23  1  6
 24 26  1  0
 24 22  1  0
 24 25  1  6
 26 28  1  0
 27 26  2  0
M  END
$$$$
