EHI.pdb
     RDKit          3D

 28 28  0  0  1  0  0  0  0  0999 V2000
   16.8390  -25.6271  -11.2167 N   0  0  0  0  0  0  0  0  0  0  0  0
   16.4377  -24.6273  -12.1749 C   0  0  1  0  0  0  0  0  0  0  0  0
   15.5165  -23.6550  -11.4951 C   0  0  0  0  0  0  0  0  0  0  0  0
   14.1752  -24.2314  -11.1350 C   0  0  0  0  0  0  0  0  0  0  0  0
   14.2082  -24.5891   -9.6730 C   0  0  0  0  0  0  0  0  0  0  0  0
   14.8243  -23.9283   -8.8134 O   0  0  0  0  0  0  0  0  0  0  0  0
   17.6497  -23.9422  -12.7130 C   0  0  0  0  0  0  0  0  0  0  0  0
   18.6067  -23.5555  -12.0085 O   0  0  0  0  0  0  0  0  0  0  0  0
   13.5317  -25.7150   -9.1997 O   0  0  0  0  0  0  0  0  0  0  0  0
   17.6949  -23.7216  -14.1448 N   0  0  0  0  0  0  0  0  0  0  0  0
   18.8349  -23.0548  -14.7219 C   0  0  1  0  0  0  0  0  0  0  0  0
   18.9146  -23.1811  -16.1933 C   0  0  0  0  0  0  0  0  0  0  0  0
   20.0869  -22.5456  -16.8235 C   0  0  0  0  0  0  0  0  0  0  0  0
   21.1097  -21.8607  -16.2447 C   0  0  0  0  0  0  0  0  0  0  0  0
   22.0057  -21.4779  -17.2029 N   0  0  0  0  0  0  0  0  0  0  0  0
   21.5273  -21.9334  -18.3801 C   0  0  0  0  0  0  0  0  0  0  0  0
   20.3798  -22.5734  -18.1609 N   0  0  0  0  0  0  0  0  0  0  0  0
   18.8401  -21.6355  -14.2218 C   0  0  0  0  0  0  0  0  0  0  0  0
   17.7297  -21.0109  -14.0546 O   0  0  0  0  0  0  0  0  0  0  0  0
   21.4220  -19.9212   -9.8850 C   0  0  0  0  0  0  0  0  0  0  0  0
   20.5018  -20.0082  -11.0425 C   0  0  0  0  0  0  0  0  0  0  0  0
   20.9717  -19.3358  -12.3062 C   0  0  2  0  0  0  0  0  0  0  0  0
   21.0739  -17.8319  -12.0620 C   0  0  0  0  0  0  0  0  0  0  0  0
   20.1254  -19.5818  -13.4907 C   0  0  2  0  0  0  0  0  0  0  0  0
   20.0414  -20.9448  -13.9205 N   0  0  0  0  0  0  0  0  0  0  0  0
   20.4850  -18.6511  -14.5982 C   0  0  0  0  0  0  0  0  0  0  0  0
   21.4318  -18.9731  -15.3946 O   0  0  0  0  0  0  0  0  0  0  0  0
   19.8628  -17.4476  -14.8365 O   0  0  0  0  0  0  0  0  0  0  0  0
  2  1  1  1
  2  3  1  0
  2  7  1  0
  3  4  1  0
  4  5  1  0
  5  6  2  0
  5  9  1  0
  7  8  2  0
 10  7  1  0
 10 11  1  0
 11 12  1  6
 12 13  1  0
 13 17  1  0
 13 14  2  0
 14 15  1  0
 16 15  1  0
 17 16  2  0
 18 25  1  0
 18 11  1  0
 19 18  2  0
 21 22  1  0
 21 20  1  0
 22 23  1  1
 24 26  1  0
 24 22  1  0
 24 25  1  6
 26 28  1  0
 27 26  2  0
M  END
$$$$
