EHI.pdb
     RDKit          3D

 28 28  0  0  1  0  0  0  0  0999 V2000
   23.0076  -14.4116  -18.2178 N   0  0  0  0  0  0  0  0  0  0  0  0
   22.3454  -13.4543  -19.0687 C   0  0  1  0  0  0  0  0  0  0  0  0
   20.9072  -13.8610  -19.2184 C   0  0  0  0  0  0  0  0  0  0  0  0
   20.1315  -13.8542  -17.9302 C   0  0  0  0  0  0  0  0  0  0  0  0
   18.7630  -14.4120  -18.2170 C   0  0  0  0  0  0  0  0  0  0  0  0
   17.7428  -13.7071  -18.3488 O   0  0  0  0  0  0  0  0  0  0  0  0
   22.4654  -12.0925  -18.4693 C   0  0  0  0  0  0  0  0  0  0  0  0
   22.5958  -11.8747  -17.2457 O   0  0  0  0  0  0  0  0  0  0  0  0
   18.5681  -15.7883  -18.3490 O   0  0  0  0  0  0  0  0  0  0  0  0
   22.4234  -10.9691  -19.3842 N   0  0  0  0  0  0  0  0  0  0  0  0
   22.6886   -9.6424  -18.8875 C   0  0  1  0  0  0  0  0  0  0  0  0
   22.8728   -8.6348  -19.9544 C   0  0  0  0  0  0  0  0  0  0  0  0
   23.1662   -7.2655  -19.4919 C   0  0  0  0  0  0  0  0  0  0  0  0
   22.3069   -6.2487  -19.2128 C   0  0  0  0  0  0  0  0  0  0  0  0
   23.0095   -5.1615  -18.7747 N   0  0  0  0  0  0  0  0  0  0  0  0
   24.3119   -5.5161  -18.7850 C   0  0  0  0  0  0  0  0  0  0  0  0
   24.4133   -6.7736  -19.2126 N   0  0  0  0  0  0  0  0  0  0  0  0
   21.6131   -9.2997  -17.8923 C   0  0  0  0  0  0  0  0  0  0  0  0
   20.4152   -9.7293  -18.0699 O   0  0  0  0  0  0  0  0  0  0  0  0
   19.5281   -9.6845  -12.4950 C   0  0  0  0  0  0  0  0  0  0  0  0
   19.7553   -8.7052  -13.5830 C   0  0  0  0  0  0  0  0  0  0  0  0
   20.7184   -9.1326  -14.6599 C   0  0  2  0  0  0  0  0  0  0  0  0
   22.0720   -9.4408  -14.0240 C   0  0  0  0  0  0  0  0  0  0  0  0
   20.9024   -8.1546  -15.7505 C   0  0  2  0  0  0  0  0  0  0  0  0
   21.8705   -8.5085  -16.7440 N   0  0  0  0  0  0  0  0  0  0  0  0
   21.1175   -6.7859  -15.2005 C   0  0  0  0  0  0  0  0  0  0  0  0
   22.2639   -6.2370  -15.3369 O   0  0  0  0  0  0  0  0  0  0  0  0
   20.1572   -6.0507  -14.5450 O   0  0  0  0  0  0  0  0  0  0  0  0
  2  1  1  1
  2  3  1  0
  2  7  1  0
  3  4  1  0
  4  5  1  0
  5  6  2  0
  5  9  1  0
  7  8  2  0
 10  7  1  0
 10 11  1  0
 11 12  1  6
 12 13  1  0
 13 17  1  0
 13 14  2  0
 14 15  1  0
 16 15  1  0
 17 16  2  0
 18 25  1  0
 18 11  1  0
 19 18  2  0
 21 22  1  0
 21 20  1  0
 22 23  1  1
 24 26  1  0
 24 22  1  0
 24 25  1  1
 26 28  1  0
 27 26  2  0
M  END
$$$$
