EHI.pdb
     RDKit          3D

 28 28  0  0  1  0  0  0  0  0999 V2000
   18.9390  -12.5439  -18.7192 N   0  0  0  0  0  0  0  0  0  0  0  0
   18.3638  -11.2475  -18.4596 C   0  0  1  0  0  0  0  0  0  0  0  0
   17.4716  -11.3519  -17.2557 C   0  0  0  0  0  0  0  0  0  0  0  0
   16.2896  -12.2616  -17.4465 C   0  0  0  0  0  0  0  0  0  0  0  0
   15.5137  -12.2807  -16.1565 C   0  0  0  0  0  0  0  0  0  0  0  0
   14.5493  -11.5266  -15.9186 O   0  0  0  0  0  0  0  0  0  0  0  0
   19.4572  -10.2552  -18.2411 C   0  0  0  0  0  0  0  0  0  0  0  0
   20.6384  -10.5622  -17.9721 O   0  0  0  0  0  0  0  0  0  0  0  0
   15.8525  -13.1697  -15.1346 O   0  0  0  0  0  0  0  0  0  0  0  0
   19.1011   -8.8546  -18.3516 N   0  0  0  0  0  0  0  0  0  0  0  0
   20.1085   -7.8489  -18.1255 C   0  0  1  0  0  0  0  0  0  0  0  0
   19.9358   -6.6380  -18.9569 C   0  0  0  0  0  0  0  0  0  0  0  0
   20.3418   -6.7726  -20.3683 C   0  0  0  0  0  0  0  0  0  0  0  0
   20.8856   -7.8419  -21.0093 C   0  0  0  0  0  0  0  0  0  0  0  0
   21.0688   -7.5408  -22.3297 N   0  0  0  0  0  0  0  0  0  0  0  0
   20.6322   -6.2748  -22.4992 C   0  0  0  0  0  0  0  0  0  0  0  0
   20.1956   -5.8088  -21.3301 N   0  0  0  0  0  0  0  0  0  0  0  0
   20.1668   -7.5801  -16.6460 C   0  0  0  0  0  0  0  0  0  0  0  0
   19.0832   -7.5556  -15.9558 O   0  0  0  0  0  0  0  0  0  0  0  0
   21.0466   -9.2043  -11.7468 C   0  0  0  0  0  0  0  0  0  0  0  0
   22.2011   -8.6244  -12.4715 C   0  0  0  0  0  0  0  0  0  0  0  0
   22.0930   -8.6112  -13.9742 C   0  0  2  0  0  0  0  0  0  0  0  0
   23.4672   -8.8982  -14.5750 C   0  0  0  0  0  0  0  0  0  0  0  0
   21.5619   -7.3581  -14.5463 C   0  0  2  0  0  0  0  0  0  0  0  0
   21.3905   -7.3491  -15.9676 N   0  0  0  0  0  0  0  0  0  0  0  0
   22.3362   -6.1836  -14.0534 C   0  0  0  0  0  0  0  0  0  0  0  0
   22.3345   -5.9219  -12.8021 O   0  0  0  0  0  0  0  0  0  0  0  0
   23.0699   -5.3422  -14.8571 O   0  0  0  0  0  0  0  0  0  0  0  0
  2  1  1  1
  2  3  1  0
  2  7  1  0
  3  4  1  0
  4  5  1  0
  5  6  2  0
  5  9  1  0
  7  8  2  0
 10  7  1  0
 10 11  1  0
 11 12  1  6
 12 13  1  0
 13 17  1  0
 13 14  2  0
 14 15  1  0
 16 15  1  0
 17 16  2  0
 18 25  1  0
 18 11  1  0
 19 18  2  0
 21 22  1  0
 21 20  1  0
 22 23  1  6
 24 26  1  0
 24 22  1  0
 24 25  1  6
 26 28  1  0
 27 26  2  0
M  END
$$$$
