EHI.pdb
     RDKit          3D

 28 28  0  0  1  0  0  0  0  0999 V2000
   22.6843  -22.1285  -20.5717 N   0  0  0  0  0  0  0  0  0  0  0  0
   22.4939  -20.7068  -20.4248 C   0  0  1  0  0  0  0  0  0  0  0  0
   21.1081  -20.3588  -20.8880 C   0  0  0  0  0  0  0  0  0  0  0  0
   20.0335  -21.2489  -20.3274 C   0  0  0  0  0  0  0  0  0  0  0  0
   19.2901  -20.4645  -19.2793 C   0  0  0  0  0  0  0  0  0  0  0  0
   19.3129  -20.7408  -18.0635 O   0  0  0  0  0  0  0  0  0  0  0  0
   22.7018  -20.3240  -18.9971 C   0  0  0  0  0  0  0  0  0  0  0  0
   23.0451  -21.1238  -18.1003 O   0  0  0  0  0  0  0  0  0  0  0  0
   18.5143  -19.3591  -19.6337 O   0  0  0  0  0  0  0  0  0  0  0  0
   22.4838  -18.9327  -18.6545 N   0  0  0  0  0  0  0  0  0  0  0  0
   22.7701  -18.4808  -17.3162 C   0  0  1  0  0  0  0  0  0  0  0  0
   23.3872  -17.1378  -17.2622 C   0  0  0  0  0  0  0  0  0  0  0  0
   24.8284  -17.0874  -17.5708 C   0  0  0  0  0  0  0  0  0  0  0  0
   25.6725  -18.0994  -17.9075 C   0  0  0  0  0  0  0  0  0  0  0  0
   26.9199  -17.5956  -18.1479 N   0  0  0  0  0  0  0  0  0  0  0  0
   26.8389  -16.2618  -17.9572 C   0  0  0  0  0  0  0  0  0  0  0  0
   25.5906  -15.9504  -17.6121 N   0  0  0  0  0  0  0  0  0  0  0  0
   21.5096  -18.6153  -16.5052 C   0  0  0  0  0  0  0  0  0  0  0  0
   20.4160  -18.0900  -16.9287 O   0  0  0  0  0  0  0  0  0  0  0  0
   17.8228  -22.3372  -13.7174 C   0  0  0  0  0  0  0  0  0  0  0  0
   18.4483  -20.9947  -13.6886 C   0  0  0  0  0  0  0  0  0  0  0  0
   19.7195  -20.8460  -14.4836 C   0  0  2  0  0  0  0  0  0  0  0  0
   20.7447  -21.8583  -13.9779 C   0  0  0  0  0  0  0  0  0  0  0  0
   20.3131  -19.4944  -14.4560 C   0  0  2  0  0  0  0  0  0  0  0  0
   21.4763  -19.3113  -15.2702 N   0  0  0  0  0  0  0  0  0  0  0  0
   20.5164  -19.0364  -13.0521 C   0  0  0  0  0  0  0  0  0  0  0  0
   21.7082  -18.8570  -12.6259 O   0  0  0  0  0  0  0  0  0  0  0  0
   19.4995  -18.7843  -12.1606 O   0  0  0  0  0  0  0  0  0  0  0  0
  2  1  1  1
  2  3  1  0
  2  7  1  0
  3  4  1  0
  4  5  1  0
  5  6  2  0
  5  9  1  0
  7  8  2  0
 10  7  1  0
 10 11  1  0
 11 12  1  6
 12 13  1  0
 13 17  1  0
 13 14  2  0
 14 15  1  0
 16 15  1  0
 17 16  2  0
 18 25  1  0
 18 11  1  0
 19 18  2  0
 21 22  1  0
 21 20  1  0
 22 23  1  1
 24 26  1  0
 24 22  1  0
 24 25  1  6
 26 28  1  0
 27 26  2  0
M  END
$$$$
