EHI.pdb
     RDKit          3D

 28 28  0  0  1  0  0  0  0  0999 V2000
   19.0084  -14.0307  -19.6226 N   0  0  0  0  0  0  0  0  0  0  0  0
   18.1737  -12.8787  -19.3879 C   0  0  1  0  0  0  0  0  0  0  0  0
   17.2378  -13.1883  -18.2546 C   0  0  0  0  0  0  0  0  0  0  0  0
   17.9251  -13.4074  -16.9352 C   0  0  0  0  0  0  0  0  0  0  0  0
   16.8595  -13.6287  -15.8951 C   0  0  0  0  0  0  0  0  0  0  0  0
   17.0906  -13.6930  -14.6713 O   0  0  0  0  0  0  0  0  0  0  0  0
   19.0336  -11.6992  -19.0757 C   0  0  0  0  0  0  0  0  0  0  0  0
   20.2267  -11.7786  -18.7127 O   0  0  0  0  0  0  0  0  0  0  0  0
   15.5222  -13.7803  -16.2666 O   0  0  0  0  0  0  0  0  0  0  0  0
   18.4230  -10.3913  -19.2078 N   0  0  0  0  0  0  0  0  0  0  0  0
   19.1955   -9.2156  -18.8947 C   0  0  1  0  0  0  0  0  0  0  0  0
   18.6191   -7.9652  -19.4349 C   0  0  0  0  0  0  0  0  0  0  0  0
   19.3694   -6.7337  -19.1258 C   0  0  0  0  0  0  0  0  0  0  0  0
   18.9935   -5.6615  -18.3780 C   0  0  0  0  0  0  0  0  0  0  0  0
   20.0182   -4.7590  -18.3225 N   0  0  0  0  0  0  0  0  0  0  0  0
   21.0319   -5.2839  -19.0429 C   0  0  0  0  0  0  0  0  0  0  0  0
   20.6512   -6.4653  -19.5263 N   0  0  0  0  0  0  0  0  0  0  0  0
   19.4260   -9.1984  -17.4077 C   0  0  0  0  0  0  0  0  0  0  0  0
   18.5208   -9.6470  -16.6137 O   0  0  0  0  0  0  0  0  0  0  0  0
   22.9472  -10.6578  -12.8751 C   0  0  0  0  0  0  0  0  0  0  0  0
   22.0184   -9.6399  -13.4187 C   0  0  0  0  0  0  0  0  0  0  0  0
   21.8337   -9.6522  -14.9140 C   0  0  2  0  0  0  0  0  0  0  0  0
   23.1943   -9.4809  -15.5855 C   0  0  0  0  0  0  0  0  0  0  0  0
   20.9015   -8.6310  -15.4316 C   0  0  2  0  0  0  0  0  0  0  0  0
   20.6231   -8.6996  -16.8342 N   0  0  0  0  0  0  0  0  0  0  0  0
   21.3169   -7.2678  -14.9942 C   0  0  0  0  0  0  0  0  0  0  0  0
   21.8420   -6.4763  -15.8497 O   0  0  0  0  0  0  0  0  0  0  0  0
   21.1744   -6.7840  -13.7144 O   0  0  0  0  0  0  0  0  0  0  0  0
  2  1  1  1
  2  3  1  0
  2  7  1  0
  3  4  1  0
  4  5  1  0
  5  6  2  0
  5  9  1  0
  7  8  2  0
 10  7  1  0
 10 11  1  0
 11 12  1  1
 12 13  1  0
 13 17  1  0
 13 14  2  0
 14 15  1  0
 16 15  1  0
 17 16  2  0
 18 25  1  0
 18 11  1  0
 19 18  2  0
 21 22  1  0
 21 20  1  0
 22 23  1  6
 24 26  1  0
 24 22  1  0
 24 25  1  6
 26 28  1  0
 27 26  2  0
M  END
$$$$
