EHI.pdb
     RDKit          3D

 28 28  0  0  1  0  0  0  0  0999 V2000
   15.3198  -10.5981  -15.7811 N   0  0  0  0  0  0  0  0  0  0  0  0
   16.6947  -10.8667  -16.1224 C   0  0  1  0  0  0  0  0  0  0  0  0
   16.7361  -11.4892  -17.4887 C   0  0  0  0  0  0  0  0  0  0  0  0
   15.4152  -11.4780  -18.2071 C   0  0  0  0  0  0  0  0  0  0  0  0
   15.6800  -11.1261  -19.6467 C   0  0  0  0  0  0  0  0  0  0  0  0
   15.4035  -10.0190  -20.1498 O   0  0  0  0  0  0  0  0  0  0  0  0
   17.4731   -9.5937  -16.0814 C   0  0  0  0  0  0  0  0  0  0  0  0
   18.6704   -9.4934  -16.4248 O   0  0  0  0  0  0  0  0  0  0  0  0
   16.2626  -12.0547  -20.5114 O   0  0  0  0  0  0  0  0  0  0  0  0
   16.7748   -8.4150  -15.6084 N   0  0  0  0  0  0  0  0  0  0  0  0
   17.4625   -7.1486  -15.5823 C   0  0  1  0  0  0  0  0  0  0  0  0
   16.5737   -5.9956  -15.3216 C   0  0  0  0  0  0  0  0  0  0  0  0
   17.2190   -4.6705  -15.3752 C   0  0  0  0  0  0  0  0  0  0  0  0
   18.4616   -4.3354  -15.8154 C   0  0  0  0  0  0  0  0  0  0  0  0
   18.6323   -2.9828  -15.7214 N   0  0  0  0  0  0  0  0  0  0  0  0
   17.4827   -2.4844  -15.2192 C   0  0  0  0  0  0  0  0  0  0  0  0
   16.6324   -3.4882  -15.0099 N   0  0  0  0  0  0  0  0  0  0  0  0
   18.6153   -7.2703  -14.6227 C   0  0  0  0  0  0  0  0  0  0  0  0
   18.4066   -7.6624  -13.4169 O   0  0  0  0  0  0  0  0  0  0  0  0
   23.8743   -9.6620  -13.5207 C   0  0  0  0  0  0  0  0  0  0  0  0
   23.0933   -8.4082  -13.4094 C   0  0  0  0  0  0  0  0  0  0  0  0
   21.9422   -8.2648  -14.3708 C   0  0  2  0  0  0  0  0  0  0  0  0
   22.4851   -8.2378  -15.7977 C   0  0  0  0  0  0  0  0  0  0  0  0
   21.0935   -7.0772  -14.1487 C   0  0  2  0  0  0  0  0  0  0  0  0
   19.9479   -6.9657  -14.9998 N   0  0  0  0  0  0  0  0  0  0  0  0
   21.9184   -5.8357  -14.1299 C   0  0  0  0  0  0  0  0  0  0  0  0
   22.7308   -5.6468  -13.1610 O   0  0  0  0  0  0  0  0  0  0  0  0
   21.8742   -4.8571  -15.0957 O   0  0  0  0  0  0  0  0  0  0  0  0
  2  1  1  6
  2  3  1  0
  2  7  1  0
  3  4  1  0
  4  5  1  0
  5  6  2  0
  5  9  1  0
  7  8  2  0
 10  7  1  0
 10 11  1  0
 11 12  1  1
 12 13  1  0
 13 17  1  0
 13 14  2  0
 14 15  1  0
 16 15  1  0
 17 16  2  0
 18 25  1  0
 18 11  1  0
 19 18  2  0
 21 22  1  0
 21 20  1  0
 22 23  1  6
 24 26  1  0
 24 22  1  0
 24 25  1  6
 26 28  1  0
 27 26  2  0
M  END
$$$$
