EHI.pdb
     RDKit          3D

 28 28  0  0  1  0  0  0  0  0999 V2000
   23.7570  -27.2474  -15.8957 N   0  0  0  0  0  0  0  0  0  0  0  0
   23.7121  -26.0402  -16.6829 C   0  0  1  0  0  0  0  0  0  0  0  0
   22.2743  -25.6822  -16.9291 C   0  0  0  0  0  0  0  0  0  0  0  0
   21.4755  -25.4585  -15.6749 C   0  0  0  0  0  0  0  0  0  0  0  0
   20.7904  -24.1239  -15.8006 C   0  0  0  0  0  0  0  0  0  0  0  0
   20.3354  -23.4862  -14.8302 O   0  0  0  0  0  0  0  0  0  0  0  0
   24.4273  -24.9490  -15.9578 C   0  0  0  0  0  0  0  0  0  0  0  0
   25.2064  -25.1384  -14.9992 O   0  0  0  0  0  0  0  0  0  0  0  0
   20.6254  -23.5228  -17.0499 O   0  0  0  0  0  0  0  0  0  0  0  0
   24.1850  -23.5940  -16.4115 N   0  0  0  0  0  0  0  0  0  0  0  0
   24.9477  -22.5111  -15.8433 C   0  0  1  0  0  0  0  0  0  0  0  0
   25.0267  -21.3190  -16.7151 C   0  0  0  0  0  0  0  0  0  0  0  0
   25.7988  -20.1852  -16.1736 C   0  0  0  0  0  0  0  0  0  0  0  0
   27.1233  -19.9046  -16.3052 C   0  0  0  0  0  0  0  0  0  0  0  0
   27.4082  -18.7279  -15.6714 N   0  0  0  0  0  0  0  0  0  0  0  0
   26.2467  -18.2830  -15.1469 C   0  0  0  0  0  0  0  0  0  0  0  0
   25.2794  -19.1495  -15.4435 N   0  0  0  0  0  0  0  0  0  0  0  0
   24.4029  -22.2361  -14.4677 C   0  0  0  0  0  0  0  0  0  0  0  0
   23.1530  -22.4121  -14.2265 O   0  0  0  0  0  0  0  0  0  0  0  0
   28.1289  -21.3091  -10.2556 C   0  0  0  0  0  0  0  0  0  0  0  0
   26.9655  -21.8613  -10.9875 C   0  0  0  0  0  0  0  0  0  0  0  0
   25.8008  -20.9235  -11.1715 C   0  0  2  0  0  0  0  0  0  0  0  0
   25.1661  -20.6444   -9.8110 C   0  0  0  0  0  0  0  0  0  0  0  0
   24.7623  -21.4009  -12.1061 C   0  0  2  0  0  0  0  0  0  0  0  0
   25.2259  -21.7833  -13.4055 N   0  0  0  0  0  0  0  0  0  0  0  0
   23.6222  -20.4423  -12.1619 C   0  0  0  0  0  0  0  0  0  0  0  0
   23.6584  -19.4859  -13.0093 O   0  0  0  0  0  0  0  0  0  0  0  0
   22.5090  -20.5091  -11.3565 O   0  0  0  0  0  0  0  0  0  0  0  0
  2  1  1  1
  2  3  1  0
  2  7  1  0
  3  4  1  0
  4  5  1  0
  5  6  2  0
  5  9  1  0
  7  8  2  0
 10  7  1  0
 10 11  1  0
 11 12  1  6
 12 13  1  0
 13 17  1  0
 13 14  2  0
 14 15  1  0
 16 15  1  0
 17 16  2  0
 18 25  1  0
 18 11  1  0
 19 18  2  0
 21 22  1  0
 21 20  1  0
 22 23  1  1
 24 26  1  0
 24 22  1  0
 24 25  1  6
 26 28  1  0
 27 26  2  0
M  END
$$$$
