SMN.pdb
     RDKit          3D

 23 22  0  0  1  0  0  0  0  0999 V2000
   22.0964  -12.9235  -21.8757 O   0  0  0  0  0  0  0  0  0  0  0  0
   21.8047  -12.6572  -20.5377 C   0  0  0  0  0  0  0  0  0  0  0  0
   22.9663  -13.1743  -19.7048 C   0  0  2  0  0  0  0  0  0  0  0  0
   22.8768  -14.6044  -19.5936 N   0  0  0  0  0  0  0  0  0  0  0  0
   22.9934  -12.5128  -18.3664 C   0  0  0  0  0  0  0  0  0  0  0  0
   22.1357  -12.8427  -17.4912 O   0  0  0  0  0  0  0  0  0  0  0  0
   28.2405  -13.6945  -14.7280 C   0  0  0  0  0  0  0  0  0  0  0  0
   27.7410  -12.0463  -15.3248 S   0  0  0  0  0  0  0  0  0  0  0  0
   26.0228  -12.0995  -15.8258 C   0  0  0  0  0  0  0  0  0  0  0  0
   25.4020  -10.8426  -16.2699 C   0  0  0  0  0  0  0  0  0  0  0  0
   24.0083  -10.8239  -16.7817 C   0  0  2  0  0  0  0  0  0  0  0  0
   23.9637  -11.5315  -18.0799 N   0  0  0  0  0  0  0  0  0  0  0  0
   23.4506   -9.4874  -16.9114 C   0  0  0  0  0  0  0  0  0  0  0  0
   23.5109   -8.8929  -18.0110 O   0  0  0  0  0  0  0  0  0  0  0  0
   20.1100   -5.9809  -18.5859 N   0  0  0  0  0  0  0  0  0  0  0  0
   20.0873   -6.7203  -17.3828 C   0  0  0  0  0  0  0  0  0  0  0  0
   19.2507   -6.3168  -16.5081 O   0  0  0  0  0  0  0  0  0  0  0  0
   20.9611   -7.8761  -17.1485 C   0  0  0  0  0  0  0  0  0  0  0  0
   22.0115   -7.6152  -16.1188 C   0  0  2  0  0  0  0  0  0  0  0  0
   22.8200   -8.7825  -15.8431 N   0  0  0  0  0  0  0  0  0  0  0  0
   21.5300   -7.0180  -14.8693 C   0  0  0  0  0  0  0  0  0  0  0  0
   21.2377   -7.8062  -13.9072 O   0  0  0  0  0  0  0  0  0  0  0  0
   21.3603   -5.6887  -14.6295 O   0  0  0  0  0  0  0  0  0  0  0  0
  2  1  1  0
  3  2  1  0
  3  5  1  0
  3  4  1  1
  5  6  2  0
  5 12  1  0
  7  8  1  0
  8  9  1  0
 11 10  1  6
 10  9  1  0
 11 13  1  0
 12 11  1  0
 13 20  1  0
 14 13  2  0
 16 15  1  0
 17 16  2  0
 18 16  1  0
 19 21  1  0
 19 18  1  6
 20 19  1  0
 21 23  1  0
 22 21  2  0
M  END
$$$$
