SMN.pdb
     RDKit          3D

 23 22  0  0  1  0  0  0  0  0999 V2000
   28.0124  -18.1996  -16.8132 O   0  0  0  0  0  0  0  0  0  0  0  0
   27.1349  -19.2773  -16.6921 C   0  0  0  0  0  0  0  0  0  0  0  0
   27.8780  -20.3937  -15.9767 C   0  0  2  0  0  0  0  0  0  0  0  0
   28.3843  -21.3287  -16.9436 N   0  0  0  0  0  0  0  0  0  0  0  0
   26.9957  -21.0567  -14.9709 C   0  0  0  0  0  0  0  0  0  0  0  0
   26.5429  -22.2181  -15.2089 O   0  0  0  0  0  0  0  0  0  0  0  0
   24.6100  -21.3160   -7.4504 C   0  0  0  0  0  0  0  0  0  0  0  0
   25.6937  -20.5161   -8.6782 S   0  0  0  0  0  0  0  0  0  0  0  0
   25.1897  -21.0184  -10.3213 C   0  0  0  0  0  0  0  0  0  0  0  0
   26.0020  -20.5550  -11.4561 C   0  0  0  0  0  0  0  0  0  0  0  0
   25.6273  -20.9033  -12.8500 C   0  0  2  0  0  0  0  0  0  0  0  0
   26.6702  -20.3969  -13.7687 N   0  0  0  0  0  0  0  0  0  0  0  0
   24.3181  -20.4091  -13.2447 C   0  0  0  0  0  0  0  0  0  0  0  0
   23.9007  -19.3213  -12.7877 O   0  0  0  0  0  0  0  0  0  0  0  0
   22.2404  -19.0135  -16.3223 N   0  0  0  0  0  0  0  0  0  0  0  0
   21.5582  -20.2359  -16.5091 C   0  0  0  0  0  0  0  0  0  0  0  0
   21.1162  -20.4414  -17.6881 O   0  0  0  0  0  0  0  0  0  0  0  0
   21.3690  -21.2091  -15.4268 C   0  0  0  0  0  0  0  0  0  0  0  0
   22.0315  -20.8008  -14.1515 C   0  0  2  0  0  0  0  0  0  0  0  0
   23.4476  -21.0952  -14.1433 N   0  0  0  0  0  0  0  0  0  0  0  0
   21.3967  -21.2997  -12.9275 C   0  0  0  0  0  0  0  0  0  0  0  0
   20.8704  -20.4434  -12.1388 O   0  0  0  0  0  0  0  0  0  0  0  0
   21.3120  -22.6027  -12.5424 O   0  0  0  0  0  0  0  0  0  0  0  0
  2  1  1  0
  3  2  1  0
  3  5  1  0
  3  4  1  6
  5  6  2  0
  5 12  1  0
  7  8  1  0
  8  9  1  0
 11 10  1  1
 10  9  1  0
 11 13  1  0
 12 11  1  0
 13 20  1  0
 14 13  2  0
 16 15  1  0
 17 16  2  0
 18 16  1  0
 19 21  1  0
 19 18  1  6
 20 19  1  0
 21 23  1  0
 22 21  2  0
M  END
$$$$
