SMN.pdb
     RDKit          3D

 23 22  0  0  1  0  0  0  0  0999 V2000
   28.2556  -18.3727  -16.0773 O   0  0  0  0  0  0  0  0  0  0  0  0
   27.1884  -19.1029  -15.5537 C   0  0  0  0  0  0  0  0  0  0  0  0
   27.7473  -20.4140  -15.0253 C   0  0  2  0  0  0  0  0  0  0  0  0
   28.0829  -21.2712  -16.1290 N   0  0  0  0  0  0  0  0  0  0  0  0
   26.7800  -21.0630  -14.0910 C   0  0  0  0  0  0  0  0  0  0  0  0
   25.9874  -21.9504  -14.5324 O   0  0  0  0  0  0  0  0  0  0  0  0
   26.6081  -19.2878   -7.5901 C   0  0  0  0  0  0  0  0  0  0  0  0
   25.6670  -20.8468   -7.6653 S   0  0  0  0  0  0  0  0  0  0  0  0
   25.0799  -21.0977   -9.3382 C   0  0  0  0  0  0  0  0  0  0  0  0
   26.0026  -20.7847  -10.4396 C   0  0  0  0  0  0  0  0  0  0  0  0
   25.6072  -21.0209  -11.8512 C   0  0  2  0  0  0  0  0  0  0  0  0
   26.7496  -20.6922  -12.7315 N   0  0  0  0  0  0  0  0  0  0  0  0
   24.4224  -20.2827  -12.2582 C   0  0  0  0  0  0  0  0  0  0  0  0
   24.5262  -19.3460  -13.0816 O   0  0  0  0  0  0  0  0  0  0  0  0
   21.2233  -20.2724  -16.2613 N   0  0  0  0  0  0  0  0  0  0  0  0
   21.0668  -20.6849  -14.9196 C   0  0  0  0  0  0  0  0  0  0  0  0
   19.8623  -20.8642  -14.5390 O   0  0  0  0  0  0  0  0  0  0  0  0
   22.2067  -20.8971  -14.0197 C   0  0  0  0  0  0  0  0  0  0  0  0
   21.9628  -20.3861  -12.6372 C   0  0  2  0  0  0  0  0  0  0  0  0
   23.1093  -20.5573  -11.7722 N   0  0  0  0  0  0  0  0  0  0  0  0
   20.7496  -20.8914  -11.9869 C   0  0  0  0  0  0  0  0  0  0  0  0
   19.8215  -20.0531  -11.7258 O   0  0  0  0  0  0  0  0  0  0  0  0
   20.5112  -22.1827  -11.6281 O   0  0  0  0  0  0  0  0  0  0  0  0
  2  1  1  0
  3  2  1  0
  3  5  1  0
  3  4  1  6
  5  6  2  0
  5 12  1  0
  7  8  1  0
  8  9  1  0
 11 10  1  1
 10  9  1  0
 11 13  1  0
 12 11  1  0
 13 20  1  0
 14 13  2  0
 16 15  1  0
 17 16  2  0
 18 16  1  0
 19 21  1  0
 19 18  1  6
 20 19  1  0
 21 23  1  0
 22 21  2  0
M  END
$$$$
