SMN.pdb
     RDKit          3D

 23 22  0  0  1  0  0  0  0  0999 V2000
   22.6729  -13.7934  -22.5239 O   0  0  0  0  0  0  0  0  0  0  0  0
   22.4105  -13.4549  -21.1962 C   0  0  0  0  0  0  0  0  0  0  0  0
   23.6474  -13.8008  -20.3833 C   0  0  2  0  0  0  0  0  0  0  0  0
   23.5679  -15.1683  -19.9483 N   0  0  0  0  0  0  0  0  0  0  0  0
   23.8057  -12.8600  -19.2346 C   0  0  0  0  0  0  0  0  0  0  0  0
   23.0990  -13.0239  -18.1933 O   0  0  0  0  0  0  0  0  0  0  0  0
   26.3462  -10.4189  -14.4821 C   0  0  0  0  0  0  0  0  0  0  0  0
   27.6101  -10.1066  -15.7576 S   0  0  0  0  0  0  0  0  0  0  0  0
   26.8212   -9.4138  -17.2081 C   0  0  0  0  0  0  0  0  0  0  0  0
   26.3300  -10.3494  -18.2305 C   0  0  0  0  0  0  0  0  0  0  0  0
   24.9331  -10.8513  -18.1916 C   0  0  2  0  0  0  0  0  0  0  0  0
   24.7322  -11.8005  -19.3081 N   0  0  0  0  0  0  0  0  0  0  0  0
   23.9316   -9.7978  -18.2332 C   0  0  0  0  0  0  0  0  0  0  0  0
   23.4159   -9.4735  -19.3264 O   0  0  0  0  0  0  0  0  0  0  0  0
   19.4835   -7.1561  -18.7373 N   0  0  0  0  0  0  0  0  0  0  0  0
   20.0148   -7.7298  -17.5612 C   0  0  0  0  0  0  0  0  0  0  0  0
   19.4690   -7.3505  -16.4723 O   0  0  0  0  0  0  0  0  0  0  0  0
   21.1174   -8.6984  -17.5825 C   0  0  0  0  0  0  0  0  0  0  0  0
   22.4314   -8.0963  -17.2045 C   0  0  2  0  0  0  0  0  0  0  0  0
   23.4800   -9.0851  -17.0827 N   0  0  0  0  0  0  0  0  0  0  0  0
   22.4063   -7.2271  -16.0239 C   0  0  0  0  0  0  0  0  0  0  0  0
   22.8619   -7.6994  -14.9277 O   0  0  0  0  0  0  0  0  0  0  0  0
   21.9387   -5.9494  -15.9792 O   0  0  0  0  0  0  0  0  0  0  0  0
  2  1  1  0
  3  2  1  0
  3  5  1  0
  3  4  1  1
  5  6  2  0
  5 12  1  0
  7  8  1  0
  8  9  1  0
 11 10  1  6
 10  9  1  0
 11 13  1  0
 12 11  1  0
 13 20  1  0
 14 13  2  0
 16 15  1  0
 17 16  2  0
 18 16  1  0
 19 21  1  0
 19 18  1  1
 20 19  1  0
 21 23  1  0
 22 21  2  0
M  END
$$$$
