SMN.pdb
     RDKit          3D

 23 22  0  0  1  0  0  0  0  0999 V2000
   27.3220  -18.7450  -16.9275 O   0  0  0  0  0  0  0  0  0  0  0  0
   26.9112  -20.0782  -16.9218 C   0  0  0  0  0  0  0  0  0  0  0  0
   27.6864  -20.7908  -15.8255 C   0  0  2  0  0  0  0  0  0  0  0  0
   28.4368  -21.8752  -16.3968 N   0  0  0  0  0  0  0  0  0  0  0  0
   26.7669  -21.2585  -14.7460 C   0  0  0  0  0  0  0  0  0  0  0  0
   26.0047  -22.2497  -14.9631 O   0  0  0  0  0  0  0  0  0  0  0  0
   25.1420  -20.6145   -6.9795 C   0  0  0  0  0  0  0  0  0  0  0  0
   26.3023  -20.2721   -8.3428 S   0  0  0  0  0  0  0  0  0  0  0  0
   25.5322  -20.7216   -9.8955 C   0  0  0  0  0  0  0  0  0  0  0  0
   26.3224  -20.5511  -11.1239 C   0  0  0  0  0  0  0  0  0  0  0  0
   25.7691  -20.9481  -12.4434 C   0  0  2  0  0  0  0  0  0  0  0  0
   26.7477  -20.6040  -13.4979 N   0  0  0  0  0  0  0  0  0  0  0  0
   24.4746  -20.3548  -12.7374 C   0  0  0  0  0  0  0  0  0  0  0  0
   24.4118  -19.3055  -13.4166 O   0  0  0  0  0  0  0  0  0  0  0  0
   20.5015  -22.3701  -15.9810 N   0  0  0  0  0  0  0  0  0  0  0  0
   21.1161  -21.2520  -15.3753 C   0  0  0  0  0  0  0  0  0  0  0  0
   20.5810  -20.1241  -15.6381 O   0  0  0  0  0  0  0  0  0  0  0  0
   22.2886  -21.3717  -14.5005 C   0  0  0  0  0  0  0  0  0  0  0  0
   22.0584  -20.8111  -13.1350 C   0  0  2  0  0  0  0  0  0  0  0  0
   23.2322  -20.8988  -12.2944 N   0  0  0  0  0  0  0  0  0  0  0  0
   20.8835  -21.3355  -12.4318 C   0  0  0  0  0  0  0  0  0  0  0  0
   19.9912  -20.5004  -12.0595 O   0  0  0  0  0  0  0  0  0  0  0  0
   20.6463  -22.6419  -12.1313 O   0  0  0  0  0  0  0  0  0  0  0  0
  2  1  1  0
  3  2  1  0
  3  5  1  0
  3  4  1  6
  5  6  2  0
  5 12  1  0
  7  8  1  0
  8  9  1  0
 11 10  1  1
 10  9  1  0
 11 13  1  0
 12 11  1  0
 13 20  1  0
 14 13  2  0
 16 15  1  0
 17 16  2  0
 18 16  1  0
 19 21  1  0
 19 18  1  6
 20 19  1  0
 21 23  1  0
 22 21  2  0
M  END
$$$$
