SMN.pdb
     RDKit          3D

 23 22  0  0  1  0  0  0  0  0999 V2000
   20.8872   -9.3290  -14.7841 O   0  0  0  0  0  0  0  0  0  0  0  0
   19.5663   -8.9099  -14.6227 C   0  0  0  0  0  0  0  0  0  0  0  0
   18.6679  -10.0854  -14.9716 C   0  0  2  0  0  0  0  0  0  0  0  0
   18.5243  -10.1715  -16.3990 N   0  0  0  0  0  0  0  0  0  0  0  0
   17.3471   -9.9634  -14.2860 C   0  0  0  0  0  0  0  0  0  0  0  0
   16.4302   -9.2670  -14.8197 O   0  0  0  0  0  0  0  0  0  0  0  0
   14.7321  -14.5413   -9.4503 C   0  0  0  0  0  0  0  0  0  0  0  0
   13.8468  -14.0480  -10.9652 S   0  0  0  0  0  0  0  0  0  0  0  0
   14.2044  -12.3299  -11.3207 C   0  0  0  0  0  0  0  0  0  0  0  0
   15.4484  -12.0270  -12.0439 C   0  0  0  0  0  0  0  0  0  0  0  0
   15.7964  -10.6289  -12.4028 C   0  0  2  0  0  0  0  0  0  0  0  0
   17.1228  -10.6169  -13.0575 N   0  0  0  0  0  0  0  0  0  0  0  0
   15.7783   -9.7132  -11.2735 C   0  0  0  0  0  0  0  0  0  0  0  0
   16.7885   -9.6080  -10.5424 O   0  0  0  0  0  0  0  0  0  0  0  0
   15.9687   -6.3883   -7.4605 N   0  0  0  0  0  0  0  0  0  0  0  0
   16.0359   -6.1028   -8.8421 C   0  0  0  0  0  0  0  0  0  0  0  0
   16.1332   -4.8665   -9.1413 O   0  0  0  0  0  0  0  0  0  0  0  0
   15.9993   -7.1512   -9.8687 C   0  0  0  0  0  0  0  0  0  0  0  0
   14.7483   -7.9667   -9.8267 C   0  0  2  0  0  0  0  0  0  0  0  0
   14.6577   -8.9004  -10.9276 N   0  0  0  0  0  0  0  0  0  0  0  0
   13.5044   -7.2007   -9.7000 C   0  0  0  0  0  0  0  0  0  0  0  0
   13.0924   -6.9258   -8.5224 O   0  0  0  0  0  0  0  0  0  0  0  0
   12.7341   -6.7478  -10.7270 O   0  0  0  0  0  0  0  0  0  0  0  0
  2  1  1  0
  3  2  1  0
  3  5  1  0
  3  4  1  6
  5  6  2  0
  5 12  1  0
  7  8  1  0
  8  9  1  0
 11 10  1  1
 10  9  1  0
 11 13  1  0
 12 11  1  0
 13 20  1  0
 14 13  2  0
 16 15  1  0
 17 16  2  0
 18 16  1  0
 19 21  1  0
 19 18  1  6
 20 19  1  0
 21 23  1  0
 22 21  2  0
M  END
$$$$
