SMN.pdb
     RDKit          3D

 23 22  0  0  1  0  0  0  0  0999 V2000
   26.6573  -18.7868  -16.4736 O   0  0  0  0  0  0  0  0  0  0  0  0
   27.3306  -19.8229  -17.1212 C   0  0  0  0  0  0  0  0  0  0  0  0
   28.0877  -20.6082  -16.0625 C   0  0  2  0  0  0  0  0  0  0  0  0
   28.8672  -21.6367  -16.6950 N   0  0  0  0  0  0  0  0  0  0  0  0
   27.1478  -21.1681  -15.0463 C   0  0  0  0  0  0  0  0  0  0  0  0
   26.5613  -22.2689  -15.2800 O   0  0  0  0  0  0  0  0  0  0  0  0
   25.1505  -20.7328   -7.3678 C   0  0  0  0  0  0  0  0  0  0  0  0
   26.2946  -20.2385   -8.6978 S   0  0  0  0  0  0  0  0  0  0  0  0
   25.6692  -20.8408  -10.2637 C   0  0  0  0  0  0  0  0  0  0  0  0
   26.4455  -20.5310  -11.4735 C   0  0  0  0  0  0  0  0  0  0  0  0
   25.9834  -20.9864  -12.8091 C   0  0  2  0  0  0  0  0  0  0  0  0
   26.9160  -20.4788  -13.8390 N   0  0  0  0  0  0  0  0  0  0  0  0
   24.6185  -20.5940  -13.1210 C   0  0  0  0  0  0  0  0  0  0  0  0
   24.3680  -19.4071  -13.4285 O   0  0  0  0  0  0  0  0  0  0  0  0
   22.5926  -20.3663  -16.1345 N   0  0  0  0  0  0  0  0  0  0  0  0
   21.8189  -21.5031  -15.8124 C   0  0  0  0  0  0  0  0  0  0  0  0
   21.4228  -22.1956  -16.8080 O   0  0  0  0  0  0  0  0  0  0  0  0
   21.4912  -21.8705  -14.4296 C   0  0  0  0  0  0  0  0  0  0  0  0
   22.1815  -21.0144  -13.4184 C   0  0  2  0  0  0  0  0  0  0  0  0
   23.5097  -21.4917  -13.1017 N   0  0  0  0  0  0  0  0  0  0  0  0
   21.4221  -20.7583  -12.1906 C   0  0  0  0  0  0  0  0  0  0  0  0
   20.2761  -20.2052  -12.3044 O   0  0  0  0  0  0  0  0  0  0  0  0
   21.8229  -21.0547  -10.9238 O   0  0  0  0  0  0  0  0  0  0  0  0
  2  1  1  0
  3  2  1  0
  3  5  1  0
  3  4  1  6
  5  6  2  0
  5 12  1  0
  7  8  1  0
  8  9  1  0
 11 10  1  1
 10  9  1  0
 11 13  1  0
 12 11  1  0
 13 20  1  0
 14 13  2  0
 16 15  1  0
 17 16  2  0
 18 16  1  0
 19 21  1  0
 19 18  1  6
 20 19  1  0
 21 23  1  0
 22 21  2  0
M  END
$$$$
