SMN.pdb
     RDKit          3D

 23 22  0  0  1  0  0  0  0  0999 V2000
   28.3803  -18.9198  -17.9550 O   0  0  0  0  0  0  0  0  0  0  0  0
   27.4681  -19.8623  -17.4799 C   0  0  0  0  0  0  0  0  0  0  0  0
   28.2405  -20.8584  -16.6304 C   0  0  2  0  0  0  0  0  0  0  0  0
   28.7517  -21.9080  -17.4687 N   0  0  0  0  0  0  0  0  0  0  0  0
   27.3833  -21.3925  -15.5307 C   0  0  0  0  0  0  0  0  0  0  0  0
   26.7715  -22.4920  -15.6958 O   0  0  0  0  0  0  0  0  0  0  0  0
   24.2139  -20.8579   -8.6069 C   0  0  0  0  0  0  0  0  0  0  0  0
   24.6087  -20.6131  -10.3694 S   0  0  0  0  0  0  0  0  0  0  0  0
   26.3131  -21.0791  -10.6592 C   0  0  0  0  0  0  0  0  0  0  0  0
   26.9261  -20.6689  -11.9313 C   0  0  0  0  0  0  0  0  0  0  0  0
   26.3728  -21.1385  -13.2267 C   0  0  2  0  0  0  0  0  0  0  0  0
   27.2564  -20.6805  -14.3209 N   0  0  0  0  0  0  0  0  0  0  0  0
   25.0033  -20.7128  -13.4667 C   0  0  0  0  0  0  0  0  0  0  0  0
   24.7771  -19.5578  -13.8920 O   0  0  0  0  0  0  0  0  0  0  0  0
   19.8708  -22.0922  -16.1193 N   0  0  0  0  0  0  0  0  0  0  0  0
   20.7236  -21.3275  -15.2930 C   0  0  0  0  0  0  0  0  0  0  0  0
   20.2741  -20.1831  -14.9525 O   0  0  0  0  0  0  0  0  0  0  0  0
   22.0370  -21.8106  -14.8501 C   0  0  0  0  0  0  0  0  0  0  0  0
   22.5479  -21.0915  -13.6444 C   0  0  2  0  0  0  0  0  0  0  0  0
   23.8633  -21.5420  -13.2460 N   0  0  0  0  0  0  0  0  0  0  0  0
   21.6405  -21.0754  -12.4927 C   0  0  0  0  0  0  0  0  0  0  0  0
   21.5365  -22.1454  -11.8024 O   0  0  0  0  0  0  0  0  0  0  0  0
   20.8869  -20.0191  -12.0809 O   0  0  0  0  0  0  0  0  0  0  0  0
  2  1  1  0
  3  2  1  0
  3  5  1  0
  3  4  1  6
  5  6  2  0
  5 12  1  0
  7  8  1  0
  8  9  1  0
 11 10  1  1
 10  9  1  0
 11 13  1  0
 12 11  1  0
 13 20  1  0
 14 13  2  0
 16 15  1  0
 17 16  2  0
 18 16  1  0
 19 21  1  0
 19 18  1  6
 20 19  1  0
 21 23  1  0
 22 21  2  0
M  END
$$$$
