SMN.pdb
     RDKit          3D

 23 22  0  0  1  0  0  0  0  0999 V2000
   16.3169  -10.3429  -17.1258 O   0  0  0  0  0  0  0  0  0  0  0  0
   17.0538  -10.6206  -15.9743 C   0  0  0  0  0  0  0  0  0  0  0  0
   18.3918  -11.1919  -16.4144 C   0  0  2  0  0  0  0  0  0  0  0  0
   18.3949  -12.6149  -16.2128 N   0  0  0  0  0  0  0  0  0  0  0  0
   19.5153  -10.5252  -15.6913 C   0  0  0  0  0  0  0  0  0  0  0  0
   19.5856  -10.6192  -14.4276 O   0  0  0  0  0  0  0  0  0  0  0  0
   24.7679  -12.4504  -14.1429 C   0  0  0  0  0  0  0  0  0  0  0  0
   23.3584  -11.7016  -15.0230 S   0  0  0  0  0  0  0  0  0  0  0  0
   23.8803  -10.1543  -15.7575 C   0  0  0  0  0  0  0  0  0  0  0  0
   22.8537   -9.3273  -16.4089 C   0  0  0  0  0  0  0  0  0  0  0  0
   21.5641   -9.0437  -15.7298 C   0  0  2  0  0  0  0  0  0  0  0  0
   20.4879   -9.7989  -16.4076 N   0  0  0  0  0  0  0  0  0  0  0  0
   21.2330   -7.6291  -15.6700 C   0  0  0  0  0  0  0  0  0  0  0  0
   20.4831   -7.1292  -16.5382 O   0  0  0  0  0  0  0  0  0  0  0  0
   18.4646   -3.3239  -13.7290 N   0  0  0  0  0  0  0  0  0  0  0  0
   19.3634   -3.8161  -14.7009 C   0  0  0  0  0  0  0  0  0  0  0  0
   19.7691   -2.9596  -15.5548 O   0  0  0  0  0  0  0  0  0  0  0  0
   19.8067   -5.2150  -14.7312 C   0  0  0  0  0  0  0  0  0  0  0  0
   21.2912   -5.3595  -14.6456 C   0  0  2  0  0  0  0  0  0  0  0  0
   21.7158   -6.7420  -14.6621 N   0  0  0  0  0  0  0  0  0  0  0  0
   21.9282   -4.6404  -13.5378 C   0  0  0  0  0  0  0  0  0  0  0  0
   22.3072   -5.3221  -12.5259 O   0  0  0  0  0  0  0  0  0  0  0  0
   22.1584   -3.3000  -13.4794 O   0  0  0  0  0  0  0  0  0  0  0  0
  2  1  1  0
  3  2  1  0
  3  5  1  0
  3  4  1  1
  5  6  2  0
  5 12  1  0
  7  8  1  0
  8  9  1  0
 11 10  1  6
 10  9  1  0
 11 13  1  0
 12 11  1  0
 13 20  1  0
 14 13  2  0
 16 15  1  0
 17 16  2  0
 18 16  1  0
 19 21  1  0
 19 18  1  1
 20 19  1  0
 21 23  1  0
 22 21  2  0
M  END
$$$$
