RHW.pdb
     RDKit          3D

 36 38  0  0  1  0  0  0  0  0999 V2000
   23.7802  -22.2932  -19.3766 N   0  0  0  0  0  0  0  0  0  0  0  0
   24.3557  -23.4904  -19.8581 C   0  0  0  0  0  0  0  0  0  0  0  0
   25.1747  -23.4557  -20.8444 N   0  0  0  0  0  0  0  0  0  0  0  0
   24.0221  -24.7198  -19.2502 N   0  0  0  0  0  0  0  0  0  0  0  0
   22.9364  -24.7388  -18.2505 C   0  0  0  0  0  0  0  0  0  0  0  0
   23.5219  -24.8003  -16.8859 C   0  0  0  0  0  0  0  0  0  0  0  0
   23.4215  -23.5278  -16.1427 C   0  0  0  0  0  0  0  0  0  0  0  0
   22.2362  -23.3058  -15.2859 C   0  0  2  0  0  0  0  0  0  0  0  0
   20.9599  -23.6982  -15.7834 N   0  0  0  0  0  0  0  0  0  0  0  0
   22.2010  -21.8718  -14.8541 C   0  0  0  0  0  0  0  0  0  0  0  0
   21.7040  -21.0734  -15.6582 O   0  0  0  0  0  0  0  0  0  0  0  0
   25.6771  -24.3246  -21.1636 N   0  0  0  0  0  0  0  0  0  0  0  0
   22.7059  -21.4004  -13.6064 C   0  0  1  0  0  0  0  0  0  0  0  0
   23.1188  -20.0777  -13.3026 C   0  0  0  0  0  0  0  0  0  0  0  0
   22.0813  -19.2309  -12.5548 C   0  0  0  0  0  0  0  0  0  0  0  0
   20.9271  -20.0849  -12.1840 C   0  0  0  0  0  0  0  0  0  0  0  0
   20.6923  -21.3763  -12.4366 N   0  0  0  0  0  0  0  0  0  0  0  0
   19.4795  -21.6958  -11.8785 C   0  0  0  0  0  0  0  0  0  0  0  0
   18.9732  -20.6033  -11.2843 N   0  0  0  0  0  0  0  0  0  0  0  0
   19.8456  -19.6109  -11.4625 C   0  0  0  0  0  0  0  0  0  0  0  0
   24.5053  -19.8133  -12.9836 O   0  0  0  0  0  0  0  0  0  0  0  0
   24.8842  -18.5888  -12.8344 N   0  0  0  0  0  0  0  0  0  0  0  0
   25.5114  -20.7687  -12.8129 C   0  0  1  0  0  0  0  0  0  0  0  0
   26.9245  -20.5510  -12.5613 C   0  0  0  0  0  0  0  0  0  0  0  0
   27.4067  -21.3778  -11.3998 C   0  0  0  0  0  0  0  0  0  0  0  0
   26.7245  -20.9833  -10.1511 C   0  0  0  0  0  0  0  0  0  0  0  0
   25.3886  -20.7695   -9.9023 N   0  0  0  0  0  0  0  0  0  0  0  0
   25.2219  -20.4185   -8.6073 C   0  0  0  0  0  0  0  0  0  0  0  0
   26.4157  -20.3895   -7.9734 C   0  0  0  0  0  0  0  0  0  0  0  0
   26.7895  -20.1009   -6.6649 C   0  0  0  0  0  0  0  0  0  0  0  0
   28.1035  -20.1569   -6.2770 C   0  0  0  0  0  0  0  0  0  0  0  0
   29.0486  -20.5095   -7.2308 C   0  0  0  0  0  0  0  0  0  0  0  0
   28.6799  -20.7965   -8.5376 C   0  0  0  0  0  0  0  0  0  0  0  0
   27.3623  -20.7388   -8.9190 C   0  0  0  0  0  0  0  0  0  0  0  0
   27.6547  -20.9965  -13.7737 O   0  0  0  0  0  0  0  0  0  0  0  0
   27.0826  -21.5067  -14.7403 O   0  0  0  0  0  0  0  0  0  0  0  0
  2  1  1  0
  3  2  2  0
  4  2  1  0
  5  4  1  0
  6  7  1  0
  6  5  1  0
  8  7  1  0
  8 10  1  0
  8  9  1  6
 10 11  2  0
 12 13  1  0
 12 10  1  0
 13 20  1  0
 13 14  1  6
 15 14  1  0
 16 15  2  0
 17 18  1  0
 17 16  1  0
 18 19  2  0
 19 15  1  0
 20 22  1  0
 21 20  2  0
 22 23  1  0
 23 24  1  6
 24 25  1  0
 25 33  1  0
 26 25  2  0
 26 27  1  0
 27 28  1  0
 28 29  2  0
 29 30  1  0
 31 30  2  0
 32 31  1  0
 33 32  2  0
 33 28  1  0
 34 23  1  0
 35 34  2  0
 36 34  1  0
M  END
$$$$
