RHW.pdb
     RDKit          3D

 36 38  0  0  1  0  0  0  0  0999 V2000
   36.3169  -30.7324  -14.6405 N   0  0  0  0  0  0  0  0  0  0  0  0
   37.4348  -31.5560  -14.9018 C   0  0  0  0  0  0  0  0  0  0  0  0
   38.5702  -31.2810  -14.3728 N   0  0  0  0  0  0  0  0  0  0  0  0
   37.2941  -32.6770  -15.7478 N   0  0  0  0  0  0  0  0  0  0  0  0
   35.9556  -32.9891  -16.2858 C   0  0  0  0  0  0  0  0  0  0  0  0
   35.0775  -33.4612  -15.1837 C   0  0  0  0  0  0  0  0  0  0  0  0
   33.7257  -33.8527  -15.6325 C   0  0  0  0  0  0  0  0  0  0  0  0
   33.5323  -35.2153  -16.1747 C   0  0  2  0  0  0  0  0  0  0  0  0
   34.1454  -35.5407  -17.4191 N   0  0  0  0  0  0  0  0  0  0  0  0
   32.0670  -35.5218  -16.2280 C   0  0  0  0  0  0  0  0  0  0  0  0
   31.6448  -35.9777  -17.2981 O   0  0  0  0  0  0  0  0  0  0  0  0
   39.4287  -31.8446  -14.6066 N   0  0  0  0  0  0  0  0  0  0  0  0
   31.1663  -35.3097  -15.1427 C   0  0  2  0  0  0  0  0  0  0  0  0
   29.8298  -35.7751  -15.0450 C   0  0  0  0  0  0  0  0  0  0  0  0
   29.5697  -37.1395  -15.6958 C   0  0  0  0  0  0  0  0  0  0  0  0
   28.1233  -37.4552  -15.6105 C   0  0  0  0  0  0  0  0  0  0  0  0
   27.1071  -37.0646  -16.3861 N   0  0  0  0  0  0  0  0  0  0  0  0
   25.9606  -37.6305  -15.8864 C   0  0  0  0  0  0  0  0  0  0  0  0
   26.2737  -38.3671  -14.8082 N   0  0  0  0  0  0  0  0  0  0  0  0
   27.5910  -38.2699  -14.6267 C   0  0  0  0  0  0  0  0  0  0  0  0
   29.0487  -35.4738  -13.8647 O   0  0  0  0  0  0  0  0  0  0  0  0
   28.9150  -36.3851  -12.9608 N   0  0  0  0  0  0  0  0  0  0  0  0
   28.4031  -34.2655  -13.5862 C   0  0  2  0  0  0  0  0  0  0  0  0
   26.9933  -33.9471  -13.7229 C   0  0  0  0  0  0  0  0  0  0  0  0
   26.3092  -34.8919  -14.6738 C   0  0  0  0  0  0  0  0  0  0  0  0
   24.9021  -34.4990  -14.8881 C   0  0  0  0  0  0  0  0  0  0  0  0
   24.3776  -33.3512  -15.4354 N   0  0  0  0  0  0  0  0  0  0  0  0
   23.0274  -33.4244  -15.4279 C   0  0  0  0  0  0  0  0  0  0  0  0
   22.6259  -34.5967  -14.8872 C   0  0  0  0  0  0  0  0  0  0  0  0
   21.3735  -35.1564  -14.6558 C   0  0  0  0  0  0  0  0  0  0  0  0
   21.2487  -36.3975  -14.0864 C   0  0  0  0  0  0  0  0  0  0  0  0
   22.4108  -37.0771  -13.7473 C   0  0  0  0  0  0  0  0  0  0  0  0
   23.6621  -36.5216  -13.9749 C   0  0  0  0  0  0  0  0  0  0  0  0
   23.7796  -35.2785  -14.5459 C   0  0  0  0  0  0  0  0  0  0  0  0
   26.3776  -34.1208  -12.3841 O   0  0  0  0  0  0  0  0  0  0  0  0
   25.9503  -33.1701  -11.7242 O   0  0  0  0  0  0  0  0  0  0  0  0
  2  1  1  0
  3  2  2  0
  4  2  1  0
  5  4  1  0
  6  7  1  0
  6  5  1  0
  8  7  1  0
  8 10  1  0
  8  9  1  6
 10 11  2  0
 12 13  1  0
 12 10  1  0
 13 20  1  0
 13 14  1  6
 15 14  1  0
 16 15  2  0
 17 18  1  0
 17 16  1  0
 18 19  2  0
 19 15  1  0
 20 22  1  0
 21 20  2  0
 22 23  1  0
 23 24  1  6
 24 25  1  0
 25 33  1  0
 26 25  2  0
 26 27  1  0
 27 28  1  0
 28 29  2  0
 29 30  1  0
 31 30  2  0
 32 31  1  0
 33 32  2  0
 33 28  1  0
 34 23  1  0
 35 34  2  0
 36 34  1  0
M  END
$$$$
