RHW.pdb
     RDKit          3D

 36 38  0  0  1  0  0  0  0  0999 V2000
   34.3919  -26.4268  -15.2747 N   0  0  0  0  0  0  0  0  0  0  0  0
   33.9285  -26.3513  -16.6073 C   0  0  0  0  0  0  0  0  0  0  0  0
   34.4492  -27.0993  -17.5095 N   0  0  0  0  0  0  0  0  0  0  0  0
   32.8947  -25.4488  -16.9375 N   0  0  0  0  0  0  0  0  0  0  0  0
   32.4136  -24.5188  -15.8972 C   0  0  0  0  0  0  0  0  0  0  0  0
   31.6886  -23.3913  -16.5390 C   0  0  0  0  0  0  0  0  0  0  0  0
   30.9393  -22.5509  -15.5830 C   0  0  0  0  0  0  0  0  0  0  0  0
   29.6293  -23.0365  -15.0969 C   0  0  2  0  0  0  0  0  0  0  0  0
   28.7729  -23.7064  -16.0179 N   0  0  0  0  0  0  0  0  0  0  0  0
   28.8961  -21.9063  -14.4420 C   0  0  0  0  0  0  0  0  0  0  0  0
   29.5372  -21.2503  -13.6115 O   0  0  0  0  0  0  0  0  0  0  0  0
   34.1314  -27.0419  -18.5121 N   0  0  0  0  0  0  0  0  0  0  0  0
   27.5371  -21.5704  -14.7153 C   0  0  1  0  0  0  0  0  0  0  0  0
   26.6699  -20.8050  -13.8940 C   0  0  0  0  0  0  0  0  0  0  0  0
   26.5594  -19.3229  -14.2730 C   0  0  0  0  0  0  0  0  0  0  0  0
   25.2931  -19.0992  -15.0115 C   0  0  0  0  0  0  0  0  0  0  0  0
   24.3065  -19.9499  -15.3112 N   0  0  0  0  0  0  0  0  0  0  0  0
   23.3533  -19.2521  -16.0105 C   0  0  0  0  0  0  0  0  0  0  0  0
   23.7541  -17.9769  -16.1377 N   0  0  0  0  0  0  0  0  0  0  0  0
   24.9373  -17.8677  -15.5329 C   0  0  0  0  0  0  0  0  0  0  0  0
   25.4758  -21.4129  -13.3477 O   0  0  0  0  0  0  0  0  0  0  0  0
   24.4335  -21.5179  -14.1014 N   0  0  0  0  0  0  0  0  0  0  0  0
   25.3221  -21.9159  -12.0525 C   0  0  2  0  0  0  0  0  0  0  0  0
   25.0091  -21.1874  -10.8363 C   0  0  0  0  0  0  0  0  0  0  0  0
   26.2233  -20.4834  -10.2931 C   0  0  0  0  0  0  0  0  0  0  0  0
   26.2593  -20.5538   -8.8186 C   0  0  0  0  0  0  0  0  0  0  0  0
   25.3794  -21.1410   -7.9392 N   0  0  0  0  0  0  0  0  0  0  0  0
   25.8152  -20.9535   -6.6730 C   0  0  0  0  0  0  0  0  0  0  0  0
   26.9709  -20.2519   -6.6755 C   0  0  0  0  0  0  0  0  0  0  0  0
   27.8144  -19.8076   -5.6624 C   0  0  0  0  0  0  0  0  0  0  0  0
   28.9567  -19.1063   -5.9512 C   0  0  0  0  0  0  0  0  0  0  0  0
   29.2443  -18.8528   -7.2854 C   0  0  0  0  0  0  0  0  0  0  0  0
   28.4045  -19.2928   -8.2990 C   0  0  0  0  0  0  0  0  0  0  0  0
   27.2625  -19.9949   -8.0026 C   0  0  0  0  0  0  0  0  0  0  0  0
   24.0049  -20.1556  -11.1951 O   0  0  0  0  0  0  0  0  0  0  0  0
   24.0443  -19.5369  -12.2616 O   0  0  0  0  0  0  0  0  0  0  0  0
  2  1  1  0
  3  2  2  0
  4  2  1  0
  5  4  1  0
  6  7  1  0
  6  5  1  0
  8  7  1  0
  8 10  1  0
  8  9  1  6
 10 11  2  0
 12 13  1  0
 12 10  1  0
 13 20  1  0
 13 14  1  1
 15 14  1  0
 16 15  2  0
 17 18  1  0
 17 16  1  0
 18 19  2  0
 19 15  1  0
 20 22  1  0
 21 20  2  0
 22 23  1  0
 23 24  1  6
 24 25  1  0
 25 33  1  0
 26 25  2  0
 26 27  1  0
 27 28  1  0
 28 29  2  0
 29 30  1  0
 31 30  2  0
 32 31  1  0
 33 32  2  0
 33 28  1  0
 34 23  1  0
 35 34  2  0
 36 34  1  0
M  END
$$$$
