RHW.pdb
     RDKit          3D

 36 38  0  0  1  0  0  0  0  0999 V2000
   31.9020  -16.1202  -18.2469 N   0  0  0  0  0  0  0  0  0  0  0  0
   31.5029  -16.7837  -19.4288 C   0  0  0  0  0  0  0  0  0  0  0  0
   31.8704  -16.3326  -20.5716 N   0  0  0  0  0  0  0  0  0  0  0  0
   30.6981  -17.9401  -19.3430 N   0  0  0  0  0  0  0  0  0  0  0  0
   29.2423  -17.7728  -19.1663 C   0  0  0  0  0  0  0  0  0  0  0  0
   28.8914  -17.9743  -17.7363 C   0  0  0  0  0  0  0  0  0  0  0  0
   28.5698  -19.3761  -17.3994 C   0  0  0  0  0  0  0  0  0  0  0  0
   27.3770  -19.9923  -18.0205 C   0  0  2  0  0  0  0  0  0  0  0  0
   26.4797  -19.1517  -18.7406 N   0  0  0  0  0  0  0  0  0  0  0  0
   26.6294  -20.7741  -16.9843 C   0  0  0  0  0  0  0  0  0  0  0  0
   25.5493  -20.2958  -16.6159 O   0  0  0  0  0  0  0  0  0  0  0  0
   31.6642  -16.8644  -21.4570 N   0  0  0  0  0  0  0  0  0  0  0  0
   27.0947  -21.9965  -16.4157 C   0  0  2  0  0  0  0  0  0  0  0  0
   26.4948  -22.7220  -15.3545 C   0  0  0  0  0  0  0  0  0  0  0  0
   26.6822  -24.2428  -15.4221 C   0  0  0  0  0  0  0  0  0  0  0  0
   26.3072  -24.7230  -16.7741 C   0  0  0  0  0  0  0  0  0  0  0  0
   25.8283  -24.0522  -17.8264 N   0  0  0  0  0  0  0  0  0  0  0  0
   25.6415  -24.9537  -18.8448 C   0  0  0  0  0  0  0  0  0  0  0  0
   26.0064  -26.1734  -18.4178 N   0  0  0  0  0  0  0  0  0  0  0  0
   26.4151  -26.0490  -17.1549 C   0  0  0  0  0  0  0  0  0  0  0  0
   26.4452  -22.1454  -14.0281 O   0  0  0  0  0  0  0  0  0  0  0  0
   27.4590  -21.4653  -13.6098 N   0  0  0  0  0  0  0  0  0  0  0  0
   25.3859  -22.2462  -13.1215 C   0  0  2  0  0  0  0  0  0  0  0  0
   25.2471  -21.6057  -11.8261 C   0  0  0  0  0  0  0  0  0  0  0  0
   26.2514  -20.4982  -11.6535 C   0  0  0  0  0  0  0  0  0  0  0  0
   26.3337  -20.0749  -10.2414 C   0  0  0  0  0  0  0  0  0  0  0  0
   25.4382  -19.3629   -9.4776 N   0  0  0  0  0  0  0  0  0  0  0  0
   25.9357  -19.2043   -8.2304 C   0  0  0  0  0  0  0  0  0  0  0  0
   27.1488  -19.7932   -8.1326 C   0  0  0  0  0  0  0  0  0  0  0  0
   28.0612  -19.9211   -7.0904 C   0  0  0  0  0  0  0  0  0  0  0  0
   29.2432  -20.5938   -7.2649 C   0  0  0  0  0  0  0  0  0  0  0  0
   29.5011  -21.1420   -8.5140 C   0  0  0  0  0  0  0  0  0  0  0  0
   28.5941  -21.0151   -9.5569 C   0  0  0  0  0  0  0  0  0  0  0  0
   27.4123  -20.3405   -9.3749 C   0  0  0  0  0  0  0  0  0  0  0  0
   23.8914  -21.0041  -11.7827 O   0  0  0  0  0  0  0  0  0  0  0  0
   23.2129  -20.9762  -10.7528 O   0  0  0  0  0  0  0  0  0  0  0  0
  2  1  1  0
  3  2  2  0
  4  2  1  0
  5  4  1  0
  6  7  1  0
  6  5  1  0
  8  7  1  0
  8 10  1  0
  8  9  1  1
 10 11  2  0
 12 13  1  0
 12 10  1  0
 13 20  1  0
 13 14  1  6
 15 14  1  0
 16 15  2  0
 17 18  1  0
 17 16  1  0
 18 19  2  0
 19 15  1  0
 20 22  1  0
 21 20  2  0
 22 23  1  0
 23 24  1  1
 24 25  1  0
 25 33  1  0
 26 25  2  0
 26 27  1  0
 27 28  1  0
 28 29  2  0
 29 30  1  0
 31 30  2  0
 32 31  1  0
 33 32  2  0
 33 28  1  0
 34 23  1  0
 35 34  2  0
 36 34  1  0
M  END
$$$$
