RHW.pdb
     RDKit          3D

 36 38  0  0  1  0  0  0  0  0999 V2000
   30.5688  -25.4621  -16.2004 N   0  0  0  0  0  0  0  0  0  0  0  0
   30.4145  -25.1954  -17.5793 C   0  0  0  0  0  0  0  0  0  0  0  0
   30.8188  -26.0499  -18.4459 N   0  0  0  0  0  0  0  0  0  0  0  0
   29.8172  -23.9857  -17.9944 N   0  0  0  0  0  0  0  0  0  0  0  0
   29.1906  -23.1236  -16.9733 C   0  0  0  0  0  0  0  0  0  0  0  0
   30.2166  -22.2184  -16.3932 C   0  0  0  0  0  0  0  0  0  0  0  0
   29.6503  -20.9975  -15.7844 C   0  0  0  0  0  0  0  0  0  0  0  0
   28.4141  -20.4306  -16.3662 C   0  0  2  0  0  0  0  0  0  0  0  0
   28.5365  -19.3772  -17.3179 N   0  0  0  0  0  0  0  0  0  0  0  0
   27.4917  -20.0190  -15.2598 C   0  0  0  0  0  0  0  0  0  0  0  0
   27.6585  -18.8793  -14.8077 O   0  0  0  0  0  0  0  0  0  0  0  0
   30.7289  -25.8604  -19.4780 N   0  0  0  0  0  0  0  0  0  0  0  0
   26.4727  -20.8558  -14.7162 C   0  0  2  0  0  0  0  0  0  0  0  0
   25.5871  -20.5354  -13.6554 C   0  0  0  0  0  0  0  0  0  0  0  0
   24.1775  -20.1169  -14.0922 C   0  0  0  0  0  0  0  0  0  0  0  0
   23.2785  -20.1185  -12.9129 C   0  0  0  0  0  0  0  0  0  0  0  0
   23.5574  -20.2734  -11.6148 N   0  0  0  0  0  0  0  0  0  0  0  0
   22.3743  -20.1962  -10.9228 C   0  0  0  0  0  0  0  0  0  0  0  0
   21.3733  -19.9931  -11.7945 N   0  0  0  0  0  0  0  0  0  0  0  0
   21.9095  -19.9436  -13.0142 C   0  0  0  0  0  0  0  0  0  0  0  0
   25.6780  -21.2531  -12.4021 O   0  0  0  0  0  0  0  0  0  0  0  0
   25.3955  -22.5122  -12.3871 N   0  0  0  0  0  0  0  0  0  0  0  0
   26.0510  -20.7159  -11.1666 C   0  0  1  0  0  0  0  0  0  0  0  0
   26.3380  -21.4200   -9.9298 C   0  0  0  0  0  0  0  0  0  0  0  0
   27.6109  -20.9221   -9.3000 C   0  0  0  0  0  0  0  0  0  0  0  0
   27.3224  -19.9994   -8.1839 C   0  0  0  0  0  0  0  0  0  0  0  0
   26.3514  -19.0325   -8.0639 N   0  0  0  0  0  0  0  0  0  0  0  0
   26.4654  -18.4262   -6.8607 C   0  0  0  0  0  0  0  0  0  0  0  0
   27.4927  -18.9611   -6.1632 C   0  0  0  0  0  0  0  0  0  0  0  0
   28.0178  -18.7064   -4.9004 C   0  0  0  0  0  0  0  0  0  0  0  0
   29.0861  -19.4209   -4.4225 C   0  0  0  0  0  0  0  0  0  0  0  0
   29.6273  -20.4052   -5.2382 C   0  0  0  0  0  0  0  0  0  0  0  0
   29.1074  -20.6612   -6.4993 C   0  0  0  0  0  0  0  0  0  0  0  0
   28.0373  -19.9421   -6.9714 C   0  0  0  0  0  0  0  0  0  0  0  0
   25.2220  -21.1292   -8.9962 O   0  0  0  0  0  0  0  0  0  0  0  0
   25.0534  -21.7605   -7.9498 O   0  0  0  0  0  0  0  0  0  0  0  0
  2  1  1  0
  3  2  2  0
  4  2  1  0
  5  4  1  0
  6  7  1  0
  6  5  1  0
  8  7  1  0
  8 10  1  0
  8  9  1  1
 10 11  2  0
 12 13  1  0
 12 10  1  0
 13 20  1  0
 13 14  1  6
 15 14  1  0
 16 15  2  0
 17 18  1  0
 17 16  1  0
 18 19  2  0
 19 15  1  0
 20 22  1  0
 21 20  2  0
 22 23  1  0
 23 24  1  1
 24 25  1  0
 25 33  1  0
 26 25  2  0
 26 27  1  0
 27 28  1  0
 28 29  2  0
 29 30  1  0
 31 30  2  0
 32 31  1  0
 33 32  2  0
 33 28  1  0
 34 23  1  0
 35 34  2  0
 36 34  1  0
M  END
$$$$
