RHW.pdb
     RDKit          3D

 36 38  0  0  1  0  0  0  0  0999 V2000
   32.8666  -24.1615  -15.4529 N   0  0  0  0  0  0  0  0  0  0  0  0
   32.2902  -23.7843  -14.2193 C   0  0  0  0  0  0  0  0  0  0  0  0
   33.0372  -23.5994  -13.1935 N   0  0  0  0  0  0  0  0  0  0  0  0
   30.8921  -23.6157  -14.1240 N   0  0  0  0  0  0  0  0  0  0  0  0
   30.2096  -22.8029  -15.1498 C   0  0  0  0  0  0  0  0  0  0  0  0
   30.5266  -21.3670  -14.9342 C   0  0  0  0  0  0  0  0  0  0  0  0
   29.3295  -20.5111  -14.8058 C   0  0  0  0  0  0  0  0  0  0  0  0
   28.0002  -21.1264  -15.0120 C   0  0  2  0  0  0  0  0  0  0  0  0
   27.4131  -21.0482  -16.3080 N   0  0  0  0  0  0  0  0  0  0  0  0
   27.0475  -20.5989  -13.9834 C   0  0  0  0  0  0  0  0  0  0  0  0
   26.9010  -19.3705  -13.9563 O   0  0  0  0  0  0  0  0  0  0  0  0
   32.6214  -23.3691  -12.2536 N   0  0  0  0  0  0  0  0  0  0  0  0
   26.3344  -21.4190  -13.0597 C   0  0  1  0  0  0  0  0  0  0  0  0
   25.4708  -20.9783  -12.0242 C   0  0  0  0  0  0  0  0  0  0  0  0
   23.9749  -21.0416  -12.3574 C   0  0  0  0  0  0  0  0  0  0  0  0
   23.7305  -20.3510  -13.6467 C   0  0  0  0  0  0  0  0  0  0  0  0
   23.8956  -20.7813  -14.9014 N   0  0  0  0  0  0  0  0  0  0  0  0
   23.5287  -19.7608  -15.7431 C   0  0  0  0  0  0  0  0  0  0  0  0
   23.1385  -18.7084  -15.0059 N   0  0  0  0  0  0  0  0  0  0  0  0
   23.2563  -19.0533  -13.7234 C   0  0  0  0  0  0  0  0  0  0  0  0
   25.8255  -21.2186  -10.6420 O   0  0  0  0  0  0  0  0  0  0  0  0
   26.3243  -22.3646  -10.3205 N   0  0  0  0  0  0  0  0  0  0  0  0
   25.6838  -20.3172   -9.5830 C   0  0  1  0  0  0  0  0  0  0  0  0
   25.7905  -20.5791   -8.1590 C   0  0  0  0  0  0  0  0  0  0  0  0
   25.9716  -19.3038   -7.3807 C   0  0  0  0  0  0  0  0  0  0  0  0
   27.3983  -19.0626   -7.0862 C   0  0  0  0  0  0  0  0  0  0  0  0
   28.3436  -18.3651   -7.8018 N   0  0  0  0  0  0  0  0  0  0  0  0
   29.5267  -18.4097   -7.1486 C   0  0  0  0  0  0  0  0  0  0  0  0
   29.4034  -19.1224   -6.0063 C   0  0  0  0  0  0  0  0  0  0  0  0
   30.2976  -19.4570   -4.9946 C   0  0  0  0  0  0  0  0  0  0  0  0
   29.8968  -20.2027   -3.9159 C   0  0  0  0  0  0  0  0  0  0  0  0
   28.5717  -20.6138   -3.8658 C   0  0  0  0  0  0  0  0  0  0  0  0
   27.6770  -20.2835   -4.8741 C   0  0  0  0  0  0  0  0  0  0  0  0
   28.0852  -19.5362   -5.9511 C   0  0  0  0  0  0  0  0  0  0  0  0
   24.5094  -21.1957   -7.7342 O   0  0  0  0  0  0  0  0  0  0  0  0
   23.4942  -21.1606   -8.4343 O   0  0  0  0  0  0  0  0  0  0  0  0
  2  1  1  0
  3  2  2  0
  4  2  1  0
  5  4  1  0
  6  7  1  0
  6  5  1  0
  8  7  1  0
  8 10  1  0
  8  9  1  6
 10 11  2  0
 12 13  1  0
 12 10  1  0
 13 20  1  0
 13 14  1  1
 15 14  1  0
 16 15  2  0
 17 18  1  0
 17 16  1  0
 18 19  2  0
 19 15  1  0
 20 22  1  0
 21 20  2  0
 22 23  1  0
 23 24  1  1
 24 25  1  0
 25 33  1  0
 26 25  2  0
 26 27  1  0
 27 28  1  0
 28 29  2  0
 29 30  1  0
 31 30  2  0
 32 31  1  0
 33 32  2  0
 33 28  1  0
 34 23  1  0
 35 34  2  0
 36 34  1  0
M  END
$$$$
