RHW.pdb
     RDKit          3D

 36 38  0  0  1  0  0  0  0  0999 V2000
   29.0270  -27.8488  -16.5748 N   0  0  0  0  0  0  0  0  0  0  0  0
   27.7725  -28.0989  -17.1750 C   0  0  0  0  0  0  0  0  0  0  0  0
   27.2959  -29.2894  -17.1899 N   0  0  0  0  0  0  0  0  0  0  0  0
   27.0521  -27.0341  -17.7577 N   0  0  0  0  0  0  0  0  0  0  0  0
   27.5631  -25.6604  -17.5839 C   0  0  0  0  0  0  0  0  0  0  0  0
   27.3262  -25.2181  -16.1850 C   0  0  0  0  0  0  0  0  0  0  0  0
   26.4180  -24.0580  -16.0786 C   0  0  0  0  0  0  0  0  0  0  0  0
   26.8898  -22.7479  -16.5777 C   0  0  2  0  0  0  0  0  0  0  0  0
   28.0068  -22.7241  -17.4620 N   0  0  0  0  0  0  0  0  0  0  0  0
   27.1354  -21.8361  -15.4148 C   0  0  0  0  0  0  0  0  0  0  0  0
   28.2128  -21.9847  -14.8247 O   0  0  0  0  0  0  0  0  0  0  0  0
   26.3852  -29.5035  -17.6739 N   0  0  0  0  0  0  0  0  0  0  0  0
   26.2116  -20.8464  -14.9664 C   0  0  1  0  0  0  0  0  0  0  0  0
   26.3127  -20.0618  -13.7888 C   0  0  0  0  0  0  0  0  0  0  0  0
   25.9852  -18.5745  -13.9711 C   0  0  0  0  0  0  0  0  0  0  0  0
   26.9453  -17.9753  -14.9293 C   0  0  0  0  0  0  0  0  0  0  0  0
   27.9935  -18.5193  -15.5553 N   0  0  0  0  0  0  0  0  0  0  0  0
   28.5620  -17.5456  -16.3385 C   0  0  0  0  0  0  0  0  0  0  0  0
   27.8629  -16.4083  -16.1937 N   0  0  0  0  0  0  0  0  0  0  0  0
   26.8724  -16.6546  -15.3359 C   0  0  0  0  0  0  0  0  0  0  0  0
   25.9612  -20.6386  -12.5090 O   0  0  0  0  0  0  0  0  0  0  0  0
   24.7971  -21.1781  -12.3712 N   0  0  0  0  0  0  0  0  0  0  0  0
   26.7699  -20.6779  -11.3694 C   0  0  2  0  0  0  0  0  0  0  0  0
   26.4195  -21.1250  -10.0334 C   0  0  0  0  0  0  0  0  0  0  0  0
   27.5352  -20.8610   -9.0584 C   0  0  0  0  0  0  0  0  0  0  0  0
   27.0066  -20.6403   -7.6976 C   0  0  0  0  0  0  0  0  0  0  0  0
   25.7471  -20.8624   -7.1909 N   0  0  0  0  0  0  0  0  0  0  0  0
   25.7179  -20.5111   -5.8856 C   0  0  0  0  0  0  0  0  0  0  0  0
   26.9302  -20.0556   -5.4969 C   0  0  0  0  0  0  0  0  0  0  0  0
   27.4239  -19.5852   -4.2845 C   0  0  0  0  0  0  0  0  0  0  0  0
   28.7295  -19.1848   -4.1611 C   0  0  0  0  0  0  0  0  0  0  0  0
   29.5423  -19.2625   -5.2838 C   0  0  0  0  0  0  0  0  0  0  0  0
   29.0531  -19.7297   -6.4957 C   0  0  0  0  0  0  0  0  0  0  0  0
   27.7447  -20.1294   -6.6119 C   0  0  0  0  0  0  0  0  0  0  0  0
   25.2413  -20.3311   -9.6054 O   0  0  0  0  0  0  0  0  0  0  0  0
   24.3419  -20.8060   -8.9071 O   0  0  0  0  0  0  0  0  0  0  0  0
  2  1  1  0
  3  2  2  0
  4  2  1  0
  5  4  1  0
  6  7  1  0
  6  5  1  0
  8  7  1  0
  8 10  1  0
  8  9  1  1
 10 11  2  0
 12 13  1  0
 12 10  1  0
 13 20  1  0
 13 14  1  1
 15 14  1  0
 16 15  2  0
 17 18  1  0
 17 16  1  0
 18 19  2  0
 19 15  1  0
 20 22  1  0
 21 20  2  0
 22 23  1  0
 23 24  1  6
 24 25  1  0
 25 33  1  0
 26 25  2  0
 26 27  1  0
 27 28  1  0
 28 29  2  0
 29 30  1  0
 31 30  2  0
 32 31  1  0
 33 32  2  0
 33 28  1  0
 34 23  1  0
 35 34  2  0
 36 34  1  0
M  END
$$$$
