RHW.pdb
     RDKit          3D

 36 38  0  0  1  0  0  0  0  0999 V2000
   31.6330  -24.5833  -18.0516 N   0  0  0  0  0  0  0  0  0  0  0  0
   31.4340  -24.9306  -16.6966 C   0  0  0  0  0  0  0  0  0  0  0  0
   32.2263  -25.7619  -16.1258 N   0  0  0  0  0  0  0  0  0  0  0  0
   30.3600  -24.3606  -15.9797 N   0  0  0  0  0  0  0  0  0  0  0  0
   29.2932  -23.6765  -16.7363 C   0  0  0  0  0  0  0  0  0  0  0  0
   29.5556  -22.2137  -16.7480 C   0  0  0  0  0  0  0  0  0  0  0  0
   28.6596  -21.4462  -15.8592 C   0  0  0  0  0  0  0  0  0  0  0  0
   27.2029  -21.6857  -15.9529 C   0  0  2  0  0  0  0  0  0  0  0  0
   26.5570  -21.4431  -17.1996 N   0  0  0  0  0  0  0  0  0  0  0  0
   26.5079  -20.9341  -14.8592 C   0  0  0  0  0  0  0  0  0  0  0  0
   26.9673  -19.8174  -14.5891 O   0  0  0  0  0  0  0  0  0  0  0  0
   32.0883  -26.0397  -15.1192 N   0  0  0  0  0  0  0  0  0  0  0  0
   25.3865  -21.4343  -14.1336 C   0  0  1  0  0  0  0  0  0  0  0  0
   24.8116  -20.8717  -12.9652 C   0  0  0  0  0  0  0  0  0  0  0  0
   23.3296  -20.4959  -13.0887 C   0  0  0  0  0  0  0  0  0  0  0  0
   23.1580  -19.5415  -14.2107 C   0  0  0  0  0  0  0  0  0  0  0  0
   24.0560  -19.0469  -15.0684 N   0  0  0  0  0  0  0  0  0  0  0  0
   23.3941  -18.1989  -15.9212 C   0  0  0  0  0  0  0  0  0  0  0  0
   22.0936  -18.1753  -15.5877 N   0  0  0  0  0  0  0  0  0  0  0  0
   21.9336  -18.9901  -14.5446 C   0  0  0  0  0  0  0  0  0  0  0  0
   25.2468  -21.3237  -11.6612 O   0  0  0  0  0  0  0  0  0  0  0  0
   25.0970  -22.5683  -11.3550 N   0  0  0  0  0  0  0  0  0  0  0  0
   25.8312  -20.5358  -10.6653 C   0  0  1  0  0  0  0  0  0  0  0  0
   26.0443  -20.8655   -9.2676 C   0  0  0  0  0  0  0  0  0  0  0  0
   26.6922  -19.7250   -8.5296 C   0  0  0  0  0  0  0  0  0  0  0  0
   26.9247  -20.0758   -7.1143 C   0  0  0  0  0  0  0  0  0  0  0  0
   26.1403  -20.7915   -6.2398 N   0  0  0  0  0  0  0  0  0  0  0  0
   26.7548  -20.8622   -5.0375 C   0  0  0  0  0  0  0  0  0  0  0  0
   27.9383  -20.2098   -5.0783 C   0  0  0  0  0  0  0  0  0  0  0  0
   28.9365  -19.9933   -4.1339 C   0  0  0  0  0  0  0  0  0  0  0  0
   30.0676  -19.2863   -4.4512 C   0  0  0  0  0  0  0  0  0  0  0  0
   30.1849  -18.7927   -5.7434 C   0  0  0  0  0  0  0  0  0  0  0  0
   29.1905  -19.0051   -6.6880 C   0  0  0  0  0  0  0  0  0  0  0  0
   28.0606  -19.7144   -6.3635 C   0  0  0  0  0  0  0  0  0  0  0  0
   24.7070  -21.0969   -8.6678 O   0  0  0  0  0  0  0  0  0  0  0  0
   23.7278  -20.3997   -8.9455 O   0  0  0  0  0  0  0  0  0  0  0  0
  2  1  1  0
  3  2  2  0
  4  2  1  0
  5  4  1  0
  6  7  1  0
  6  5  1  0
  8  7  1  0
  8 10  1  0
  8  9  1  6
 10 11  2  0
 12 13  1  0
 12 10  1  0
 13 20  1  0
 13 14  1  1
 15 14  1  0
 16 15  2  0
 17 18  1  0
 17 16  1  0
 18 19  2  0
 19 15  1  0
 20 22  1  0
 21 20  2  0
 22 23  1  0
 23 24  1  1
 24 25  1  0
 25 33  1  0
 26 25  2  0
 26 27  1  0
 27 28  1  0
 28 29  2  0
 29 30  1  0
 31 30  2  0
 32 31  1  0
 33 32  2  0
 33 28  1  0
 34 23  1  0
 35 34  2  0
 36 34  1  0
M  END
$$$$
