DQI.pdb
     RDKit          3D

 26 25  0  0  1  0  0  0  0  0999 V2000
    7.7605  -18.2539   21.6399 N   0  0  0  0  0  0  0  0  0  0  0  0
    9.0867  -18.1041   21.0681 C   0  0  1  0  0  0  0  0  0  0  0  0
    9.1322  -18.5806   19.6355 C   0  0  0  0  0  0  0  0  0  0  0  0
    9.1264  -20.0525   19.5896 C   0  0  0  0  0  0  0  0  0  0  0  0
    8.5566  -20.6497   18.6544 O   0  0  0  0  0  0  0  0  0  0  0  0
    9.4457  -16.6442   21.0995 C   0  0  0  0  0  0  0  0  0  0  0  0
   10.5809  -16.2555   20.7522 O   0  0  0  0  0  0  0  0  0  0  0  0
    9.7581  -20.7728   20.5923 O   0  0  0  0  0  0  0  0  0  0  0  0
    8.9014  -12.1408   19.0568 N   0  0  0  0  0  0  0  0  0  0  0  0
    7.9934  -13.1738   18.6472 C   0  0  0  0  0  0  0  0  0  0  0  0
    7.8887  -13.4155   17.4238 O   0  0  0  0  0  0  0  0  0  0  0  0
    7.2530  -13.8721   19.7201 C   0  0  0  0  0  0  0  0  0  0  0  0
    7.6712  -13.3987   21.0846 C   0  0  0  0  0  0  0  0  0  0  0  0
    8.7672  -14.2697   21.5992 C   0  0  2  0  0  0  0  0  0  0  0  0
    8.5089  -15.6682   21.5231 N   0  0  0  0  0  0  0  0  0  0  0  0
    8.9306  -13.9393   23.0624 C   0  0  0  0  0  0  0  0  0  0  0  0
    9.3789  -12.8163   23.3632 O   0  0  0  0  0  0  0  0  0  0  0  0
    5.8525  -12.3040   25.9800 C   0  0  0  0  0  0  0  0  0  0  0  0
    7.1274  -12.8352   25.3573 C   0  0  0  0  0  0  0  0  0  0  0  0
    7.6453  -13.9880   26.1552 C   0  0  2  0  0  0  0  0  0  0  0  0
    7.9027  -13.6679   27.5881 C   0  0  0  0  0  0  0  0  0  0  0  0
    8.8617  -14.5611   25.4553 C   0  0  2  0  0  0  0  0  0  0  0  0
    8.5924  -14.8584   24.0720 N   0  0  0  0  0  0  0  0  0  0  0  0
    9.2953  -15.8177   26.1159 C   0  0  0  0  0  0  0  0  0  0  0  0
    9.3269  -17.0353   25.4363 O   0  0  0  0  0  0  0  0  0  0  0  0
    9.6509  -15.8246   27.3194 O   0  0  0  0  0  0  0  0  0  0  0  0
  2  1  1  6
  2  3  1  0
  4  3  1  0
  4  8  1  0
  5  4  2  0
  6  2  1  0
  7  6  2  0
  9 10  1  0
 10 12  1  0
 11 10  2  0
 12 13  1  0
 14 13  1  1
 14 15  1  0
 15  6  1  0
 16 17  2  0
 16 14  1  0
 18 19  1  0
 19 20  1  0
 20 22  1  0
 20 21  1  1
 22 23  1  6
 23 16  1  0
 24 22  1  0
 25 24  1  0
 26 24  2  0
M  END
$$$$
