DQI.pdb
     RDKit          3D

 26 25  0  0  1  0  0  0  0  0999 V2000
    8.8928  -18.5625   20.4344 N   0  0  0  0  0  0  0  0  0  0  0  0
    8.0292  -17.4603   20.0502 C   0  0  1  0  0  0  0  0  0  0  0  0
    7.0078  -17.8858   19.0221 C   0  0  0  0  0  0  0  0  0  0  0  0
    7.6711  -18.1885   17.7426 C   0  0  0  0  0  0  0  0  0  0  0  0
    8.2075  -19.2999   17.5605 O   0  0  0  0  0  0  0  0  0  0  0  0
    7.3037  -16.9864   21.2792 C   0  0  0  0  0  0  0  0  0  0  0  0
    6.4330  -16.0936   21.2055 O   0  0  0  0  0  0  0  0  0  0  0  0
    7.6968  -17.2312   16.7396 O   0  0  0  0  0  0  0  0  0  0  0  0
    6.3769  -20.5779   26.1237 N   0  0  0  0  0  0  0  0  0  0  0  0
    7.7213  -20.0850   26.0300 C   0  0  0  0  0  0  0  0  0  0  0  0
    8.6128  -20.6772   26.6786 O   0  0  0  0  0  0  0  0  0  0  0  0
    7.9386  -18.9068   25.1631 C   0  0  0  0  0  0  0  0  0  0  0  0
    6.6395  -18.3202   24.6844 C   0  0  0  0  0  0  0  0  0  0  0  0
    6.9175  -17.1822   23.7613 C   0  0  2  0  0  0  0  0  0  0  0  0
    7.5857  -17.5371   22.5546 N   0  0  0  0  0  0  0  0  0  0  0  0
    7.8339  -16.2394   24.5016 C   0  0  0  0  0  0  0  0  0  0  0  0
    9.0538  -16.2922   24.2534 O   0  0  0  0  0  0  0  0  0  0  0  0
    5.7735  -11.5486   26.2810 C   0  0  0  0  0  0  0  0  0  0  0  0
    6.7341  -12.5457   25.6660 C   0  0  0  0  0  0  0  0  0  0  0  0
    7.5012  -13.2471   26.7400 C   0  0  2  0  0  0  0  0  0  0  0  0
    8.3942  -12.3533   27.5310 C   0  0  0  0  0  0  0  0  0  0  0  0
    8.2401  -14.4205   26.1276 C   0  0  2  0  0  0  0  0  0  0  0  0
    7.3447  -15.3207   25.4478 N   0  0  0  0  0  0  0  0  0  0  0  0
    8.9503  -15.1910   27.1790 C   0  0  0  0  0  0  0  0  0  0  0  0
   10.2480  -14.8711   27.5781 O   0  0  0  0  0  0  0  0  0  0  0  0
    8.4002  -16.1649   27.7481 O   0  0  0  0  0  0  0  0  0  0  0  0
  2  1  1  1
  2  3  1  0
  4  3  1  0
  4  8  1  0
  5  4  2  0
  6  2  1  0
  7  6  2  0
  9 10  1  0
 10 12  1  0
 11 10  2  0
 12 13  1  0
 14 13  1  1
 14 15  1  0
 15  6  1  0
 16 17  2  0
 16 14  1  0
 18 19  1  0
 19 20  1  0
 20 22  1  0
 20 21  1  6
 22 23  1  1
 23 16  1  0
 24 22  1  0
 25 24  1  0
 26 24  2  0
M  END
$$$$
