DQI.pdb
     RDKit          3D

 26 25  0  0  1  0  0  0  0  0999 V2000
    9.3452  -16.3002   19.2429 N   0  0  0  0  0  0  0  0  0  0  0  0
    7.9075  -16.1298   19.3534 C   0  0  1  0  0  0  0  0  0  0  0  0
    7.1636  -17.0629   18.4275 C   0  0  0  0  0  0  0  0  0  0  0  0
    7.9069  -17.2263   17.1668 C   0  0  0  0  0  0  0  0  0  0  0  0
    7.4129  -16.8337   16.0907 O   0  0  0  0  0  0  0  0  0  0  0  0
    7.5088  -16.4409   20.7695 C   0  0  0  0  0  0  0  0  0  0  0  0
    6.3087  -16.4241   21.1162 O   0  0  0  0  0  0  0  0  0  0  0  0
    9.1605  -17.8193   17.1812 O   0  0  0  0  0  0  0  0  0  0  0  0
   11.8823  -19.8923   23.9082 N   0  0  0  0  0  0  0  0  0  0  0  0
   10.7783  -19.3547   24.6510 C   0  0  0  0  0  0  0  0  0  0  0  0
   10.4132  -19.9588   25.6844 O   0  0  0  0  0  0  0  0  0  0  0  0
   10.1623  -18.1176   24.1246 C   0  0  0  0  0  0  0  0  0  0  0  0
    8.7806  -18.3686   23.5871 C   0  0  0  0  0  0  0  0  0  0  0  0
    8.1923  -17.0846   23.1077 C   0  0  2  0  0  0  0  0  0  0  0  0
    8.4803  -16.7616   21.7507 N   0  0  0  0  0  0  0  0  0  0  0  0
    8.7991  -15.9900   23.9506 C   0  0  0  0  0  0  0  0  0  0  0  0
    9.8585  -15.4657   23.5564 O   0  0  0  0  0  0  0  0  0  0  0  0
    5.8603  -12.0721   25.4057 C   0  0  0  0  0  0  0  0  0  0  0  0
    7.0470  -12.9415   25.0438 C   0  0  0  0  0  0  0  0  0  0  0  0
    7.7079  -13.4482   26.2849 C   0  0  2  0  0  0  0  0  0  0  0  0
    8.2405  -12.3743   27.1710 C   0  0  0  0  0  0  0  0  0  0  0  0
    8.7632  -14.4653   25.8977 C   0  0  2  0  0  0  0  0  0  0  0  0
    8.2017  -15.5602   25.1493 N   0  0  0  0  0  0  0  0  0  0  0  0
    9.4115  -15.0259   27.1096 C   0  0  0  0  0  0  0  0  0  0  0  0
    9.2199  -16.3504   27.5027 O   0  0  0  0  0  0  0  0  0  0  0  0
   10.1605  -14.3188   27.8265 O   0  0  0  0  0  0  0  0  0  0  0  0
  2  1  1  1
  2  3  1  0
  4  3  1  0
  4  8  1  0
  5  4  2  0
  6  2  1  0
  7  6  2  0
  9 10  1  0
 10 12  1  0
 11 10  2  0
 12 13  1  0
 14 13  1  1
 14 15  1  0
 15  6  1  0
 16 17  2  0
 16 14  1  0
 18 19  1  0
 19 20  1  0
 20 22  1  0
 20 21  1  6
 22 23  1  1
 23 16  1  0
 24 22  1  0
 25 24  1  0
 26 24  2  0
M  END
$$$$
