DQI.pdb
     RDKit          3D

 26 25  0  0  1  0  0  0  0  0999 V2000
    9.2939  -17.9901   19.4054 N   0  0  0  0  0  0  0  0  0  0  0  0
    8.4316  -16.8346   19.2335 C   0  0  1  0  0  0  0  0  0  0  0  0
    7.4402  -17.0416   18.1129 C   0  0  0  0  0  0  0  0  0  0  0  0
    8.1499  -17.2630   16.8417 C   0  0  0  0  0  0  0  0  0  0  0  0
    9.3958  -17.3195   16.8192 O   0  0  0  0  0  0  0  0  0  0  0  0
    7.6713  -16.6259   20.5139 C   0  0  0  0  0  0  0  0  0  0  0  0
    6.7351  -15.8011   20.5766 O   0  0  0  0  0  0  0  0  0  0  0  0
    7.4258  -17.4088   15.6680 O   0  0  0  0  0  0  0  0  0  0  0  0
    6.8492  -20.9134   24.8480 N   0  0  0  0  0  0  0  0  0  0  0  0
    5.6941  -20.4169   24.1561 C   0  0  0  0  0  0  0  0  0  0  0  0
    4.6612  -21.1236   24.1508 O   0  0  0  0  0  0  0  0  0  0  0  0
    5.8266  -19.0967   23.5032 C   0  0  0  0  0  0  0  0  0  0  0  0
    7.1967  -18.5107   23.7045 C   0  0  0  0  0  0  0  0  0  0  0  0
    7.3134  -17.2408   22.9310 C   0  0  2  0  0  0  0  0  0  0  0  0
    7.9934  -17.3569   21.6849 N   0  0  0  0  0  0  0  0  0  0  0  0
    8.1238  -16.2915   23.7788 C   0  0  0  0  0  0  0  0  0  0  0  0
    9.3660  -16.3722   23.7250 O   0  0  0  0  0  0  0  0  0  0  0  0
    5.8186  -12.0953   27.0586 C   0  0  0  0  0  0  0  0  0  0  0  0
    6.4675  -13.3907   26.6158 C   0  0  0  0  0  0  0  0  0  0  0  0
    7.5508  -13.1083   25.6255 C   0  0  2  0  0  0  0  0  0  0  0  0
    7.0760  -12.4420   24.3796 C   0  0  0  0  0  0  0  0  0  0  0  0
    8.3100  -14.3913   25.3509 C   0  0  2  0  0  0  0  0  0  0  0  0
    7.5135  -15.3366   24.6120 N   0  0  0  0  0  0  0  0  0  0  0  0
    8.7170  -15.0351   26.6250 C   0  0  0  0  0  0  0  0  0  0  0  0
    9.7670  -14.5408   27.3986 O   0  0  0  0  0  0  0  0  0  0  0  0
    8.1231  -16.0552   27.0511 O   0  0  0  0  0  0  0  0  0  0  0  0
  2  1  1  1
  2  3  1  0
  4  3  1  0
  4  8  1  0
  5  4  2  0
  6  2  1  0
  7  6  2  0
  9 10  1  0
 10 12  1  0
 11 10  2  0
 12 13  1  0
 14 13  1  1
 14 15  1  0
 15  6  1  0
 16 17  2  0
 16 14  1  0
 18 19  1  0
 19 20  1  0
 20 22  1  0
 20 21  1  6
 22 23  1  1
 23 16  1  0
 24 22  1  0
 25 24  1  0
 26 24  2  0
M  END
$$$$
