DQI.pdb
     RDKit          3D

 26 25  0  0  1  0  0  0  0  0999 V2000
    8.6459  -17.9589   20.1577 N   0  0  0  0  0  0  0  0  0  0  0  0
    7.8302  -16.7622   20.0546 C   0  0  1  0  0  0  0  0  0  0  0  0
    6.7308  -16.9245   19.0317 C   0  0  0  0  0  0  0  0  0  0  0  0
    7.3086  -17.0925   17.6877 C   0  0  0  0  0  0  0  0  0  0  0  0
    8.0757  -18.0465   17.4483 O   0  0  0  0  0  0  0  0  0  0  0  0
    7.2024  -16.5090   21.3973 C   0  0  0  0  0  0  0  0  0  0  0  0
    6.3360  -15.6209   21.5428 O   0  0  0  0  0  0  0  0  0  0  0  0
    6.9957  -16.1839   16.6877 O   0  0  0  0  0  0  0  0  0  0  0  0
    6.3544  -20.4817   26.4216 N   0  0  0  0  0  0  0  0  0  0  0  0
    6.6425  -20.6018   25.0209 C   0  0  0  0  0  0  0  0  0  0  0  0
    7.0158  -21.7157   24.5894 O   0  0  0  0  0  0  0  0  0  0  0  0
    6.4694  -19.3843   24.1996 C   0  0  0  0  0  0  0  0  0  0  0  0
    7.2145  -18.2126   24.7765 C   0  0  0  0  0  0  0  0  0  0  0  0
    7.0938  -17.0445   23.8570 C   0  0  2  0  0  0  0  0  0  0  0  0
    7.5740  -17.2687   22.5350 N   0  0  0  0  0  0  0  0  0  0  0  0
    7.9421  -15.9433   24.4440 C   0  0  0  0  0  0  0  0  0  0  0  0
    8.2336  -14.9760   23.7147 O   0  0  0  0  0  0  0  0  0  0  0  0
    6.5849  -12.0555   25.1752 C   0  0  0  0  0  0  0  0  0  0  0  0
    7.5912  -13.1868   25.1212 C   0  0  0  0  0  0  0  0  0  0  0  0
    7.8380  -13.7185   26.4960 C   0  0  2  0  0  0  0  0  0  0  0  0
    8.1598  -12.6689   27.5043 C   0  0  0  0  0  0  0  0  0  0  0  0
    8.8959  -14.8015   26.4198 C   0  0  2  0  0  0  0  0  0  0  0  0
    8.4001  -15.9891   25.7731 N   0  0  0  0  0  0  0  0  0  0  0  0
    9.3495  -15.1793   27.7818 C   0  0  0  0  0  0  0  0  0  0  0  0
   10.4500  -14.5730   28.3873 O   0  0  0  0  0  0  0  0  0  0  0  0
    8.7510  -16.0655   28.4387 O   0  0  0  0  0  0  0  0  0  0  0  0
  2  1  1  1
  2  3  1  0
  4  3  1  0
  4  8  1  0
  5  4  2  0
  6  2  1  0
  7  6  2  0
  9 10  1  0
 10 12  1  0
 11 10  2  0
 12 13  1  0
 14 13  1  1
 14 15  1  0
 15  6  1  0
 16 17  2  0
 16 14  1  0
 18 19  1  0
 19 20  1  0
 20 22  1  0
 20 21  1  1
 22 23  1  1
 23 16  1  0
 24 22  1  0
 25 24  1  0
 26 24  2  0
M  END
$$$$
