DQI.pdb
     RDKit          3D

 26 25  0  0  1  0  0  0  0  0999 V2000
    9.2577  -12.5983   19.2934 N   0  0  0  0  0  0  0  0  0  0  0  0
    7.8504  -12.9553   19.2760 C   0  0  1  0  0  0  0  0  0  0  0  0
    7.4307  -13.4992   17.9309 C   0  0  0  0  0  0  0  0  0  0  0  0
    8.3617  -14.5544   17.4970 C   0  0  0  0  0  0  0  0  0  0  0  0
    8.1728  -15.1552   16.4203 O   0  0  0  0  0  0  0  0  0  0  0  0
    7.6267  -14.0195   20.3146 C   0  0  0  0  0  0  0  0  0  0  0  0
    6.5107  -14.5660   20.4426 O   0  0  0  0  0  0  0  0  0  0  0  0
    9.4512  -14.8776   18.2919 O   0  0  0  0  0  0  0  0  0  0  0  0
    9.8809  -19.9530   23.7046 N   0  0  0  0  0  0  0  0  0  0  0  0
   10.0848  -18.8616   22.7954 C   0  0  0  0  0  0  0  0  0  0  0  0
   10.9500  -18.9935   21.9008 O   0  0  0  0  0  0  0  0  0  0  0  0
    9.2433  -17.6624   22.9968 C   0  0  0  0  0  0  0  0  0  0  0  0
    9.4813  -16.6295   21.9303 C   0  0  0  0  0  0  0  0  0  0  0  0
    8.5674  -15.4708   22.1469 C   0  0  2  0  0  0  0  0  0  0  0  0
    8.6730  -14.4332   21.1770 N   0  0  0  0  0  0  0  0  0  0  0  0
    8.9483  -14.8624   23.4741 C   0  0  0  0  0  0  0  0  0  0  0  0
    9.9427  -14.1126   23.5113 O   0  0  0  0  0  0  0  0  0  0  0  0
    6.1164  -11.8021   26.1973 C   0  0  0  0  0  0  0  0  0  0  0  0
    7.2283  -12.6467   25.6095 C   0  0  0  0  0  0  0  0  0  0  0  0
    7.6094  -13.7296   26.5667 C   0  0  2  0  0  0  0  0  0  0  0  0
    8.0243  -13.2343   27.9100 C   0  0  0  0  0  0  0  0  0  0  0  0
    8.6583  -14.6105   25.9174 C   0  0  2  0  0  0  0  0  0  0  0  0
    8.2151  -15.1219   24.6461 N   0  0  0  0  0  0  0  0  0  0  0  0
    8.9741  -15.7690   26.7901 C   0  0  0  0  0  0  0  0  0  0  0  0
    9.9573  -15.7023   27.7772 O   0  0  0  0  0  0  0  0  0  0  0  0
    8.3602  -16.8565   26.6663 O   0  0  0  0  0  0  0  0  0  0  0  0
  2  1  1  6
  2  3  1  0
  4  3  1  0
  4  8  1  0
  5  4  2  0
  6  2  1  0
  7  6  2  0
  9 10  1  0
 10 12  1  0
 11 10  2  0
 12 13  1  0
 14 13  1  6
 14 15  1  0
 15  6  1  0
 16 17  2  0
 16 14  1  0
 18 19  1  0
 19 20  1  0
 20 22  1  0
 20 21  1  1
 22 23  1  6
 23 16  1  0
 24 22  1  0
 25 24  1  0
 26 24  2  0
M  END
$$$$
