DQI.pdb
     RDKit          3D

 26 25  0  0  1  0  0  0  0  0999 V2000
    9.3669  -17.0234   19.6193 N   0  0  0  0  0  0  0  0  0  0  0  0
    8.2422  -16.1083   19.6952 C   0  0  1  0  0  0  0  0  0  0  0  0
    7.1912  -16.4311   18.6595 C   0  0  0  0  0  0  0  0  0  0  0  0
    7.8189  -16.6193   17.3407 C   0  0  0  0  0  0  0  0  0  0  0  0
    8.1526  -17.7595   16.9606 O   0  0  0  0  0  0  0  0  0  0  0  0
    7.6260  -16.2394   21.0606 C   0  0  0  0  0  0  0  0  0  0  0  0
    6.5526  -15.6636   21.3376 O   0  0  0  0  0  0  0  0  0  0  0  0
    8.0378  -15.5215   16.5221 O   0  0  0  0  0  0  0  0  0  0  0  0
    6.7865  -20.8317   24.6368 N   0  0  0  0  0  0  0  0  0  0  0  0
    6.7554  -19.8324   25.6661 C   0  0  0  0  0  0  0  0  0  0  0  0
    6.1171  -20.0839   26.7128 O   0  0  0  0  0  0  0  0  0  0  0  0
    7.4908  -18.5779   25.3974 C   0  0  0  0  0  0  0  0  0  0  0  0
    8.0269  -18.5364   23.9932 C   0  0  0  0  0  0  0  0  0  0  0  0
    7.7248  -17.2088   23.3842 C   0  0  2  0  0  0  0  0  0  0  0  0
    8.2434  -17.0183   22.0714 N   0  0  0  0  0  0  0  0  0  0  0  0
    8.3801  -16.1715   24.2624 C   0  0  0  0  0  0  0  0  0  0  0  0
    9.6160  -16.0334   24.1843 O   0  0  0  0  0  0  0  0  0  0  0  0
    5.4730  -11.8586   25.9115 C   0  0  0  0  0  0  0  0  0  0  0  0
    6.5665  -12.7686   25.3907 C   0  0  0  0  0  0  0  0  0  0  0  0
    7.3110  -13.3802   26.5333 C   0  0  2  0  0  0  0  0  0  0  0  0
    7.9593  -12.3875   27.4366 C   0  0  0  0  0  0  0  0  0  0  0  0
    8.2885  -14.4034   25.9895 C   0  0  2  0  0  0  0  0  0  0  0  0
    7.6350  -15.3740   25.1498 N   0  0  0  0  0  0  0  0  0  0  0  0
    8.9475  -15.1325   27.1019 C   0  0  0  0  0  0  0  0  0  0  0  0
   10.1723  -14.7231   27.6287 O   0  0  0  0  0  0  0  0  0  0  0  0
    8.4180  -16.1510   27.6091 O   0  0  0  0  0  0  0  0  0  0  0  0
  2  1  1  1
  2  3  1  0
  4  3  1  0
  4  8  1  0
  5  4  2  0
  6  2  1  0
  7  6  2  0
  9 10  1  0
 10 12  1  0
 11 10  2  0
 12 13  1  0
 14 13  1  1
 14 15  1  0
 15  6  1  0
 16 17  2  0
 16 14  1  0
 18 19  1  0
 19 20  1  0
 20 22  1  0
 20 21  1  6
 22 23  1  6
 23 16  1  0
 24 22  1  0
 25 24  1  0
 26 24  2  0
M  END
$$$$
