DQI.pdb
     RDKit          3D

 26 25  0  0  1  0  0  0  0  0999 V2000
   12.2380  -16.3599   20.1703 N   0  0  0  0  0  0  0  0  0  0  0  0
   12.6993  -14.9860   20.2590 C   0  0  1  0  0  0  0  0  0  0  0  0
   13.2432  -14.4951   18.9382 C   0  0  0  0  0  0  0  0  0  0  0  0
   14.5581  -15.1027   18.6733 C   0  0  0  0  0  0  0  0  0  0  0  0
   15.2809  -15.4740   19.6197 O   0  0  0  0  0  0  0  0  0  0  0  0
   11.5284  -14.1252   20.6452 C   0  0  0  0  0  0  0  0  0  0  0  0
   11.3487  -13.0101   20.1116 O   0  0  0  0  0  0  0  0  0  0  0  0
   14.9901  -15.2605   17.3649 O   0  0  0  0  0  0  0  0  0  0  0  0
    6.8124  -13.2049   18.8019 N   0  0  0  0  0  0  0  0  0  0  0  0
    7.2154  -14.5642   19.0237 C   0  0  0  0  0  0  0  0  0  0  0  0
    6.7485  -15.4477   18.2703 O   0  0  0  0  0  0  0  0  0  0  0  0
    8.1600  -14.8047   20.1358 C   0  0  0  0  0  0  0  0  0  0  0  0
    8.4870  -13.5358   20.8731 C   0  0  0  0  0  0  0  0  0  0  0  0
    9.4207  -13.8392   21.9960 C   0  0  2  0  0  0  0  0  0  0  0  0
   10.5959  -14.5525   21.6237 N   0  0  0  0  0  0  0  0  0  0  0  0
    8.6659  -14.7222   22.9589 C   0  0  0  0  0  0  0  0  0  0  0  0
    8.9967  -15.9210   23.0374 O   0  0  0  0  0  0  0  0  0  0  0  0
    5.7387  -11.3122   26.0676 C   0  0  0  0  0  0  0  0  0  0  0  0
    6.8597  -12.1991   25.5657 C   0  0  0  0  0  0  0  0  0  0  0  0
    6.5609  -13.6294   25.8801 C   0  0  2  0  0  0  0  0  0  0  0  0
    6.4722  -13.9248   27.3384 C   0  0  0  0  0  0  0  0  0  0  0  0
    7.5669  -14.5088   25.1643 C   0  0  2  0  0  0  0  0  0  0  0  0
    7.6166  -14.2256   23.7531 N   0  0  0  0  0  0  0  0  0  0  0  0
    7.2134  -15.9409   25.3301 C   0  0  0  0  0  0  0  0  0  0  0  0
    6.3660  -16.5993   24.4390 O   0  0  0  0  0  0  0  0  0  0  0  0
    7.6704  -16.6119   26.2871 O   0  0  0  0  0  0  0  0  0  0  0  0
  2  1  1  6
  2  3  1  0
  4  3  1  0
  4  8  1  0
  5  4  2  0
  6  2  1  0
  7  6  2  0
  9 10  1  0
 10 12  1  0
 11 10  2  0
 12 13  1  0
 14 13  1  6
 14 15  1  0
 15  6  1  0
 16 17  2  0
 16 14  1  0
 18 19  1  0
 19 20  1  0
 20 22  1  0
 20 21  1  1
 22 23  1  6
 23 16  1  0
 24 22  1  0
 25 24  1  0
 26 24  2  0
M  END
$$$$
