DQI.pdb
     RDKit          3D

 26 25  0  0  1  0  0  0  0  0999 V2000
    9.4086  -16.2232   19.0998 N   0  0  0  0  0  0  0  0  0  0  0  0
    8.4452  -15.1913   19.4390 C   0  0  1  0  0  0  0  0  0  0  0  0
    7.2739  -15.1882   18.4853 C   0  0  0  0  0  0  0  0  0  0  0  0
    7.7378  -14.9272   17.1123 C   0  0  0  0  0  0  0  0  0  0  0  0
    7.8019  -15.8570   16.2832 O   0  0  0  0  0  0  0  0  0  0  0  0
    7.9338  -15.4686   20.8256 C   0  0  0  0  0  0  0  0  0  0  0  0
    6.9743  -14.8219   21.2965 O   0  0  0  0  0  0  0  0  0  0  0  0
    8.1038  -13.6411   16.7446 O   0  0  0  0  0  0  0  0  0  0  0  0
    9.2063  -20.7672   23.8066 N   0  0  0  0  0  0  0  0  0  0  0  0
    8.6544  -20.5547   22.4991 C   0  0  0  0  0  0  0  0  0  0  0  0
    8.5403  -21.5428   21.7397 O   0  0  0  0  0  0  0  0  0  0  0  0
    8.2626  -19.1697   22.1599 C   0  0  0  0  0  0  0  0  0  0  0  0
    8.4131  -18.2444   23.3355 C   0  0  0  0  0  0  0  0  0  0  0  0
    8.0538  -16.8561   22.9254 C   0  0  2  0  0  0  0  0  0  0  0  0
    8.5238  -16.4697   21.6376 N   0  0  0  0  0  0  0  0  0  0  0  0
    8.7075  -15.9290   23.9202 C   0  0  0  0  0  0  0  0  0  0  0  0
    9.9204  -15.6799   23.7801 O   0  0  0  0  0  0  0  0  0  0  0  0
    5.8038  -11.9334   26.0205 C   0  0  0  0  0  0  0  0  0  0  0  0
    6.9022  -12.7961   25.4335 C   0  0  0  0  0  0  0  0  0  0  0  0
    7.6527  -13.4841   26.5277 C   0  0  2  0  0  0  0  0  0  0  0  0
    8.2996  -12.5552   27.4976 C   0  0  0  0  0  0  0  0  0  0  0  0
    8.6328  -14.4617   25.9099 C   0  0  2  0  0  0  0  0  0  0  0  0
    7.9862  -15.3528   24.9814 N   0  0  0  0  0  0  0  0  0  0  0  0
    9.2742  -15.2876   26.9635 C   0  0  0  0  0  0  0  0  0  0  0  0
   10.4646  -14.9024   27.5798 O   0  0  0  0  0  0  0  0  0  0  0  0
    8.7605  -16.3699   27.3370 O   0  0  0  0  0  0  0  0  0  0  0  0
  2  1  1  6
  2  3  1  0
  4  3  1  0
  4  8  1  0
  5  4  2  0
  6  2  1  0
  7  6  2  0
  9 10  1  0
 10 12  1  0
 11 10  2  0
 12 13  1  0
 14 13  1  1
 14 15  1  0
 15  6  1  0
 16 17  2  0
 16 14  1  0
 18 19  1  0
 19 20  1  0
 20 22  1  0
 20 21  1  6
 22 23  1  6
 23 16  1  0
 24 22  1  0
 25 24  1  0
 26 24  2  0
M  END
$$$$
