DQI.pdb
     RDKit          3D

 26 25  0  0  1  0  0  0  0  0999 V2000
    8.8130  -17.8333   19.8868 N   0  0  0  0  0  0  0  0  0  0  0  0
    7.6854  -16.9191   19.8574 C   0  0  1  0  0  0  0  0  0  0  0  0
    6.6015  -17.4019   18.9229 C   0  0  0  0  0  0  0  0  0  0  0  0
    7.1883  -17.8238   17.6398 C   0  0  0  0  0  0  0  0  0  0  0  0
    6.9843  -17.1564   16.6059 O   0  0  0  0  0  0  0  0  0  0  0  0
    7.1177  -16.8345   21.2473 C   0  0  0  0  0  0  0  0  0  0  0  0
    6.0847  -16.1711   21.4787 O   0  0  0  0  0  0  0  0  0  0  0  0
    7.9698  -18.9682   17.5860 O   0  0  0  0  0  0  0  0  0  0  0  0
    7.9047  -20.8011   26.0852 N   0  0  0  0  0  0  0  0  0  0  0  0
    7.2221  -19.7022   26.7062 C   0  0  0  0  0  0  0  0  0  0  0  0
    6.8647  -19.8284   27.8989 O   0  0  0  0  0  0  0  0  0  0  0  0
    6.9993  -18.5012   25.8726 C   0  0  0  0  0  0  0  0  0  0  0  0
    7.4716  -18.7081   24.4602 C   0  0  0  0  0  0  0  0  0  0  0  0
    7.2912  -17.4466   23.6852 C   0  0  2  0  0  0  0  0  0  0  0  0
    7.7361  -17.5033   22.3334 N   0  0  0  0  0  0  0  0  0  0  0  0
    8.1273  -16.3947   24.3716 C   0  0  0  0  0  0  0  0  0  0  0  0
    9.3488  -16.3653   24.1273 O   0  0  0  0  0  0  0  0  0  0  0  0
    5.7520  -11.7482   25.9592 C   0  0  0  0  0  0  0  0  0  0  0  0
    6.7434  -12.7394   25.3849 C   0  0  0  0  0  0  0  0  0  0  0  0
    7.5592  -13.3420   26.4828 C   0  0  2  0  0  0  0  0  0  0  0  0
    8.3802  -12.3556   27.2408 C   0  0  0  0  0  0  0  0  0  0  0  0
    8.3862  -14.4771   25.9121 C   0  0  2  0  0  0  0  0  0  0  0  0
    7.5631  -15.4656   25.2644 N   0  0  0  0  0  0  0  0  0  0  0  0
    9.1498  -15.1543   26.9899 C   0  0  0  0  0  0  0  0  0  0  0  0
   10.4750  -14.8248   27.2738 O   0  0  0  0  0  0  0  0  0  0  0  0
    8.6218  -16.0543   27.6872 O   0  0  0  0  0  0  0  0  0  0  0  0
  2  1  1  1
  2  3  1  0
  4  3  1  0
  4  8  1  0
  5  4  2  0
  6  2  1  0
  7  6  2  0
  9 10  1  0
 10 12  1  0
 11 10  2  0
 12 13  1  0
 14 13  1  1
 14 15  1  0
 15  6  1  0
 16 17  2  0
 16 14  1  0
 18 19  1  0
 19 20  1  0
 20 22  1  0
 20 21  1  6
 22 23  1  1
 23 16  1  0
 24 22  1  0
 25 24  1  0
 26 24  2  0
M  END
$$$$
