DQI.pdb
     RDKit          3D

 26 25  0  0  1  0  0  0  0  0999 V2000
    9.7453  -16.4998   19.2631 N   0  0  0  0  0  0  0  0  0  0  0  0
    8.4715  -15.8195   19.4143 C   0  0  1  0  0  0  0  0  0  0  0  0
    7.4426  -16.3412   18.4393 C   0  0  0  0  0  0  0  0  0  0  0  0
    7.9433  -16.2202   17.0597 C   0  0  0  0  0  0  0  0  0  0  0  0
    8.7975  -17.0206   16.6288 O   0  0  0  0  0  0  0  0  0  0  0  0
    7.9750  -16.0651   20.8123 C   0  0  0  0  0  0  0  0  0  0  0  0
    6.8613  -15.6367   21.1818 O   0  0  0  0  0  0  0  0  0  0  0  0
    7.4603  -15.2108   16.2405 O   0  0  0  0  0  0  0  0  0  0  0  0
    8.0408  -21.5234   24.2403 N   0  0  0  0  0  0  0  0  0  0  0  0
    8.7537  -20.8519   23.1914 C   0  0  0  0  0  0  0  0  0  0  0  0
    9.7539  -21.4214   22.7002 O   0  0  0  0  0  0  0  0  0  0  0  0
    8.2366  -19.5300   22.7765 C   0  0  0  0  0  0  0  0  0  0  0  0
    8.8364  -18.4169   23.5900 C   0  0  0  0  0  0  0  0  0  0  0  0
    8.3454  -17.1052   23.0771 C   0  0  2  0  0  0  0  0  0  0  0  0
    8.7542  -16.7881   21.7502 N   0  0  0  0  0  0  0  0  0  0  0  0
    8.9312  -16.0436   23.9752 C   0  0  0  0  0  0  0  0  0  0  0  0
   10.1169  -15.7082   23.7902 O   0  0  0  0  0  0  0  0  0  0  0  0
    5.9464  -11.9435   25.5926 C   0  0  0  0  0  0  0  0  0  0  0  0
    7.0738  -12.8526   25.1478 C   0  0  0  0  0  0  0  0  0  0  0  0
    7.7636  -13.4334   26.3398 C   0  0  2  0  0  0  0  0  0  0  0  0
    8.3581  -12.4163   27.2528 C   0  0  0  0  0  0  0  0  0  0  0  0
    8.7747  -14.4600   25.8686 C   0  0  2  0  0  0  0  0  0  0  0  0
    8.1772  -15.4384   24.9968 N   0  0  0  0  0  0  0  0  0  0  0  0
    9.3611  -15.1789   27.0273 C   0  0  0  0  0  0  0  0  0  0  0  0
   10.5088  -14.7218   27.6748 O   0  0  0  0  0  0  0  0  0  0  0  0
    8.8376  -16.2319   27.4656 O   0  0  0  0  0  0  0  0  0  0  0  0
  2  1  1  1
  2  3  1  0
  4  3  1  0
  4  8  1  0
  5  4  2  0
  6  2  1  0
  7  6  2  0
  9 10  1  0
 10 12  1  0
 11 10  2  0
 12 13  1  0
 14 13  1  1
 14 15  1  0
 15  6  1  0
 16 17  2  0
 16 14  1  0
 18 19  1  0
 19 20  1  0
 20 22  1  0
 20 21  1  6
 22 23  1  6
 23 16  1  0
 24 22  1  0
 25 24  1  0
 26 24  2  0
M  END
$$$$
