DQI.pdb
     RDKit          3D

 26 25  0  0  1  0  0  0  0  0999 V2000
    9.5387  -12.7265   19.1677 N   0  0  0  0  0  0  0  0  0  0  0  0
    8.1230  -12.9770   19.3711 C   0  0  1  0  0  0  0  0  0  0  0  0
    7.4720  -13.5341   18.1272 C   0  0  0  0  0  0  0  0  0  0  0  0
    8.3738  -14.4941   17.4688 C   0  0  0  0  0  0  0  0  0  0  0  0
    8.3123  -14.6699   16.2353 O   0  0  0  0  0  0  0  0  0  0  0  0
    7.9824  -13.9847   20.4783 C   0  0  0  0  0  0  0  0  0  0  0  0
    6.8558  -14.3774   20.8486 O   0  0  0  0  0  0  0  0  0  0  0  0
    9.2933  -15.2031   18.2272 O   0  0  0  0  0  0  0  0  0  0  0  0
   10.0187  -19.3776   20.0849 N   0  0  0  0  0  0  0  0  0  0  0  0
   10.5082  -18.7974   21.3027 C   0  0  0  0  0  0  0  0  0  0  0  0
   11.6615  -19.1038   21.6797 O   0  0  0  0  0  0  0  0  0  0  0  0
    9.5963  -17.8754   22.0135 C   0  0  0  0  0  0  0  0  0  0  0  0
   10.1824  -16.4961   22.1352 C   0  0  0  0  0  0  0  0  0  0  0  0
    9.0825  -15.4895   22.1736 C   0  0  2  0  0  0  0  0  0  0  0  0
    9.1211  -14.5177   21.1330 N   0  0  0  0  0  0  0  0  0  0  0  0
    9.2304  -14.7373   23.4732 C   0  0  0  0  0  0  0  0  0  0  0  0
   10.1060  -13.8535   23.5425 O   0  0  0  0  0  0  0  0  0  0  0  0
    6.7674  -11.5301   27.6029 C   0  0  0  0  0  0  0  0  0  0  0  0
    7.7571  -12.6624   27.4196 C   0  0  0  0  0  0  0  0  0  0  0  0
    7.4374  -13.4254   26.1748 C   0  0  2  0  0  0  0  0  0  0  0  0
    6.1475  -14.1701   26.2334 C   0  0  0  0  0  0  0  0  0  0  0  0
    8.6139  -14.3176   25.8314 C   0  0  2  0  0  0  0  0  0  0  0  0
    8.4135  -15.0110   24.5851 N   0  0  0  0  0  0  0  0  0  0  0  0
    8.8189  -15.3356   26.8920 C   0  0  0  0  0  0  0  0  0  0  0  0
    8.6561  -16.6990   26.6471 O   0  0  0  0  0  0  0  0  0  0  0  0
    9.1487  -14.9984   28.0550 O   0  0  0  0  0  0  0  0  0  0  0  0
  2  1  1  6
  2  3  1  0
  4  3  1  0
  4  8  1  0
  5  4  2  0
  6  2  1  0
  7  6  2  0
  9 10  1  0
 10 12  1  0
 11 10  2  0
 12 13  1  0
 14 13  1  6
 14 15  1  0
 15  6  1  0
 16 17  2  0
 16 14  1  0
 18 19  1  0
 19 20  1  0
 20 22  1  0
 20 21  1  1
 22 23  1  6
 23 16  1  0
 24 22  1  0
 25 24  1  0
 26 24  2  0
M  END
$$$$
