DQI.pdb
     RDKit          3D

 26 25  0  0  1  0  0  0  0  0999 V2000
    9.6122  -15.2876   18.5363 N   0  0  0  0  0  0  0  0  0  0  0  0
    8.6021  -14.2799   18.8050 C   0  0  1  0  0  0  0  0  0  0  0  0
    7.5739  -14.2141   17.7005 C   0  0  0  0  0  0  0  0  0  0  0  0
    8.2408  -14.1157   16.3913 C   0  0  0  0  0  0  0  0  0  0  0  0
    8.2908  -15.1068   15.6355 O   0  0  0  0  0  0  0  0  0  0  0  0
    7.9064  -14.6474   20.0864 C   0  0  0  0  0  0  0  0  0  0  0  0
    6.9494  -13.9680   20.5142 O   0  0  0  0  0  0  0  0  0  0  0  0
    8.8139  -12.9144   16.0017 O   0  0  0  0  0  0  0  0  0  0  0  0
    8.0854  -20.3355   22.5540 N   0  0  0  0  0  0  0  0  0  0  0  0
    8.9917  -19.7286   21.6216 C   0  0  0  0  0  0  0  0  0  0  0  0
    9.8181  -20.4653   21.0381 O   0  0  0  0  0  0  0  0  0  0  0  0
    8.8672  -18.2678   21.4281 C   0  0  0  0  0  0  0  0  0  0  0  0
    7.8077  -17.6765   22.3162 C   0  0  0  0  0  0  0  0  0  0  0  0
    7.6933  -16.2137   22.0485 C   0  0  2  0  0  0  0  0  0  0  0  0
    8.3150  -15.7729   20.8453 N   0  0  0  0  0  0  0  0  0  0  0  0
    8.3987  -15.5107   23.1821 C   0  0  0  0  0  0  0  0  0  0  0  0
    9.5780  -15.1498   23.0047 O   0  0  0  0  0  0  0  0  0  0  0  0
    7.1411  -11.1345   27.0028 C   0  0  0  0  0  0  0  0  0  0  0  0
    8.0429  -12.3122   26.6947 C   0  0  0  0  0  0  0  0  0  0  0  0
    7.3859  -13.2137   25.7000 C   0  0  2  0  0  0  0  0  0  0  0  0
    6.0380  -13.6961   26.1151 C   0  0  0  0  0  0  0  0  0  0  0  0
    8.3354  -14.3464   25.3633 C   0  0  2  0  0  0  0  0  0  0  0  0
    7.7608  -15.2609   24.4106 N   0  0  0  0  0  0  0  0  0  0  0  0
    8.6775  -15.1161   26.5856 C   0  0  0  0  0  0  0  0  0  0  0  0
    9.5689  -14.6265   27.5401 O   0  0  0  0  0  0  0  0  0  0  0  0
    8.1704  -16.2436   26.8012 O   0  0  0  0  0  0  0  0  0  0  0  0
  2  1  1  6
  2  3  1  0
  4  3  1  0
  4  8  1  0
  5  4  2  0
  6  2  1  0
  7  6  2  0
  9 10  1  0
 10 12  1  0
 11 10  2  0
 12 13  1  0
 14 13  1  1
 14 15  1  0
 15  6  1  0
 16 17  2  0
 16 14  1  0
 18 19  1  0
 19 20  1  0
 20 22  1  0
 20 21  1  1
 22 23  1  6
 23 16  1  0
 24 22  1  0
 25 24  1  0
 26 24  2  0
M  END
$$$$
