DQI.pdb
     RDKit          3D

 26 25  0  0  1  0  0  0  0  0999 V2000
    9.0086  -17.8063   19.6785 N   0  0  0  0  0  0  0  0  0  0  0  0
    8.1634  -16.6261   19.7105 C   0  0  1  0  0  0  0  0  0  0  0  0
    7.0600  -16.7035   18.6820 C   0  0  0  0  0  0  0  0  0  0  0  0
    7.6115  -17.0965   17.3744 C   0  0  0  0  0  0  0  0  0  0  0  0
    8.4564  -18.0110   17.2980 O   0  0  0  0  0  0  0  0  0  0  0  0
    7.5406  -16.5358   21.0762 C   0  0  0  0  0  0  0  0  0  0  0  0
    6.6666  -15.6792   21.3270 O   0  0  0  0  0  0  0  0  0  0  0  0
    7.1867  -16.4445   16.2265 O   0  0  0  0  0  0  0  0  0  0  0  0
    7.7446  -20.8696   25.7265 N   0  0  0  0  0  0  0  0  0  0  0  0
    7.1522  -19.7406   26.3851 C   0  0  0  0  0  0  0  0  0  0  0  0
    6.7902  -19.8758   27.5754 O   0  0  0  0  0  0  0  0  0  0  0  0
    7.0213  -18.5004   25.5903 C   0  0  0  0  0  0  0  0  0  0  0  0
    7.5120  -18.6874   24.1814 C   0  0  0  0  0  0  0  0  0  0  0  0
    7.3959  -17.3990   23.4389 C   0  0  2  0  0  0  0  0  0  0  0  0
    7.9256  -17.4179   22.1170 N   0  0  0  0  0  0  0  0  0  0  0  0
    8.1983  -16.3813   24.2117 C   0  0  0  0  0  0  0  0  0  0  0  0
    9.4311  -16.3487   24.0331 O   0  0  0  0  0  0  0  0  0  0  0  0
    5.9035  -11.7854   26.1545 C   0  0  0  0  0  0  0  0  0  0  0  0
    6.8945  -12.7512   25.5378 C   0  0  0  0  0  0  0  0  0  0  0  0
    7.5653  -13.5497   26.6084 C   0  0  2  0  0  0  0  0  0  0  0  0
    8.3503  -12.7306   27.5752 C   0  0  0  0  0  0  0  0  0  0  0  0
    8.3920  -14.6421   25.9595 C   0  0  2  0  0  0  0  0  0  0  0  0
    7.5911  -15.4871   25.1117 N   0  0  0  0  0  0  0  0  0  0  0  0
    9.0212  -15.4998   26.9949 C   0  0  0  0  0  0  0  0  0  0  0  0
   10.3536  -15.3400   27.3750 O   0  0  0  0  0  0  0  0  0  0  0  0
    8.3675  -16.4053   27.5672 O   0  0  0  0  0  0  0  0  0  0  0  0
  2  1  1  1
  2  3  1  0
  4  3  1  0
  4  8  1  0
  5  4  2  0
  6  2  1  0
  7  6  2  0
  9 10  1  0
 10 12  1  0
 11 10  2  0
 12 13  1  0
 14 13  1  1
 14 15  1  0
 15  6  1  0
 16 17  2  0
 16 14  1  0
 18 19  1  0
 19 20  1  0
 20 22  1  0
 20 21  1  6
 22 23  1  6
 23 16  1  0
 24 22  1  0
 25 24  1  0
 26 24  2  0
M  END
$$$$
