DQI.pdb
     RDKit          3D

 26 25  0  0  1  0  0  0  0  0999 V2000
    6.0096  -18.8849   19.5959 N   0  0  0  0  0  0  0  0  0  0  0  0
    7.0659  -18.0285   20.1048 C   0  0  1  0  0  0  0  0  0  0  0  0
    7.2363  -16.7906   19.2562 C   0  0  0  0  0  0  0  0  0  0  0  0
    8.0253  -17.1045   18.0531 C   0  0  0  0  0  0  0  0  0  0  0  0
    8.5380  -18.2332   17.9147 O   0  0  0  0  0  0  0  0  0  0  0  0
    6.6927  -17.6065   21.4990 C   0  0  0  0  0  0  0  0  0  0  0  0
    5.6380  -16.9735   21.7167 O   0  0  0  0  0  0  0  0  0  0  0  0
    8.1960  -16.1383   17.0731 O   0  0  0  0  0  0  0  0  0  0  0  0
    7.9740  -20.7939   26.6785 N   0  0  0  0  0  0  0  0  0  0  0  0
    7.1261  -19.7395   27.1564 C   0  0  0  0  0  0  0  0  0  0  0  0
    6.6643  -19.8340   28.3157 O   0  0  0  0  0  0  0  0  0  0  0  0
    6.8702  -18.6188   26.2261 C   0  0  0  0  0  0  0  0  0  0  0  0
    7.4435  -18.8853   24.8619 C   0  0  0  0  0  0  0  0  0  0  0  0
    7.1688  -17.7213   23.9706 C   0  0  2  0  0  0  0  0  0  0  0  0
    7.5247  -17.9135   22.6049 N   0  0  0  0  0  0  0  0  0  0  0  0
    8.0119  -16.5785   24.4803 C   0  0  0  0  0  0  0  0  0  0  0  0
    9.1645  -16.4516   24.0243 O   0  0  0  0  0  0  0  0  0  0  0  0
    5.4153  -12.1838   26.3980 C   0  0  0  0  0  0  0  0  0  0  0  0
    6.3956  -13.0628   25.6487 C   0  0  0  0  0  0  0  0  0  0  0  0
    7.4968  -13.4956   26.5618 C   0  0  2  0  0  0  0  0  0  0  0  0
    8.3199  -12.3731   27.0951 C   0  0  0  0  0  0  0  0  0  0  0  0
    8.3291  -14.5504   25.8600 C   0  0  2  0  0  0  0  0  0  0  0  0
    7.5289  -15.6724   25.4416 N   0  0  0  0  0  0  0  0  0  0  0  0
    9.3905  -15.0591   26.7645 C   0  0  0  0  0  0  0  0  0  0  0  0
   10.6684  -14.5008   26.7892 O   0  0  0  0  0  0  0  0  0  0  0  0
    9.1696  -16.0176   27.5438 O   0  0  0  0  0  0  0  0  0  0  0  0
  2  1  1  6
  2  3  1  0
  4  3  1  0
  4  8  1  0
  5  4  2  0
  6  2  1  0
  7  6  2  0
  9 10  1  0
 10 12  1  0
 11 10  2  0
 12 13  1  0
 14 13  1  1
 14 15  1  0
 15  6  1  0
 16 17  2  0
 16 14  1  0
 18 19  1  0
 19 20  1  0
 20 22  1  0
 20 21  1  6
 22 23  1  1
 23 16  1  0
 24 22  1  0
 25 24  1  0
 26 24  2  0
M  END
$$$$
