DQK.pdb
     RDKit          3D

 27 26  0  0  1  0  0  0  0  0999 V2000
   20.3577  -11.5103  -16.2411 N   0  0  0  0  0  0  0  0  0  0  0  0
   19.1791  -10.7007  -16.0189 C   0  0  1  0  0  0  0  0  0  0  0  0
   18.1365  -11.5650  -15.3855 C   0  0  0  0  0  0  0  0  0  0  0  0
   17.2333  -12.0908  -16.4374 C   0  0  0  0  0  0  0  0  0  0  0  0
   17.4530  -11.9408  -17.6723 O   0  0  0  0  0  0  0  0  0  0  0  0
   19.5325   -9.5736  -15.0881 C   0  0  0  0  0  0  0  0  0  0  0  0
   20.1537   -9.7868  -14.0143 O   0  0  0  0  0  0  0  0  0  0  0  0
   16.0875  -12.7828  -16.0912 O   0  0  0  0  0  0  0  0  0  0  0  0
   22.4860   -6.2155  -13.5890 N   0  0  0  0  0  0  0  0  0  0  0  0
   21.8105   -4.9529  -13.6302 C   0  0  0  0  0  0  0  0  0  0  0  0
   22.2840   -4.0527  -12.8966 O   0  0  0  0  0  0  0  0  0  0  0  0
   20.6386   -4.7989  -14.5111 C   0  0  0  0  0  0  0  0  0  0  0  0
   20.2313   -5.9920  -15.2669 C   0  0  0  0  0  0  0  0  0  0  0  0
   19.5345   -7.0972  -14.5715 C   0  0  2  0  0  0  0  0  0  0  0  0
   19.1847   -8.2287  -15.3754 N   0  0  0  0  0  0  0  0  0  0  0  0
   18.4075   -6.6450  -13.7058 C   0  0  0  0  0  0  0  0  0  0  0  0
   18.5480   -5.7524  -12.8311 O   0  0  0  0  0  0  0  0  0  0  0  0
   17.1132   -7.2081  -13.8325 N   0  0  0  0  0  0  0  0  0  0  0  0
   15.9982   -6.6407  -13.0521 C   0  0  1  0  0  0  0  0  0  0  0  0
   16.1348   -7.1481  -11.6517 C   0  0  0  0  0  0  0  0  0  0  0  0
   15.0948   -6.5992  -10.7244 C   0  0  0  0  0  0  0  0  0  0  0  0
   15.2802   -7.1668   -9.3194 C   0  0  0  0  0  0  0  0  0  0  0  0
   14.1864   -6.5905   -8.4156 C   0  0  0  0  0  0  0  0  0  0  0  0
   14.2524   -7.2979   -7.1539 N   0  0  0  0  0  0  0  0  0  0  0  0
   16.1894   -5.1728  -13.0484 C   0  0  0  0  0  0  0  0  0  0  0  0
   17.1053   -4.5930  -13.6792 O   0  0  0  0  0  0  0  0  0  0  0  0
   15.3347   -4.3621  -12.3241 O   0  0  0  0  0  0  0  0  0  0  0  0
  2  3  1  0
  2  1  1  1
  3  4  1  0
  4  8  1  0
  5  4  2  0
  6  2  1  0
  7  6  2  0
  9 10  1  0
 10 12  1  0
 10 11  2  0
 12 13  1  0
 14 13  1  6
 14 15  1  0
 15  6  1  0
 16 17  2  0
 16 14  1  0
 18 16  1  0
 19 18  1  0
 19 20  1  1
 20 21  1  0
 21 22  1  0
 23 22  1  0
 23 24  1  0
 25 19  1  0
 26 25  2  0
 27 25  1  0
M  END
$$$$
