DQK.pdb
     RDKit          3D

 27 26  0  0  1  0  0  0  0  0999 V2000
   15.1065  -13.4158  -16.4483 N   0  0  0  0  0  0  0  0  0  0  0  0
   15.9529  -12.8157  -15.4397 C   0  0  1  0  0  0  0  0  0  0  0  0
   17.0127  -13.8056  -15.0760 C   0  0  0  0  0  0  0  0  0  0  0  0
   16.3841  -14.9704  -14.4078 C   0  0  0  0  0  0  0  0  0  0  0  0
   17.0505  -15.8862  -13.8482 O   0  0  0  0  0  0  0  0  0  0  0  0
   16.5921  -11.5814  -16.0137 C   0  0  0  0  0  0  0  0  0  0  0  0
   16.6269  -11.3844  -17.2564 O   0  0  0  0  0  0  0  0  0  0  0  0
   15.0077  -15.0965  -14.3742 O   0  0  0  0  0  0  0  0  0  0  0  0
   15.1361   -5.9534  -15.0160 N   0  0  0  0  0  0  0  0  0  0  0  0
   16.4392   -5.6891  -15.5493 C   0  0  0  0  0  0  0  0  0  0  0  0
   16.7144   -4.4829  -15.7540 O   0  0  0  0  0  0  0  0  0  0  0  0
   17.3464   -6.8213  -15.8106 C   0  0  0  0  0  0  0  0  0  0  0  0
   16.8489   -8.1534  -15.4381 C   0  0  0  0  0  0  0  0  0  0  0  0
   17.7076   -9.3408  -15.6463 C   0  0  2  0  0  0  0  0  0  0  0  0
   17.1807  -10.5900  -15.1872 N   0  0  0  0  0  0  0  0  0  0  0  0
   19.1254   -9.1355  -15.2320 C   0  0  0  0  0  0  0  0  0  0  0  0
   19.4633   -9.0199  -14.0261 O   0  0  0  0  0  0  0  0  0  0  0  0
   20.1666   -9.0607  -16.1904 N   0  0  0  0  0  0  0  0  0  0  0  0
   21.5636   -8.9460  -15.7331 C   0  0  1  0  0  0  0  0  0  0  0  0
   22.4370   -9.0830  -16.9395 C   0  0  0  0  0  0  0  0  0  0  0  0
   23.8873   -8.8559  -16.6431 C   0  0  0  0  0  0  0  0  0  0  0  0
   24.7054   -8.8818  -17.9318 C   0  0  0  0  0  0  0  0  0  0  0  0
   26.1631   -8.5630  -17.5870 C   0  0  0  0  0  0  0  0  0  0  0  0
   26.8768   -8.4033  -18.8368 N   0  0  0  0  0  0  0  0  0  0  0  0
   21.7177   -7.5794  -15.1853 C   0  0  0  0  0  0  0  0  0  0  0  0
   21.1248   -6.5768  -15.6506 O   0  0  0  0  0  0  0  0  0  0  0  0
   22.5496   -7.3533  -14.1041 O   0  0  0  0  0  0  0  0  0  0  0  0
  2  3  1  0
  2  1  1  6
  3  4  1  0
  4  8  1  0
  5  4  2  0
  6  2  1  0
  7  6  2  0
  9 10  1  0
 10 12  1  0
 10 11  2  0
 12 13  1  0
 14 13  1  1
 14 15  1  0
 15  6  1  0
 16 17  2  0
 16 14  1  0
 18 16  1  0
 19 18  1  0
 19 20  1  6
 20 21  1  0
 21 22  1  0
 23 22  1  0
 23 24  1  0
 25 19  1  0
 26 25  2  0
 27 25  1  0
M  END
$$$$
