DQK.pdb
     RDKit          3D

 27 26  0  0  1  0  0  0  0  0999 V2000
   24.7813  -12.3296  -15.3187 N   0  0  0  0  0  0  0  0  0  0  0  0
   25.0404  -11.2663  -16.2653 C   0  0  1  0  0  0  0  0  0  0  0  0
   25.6682  -11.8708  -17.4801 C   0  0  0  0  0  0  0  0  0  0  0  0
   27.0047  -12.4052  -17.1243 C   0  0  0  0  0  0  0  0  0  0  0  0
   27.5450  -12.2160  -15.9982 O   0  0  0  0  0  0  0  0  0  0  0  0
   23.7346  -10.6217  -16.6410 C   0  0  0  0  0  0  0  0  0  0  0  0
   23.6912   -9.6714  -17.4651 O   0  0  0  0  0  0  0  0  0  0  0  0
   27.7246  -13.1501  -18.0399 O   0  0  0  0  0  0  0  0  0  0  0  0
   17.8456  -12.8451  -15.2108 N   0  0  0  0  0  0  0  0  0  0  0  0
   17.5690  -11.5516  -15.7609 C   0  0  0  0  0  0  0  0  0  0  0  0
   16.3590  -11.2276  -15.8206 O   0  0  0  0  0  0  0  0  0  0  0  0
   18.6945  -10.7090  -16.2040 C   0  0  0  0  0  0  0  0  0  0  0  0
   20.0400  -11.2728  -16.0239 C   0  0  0  0  0  0  0  0  0  0  0  0
   21.2280  -10.4507  -16.3456 C   0  0  2  0  0  0  0  0  0  0  0  0
   22.5011  -11.0520  -16.0879 N   0  0  0  0  0  0  0  0  0  0  0  0
   21.1460   -9.0524  -15.8336 C   0  0  0  0  0  0  0  0  0  0  0  0
   21.5975   -8.7214  -14.7075 O   0  0  0  0  0  0  0  0  0  0  0  0
   20.5486   -8.0231  -16.6029 N   0  0  0  0  0  0  0  0  0  0  0  0
   20.4367   -6.6674  -16.0340 C   0  0  1  0  0  0  0  0  0  0  0  0
   20.2265   -5.7243  -17.1757 C   0  0  0  0  0  0  0  0  0  0  0  0
   20.1017   -4.2962  -16.7421 C   0  0  0  0  0  0  0  0  0  0  0  0
   19.8704   -3.3907  -17.9493 C   0  0  0  0  0  0  0  0  0  0  0  0
   19.7380   -1.9475  -17.4543 C   0  0  0  0  0  0  0  0  0  0  0  0
   19.6058   -1.1016  -18.6220 N   0  0  0  0  0  0  0  0  0  0  0  0
   19.2249   -6.6649  -15.1839 C   0  0  0  0  0  0  0  0  0  0  0  0
   18.2132   -7.3678  -15.4196 O   0  0  0  0  0  0  0  0  0  0  0  0
   19.1645   -5.8594  -14.0615 O   0  0  0  0  0  0  0  0  0  0  0  0
  2  3  1  0
  2  1  1  1
  3  4  1  0
  4  8  1  0
  5  4  2  0
  6  2  1  0
  7  6  2  0
  9 10  1  0
 10 12  1  0
 10 11  2  0
 12 13  1  0
 14 13  1  1
 14 15  1  0
 15  6  1  0
 16 17  2  0
 16 14  1  0
 18 16  1  0
 19 18  1  0
 19 20  1  6
 20 21  1  0
 21 22  1  0
 23 22  1  0
 23 24  1  0
 25 19  1  0
 26 25  2  0
 27 25  1  0
M  END
$$$$
