DQK.pdb
     RDKit          3D

 27 26  0  0  1  0  0  0  0  0999 V2000
   17.5754  -13.1958  -16.5725 N   0  0  0  0  0  0  0  0  0  0  0  0
   16.5409  -12.5627  -15.7832 C   0  0  1  0  0  0  0  0  0  0  0  0
   16.1716  -13.4929  -14.6725 C   0  0  0  0  0  0  0  0  0  0  0  0
   15.4304  -14.6496  -15.2305 C   0  0  0  0  0  0  0  0  0  0  0  0
   14.4059  -14.5250  -15.9590 O   0  0  0  0  0  0  0  0  0  0  0  0
   17.0830  -11.2828  -15.2090 C   0  0  0  0  0  0  0  0  0  0  0  0
   16.3946  -10.5779  -14.4258 O   0  0  0  0  0  0  0  0  0  0  0  0
   15.8484  -15.9403  -14.9642 O   0  0  0  0  0  0  0  0  0  0  0  0
   23.2135   -9.2889  -15.3282 N   0  0  0  0  0  0  0  0  0  0  0  0
   22.5089   -8.1058  -14.9329 C   0  0  0  0  0  0  0  0  0  0  0  0
   23.2159   -7.0941  -14.7109 O   0  0  0  0  0  0  0  0  0  0  0  0
   21.0399   -8.1541  -14.8207 C   0  0  0  0  0  0  0  0  0  0  0  0
   20.4041   -9.4387  -15.1467 C   0  0  0  0  0  0  0  0  0  0  0  0
   18.9291   -9.5560  -15.1110 C   0  0  2  0  0  0  0  0  0  0  0  0
   18.3852  -10.8148  -15.5215 N   0  0  0  0  0  0  0  0  0  0  0  0
   18.2204   -8.4009  -15.7335 C   0  0  0  0  0  0  0  0  0  0  0  0
   18.0355   -8.3153  -16.9745 O   0  0  0  0  0  0  0  0  0  0  0  0
   17.7184   -7.3362  -14.9444 N   0  0  0  0  0  0  0  0  0  0  0  0
   17.1235   -6.1619  -15.6087 C   0  0  1  0  0  0  0  0  0  0  0  0
   15.7752   -5.9443  -14.9989 C   0  0  0  0  0  0  0  0  0  0  0  0
   15.1339   -4.6629  -15.4343 C   0  0  0  0  0  0  0  0  0  0  0  0
   13.7446   -4.5251  -14.8166 C   0  0  0  0  0  0  0  0  0  0  0  0
   13.1614   -3.1714  -15.2324 C   0  0  0  0  0  0  0  0  0  0  0  0
   11.8533   -3.0595  -14.6215 N   0  0  0  0  0  0  0  0  0  0  0  0
   17.9883   -5.0068  -15.2787 C   0  0  0  0  0  0  0  0  0  0  0  0
   17.9734   -3.9270  -15.9165 O   0  0  0  0  0  0  0  0  0  0  0  0
   18.8734   -5.0812  -14.2188 O   0  0  0  0  0  0  0  0  0  0  0  0
  2  3  1  0
  2  1  1  6
  3  4  1  0
  4  8  1  0
  5  4  2  0
  6  2  1  0
  7  6  2  0
  9 10  1  0
 10 12  1  0
 10 11  2  0
 12 13  1  0
 14 13  1  6
 14 15  1  0
 15  6  1  0
 16 17  2  0
 16 14  1  0
 18 16  1  0
 19 18  1  0
 19 20  1  1
 20 21  1  0
 21 22  1  0
 23 22  1  0
 23 24  1  0
 25 19  1  0
 26 25  2  0
 27 25  1  0
M  END
$$$$
