DQK.pdb
     RDKit          3D

 27 26  0  0  1  0  0  0  0  0999 V2000
   15.9409  -10.7150  -12.8415 N   0  0  0  0  0  0  0  0  0  0  0  0
   15.6181  -10.7812  -11.4325 C   0  0  1  0  0  0  0  0  0  0  0  0
   16.2213  -12.0317  -10.8777 C   0  0  0  0  0  0  0  0  0  0  0  0
   15.5020  -13.2061  -11.4271 C   0  0  0  0  0  0  0  0  0  0  0  0
   14.3096  -13.1523  -11.8409 O   0  0  0  0  0  0  0  0  0  0  0  0
   16.2130   -9.5854  -10.7413 C   0  0  0  0  0  0  0  0  0  0  0  0
   16.1132   -9.4374   -9.4954 O   0  0  0  0  0  0  0  0  0  0  0  0
   16.1309  -14.4348  -11.5070 O   0  0  0  0  0  0  0  0  0  0  0  0
   21.0822   -5.7662  -12.5556 N   0  0  0  0  0  0  0  0  0  0  0  0
   21.0631   -7.1782  -12.3146 C   0  0  0  0  0  0  0  0  0  0  0  0
   22.1212   -7.7955  -12.5831 O   0  0  0  0  0  0  0  0  0  0  0  0
   19.8360   -7.7940  -11.7779 C   0  0  0  0  0  0  0  0  0  0  0  0
   18.7094   -6.8848  -11.5230 C   0  0  0  0  0  0  0  0  0  0  0  0
   17.4829   -7.4016  -10.8753 C   0  0  2  0  0  0  0  0  0  0  0  0
   16.9087   -8.5769  -11.4565 N   0  0  0  0  0  0  0  0  0  0  0  0
   16.4635   -6.3496  -10.5962 C   0  0  0  0  0  0  0  0  0  0  0  0
   15.4118   -6.2354  -11.2764 O   0  0  0  0  0  0  0  0  0  0  0  0
   16.6371   -5.4213   -9.5396 N   0  0  0  0  0  0  0  0  0  0  0  0
   15.5883   -4.4184   -9.2784 C   0  0  1  0  0  0  0  0  0  0  0  0
   14.5717   -5.0622   -8.3900 C   0  0  0  0  0  0  0  0  0  0  0  0
   13.4810   -4.1254   -7.9709 C   0  0  0  0  0  0  0  0  0  0  0  0
   12.4648   -4.8497   -7.0914 C   0  0  0  0  0  0  0  0  0  0  0  0
   11.3195   -3.8827   -6.7772 C   0  0  0  0  0  0  0  0  0  0  0  0
   10.3364   -4.6148   -6.0063 N   0  0  0  0  0  0  0  0  0  0  0  0
   16.2365   -3.3124   -8.5383 C   0  0  0  0  0  0  0  0  0  0  0  0
   17.3523   -3.4175   -7.9751 O   0  0  0  0  0  0  0  0  0  0  0  0
   15.6124   -2.0824   -8.4390 O   0  0  0  0  0  0  0  0  0  0  0  0
  2  3  1  0
  2  1  1  6
  3  4  1  0
  4  8  1  0
  5  4  2  0
  6  2  1  0
  7  6  2  0
  9 10  1  0
 10 12  1  0
 10 11  2  0
 12 13  1  0
 14 13  1  6
 14 15  1  0
 15  6  1  0
 16 17  2  0
 16 14  1  0
 18 16  1  0
 19 18  1  0
 19 20  1  1
 20 21  1  0
 21 22  1  0
 23 22  1  0
 23 24  1  0
 25 19  1  0
 26 25  2  0
 27 25  1  0
M  END
$$$$
