DQK.pdb
     RDKit          3D

 27 26  0  0  1  0  0  0  0  0999 V2000
   20.7151  -14.6364  -17.2862 N   0  0  0  0  0  0  0  0  0  0  0  0
   20.3500  -13.4060  -17.9548 C   0  0  1  0  0  0  0  0  0  0  0  0
   18.8940  -13.4744  -18.2874 C   0  0  0  0  0  0  0  0  0  0  0  0
   18.6810  -14.4978  -19.3390 C   0  0  0  0  0  0  0  0  0  0  0  0
   19.6086  -15.2292  -19.7867 O   0  0  0  0  0  0  0  0  0  0  0  0
   20.5999  -12.2536  -17.0215 C   0  0  0  0  0  0  0  0  0  0  0  0
   20.2629  -12.3121  -15.8102 O   0  0  0  0  0  0  0  0  0  0  0  0
   17.4234  -14.6908  -19.8802 O   0  0  0  0  0  0  0  0  0  0  0  0
   24.4719   -7.2234  -18.1417 N   0  0  0  0  0  0  0  0  0  0  0  0
   23.7586   -6.8099  -16.9702 C   0  0  0  0  0  0  0  0  0  0  0  0
   24.0705   -5.6879  -16.5049 O   0  0  0  0  0  0  0  0  0  0  0  0
   22.7308   -7.7044  -16.4076 C   0  0  0  0  0  0  0  0  0  0  0  0
   22.4628   -8.9402  -17.1570 C   0  0  0  0  0  0  0  0  0  0  0  0
   21.4680   -9.9079  -16.6424 C   0  0  2  0  0  0  0  0  0  0  0  0
   21.2222  -11.0566  -17.4603 N   0  0  0  0  0  0  0  0  0  0  0  0
   20.2074   -9.2730  -16.1608 C   0  0  0  0  0  0  0  0  0  0  0  0
   19.3057   -8.8873  -16.9481 O   0  0  0  0  0  0  0  0  0  0  0  0
   19.9675   -9.0742  -14.7784 N   0  0  0  0  0  0  0  0  0  0  0  0
   18.7606   -8.3423  -14.3519 C   0  0  1  0  0  0  0  0  0  0  0  0
   18.1641   -9.1004  -13.2088 C   0  0  0  0  0  0  0  0  0  0  0  0
   16.9790   -8.4134  -12.6036 C   0  0  0  0  0  0  0  0  0  0  0  0
   16.4480   -9.2129  -11.4164 C   0  0  0  0  0  0  0  0  0  0  0  0
   15.1105   -8.6060  -10.9826 C   0  0  0  0  0  0  0  0  0  0  0  0
   14.5045   -9.5254  -10.0423 N   0  0  0  0  0  0  0  0  0  0  0  0
   19.2183   -7.0225  -13.8621 C   0  0  0  0  0  0  0  0  0  0  0  0
   20.3884   -6.7977  -13.4706 O   0  0  0  0  0  0  0  0  0  0  0  0
   18.3406   -5.9547  -13.8178 O   0  0  0  0  0  0  0  0  0  0  0  0
  2  3  1  0
  2  1  1  1
  3  4  1  0
  4  8  1  0
  5  4  2  0
  6  2  1  0
  7  6  2  0
  9 10  1  0
 10 12  1  0
 10 11  2  0
 12 13  1  0
 14 13  1  6
 14 15  1  0
 15  6  1  0
 16 17  2  0
 16 14  1  0
 18 16  1  0
 19 18  1  0
 19 20  1  1
 20 21  1  0
 21 22  1  0
 23 22  1  0
 23 24  1  0
 25 19  1  0
 26 25  2  0
 27 25  1  0
M  END
$$$$
