DQK.pdb
     RDKit          3D

 27 26  0  0  1  0  0  0  0  0999 V2000
   13.3060  -11.4609  -13.0492 N   0  0  0  0  0  0  0  0  0  0  0  0
   14.4525  -11.4774  -12.1665 C   0  0  1  0  0  0  0  0  0  0  0  0
   15.4028  -12.5201  -12.6613 C   0  0  0  0  0  0  0  0  0  0  0  0
   14.8466  -13.8639  -12.3725 C   0  0  0  0  0  0  0  0  0  0  0  0
   14.1841  -14.1259  -11.3293 O   0  0  0  0  0  0  0  0  0  0  0  0
   15.1174  -10.1291  -12.2088 C   0  0  0  0  0  0  0  0  0  0  0  0
   15.1412   -9.4482  -13.2671 O   0  0  0  0  0  0  0  0  0  0  0  0
   15.0403  -14.9050  -13.2616 O   0  0  0  0  0  0  0  0  0  0  0  0
   15.4236   -5.8769   -7.5582 N   0  0  0  0  0  0  0  0  0  0  0  0
   14.3172   -6.3251   -8.3502 C   0  0  0  0  0  0  0  0  0  0  0  0
   13.1798   -5.9821   -7.9484 O   0  0  0  0  0  0  0  0  0  0  0  0
   14.5823   -7.1337   -9.5539 C   0  0  0  0  0  0  0  0  0  0  0  0
   15.9925   -7.4381   -9.8358 C   0  0  0  0  0  0  0  0  0  0  0  0
   16.3421   -8.2683  -11.0102 C   0  0  2  0  0  0  0  0  0  0  0  0
   15.7435   -9.5672  -11.0666 N   0  0  0  0  0  0  0  0  0  0  0  0
   17.8033   -8.3027  -11.3065 C   0  0  0  0  0  0  0  0  0  0  0  0
   18.6149   -8.9645  -10.6100 O   0  0  0  0  0  0  0  0  0  0  0  0
   18.3479   -7.5827  -12.3988 N   0  0  0  0  0  0  0  0  0  0  0  0
   19.7652   -7.7748  -12.7570 C   0  0  1  0  0  0  0  0  0  0  0  0
   19.7968   -8.4803  -14.0755 C   0  0  0  0  0  0  0  0  0  0  0  0
   21.1839   -8.6658  -14.6089 C   0  0  0  0  0  0  0  0  0  0  0  0
   21.1388   -9.2215  -16.0301 C   0  0  0  0  0  0  0  0  0  0  0  0
   22.5725   -9.5151  -16.4814 C   0  0  0  0  0  0  0  0  0  0  0  0
   22.5174   -9.8816  -17.8812 N   0  0  0  0  0  0  0  0  0  0  0  0
   20.3452   -6.4233  -12.9251 C   0  0  0  0  0  0  0  0  0  0  0  0
   19.6623   -5.4061  -13.1938 O   0  0  0  0  0  0  0  0  0  0  0  0
   21.7073   -6.2290  -12.7868 O   0  0  0  0  0  0  0  0  0  0  0  0
  2  3  1  0
  2  1  1  6
  3  4  1  0
  4  8  1  0
  5  4  2  0
  6  2  1  0
  7  6  2  0
  9 10  1  0
 10 12  1  0
 10 11  2  0
 12 13  1  0
 14 13  1  1
 14 15  1  0
 15  6  1  0
 16 17  2  0
 16 14  1  0
 18 16  1  0
 19 18  1  0
 19 20  1  6
 20 21  1  0
 21 22  1  0
 23 22  1  0
 23 24  1  0
 25 19  1  0
 26 25  2  0
 27 25  1  0
M  END
$$$$
