DQK.pdb
     RDKit          3D

 27 26  0  0  1  0  0  0  0  0999 V2000
   23.2961  -12.6378  -16.4925 N   0  0  0  0  0  0  0  0  0  0  0  0
   22.8070  -12.2637  -17.8020 C   0  0  1  0  0  0  0  0  0  0  0  0
   22.0409  -13.4209  -18.3580 C   0  0  0  0  0  0  0  0  0  0  0  0
   22.9740  -14.5426  -18.6220 C   0  0  0  0  0  0  0  0  0  0  0  0
   23.2357  -15.4366  -17.7687 O   0  0  0  0  0  0  0  0  0  0  0  0
   21.8940  -11.0773  -17.6586 C   0  0  0  0  0  0  0  0  0  0  0  0
   21.3898  -10.5185  -18.6674 O   0  0  0  0  0  0  0  0  0  0  0  0
   23.6070  -14.6501  -19.8465 O   0  0  0  0  0  0  0  0  0  0  0  0
   17.1387  -10.3429  -13.9176 N   0  0  0  0  0  0  0  0  0  0  0  0
   17.2747   -9.0015  -14.4018 C   0  0  0  0  0  0  0  0  0  0  0  0
   16.3085   -8.2350  -14.1743 O   0  0  0  0  0  0  0  0  0  0  0  0
   18.5092   -8.6209  -15.1118 C   0  0  0  0  0  0  0  0  0  0  0  0
   19.4748   -9.7004  -15.3629 C   0  0  0  0  0  0  0  0  0  0  0  0
   20.6852   -9.4276  -16.1698 C   0  0  2  0  0  0  0  0  0  0  0  0
   21.5617  -10.5378  -16.3894 N   0  0  0  0  0  0  0  0  0  0  0  0
   21.4192   -8.1981  -15.7529 C   0  0  0  0  0  0  0  0  0  0  0  0
   22.2243   -8.1910  -14.7868 O   0  0  0  0  0  0  0  0  0  0  0  0
   21.2394   -6.9692  -16.4353 N   0  0  0  0  0  0  0  0  0  0  0  0
   21.9656   -5.7722  -15.9728 C   0  0  1  0  0  0  0  0  0  0  0  0
   21.6609   -4.6697  -16.9364 C   0  0  0  0  0  0  0  0  0  0  0  0
   22.2322   -3.3500  -16.5183 C   0  0  0  0  0  0  0  0  0  0  0  0
   21.8262   -2.2569  -17.5037 C   0  0  0  0  0  0  0  0  0  0  0  0
   22.4571   -0.9370  -17.0505 C   0  0  0  0  0  0  0  0  0  0  0  0
   21.9410    0.1059  -17.9123 N   0  0  0  0  0  0  0  0  0  0  0  0
   21.4004   -5.4201  -14.6507 C   0  0  0  0  0  0  0  0  0  0  0  0
   22.0389   -4.7967  -13.7693 O   0  0  0  0  0  0  0  0  0  0  0  0
   20.1037   -5.7788  -14.3309 O   0  0  0  0  0  0  0  0  0  0  0  0
  2  3  1  0
  2  1  1  1
  3  4  1  0
  4  8  1  0
  5  4  2  0
  6  2  1  0
  7  6  2  0
  9 10  1  0
 10 12  1  0
 10 11  2  0
 12 13  1  0
 14 13  1  1
 14 15  1  0
 15  6  1  0
 16 17  2  0
 16 14  1  0
 18 16  1  0
 19 18  1  0
 19 20  1  6
 20 21  1  0
 21 22  1  0
 23 22  1  0
 23 24  1  0
 25 19  1  0
 26 25  2  0
 27 25  1  0
M  END
$$$$
