DQK.pdb
     RDKit          3D

 27 26  0  0  1  0  0  0  0  0999 V2000
   28.4457  -20.4868  -17.0456 N   0  0  0  0  0  0  0  0  0  0  0  0
   27.3552  -19.5596  -17.2585 C   0  0  1  0  0  0  0  0  0  0  0  0
   27.1263  -19.4446  -18.7314 C   0  0  0  0  0  0  0  0  0  0  0  0
   28.3361  -18.8731  -19.3704 C   0  0  0  0  0  0  0  0  0  0  0  0
   29.1748  -19.5717  -20.0062 O   0  0  0  0  0  0  0  0  0  0  0  0
   26.1190  -20.1041  -16.5975 C   0  0  0  0  0  0  0  0  0  0  0  0
   24.9930  -20.0201  -17.1537 O   0  0  0  0  0  0  0  0  0  0  0  0
   28.5935  -17.5171  -19.2890 O   0  0  0  0  0  0  0  0  0  0  0  0
   24.5932  -24.8268  -14.2386 N   0  0  0  0  0  0  0  0  0  0  0  0
   23.8337  -24.1669  -13.2188 C   0  0  0  0  0  0  0  0  0  0  0  0
   22.8384  -24.7934  -12.7833 O   0  0  0  0  0  0  0  0  0  0  0  0
   24.2634  -22.8340  -12.7588 C   0  0  0  0  0  0  0  0  0  0  0  0
   25.3573  -22.2063  -13.5138 C   0  0  0  0  0  0  0  0  0  0  0  0
   25.0442  -21.3188  -14.6562 C   0  0  2  0  0  0  0  0  0  0  0  0
   26.1648  -20.7325  -15.3265 N   0  0  0  0  0  0  0  0  0  0  0  0
   23.9715  -20.3241  -14.3663 C   0  0  0  0  0  0  0  0  0  0  0  0
   24.1518  -19.3464  -13.5960 O   0  0  0  0  0  0  0  0  0  0  0  0
   22.6867  -20.4384  -14.9530 N   0  0  0  0  0  0  0  0  0  0  0  0
   21.6549  -19.4340  -14.6358 C   0  0  1  0  0  0  0  0  0  0  0  0
   20.9424  -19.1133  -15.9111 C   0  0  0  0  0  0  0  0  0  0  0  0
   19.8581  -18.0949  -15.7377 C   0  0  0  0  0  0  0  0  0  0  0  0
   19.2003  -17.7827  -17.0795 C   0  0  0  0  0  0  0  0  0  0  0  0
   18.0947  -16.7484  -16.8482 C   0  0  0  0  0  0  0  0  0  0  0  0
   17.4859  -16.4735  -18.1329 N   0  0  0  0  0  0  0  0  0  0  0  0
   20.7027  -20.0853  -13.7081 C   0  0  0  0  0  0  0  0  0  0  0  0
   19.9602  -19.4510  -12.9211 O   0  0  0  0  0  0  0  0  0  0  0  0
   20.5954  -21.4637  -13.6763 O   0  0  0  0  0  0  0  0  0  0  0  0
  2  3  1  0
  2  1  1  6
  3  4  1  0
  4  8  1  0
  5  4  2  0
  6  2  1  0
  7  6  2  0
  9 10  1  0
 10 12  1  0
 10 11  2  0
 12 13  1  0
 14 13  1  1
 14 15  1  0
 15  6  1  0
 16 17  2  0
 16 14  1  0
 18 16  1  0
 19 18  1  0
 19 20  1  6
 20 21  1  0
 21 22  1  0
 23 22  1  0
 23 24  1  0
 25 19  1  0
 26 25  2  0
 27 25  1  0
M  END
$$$$
