DQK.pdb
     RDKit          3D

 27 26  0  0  1  0  0  0  0  0999 V2000
   19.6261  -10.9867  -15.6637 N   0  0  0  0  0  0  0  0  0  0  0  0
   18.6632   -9.9208  -15.4890 C   0  0  1  0  0  0  0  0  0  0  0  0
   17.3135  -10.5400  -15.3150 C   0  0  0  0  0  0  0  0  0  0  0  0
   16.8687  -11.1127  -16.6083 C   0  0  0  0  0  0  0  0  0  0  0  0
   17.0579  -12.3198  -16.9289 O   0  0  0  0  0  0  0  0  0  0  0  0
   19.0219   -9.1396  -14.2550 C   0  0  0  0  0  0  0  0  0  0  0  0
   19.1852   -9.7130  -13.1464 O   0  0  0  0  0  0  0  0  0  0  0  0
   16.2130  -10.3212  -17.5330 O   0  0  0  0  0  0  0  0  0  0  0  0
   22.0872   -3.6016  -13.9189 N   0  0  0  0  0  0  0  0  0  0  0  0
   22.5935   -4.9110  -14.2040 C   0  0  0  0  0  0  0  0  0  0  0  0
   23.7623   -4.9615  -14.6556 O   0  0  0  0  0  0  0  0  0  0  0  0
   21.7319   -6.0800  -13.9507 C   0  0  0  0  0  0  0  0  0  0  0  0
   20.4213   -5.8036  -13.3452 C   0  0  0  0  0  0  0  0  0  0  0  0
   19.4599   -6.9104  -13.1422 C   0  0  2  0  0  0  0  0  0  0  0  0
   19.1915   -7.7315  -14.2836 N   0  0  0  0  0  0  0  0  0  0  0  0
   18.2144   -6.5001  -12.4320 C   0  0  0  0  0  0  0  0  0  0  0  0
   17.4110   -5.6612  -12.9140 O   0  0  0  0  0  0  0  0  0  0  0  0
   17.8775   -7.0441  -11.1675 N   0  0  0  0  0  0  0  0  0  0  0  0
   16.6757   -6.5554  -10.4670 C   0  0  1  0  0  0  0  0  0  0  0  0
   15.7887   -7.7367  -10.2328 C   0  0  0  0  0  0  0  0  0  0  0  0
   14.5436   -7.3947   -9.4743 C   0  0  0  0  0  0  0  0  0  0  0  0
   13.6677   -8.6331   -9.3009 C   0  0  0  0  0  0  0  0  0  0  0  0
   12.3810   -8.2197   -8.5804 C   0  0  0  0  0  0  0  0  0  0  0  0
   11.5709   -9.4101   -8.4278 N   0  0  0  0  0  0  0  0  0  0  0  0
   17.1321   -6.0347   -9.1586 C   0  0  0  0  0  0  0  0  0  0  0  0
   16.3863   -5.4162   -8.3621 O   0  0  0  0  0  0  0  0  0  0  0  0
   18.4420   -6.2189   -8.7554 O   0  0  0  0  0  0  0  0  0  0  0  0
  2  3  1  0
  2  1  1  1
  3  4  1  0
  4  8  1  0
  5  4  2  0
  6  2  1  0
  7  6  2  0
  9 10  1  0
 10 12  1  0
 10 11  2  0
 12 13  1  0
 14 13  1  6
 14 15  1  0
 15  6  1  0
 16 17  2  0
 16 14  1  0
 18 16  1  0
 19 18  1  0
 19 20  1  1
 20 21  1  0
 21 22  1  0
 23 22  1  0
 23 24  1  0
 25 19  1  0
 26 25  2  0
 27 25  1  0
M  END
$$$$
