LLY.pdb
     RDKit          3D

 29 29  0  0  1  0  0  0  0  0999 V2000
   28.8269  -20.9134    9.9375 C   0  0  0  0  0  0  0  0  0  0  0  0
   30.0559  -21.0807    9.0243 C   0  0  2  0  0  0  0  0  0  0  0  0
   29.6740  -20.5746    7.6763 C   0  0  0  0  0  0  0  0  0  0  0  0
   30.4361  -22.5090    9.0964 C   0  0  0  0  0  0  0  0  0  0  0  0
   30.8748  -23.0310   10.4236 C   0  0  2  0  0  0  0  0  0  0  0  0
   32.2163  -22.4474   10.6338 N   0  0  0  0  0  0  0  0  0  0  0  0
   31.0265  -24.4985   10.4986 C   0  0  0  0  0  0  0  0  0  0  0  0
   32.0318  -25.0393    9.9385 O   0  0  0  0  0  0  0  0  0  0  0  0
   32.4469  -27.6911   13.3203 C   0  0  0  0  0  0  0  0  0  0  0  0
   31.1396  -26.9278   13.6488 C   0  0  2  0  0  0  0  0  0  0  0  0
   30.7892  -27.3248   15.0401 C   0  0  0  0  0  0  0  0  0  0  0  0
   30.1626  -27.2745   12.6060 C   0  0  0  0  0  0  0  0  0  0  0  0
   30.4178  -26.8486   11.2047 C   0  0  2  0  0  0  0  0  0  0  0  0
   30.1414  -25.3845   11.1506 N   0  0  0  0  0  0  0  0  0  0  0  0
   29.4849  -27.5405   10.2800 C   0  0  0  0  0  0  0  0  0  0  0  0
   28.3088  -27.0645   10.0794 O   0  0  0  0  0  0  0  0  0  0  0  0
   26.0673  -31.4154    3.2781 O   0  0  0  0  0  0  0  0  0  0  0  0
   26.8252  -30.8179    4.2747 C   0  0  0  0  0  0  0  0  0  0  0  0
   26.4052  -29.6317    4.8767 C   0  0  0  0  0  0  0  0  0  0  0  0
   27.1500  -29.0303    5.8669 C   0  0  0  0  0  0  0  0  0  0  0  0
   28.3351  -29.6323    6.2562 C   0  0  0  0  0  0  0  0  0  0  0  0
   29.1684  -29.0378    7.2975 C   0  0  0  0  0  0  0  0  0  0  0  0
   28.7448  -29.3712    8.7119 C   0  0  2  0  0  0  0  0  0  0  0  0
   29.7580  -28.7183    9.5578 N   0  0  0  0  0  0  0  0  0  0  0  0
   28.7601  -30.8251    8.8890 C   0  0  0  0  0  0  0  0  0  0  0  0
   29.9009  -31.5726    9.1076 O   0  0  0  0  0  0  0  0  0  0  0  0
   28.7681  -30.8137    5.6672 C   0  0  0  0  0  0  0  0  0  0  0  0
   28.0041  -31.3899    4.6825 C   0  0  0  0  0  0  0  0  0  0  0  0
   27.6572  -31.4574    8.8405 O   0  0  0  0  0  0  0  0  0  0  0  0
  2  4  1  0
  2  1  1  1
  3  2  1  0
  5  6  1  6
  5  4  1  0
  7  5  1  0
  8  7  2  0
 10  9  1  6
 10 12  1  0
 11 10  1  0
 13 12  1  1
 13 15  1  0
 13 14  1  0
 14  7  1  0
 15 24  1  0
 16 15  2  0
 17 18  1  0
 18 28  2  0
 19 20  2  0
 19 18  1  0
 20 21  1  0
 21 22  1  0
 21 27  2  0
 23 22  1  6
 23 25  1  0
 24 23  1  0
 25 29  2  0
 25 26  1  0
 28 27  1  0
M  END
$$$$
