LLY.pdb
     RDKit          3D

 29 29  0  0  1  0  0  0  0  0999 V2000
   28.8047  -17.1863  -17.0730 C   0  0  0  0  0  0  0  0  0  0  0  0
   27.6480  -17.6779  -17.9634 C   0  0  2  0  0  0  0  0  0  0  0  0
   27.0249  -16.4733  -18.5794 C   0  0  0  0  0  0  0  0  0  0  0  0
   26.7685  -18.4887  -17.0923 C   0  0  0  0  0  0  0  0  0  0  0  0
   27.4054  -19.5986  -16.3250 C   0  0  2  0  0  0  0  0  0  0  0  0
   27.6884  -20.6409  -17.3340 N   0  0  0  0  0  0  0  0  0  0  0  0
   26.5475  -20.2181  -15.2942 C   0  0  0  0  0  0  0  0  0  0  0  0
   25.5764  -20.9502  -15.6653 O   0  0  0  0  0  0  0  0  0  0  0  0
   26.2412  -20.4021   -9.1509 C   0  0  0  0  0  0  0  0  0  0  0  0
   25.4834  -20.8755  -10.4163 C   0  0  2  0  0  0  0  0  0  0  0  0
   25.3559  -22.3516  -10.2715 C   0  0  0  0  0  0  0  0  0  0  0  0
   26.2442  -20.3976  -11.5803 C   0  0  0  0  0  0  0  0  0  0  0  0
   25.7368  -20.6908  -12.9466 C   0  0  2  0  0  0  0  0  0  0  0  0
   26.7049  -20.0747  -13.8985 N   0  0  0  0  0  0  0  0  0  0  0  0
   24.4086  -20.0587  -13.1474 C   0  0  0  0  0  0  0  0  0  0  0  0
   24.2309  -18.8250  -12.8368 O   0  0  0  0  0  0  0  0  0  0  0  0
   17.7160  -16.2201  -16.7686 O   0  0  0  0  0  0  0  0  0  0  0  0
   18.8316  -16.9125  -16.3206 C   0  0  0  0  0  0  0  0  0  0  0  0
   19.4498  -16.5688  -15.1182 C   0  0  0  0  0  0  0  0  0  0  0  0
   20.5577  -17.2495  -14.6643 C   0  0  0  0  0  0  0  0  0  0  0  0
   21.0502  -18.2914  -15.4326 C   0  0  0  0  0  0  0  0  0  0  0  0
   22.2246  -19.0457  -15.0041 C   0  0  0  0  0  0  0  0  0  0  0  0
   21.9843  -19.9783  -13.8362 C   0  0  2  0  0  0  0  0  0  0  0  0
   23.2630  -20.6893  -13.6702 N   0  0  0  0  0  0  0  0  0  0  0  0
   20.9005  -20.9037  -14.1742 C   0  0  0  0  0  0  0  0  0  0  0  0
   21.0308  -21.9776  -15.0331 O   0  0  0  0  0  0  0  0  0  0  0  0
   20.4467  -18.6469  -16.6324 C   0  0  0  0  0  0  0  0  0  0  0  0
   19.3434  -17.9498  -17.0591 C   0  0  0  0  0  0  0  0  0  0  0  0
   19.7556  -20.7199  -13.6506 O   0  0  0  0  0  0  0  0  0  0  0  0
  2  4  1  0
  2  1  1  1
  3  2  1  0
  5  6  1  6
  5  4  1  0
  7  5  1  0
  8  7  2  0
 10  9  1  1
 10 12  1  0
 11 10  1  0
 13 12  1  1
 13 15  1  0
 13 14  1  0
 14  7  1  0
 15 24  1  0
 16 15  2  0
 17 18  1  0
 18 28  2  0
 19 20  2  0
 19 18  1  0
 20 21  1  0
 21 22  1  0
 21 27  2  0
 23 22  1  6
 23 25  1  0
 24 23  1  0
 25 29  2  0
 25 26  1  0
 28 27  1  0
M  END
$$$$
