LLY.pdb
     RDKit          3D

 29 29  0  0  1  0  0  0  0  0999 V2000
   27.5477  -19.9747  -18.5963 C   0  0  0  0  0  0  0  0  0  0  0  0
   28.6108  -20.5230  -17.6259 C   0  0  2  0  0  0  0  0  0  0  0  0
   29.5025  -21.4204  -18.4122 C   0  0  0  0  0  0  0  0  0  0  0  0
   27.8701  -21.1581  -16.5134 C   0  0  0  0  0  0  0  0  0  0  0  0
   26.9018  -20.3047  -15.7647 C   0  0  2  0  0  0  0  0  0  0  0  0
   27.6924  -19.1372  -15.3212 N   0  0  0  0  0  0  0  0  0  0  0  0
   26.3308  -20.9246  -14.5515 C   0  0  0  0  0  0  0  0  0  0  0  0
   25.8426  -22.0957  -14.6344 O   0  0  0  0  0  0  0  0  0  0  0  0
   25.8869  -19.7128   -8.5616 C   0  0  0  0  0  0  0  0  0  0  0  0
   25.3871  -20.7228   -9.6245 C   0  0  2  0  0  0  0  0  0  0  0  0
   25.7288  -22.0670   -9.0837 C   0  0  0  0  0  0  0  0  0  0  0  0
   26.0164  -20.3541  -10.9012 C   0  0  0  0  0  0  0  0  0  0  0  0
   25.5134  -20.9657  -12.1594 C   0  0  2  0  0  0  0  0  0  0  0  0
   26.2735  -20.3288  -13.2727 N   0  0  0  0  0  0  0  0  0  0  0  0
   24.0711  -20.6617  -12.3369 C   0  0  0  0  0  0  0  0  0  0  0  0
   23.5430  -19.6687  -11.7164 O   0  0  0  0  0  0  0  0  0  0  0  0
   22.4115  -16.2887  -17.4966 O   0  0  0  0  0  0  0  0  0  0  0  0
   22.1599  -17.4687  -16.8118 C   0  0  0  0  0  0  0  0  0  0  0  0
   20.8967  -17.7307  -16.2811 C   0  0  0  0  0  0  0  0  0  0  0  0
   20.6362  -18.8988  -15.5995 C   0  0  0  0  0  0  0  0  0  0  0  0
   21.6630  -19.8163  -15.4502 C   0  0  0  0  0  0  0  0  0  0  0  0
   21.4468  -21.0698  -14.7332 C   0  0  0  0  0  0  0  0  0  0  0  0
   21.7467  -21.0088  -13.2508 C   0  0  2  0  0  0  0  0  0  0  0  0
   23.1702  -21.3729  -13.1530 N   0  0  0  0  0  0  0  0  0  0  0  0
   20.9004  -21.9760  -12.5482 C   0  0  0  0  0  0  0  0  0  0  0  0
   19.6441  -21.6947  -12.0476 O   0  0  0  0  0  0  0  0  0  0  0  0
   22.9269  -19.5714  -15.9725 C   0  0  0  0  0  0  0  0  0  0  0  0
   23.1564  -18.3977  -16.6472 C   0  0  0  0  0  0  0  0  0  0  0  0
   21.3369  -23.1590  -12.3787 O   0  0  0  0  0  0  0  0  0  0  0  0
  2  4  1  0
  2  1  1  6
  3  2  1  0
  5  6  1  1
  5  4  1  0
  7  5  1  0
  8  7  2  0
 10  9  1  1
 10 12  1  0
 11 10  1  0
 13 12  1  1
 13 15  1  0
 13 14  1  0
 14  7  1  0
 15 24  1  0
 16 15  2  0
 17 18  1  0
 18 28  2  0
 19 20  2  0
 19 18  1  0
 20 21  1  0
 21 22  1  0
 21 27  2  0
 23 22  1  6
 23 25  1  0
 24 23  1  0
 25 29  2  0
 25 26  1  0
 28 27  1  0
M  END
$$$$
