LLY.pdb
     RDKit          3D

 29 29  0  0  1  0  0  0  0  0999 V2000
   26.6847  -19.6189   -5.8763 C   0  0  0  0  0  0  0  0  0  0  0  0
   27.6400  -20.1798   -6.9464 C   0  0  2  0  0  0  0  0  0  0  0  0
   29.0272  -19.8579   -6.5096 C   0  0  0  0  0  0  0  0  0  0  0  0
   27.2132  -19.5904   -8.2349 C   0  0  0  0  0  0  0  0  0  0  0  0
   26.0066  -20.1785   -8.8866 C   0  0  2  0  0  0  0  0  0  0  0  0
   26.1872  -21.6404   -8.7653 N   0  0  0  0  0  0  0  0  0  0  0  0
   25.8661  -19.8795  -10.3264 C   0  0  0  0  0  0  0  0  0  0  0  0
   25.6669  -18.6760  -10.6850 O   0  0  0  0  0  0  0  0  0  0  0  0
   28.2728  -19.3660  -13.9840 C   0  0  0  0  0  0  0  0  0  0  0  0
   28.1222  -20.8303  -13.5019 C   0  0  2  0  0  0  0  0  0  0  0  0
   29.0571  -21.6228  -14.3470 C   0  0  0  0  0  0  0  0  0  0  0  0
   26.6967  -21.1756  -13.6062 C   0  0  0  0  0  0  0  0  0  0  0  0
   25.7079  -20.4222  -12.7906 C   0  0  2  0  0  0  0  0  0  0  0  0
   25.9345  -20.8247  -11.3731 N   0  0  0  0  0  0  0  0  0  0  0  0
   24.3264  -20.8055  -13.1761 C   0  0  0  0  0  0  0  0  0  0  0  0
   23.9786  -20.7959  -14.4126 O   0  0  0  0  0  0  0  0  0  0  0  0
   16.0013  -23.8230  -12.5230 O   0  0  0  0  0  0  0  0  0  0  0  0
   17.3110  -23.4288  -12.2908 C   0  0  0  0  0  0  0  0  0  0  0  0
   17.5912  -22.3075  -11.5097 C   0  0  0  0  0  0  0  0  0  0  0  0
   18.8877  -21.9075  -11.2730 C   0  0  0  0  0  0  0  0  0  0  0  0
   19.9169  -22.6476  -11.8313 C   0  0  0  0  0  0  0  0  0  0  0  0
   21.3107  -22.2685  -11.6184 C   0  0  0  0  0  0  0  0  0  0  0  0
   21.9386  -21.5030  -12.7635 C   0  0  2  0  0  0  0  0  0  0  0  0
   23.3018  -21.2023  -12.2950 N   0  0  0  0  0  0  0  0  0  0  0  0
   21.1739  -20.2762  -12.9991 C   0  0  0  0  0  0  0  0  0  0  0  0
   20.2409  -20.1195  -14.0055 O   0  0  0  0  0  0  0  0  0  0  0  0
   19.6555  -23.7670  -12.6116 C   0  0  0  0  0  0  0  0  0  0  0  0
   18.3526  -24.1413  -12.8299 C   0  0  0  0  0  0  0  0  0  0  0  0
   21.3707  -19.2782  -12.2349 O   0  0  0  0  0  0  0  0  0  0  0  0
  2  4  1  0
  2  1  1  1
  3  2  1  0
  5  6  1  6
  5  4  1  0
  7  5  1  0
  8  7  2  0
 10  9  1  6
 10 12  1  0
 11 10  1  0
 13 12  1  6
 13 15  1  0
 13 14  1  0
 14  7  1  0
 15 24  1  0
 16 15  2  0
 17 18  1  0
 18 28  2  0
 19 20  2  0
 19 18  1  0
 20 21  1  0
 21 22  1  0
 21 27  2  0
 23 22  1  1
 23 25  1  0
 24 23  1  0
 25 29  2  0
 25 26  1  0
 28 27  1  0
M  END
$$$$
