LLY.pdb
     RDKit          3D

 29 29  0  0  1  0  0  0  0  0999 V2000
   26.4555  -18.3687  -18.8748 C   0  0  0  0  0  0  0  0  0  0  0  0
   27.4726  -17.9763  -17.7868 C   0  0  2  0  0  0  0  0  0  0  0  0
   28.8114  -17.9177  -18.4372 C   0  0  0  0  0  0  0  0  0  0  0  0
   27.3230  -18.9694  -16.7001 C   0  0  0  0  0  0  0  0  0  0  0  0
   25.9459  -19.2027  -16.1751 C   0  0  2  0  0  0  0  0  0  0  0  0
   25.7302  -18.1229  -15.1892 N   0  0  0  0  0  0  0  0  0  0  0  0
   25.7578  -20.4822  -15.4612 C   0  0  0  0  0  0  0  0  0  0  0  0
   25.9016  -21.5692  -16.1050 O   0  0  0  0  0  0  0  0  0  0  0  0
   27.2939  -21.3521  -10.3369 C   0  0  0  0  0  0  0  0  0  0  0  0
   26.9848  -21.1988  -11.8470 C   0  0  2  0  0  0  0  0  0  0  0  0
   26.9935  -19.7328  -12.1053 C   0  0  0  0  0  0  0  0  0  0  0  0
   25.7170  -21.8986  -12.1022 C   0  0  0  0  0  0  0  0  0  0  0  0
   25.1936  -21.9643  -13.4922 C   0  0  2  0  0  0  0  0  0  0  0  0
   25.4265  -20.6210  -14.0958 N   0  0  0  0  0  0  0  0  0  0  0  0
   23.7330  -22.2299  -13.4785 C   0  0  0  0  0  0  0  0  0  0  0  0
   23.2903  -23.3636  -13.0680 O   0  0  0  0  0  0  0  0  0  0  0  0
   14.9810  -21.1306  -13.3589 O   0  0  0  0  0  0  0  0  0  0  0  0
   16.3589  -20.9739  -13.3978 C   0  0  0  0  0  0  0  0  0  0  0  0
   16.9956  -20.5410  -14.5610 C   0  0  0  0  0  0  0  0  0  0  0  0
   18.3628  -20.3822  -14.6105 C   0  0  0  0  0  0  0  0  0  0  0  0
   19.0993  -20.6636  -13.4717 C   0  0  0  0  0  0  0  0  0  0  0  0
   20.5522  -20.5180  -13.4665 C   0  0  0  0  0  0  0  0  0  0  0  0
   21.3099  -21.7299  -13.9650 C   0  0  2  0  0  0  0  0  0  0  0  0
   22.7253  -21.3326  -13.8820 N   0  0  0  0  0  0  0  0  0  0  0  0
   20.9154  -22.0091  -15.3476 C   0  0  0  0  0  0  0  0  0  0  0  0
   19.9782  -22.9546  -15.7159 O   0  0  0  0  0  0  0  0  0  0  0  0
   18.4813  -21.0956  -12.3048 C   0  0  0  0  0  0  0  0  0  0  0  0
   17.1164  -21.2445  -12.2859 C   0  0  0  0  0  0  0  0  0  0  0  0
   21.4637  -21.3455  -16.2845 O   0  0  0  0  0  0  0  0  0  0  0  0
  2  4  1  0
  2  1  1  6
  3  2  1  0
  5  6  1  1
  5  4  1  0
  7  5  1  0
  8  7  2  0
 10  9  1  1
 10 12  1  0
 11 10  1  0
 13 12  1  1
 13 15  1  0
 13 14  1  0
 14  7  1  0
 15 24  1  0
 16 15  2  0
 17 18  1  0
 18 28  2  0
 19 20  2  0
 19 18  1  0
 20 21  1  0
 21 22  1  0
 21 27  2  0
 23 22  1  6
 23 25  1  0
 24 23  1  0
 25 29  2  0
 25 26  1  0
 28 27  1  0
M  END
$$$$
