LLY.pdb
     RDKit          3D

 29 29  0  0  1  0  0  0  0  0999 V2000
   22.6604  -21.9476   -8.3677 C   0  0  0  0  0  0  0  0  0  0  0  0
   22.5367  -20.4358   -8.6349 C   0  0  2  0  0  0  0  0  0  0  0  0
   21.0890  -20.1394   -8.8218 C   0  0  0  0  0  0  0  0  0  0  0  0
   23.4123  -20.1450   -9.7918 C   0  0  0  0  0  0  0  0  0  0  0  0
   24.8496  -20.5274   -9.6715 C   0  0  2  0  0  0  0  0  0  0  0  0
   25.3501  -19.7544   -8.5154 N   0  0  0  0  0  0  0  0  0  0  0  0
   25.6917  -20.1645  -10.8297 C   0  0  0  0  0  0  0  0  0  0  0  0
   25.8923  -18.9339  -11.0789 O   0  0  0  0  0  0  0  0  0  0  0  0
   29.7750  -19.8761  -11.7333 C   0  0  0  0  0  0  0  0  0  0  0  0
   29.2226  -21.3203  -11.8272 C   0  0  2  0  0  0  0  0  0  0  0  0
   30.4225  -22.1983  -11.9006 C   0  0  0  0  0  0  0  0  0  0  0  0
   28.3129  -21.3612  -12.9817 C   0  0  0  0  0  0  0  0  0  0  0  0
   27.0372  -20.5998  -12.9254 C   0  0  2  0  0  0  0  0  0  0  0  0
   26.3143  -21.0750  -11.7111 N   0  0  0  0  0  0  0  0  0  0  0  0
   26.2066  -20.9012  -14.1185 C   0  0  0  0  0  0  0  0  0  0  0  0
   26.7191  -21.5272  -15.1162 O   0  0  0  0  0  0  0  0  0  0  0  0
   23.3983  -27.1969  -15.9259 O   0  0  0  0  0  0  0  0  0  0  0  0
   23.2740  -25.8298  -15.7256 C   0  0  0  0  0  0  0  0  0  0  0  0
   22.6915  -25.0160  -16.6973 C   0  0  0  0  0  0  0  0  0  0  0  0
   22.5632  -23.6577  -16.5087 C   0  0  0  0  0  0  0  0  0  0  0  0
   23.0287  -23.1112  -15.3241 C   0  0  0  0  0  0  0  0  0  0  0  0
   22.9239  -21.6771  -15.0707 C   0  0  0  0  0  0  0  0  0  0  0  0
   24.1169  -20.8661  -15.5292 C   0  0  2  0  0  0  0  0  0  0  0  0
   24.8497  -20.5645  -14.2881 N   0  0  0  0  0  0  0  0  0  0  0  0
   23.6453  -19.6416  -16.1800 C   0  0  0  0  0  0  0  0  0  0  0  0
   23.1786  -19.5781  -17.4785 O   0  0  0  0  0  0  0  0  0  0  0  0
   23.6114  -23.9072  -14.3458 C   0  0  0  0  0  0  0  0  0  0  0  0
   23.7254  -25.2583  -14.5624 C   0  0  0  0  0  0  0  0  0  0  0  0
   23.6605  -18.5546  -15.5191 O   0  0  0  0  0  0  0  0  0  0  0  0
  2  4  1  0
  2  1  1  6
  3  2  1  0
  5  6  1  1
  5  4  1  0
  7  5  1  0
  8  7  2  0
 10  9  1  6
 10 12  1  0
 11 10  1  0
 13 12  1  6
 13 15  1  0
 13 14  1  0
 14  7  1  0
 15 24  1  0
 16 15  2  0
 17 18  1  0
 18 28  2  0
 19 20  2  0
 19 18  1  0
 20 21  1  0
 21 22  1  0
 21 27  2  0
 23 22  1  1
 23 25  1  0
 24 23  1  0
 25 29  2  0
 25 26  1  0
 28 27  1  0
M  END
$$$$
