LLY.pdb
     RDKit          3D

 29 29  0  0  1  0  0  0  0  0999 V2000
   19.7431  -12.1432    5.8737 C   0  0  0  0  0  0  0  0  0  0  0  0
   18.2675  -12.4481    6.1932 C   0  0  2  0  0  0  0  0  0  0  0  0
   18.1207  -12.4057    7.6749 C   0  0  0  0  0  0  0  0  0  0  0  0
   17.9618  -13.7445    5.5485 C   0  0  0  0  0  0  0  0  0  0  0  0
   18.1701  -13.8380    4.0740 C   0  0  2  0  0  0  0  0  0  0  0  0
   17.1405  -12.9525    3.4906 N   0  0  0  0  0  0  0  0  0  0  0  0
   17.9600  -15.1817    3.4973 C   0  0  0  0  0  0  0  0  0  0  0  0
   16.7823  -15.5285    3.1666 O   0  0  0  0  0  0  0  0  0  0  0  0
   19.9297  -17.6934   -0.2128 C   0  0  0  0  0  0  0  0  0  0  0  0
   20.5751  -17.3066    1.1412 C   0  0  2  0  0  0  0  0  0  0  0  0
   22.0282  -17.5877    0.9809 C   0  0  0  0  0  0  0  0  0  0  0  0
   19.8751  -18.0671    2.1870 C   0  0  0  0  0  0  0  0  0  0  0  0
   18.6282  -17.5105    2.7749 C   0  0  2  0  0  0  0  0  0  0  0  0
   18.9665  -16.1453    3.2694 N   0  0  0  0  0  0  0  0  0  0  0  0
   18.1915  -18.3367    3.9285 C   0  0  0  0  0  0  0  0  0  0  0  0
   17.8777  -17.7735    5.0395 O   0  0  0  0  0  0  0  0  0  0  0  0
   11.1445  -21.9795    1.2845 O   0  0  0  0  0  0  0  0  0  0  0  0
   12.4209  -21.5108    1.5597 C   0  0  0  0  0  0  0  0  0  0  0  0
   13.5058  -21.8874    0.7678 C   0  0  0  0  0  0  0  0  0  0  0  0
   14.7770  -21.4281    1.0322 C   0  0  0  0  0  0  0  0  0  0  0  0
   14.9581  -20.5772    2.1101 C   0  0  0  0  0  0  0  0  0  0  0  0
   16.2837  -20.0623    2.4412 C   0  0  0  0  0  0  0  0  0  0  0  0
   16.7697  -20.4169    3.8303 C   0  0  2  0  0  0  0  0  0  0  0  0
   18.0725  -19.7399    3.9430 N   0  0  0  0  0  0  0  0  0  0  0  0
   16.9145  -21.8708    3.9331 C   0  0  0  0  0  0  0  0  0  0  0  0
   16.0175  -22.7007    4.5769 O   0  0  0  0  0  0  0  0  0  0  0  0
   13.8887  -20.1921    2.9089 C   0  0  0  0  0  0  0  0  0  0  0  0
   12.6328  -20.6664    2.6205 C   0  0  0  0  0  0  0  0  0  0  0  0
   17.9294  -22.4222    3.3995 O   0  0  0  0  0  0  0  0  0  0  0  0
  2  4  1  0
  2  1  1  1
  3  2  1  0
  5  6  1  6
  5  4  1  0
  7  5  1  0
  8  7  2  0
 10  9  1  6
 10 12  1  0
 11 10  1  0
 13 12  1  1
 13 15  1  0
 13 14  1  0
 14  7  1  0
 15 24  1  0
 16 15  2  0
 17 18  1  0
 18 28  2  0
 19 20  2  0
 19 18  1  0
 20 21  1  0
 21 22  1  0
 21 27  2  0
 23 22  1  6
 23 25  1  0
 24 23  1  0
 25 29  2  0
 25 26  1  0
 28 27  1  0
M  END
$$$$
