LLY.pdb
     RDKit          3D

 29 29  0  0  1  0  0  0  0  0999 V2000
   21.8671  -10.4242  -21.8179 C   0  0  0  0  0  0  0  0  0  0  0  0
   20.3356  -10.5277  -21.6907 C   0  0  2  0  0  0  0  0  0  0  0  0
   19.7476   -9.7714  -22.8315 C   0  0  0  0  0  0  0  0  0  0  0  0
   19.9960  -10.0296  -20.3393 C   0  0  0  0  0  0  0  0  0  0  0  0
   20.6849  -10.6734  -19.1829 C   0  0  2  0  0  0  0  0  0  0  0  0
   20.0208  -11.9849  -19.0307 N   0  0  0  0  0  0  0  0  0  0  0  0
   20.5392   -9.9643  -17.8952 C   0  0  0  0  0  0  0  0  0  0  0  0
   19.3730   -9.7986  -17.4164 O   0  0  0  0  0  0  0  0  0  0  0  0
   21.6202  -10.5427  -13.4502 C   0  0  0  0  0  0  0  0  0  0  0  0
   22.7795  -10.2279  -14.4282 C   0  0  2  0  0  0  0  0  0  0  0  0
   24.0246  -10.3761  -13.6258 C   0  0  0  0  0  0  0  0  0  0  0  0
   22.5209   -8.8941  -14.9906 C   0  0  0  0  0  0  0  0  0  0  0  0
   21.3306   -8.6929  -15.8583 C   0  0  2  0  0  0  0  0  0  0  0  0
   21.5968   -9.4391  -17.1213 N   0  0  0  0  0  0  0  0  0  0  0  0
   21.1707   -7.2533  -16.1843 C   0  0  0  0  0  0  0  0  0  0  0  0
   22.1065   -6.6270  -16.8024 O   0  0  0  0  0  0  0  0  0  0  0  0
   18.4388    0.0575  -19.8000 O   0  0  0  0  0  0  0  0  0  0  0  0
   18.7051   -1.1960  -19.2683 C   0  0  0  0  0  0  0  0  0  0  0  0
   20.0159   -1.5999  -19.0142 C   0  0  0  0  0  0  0  0  0  0  0  0
   20.2913   -2.8419  -18.4866 C   0  0  0  0  0  0  0  0  0  0  0  0
   19.2311   -3.6895  -18.2110 C   0  0  0  0  0  0  0  0  0  0  0  0
   19.4626   -5.0197  -17.6554 C   0  0  0  0  0  0  0  0  0  0  0  0
   19.9856   -5.0282  -16.2349 C   0  0  2  0  0  0  0  0  0  0  0  0
   20.0503   -6.4559  -15.8803 N   0  0  0  0  0  0  0  0  0  0  0  0
   19.0468   -4.3074  -15.3720 C   0  0  0  0  0  0  0  0  0  0  0  0
   19.1605   -2.9715  -15.0398 O   0  0  0  0  0  0  0  0  0  0  0  0
   17.9196   -3.3031  -18.4579 C   0  0  0  0  0  0  0  0  0  0  0  0
   17.6762   -2.0585  -18.9843 C   0  0  0  0  0  0  0  0  0  0  0  0
   18.0550   -4.9396  -14.8871 O   0  0  0  0  0  0  0  0  0  0  0  0
  2  4  1  0
  2  1  1  6
  3  2  1  0
  5  6  1  1
  5  4  1  0
  7  5  1  0
  8  7  2  0
 10  9  1  1
 10 12  1  0
 11 10  1  0
 13 12  1  1
 13 15  1  0
 13 14  1  0
 14  7  1  0
 15 24  1  0
 16 15  2  0
 17 18  1  0
 18 28  2  0
 19 20  2  0
 19 18  1  0
 20 21  1  0
 21 22  1  0
 21 27  2  0
 23 22  1  6
 23 25  1  0
 24 23  1  0
 25 29  2  0
 25 26  1  0
 28 27  1  0
M  END
$$$$
