LLY.pdb
     RDKit          3D

 29 29  0  0  1  0  0  0  0  0999 V2000
   28.2083  -20.4999  -16.5626 C   0  0  0  0  0  0  0  0  0  0  0  0
   29.1907  -21.1356  -15.5610 C   0  0  2  0  0  0  0  0  0  0  0  0
   29.9167  -22.2171  -16.2835 C   0  0  0  0  0  0  0  0  0  0  0  0
   28.3808  -21.5632  -14.3987 C   0  0  0  0  0  0  0  0  0  0  0  0
   27.5805  -20.5136  -13.7028 C   0  0  2  0  0  0  0  0  0  0  0  0
   28.5782  -19.5338  -13.2244 N   0  0  0  0  0  0  0  0  0  0  0  0
   26.8329  -20.9813  -12.5177 C   0  0  0  0  0  0  0  0  0  0  0  0
   26.0456  -21.9719  -12.6424 O   0  0  0  0  0  0  0  0  0  0  0  0
   28.1736  -21.5944   -8.2913 C   0  0  0  0  0  0  0  0  0  0  0  0
   27.7910  -20.1197   -8.5709 C   0  0  2  0  0  0  0  0  0  0  0  0
   28.1769  -19.3717   -7.3430 C   0  0  0  0  0  0  0  0  0  0  0  0
   26.3636  -20.1025   -8.9235 C   0  0  0  0  0  0  0  0  0  0  0  0
   25.9177  -20.7797  -10.1696 C   0  0  2  0  0  0  0  0  0  0  0  0
   26.9097  -20.4221  -11.2235 N   0  0  0  0  0  0  0  0  0  0  0  0
   24.5854  -20.2705  -10.5818 C   0  0  0  0  0  0  0  0  0  0  0  0
   24.4179  -19.0166  -10.8046 O   0  0  0  0  0  0  0  0  0  0  0  0
   18.3625  -19.4394  -16.4232 O   0  0  0  0  0  0  0  0  0  0  0  0
   19.3877  -19.8036  -15.5624 C   0  0  0  0  0  0  0  0  0  0  0  0
   19.5910  -21.1404  -15.2196 C   0  0  0  0  0  0  0  0  0  0  0  0
   20.6057  -21.5128  -14.3660 C   0  0  0  0  0  0  0  0  0  0  0  0
   21.4275  -20.5244  -13.8502 C   0  0  0  0  0  0  0  0  0  0  0  0
   22.5165  -20.8592  -12.9369 C   0  0  0  0  0  0  0  0  0  0  0  0
   22.2454  -20.5314  -11.4842 C   0  0  2  0  0  0  0  0  0  0  0  0
   23.4252  -21.0465  -10.7694 N   0  0  0  0  0  0  0  0  0  0  0  0
   21.0229  -21.2155  -11.0564 C   0  0  0  0  0  0  0  0  0  0  0  0
   19.7647  -20.6459  -11.0694 O   0  0  0  0  0  0  0  0  0  0  0  0
   21.2391  -19.1883  -14.1813 C   0  0  0  0  0  0  0  0  0  0  0  0
   20.2190  -18.8476  -15.0349 C   0  0  0  0  0  0  0  0  0  0  0  0
   21.1084  -22.4152  -10.6415 O   0  0  0  0  0  0  0  0  0  0  0  0
  2  4  1  0
  2  1  1  6
  3  2  1  0
  5  6  1  1
  5  4  1  0
  7  5  1  0
  8  7  2  0
 10  9  1  1
 10 12  1  0
 11 10  1  0
 13 12  1  1
 13 15  1  0
 13 14  1  0
 14  7  1  0
 15 24  1  0
 16 15  2  0
 17 18  1  0
 18 28  2  0
 19 20  2  0
 19 18  1  0
 20 21  1  0
 21 22  1  0
 21 27  2  0
 23 22  1  6
 23 25  1  0
 24 23  1  0
 25 29  2  0
 25 26  1  0
 28 27  1  0
M  END
$$$$
