LLY.pdb
     RDKit          3D

 29 29  0  0  1  0  0  0  0  0999 V2000
   22.6903  -12.0258  -20.9751 C   0  0  0  0  0  0  0  0  0  0  0  0
   22.0989  -12.8843  -19.8412 C   0  0  2  0  0  0  0  0  0  0  0  0
   21.9703  -12.0053  -18.6456 C   0  0  0  0  0  0  0  0  0  0  0  0
   22.9953  -14.0523  -19.6934 C   0  0  0  0  0  0  0  0  0  0  0  0
   23.3310  -14.4820  -18.3044 C   0  0  2  0  0  0  0  0  0  0  0  0
   24.2528  -13.4425  -17.8004 N   0  0  0  0  0  0  0  0  0  0  0  0
   24.0414  -15.7734  -18.2044 C   0  0  0  0  0  0  0  0  0  0  0  0
   23.6719  -16.7345  -18.9504 O   0  0  0  0  0  0  0  0  0  0  0  0
   29.5569  -17.2930  -17.3104 C   0  0  0  0  0  0  0  0  0  0  0  0
   28.1719  -17.5621  -17.9500 C   0  0  2  0  0  0  0  0  0  0  0  0
   28.1492  -16.7520  -19.1987 C   0  0  0  0  0  0  0  0  0  0  0  0
   27.1568  -17.2309  -16.9390 C   0  0  0  0  0  0  0  0  0  0  0  0
   25.7192  -17.4169  -17.2688 C   0  0  2  0  0  0  0  0  0  0  0  0
   25.1214  -16.0529  -17.3391 N   0  0  0  0  0  0  0  0  0  0  0  0
   25.0392  -18.1763  -16.1895 C   0  0  0  0  0  0  0  0  0  0  0  0
   25.0977  -17.7593  -14.9759 O   0  0  0  0  0  0  0  0  0  0  0  0
   18.9544  -20.9321  -10.9490 O   0  0  0  0  0  0  0  0  0  0  0  0
   19.8605  -20.4575  -11.8862 C   0  0  0  0  0  0  0  0  0  0  0  0
   21.1087  -19.9754  -11.4920 C   0  0  0  0  0  0  0  0  0  0  0  0
   22.0156  -19.5019  -12.4140 C   0  0  0  0  0  0  0  0  0  0  0  0
   21.6600  -19.5141  -13.7527 C   0  0  0  0  0  0  0  0  0  0  0  0
   22.5788  -19.0204  -14.7745 C   0  0  0  0  0  0  0  0  0  0  0  0
   23.6183  -20.0235  -15.2265 C   0  0  2  0  0  0  0  0  0  0  0  0
   24.2960  -19.3613  -16.3537 N   0  0  0  0  0  0  0  0  0  0  0  0
   22.9468  -21.2521  -15.6566 C   0  0  0  0  0  0  0  0  0  0  0  0
   22.4572  -21.4691  -16.9298 O   0  0  0  0  0  0  0  0  0  0  0  0
   20.4211  -19.9908  -14.1626 C   0  0  0  0  0  0  0  0  0  0  0  0
   19.5379  -20.4565  -13.2201 C   0  0  0  0  0  0  0  0  0  0  0  0
   22.7955  -22.1922  -14.8128 O   0  0  0  0  0  0  0  0  0  0  0  0
  2  4  1  0
  2  1  1  6
  3  2  1  0
  5  6  1  6
  5  4  1  0
  7  5  1  0
  8  7  2  0
 10  9  1  1
 10 12  1  0
 11 10  1  0
 13 12  1  1
 13 15  1  0
 13 14  1  0
 14  7  1  0
 15 24  1  0
 16 15  2  0
 17 18  1  0
 18 28  2  0
 19 20  2  0
 19 18  1  0
 20 21  1  0
 21 22  1  0
 21 27  2  0
 23 22  1  6
 23 25  1  0
 24 23  1  0
 25 29  2  0
 25 26  1  0
 28 27  1  0
M  END
$$$$
