LLY.pdb
     RDKit          3D

 29 29  0  0  1  0  0  0  0  0999 V2000
   28.5793  -17.5490  -15.5417 C   0  0  0  0  0  0  0  0  0  0  0  0
   27.6737  -18.3022  -16.5341 C   0  0  2  0  0  0  0  0  0  0  0  0
   27.0991  -17.2882  -17.4616 C   0  0  0  0  0  0  0  0  0  0  0  0
   26.6993  -19.0583  -15.7164 C   0  0  0  0  0  0  0  0  0  0  0  0
   27.2497  -20.0088  -14.7065 C   0  0  2  0  0  0  0  0  0  0  0  0
   27.9378  -21.0474  -15.5017 N   0  0  0  0  0  0  0  0  0  0  0  0
   26.2374  -20.6983  -13.8806 C   0  0  0  0  0  0  0  0  0  0  0  0
   25.6422  -21.7132  -14.3628 O   0  0  0  0  0  0  0  0  0  0  0  0
   27.1316  -22.1594  -10.1768 C   0  0  0  0  0  0  0  0  0  0  0  0
   26.4583  -20.7842   -9.9424 C   0  0  2  0  0  0  0  0  0  0  0  0
   26.6609  -20.4861   -8.4980 C   0  0  0  0  0  0  0  0  0  0  0  0
   25.0641  -20.9025  -10.3947 C   0  0  0  0  0  0  0  0  0  0  0  0
   24.7858  -21.0736  -11.8450 C   0  0  2  0  0  0  0  0  0  0  0  0
   25.8560  -20.3322  -12.5715 N   0  0  0  0  0  0  0  0  0  0  0  0
   23.4742  -20.4699  -12.1905 C   0  0  0  0  0  0  0  0  0  0  0  0
   23.3489  -19.1925  -12.2426 O   0  0  0  0  0  0  0  0  0  0  0  0
   18.7049  -18.8041  -18.9509 O   0  0  0  0  0  0  0  0  0  0  0  0
   19.4987  -19.2784  -17.9166 C   0  0  0  0  0  0  0  0  0  0  0  0
   19.4865  -20.6293  -17.5691 C   0  0  0  0  0  0  0  0  0  0  0  0
   20.2706  -21.1105  -16.5441 C   0  0  0  0  0  0  0  0  0  0  0  0
   21.0785  -20.2180  -15.8591 C   0  0  0  0  0  0  0  0  0  0  0  0
   21.9274  -20.6700  -14.7605 C   0  0  0  0  0  0  0  0  0  0  0  0
   21.2673  -20.6388  -13.3986 C   0  0  2  0  0  0  0  0  0  0  0  0
   22.2914  -21.1748  -12.4864 N   0  0  0  0  0  0  0  0  0  0  0  0
   20.0761  -21.4907  -13.4214 C   0  0  0  0  0  0  0  0  0  0  0  0
   20.1026  -22.8659  -13.5484 O   0  0  0  0  0  0  0  0  0  0  0  0
   21.1028  -18.8695  -16.1922 C   0  0  0  0  0  0  0  0  0  0  0  0
   20.3101  -18.4192  -17.2190 C   0  0  0  0  0  0  0  0  0  0  0  0
   18.9323  -20.9431  -13.3189 O   0  0  0  0  0  0  0  0  0  0  0  0
  2  4  1  0
  2  1  1  1
  3  2  1  0
  5  6  1  6
  5  4  1  0
  7  5  1  0
  8  7  2  0
 10  9  1  1
 10 12  1  0
 11 10  1  0
 13 12  1  1
 13 15  1  0
 13 14  1  0
 14  7  1  0
 15 24  1  0
 16 15  2  0
 17 18  1  0
 18 28  2  0
 19 20  2  0
 19 18  1  0
 20 21  1  0
 21 22  1  0
 21 27  2  0
 23 22  1  6
 23 25  1  0
 24 23  1  0
 25 29  2  0
 25 26  1  0
 28 27  1  0
M  END
$$$$
