LLY.pdb
     RDKit          3D

 29 29  0  0  1  0  0  0  0  0999 V2000
   25.8365  -14.2968  -17.9695 C   0  0  0  0  0  0  0  0  0  0  0  0
   27.1651  -14.9617  -17.5635 C   0  0  2  0  0  0  0  0  0  0  0  0
   28.1245  -14.7462  -18.6824 C   0  0  0  0  0  0  0  0  0  0  0  0
   26.8450  -16.3713  -17.2469 C   0  0  0  0  0  0  0  0  0  0  0  0
   25.7703  -16.6165  -16.2412 C   0  0  2  0  0  0  0  0  0  0  0  0
   26.2185  -15.9007  -15.0282 N   0  0  0  0  0  0  0  0  0  0  0  0
   25.5811  -18.0315  -15.8616 C   0  0  0  0  0  0  0  0  0  0  0  0
   25.2848  -18.8737  -16.7669 O   0  0  0  0  0  0  0  0  0  0  0  0
   28.2204  -21.0865  -14.5399 C   0  0  0  0  0  0  0  0  0  0  0  0
   27.7690  -20.1971  -13.3547 C   0  0  2  0  0  0  0  0  0  0  0  0
   28.6335  -20.5954  -12.2101 C   0  0  0  0  0  0  0  0  0  0  0  0
   26.3235  -20.4053  -13.1837 C   0  0  0  0  0  0  0  0  0  0  0  0
   25.3985  -19.9874  -14.2700 C   0  0  2  0  0  0  0  0  0  0  0  0
   25.7016  -18.5559  -14.5562 N   0  0  0  0  0  0  0  0  0  0  0  0
   23.9899  -20.0902  -13.8124 C   0  0  0  0  0  0  0  0  0  0  0  0
   23.7320  -20.3562  -12.5825 O   0  0  0  0  0  0  0  0  0  0  0  0
   15.4995  -18.7695  -12.3963 O   0  0  0  0  0  0  0  0  0  0  0  0
   16.8316  -18.7723  -12.7838 C   0  0  0  0  0  0  0  0  0  0  0  0
   17.1839  -18.6626  -14.1291 C   0  0  0  0  0  0  0  0  0  0  0  0
   18.5032  -18.6642  -14.5246 C   0  0  0  0  0  0  0  0  0  0  0  0
   19.4818  -18.7782  -13.5510 C   0  0  0  0  0  0  0  0  0  0  0  0
   20.8966  -18.7904  -13.9114 C   0  0  0  0  0  0  0  0  0  0  0  0
   21.4867  -20.1708  -14.1055 C   0  0  2  0  0  0  0  0  0  0  0  0
   22.8451  -19.9168  -14.6141 N   0  0  0  0  0  0  0  0  0  0  0  0
   20.6809  -20.9057  -15.0832 C   0  0  0  0  0  0  0  0  0  0  0  0
   20.8073  -20.7776  -16.4527 O   0  0  0  0  0  0  0  0  0  0  0  0
   19.1484  -18.8883  -12.2068 C   0  0  0  0  0  0  0  0  0  0  0  0
   17.8244  -18.8836  -11.8429 C   0  0  0  0  0  0  0  0  0  0  0  0
   19.8004  -21.7204  -14.6592 O   0  0  0  0  0  0  0  0  0  0  0  0
  2  4  1  0
  2  1  1  6
  3  2  1  0
  5  6  1  1
  5  4  1  0
  7  5  1  0
  8  7  2  0
 10  9  1  6
 10 12  1  0
 11 10  1  0
 13 12  1  1
 13 15  1  0
 13 14  1  0
 14  7  1  0
 15 24  1  0
 16 15  2  0
 17 18  1  0
 18 28  2  0
 19 20  2  0
 19 18  1  0
 20 21  1  0
 21 22  1  0
 21 27  2  0
 23 22  1  6
 23 25  1  0
 24 23  1  0
 25 29  2  0
 25 26  1  0
 28 27  1  0
M  END
$$$$
