LLY.pdb
     RDKit          3D

 29 29  0  0  1  0  0  0  0  0999 V2000
   29.1060  -18.4708  -17.2240 C   0  0  0  0  0  0  0  0  0  0  0  0
   27.9772  -19.1848  -17.9910 C   0  0  2  0  0  0  0  0  0  0  0  0
   27.3861  -18.1905  -18.9295 C   0  0  0  0  0  0  0  0  0  0  0  0
   27.0609  -19.7334  -16.9667 C   0  0  0  0  0  0  0  0  0  0  0  0
   27.6492  -20.6510  -15.9477 C   0  0  2  0  0  0  0  0  0  0  0  0
   28.0025  -21.8732  -16.6999 N   0  0  0  0  0  0  0  0  0  0  0  0
   26.7267  -21.0603  -14.8689 C   0  0  0  0  0  0  0  0  0  0  0  0
   25.7924  -21.8788  -15.1403 O   0  0  0  0  0  0  0  0  0  0  0  0
   25.9673  -19.9084   -8.8748 C   0  0  0  0  0  0  0  0  0  0  0  0
   25.2745  -20.6113  -10.0688 C   0  0  2  0  0  0  0  0  0  0  0  0
   24.9925  -21.9966   -9.6023 C   0  0  0  0  0  0  0  0  0  0  0  0
   26.1720  -20.4828  -11.2264 C   0  0  0  0  0  0  0  0  0  0  0  0
   25.7351  -21.0157  -12.5437 C   0  0  2  0  0  0  0  0  0  0  0  0
   26.7828  -20.6210  -13.5283 N   0  0  0  0  0  0  0  0  0  0  0  0
   24.4486  -20.3943  -12.9475 C   0  0  0  0  0  0  0  0  0  0  0  0
   24.3648  -19.1194  -13.0798 O   0  0  0  0  0  0  0  0  0  0  0  0
   17.1309  -18.3451  -17.1475 O   0  0  0  0  0  0  0  0  0  0  0  0
   18.3057  -18.8636  -16.6223 C   0  0  0  0  0  0  0  0  0  0  0  0
   19.4021  -18.0377  -16.3739 C   0  0  0  0  0  0  0  0  0  0  0  0
   20.5730  -18.5421  -15.8528 C   0  0  0  0  0  0  0  0  0  0  0  0
   20.6405  -19.8980  -15.5781 C   0  0  0  0  0  0  0  0  0  0  0  0
   21.8574  -20.4896  -15.0293 C   0  0  0  0  0  0  0  0  0  0  0  0
   21.9945  -20.3712  -13.5264 C   0  0  2  0  0  0  0  0  0  0  0  0
   23.2485  -21.0794  -13.2193 N   0  0  0  0  0  0  0  0  0  0  0  0
   20.8471  -21.0181  -12.8858 C   0  0  0  0  0  0  0  0  0  0  0  0
   19.7242  -20.3498  -12.4382 O   0  0  0  0  0  0  0  0  0  0  0  0
   19.5580  -20.7347  -15.8194 C   0  0  0  0  0  0  0  0  0  0  0  0
   18.4038  -20.2028  -16.3394 C   0  0  0  0  0  0  0  0  0  0  0  0
   20.8706  -22.2796  -12.7226 O   0  0  0  0  0  0  0  0  0  0  0  0
  2  4  1  0
  2  1  1  1
  3  2  1  0
  5  6  1  6
  5  4  1  0
  7  5  1  0
  8  7  2  0
 10  9  1  1
 10 12  1  0
 11 10  1  0
 13 12  1  1
 13 15  1  0
 13 14  1  0
 14  7  1  0
 15 24  1  0
 16 15  2  0
 17 18  1  0
 18 28  2  0
 19 20  2  0
 19 18  1  0
 20 21  1  0
 21 22  1  0
 21 27  2  0
 23 22  1  6
 23 25  1  0
 24 23  1  0
 25 29  2  0
 25 26  1  0
 28 27  1  0
M  END
$$$$
