LLY.pdb
     RDKit          3D

 29 29  0  0  1  0  0  0  0  0999 V2000
   26.7401  -16.4926  -16.9613 C   0  0  0  0  0  0  0  0  0  0  0  0
   28.0438  -17.1608  -16.4859 C   0  0  2  0  0  0  0  0  0  0  0  0
   29.0769  -16.8987  -17.5265 C   0  0  0  0  0  0  0  0  0  0  0  0
   27.7169  -18.5830  -16.2412 C   0  0  0  0  0  0  0  0  0  0  0  0
   26.5465  -18.8715  -15.3617 C   0  0  2  0  0  0  0  0  0  0  0  0
   26.4559  -17.7042  -14.4595 N   0  0  0  0  0  0  0  0  0  0  0  0
   26.6877  -20.0675  -14.5062 C   0  0  0  0  0  0  0  0  0  0  0  0
   26.9540  -21.1837  -15.0539 O   0  0  0  0  0  0  0  0  0  0  0  0
   26.7370  -19.8872   -8.8983 C   0  0  0  0  0  0  0  0  0  0  0  0
   25.8543  -20.4441  -10.0429 C   0  0  2  0  0  0  0  0  0  0  0  0
   24.8108  -21.2674   -9.3724 C   0  0  0  0  0  0  0  0  0  0  0  0
   26.7469  -21.1527  -10.9720 C   0  0  0  0  0  0  0  0  0  0  0  0
   26.3053  -21.3720  -12.3746 C   0  0  2  0  0  0  0  0  0  0  0  0
   26.5538  -20.0939  -13.1010 N   0  0  0  0  0  0  0  0  0  0  0  0
   24.8501  -21.6636  -12.4147 C   0  0  0  0  0  0  0  0  0  0  0  0
   24.4038  -22.7707  -11.9403 O   0  0  0  0  0  0  0  0  0  0  0  0
   16.1483  -20.7480  -11.9939 O   0  0  0  0  0  0  0  0  0  0  0  0
   17.5261  -20.5944  -12.0466 C   0  0  0  0  0  0  0  0  0  0  0  0
   18.1156  -19.7611  -12.9973 C   0  0  0  0  0  0  0  0  0  0  0  0
   19.4823  -19.6015  -13.0584 C   0  0  0  0  0  0  0  0  0  0  0  0
   20.2665  -20.2914  -12.1487 C   0  0  0  0  0  0  0  0  0  0  0  0
   21.7209  -20.1648  -12.1687 C   0  0  0  0  0  0  0  0  0  0  0  0
   22.4351  -21.2189  -12.9874 C   0  0  2  0  0  0  0  0  0  0  0  0
   23.8515  -20.8194  -12.9376 N   0  0  0  0  0  0  0  0  0  0  0  0
   21.9223  -21.1923  -14.3591 C   0  0  0  0  0  0  0  0  0  0  0  0
   20.8993  -21.9948  -14.8254 O   0  0  0  0  0  0  0  0  0  0  0  0
   19.6957  -21.1253  -11.1953 C   0  0  0  0  0  0  0  0  0  0  0  0
   18.3302  -21.2643  -11.1589 C   0  0  0  0  0  0  0  0  0  0  0  0
   22.4435  -20.3818  -15.1898 O   0  0  0  0  0  0  0  0  0  0  0  0
  2  4  1  0
  2  1  1  6
  3  2  1  0
  5  6  1  1
  5  4  1  0
  7  5  1  0
  8  7  2  0
 10  9  1  1
 10 12  1  0
 11 10  1  0
 13 12  1  1
 13 15  1  0
 13 14  1  0
 14  7  1  0
 15 24  1  0
 16 15  2  0
 17 18  1  0
 18 28  2  0
 19 20  2  0
 19 18  1  0
 20 21  1  0
 21 22  1  0
 21 27  2  0
 23 22  1  1
 23 25  1  0
 24 23  1  0
 25 29  2  0
 25 26  1  0
 28 27  1  0
M  END
$$$$
