LLY.pdb
     RDKit          3D

 29 29  0  0  1  0  0  0  0  0999 V2000
   25.8806  -31.6994   -3.2268 C   0  0  0  0  0  0  0  0  0  0  0  0
   25.9109  -33.2174   -3.4859 C   0  0  2  0  0  0  0  0  0  0  0  0
   24.7114  -33.5476   -4.3050 C   0  0  0  0  0  0  0  0  0  0  0  0
   25.9864  -33.8645   -2.1573 C   0  0  0  0  0  0  0  0  0  0  0  0
   27.1387  -33.4951   -1.2841 C   0  0  2  0  0  0  0  0  0  0  0  0
   28.3035  -34.1742   -1.8894 N   0  0  0  0  0  0  0  0  0  0  0  0
   27.0414  -33.9682    0.1120 C   0  0  0  0  0  0  0  0  0  0  0  0
   27.3396  -35.1769    0.3708 O   0  0  0  0  0  0  0  0  0  0  0  0
   28.6641  -33.3852    4.6995 C   0  0  0  0  0  0  0  0  0  0  0  0
   27.9943  -32.2092    3.9459 C   0  0  2  0  0  0  0  0  0  0  0  0
   28.0495  -31.0554    4.8850 C   0  0  0  0  0  0  0  0  0  0  0  0
   26.6535  -32.6601    3.5447 C   0  0  0  0  0  0  0  0  0  0  0  0
   26.5264  -33.7844    2.5803 C   0  0  2  0  0  0  0  0  0  0  0  0
   26.6402  -33.1884    1.2185 N   0  0  0  0  0  0  0  0  0  0  0  0
   25.1914  -34.4213    2.7078 C   0  0  0  0  0  0  0  0  0  0  0  0
   24.1582  -33.8549    2.1963 O   0  0  0  0  0  0  0  0  0  0  0  0
   18.8646  -40.4832    2.9397 O   0  0  0  0  0  0  0  0  0  0  0  0
   20.0523  -39.7664    2.9248 C   0  0  0  0  0  0  0  0  0  0  0  0
   21.0121  -39.9545    3.9194 C   0  0  0  0  0  0  0  0  0  0  0  0
   22.1945  -39.2482    3.9141 C   0  0  0  0  0  0  0  0  0  0  0  0
   22.4133  -38.3392    2.8921 C   0  0  0  0  0  0  0  0  0  0  0  0
   23.6460  -37.5587    2.8373 C   0  0  0  0  0  0  0  0  0  0  0  0
   23.5495  -36.1817    3.4584 C   0  0  2  0  0  0  0  0  0  0  0  0
   24.9152  -35.6406    3.3561 N   0  0  0  0  0  0  0  0  0  0  0  0
   23.1319  -36.3123    4.8563 C   0  0  0  0  0  0  0  0  0  0  0  0
   21.8259  -36.4963    5.2665 O   0  0  0  0  0  0  0  0  0  0  0  0
   21.4681  -38.1397    1.8936 C   0  0  0  0  0  0  0  0  0  0  0  0
   20.2987  -38.8586    1.9255 C   0  0  0  0  0  0  0  0  0  0  0  0
   24.0192  -36.2540    5.7662 O   0  0  0  0  0  0  0  0  0  0  0  0
  2  4  1  0
  2  1  1  1
  3  2  1  0
  5  6  1  6
  5  4  1  0
  7  5  1  0
  8  7  2  0
 10  9  1  1
 10 12  1  0
 11 10  1  0
 13 12  1  1
 13 15  1  0
 13 14  1  0
 14  7  1  0
 15 24  1  0
 16 15  2  0
 17 18  1  0
 18 28  2  0
 19 20  2  0
 19 18  1  0
 20 21  1  0
 21 22  1  0
 21 27  2  0
 23 22  1  1
 23 25  1  0
 24 23  1  0
 25 29  2  0
 25 26  1  0
 28 27  1  0
M  END
$$$$
