MSL.pdb
     RDKit          3D

 23 22  0  0  1  0  0  0  0  0999 V2000
    8.3073  -11.8286   19.7457 C   0  0  0  0  0  0  0  0  0  0  0  0
    8.1931  -12.8029   18.2289 S   0  0  0  0  0  0  0  0  0  0  0  0
    7.8802  -14.5574   18.5862 C   0  0  0  0  0  0  0  0  0  0  0  0
    7.8991  -14.8225   20.0703 C   0  0  0  0  0  0  0  0  0  0  0  0
    7.7762  -16.3035   20.3589 C   0  0  2  0  0  0  0  0  0  0  0  0
    6.6510  -16.8616   19.6378 N   0  0  0  0  0  0  0  0  0  0  0  0
    7.6048  -16.5880   21.7904 C   0  0  0  0  0  0  0  0  0  0  0  0
    6.4794  -16.5354   22.3113 O   0  0  0  0  0  0  0  0  0  0  0  0
   10.6223  -18.2774   24.0809 O   0  0  0  0  0  0  0  0  0  0  0  0
    9.3569  -18.2829   24.6071 C   0  0  0  0  0  0  0  0  0  0  0  0
    8.5950  -17.0885   24.0728 C   0  0  2  0  0  0  0  0  0  0  0  0
    8.6911  -16.9354   22.6592 N   0  0  0  0  0  0  0  0  0  0  0  0
    9.0477  -15.9098   24.8399 C   0  0  0  0  0  0  0  0  0  0  0  0
   10.0571  -15.2932   24.4213 O   0  0  0  0  0  0  0  0  0  0  0  0
    7.7340  -12.0943   25.3770 C   0  0  0  0  0  0  0  0  0  0  0  0
    6.9117  -13.0211   26.2938 C   0  0  2  0  0  0  0  0  0  0  0  0
    5.7960  -12.1730   26.8894 C   0  0  0  0  0  0  0  0  0  0  0  0
    7.8707  -13.4739   27.3626 C   0  0  0  0  0  0  0  0  0  0  0  0
    8.9494  -14.3657   26.8531 C   0  0  2  0  0  0  0  0  0  0  0  0
    8.4229  -15.4307   26.0086 N   0  0  0  0  0  0  0  0  0  0  0  0
    9.8232  -14.9340   27.8888 C   0  0  0  0  0  0  0  0  0  0  0  0
   10.4973  -14.1262   28.6209 O   0  0  0  0  0  0  0  0  0  0  0  0
    9.9774  -16.2754   28.1402 O   0  0  0  0  0  0  0  0  0  0  0  0
  2  1  1  0
  3  2  1  0
  3  4  1  0
  5  4  1  0
  5  6  1  6
  7  5  1  0
  8  7  2  0
  9 10  1  0
 11 10  1  1
 11 13  1  0
 11 12  1  0
 12  7  1  0
 13 20  1  0
 14 13  2  0
 16 15  1  6
 16 17  1  0
 18 16  1  0
 19 18  1  1
 19 21  1  0
 20 19  1  0
 21 22  2  0
 21 23  1  0
M  END
$$$$
