MSL.pdb
     RDKit          3D

 23 22  0  0  1  0  0  0  0  0999 V2000
    7.9137  -11.7096   20.1251 C   0  0  0  0  0  0  0  0  0  0  0  0
    7.6343  -12.6584   18.6135 S   0  0  0  0  0  0  0  0  0  0  0  0
    8.4405  -14.2856   18.6898 C   0  0  0  0  0  0  0  0  0  0  0  0
    8.3260  -14.8857   20.0681 C   0  0  0  0  0  0  0  0  0  0  0  0
    9.6522  -15.4560   20.5239 C   0  0  2  0  0  0  0  0  0  0  0  0
   10.1321  -16.4316   19.5672 N   0  0  0  0  0  0  0  0  0  0  0  0
    9.5688  -16.0947   21.8448 C   0  0  0  0  0  0  0  0  0  0  0  0
    9.0288  -15.5058   22.7946 O   0  0  0  0  0  0  0  0  0  0  0  0
   12.1404  -19.0610   23.1108 O   0  0  0  0  0  0  0  0  0  0  0  0
   10.8394  -19.3376   23.4411 C   0  0  0  0  0  0  0  0  0  0  0  0
   10.0332  -18.0573   23.3852 C   0  0  2  0  0  0  0  0  0  0  0  0
   10.0888  -17.4019   22.1210 N   0  0  0  0  0  0  0  0  0  0  0  0
   10.4744  -17.2198   24.5195 C   0  0  0  0  0  0  0  0  0  0  0  0
   11.3804  -16.3783   24.3061 O   0  0  0  0  0  0  0  0  0  0  0  0
    8.8025  -13.4656   28.5768 C   0  0  0  0  0  0  0  0  0  0  0  0
    9.9112  -14.5231   28.4101 C   0  0  2  0  0  0  0  0  0  0  0  0
   11.1999  -13.7665   28.1171 C   0  0  0  0  0  0  0  0  0  0  0  0
    9.4938  -15.3516   27.2241 C   0  0  0  0  0  0  0  0  0  0  0  0
   10.4022  -16.5005   26.9534 C   0  0  2  0  0  0  0  0  0  0  0  0
    9.9470  -17.3011   25.8237 N   0  0  0  0  0  0  0  0  0  0  0  0
   10.6627  -17.3691   28.1096 C   0  0  0  0  0  0  0  0  0  0  0  0
   11.5143  -16.9743   28.9825 O   0  0  0  0  0  0  0  0  0  0  0  0
   10.0603  -18.5827   28.3347 O   0  0  0  0  0  0  0  0  0  0  0  0
  2  1  1  0
  3  2  1  0
  3  4  1  0
  5  4  1  0
  5  6  1  6
  7  5  1  0
  8  7  2  0
  9 10  1  0
 11 10  1  6
 11 13  1  0
 11 12  1  0
 12  7  1  0
 13 20  1  0
 14 13  2  0
 16 15  1  6
 16 17  1  0
 18 16  1  0
 19 18  1  1
 19 21  1  0
 20 19  1  0
 21 22  2  0
 21 23  1  0
M  END
$$$$
