MSL.pdb
     RDKit          3D

 23 22  0  0  1  0  0  0  0  0999 V2000
    9.1753  -11.9959   19.1479 C   0  0  0  0  0  0  0  0  0  0  0  0
    7.4235  -12.3608   19.3950 S   0  0  0  0  0  0  0  0  0  0  0  0
    7.1511  -14.1274   19.7244 C   0  0  0  0  0  0  0  0  0  0  0  0
    8.4080  -14.9256   19.4872 C   0  0  0  0  0  0  0  0  0  0  0  0
    8.2071  -16.3786   19.8613 C   0  0  2  0  0  0  0  0  0  0  0  0
    7.2387  -16.9932   18.9769 N   0  0  0  0  0  0  0  0  0  0  0  0
    7.7507  -16.5474   21.2479 C   0  0  0  0  0  0  0  0  0  0  0  0
    6.5441  -16.6941   21.4989 O   0  0  0  0  0  0  0  0  0  0  0  0
    9.9191  -18.2997   24.1185 O   0  0  0  0  0  0  0  0  0  0  0  0
    8.5873  -18.0511   24.3252 C   0  0  0  0  0  0  0  0  0  0  0  0
    8.2396  -16.7015   23.7334 C   0  0  2  0  0  0  0  0  0  0  0  0
    8.6389  -16.5542   22.3733 N   0  0  0  0  0  0  0  0  0  0  0  0
    8.7958  -15.6765   24.6404 C   0  0  0  0  0  0  0  0  0  0  0  0
    9.9999  -15.3566   24.4915 O   0  0  0  0  0  0  0  0  0  0  0  0
    6.3126  -11.3256   27.1939 C   0  0  0  0  0  0  0  0  0  0  0  0
    7.3631  -12.1573   26.4320 C   0  0  2  0  0  0  0  0  0  0  0  0
    6.6907  -12.6563   25.1601 C   0  0  0  0  0  0  0  0  0  0  0  0
    7.6998  -13.3048   27.3469 C   0  0  0  0  0  0  0  0  0  0  0  0
    8.6617  -14.2747   26.7532 C   0  0  2  0  0  0  0  0  0  0  0  0
    8.0664  -15.0335   25.6603 N   0  0  0  0  0  0  0  0  0  0  0  0
    9.2894  -15.1912   27.7151 C   0  0  0  0  0  0  0  0  0  0  0  0
   10.0395  -14.6907   28.6259 O   0  0  0  0  0  0  0  0  0  0  0  0
    9.1350  -16.5560   27.7186 O   0  0  0  0  0  0  0  0  0  0  0  0
  2  1  1  0
  3  2  1  0
  3  4  1  0
  5  4  1  0
  5  6  1  6
  7  5  1  0
  8  7  2  0
  9 10  1  0
 11 10  1  1
 11 13  1  0
 11 12  1  0
 12  7  1  0
 13 20  1  0
 14 13  2  0
 16 15  1  1
 16 17  1  0
 18 16  1  0
 19 18  1  1
 19 21  1  0
 20 19  1  0
 21 22  2  0
 21 23  1  0
M  END
$$$$
