MSL.pdb
     RDKit          3D

 23 22  0  0  1  0  0  0  0  0999 V2000
    6.8828  -11.4036   25.2447 C   0  0  0  0  0  0  0  0  0  0  0  0
    5.4008  -12.2545   25.8302 S   0  0  0  0  0  0  0  0  0  0  0  0
    5.3620  -13.9842   25.2731 C   0  0  0  0  0  0  0  0  0  0  0  0
    6.7558  -14.5226   25.0715 C   0  0  0  0  0  0  0  0  0  0  0  0
    6.7205  -15.8981   24.4402 C   0  0  2  0  0  0  0  0  0  0  0  0
    5.7710  -16.7427   25.1349 N   0  0  0  0  0  0  0  0  0  0  0  0
    8.0331  -16.5589   24.4513 C   0  0  0  0  0  0  0  0  0  0  0  0
    8.3160  -17.3797   25.3382 O   0  0  0  0  0  0  0  0  0  0  0  0
   10.6855  -15.1937   21.8274 O   0  0  0  0  0  0  0  0  0  0  0  0
   11.2630  -16.2972   22.3993 C   0  0  0  0  0  0  0  0  0  0  0  0
   10.3939  -16.7712   23.5448 C   0  0  2  0  0  0  0  0  0  0  0  0
    9.0477  -16.3098   23.4695 N   0  0  0  0  0  0  0  0  0  0  0  0
   11.0894  -16.4027   24.7951 C   0  0  0  0  0  0  0  0  0  0  0  0
   11.4047  -15.1988   24.9548 O   0  0  0  0  0  0  0  0  0  0  0  0
   11.3399  -14.4324   28.4296 C   0  0  0  0  0  0  0  0  0  0  0  0
   10.1397  -14.8509   27.5578 C   0  0  2  0  0  0  0  0  0  0  0  0
    8.8991  -14.2392   28.1948 C   0  0  0  0  0  0  0  0  0  0  0  0
   10.0977  -16.3540   27.6364 C   0  0  0  0  0  0  0  0  0  0  0  0
   11.3789  -17.0048   27.2447 C   0  0  2  0  0  0  0  0  0  0  0  0
   11.4220  -17.3106   25.8203 N   0  0  0  0  0  0  0  0  0  0  0  0
   11.7292  -18.2002   28.0241 C   0  0  0  0  0  0  0  0  0  0  0  0
   11.4355  -19.3480   27.5351 O   0  0  0  0  0  0  0  0  0  0  0  0
   12.3541  -18.1879   29.2471 O   0  0  0  0  0  0  0  0  0  0  0  0
  2  1  1  0
  3  2  1  0
  3  4  1  0
  5  4  1  0
  5  6  1  1
  7  5  1  0
  8  7  2  0
  9 10  1  0
 11 10  1  6
 11 13  1  0
 11 12  1  0
 12  7  1  0
 13 20  1  0
 14 13  2  0
 16 15  1  1
 16 17  1  0
 18 16  1  0
 19 18  1  1
 19 21  1  0
 20 19  1  0
 21 22  2  0
 21 23  1  0
M  END
$$$$
