MSL.pdb
     RDKit          3D

 23 22  0  0  1  0  0  0  0  0999 V2000
    7.8907  -11.8780   19.4936 C   0  0  0  0  0  0  0  0  0  0  0  0
    8.3356  -13.0169   18.1639 S   0  0  0  0  0  0  0  0  0  0  0  0
    7.2802  -14.4967   18.1734 C   0  0  0  0  0  0  0  0  0  0  0  0
    7.1853  -15.0889   19.5566 C   0  0  0  0  0  0  0  0  0  0  0  0
    8.5552  -15.4592   20.0839 C   0  0  2  0  0  0  0  0  0  0  0  0
    9.1384  -16.5051   19.2693 N   0  0  0  0  0  0  0  0  0  0  0  0
    8.5189  -15.9161   21.4801 C   0  0  0  0  0  0  0  0  0  0  0  0
    7.7435  -15.3894   22.2937 O   0  0  0  0  0  0  0  0  0  0  0  0
   11.6486  -18.0141   23.4216 O   0  0  0  0  0  0  0  0  0  0  0  0
   10.3854  -18.5169   23.5935 C   0  0  0  0  0  0  0  0  0  0  0  0
    9.3772  -17.4165   23.3381 C   0  0  2  0  0  0  0  0  0  0  0  0
    9.3503  -16.9691   21.9853 N   0  0  0  0  0  0  0  0  0  0  0  0
    9.6463  -16.3480   24.3222 C   0  0  0  0  0  0  0  0  0  0  0  0
   10.1374  -15.2740   23.8982 O   0  0  0  0  0  0  0  0  0  0  0  0
    6.4009  -12.8144   26.9021 C   0  0  0  0  0  0  0  0  0  0  0  0
    7.7767  -13.3982   27.2787 C   0  0  2  0  0  0  0  0  0  0  0  0
    8.8028  -12.3006   27.0310 C   0  0  0  0  0  0  0  0  0  0  0  0
    7.9885  -14.5535   26.3365 C   0  0  0  0  0  0  0  0  0  0  0  0
    9.2375  -15.3186   26.6069 C   0  0  2  0  0  0  0  0  0  0  0  0
    9.3887  -16.4525   25.7037 N   0  0  0  0  0  0  0  0  0  0  0  0
    9.4028  -15.7615   27.9982 C   0  0  0  0  0  0  0  0  0  0  0  0
    9.7939  -14.9011   28.8640 O   0  0  0  0  0  0  0  0  0  0  0  0
    9.1686  -17.0365   28.4520 O   0  0  0  0  0  0  0  0  0  0  0  0
  2  1  1  0
  3  2  1  0
  3  4  1  0
  5  4  1  0
  5  6  1  6
  7  5  1  0
  8  7  2  0
  9 10  1  0
 11 10  1  6
 11 13  1  0
 11 12  1  0
 12  7  1  0
 13 20  1  0
 14 13  2  0
 16 15  1  6
 16 17  1  0
 18 16  1  0
 19 18  1  1
 19 21  1  0
 20 19  1  0
 21 22  2  0
 21 23  1  0
M  END
$$$$
