MSL.pdb
     RDKit          3D

 23 22  0  0  1  0  0  0  0  0999 V2000
    9.1175  -11.0609   18.3181 C   0  0  0  0  0  0  0  0  0  0  0  0
    8.0409  -12.3789   18.9238 S   0  0  0  0  0  0  0  0  0  0  0  0
    8.8936  -13.9841   18.9330 C   0  0  0  0  0  0  0  0  0  0  0  0
    7.9963  -15.0742   19.4616 C   0  0  0  0  0  0  0  0  0  0  0  0
    8.7023  -16.4132   19.4473 C   0  0  2  0  0  0  0  0  0  0  0  0
    8.2161  -17.2231   18.3495 N   0  0  0  0  0  0  0  0  0  0  0  0
    8.5210  -17.1611   20.6993 C   0  0  0  0  0  0  0  0  0  0  0  0
    7.5128  -17.8643   20.8709 O   0  0  0  0  0  0  0  0  0  0  0  0
   11.3364  -18.1389   23.4219 O   0  0  0  0  0  0  0  0  0  0  0  0
   10.0476  -18.3240   23.8494 C   0  0  0  0  0  0  0  0  0  0  0  0
    9.1483  -17.3247   23.1529 C   0  0  2  0  0  0  0  0  0  0  0  0
    9.4661  -17.1322   21.7770 N   0  0  0  0  0  0  0  0  0  0  0  0
    9.1750  -16.0860   23.9578 C   0  0  0  0  0  0  0  0  0  0  0  0
   10.2395  -15.4220   23.9722 O   0  0  0  0  0  0  0  0  0  0  0  0
    5.4630  -12.5023   27.3817 C   0  0  0  0  0  0  0  0  0  0  0  0
    6.9227  -12.9446   27.1600 C   0  0  2  0  0  0  0  0  0  0  0  0
    7.6830  -11.7206   26.6675 C   0  0  0  0  0  0  0  0  0  0  0  0
    6.8583  -14.0027   26.0906 C   0  0  0  0  0  0  0  0  0  0  0  0
    8.1864  -14.5853   25.7514 C   0  0  2  0  0  0  0  0  0  0  0  0
    8.0868  -15.5995   24.7094 N   0  0  0  0  0  0  0  0  0  0  0  0
    8.9398  -15.1159   26.8959 C   0  0  0  0  0  0  0  0  0  0  0  0
    9.7464  -14.3285   27.5061 O   0  0  0  0  0  0  0  0  0  0  0  0
    8.8483  -16.4012   27.3715 O   0  0  0  0  0  0  0  0  0  0  0  0
  2  1  1  0
  3  2  1  0
  3  4  1  0
  5  4  1  0
  5  6  1  6
  7  5  1  0
  8  7  2  0
  9 10  1  0
 11 10  1  1
 11 13  1  0
 11 12  1  0
 12  7  1  0
 13 20  1  0
 14 13  2  0
 16 15  1  6
 16 17  1  0
 18 16  1  0
 19 18  1  1
 19 21  1  0
 20 19  1  0
 21 22  2  0
 21 23  1  0
M  END
$$$$
