MSL.pdb
     RDKit          3D

 23 22  0  0  1  0  0  0  0  0999 V2000
    7.7380  -11.6856   19.6518 C   0  0  0  0  0  0  0  0  0  0  0  0
    8.2417  -12.5797   18.1651 S   0  0  0  0  0  0  0  0  0  0  0  0
    8.2496  -14.3765   18.4389 C   0  0  0  0  0  0  0  0  0  0  0  0
    8.2451  -14.7029   19.9109 C   0  0  0  0  0  0  0  0  0  0  0  0
    8.2294  -16.1999   20.1350 C   0  0  2  0  0  0  0  0  0  0  0  0
    7.2104  -16.8180   19.3122 N   0  0  0  0  0  0  0  0  0  0  0  0
    7.9816  -16.5587   21.5385 C   0  0  0  0  0  0  0  0  0  0  0  0
    6.8226  -16.6057   21.9798 O   0  0  0  0  0  0  0  0  0  0  0  0
   10.8275  -18.3997   23.8501 O   0  0  0  0  0  0  0  0  0  0  0  0
    9.5413  -18.4016   24.3233 C   0  0  0  0  0  0  0  0  0  0  0  0
    8.8408  -17.1443   23.8535 C   0  0  2  0  0  0  0  0  0  0  0  0
    9.0282  -16.8698   22.4676 N   0  0  0  0  0  0  0  0  0  0  0  0
    9.2704  -16.0507   24.7491 C   0  0  0  0  0  0  0  0  0  0  0  0
   10.3888  -15.5244   24.5330 O   0  0  0  0  0  0  0  0  0  0  0  0
    7.9085  -12.0713   25.5831 C   0  0  0  0  0  0  0  0  0  0  0  0
    6.9903  -13.1018   26.2691 C   0  0  2  0  0  0  0  0  0  0  0  0
    5.8444  -12.3201   26.8974 C   0  0  0  0  0  0  0  0  0  0  0  0
    7.8427  -13.7492   27.3281 C   0  0  0  0  0  0  0  0  0  0  0  0
    8.9702  -14.5499   26.7750 C   0  0  2  0  0  0  0  0  0  0  0  0
    8.5101  -15.5583   25.8285 N   0  0  0  0  0  0  0  0  0  0  0  0
    9.8415  -15.1701   27.7827 C   0  0  0  0  0  0  0  0  0  0  0  0
    9.7074  -16.4247   28.0080 O   0  0  0  0  0  0  0  0  0  0  0  0
   10.7998  -14.5076   28.5103 O   0  0  0  0  0  0  0  0  0  0  0  0
  2  1  1  0
  3  2  1  0
  3  4  1  0
  5  4  1  0
  5  6  1  6
  7  5  1  0
  8  7  2  0
  9 10  1  0
 11 10  1  1
 11 13  1  0
 11 12  1  0
 12  7  1  0
 13 20  1  0
 14 13  2  0
 16 15  1  1
 16 17  1  0
 18 16  1  0
 19 18  1  1
 19 21  1  0
 20 19  1  0
 21 22  2  0
 21 23  1  0
M  END
$$$$
