MSL.pdb
     RDKit          3D

 23 22  0  0  1  0  0  0  0  0999 V2000
    8.4867  -11.4058   19.7183 C   0  0  0  0  0  0  0  0  0  0  0  0
    8.3199  -12.2620   18.1364 S   0  0  0  0  0  0  0  0  0  0  0  0
    8.5554  -14.0547   18.3212 C   0  0  0  0  0  0  0  0  0  0  0  0
    8.0487  -14.5355   19.6574 C   0  0  0  0  0  0  0  0  0  0  0  0
    8.3106  -16.0156   19.8369 C   0  0  2  0  0  0  0  0  0  0  0  0
    7.5087  -16.7817   18.9055 N   0  0  0  0  0  0  0  0  0  0  0  0
    8.0193  -16.4799   21.2004 C   0  0  0  0  0  0  0  0  0  0  0  0
    6.8518  -16.7209   21.5461 O   0  0  0  0  0  0  0  0  0  0  0  0
   10.7178  -18.3402   23.5552 O   0  0  0  0  0  0  0  0  0  0  0  0
    9.4234  -18.3029   24.0039 C   0  0  0  0  0  0  0  0  0  0  0  0
    8.7853  -17.0027   23.5626 C   0  0  2  0  0  0  0  0  0  0  0  0
    9.0309  -16.6808   22.1962 N   0  0  0  0  0  0  0  0  0  0  0  0
    9.2224  -15.9623   24.5161 C   0  0  0  0  0  0  0  0  0  0  0  0
   10.3079  -15.3771   24.2846 O   0  0  0  0  0  0  0  0  0  0  0  0
    7.7104  -12.1523   25.6089 C   0  0  0  0  0  0  0  0  0  0  0  0
    6.9102  -13.2726   26.3018 C   0  0  2  0  0  0  0  0  0  0  0  0
    5.7386  -12.6038   27.0081 C   0  0  0  0  0  0  0  0  0  0  0  0
    7.8612  -13.8810   27.2981 C   0  0  0  0  0  0  0  0  0  0  0  0
    8.9799  -14.6349   26.6669 C   0  0  2  0  0  0  0  0  0  0  0  0
    8.5033  -15.5820   25.6668 N   0  0  0  0  0  0  0  0  0  0  0  0
    9.8788  -15.3136   27.6106 C   0  0  0  0  0  0  0  0  0  0  0  0
    9.8079  -16.5902   27.7013 O   0  0  0  0  0  0  0  0  0  0  0  0
   10.8003  -14.6846   28.4117 O   0  0  0  0  0  0  0  0  0  0  0  0
  2  1  1  0
  3  2  1  0
  3  4  1  0
  5  4  1  0
  5  6  1  6
  7  5  1  0
  8  7  2  0
  9 10  1  0
 11 10  1  1
 11 13  1  0
 11 12  1  0
 12  7  1  0
 13 20  1  0
 14 13  2  0
 16 15  1  1
 16 17  1  0
 18 16  1  0
 19 18  1  1
 19 21  1  0
 20 19  1  0
 21 22  2  0
 21 23  1  0
M  END
$$$$
