MSL.pdb
     RDKit          3D

 23 22  0  0  1  0  0  0  0  0999 V2000
   13.3653  -18.4714   22.6361 C   0  0  0  0  0  0  0  0  0  0  0  0
   13.1880  -17.6637   21.0300 S   0  0  0  0  0  0  0  0  0  0  0  0
   11.4434  -17.3390   20.6367 C   0  0  0  0  0  0  0  0  0  0  0  0
   10.6201  -18.5984   20.7327 C   0  0  0  0  0  0  0  0  0  0  0  0
    9.1558  -18.3105   20.4787 C   0  0  2  0  0  0  0  0  0  0  0  0
    8.9951  -17.6068   19.2231 N   0  0  0  0  0  0  0  0  0  0  0  0
    8.5435  -17.5096   21.5480 C   0  0  0  0  0  0  0  0  0  0  0  0
    8.3159  -16.3016   21.3765 O   0  0  0  0  0  0  0  0  0  0  0  0
    7.5784  -19.1623   25.3261 O   0  0  0  0  0  0  0  0  0  0  0  0
    6.6861  -18.2850   24.7672 C   0  0  0  0  0  0  0  0  0  0  0  0
    7.4269  -17.3628   23.8222 C   0  0  2  0  0  0  0  0  0  0  0  0
    8.1774  -18.0500   22.8244 N   0  0  0  0  0  0  0  0  0  0  0  0
    8.2297  -16.4448   24.6562 C   0  0  0  0  0  0  0  0  0  0  0  0
    9.4773  -16.5772   24.6351 O   0  0  0  0  0  0  0  0  0  0  0  0
    7.2513  -12.0989   24.9321 C   0  0  0  0  0  0  0  0  0  0  0  0
    6.5586  -12.9942   25.9781 C   0  0  2  0  0  0  0  0  0  0  0  0
    5.5592  -12.1144   26.7171 C   0  0  0  0  0  0  0  0  0  0  0  0
    7.6581  -13.4493   26.9007 C   0  0  0  0  0  0  0  0  0  0  0  0
    8.4728  -14.5666   26.3473 C   0  0  2  0  0  0  0  0  0  0  0  0
    7.6902  -15.4309   25.4727 N   0  0  0  0  0  0  0  0  0  0  0  0
    9.1762  -15.3761   27.3519 C   0  0  0  0  0  0  0  0  0  0  0  0
   10.0033  -14.7854   28.1329 O   0  0  0  0  0  0  0  0  0  0  0  0
    9.0170  -16.7293   27.5251 O   0  0  0  0  0  0  0  0  0  0  0  0
  2  1  1  0
  3  2  1  0
  3  4  1  0
  5  4  1  0
  5  6  1  6
  7  5  1  0
  8  7  2  0
  9 10  1  0
 11 10  1  1
 11 13  1  0
 11 12  1  0
 12  7  1  0
 13 20  1  0
 14 13  2  0
 16 15  1  6
 16 17  1  0
 18 16  1  0
 19 18  1  1
 19 21  1  0
 20 19  1  0
 21 22  2  0
 21 23  1  0
M  END
$$$$
