MSL.pdb
     RDKit          3D

 23 22  0  0  1  0  0  0  0  0999 V2000
    7.5554  -11.8414   20.1820 C   0  0  0  0  0  0  0  0  0  0  0  0
    8.0267  -12.4478   18.5469 S   0  0  0  0  0  0  0  0  0  0  0  0
    8.2398  -14.2528   18.5419 C   0  0  0  0  0  0  0  0  0  0  0  0
    8.3452  -14.7925   19.9458 C   0  0  0  0  0  0  0  0  0  0  0  0
    8.4835  -16.3000   19.9390 C   0  0  2  0  0  0  0  0  0  0  0  0
    7.3635  -16.9016   19.2455 N   0  0  0  0  0  0  0  0  0  0  0  0
    8.5574  -16.8668   21.2929 C   0  0  0  0  0  0  0  0  0  0  0  0
    7.5901  -16.7770   22.0653 O   0  0  0  0  0  0  0  0  0  0  0  0
   11.9356  -19.0195   22.6279 O   0  0  0  0  0  0  0  0  0  0  0  0
   10.7278  -19.2767   23.2223 C   0  0  0  0  0  0  0  0  0  0  0  0
    9.8586  -18.0405   23.1285 C   0  0  2  0  0  0  0  0  0  0  0  0
    9.7154  -17.5422   21.8010 N   0  0  0  0  0  0  0  0  0  0  0  0
   10.4025  -17.0569   24.0873 C   0  0  0  0  0  0  0  0  0  0  0  0
   11.2644  -16.2474   23.6674 O   0  0  0  0  0  0  0  0  0  0  0  0
    9.2664  -14.2810   29.4237 C   0  0  0  0  0  0  0  0  0  0  0  0
   10.2662  -14.4646   28.2651 C   0  0  2  0  0  0  0  0  0  0  0  0
   10.2691  -13.1620   27.4764 C   0  0  0  0  0  0  0  0  0  0  0  0
    9.7102  -15.5924   27.4368 C   0  0  0  0  0  0  0  0  0  0  0  0
   10.6740  -16.1221   26.4323 C   0  0  2  0  0  0  0  0  0  0  0  0
   10.0191  -16.9655   25.4402 N   0  0  0  0  0  0  0  0  0  0  0  0
   11.8343  -16.8240   26.9982 C   0  0  0  0  0  0  0  0  0  0  0  0
   11.6488  -17.9852   27.5080 O   0  0  0  0  0  0  0  0  0  0  0  0
   13.1164  -16.3321   27.0246 O   0  0  0  0  0  0  0  0  0  0  0  0
  2  1  1  0
  3  2  1  0
  3  4  1  0
  5  4  1  0
  5  6  1  1
  7  5  1  0
  8  7  2  0
  9 10  1  0
 11 10  1  6
 11 13  1  0
 11 12  1  0
 12  7  1  0
 13 20  1  0
 14 13  2  0
 16 15  1  1
 16 17  1  0
 18 16  1  0
 19 18  1  1
 19 21  1  0
 20 19  1  0
 21 22  2  0
 21 23  1  0
M  END
$$$$
