MSL.pdb
     RDKit          3D

 23 22  0  0  1  0  0  0  0  0999 V2000
    9.1978  -12.4087   19.9032 C   0  0  0  0  0  0  0  0  0  0  0  0
    7.9559  -12.8702   18.6752 S   0  0  0  0  0  0  0  0  0  0  0  0
    7.2206  -14.4902   19.0479 C   0  0  0  0  0  0  0  0  0  0  0  0
    8.2524  -15.4432   19.5958 C   0  0  0  0  0  0  0  0  0  0  0  0
    7.6126  -16.7443   20.0314 C   0  0  2  0  0  0  0  0  0  0  0  0
    6.5740  -17.1278   19.0977 N   0  0  0  0  0  0  0  0  0  0  0  0
    7.0283  -16.6639   21.3774 C   0  0  0  0  0  0  0  0  0  0  0  0
    5.9002  -16.1740   21.5445 O   0  0  0  0  0  0  0  0  0  0  0  0
    8.2881  -18.9473   24.6016 O   0  0  0  0  0  0  0  0  0  0  0  0
    7.0859  -18.2903   24.6371 C   0  0  0  0  0  0  0  0  0  0  0  0
    7.2169  -16.9809   23.8882 C   0  0  2  0  0  0  0  0  0  0  0  0
    7.6988  -17.1308   22.5554 N   0  0  0  0  0  0  0  0  0  0  0  0
    8.0355  -16.0831   24.7288 C   0  0  0  0  0  0  0  0  0  0  0  0
    9.2551  -15.9772   24.4540 O   0  0  0  0  0  0  0  0  0  0  0  0
    7.5085  -11.9183   25.4121 C   0  0  0  0  0  0  0  0  0  0  0  0
    6.6003  -12.7132   26.3707 C   0  0  2  0  0  0  0  0  0  0  0  0
    5.7415  -11.6948   27.1085 C   0  0  0  0  0  0  0  0  0  0  0  0
    7.5391  -13.4110   27.3188 C   0  0  0  0  0  0  0  0  0  0  0  0
    8.3507  -14.4792   26.6717 C   0  0  2  0  0  0  0  0  0  0  0  0
    7.5400  -15.3377   25.8172 N   0  0  0  0  0  0  0  0  0  0  0  0
    9.1441  -15.2998   27.5970 C   0  0  0  0  0  0  0  0  0  0  0  0
    8.7512  -16.4969   27.8322 O   0  0  0  0  0  0  0  0  0  0  0  0
   10.2862  -14.8843   28.2369 O   0  0  0  0  0  0  0  0  0  0  0  0
  2  1  1  0
  3  2  1  0
  3  4  1  0
  5  4  1  0
  5  6  1  6
  7  5  1  0
  8  7  2  0
  9 10  1  0
 11 10  1  1
 11 13  1  0
 11 12  1  0
 12  7  1  0
 13 20  1  0
 14 13  2  0
 16 15  1  6
 16 17  1  0
 18 16  1  0
 19 18  1  1
 19 21  1  0
 20 19  1  0
 21 22  2  0
 21 23  1  0
M  END
$$$$
