IEA.pdb
     RDKit          3D

 23 22  0  0  1  0  0  0  0  0999 V2000
    5.6327  -11.3731   26.0232 C   0  0  0  0  0  0  0  0  0  0  0  0
    5.3974  -12.7845   25.5291 C   0  0  0  0  0  0  0  0  0  0  0  0
    6.6852  -13.5594   25.6470 C   0  0  2  0  0  0  0  0  0  0  0  0
    7.7750  -12.7637   24.9637 C   0  0  0  0  0  0  0  0  0  0  0  0
    6.5687  -14.9480   25.0568 C   0  0  2  0  0  0  0  0  0  0  0  0
    5.4725  -15.6896   25.6054 N   0  0  0  0  0  0  0  0  0  0  0  0
    7.8362  -15.7286   25.2967 C   0  0  0  0  0  0  0  0  0  0  0  0
    7.8805  -16.4232   26.3275 O   0  0  0  0  0  0  0  0  0  0  0  0
    8.9166  -15.6771   24.4028 N   0  0  0  0  0  0  0  0  0  0  0  0
   10.1383  -16.4259   24.4139 C   0  0  1  0  0  0  0  0  0  0  0  0
   10.9886  -16.1701   23.1725 C   0  0  0  0  0  0  0  0  0  0  0  0
   12.2359  -16.9822   23.2498 C   0  0  0  0  0  0  0  0  0  0  0  0
   13.1169  -16.6944   22.0776 C   0  0  0  0  0  0  0  0  0  0  0  0
   14.2333  -16.1742   22.2457 O   0  0  0  0  0  0  0  0  0  0  0  0
   10.8564  -16.3289   25.6691 C   0  0  0  0  0  0  0  0  0  0  0  0
   11.9584  -16.9391   25.8575 O   0  0  0  0  0  0  0  0  0  0  0  0
   12.6876  -17.0087   20.7965 O   0  0  0  0  0  0  0  0  0  0  0  0
   10.4192  -14.2934   28.7823 C   0  0  0  0  0  0  0  0  0  0  0  0
   11.1006  -15.4169   28.0034 C   0  0  2  0  0  0  0  0  0  0  0  0
   10.3771  -15.5528   26.7565 N   0  0  0  0  0  0  0  0  0  0  0  0
   11.0988  -16.6862   28.7756 C   0  0  0  0  0  0  0  0  0  0  0  0
   11.8636  -16.8303   29.9262 O   0  0  0  0  0  0  0  0  0  0  0  0
   10.3852  -17.6356   28.3633 O   0  0  0  0  0  0  0  0  0  0  0  0
  2  3  1  0
  2  1  1  0
  3  4  1  6
  5  7  1  0
  5  3  1  0
  5  6  1  1
  7  8  2  0
  9 10  1  0
  9  7  1  0
 10 11  1  6
 12 11  1  0
 12 13  1  0
 13 17  1  0
 14 13  2  0
 15 20  1  0
 15 10  1  0
 16 15  2  0
 19 18  1  1
 19 21  1  0
 19 20  1  0
 21 22  1  0
 23 21  2  0
M  END
$$$$
