IEA.pdb
     RDKit          3D

 23 22  0  0  1  0  0  0  0  0999 V2000
    5.5331  -11.3933   25.9650 C   0  0  0  0  0  0  0  0  0  0  0  0
    5.4048  -12.7384   25.2825 C   0  0  0  0  0  0  0  0  0  0  0  0
    6.6882  -13.5047   25.4784 C   0  0  2  0  0  0  0  0  0  0  0  0
    7.8129  -12.6990   24.8673 C   0  0  0  0  0  0  0  0  0  0  0  0
    6.6188  -14.8919   24.8777 C   0  0  2  0  0  0  0  0  0  0  0  0
    5.4433  -15.6071   25.2769 N   0  0  0  0  0  0  0  0  0  0  0  0
    7.8256  -15.7003   25.2822 C   0  0  0  0  0  0  0  0  0  0  0  0
    7.8145  -16.1911   26.4250 O   0  0  0  0  0  0  0  0  0  0  0  0
    8.9115  -15.8925   24.4145 N   0  0  0  0  0  0  0  0  0  0  0  0
   10.1589  -16.5547   24.6569 C   0  0  1  0  0  0  0  0  0  0  0  0
   11.0111  -16.6695   23.3960 C   0  0  0  0  0  0  0  0  0  0  0  0
   10.1835  -17.2229   22.2867 C   0  0  0  0  0  0  0  0  0  0  0  0
   10.9686  -17.2484   21.0155 C   0  0  0  0  0  0  0  0  0  0  0  0
   10.7037  -16.4509   20.0994 O   0  0  0  0  0  0  0  0  0  0  0  0
   10.8612  -16.0433   25.8169 C   0  0  0  0  0  0  0  0  0  0  0  0
   11.7862  -15.1744   25.7088 O   0  0  0  0  0  0  0  0  0  0  0  0
   11.9971  -18.1655   20.8565 O   0  0  0  0  0  0  0  0  0  0  0  0
   10.5151  -14.8224   28.8519 C   0  0  0  0  0  0  0  0  0  0  0  0
   11.2900  -16.0165   28.2980 C   0  0  2  0  0  0  0  0  0  0  0  0
   10.5618  -16.4778   27.1346 N   0  0  0  0  0  0  0  0  0  0  0  0
   11.4266  -17.0897   29.3162 C   0  0  0  0  0  0  0  0  0  0  0  0
   10.8538  -18.3409   29.1253 O   0  0  0  0  0  0  0  0  0  0  0  0
   12.0764  -16.8410   30.3634 O   0  0  0  0  0  0  0  0  0  0  0  0
  2  3  1  0
  2  1  1  0
  3  4  1  6
  5  7  1  0
  5  3  1  0
  5  6  1  1
  7  8  2  0
  9 10  1  0
  9  7  1  0
 10 11  1  6
 12 11  1  0
 12 13  1  0
 13 17  1  0
 14 13  2  0
 15 20  1  0
 15 10  1  0
 16 15  2  0
 19 18  1  1
 19 21  1  0
 19 20  1  0
 21 22  1  0
 23 21  2  0
M  END
$$$$
