IEA.pdb
     RDKit          3D

 23 22  0  0  1  0  0  0  0  0999 V2000
    7.4276  -11.9848   18.8306 C   0  0  0  0  0  0  0  0  0  0  0  0
    7.8941  -13.4214   18.9313 C   0  0  0  0  0  0  0  0  0  0  0  0
    7.6792  -13.9020   20.3440 C   0  0  2  0  0  0  0  0  0  0  0  0
    8.4804  -13.0127   21.2684 C   0  0  0  0  0  0  0  0  0  0  0  0
    8.0628  -15.3560   20.5139 C   0  0  2  0  0  0  0  0  0  0  0  0
    7.3113  -16.2275   19.6602 N   0  0  0  0  0  0  0  0  0  0  0  0
    7.8501  -15.7919   21.9415 C   0  0  0  0  0  0  0  0  0  0  0  0
    6.6771  -16.0112   22.2922 O   0  0  0  0  0  0  0  0  0  0  0  0
    8.9210  -15.9441   22.8354 N   0  0  0  0  0  0  0  0  0  0  0  0
    8.8955  -16.2194   24.2414 C   0  0  1  0  0  0  0  0  0  0  0  0
    9.8356  -17.3578   24.6283 C   0  0  0  0  0  0  0  0  0  0  0  0
    9.8295  -18.3924   23.5555 C   0  0  0  0  0  0  0  0  0  0  0  0
   10.8894  -19.4139   23.8125 C   0  0  0  0  0  0  0  0  0  0  0  0
   10.9145  -20.0334   24.8899 O   0  0  0  0  0  0  0  0  0  0  0  0
    9.0189  -15.0290   25.0589 C   0  0  0  0  0  0  0  0  0  0  0  0
   10.0905  -14.3410   25.0802 O   0  0  0  0  0  0  0  0  0  0  0  0
   11.8496  -19.6722   22.8452 O   0  0  0  0  0  0  0  0  0  0  0  0
    6.7231  -12.9374   27.1141 C   0  0  0  0  0  0  0  0  0  0  0  0
    8.1210  -13.4857   26.8345 C   0  0  2  0  0  0  0  0  0  0  0  0
    7.9590  -14.5620   25.8794 N   0  0  0  0  0  0  0  0  0  0  0  0
    8.7743  -13.9582   28.0823 C   0  0  0  0  0  0  0  0  0  0  0  0
    9.3061  -13.0619   29.0008 O   0  0  0  0  0  0  0  0  0  0  0  0
    8.8370  -15.1962   28.2924 O   0  0  0  0  0  0  0  0  0  0  0  0
  2  3  1  0
  2  1  1  0
  3  4  1  1
  5  7  1  0
  5  3  1  0
  5  6  1  6
  7  8  2  0
  9 10  1  0
  9  7  1  0
 10 11  1  6
 12 11  1  0
 12 13  1  0
 13 17  1  0
 14 13  2  0
 15 20  1  0
 15 10  1  0
 16 15  2  0
 19 18  1  1
 19 21  1  0
 19 20  1  0
 21 22  1  0
 23 21  2  0
M  END
$$$$
