IEA.pdb
     RDKit          3D

 23 22  0  0  1  0  0  0  0  0999 V2000
    6.7592  -12.0097   19.4993 C   0  0  0  0  0  0  0  0  0  0  0  0
    7.4192  -12.8622   18.4366 C   0  0  0  0  0  0  0  0  0  0  0  0
    8.5126  -13.6768   19.0797 C   0  0  2  0  0  0  0  0  0  0  0  0
    9.5224  -12.7199   19.6730 C   0  0  0  0  0  0  0  0  0  0  0  0
    9.1669  -14.6247   18.0983 C   0  0  2  0  0  0  0  0  0  0  0  0
    8.2261  -15.5057   17.4724 N   0  0  0  0  0  0  0  0  0  0  0  0
   10.2105  -15.4622   18.7931 C   0  0  0  0  0  0  0  0  0  0  0  0
    9.8017  -16.4343   19.4526 O   0  0  0  0  0  0  0  0  0  0  0  0
   11.5785  -15.1632   18.7032 N   0  0  0  0  0  0  0  0  0  0  0  0
   12.6922  -15.8208   19.3200 C   0  0  1  0  0  0  0  0  0  0  0  0
   14.0136  -15.5008   18.6265 C   0  0  0  0  0  0  0  0  0  0  0  0
   15.1101  -16.2848   19.2625 C   0  0  0  0  0  0  0  0  0  0  0  0
   16.3976  -16.0598   18.5381 C   0  0  0  0  0  0  0  0  0  0  0  0
   16.5755  -16.5498   17.4097 O   0  0  0  0  0  0  0  0  0  0  0  0
   12.7151  -15.6745   20.7617 C   0  0  0  0  0  0  0  0  0  0  0  0
   13.1878  -14.6320   21.3203 O   0  0  0  0  0  0  0  0  0  0  0  0
   17.3985  -15.3011   19.1270 O   0  0  0  0  0  0  0  0  0  0  0  0
   10.8499  -17.1842   23.5217 C   0  0  0  0  0  0  0  0  0  0  0  0
   12.1420  -16.5077   23.0678 C   0  0  2  0  0  0  0  0  0  0  0  0
   12.2151  -16.6784   21.6317 N   0  0  0  0  0  0  0  0  0  0  0  0
   13.3255  -17.0952   23.7472 C   0  0  0  0  0  0  0  0  0  0  0  0
   14.2483  -17.8644   23.0498 O   0  0  0  0  0  0  0  0  0  0  0  0
   13.4765  -16.8804   24.9768 O   0  0  0  0  0  0  0  0  0  0  0  0
  2  3  1  0
  2  1  1  0
  3  4  1  6
  5  7  1  0
  5  3  1  0
  5  6  1  1
  7  8  2  0
  9 10  1  0
  9  7  1  0
 10 11  1  6
 12 11  1  0
 12 13  1  0
 13 17  1  0
 14 13  2  0
 15 20  1  0
 15 10  1  0
 16 15  2  0
 19 18  1  1
 19 21  1  0
 19 20  1  0
 21 22  1  0
 23 21  2  0
M  END
$$$$
