IEA.pdb
     RDKit          3D

 23 22  0  0  1  0  0  0  0  0999 V2000
    7.3825  -11.8760   19.4902 C   0  0  0  0  0  0  0  0  0  0  0  0
    7.4123  -13.3369   19.0945 C   0  0  0  0  0  0  0  0  0  0  0  0
    8.1482  -14.1114   20.1581 C   0  0  2  0  0  0  0  0  0  0  0  0
    9.5384  -13.5292   20.2842 C   0  0  0  0  0  0  0  0  0  0  0  0
    8.2003  -15.5919   19.8491 C   0  0  2  0  0  0  0  0  0  0  0  0
    6.9015  -16.1543   19.6263 N   0  0  0  0  0  0  0  0  0  0  0  0
    8.8536  -16.3422   20.9820 C   0  0  0  0  0  0  0  0  0  0  0  0
    8.1096  -16.7322   21.8993 O   0  0  0  0  0  0  0  0  0  0  0  0
   10.2344  -16.5910   21.0050 N   0  0  0  0  0  0  0  0  0  0  0  0
   11.0095  -17.3107   21.9718 C   0  0  1  0  0  0  0  0  0  0  0  0
   12.3945  -17.6805   21.4481 C   0  0  0  0  0  0  0  0  0  0  0  0
   12.2542  -18.5180   20.2232 C   0  0  0  0  0  0  0  0  0  0  0  0
   13.5899  -18.7434   19.5920 C   0  0  0  0  0  0  0  0  0  0  0  0
   14.0611  -19.8912   19.5157 O   0  0  0  0  0  0  0  0  0  0  0  0
   11.0038  -16.6930   23.2829 C   0  0  0  0  0  0  0  0  0  0  0  0
   11.8491  -15.7955   23.6025 O   0  0  0  0  0  0  0  0  0  0  0  0
   14.3071  -17.6678   19.0892 O   0  0  0  0  0  0  0  0  0  0  0  0
    8.6799  -15.9828   25.9089 C   0  0  0  0  0  0  0  0  0  0  0  0
   10.0891  -16.4966   25.6207 C   0  0  2  0  0  0  0  0  0  0  0  0
   10.0615  -17.0495   24.2827 N   0  0  0  0  0  0  0  0  0  0  0  0
   10.5080  -17.5117   26.6213 C   0  0  0  0  0  0  0  0  0  0  0  0
   10.7927  -17.1551   27.9333 O   0  0  0  0  0  0  0  0  0  0  0  0
   10.6005  -18.7105   26.2538 O   0  0  0  0  0  0  0  0  0  0  0  0
  2  3  1  0
  2  1  1  0
  3  4  1  6
  5  7  1  0
  5  3  1  0
  5  6  1  1
  7  8  2  0
  9 10  1  0
  9  7  1  0
 10 11  1  6
 12 11  1  0
 12 13  1  0
 13 17  1  0
 14 13  2  0
 15 20  1  0
 15 10  1  0
 16 15  2  0
 19 18  1  1
 19 21  1  0
 19 20  1  0
 21 22  1  0
 23 21  2  0
M  END
$$$$
