IEA.pdb
     RDKit          3D

 23 22  0  0  1  0  0  0  0  0999 V2000
    7.2733  -11.8050   19.8972 C   0  0  0  0  0  0  0  0  0  0  0  0
    7.3609  -13.3131   19.7993 C   0  0  0  0  0  0  0  0  0  0  0  0
    7.6584  -13.8703   21.1682 C   0  0  2  0  0  0  0  0  0  0  0  0
    9.0010  -13.3332   21.6110 C   0  0  0  0  0  0  0  0  0  0  0  0
    7.6421  -15.3834   21.1813 C   0  0  2  0  0  0  0  0  0  0  0  0
    6.3617  -15.9238   20.8332 N   0  0  0  0  0  0  0  0  0  0  0  0
    8.0195  -15.9008   22.5463 C   0  0  0  0  0  0  0  0  0  0  0  0
    7.1288  -15.8953   23.4143 O   0  0  0  0  0  0  0  0  0  0  0  0
    9.3125  -16.3673   22.8287 N   0  0  0  0  0  0  0  0  0  0  0  0
    9.8676  -16.7985   24.0774 C   0  0  1  0  0  0  0  0  0  0  0  0
   10.9967  -17.8090   23.8939 C   0  0  0  0  0  0  0  0  0  0  0  0
   11.5157  -18.2206   25.2291 C   0  0  0  0  0  0  0  0  0  0  0  0
   12.5957  -19.2417   25.0746 C   0  0  0  0  0  0  0  0  0  0  0  0
   12.3642  -20.4396   25.3126 O   0  0  0  0  0  0  0  0  0  0  0  0
   10.1767  -15.7027   24.9740 C   0  0  0  0  0  0  0  0  0  0  0  0
   11.1954  -14.9595   24.7949 O   0  0  0  0  0  0  0  0  0  0  0  0
   13.8620  -18.8517   24.6639 O   0  0  0  0  0  0  0  0  0  0  0  0
    8.5008  -13.4523   27.1796 C   0  0  0  0  0  0  0  0  0  0  0  0
    9.7164  -14.3694   27.0599 C   0  0  2  0  0  0  0  0  0  0  0  0
    9.3673  -15.3944   26.0985 N   0  0  0  0  0  0  0  0  0  0  0  0
   10.0798  -14.9571   28.3752 C   0  0  0  0  0  0  0  0  0  0  0  0
   10.0449  -16.3299   28.5851 O   0  0  0  0  0  0  0  0  0  0  0  0
   10.4226  -14.1805   29.3026 O   0  0  0  0  0  0  0  0  0  0  0  0
  2  3  1  0
  2  1  1  0
  3  4  1  6
  5  7  1  0
  5  3  1  0
  5  6  1  1
  7  8  2  0
  9 10  1  0
  9  7  1  0
 10 11  1  6
 12 11  1  0
 12 13  1  0
 13 17  1  0
 14 13  2  0
 15 20  1  0
 15 10  1  0
 16 15  2  0
 19 18  1  1
 19 21  1  0
 19 20  1  0
 21 22  1  0
 23 21  2  0
M  END
$$$$
