IEA.pdb
     RDKit          3D

 23 22  0  0  1  0  0  0  0  0999 V2000
    6.3558  -11.2436   26.9634 C   0  0  0  0  0  0  0  0  0  0  0  0
    5.8427  -12.4521   26.2099 C   0  0  0  0  0  0  0  0  0  0  0  0
    6.9674  -13.4454   26.0650 C   0  0  2  0  0  0  0  0  0  0  0  0
    8.1043  -12.7631   25.3374 C   0  0  0  0  0  0  0  0  0  0  0  0
    6.5279  -14.6996   25.3412 C   0  0  2  0  0  0  0  0  0  0  0  0
    5.3719  -15.3023   25.9355 N   0  0  0  0  0  0  0  0  0  0  0  0
    7.6405  -15.7172   25.3310 C   0  0  0  0  0  0  0  0  0  0  0  0
    7.8315  -16.3500   26.3846 O   0  0  0  0  0  0  0  0  0  0  0  0
    8.4254  -15.9430   24.1900 N   0  0  0  0  0  0  0  0  0  0  0  0
    9.5567  -16.8069   24.0249 C   0  0  1  0  0  0  0  0  0  0  0  0
   10.1157  -16.7683   22.6052 C   0  0  0  0  0  0  0  0  0  0  0  0
   11.3046  -17.6627   22.5159 C   0  0  0  0  0  0  0  0  0  0  0  0
   11.8807  -17.6252   21.1376 C   0  0  0  0  0  0  0  0  0  0  0  0
   12.6567  -16.7119   20.8075 O   0  0  0  0  0  0  0  0  0  0  0  0
   10.5493  -16.6543   25.0699 C   0  0  0  0  0  0  0  0  0  0  0  0
   11.4672  -15.7744   24.9965 O   0  0  0  0  0  0  0  0  0  0  0  0
   11.5485  -18.6133   20.2224 O   0  0  0  0  0  0  0  0  0  0  0  0
   10.8996  -16.9714   28.5377 C   0  0  0  0  0  0  0  0  0  0  0  0
   11.5908  -17.3897   27.2413 C   0  0  2  0  0  0  0  0  0  0  0  0
   10.5575  -17.4717   26.2303 N   0  0  0  0  0  0  0  0  0  0  0  0
   12.2998  -18.6853   27.4022 C   0  0  0  0  0  0  0  0  0  0  0  0
   13.4016  -18.8042   28.2400 O   0  0  0  0  0  0  0  0  0  0  0  0
   11.8793  -19.6807   26.7594 O   0  0  0  0  0  0  0  0  0  0  0  0
  2  3  1  0
  2  1  1  0
  3  4  1  6
  5  7  1  0
  5  3  1  0
  5  6  1  1
  7  8  2  0
  9 10  1  0
  9  7  1  0
 10 11  1  6
 12 11  1  0
 12 13  1  0
 13 17  1  0
 14 13  2  0
 15 20  1  0
 15 10  1  0
 16 15  2  0
 19 18  1  1
 19 21  1  0
 19 20  1  0
 21 22  1  0
 23 21  2  0
M  END
$$$$
