IEA.pdb
     RDKit          3D

 23 22  0  0  1  0  0  0  0  0999 V2000
    7.1957  -12.1313   19.4418 C   0  0  0  0  0  0  0  0  0  0  0  0
    7.8598  -13.4905   19.3878 C   0  0  0  0  0  0  0  0  0  0  0  0
    7.8920  -14.0690   20.7797 C   0  0  2  0  0  0  0  0  0  0  0  0
    8.7098  -13.1435   21.6528 C   0  0  0  0  0  0  0  0  0  0  0  0
    8.4508  -15.4751   20.7976 C   0  0  2  0  0  0  0  0  0  0  0  0
    7.6857  -16.3824   19.9950 N   0  0  0  0  0  0  0  0  0  0  0  0
    8.4894  -16.0070   22.2080 C   0  0  0  0  0  0  0  0  0  0  0  0
    7.3947  -16.2515   22.7454 O   0  0  0  0  0  0  0  0  0  0  0  0
    9.6998  -16.2175   22.8859 N   0  0  0  0  0  0  0  0  0  0  0  0
    9.9210  -16.7041   24.2154 C   0  0  1  0  0  0  0  0  0  0  0  0
   10.8102  -17.9444   24.2404 C   0  0  0  0  0  0  0  0  0  0  0  0
   12.1456  -17.6088   23.6698 C   0  0  0  0  0  0  0  0  0  0  0  0
   12.8297  -18.8460   23.1858 C   0  0  0  0  0  0  0  0  0  0  0  0
   12.9183  -19.8424   23.9237 O   0  0  0  0  0  0  0  0  0  0  0  0
   10.3078  -15.6640   25.1475 C   0  0  0  0  0  0  0  0  0  0  0  0
   11.3281  -14.9294   24.9436 O   0  0  0  0  0  0  0  0  0  0  0  0
   13.3684  -18.8831   21.9080 O   0  0  0  0  0  0  0  0  0  0  0  0
    8.8729  -13.5101   27.6051 C   0  0  0  0  0  0  0  0  0  0  0  0
   10.0302  -14.4734   27.3489 C   0  0  2  0  0  0  0  0  0  0  0  0
    9.5768  -15.4035   26.3360 N   0  0  0  0  0  0  0  0  0  0  0  0
   10.4318  -15.1769   28.5943 C   0  0  0  0  0  0  0  0  0  0  0  0
   10.3124  -16.5559   28.7130 O   0  0  0  0  0  0  0  0  0  0  0  0
   10.8858  -14.4936   29.5470 O   0  0  0  0  0  0  0  0  0  0  0  0
  2  3  1  0
  2  1  1  0
  3  4  1  1
  5  7  1  0
  5  3  1  0
  5  6  1  6
  7  8  2  0
  9 10  1  0
  9  7  1  0
 10 11  1  6
 12 11  1  0
 12 13  1  0
 13 17  1  0
 14 13  2  0
 15 20  1  0
 15 10  1  0
 16 15  2  0
 19 18  1  1
 19 21  1  0
 19 20  1  0
 21 22  1  0
 23 21  2  0
M  END
$$$$
