IEA.pdb
     RDKit          3D

 23 22  0  0  1  0  0  0  0  0999 V2000
    5.7792  -10.8821   26.5286 C   0  0  0  0  0  0  0  0  0  0  0  0
    5.4341  -12.2109   25.8907 C   0  0  0  0  0  0  0  0  0  0  0  0
    6.6656  -13.0805   25.8876 C   0  0  2  0  0  0  0  0  0  0  0  0
    7.7383  -12.3709   25.0919 C   0  0  0  0  0  0  0  0  0  0  0  0
    6.3871  -14.4576   25.3255 C   0  0  2  0  0  0  0  0  0  0  0  0
    5.2412  -15.0756   25.9237 N   0  0  0  0  0  0  0  0  0  0  0  0
    7.5761  -15.3608   25.5353 C   0  0  0  0  0  0  0  0  0  0  0  0
    7.7319  -15.8267   26.6779 O   0  0  0  0  0  0  0  0  0  0  0  0
    8.4670  -15.6640   24.4944 N   0  0  0  0  0  0  0  0  0  0  0  0
    9.6777  -16.4295   24.5322 C   0  0  1  0  0  0  0  0  0  0  0  0
   10.3408  -16.5371   23.1617 C   0  0  0  0  0  0  0  0  0  0  0  0
   11.6068  -17.3143   23.2829 C   0  0  0  0  0  0  0  0  0  0  0  0
   12.2457  -17.4792   21.9422 C   0  0  0  0  0  0  0  0  0  0  0  0
   12.6865  -18.5869   21.5902 O   0  0  0  0  0  0  0  0  0  0  0  0
   10.5686  -16.0370   25.6058 C   0  0  0  0  0  0  0  0  0  0  0  0
   11.3902  -15.0728   25.4737 O   0  0  0  0  0  0  0  0  0  0  0  0
   12.3477  -16.3921   21.0866 O   0  0  0  0  0  0  0  0  0  0  0  0
   10.8118  -15.0624   28.5800 C   0  0  0  0  0  0  0  0  0  0  0  0
   11.4439  -16.3030   27.9518 C   0  0  2  0  0  0  0  0  0  0  0  0
   10.5785  -16.6999   26.8608 N   0  0  0  0  0  0  0  0  0  0  0  0
   11.5984  -17.3932   28.9492 C   0  0  0  0  0  0  0  0  0  0  0  0
   12.4320  -17.2486   30.0510 O   0  0  0  0  0  0  0  0  0  0  0  0
   10.9540  -18.4586   28.7748 O   0  0  0  0  0  0  0  0  0  0  0  0
  2  3  1  0
  2  1  1  0
  3  4  1  6
  5  7  1  0
  5  3  1  0
  5  6  1  1
  7  8  2  0
  9 10  1  0
  9  7  1  0
 10 11  1  6
 12 11  1  0
 12 13  1  0
 13 17  1  0
 14 13  2  0
 15 20  1  0
 15 10  1  0
 16 15  2  0
 19 18  1  1
 19 21  1  0
 19 20  1  0
 21 22  1  0
 23 21  2  0
M  END
$$$$
