IEA.pdb
     RDKit          3D

 23 22  0  0  1  0  0  0  0  0999 V2000
    7.2016  -11.5314   26.9200 C   0  0  0  0  0  0  0  0  0  0  0  0
    6.9309  -13.0098   26.7392 C   0  0  0  0  0  0  0  0  0  0  0  0
    6.6927  -13.2827   25.2758 C   0  0  2  0  0  0  0  0  0  0  0  0
    5.5017  -12.4619   24.8340 C   0  0  0  0  0  0  0  0  0  0  0  0
    6.4760  -14.7549   25.0005 C   0  0  2  0  0  0  0  0  0  0  0  0
    5.4285  -15.3167   25.8003 N   0  0  0  0  0  0  0  0  0  0  0  0
    7.7417  -15.5304   25.2646 C   0  0  0  0  0  0  0  0  0  0  0  0
    7.8752  -16.0157   26.4020 O   0  0  0  0  0  0  0  0  0  0  0  0
    8.7249  -15.6993   24.2778 N   0  0  0  0  0  0  0  0  0  0  0  0
   10.0053  -16.3355   24.3738 C   0  0  1  0  0  0  0  0  0  0  0  0
   10.7713  -16.3033   23.0541 C   0  0  0  0  0  0  0  0  0  0  0  0
   12.0000  -17.1384   23.1733 C   0  0  0  0  0  0  0  0  0  0  0  0
   12.7482  -17.1497   21.8798 C   0  0  0  0  0  0  0  0  0  0  0  0
   12.2953  -16.5514   20.8888 O   0  0  0  0  0  0  0  0  0  0  0  0
   10.7707  -15.9077   25.5278 C   0  0  0  0  0  0  0  0  0  0  0  0
   11.9041  -15.3400   25.4049 O   0  0  0  0  0  0  0  0  0  0  0  0
   13.9530  -17.8305   21.7842 O   0  0  0  0  0  0  0  0  0  0  0  0
   10.3726  -14.4988   28.6274 C   0  0  0  0  0  0  0  0  0  0  0  0
   11.0763  -15.7106   28.0194 C   0  0  2  0  0  0  0  0  0  0  0  0
   10.3053  -16.0950   26.8556 N   0  0  0  0  0  0  0  0  0  0  0  0
   11.1763  -16.8233   28.9987 C   0  0  0  0  0  0  0  0  0  0  0  0
   10.5881  -18.0569   28.7497 O   0  0  0  0  0  0  0  0  0  0  0  0
   11.8094  -16.6247   30.0667 O   0  0  0  0  0  0  0  0  0  0  0  0
  2  3  1  0
  2  1  1  0
  3  4  1  1
  5  7  1  0
  5  3  1  0
  5  6  1  1
  7  8  2  0
  9 10  1  0
  9  7  1  0
 10 11  1  6
 12 11  1  0
 12 13  1  0
 13 17  1  0
 14 13  2  0
 15 20  1  0
 15 10  1  0
 16 15  2  0
 19 18  1  1
 19 21  1  0
 19 20  1  0
 21 22  1  0
 23 21  2  0
M  END
$$$$
