IEA.pdb
     RDKit          3D

 23 22  0  0  1  0  0  0  0  0999 V2000
    7.3694  -11.8552   19.3865 C   0  0  0  0  0  0  0  0  0  0  0  0
    7.5621  -13.2429   18.8130 C   0  0  0  0  0  0  0  0  0  0  0  0
    8.2260  -14.1086   19.8535 C   0  0  2  0  0  0  0  0  0  0  0  0
    9.5478  -13.4711   20.2194 C   0  0  0  0  0  0  0  0  0  0  0  0
    8.4181  -15.5300   19.3713 C   0  0  2  0  0  0  0  0  0  0  0  0
    7.1857  -16.1543   18.9913 N   0  0  0  0  0  0  0  0  0  0  0  0
    9.0612  -16.3673   20.4477 C   0  0  0  0  0  0  0  0  0  0  0  0
    8.3016  -16.8792   21.2892 O   0  0  0  0  0  0  0  0  0  0  0  0
   10.4497  -16.5626   20.5018 N   0  0  0  0  0  0  0  0  0  0  0  0
   11.2195  -17.3453   21.4228 C   0  0  1  0  0  0  0  0  0  0  0  0
   12.5859  -17.7278   20.8606 C   0  0  0  0  0  0  0  0  0  0  0  0
   12.4039  -18.5809   19.6521 C   0  0  0  0  0  0  0  0  0  0  0  0
   12.6144  -20.0199   19.9953 C   0  0  0  0  0  0  0  0  0  0  0  0
   13.6414  -20.3765   20.5981 O   0  0  0  0  0  0  0  0  0  0  0  0
   11.2504  -16.7874   22.7600 C   0  0  0  0  0  0  0  0  0  0  0  0
   12.1121  -15.9132   23.0997 O   0  0  0  0  0  0  0  0  0  0  0  0
   11.6603  -20.9620   19.6400 O   0  0  0  0  0  0  0  0  0  0  0  0
    8.9104  -16.6483   25.6086 C   0  0  0  0  0  0  0  0  0  0  0  0
   10.3536  -16.6410   25.1084 C   0  0  2  0  0  0  0  0  0  0  0  0
   10.3277  -17.1799   23.7647 N   0  0  0  0  0  0  0  0  0  0  0  0
   11.2366  -17.4382   25.9983 C   0  0  0  0  0  0  0  0  0  0  0  0
   11.6506  -16.9471   27.2301 O   0  0  0  0  0  0  0  0  0  0  0  0
   11.6051  -18.5762   25.6111 O   0  0  0  0  0  0  0  0  0  0  0  0
  2  3  1  0
  2  1  1  0
  3  4  1  6
  5  7  1  0
  5  3  1  0
  5  6  1  1
  7  8  2  0
  9 10  1  0
  9  7  1  0
 10 11  1  6
 12 11  1  0
 12 13  1  0
 13 17  1  0
 14 13  2  0
 15 20  1  0
 15 10  1  0
 16 15  2  0
 19 18  1  1
 19 21  1  0
 19 20  1  0
 21 22  1  0
 23 21  2  0
M  END
$$$$
