IEA.pdb
     RDKit          3D

 23 22  0  0  1  0  0  0  0  0999 V2000
    5.6651  -11.2479   26.5016 C   0  0  0  0  0  0  0  0  0  0  0  0
    5.3895  -12.5693   25.8163 C   0  0  0  0  0  0  0  0  0  0  0  0
    6.6571  -13.3855   25.8114 C   0  0  2  0  0  0  0  0  0  0  0  0
    7.7101  -12.6108   25.0510 C   0  0  0  0  0  0  0  0  0  0  0  0
    6.4463  -14.7583   25.2108 C   0  0  2  0  0  0  0  0  0  0  0  0
    5.3142  -15.4362   25.7690 N   0  0  0  0  0  0  0  0  0  0  0  0
    7.6663  -15.6181   25.4247 C   0  0  0  0  0  0  0  0  0  0  0  0
    7.7752  -16.1713   26.5333 O   0  0  0  0  0  0  0  0  0  0  0  0
    8.6352  -15.7888   24.4241 N   0  0  0  0  0  0  0  0  0  0  0  0
    9.8796  -16.4971   24.4793 C   0  0  1  0  0  0  0  0  0  0  0  0
   10.5820  -16.5451   23.1250 C   0  0  0  0  0  0  0  0  0  0  0  0
   11.8681  -17.2865   23.2594 C   0  0  0  0  0  0  0  0  0  0  0  0
   12.5742  -17.3447   21.9438 C   0  0  0  0  0  0  0  0  0  0  0  0
   12.2332  -18.1772   21.0859 O   0  0  0  0  0  0  0  0  0  0  0  0
   10.7230  -16.0851   25.5835 C   0  0  0  0  0  0  0  0  0  0  0  0
   11.4567  -15.0465   25.5128 O   0  0  0  0  0  0  0  0  0  0  0  0
   13.6146  -16.4664   21.6782 O   0  0  0  0  0  0  0  0  0  0  0  0
   10.7456  -15.0392   28.4000 C   0  0  0  0  0  0  0  0  0  0  0  0
   11.4679  -16.3171   27.9777 C   0  0  2  0  0  0  0  0  0  0  0  0
   10.7811  -16.8104   26.8023 N   0  0  0  0  0  0  0  0  0  0  0  0
   11.4678  -17.3229   29.0711 C   0  0  0  0  0  0  0  0  0  0  0  0
   12.1907  -17.1168   30.2393 O   0  0  0  0  0  0  0  0  0  0  0  0
   10.7947  -18.3735   28.9168 O   0  0  0  0  0  0  0  0  0  0  0  0
  2  3  1  0
  2  1  1  0
  3  4  1  6
  5  7  1  0
  5  3  1  0
  5  6  1  1
  7  8  2  0
  9 10  1  0
  9  7  1  0
 10 11  1  6
 12 11  1  0
 12 13  1  0
 13 17  1  0
 14 13  2  0
 15 20  1  0
 15 10  1  0
 16 15  2  0
 19 18  1  1
 19 21  1  0
 19 20  1  0
 21 22  1  0
 23 21  2  0
M  END
$$$$
