IEA.pdb
     RDKit          3D

 23 22  0  0  1  0  0  0  0  0999 V2000
    5.6636  -11.3189   26.0306 C   0  0  0  0  0  0  0  0  0  0  0  0
    5.4318  -12.6792   25.4082 C   0  0  0  0  0  0  0  0  0  0  0  0
    6.6843  -13.5034   25.5661 C   0  0  2  0  0  0  0  0  0  0  0  0
    7.8160  -12.7721   24.8793 C   0  0  0  0  0  0  0  0  0  0  0  0
    6.5182  -14.9012   25.0107 C   0  0  2  0  0  0  0  0  0  0  0  0
    5.3252  -15.5419   25.4786 N   0  0  0  0  0  0  0  0  0  0  0  0
    7.6976  -15.7606   25.3901 C   0  0  0  0  0  0  0  0  0  0  0  0
    7.6471  -16.3253   26.4972 O   0  0  0  0  0  0  0  0  0  0  0  0
    8.8016  -15.9187   24.5385 N   0  0  0  0  0  0  0  0  0  0  0  0
    9.9746  -16.7224   24.7154 C   0  0  1  0  0  0  0  0  0  0  0  0
   10.6978  -16.9937   23.3990 C   0  0  0  0  0  0  0  0  0  0  0  0
   11.0593  -15.6986   22.7557 C   0  0  0  0  0  0  0  0  0  0  0  0
   11.7395  -15.9403   21.4473 C   0  0  0  0  0  0  0  0  0  0  0  0
   12.9666  -15.7736   21.3389 O   0  0  0  0  0  0  0  0  0  0  0  0
   10.8289  -16.2576   25.7899 C   0  0  0  0  0  0  0  0  0  0  0  0
   12.0902  -16.4330   25.7645 O   0  0  0  0  0  0  0  0  0  0  0  0
   10.9991  -16.3524   20.3491 O   0  0  0  0  0  0  0  0  0  0  0  0
   10.6124  -14.0487   28.7297 C   0  0  0  0  0  0  0  0  0  0  0  0
   11.0886  -15.3715   28.1325 C   0  0  2  0  0  0  0  0  0  0  0  0
   10.3138  -15.5833   26.9277 N   0  0  0  0  0  0  0  0  0  0  0  0
   10.9166  -16.4903   29.0948 C   0  0  0  0  0  0  0  0  0  0  0  0
   10.0361  -17.5333   28.8367 O   0  0  0  0  0  0  0  0  0  0  0  0
   11.5896  -16.4743   30.1566 O   0  0  0  0  0  0  0  0  0  0  0  0
  2  3  1  0
  2  1  1  0
  3  4  1  6
  5  7  1  0
  5  3  1  0
  5  6  1  1
  7  8  2  0
  9 10  1  0
  9  7  1  0
 10 11  1  6
 12 11  1  0
 12 13  1  0
 13 17  1  0
 14 13  2  0
 15 20  1  0
 15 10  1  0
 16 15  2  0
 19 18  1  1
 19 21  1  0
 19 20  1  0
 21 22  1  0
 23 21  2  0
M  END
$$$$
