IEA.pdb
     RDKit          3D

 23 22  0  0  1  0  0  0  0  0999 V2000
    7.3533  -11.9531   19.3562 C   0  0  0  0  0  0  0  0  0  0  0  0
    7.8038  -13.3946   19.2522 C   0  0  0  0  0  0  0  0  0  0  0  0
    7.8924  -13.9752   20.6406 C   0  0  2  0  0  0  0  0  0  0  0  0
    8.8709  -13.1402   21.4361 C   0  0  0  0  0  0  0  0  0  0  0  0
    8.3033  -15.4315   20.6222 C   0  0  2  0  0  0  0  0  0  0  0  0
    7.3858  -16.2536   19.8906 N   0  0  0  0  0  0  0  0  0  0  0  0
    8.4022  -15.9671   22.0281 C   0  0  0  0  0  0  0  0  0  0  0  0
    7.3315  -16.1765   22.6253 O   0  0  0  0  0  0  0  0  0  0  0  0
    9.6407  -16.2189   22.6379 N   0  0  0  0  0  0  0  0  0  0  0  0
    9.9194  -16.6942   23.9607 C   0  0  1  0  0  0  0  0  0  0  0  0
   10.9369  -17.8318   23.9676 C   0  0  0  0  0  0  0  0  0  0  0  0
   11.1608  -18.2884   25.3686 C   0  0  0  0  0  0  0  0  0  0  0  0
   12.1539  -19.4045   25.3990 C   0  0  0  0  0  0  0  0  0  0  0  0
   12.0596  -20.3492   24.5966 O   0  0  0  0  0  0  0  0  0  0  0  0
   10.1968  -15.6293   24.9038 C   0  0  0  0  0  0  0  0  0  0  0  0
   11.2705  -14.9468   24.8444 O   0  0  0  0  0  0  0  0  0  0  0  0
   13.1855  -19.3868   26.3263 O   0  0  0  0  0  0  0  0  0  0  0  0
    8.2634  -13.4985   27.1418 C   0  0  0  0  0  0  0  0  0  0  0  0
    9.5736  -14.2506   26.9166 C   0  0  2  0  0  0  0  0  0  0  0  0
    9.2936  -15.2856   25.9435 N   0  0  0  0  0  0  0  0  0  0  0  0
   10.0921  -14.8222   28.1862 C   0  0  0  0  0  0  0  0  0  0  0  0
   10.6467  -14.0108   29.1679 O   0  0  0  0  0  0  0  0  0  0  0  0
   10.0184  -16.0658   28.3559 O   0  0  0  0  0  0  0  0  0  0  0  0
  2  3  1  0
  2  1  1  0
  3  4  1  1
  5  7  1  0
  5  3  1  0
  5  6  1  6
  7  8  2  0
  9 10  1  0
  9  7  1  0
 10 11  1  6
 12 11  1  0
 12 13  1  0
 13 17  1  0
 14 13  2  0
 15 20  1  0
 15 10  1  0
 16 15  2  0
 19 18  1  1
 19 21  1  0
 19 20  1  0
 21 22  1  0
 23 21  2  0
M  END
$$$$
