IEA.pdb
     RDKit          3D

 23 22  0  0  1  0  0  0  0  0999 V2000
    7.3405  -12.1006   19.6373 C   0  0  0  0  0  0  0  0  0  0  0  0
    7.3914  -13.6134   19.6559 C   0  0  0  0  0  0  0  0  0  0  0  0
    7.6354  -14.0720   21.0712 C   0  0  2  0  0  0  0  0  0  0  0  0
    8.9177  -13.4332   21.5561 C   0  0  0  0  0  0  0  0  0  0  0  0
    7.7006  -15.5802   21.1764 C   0  0  2  0  0  0  0  0  0  0  0  0
    6.4878  -16.2150   20.7536 N   0  0  0  0  0  0  0  0  0  0  0  0
    7.9823  -15.9957   22.5982 C   0  0  0  0  0  0  0  0  0  0  0  0
    7.0451  -15.8914   23.4092 O   0  0  0  0  0  0  0  0  0  0  0  0
    9.2399  -16.4776   22.9922 N   0  0  0  0  0  0  0  0  0  0  0  0
    9.6903  -16.8772   24.2925 C   0  0  1  0  0  0  0  0  0  0  0  0
   10.6932  -18.0262   24.2329 C   0  0  0  0  0  0  0  0  0  0  0  0
   11.1163  -18.3874   25.6156 C   0  0  0  0  0  0  0  0  0  0  0  0
   12.0652  -19.5414   25.5840 C   0  0  0  0  0  0  0  0  0  0  0  0
   12.5358  -19.9948   26.6414 O   0  0  0  0  0  0  0  0  0  0  0  0
   10.0972  -15.7621   25.1240 C   0  0  0  0  0  0  0  0  0  0  0  0
   11.1384  -15.0774   24.8611 O   0  0  0  0  0  0  0  0  0  0  0  0
   12.4228  -20.1092   24.3699 O   0  0  0  0  0  0  0  0  0  0  0  0
    8.6882  -13.3536   27.3571 C   0  0  0  0  0  0  0  0  0  0  0  0
    9.8312  -14.3538   27.1943 C   0  0  2  0  0  0  0  0  0  0  0  0
    9.3637  -15.3690   26.2738 N   0  0  0  0  0  0  0  0  0  0  0  0
   10.2230  -14.9419   28.5012 C   0  0  0  0  0  0  0  0  0  0  0  0
   10.1015  -16.3044   28.7432 O   0  0  0  0  0  0  0  0  0  0  0  0
   10.6707  -14.1753   29.3915 O   0  0  0  0  0  0  0  0  0  0  0  0
  2  3  1  0
  2  1  1  0
  3  4  1  6
  5  7  1  0
  5  3  1  0
  5  6  1  1
  7  8  2  0
  9 10  1  0
  9  7  1  0
 10 11  1  6
 12 11  1  0
 12 13  1  0
 13 17  1  0
 14 13  2  0
 15 20  1  0
 15 10  1  0
 16 15  2  0
 19 18  1  1
 19 21  1  0
 19 20  1  0
 21 22  1  0
 23 21  2  0
M  END
$$$$
