HNH.pdb
     RDKit          3D

 29 30  0  0  1  0  0  0  0  0999 V2000
    9.9751  -17.0205   18.1672 N   0  0  0  0  0  0  0  0  0  0  0  0
    9.6993  -16.2089   19.3318 C   0  0  1  0  0  0  0  0  0  0  0  0
    8.2454  -15.8122   19.4118 C   0  0  0  0  0  0  0  0  0  0  0  0
    7.8509  -14.9510   18.2719 C   0  0  0  0  0  0  0  0  0  0  0  0
    6.8398  -15.2794   17.3941 C   0  0  0  0  0  0  0  0  0  0  0  0
    6.7337  -14.2793   16.4768 N   0  0  0  0  0  0  0  0  0  0  0  0
    7.6581  -13.3462   16.7742 C   0  0  0  0  0  0  0  0  0  0  0  0
    8.3238  -13.7644   17.8582 N   0  0  0  0  0  0  0  0  0  0  0  0
   10.0614  -16.9388   20.5567 C   0  0  0  0  0  0  0  0  0  0  0  0
    9.5426  -18.0455   20.8009 O   0  0  0  0  0  0  0  0  0  0  0  0
   14.6649  -17.2466   21.3995 N   0  0  0  0  0  0  0  0  0  0  0  0
   13.6301  -17.7903   22.1855 C   0  0  0  0  0  0  0  0  0  0  0  0
   13.4443  -19.0234   22.1954 O   0  0  0  0  0  0  0  0  0  0  0  0
   12.7742  -16.9086   22.9891 C   0  0  0  0  0  0  0  0  0  0  0  0
   11.3165  -17.0678   22.6856 C   0  0  2  0  0  0  0  0  0  0  0  0
   10.9998  -16.3749   21.4479 N   0  0  0  0  0  0  0  0  0  0  0  0
   10.5117  -16.5169   23.7880 C   0  0  0  0  0  0  0  0  0  0  0  0
    9.8829  -15.4477   23.6108 O   0  0  0  0  0  0  0  0  0  0  0  0
   10.4551  -17.1959   25.0308 N   0  0  0  0  0  0  0  0  0  0  0  0
    9.4072  -16.8966   25.9772 C   0  0  1  0  0  0  0  0  0  0  0  0
    8.0355  -16.9011   25.3758 C   0  0  0  0  0  0  0  0  0  0  0  0
    7.7750  -15.6744   24.5613 C   0  0  0  0  0  0  0  0  0  0  0  0
    7.5984  -14.4180   25.0997 C   0  0  0  0  0  0  0  0  0  0  0  0
    7.3864  -13.5478   24.1025 N   0  0  0  0  0  0  0  0  0  0  0  0
    7.4299  -14.2444   22.9716 C   0  0  0  0  0  0  0  0  0  0  0  0
    7.6652  -15.5371   23.2372 N   0  0  0  0  0  0  0  0  0  0  0  0
    9.4628  -17.7918   27.1484 C   0  0  0  0  0  0  0  0  0  0  0  0
    8.7073  -17.6401   28.1164 O   0  0  0  0  0  0  0  0  0  0  0  0
   10.3752  -18.8283   27.1785 O   0  0  0  0  0  0  0  0  0  0  0  0
  2  1  1  6
  3  2  1  0
  3  4  1  0
  4  8  1  0
  5  4  2  0
  5  6  1  0
  6  7  1  0
  8  7  2  0
  9  2  1  0
  9 10  2  0
 12 14  1  0
 12 11  1  0
 13 12  2  0
 15 14  1  1
 15 17  1  0
 15 16  1  0
 16  9  1  0
 17 19  1  0
 18 17  2  0
 19 20  1  0
 20 27  1  0
 20 21  1  6
 22 21  1  0
 23 22  2  0
 24 25  1  0
 24 23  1  0
 25 26  2  0
 26 22  1  0
 27 28  2  0
 27 29  1  0
M  END
$$$$
