HNH.pdb
     RDKit          3D

 29 30  0  0  1  0  0  0  0  0999 V2000
    9.6391  -16.8719   15.6869 N   0  0  0  0  0  0  0  0  0  0  0  0
   10.0778  -16.2719   16.9273 C   0  0  1  0  0  0  0  0  0  0  0  0
    8.9165  -15.9034   17.8178 C   0  0  0  0  0  0  0  0  0  0  0  0
    8.2058  -14.7021   17.3192 C   0  0  0  0  0  0  0  0  0  0  0  0
    8.5457  -14.0569   16.1492 C   0  0  0  0  0  0  0  0  0  0  0  0
    7.6982  -13.0047   15.9840 N   0  0  0  0  0  0  0  0  0  0  0  0
    6.8471  -12.9920   17.0276 C   0  0  0  0  0  0  0  0  0  0  0  0
    7.1648  -14.0205   17.8240 N   0  0  0  0  0  0  0  0  0  0  0  0
   10.9604  -17.1970   17.6547 C   0  0  0  0  0  0  0  0  0  0  0  0
   10.9220  -18.4188   17.4107 O   0  0  0  0  0  0  0  0  0  0  0  0
   13.7752  -19.1931   16.1509 N   0  0  0  0  0  0  0  0  0  0  0  0
   13.5962  -19.1687   17.5479 C   0  0  0  0  0  0  0  0  0  0  0  0
   13.1954  -20.1919   18.1375 O   0  0  0  0  0  0  0  0  0  0  0  0
   13.8801  -17.9437   18.3059 C   0  0  0  0  0  0  0  0  0  0  0  0
   12.7934  -17.5844   19.2715 C   0  0  2  0  0  0  0  0  0  0  0  0
   11.8482  -16.6880   18.6270 N   0  0  0  0  0  0  0  0  0  0  0  0
   13.3720  -16.9334   20.4581 C   0  0  0  0  0  0  0  0  0  0  0  0
   14.1865  -15.9939   20.3035 O   0  0  0  0  0  0  0  0  0  0  0  0
   13.0051  -17.3714   21.7551 N   0  0  0  0  0  0  0  0  0  0  0  0
   13.4782  -16.6668   22.9226 C   0  0  1  0  0  0  0  0  0  0  0  0
   12.6555  -16.9161   24.1491 C   0  0  0  0  0  0  0  0  0  0  0  0
   11.2510  -16.4275   23.9926 C   0  0  0  0  0  0  0  0  0  0  0  0
   10.2976  -17.0627   23.2263 C   0  0  0  0  0  0  0  0  0  0  0  0
    9.1529  -16.3694   23.3006 N   0  0  0  0  0  0  0  0  0  0  0  0
    9.3873  -15.3287   24.0932 C   0  0  0  0  0  0  0  0  0  0  0  0
   10.6579  -15.3529   24.5196 N   0  0  0  0  0  0  0  0  0  0  0  0
   14.9017  -16.9499   23.1866 C   0  0  0  0  0  0  0  0  0  0  0  0
   15.4015  -18.0522   22.9300 O   0  0  0  0  0  0  0  0  0  0  0  0
   15.7074  -15.9702   23.7330 O   0  0  0  0  0  0  0  0  0  0  0  0
  2  1  1  6
  3  2  1  0
  3  4  1  0
  4  8  1  0
  5  4  2  0
  5  6  1  0
  6  7  1  0
  8  7  2  0
  9  2  1  0
  9 10  2  0
 12 14  1  0
 12 11  1  0
 13 12  2  0
 15 14  1  6
 15 17  1  0
 15 16  1  0
 16  9  1  0
 17 19  1  0
 18 17  2  0
 19 20  1  0
 20 27  1  0
 20 21  1  1
 22 21  1  0
 23 22  2  0
 24 25  1  0
 24 23  1  0
 25 26  2  0
 26 22  1  0
 27 28  2  0
 27 29  1  0
M  END
$$$$
