HNH.pdb
     RDKit          3D

 29 30  0  0  1  0  0  0  0  0999 V2000
    9.6057  -12.7781   18.8085 N   0  0  0  0  0  0  0  0  0  0  0  0
    9.7546  -14.1864   19.1008 C   0  0  1  0  0  0  0  0  0  0  0  0
   10.1011  -14.9851   17.8681 C   0  0  0  0  0  0  0  0  0  0  0  0
    9.0721  -14.8336   16.8122 C   0  0  0  0  0  0  0  0  0  0  0  0
    7.7259  -15.0265   17.0388 C   0  0  0  0  0  0  0  0  0  0  0  0
    7.0637  -14.8050   15.8704 N   0  0  0  0  0  0  0  0  0  0  0  0
    7.9755  -14.4808   14.9338 C   0  0  0  0  0  0  0  0  0  0  0  0
    9.1813  -14.5021   15.5157 N   0  0  0  0  0  0  0  0  0  0  0  0
   10.8066  -14.3873   20.1093 C   0  0  0  0  0  0  0  0  0  0  0  0
   11.7571  -13.5849   20.1888 O   0  0  0  0  0  0  0  0  0  0  0  0
   12.5928  -18.1768   24.5185 N   0  0  0  0  0  0  0  0  0  0  0  0
   12.2256  -16.8798   24.1095 C   0  0  0  0  0  0  0  0  0  0  0  0
   12.7000  -15.8885   24.6990 O   0  0  0  0  0  0  0  0  0  0  0  0
   11.2882  -16.6966   22.9944 C   0  0  0  0  0  0  0  0  0  0  0  0
   11.7485  -15.6749   22.0010 C   0  0  2  0  0  0  0  0  0  0  0  0
   10.7274  -15.4933   20.9829 N   0  0  0  0  0  0  0  0  0  0  0  0
   13.0065  -16.1144   21.3759 C   0  0  0  0  0  0  0  0  0  0  0  0
   12.9862  -16.5465   20.2000 O   0  0  0  0  0  0  0  0  0  0  0  0
   14.2205  -16.0450   22.1040 N   0  0  0  0  0  0  0  0  0  0  0  0
   15.4534  -15.7073   21.4338 C   0  0  1  0  0  0  0  0  0  0  0  0
   15.4118  -14.3863   20.7292 C   0  0  0  0  0  0  0  0  0  0  0  0
   15.1173  -14.5363   19.2708 C   0  0  0  0  0  0  0  0  0  0  0  0
   14.8458  -15.7427   18.6621 C   0  0  0  0  0  0  0  0  0  0  0  0
   14.6273  -15.5274   17.3573 N   0  0  0  0  0  0  0  0  0  0  0  0
   14.7595  -14.2201   17.1583 C   0  0  0  0  0  0  0  0  0  0  0  0
   15.0570  -13.6075   18.3128 N   0  0  0  0  0  0  0  0  0  0  0  0
   16.6048  -15.7681   22.3540 C   0  0  0  0  0  0  0  0  0  0  0  0
   17.7554  -15.5257   21.9692 O   0  0  0  0  0  0  0  0  0  0  0  0
   16.4081  -16.1024   23.6797 O   0  0  0  0  0  0  0  0  0  0  0  0
  2  1  1  6
  3  2  1  0
  3  4  1  0
  4  8  1  0
  5  4  2  0
  5  6  1  0
  6  7  1  0
  8  7  2  0
  9  2  1  0
  9 10  2  0
 12 14  1  0
 12 11  1  0
 13 12  2  0
 15 14  1  1
 15 17  1  0
 15 16  1  0
 16  9  1  0
 17 19  1  0
 18 17  2  0
 19 20  1  0
 20 27  1  0
 20 21  1  1
 22 21  1  0
 23 22  2  0
 24 25  1  0
 24 23  1  0
 25 26  2  0
 26 22  1  0
 27 28  2  0
 27 29  1  0
M  END
$$$$
