HNH.pdb
     RDKit          3D

 29 30  0  0  1  0  0  0  0  0999 V2000
    9.5728  -17.4856   17.3785 N   0  0  0  0  0  0  0  0  0  0  0  0
    9.9758  -16.4048   18.2506 C   0  0  1  0  0  0  0  0  0  0  0  0
    8.8416  -15.4478   18.5245 C   0  0  0  0  0  0  0  0  0  0  0  0
    8.4776  -14.6719   17.3153 C   0  0  0  0  0  0  0  0  0  0  0  0
    9.2057  -14.7145   16.1453 C   0  0  0  0  0  0  0  0  0  0  0  0
    8.6015  -13.8967   15.2404 N   0  0  0  0  0  0  0  0  0  0  0  0
    7.5196  -13.3545   15.8313 C   0  0  0  0  0  0  0  0  0  0  0  0
    7.4576  -13.8307   17.0813 N   0  0  0  0  0  0  0  0  0  0  0  0
   10.4660  -16.9405   19.5300 C   0  0  0  0  0  0  0  0  0  0  0  0
    9.7122  -17.6223   20.2516 O   0  0  0  0  0  0  0  0  0  0  0  0
   13.5729  -18.8889   22.9679 N   0  0  0  0  0  0  0  0  0  0  0  0
   14.3846  -18.0693   22.1594 C   0  0  0  0  0  0  0  0  0  0  0  0
   15.6258  -18.1674   22.2295 O   0  0  0  0  0  0  0  0  0  0  0  0
   13.7714  -17.1039   21.2388 C   0  0  0  0  0  0  0  0  0  0  0  0
   12.2776  -17.1993   21.1958 C   0  0  2  0  0  0  0  0  0  0  0  0
   11.7940  -16.6761   19.9291 N   0  0  0  0  0  0  0  0  0  0  0  0
   11.6939  -16.4339   22.3094 C   0  0  0  0  0  0  0  0  0  0  0  0
   11.2931  -15.2647   22.1035 O   0  0  0  0  0  0  0  0  0  0  0  0
   11.5909  -17.0218   23.5948 N   0  0  0  0  0  0  0  0  0  0  0  0
   10.3852  -16.8654   24.3727 C   0  0  1  0  0  0  0  0  0  0  0  0
    9.1367  -17.2136   23.6222 C   0  0  0  0  0  0  0  0  0  0  0  0
    8.4454  -16.0001   23.0877 C   0  0  0  0  0  0  0  0  0  0  0  0
    8.9249  -14.7162   23.2335 C   0  0  0  0  0  0  0  0  0  0  0  0
    8.0719  -13.8679   22.6423 N   0  0  0  0  0  0  0  0  0  0  0  0
    7.0861  -14.6048   22.1410 C   0  0  0  0  0  0  0  0  0  0  0  0
    7.3015  -15.9011   22.4051 N   0  0  0  0  0  0  0  0  0  0  0  0
   10.4558  -17.6184   25.6393 C   0  0  0  0  0  0  0  0  0  0  0  0
   11.0792  -18.6837   25.7259 O   0  0  0  0  0  0  0  0  0  0  0  0
    9.8155  -17.1344   26.7633 O   0  0  0  0  0  0  0  0  0  0  0  0
  2  1  1  6
  3  2  1  0
  3  4  1  0
  4  8  1  0
  5  4  2  0
  5  6  1  0
  6  7  1  0
  8  7  2  0
  9  2  1  0
  9 10  2  0
 12 14  1  0
 12 11  1  0
 13 12  2  0
 15 14  1  6
 15 17  1  0
 15 16  1  0
 16  9  1  0
 17 19  1  0
 18 17  2  0
 19 20  1  0
 20 27  1  0
 20 21  1  6
 22 21  1  0
 23 22  2  0
 24 25  1  0
 24 23  1  0
 25 26  2  0
 26 22  1  0
 27 28  2  0
 27 29  1  0
M  END
$$$$
