HNH.pdb
     RDKit          3D

 29 30  0  0  1  0  0  0  0  0999 V2000
   12.6039  -18.5101   14.7706 N   0  0  0  0  0  0  0  0  0  0  0  0
   11.5572  -18.8811   15.6967 C   0  0  1  0  0  0  0  0  0  0  0  0
   10.7854  -20.0879   15.2222 C   0  0  0  0  0  0  0  0  0  0  0  0
    9.8789  -19.7496   14.0994 C   0  0  0  0  0  0  0  0  0  0  0  0
   10.2956  -19.0743   12.9719 C   0  0  0  0  0  0  0  0  0  0  0  0
    9.2249  -18.9321   12.1436 N   0  0  0  0  0  0  0  0  0  0  0  0
    8.1622  -19.5056   12.7398 C   0  0  0  0  0  0  0  0  0  0  0  0
    8.5712  -19.9939   13.9175 N   0  0  0  0  0  0  0  0  0  0  0  0
   12.1298  -19.1726   17.0201 C   0  0  0  0  0  0  0  0  0  0  0  0
   11.3881  -19.5247   17.9579 O   0  0  0  0  0  0  0  0  0  0  0  0
   16.5673  -21.0912   16.4921 N   0  0  0  0  0  0  0  0  0  0  0  0
   15.7046  -21.0313   17.6041 C   0  0  0  0  0  0  0  0  0  0  0  0
   15.0886  -22.0542   17.9639 O   0  0  0  0  0  0  0  0  0  0  0  0
   15.5316  -19.7700   18.3354 C   0  0  0  0  0  0  0  0  0  0  0  0
   14.0955  -19.3829   18.5087 C   0  0  2  0  0  0  0  0  0  0  0  0
   13.5227  -19.0509   17.2149 N   0  0  0  0  0  0  0  0  0  0  0  0
   13.9935  -18.2262   19.4133 C   0  0  0  0  0  0  0  0  0  0  0  0
   13.6358  -17.1181   18.9505 O   0  0  0  0  0  0  0  0  0  0  0  0
   14.2982  -18.3751   20.7894 N   0  0  0  0  0  0  0  0  0  0  0  0
   13.5308  -17.6669   21.7859 C   0  0  1  0  0  0  0  0  0  0  0  0
   12.0639  -17.9656   21.7388 C   0  0  0  0  0  0  0  0  0  0  0  0
   11.3025  -17.2084   22.7794 C   0  0  0  0  0  0  0  0  0  0  0  0
   11.8634  -16.2510   23.5970 C   0  0  0  0  0  0  0  0  0  0  0  0
   10.9136  -15.7691   24.4108 N   0  0  0  0  0  0  0  0  0  0  0  0
    9.7896  -16.4100   24.1077 C   0  0  0  0  0  0  0  0  0  0  0  0
   10.0130  -17.2867   23.1186 N   0  0  0  0  0  0  0  0  0  0  0  0
   14.0632  -17.8948   23.1427 C   0  0  0  0  0  0  0  0  0  0  0  0
   14.4271  -19.0169   23.5160 O   0  0  0  0  0  0  0  0  0  0  0  0
   14.1633  -16.8394   24.0280 O   0  0  0  0  0  0  0  0  0  0  0  0
  2  1  1  6
  3  2  1  0
  3  4  1  0
  4  8  1  0
  5  4  2  0
  5  6  1  0
  6  7  1  0
  8  7  2  0
  9  2  1  0
  9 10  2  0
 12 14  1  0
 12 11  1  0
 13 12  2  0
 15 14  1  6
 15 17  1  0
 15 16  1  0
 16  9  1  0
 17 19  1  0
 18 17  2  0
 19 20  1  0
 20 27  1  0
 20 21  1  1
 22 21  1  0
 23 22  2  0
 24 25  1  0
 24 23  1  0
 25 26  2  0
 26 22  1  0
 27 28  2  0
 27 29  1  0
M  END
$$$$
