HNH.pdb
     RDKit          3D

 29 30  0  0  1  0  0  0  0  0999 V2000
    8.8150  -17.1684   17.0296 N   0  0  0  0  0  0  0  0  0  0  0  0
    8.6264  -16.1922   18.0796 C   0  0  1  0  0  0  0  0  0  0  0  0
    7.4699  -15.2673   17.7892 C   0  0  0  0  0  0  0  0  0  0  0  0
    7.7090  -14.4602   16.5694 C   0  0  0  0  0  0  0  0  0  0  0  0
    8.8483  -14.5749   15.8015 C   0  0  0  0  0  0  0  0  0  0  0  0
    8.7478  -13.7023   14.7616 N   0  0  0  0  0  0  0  0  0  0  0  0
    7.5718  -13.0561   14.8767 C   0  0  0  0  0  0  0  0  0  0  0  0
    6.9567  -13.5231   15.9705 N   0  0  0  0  0  0  0  0  0  0  0  0
    8.3846  -16.8680   19.3637 C   0  0  0  0  0  0  0  0  0  0  0  0
    7.4050  -17.6275   19.4952 O   0  0  0  0  0  0  0  0  0  0  0  0
   11.7676  -20.3131   22.3350 N   0  0  0  0  0  0  0  0  0  0  0  0
   10.4918  -19.8021   22.0257 C   0  0  0  0  0  0  0  0  0  0  0  0
    9.4837  -20.2763   22.5860 O   0  0  0  0  0  0  0  0  0  0  0  0
   10.3503  -18.7162   21.0476 C   0  0  0  0  0  0  0  0  0  0  0  0
    9.3904  -17.6529   21.4841 C   0  0  2  0  0  0  0  0  0  0  0  0
    9.2709  -16.6487   20.4403 N   0  0  0  0  0  0  0  0  0  0  0  0
    9.8666  -17.0276   22.7286 C   0  0  0  0  0  0  0  0  0  0  0  0
   11.0703  -16.6924   22.8224 O   0  0  0  0  0  0  0  0  0  0  0  0
    8.9662  -16.8116   23.8015 N   0  0  0  0  0  0  0  0  0  0  0  0
    9.4482  -16.3142   25.0679 C   0  0  1  0  0  0  0  0  0  0  0  0
    8.3626  -15.8080   25.9670 C   0  0  0  0  0  0  0  0  0  0  0  0
    7.7295  -14.5614   25.4369 C   0  0  0  0  0  0  0  0  0  0  0  0
    8.2312  -13.8353   24.3783 C   0  0  0  0  0  0  0  0  0  0  0  0
    7.4305  -12.7829   24.1596 N   0  0  0  0  0  0  0  0  0  0  0  0
    6.4548  -12.8516   25.0592 C   0  0  0  0  0  0  0  0  0  0  0  0
    6.6254  -13.9272   25.8407 N   0  0  0  0  0  0  0  0  0  0  0  0
   10.2736  -17.3181   25.7657 C   0  0  0  0  0  0  0  0  0  0  0  0
   10.4706  -18.4416   25.2863 O   0  0  0  0  0  0  0  0  0  0  0  0
   10.8463  -17.0102   26.9843 O   0  0  0  0  0  0  0  0  0  0  0  0
  2  1  1  6
  3  2  1  0
  3  4  1  0
  4  8  1  0
  5  4  2  0
  5  6  1  0
  6  7  1  0
  8  7  2  0
  9  2  1  0
  9 10  2  0
 12 14  1  0
 12 11  1  0
 13 12  2  0
 15 14  1  6
 15 17  1  0
 15 16  1  0
 16  9  1  0
 17 19  1  0
 18 17  2  0
 19 20  1  0
 20 27  1  0
 20 21  1  1
 22 21  1  0
 23 22  2  0
 24 25  1  0
 24 23  1  0
 25 26  2  0
 26 22  1  0
 27 28  2  0
 27 29  1  0
M  END
$$$$
