HNH.pdb
     RDKit          3D

 29 30  0  0  1  0  0  0  0  0999 V2000
    6.7441  -16.5295   20.6795 N   0  0  0  0  0  0  0  0  0  0  0  0
    7.5113  -15.8274   21.6842 C   0  0  1  0  0  0  0  0  0  0  0  0
    7.2061  -14.3495   21.6967 C   0  0  0  0  0  0  0  0  0  0  0  0
    7.5838  -13.7030   20.4175 C   0  0  0  0  0  0  0  0  0  0  0  0
    8.1697  -14.3855   19.3727 C   0  0  0  0  0  0  0  0  0  0  0  0
    8.3799  -13.5047   18.3564 N   0  0  0  0  0  0  0  0  0  0  0  0
    7.9355  -12.2981   18.7569 C   0  0  0  0  0  0  0  0  0  0  0  0
    7.4585  -12.4329   20.0008 N   0  0  0  0  0  0  0  0  0  0  0  0
    7.2308  -16.3825   23.0173 C   0  0  0  0  0  0  0  0  0  0  0  0
    6.4142  -15.8170   23.7703 O   0  0  0  0  0  0  0  0  0  0  0  0
    5.8789  -20.4111   22.7069 N   0  0  0  0  0  0  0  0  0  0  0  0
    5.9163  -19.6554   23.8950 C   0  0  0  0  0  0  0  0  0  0  0  0
    4.8771  -19.1055   24.3106 O   0  0  0  0  0  0  0  0  0  0  0  0
    7.1737  -19.5158   24.6402 C   0  0  0  0  0  0  0  0  0  0  0  0
    7.6333  -18.0954   24.7574 C   0  0  2  0  0  0  0  0  0  0  0  0
    7.8928  -17.5583   23.4321 N   0  0  0  0  0  0  0  0  0  0  0  0
    8.8570  -18.0299   25.5728 C   0  0  0  0  0  0  0  0  0  0  0  0
    9.9663  -18.2351   25.0276 O   0  0  0  0  0  0  0  0  0  0  0  0
    8.7703  -17.7373   26.9568 N   0  0  0  0  0  0  0  0  0  0  0  0
    9.9620  -17.7055   27.7705 C   0  0  1  0  0  0  0  0  0  0  0  0
    9.9250  -16.6677   28.8497 C   0  0  0  0  0  0  0  0  0  0  0  0
    9.6865  -15.2965   28.3029 C   0  0  0  0  0  0  0  0  0  0  0  0
    9.5353  -15.0203   26.9611 C   0  0  0  0  0  0  0  0  0  0  0  0
    9.3373  -13.7030   26.8120 N   0  0  0  0  0  0  0  0  0  0  0  0
    9.3646  -13.1722   28.0300 C   0  0  0  0  0  0  0  0  0  0  0  0
    9.5760  -14.1298   28.9438 N   0  0  0  0  0  0  0  0  0  0  0  0
   10.2665  -19.0329   28.3377 C   0  0  0  0  0  0  0  0  0  0  0  0
    9.5258  -20.0051   28.1455 O   0  0  0  0  0  0  0  0  0  0  0  0
   11.4023  -19.2089   29.1036 O   0  0  0  0  0  0  0  0  0  0  0  0
  2  1  1  6
  3  2  1  0
  3  4  1  0
  4  8  1  0
  5  4  2  0
  5  6  1  0
  6  7  1  0
  8  7  2  0
  9  2  1  0
  9 10  2  0
 12 14  1  0
 12 11  1  0
 13 12  2  0
 15 14  1  6
 15 17  1  0
 15 16  1  0
 16  9  1  0
 17 19  1  0
 18 17  2  0
 19 20  1  0
 20 27  1  0
 20 21  1  1
 22 21  1  0
 23 22  2  0
 24 25  1  0
 24 23  1  0
 25 26  2  0
 26 22  1  0
 27 28  2  0
 27 29  1  0
M  END
$$$$
