HNH.pdb
     RDKit          3D

 29 30  0  0  1  0  0  0  0  0999 V2000
    9.0324  -16.0729   21.3174 N   0  0  0  0  0  0  0  0  0  0  0  0
    8.1426  -15.2124   22.0650 C   0  0  1  0  0  0  0  0  0  0  0  0
    6.9900  -14.7238   21.2223 C   0  0  0  0  0  0  0  0  0  0  0  0
    7.4593  -14.1169   19.9542 C   0  0  0  0  0  0  0  0  0  0  0  0
    8.7863  -14.0811   19.5820 C   0  0  0  0  0  0  0  0  0  0  0  0
    8.8702  -13.4639   18.3716 N   0  0  0  0  0  0  0  0  0  0  0  0
    7.6233  -13.1213   17.9953 C   0  0  0  0  0  0  0  0  0  0  0  0
    6.7836  -13.5210   18.9587 N   0  0  0  0  0  0  0  0  0  0  0  0
    7.6079  -15.9277   23.2340 C   0  0  0  0  0  0  0  0  0  0  0  0
    6.3912  -15.8702   23.4987 O   0  0  0  0  0  0  0  0  0  0  0  0
    6.8991  -19.1853   27.0408 N   0  0  0  0  0  0  0  0  0  0  0  0
    6.5206  -19.3874   25.6991 C   0  0  0  0  0  0  0  0  0  0  0  0
    5.7882  -20.3520   25.4023 O   0  0  0  0  0  0  0  0  0  0  0  0
    6.9869  -18.4662   24.6553 C   0  0  0  0  0  0  0  0  0  0  0  0
    7.9476  -17.4369   25.1655 C   0  0  2  0  0  0  0  0  0  0  0  0
    8.4838  -16.6774   24.0484 N   0  0  0  0  0  0  0  0  0  0  0  0
    9.0433  -18.0928   25.8973 C   0  0  0  0  0  0  0  0  0  0  0  0
    8.9692  -19.3204   26.1373 O   0  0  0  0  0  0  0  0  0  0  0  0
   10.1643  -17.3359   26.3205 N   0  0  0  0  0  0  0  0  0  0  0  0
   10.5362  -17.3025   27.7148 C   0  0  1  0  0  0  0  0  0  0  0  0
    9.5785  -16.5355   28.5737 C   0  0  0  0  0  0  0  0  0  0  0  0
    9.4417  -15.1136   28.1315 C   0  0  0  0  0  0  0  0  0  0  0  0
   10.3113  -14.4930   27.2607 C   0  0  0  0  0  0  0  0  0  0  0  0
    9.9057  -13.2291   27.0743 N   0  0  0  0  0  0  0  0  0  0  0  0
    8.8111  -13.0667   27.8103 C   0  0  0  0  0  0  0  0  0  0  0  0
    8.5194  -14.2040   28.4570 N   0  0  0  0  0  0  0  0  0  0  0  0
   10.7426  -18.6603   28.2532 C   0  0  0  0  0  0  0  0  0  0  0  0
   10.4738  -19.6687   27.5887 O   0  0  0  0  0  0  0  0  0  0  0  0
   11.2474  -18.8247   29.5283 O   0  0  0  0  0  0  0  0  0  0  0  0
  2  1  1  6
  3  2  1  0
  3  4  1  0
  4  8  1  0
  5  4  2  0
  5  6  1  0
  6  7  1  0
  8  7  2  0
  9  2  1  0
  9 10  2  0
 12 14  1  0
 12 11  1  0
 13 12  2  0
 15 14  1  6
 15 17  1  0
 15 16  1  0
 16  9  1  0
 17 19  1  0
 18 17  2  0
 19 20  1  0
 20 27  1  0
 20 21  1  1
 22 21  1  0
 23 22  2  0
 24 25  1  0
 24 23  1  0
 25 26  2  0
 26 22  1  0
 27 28  2  0
 27 29  1  0
M  END
$$$$
