HNH.pdb
     RDKit          3D

 29 30  0  0  1  0  0  0  0  0999 V2000
    8.0797  -16.1346   18.8496 N   0  0  0  0  0  0  0  0  0  0  0  0
    8.5533  -15.0489   19.6790 C   0  0  1  0  0  0  0  0  0  0  0  0
    7.9645  -13.7230   19.2636 C   0  0  0  0  0  0  0  0  0  0  0  0
    8.0425  -13.5264   17.7966 C   0  0  0  0  0  0  0  0  0  0  0  0
    6.9782  -13.0884   17.0375 C   0  0  0  0  0  0  0  0  0  0  0  0
    7.3856  -13.0124   15.7409 N   0  0  0  0  0  0  0  0  0  0  0  0
    8.6760  -13.3945   15.6903 C   0  0  0  0  0  0  0  0  0  0  0  0
    9.0584  -13.7013   16.9363 N   0  0  0  0  0  0  0  0  0  0  0  0
    8.2128  -15.3004   21.0879 C   0  0  0  0  0  0  0  0  0  0  0  0
    8.2928  -14.3793   21.9239 O   0  0  0  0  0  0  0  0  0  0  0  0
    6.5248  -17.5428   25.2612 N   0  0  0  0  0  0  0  0  0  0  0  0
    6.6658  -18.5948   24.3352 C   0  0  0  0  0  0  0  0  0  0  0  0
    6.2181  -19.7255   24.6116 O   0  0  0  0  0  0  0  0  0  0  0  0
    7.3372  -18.3607   23.0506 C   0  0  0  0  0  0  0  0  0  0  0  0
    7.8209  -16.9528   22.8878 C   0  0  2  0  0  0  0  0  0  0  0  0
    7.7950  -16.5903   21.4806 N   0  0  0  0  0  0  0  0  0  0  0  0
    9.1908  -16.8294   23.4118 C   0  0  0  0  0  0  0  0  0  0  0  0
   10.0178  -16.1156   22.7982 O   0  0  0  0  0  0  0  0  0  0  0  0
    9.5594  -17.5136   24.5970 N   0  0  0  0  0  0  0  0  0  0  0  0
    9.8737  -16.7749   25.7965 C   0  0  1  0  0  0  0  0  0  0  0  0
    8.7671  -15.8762   26.2559 C   0  0  0  0  0  0  0  0  0  0  0  0
    9.1626  -15.0606   27.4452 C   0  0  0  0  0  0  0  0  0  0  0  0
    9.7441  -15.5869   28.5786 C   0  0  0  0  0  0  0  0  0  0  0  0
    9.9710  -14.5923   29.4480 N   0  0  0  0  0  0  0  0  0  0  0  0
    9.5418  -13.4748   28.8708 C   0  0  0  0  0  0  0  0  0  0  0  0
    9.0486  -13.7463   27.6543 N   0  0  0  0  0  0  0  0  0  0  0  0
   10.3014  -17.6704   26.8880 C   0  0  0  0  0  0  0  0  0  0  0  0
    9.5144  -18.4605   27.4239 O   0  0  0  0  0  0  0  0  0  0  0  0
   11.6087  -17.6367   27.3323 O   0  0  0  0  0  0  0  0  0  0  0  0
  2  1  1  6
  3  2  1  0
  3  4  1  0
  4  8  1  0
  5  4  2  0
  5  6  1  0
  6  7  1  0
  8  7  2  0
  9  2  1  0
  9 10  2  0
 12 14  1  0
 12 11  1  0
 13 12  2  0
 15 14  1  6
 15 17  1  0
 15 16  1  0
 16  9  1  0
 17 19  1  0
 18 17  2  0
 19 20  1  0
 20 27  1  0
 20 21  1  1
 22 21  1  0
 23 22  2  0
 24 25  1  0
 24 23  1  0
 25 26  2  0
 26 22  1  0
 27 28  2  0
 27 29  1  0
M  END
$$$$
