HNH.pdb
     RDKit          3D

 29 30  0  0  1  0  0  0  0  0999 V2000
    8.3682  -15.9193   19.3673 N   0  0  0  0  0  0  0  0  0  0  0  0
    8.5365  -14.5193   19.6879 C   0  0  1  0  0  0  0  0  0  0  0  0
    7.5808  -13.6443   18.9143 C   0  0  0  0  0  0  0  0  0  0  0  0
    7.6923  -13.8719   17.4539 C   0  0  0  0  0  0  0  0  0  0  0  0
    8.4958  -13.1106   16.6320 C   0  0  0  0  0  0  0  0  0  0  0  0
    8.3707  -13.5832   15.3616 N   0  0  0  0  0  0  0  0  0  0  0  0
    7.5081  -14.6171   15.3884 C   0  0  0  0  0  0  0  0  0  0  0  0
    7.1075  -14.7795   16.6558 N   0  0  0  0  0  0  0  0  0  0  0  0
    8.3249  -14.2989   21.1269 C   0  0  0  0  0  0  0  0  0  0  0  0
    8.4998  -13.1666   21.6178 O   0  0  0  0  0  0  0  0  0  0  0  0
    7.2690  -14.8320   26.0651 N   0  0  0  0  0  0  0  0  0  0  0  0
    6.4129  -15.6860   25.3425 C   0  0  0  0  0  0  0  0  0  0  0  0
    5.4646  -16.2480   25.9257 O   0  0  0  0  0  0  0  0  0  0  0  0
    6.6369  -15.9133   23.9094 C   0  0  0  0  0  0  0  0  0  0  0  0
    7.8414  -15.1971   23.3816 C   0  0  2  0  0  0  0  0  0  0  0  0
    7.9221  -15.3789   21.9419 N   0  0  0  0  0  0  0  0  0  0  0  0
    9.0580  -15.7229   24.0218 C   0  0  0  0  0  0  0  0  0  0  0  0
    9.2601  -15.4878   25.2358 O   0  0  0  0  0  0  0  0  0  0  0  0
    9.9830  -16.4849   23.2652 N   0  0  0  0  0  0  0  0  0  0  0  0
   11.2611  -16.8480   23.8292 C   0  0  1  0  0  0  0  0  0  0  0  0
   11.4355  -18.3231   24.0216 C   0  0  0  0  0  0  0  0  0  0  0  0
   10.4815  -18.8747   25.0322 C   0  0  0  0  0  0  0  0  0  0  0  0
   10.2737  -18.3187   26.2761 C   0  0  0  0  0  0  0  0  0  0  0  0
    9.3616  -19.0523   26.9292 N   0  0  0  0  0  0  0  0  0  0  0  0
    9.0102  -20.0403   26.1128 C   0  0  0  0  0  0  0  0  0  0  0  0
    9.6834  -19.9433   24.9578 N   0  0  0  0  0  0  0  0  0  0  0  0
   12.3783  -16.2919   23.0425 C   0  0  0  0  0  0  0  0  0  0  0  0
   13.5536  -16.4166   23.4084 O   0  0  0  0  0  0  0  0  0  0  0  0
   12.1206  -15.6135   21.8674 O   0  0  0  0  0  0  0  0  0  0  0  0
  2  1  1  1
  3  2  1  0
  3  4  1  0
  4  8  1  0
  5  4  2  0
  5  6  1  0
  6  7  1  0
  8  7  2  0
  9  2  1  0
  9 10  2  0
 12 14  1  0
 12 11  1  0
 13 12  2  0
 15 14  1  1
 15 17  1  0
 15 16  1  0
 16  9  1  0
 17 19  1  0
 18 17  2  0
 19 20  1  0
 20 27  1  0
 20 21  1  6
 22 21  1  0
 23 22  2  0
 24 25  1  0
 24 23  1  0
 25 26  2  0
 26 22  1  0
 27 28  2  0
 27 29  1  0
M  END
$$$$
