HNH.pdb
     RDKit          3D

 29 30  0  0  1  0  0  0  0  0999 V2000
    8.6025  -17.1288   18.5280 N   0  0  0  0  0  0  0  0  0  0  0  0
    8.8228  -16.3265   19.7107 C   0  0  1  0  0  0  0  0  0  0  0  0
    7.8128  -15.2118   19.8327 C   0  0  0  0  0  0  0  0  0  0  0  0
    7.8846  -14.2815   18.6811 C   0  0  0  0  0  0  0  0  0  0  0  0
    8.6437  -13.1306   18.6886 C   0  0  0  0  0  0  0  0  0  0  0  0
    8.4909  -12.5146   17.4844 N   0  0  0  0  0  0  0  0  0  0  0  0
    7.6548  -13.2636   16.7404 C   0  0  0  0  0  0  0  0  0  0  0  0
    7.2975  -14.3250   17.4744 N   0  0  0  0  0  0  0  0  0  0  0  0
    8.7510  -17.1677   20.9155 C   0  0  0  0  0  0  0  0  0  0  0  0
    7.7133  -17.8105   21.1676 O   0  0  0  0  0  0  0  0  0  0  0  0
   10.2359  -21.3175   23.7143 N   0  0  0  0  0  0  0  0  0  0  0  0
   11.0656  -20.1795   23.7446 C   0  0  0  0  0  0  0  0  0  0  0  0
   11.8704  -20.0265   24.6848 O   0  0  0  0  0  0  0  0  0  0  0  0
   10.9825  -19.1783   22.6739 C   0  0  0  0  0  0  0  0  0  0  0  0
    9.8655  -18.2001   22.8689 C   0  0  2  0  0  0  0  0  0  0  0  0
    9.8658  -17.2393   21.7784 N   0  0  0  0  0  0  0  0  0  0  0  0
   10.0303  -17.5003   24.1532 C   0  0  0  0  0  0  0  0  0  0  0  0
   10.9503  -16.6587   24.2770 O   0  0  0  0  0  0  0  0  0  0  0  0
    9.1532  -17.7820   25.2303 N   0  0  0  0  0  0  0  0  0  0  0  0
    9.3077  -17.0998   26.4928 C   0  0  1  0  0  0  0  0  0  0  0  0
    8.0507  -16.4481   26.9812 C   0  0  0  0  0  0  0  0  0  0  0  0
    7.6416  -15.2983   26.1172 C   0  0  0  0  0  0  0  0  0  0  0  0
    8.4885  -14.6589   25.2377 C   0  0  0  0  0  0  0  0  0  0  0  0
    7.8115  -13.6789   24.6229 N   0  0  0  0  0  0  0  0  0  0  0  0
    6.5742  -13.7073   25.1071 C   0  0  0  0  0  0  0  0  0  0  0  0
    6.4587  -14.6863   26.0154 N   0  0  0  0  0  0  0  0  0  0  0  0
    9.8643  -17.9928   27.5268 C   0  0  0  0  0  0  0  0  0  0  0  0
   10.0696  -19.1926   27.3046 O   0  0  0  0  0  0  0  0  0  0  0  0
   10.1682  -17.4911   28.7772 O   0  0  0  0  0  0  0  0  0  0  0  0
  2  1  1  6
  3  2  1  0
  3  4  1  0
  4  8  1  0
  5  4  2  0
  5  6  1  0
  6  7  1  0
  8  7  2  0
  9  2  1  0
  9 10  2  0
 12 14  1  0
 12 11  1  0
 13 12  2  0
 15 14  1  6
 15 17  1  0
 15 16  1  0
 16  9  1  0
 17 19  1  0
 18 17  2  0
 19 20  1  0
 20 27  1  0
 20 21  1  1
 22 21  1  0
 23 22  2  0
 24 25  1  0
 24 23  1  0
 25 26  2  0
 26 22  1  0
 27 28  2  0
 27 29  1  0
M  END
$$$$
