HNH.pdb
     RDKit          3D

 29 30  0  0  1  0  0  0  0  0999 V2000
    9.5557  -19.7839   16.4267 N   0  0  0  0  0  0  0  0  0  0  0  0
   10.2695  -18.8867   17.3078 C   0  0  1  0  0  0  0  0  0  0  0  0
   10.5932  -17.5748   16.6359 C   0  0  0  0  0  0  0  0  0  0  0  0
   11.5824  -17.7489   15.5459 C   0  0  0  0  0  0  0  0  0  0  0  0
   12.9367  -17.8756   15.7708 C   0  0  0  0  0  0  0  0  0  0  0  0
   13.5540  -18.0235   14.5667 N   0  0  0  0  0  0  0  0  0  0  0  0
   12.6067  -17.9899   13.6099 C   0  0  0  0  0  0  0  0  0  0  0  0
   11.4237  -17.8239   14.2148 N   0  0  0  0  0  0  0  0  0  0  0  0
    9.4721  -18.6191   18.5148 C   0  0  0  0  0  0  0  0  0  0  0  0
    8.3182  -18.1591   18.4119 O   0  0  0  0  0  0  0  0  0  0  0  0
    8.9131  -22.1503   20.5830 N   0  0  0  0  0  0  0  0  0  0  0  0
    8.3278  -21.0028   21.1528 C   0  0  0  0  0  0  0  0  0  0  0  0
    7.0881  -20.8681   21.1356 O   0  0  0  0  0  0  0  0  0  0  0  0
    9.1739  -19.9701   21.7638 C   0  0  0  0  0  0  0  0  0  0  0  0
    9.2121  -18.6981   20.9745 C   0  0  2  0  0  0  0  0  0  0  0  0
   10.0253  -18.8892   19.7851 N   0  0  0  0  0  0  0  0  0  0  0  0
    9.7741  -17.6143   21.7967 C   0  0  0  0  0  0  0  0  0  0  0  0
   11.0119  -17.5695   21.9856 O   0  0  0  0  0  0  0  0  0  0  0  0
    8.9166  -16.6383   22.3629 N   0  0  0  0  0  0  0  0  0  0  0  0
    9.4602  -15.5688   23.1655 C   0  0  1  0  0  0  0  0  0  0  0  0
    8.6319  -14.3211   23.1444 C   0  0  0  0  0  0  0  0  0  0  0  0
    8.5038  -13.7549   21.7664 C   0  0  0  0  0  0  0  0  0  0  0  0
    9.1739  -14.2484   20.6677 C   0  0  0  0  0  0  0  0  0  0  0  0
    8.8379  -13.5190   19.5945 N   0  0  0  0  0  0  0  0  0  0  0  0
    7.9803  -12.5946   20.0141 C   0  0  0  0  0  0  0  0  0  0  0  0
    7.7695  -12.7275   21.3311 N   0  0  0  0  0  0  0  0  0  0  0  0
    9.7067  -16.0042   24.5533 C   0  0  0  0  0  0  0  0  0  0  0  0
   10.2018  -15.2425   25.3931 O   0  0  0  0  0  0  0  0  0  0  0  0
    9.3817  -17.2903   24.9380 O   0  0  0  0  0  0  0  0  0  0  0  0
  2  1  1  6
  3  2  1  0
  3  4  1  0
  4  8  1  0
  5  4  2  0
  5  6  1  0
  6  7  1  0
  8  7  2  0
  9  2  1  0
  9 10  2  0
 12 14  1  0
 12 11  1  0
 13 12  2  0
 15 14  1  1
 15 17  1  0
 15 16  1  0
 16  9  1  0
 17 19  1  0
 18 17  2  0
 19 20  1  0
 20 27  1  0
 20 21  1  1
 22 21  1  0
 23 22  2  0
 24 25  1  0
 24 23  1  0
 25 26  2  0
 26 22  1  0
 27 28  2  0
 27 29  1  0
M  END
$$$$
