HNH.pdb
     RDKit          3D

 29 30  0  0  1  0  0  0  0  0999 V2000
   10.8160  -12.9225   18.1863 N   0  0  0  0  0  0  0  0  0  0  0  0
   10.5301  -14.2880   18.5668 C   0  0  1  0  0  0  0  0  0  0  0  0
    9.6856  -14.9962   17.5360 C   0  0  0  0  0  0  0  0  0  0  0  0
    8.3612  -14.3499   17.3776 C   0  0  0  0  0  0  0  0  0  0  0  0
    8.0136  -13.1780   18.0152 C   0  0  0  0  0  0  0  0  0  0  0  0
    6.7412  -12.8593   17.6517 N   0  0  0  0  0  0  0  0  0  0  0  0
    6.3027  -13.8108   16.8055 C   0  0  0  0  0  0  0  0  0  0  0  0
    7.2895  -14.7024   16.6496 N   0  0  0  0  0  0  0  0  0  0  0  0
   11.7830  -15.0366   18.7514 C   0  0  0  0  0  0  0  0  0  0  0  0
   12.3782  -15.5114   17.7645 O   0  0  0  0  0  0  0  0  0  0  0  0
   16.5001  -15.4586   20.1161 N   0  0  0  0  0  0  0  0  0  0  0  0
   15.8915  -14.2773   19.6486 C   0  0  0  0  0  0  0  0  0  0  0  0
   16.6001  -13.3457   19.2183 O   0  0  0  0  0  0  0  0  0  0  0  0
   14.4295  -14.1441   19.6684 C   0  0  0  0  0  0  0  0  0  0  0  0
   13.7373  -15.3436   20.2381 C   0  0  2  0  0  0  0  0  0  0  0  0
   12.3021  -15.2094   20.0527 N   0  0  0  0  0  0  0  0  0  0  0  0
   14.0477  -15.4680   21.6715 C   0  0  0  0  0  0  0  0  0  0  0  0
   13.1376  -15.2817   22.5123 O   0  0  0  0  0  0  0  0  0  0  0  0
   15.3633  -15.7952   22.0849 N   0  0  0  0  0  0  0  0  0  0  0  0
   15.5888  -16.8920   22.9957 C   0  0  1  0  0  0  0  0  0  0  0  0
   14.9194  -18.1656   22.5799 C   0  0  0  0  0  0  0  0  0  0  0  0
   13.5351  -18.2797   23.1337 C   0  0  0  0  0  0  0  0  0  0  0  0
   12.9259  -17.2993   23.8870 C   0  0  0  0  0  0  0  0  0  0  0  0
   11.6967  -17.7153   24.2227 N   0  0  0  0  0  0  0  0  0  0  0  0
   11.5441  -18.9240   23.6919 C   0  0  0  0  0  0  0  0  0  0  0  0
   12.6537  -19.2778   23.0283 N   0  0  0  0  0  0  0  0  0  0  0  0
   17.0282  -17.1150   23.2295 C   0  0  0  0  0  0  0  0  0  0  0  0
   17.8890  -16.6171   22.4933 O   0  0  0  0  0  0  0  0  0  0  0  0
   17.4390  -17.8961   24.2919 O   0  0  0  0  0  0  0  0  0  0  0  0
  2  1  1  6
  3  2  1  0
  3  4  1  0
  4  8  1  0
  5  4  2  0
  5  6  1  0
  6  7  1  0
  8  7  2  0
  9  2  1  0
  9 10  2  0
 12 14  1  0
 12 11  1  0
 13 12  2  0
 15 14  1  1
 15 17  1  0
 15 16  1  0
 16  9  1  0
 17 19  1  0
 18 17  2  0
 19 20  1  0
 20 27  1  0
 20 21  1  6
 22 21  1  0
 23 22  2  0
 24 25  1  0
 24 23  1  0
 25 26  2  0
 26 22  1  0
 27 28  2  0
 27 29  1  0
M  END
$$$$
