HNH.pdb
     RDKit          3D

 29 30  0  0  1  0  0  0  0  0999 V2000
   16.6668  -17.0640   17.0558 N   0  0  0  0  0  0  0  0  0  0  0  0
   16.5560  -17.7562   18.3205 C   0  0  1  0  0  0  0  0  0  0  0  0
   17.7239  -17.4611   19.2296 C   0  0  0  0  0  0  0  0  0  0  0  0
   18.9590  -18.1389   18.7694 C   0  0  0  0  0  0  0  0  0  0  0  0
   20.1571  -17.4809   18.5895 C   0  0  0  0  0  0  0  0  0  0  0  0
   21.0802  -18.3889   18.1695 N   0  0  0  0  0  0  0  0  0  0  0  0
   20.4728  -19.5882   18.0885 C   0  0  0  0  0  0  0  0  0  0  0  0
   19.1950  -19.4222   18.4529 N   0  0  0  0  0  0  0  0  0  0  0  0
   15.3117  -17.3698   19.0036 C   0  0  0  0  0  0  0  0  0  0  0  0
   14.8498  -16.2213   18.8579 O   0  0  0  0  0  0  0  0  0  0  0  0
   12.4103  -20.6755   18.5086 N   0  0  0  0  0  0  0  0  0  0  0  0
   12.1505  -19.3666   18.9598 C   0  0  0  0  0  0  0  0  0  0  0  0
   11.7038  -18.5162   18.1646 O   0  0  0  0  0  0  0  0  0  0  0  0
   12.4051  -19.0058   20.3601 C   0  0  0  0  0  0  0  0  0  0  0  0
   13.4297  -17.9242   20.5117 C   0  0  2  0  0  0  0  0  0  0  0  0
   14.6490  -18.3104   19.8214 N   0  0  0  0  0  0  0  0  0  0  0  0
   13.7122  -17.6976   21.9384 C   0  0  0  0  0  0  0  0  0  0  0  0
   13.6331  -18.6595   22.7374 O   0  0  0  0  0  0  0  0  0  0  0  0
   14.0687  -16.4031   22.3922 N   0  0  0  0  0  0  0  0  0  0  0  0
   13.7582  -15.9931   23.7409 C   0  0  1  0  0  0  0  0  0  0  0  0
   12.6577  -16.7888   24.3724 C   0  0  0  0  0  0  0  0  0  0  0  0
   12.3381  -16.3094   25.7523 C   0  0  0  0  0  0  0  0  0  0  0  0
   12.6467  -15.0496   26.2185 C   0  0  0  0  0  0  0  0  0  0  0  0
   12.2254  -14.9443   27.4866 N   0  0  0  0  0  0  0  0  0  0  0  0
   11.6685  -16.1089   27.8022 C   0  0  0  0  0  0  0  0  0  0  0  0
   11.7309  -16.9462   26.7573 N   0  0  0  0  0  0  0  0  0  0  0  0
   14.9587  -15.9968   24.5983 C   0  0  0  0  0  0  0  0  0  0  0  0
   15.5011  -17.0519   24.9492 O   0  0  0  0  0  0  0  0  0  0  0  0
   15.5008  -14.8009   25.0269 O   0  0  0  0  0  0  0  0  0  0  0  0
  2  1  1  6
  3  2  1  0
  3  4  1  0
  4  8  1  0
  5  4  2  0
  5  6  1  0
  6  7  1  0
  8  7  2  0
  9  2  1  0
  9 10  2  0
 12 14  1  0
 12 11  1  0
 13 12  2  0
 15 14  1  1
 15 17  1  0
 15 16  1  0
 16  9  1  0
 17 19  1  0
 18 17  2  0
 19 20  1  0
 20 27  1  0
 20 21  1  1
 22 21  1  0
 23 22  2  0
 24 25  1  0
 24 23  1  0
 25 26  2  0
 26 22  1  0
 27 28  2  0
 27 29  1  0
M  END
$$$$
