HNH.pdb
     RDKit          3D

 29 30  0  0  1  0  0  0  0  0999 V2000
    9.2610  -15.5700   19.4867 N   0  0  0  0  0  0  0  0  0  0  0  0
    8.0710  -15.0120   20.0896 C   0  0  1  0  0  0  0  0  0  0  0  0
    6.8935  -15.0409   19.1461 C   0  0  0  0  0  0  0  0  0  0  0  0
    7.2454  -14.4884   17.8166 C   0  0  0  0  0  0  0  0  0  0  0  0
    6.8641  -15.0786   16.6304 C   0  0  0  0  0  0  0  0  0  0  0  0
    7.3429  -14.3200   15.6067 N   0  0  0  0  0  0  0  0  0  0  0  0
    8.0090  -13.2785   16.1407 C   0  0  0  0  0  0  0  0  0  0  0  0
    7.9419  -13.3930   17.4731 N   0  0  0  0  0  0  0  0  0  0  0  0
    7.7221  -15.7574   21.3089 C   0  0  0  0  0  0  0  0  0  0  0  0
    6.5926  -15.6264   21.8195 O   0  0  0  0  0  0  0  0  0  0  0  0
    7.1840  -20.2259   24.1640 N   0  0  0  0  0  0  0  0  0  0  0  0
    8.4726  -19.6719   24.0343 C   0  0  0  0  0  0  0  0  0  0  0  0
    9.3400  -19.9164   24.8963 O   0  0  0  0  0  0  0  0  0  0  0  0
    8.7924  -18.8104   22.8893 C   0  0  0  0  0  0  0  0  0  0  0  0
    8.3132  -17.4021   23.0610 C   0  0  2  0  0  0  0  0  0  0  0  0
    8.6761  -16.6198   21.8911 N   0  0  0  0  0  0  0  0  0  0  0  0
    8.9166  -16.8104   24.2661 C   0  0  0  0  0  0  0  0  0  0  0  0
   10.0966  -16.3920   24.2163 O   0  0  0  0  0  0  0  0  0  0  0  0
    8.1631  -16.7196   25.4630 N   0  0  0  0  0  0  0  0  0  0  0  0
    8.7324  -16.1020   26.6369 C   0  0  1  0  0  0  0  0  0  0  0  0
    7.7492  -15.2954   27.4280 C   0  0  0  0  0  0  0  0  0  0  0  0
    7.3036  -14.0727   26.6915 C   0  0  0  0  0  0  0  0  0  0  0  0
    8.1200  -13.3363   25.8604 C   0  0  0  0  0  0  0  0  0  0  0  0
    7.4150  -12.3115   25.3612 N   0  0  0  0  0  0  0  0  0  0  0  0
    6.1903  -12.4071   25.8684 C   0  0  0  0  0  0  0  0  0  0  0  0
    6.1103  -13.4726   26.6778 N   0  0  0  0  0  0  0  0  0  0  0  0
    9.4033  -17.0930   27.4993 C   0  0  0  0  0  0  0  0  0  0  0  0
    9.3836  -18.3014   27.2344 O   0  0  0  0  0  0  0  0  0  0  0  0
   10.0733  -16.6760   28.6329 O   0  0  0  0  0  0  0  0  0  0  0  0
  2  1  1  6
  3  2  1  0
  3  4  1  0
  4  8  1  0
  5  4  2  0
  5  6  1  0
  6  7  1  0
  8  7  2  0
  9  2  1  0
  9 10  2  0
 12 14  1  0
 12 11  1  0
 13 12  2  0
 15 14  1  6
 15 17  1  0
 15 16  1  0
 16  9  1  0
 17 19  1  0
 18 17  2  0
 19 20  1  0
 20 27  1  0
 20 21  1  1
 22 21  1  0
 23 22  2  0
 24 25  1  0
 24 23  1  0
 25 26  2  0
 26 22  1  0
 27 28  2  0
 27 29  1  0
M  END
$$$$
