HNH.pdb
     RDKit          3D

 29 30  0  0  1  0  0  0  0  0999 V2000
    8.8774  -17.7035   17.7367 N   0  0  0  0  0  0  0  0  0  0  0  0
    9.2170  -16.7945   18.8088 C   0  0  1  0  0  0  0  0  0  0  0  0
    8.0741  -15.8690   19.1474 C   0  0  0  0  0  0  0  0  0  0  0  0
    8.5078  -14.4520   19.1723 C   0  0  0  0  0  0  0  0  0  0  0  0
    9.7897  -14.0509   18.8615 C   0  0  0  0  0  0  0  0  0  0  0  0
    9.8494  -12.6960   18.9775 N   0  0  0  0  0  0  0  0  0  0  0  0
    8.6319  -12.2594   19.3526 C   0  0  0  0  0  0  0  0  0  0  0  0
    7.8337  -13.3285   19.4661 N   0  0  0  0  0  0  0  0  0  0  0  0
    9.5917  -17.5490   20.0147 C   0  0  0  0  0  0  0  0  0  0  0  0
    8.9491  -18.5663   20.3399 O   0  0  0  0  0  0  0  0  0  0  0  0
   12.6158  -20.2568   23.2610 N   0  0  0  0  0  0  0  0  0  0  0  0
   12.9937  -18.9077   23.1155 C   0  0  0  0  0  0  0  0  0  0  0  0
   13.7230  -18.3741   23.9750 O   0  0  0  0  0  0  0  0  0  0  0  0
   12.5307  -18.1336   21.9570 C   0  0  0  0  0  0  0  0  0  0  0  0
   11.0587  -17.8593   21.9834 C   0  0  2  0  0  0  0  0  0  0  0  0
   10.6831  -17.1108   20.7955 N   0  0  0  0  0  0  0  0  0  0  0  0
   10.7134  -17.0902   23.1899 C   0  0  0  0  0  0  0  0  0  0  0  0
   11.2407  -15.9681   23.3712 O   0  0  0  0  0  0  0  0  0  0  0  0
    9.7942  -17.6215   24.1288 N   0  0  0  0  0  0  0  0  0  0  0  0
    9.4776  -16.8900   25.3321 C   0  0  1  0  0  0  0  0  0  0  0  0
    8.0478  -16.4507   25.4094 C   0  0  0  0  0  0  0  0  0  0  0  0
    7.6688  -15.5670   24.2642 C   0  0  0  0  0  0  0  0  0  0  0  0
    8.1586  -14.2915   24.0833 C   0  0  0  0  0  0  0  0  0  0  0  0
    7.6217  -13.7779   22.9677 N   0  0  0  0  0  0  0  0  0  0  0  0
    6.8180  -14.7099   22.4663 C   0  0  0  0  0  0  0  0  0  0  0  0
    6.8380  -15.8010   23.2448 N   0  0  0  0  0  0  0  0  0  0  0  0
    9.8535  -17.6470   26.5412 C   0  0  0  0  0  0  0  0  0  0  0  0
    9.6591  -17.1939   27.6760 O   0  0  0  0  0  0  0  0  0  0  0  0
   10.4375  -18.8926   26.4184 O   0  0  0  0  0  0  0  0  0  0  0  0
  2  1  1  6
  3  2  1  0
  3  4  1  0
  4  8  1  0
  5  4  2  0
  5  6  1  0
  6  7  1  0
  8  7  2  0
  9  2  1  0
  9 10  2  0
 12 14  1  0
 12 11  1  0
 13 12  2  0
 15 14  1  6
 15 17  1  0
 15 16  1  0
 16  9  1  0
 17 19  1  0
 18 17  2  0
 19 20  1  0
 20 27  1  0
 20 21  1  1
 22 21  1  0
 23 22  2  0
 24 25  1  0
 24 23  1  0
 25 26  2  0
 26 22  1  0
 27 28  2  0
 27 29  1  0
M  END
$$$$
