HNH.pdb
     RDKit          3D

 29 30  0  0  1  0  0  0  0  0999 V2000
   11.3693  -15.7208   18.0019 N   0  0  0  0  0  0  0  0  0  0  0  0
   11.9092  -15.5039   19.3257 C   0  0  1  0  0  0  0  0  0  0  0  0
   12.4054  -14.0904   19.5082 C   0  0  0  0  0  0  0  0  0  0  0  0
   13.8145  -13.9458   19.0721 C   0  0  0  0  0  0  0  0  0  0  0  0
   14.5740  -15.0019   18.6153 C   0  0  0  0  0  0  0  0  0  0  0  0
   15.8093  -14.5281   18.2954 N   0  0  0  0  0  0  0  0  0  0  0  0
   15.8222  -13.2050   18.5467 C   0  0  0  0  0  0  0  0  0  0  0  0
   14.6135  -12.8683   19.0143 N   0  0  0  0  0  0  0  0  0  0  0  0
   10.8850  -15.7839   20.3439 C   0  0  0  0  0  0  0  0  0  0  0  0
    9.6761  -15.6744   20.0606 O   0  0  0  0  0  0  0  0  0  0  0  0
   11.1070  -20.5215   23.6507 N   0  0  0  0  0  0  0  0  0  0  0  0
   10.3713  -19.5604   22.9301 C   0  0  0  0  0  0  0  0  0  0  0  0
    9.1249  -19.5978   22.9447 O   0  0  0  0  0  0  0  0  0  0  0  0
   11.0695  -18.5196   22.1652 C   0  0  0  0  0  0  0  0  0  0  0  0
   10.4908  -17.1533   22.3671 C   0  0  2  0  0  0  0  0  0  0  0  0
   11.2847  -16.1774   21.6393 N   0  0  0  0  0  0  0  0  0  0  0  0
   10.4790  -16.8205   23.8008 C   0  0  0  0  0  0  0  0  0  0  0  0
   10.2497  -17.7256   24.6364 O   0  0  0  0  0  0  0  0  0  0  0  0
   10.7257  -15.4895   24.2204 N   0  0  0  0  0  0  0  0  0  0  0  0
    9.8041  -14.8235   25.1096 C   0  0  1  0  0  0  0  0  0  0  0  0
    8.4395  -14.6281   24.5241 C   0  0  0  0  0  0  0  0  0  0  0  0
    7.5748  -13.7679   25.3891 C   0  0  0  0  0  0  0  0  0  0  0  0
    8.0163  -13.1397   26.5336 C   0  0  0  0  0  0  0  0  0  0  0  0
    6.9975  -12.4519   27.0681 N   0  0  0  0  0  0  0  0  0  0  0  0
    5.9479  -12.6468   26.2765 C   0  0  0  0  0  0  0  0  0  0  0  0
    6.2859  -13.4443   25.2535 N   0  0  0  0  0  0  0  0  0  0  0  0
    9.7161  -15.5102   26.4122 C   0  0  0  0  0  0  0  0  0  0  0  0
    9.0417  -15.0512   27.3424 O   0  0  0  0  0  0  0  0  0  0  0  0
   10.3977  -16.6948   26.6122 O   0  0  0  0  0  0  0  0  0  0  0  0
  2  1  1  6
  3  2  1  0
  3  4  1  0
  4  8  1  0
  5  4  2  0
  5  6  1  0
  6  7  1  0
  8  7  2  0
  9  2  1  0
  9 10  2  0
 12 14  1  0
 12 11  1  0
 13 12  2  0
 15 14  1  1
 15 17  1  0
 15 16  1  0
 16  9  1  0
 17 19  1  0
 18 17  2  0
 19 20  1  0
 20 27  1  0
 20 21  1  6
 22 21  1  0
 23 22  2  0
 24 25  1  0
 24 23  1  0
 25 26  2  0
 26 22  1  0
 27 28  2  0
 27 29  1  0
M  END
$$$$
