GKC.pdb
     RDKit          3D

 20 19  0  0  1  0  0  0  0  0999 V2000
    7.5299  -12.5572   19.0264 N   0  0  0  0  0  0  0  0  0  0  0  0
    8.5563  -13.3276   19.6706 C   0  0  0  0  0  0  0  0  0  0  0  0
    8.0616  -13.9733   20.9205 C   0  0  0  0  0  0  0  0  0  0  0  0
    7.1138  -13.4309   21.5338 O   0  0  0  0  0  0  0  0  0  0  0  0
    8.6111  -15.1671   21.4451 N   0  0  0  0  0  0  0  0  0  0  0  0
    8.1506  -15.7988   22.6632 C   0  0  1  0  0  0  0  0  0  0  0  0
    8.5727  -17.2477   22.7427 C   0  0  0  0  0  0  0  0  0  0  0  0
    8.0991  -17.9288   23.9811 C   0  0  0  0  0  0  0  0  0  0  0  0
    6.9709  -18.8659   23.6310 C   0  0  0  0  0  0  0  0  0  0  0  0
    6.4039  -19.6089   24.8045 C   0  0  0  0  0  0  0  0  0  0  0  0
    5.3008  -20.4764   24.3568 N   0  0  0  0  0  0  0  0  0  0  0  0
    8.6240  -15.0234   23.8331 C   0  0  0  0  0  0  0  0  0  0  0  0
    9.8526  -14.7994   23.9684 O   0  0  0  0  0  0  0  0  0  0  0  0
    7.7553  -14.5121   24.8238 N   0  0  0  0  0  0  0  0  0  0  0  0
    8.2716  -13.7355   25.9579 C   0  0  1  0  0  0  0  0  0  0  0  0
    7.1854  -12.7765   26.3922 C   0  0  0  0  0  0  0  0  0  0  0  0
    5.6180  -13.6408   26.6082 S   0  0  0  0  0  0  0  0  0  0  0  0
    8.6586  -14.5975   27.0758 C   0  0  0  0  0  0  0  0  0  0  0  0
    8.4368  -15.8335   27.1350 O   0  0  0  0  0  0  0  0  0  0  0  0
    9.3155  -14.0246   28.1494 O   0  0  0  0  0  0  0  0  0  0  0  0
  2  1  1  0
  3  2  1  0
  4  3  2  0
  5  3  1  0
  6 12  1  0
  6  5  1  0
  6  7  1  1
  8  7  1  0
  9  8  1  0
 10  9  1  0
 11 10  1  0
 12 14  1  0
 13 12  2  0
 14 15  1  0
 15 16  1  1
 15 18  1  0
 17 16  1  0
 18 19  2  0
 18 20  1  0
M  END
$$$$
