GKC.pdb
     RDKit          3D

 20 19  0  0  1  0  0  0  0  0999 V2000
   -0.6200  -23.4563   18.3292 N   0  0  0  0  0  0  0  0  0  0  0  0
    0.5406  -23.8755   19.0637 C   0  0  0  0  0  0  0  0  0  0  0  0
    0.8952  -22.9055   20.1394 C   0  0  0  0  0  0  0  0  0  0  0  0
    0.6907  -21.6874   19.9312 O   0  0  0  0  0  0  0  0  0  0  0  0
    1.4505  -23.2951   21.3812 N   0  0  0  0  0  0  0  0  0  0  0  0
    1.9512  -22.3622   22.3681 C   0  0  1  0  0  0  0  0  0  0  0  0
    2.1289  -23.0121   23.7207 C   0  0  0  0  0  0  0  0  0  0  0  0
    0.9657  -22.8022   24.6290 C   0  0  0  0  0  0  0  0  0  0  0  0
    0.2699  -24.1204   24.8563 C   0  0  0  0  0  0  0  0  0  0  0  0
   -0.9364  -24.0324   25.7438 C   0  0  0  0  0  0  0  0  0  0  0  0
   -1.6247  -25.3344   25.7764 N   0  0  0  0  0  0  0  0  0  0  0  0
    3.2107  -21.7539   21.8808 C   0  0  0  0  0  0  0  0  0  0  0  0
    3.4865  -21.8039   20.6563 O   0  0  0  0  0  0  0  0  0  0  0  0
    4.1366  -21.1084   22.7316 N   0  0  0  0  0  0  0  0  0  0  0  0
    4.7594  -19.8352   22.3483 C   0  0  1  0  0  0  0  0  0  0  0  0
    3.6531  -18.8234   22.1471 C   0  0  0  0  0  0  0  0  0  0  0  0
    4.3295  -17.2242   21.6619 S   0  0  0  0  0  0  0  0  0  0  0  0
    5.6971  -19.3602   23.3668 C   0  0  0  0  0  0  0  0  0  0  0  0
    6.9145  -19.1226   23.1620 O   0  0  0  0  0  0  0  0  0  0  0  0
    5.2236  -19.1540   24.6496 O   0  0  0  0  0  0  0  0  0  0  0  0
  2  1  1  0
  3  2  1  0
  4  3  2  0
  5  3  1  0
  6 12  1  0
  6  5  1  0
  6  7  1  1
  8  7  1  0
  9  8  1  0
 10  9  1  0
 11 10  1  0
 12 14  1  0
 13 12  2  0
 14 15  1  0
 15 16  1  1
 15 18  1  0
 17 16  1  0
 18 19  2  0
 18 20  1  0
M  END
$$$$
