GKC.pdb
     RDKit          3D

 20 19  0  0  1  0  0  0  0  0999 V2000
   12.7332  -19.3650   15.4478 N   0  0  0  0  0  0  0  0  0  0  0  0
   12.6302  -20.6446   16.0913 C   0  0  0  0  0  0  0  0  0  0  0  0
   11.7144  -20.6008   17.2673 C   0  0  0  0  0  0  0  0  0  0  0  0
   11.9500  -19.7676   18.1723 O   0  0  0  0  0  0  0  0  0  0  0  0
   10.5945  -21.4541   17.4089 N   0  0  0  0  0  0  0  0  0  0  0  0
    9.6720  -21.3947   18.5225 C   0  0  1  0  0  0  0  0  0  0  0  0
    8.3403  -22.0255   18.1873 C   0  0  0  0  0  0  0  0  0  0  0  0
    7.3584  -21.9510   19.3064 C   0  0  0  0  0  0  0  0  0  0  0  0
    6.0680  -22.6025   18.8779 C   0  0  0  0  0  0  0  0  0  0  0  0
    5.0107  -22.6280   19.9420 C   0  0  0  0  0  0  0  0  0  0  0  0
    3.8163  -23.3277   19.4382 N   0  0  0  0  0  0  0  0  0  0  0  0
   10.2921  -22.0200   19.7135 C   0  0  0  0  0  0  0  0  0  0  0  0
   10.9011  -23.1117   19.5904 O   0  0  0  0  0  0  0  0  0  0  0  0
   10.2361  -21.4469   21.0044 N   0  0  0  0  0  0  0  0  0  0  0  0
   10.9209  -22.0727   22.1425 C   0  0  1  0  0  0  0  0  0  0  0  0
   11.8909  -21.0602   22.7100 C   0  0  0  0  0  0  0  0  0  0  0  0
   11.0105  -19.6360   23.3784 S   0  0  0  0  0  0  0  0  0  0  0  0
    9.9773  -22.5004   23.1764 C   0  0  0  0  0  0  0  0  0  0  0  0
    8.7716  -22.1487   23.2331 O   0  0  0  0  0  0  0  0  0  0  0  0
   10.4310  -23.3516   24.1674 O   0  0  0  0  0  0  0  0  0  0  0  0
  2  1  1  0
  3  2  1  0
  4  3  2  0
  5  3  1  0
  6 12  1  0
  6  5  1  0
  6  7  1  6
  8  7  1  0
  9  8  1  0
 10  9  1  0
 11 10  1  0
 12 14  1  0
 13 12  2  0
 14 15  1  0
 15 16  1  1
 15 18  1  0
 17 16  1  0
 18 19  2  0
 18 20  1  0
M  END
$$$$
