GKC.pdb
     RDKit          3D

 20 19  0  0  1  0  0  0  0  0999 V2000
    7.8098  -18.3910   17.5339 N   0  0  0  0  0  0  0  0  0  0  0  0
    7.0272  -19.2864   18.3389 C   0  0  0  0  0  0  0  0  0  0  0  0
    6.6069  -18.6533   19.6220 C   0  0  0  0  0  0  0  0  0  0  0  0
    6.9618  -17.4732   19.8458 O   0  0  0  0  0  0  0  0  0  0  0  0
    5.8278  -19.3212   20.5963 N   0  0  0  0  0  0  0  0  0  0  0  0
    5.2690  -18.6734   21.7637 C   0  0  1  0  0  0  0  0  0  0  0  0
    3.9941  -19.3413   22.2244 C   0  0  0  0  0  0  0  0  0  0  0  0
    2.8590  -19.1541   21.2765 C   0  0  0  0  0  0  0  0  0  0  0  0
    1.6641  -19.9266   21.7751 C   0  0  0  0  0  0  0  0  0  0  0  0
    0.4728  -19.8689   20.8651 C   0  0  0  0  0  0  0  0  0  0  0  0
   -0.6365  -20.6417   21.4499 N   0  0  0  0  0  0  0  0  0  0  0  0
    6.2858  -18.6284   22.8398 C   0  0  0  0  0  0  0  0  0  0  0  0
    7.1094  -19.5704   22.9499 O   0  0  0  0  0  0  0  0  0  0  0  0
    6.3833  -17.5657   23.7666 N   0  0  0  0  0  0  0  0  0  0  0  0
    7.4531  -17.5315   24.7717 C   0  0  1  0  0  0  0  0  0  0  0  0
    7.5180  -16.1264   25.3279 C   0  0  0  0  0  0  0  0  0  0  0  0
    8.7248  -16.0221   26.6632 S   0  0  0  0  0  0  0  0  0  0  0  0
    7.2150  -18.4900   25.8519 C   0  0  0  0  0  0  0  0  0  0  0  0
    6.0783  -18.8580   26.2431 O   0  0  0  0  0  0  0  0  0  0  0  0
    8.3092  -19.0376   26.4965 O   0  0  0  0  0  0  0  0  0  0  0  0
  2  1  1  0
  3  2  1  0
  4  3  2  0
  5  3  1  0
  6 12  1  0
  6  5  1  0
  6  7  1  1
  8  7  1  0
  9  8  1  0
 10  9  1  0
 11 10  1  0
 12 14  1  0
 13 12  2  0
 14 15  1  0
 15 16  1  1
 15 18  1  0
 17 16  1  0
 18 19  2  0
 18 20  1  0
M  END
$$$$
