GKC.pdb
     RDKit          3D

 20 19  0  0  1  0  0  0  0  0999 V2000
    4.9462  -20.5194   20.1805 N   0  0  0  0  0  0  0  0  0  0  0  0
    5.0634  -19.5341   21.2186 C   0  0  0  0  0  0  0  0  0  0  0  0
    6.0464  -18.4703   20.8639 C   0  0  0  0  0  0  0  0  0  0  0  0
    6.9717  -18.7580   20.0703 O   0  0  0  0  0  0  0  0  0  0  0  0
    5.9833  -17.1544   21.3802 N   0  0  0  0  0  0  0  0  0  0  0  0
    7.0209  -16.1635   21.1897 C   0  0  1  0  0  0  0  0  0  0  0  0
    6.5128  -14.7604   21.4281 C   0  0  0  0  0  0  0  0  0  0  0  0
    7.4805  -13.7075   21.0073 C   0  0  0  0  0  0  0  0  0  0  0  0
    7.5846  -13.7024   19.5031 C   0  0  0  0  0  0  0  0  0  0  0  0
    8.6011  -12.7409   18.9618 C   0  0  0  0  0  0  0  0  0  0  0  0
    8.5490  -12.7404   17.4896 N   0  0  0  0  0  0  0  0  0  0  0  0
    8.1776  -16.4841   22.0577 C   0  0  0  0  0  0  0  0  0  0  0  0
    7.9853  -16.7376   23.2729 O   0  0  0  0  0  0  0  0  0  0  0  0
    9.5098  -16.5217   21.5869 N   0  0  0  0  0  0  0  0  0  0  0  0
   10.6212  -16.8674   22.4820 C   0  0  1  0  0  0  0  0  0  0  0  0
   11.9043  -16.7504   21.6897 C   0  0  0  0  0  0  0  0  0  0  0  0
   13.3304  -17.1435   22.7202 S   0  0  0  0  0  0  0  0  0  0  0  0
   10.6701  -15.9895   23.6521 C   0  0  0  0  0  0  0  0  0  0  0  0
   10.3474  -14.7744   23.6478 O   0  0  0  0  0  0  0  0  0  0  0  0
   11.1000  -16.5213   24.8541 O   0  0  0  0  0  0  0  0  0  0  0  0
  2  1  1  0
  3  2  1  0
  4  3  2  0
  5  3  1  0
  6 12  1  0
  6  5  1  0
  6  7  1  1
  8  7  1  0
  9  8  1  0
 10  9  1  0
 11 10  1  0
 12 14  1  0
 13 12  2  0
 14 15  1  0
 15 16  1  6
 15 18  1  0
 17 16  1  0
 18 19  2  0
 18 20  1  0
M  END
$$$$
