GKC.pdb
     RDKit          3D

 20 19  0  0  1  0  0  0  0  0999 V2000
    7.1476  -12.6082   19.3088 N   0  0  0  0  0  0  0  0  0  0  0  0
    8.2063  -13.3885   19.8856 C   0  0  0  0  0  0  0  0  0  0  0  0
    7.7552  -14.1174   21.1059 C   0  0  0  0  0  0  0  0  0  0  0  0
    6.5811  -13.9389   21.5039 O   0  0  0  0  0  0  0  0  0  0  0  0
    8.5890  -14.9991   21.8337 N   0  0  0  0  0  0  0  0  0  0  0  0
    8.1757  -15.6902   23.0364 C   0  0  1  0  0  0  0  0  0  0  0  0
    8.6556  -17.1230   23.0578 C   0  0  0  0  0  0  0  0  0  0  0  0
    8.0723  -17.9526   21.9653 C   0  0  0  0  0  0  0  0  0  0  0  0
    8.6687  -19.3363   22.0211 C   0  0  0  0  0  0  0  0  0  0  0  0
    8.1435  -20.2734   20.9740 C   0  0  0  0  0  0  0  0  0  0  0  0
    8.7875  -21.5904   21.1185 N   0  0  0  0  0  0  0  0  0  0  0  0
    8.6396  -14.9373   24.2247 C   0  0  0  0  0  0  0  0  0  0  0  0
    9.8521  -14.6240   24.3217 O   0  0  0  0  0  0  0  0  0  0  0  0
    7.7789  -14.5445   25.2748 N   0  0  0  0  0  0  0  0  0  0  0  0
    8.2989  -13.8646   26.4677 C   0  0  1  0  0  0  0  0  0  0  0  0
    7.1398  -13.1627   27.1400 C   0  0  0  0  0  0  0  0  0  0  0  0
    6.2786  -12.0903   25.9745 S   0  0  0  0  0  0  0  0  0  0  0  0
    8.9270  -14.8036   27.3983 C   0  0  0  0  0  0  0  0  0  0  0  0
    8.9559  -16.0510   27.2439 O   0  0  0  0  0  0  0  0  0  0  0  0
    9.5355  -14.2963   28.5318 O   0  0  0  0  0  0  0  0  0  0  0  0
  2  1  1  0
  3  2  1  0
  4  3  2  0
  5  3  1  0
  6 12  1  0
  6  5  1  0
  6  7  1  6
  8  7  1  0
  9  8  1  0
 10  9  1  0
 11 10  1  0
 12 14  1  0
 13 12  2  0
 14 15  1  0
 15 16  1  1
 15 18  1  0
 17 16  1  0
 18 19  2  0
 18 20  1  0
M  END
$$$$
