GKC.pdb
     RDKit          3D

 20 19  0  0  1  0  0  0  0  0999 V2000
    7.5313  -13.1371   18.9838 N   0  0  0  0  0  0  0  0  0  0  0  0
    8.3537  -14.0925   19.6717 C   0  0  0  0  0  0  0  0  0  0  0  0
    7.8180  -14.4101   21.0267 C   0  0  0  0  0  0  0  0  0  0  0  0
    6.9763  -13.6309   21.5299 O   0  0  0  0  0  0  0  0  0  0  0  0
    8.2147  -15.5476   21.7691 N   0  0  0  0  0  0  0  0  0  0  0  0
    7.6984  -15.8735   23.0813 C   0  0  1  0  0  0  0  0  0  0  0  0
    7.9313  -17.3239   23.4358 C   0  0  0  0  0  0  0  0  0  0  0  0
    7.4616  -17.6748   24.8064 C   0  0  0  0  0  0  0  0  0  0  0  0
    7.6873  -19.1462   25.0463 C   0  0  0  0  0  0  0  0  0  0  0  0
    7.1329  -19.6478   26.3469 C   0  0  0  0  0  0  0  0  0  0  0  0
    7.3845  -21.0941   26.4688 N   0  0  0  0  0  0  0  0  0  0  0  0
    8.2889  -14.9602   24.0870 C   0  0  0  0  0  0  0  0  0  0  0  0
    9.5381  -14.8574   24.1686 O   0  0  0  0  0  0  0  0  0  0  0  0
    7.5115  -14.1838   24.9762 N   0  0  0  0  0  0  0  0  0  0  0  0
    8.1439  -13.2881   25.9527 C   0  0  1  0  0  0  0  0  0  0  0  0
    7.2780  -12.0538   26.0741 C   0  0  0  0  0  0  0  0  0  0  0  0
    5.6218  -12.4875   26.6392 S   0  0  0  0  0  0  0  0  0  0  0  0
    8.2939  -13.9284   27.2603 C   0  0  0  0  0  0  0  0  0  0  0  0
    7.7790  -15.0300   27.5798 O   0  0  0  0  0  0  0  0  0  0  0  0
    9.0533  -13.2872   28.2219 O   0  0  0  0  0  0  0  0  0  0  0  0
  2  1  1  0
  3  2  1  0
  4  3  2  0
  5  3  1  0
  6 12  1  0
  6  5  1  0
  6  7  1  1
  8  7  1  0
  9  8  1  0
 10  9  1  0
 11 10  1  0
 12 14  1  0
 13 12  2  0
 14 15  1  0
 15 16  1  1
 15 18  1  0
 17 16  1  0
 18 19  2  0
 18 20  1  0
M  END
$$$$
