GKC.pdb
     RDKit          3D

 20 19  0  0  1  0  0  0  0  0999 V2000
    5.1832  -20.4181   22.5938 N   0  0  0  0  0  0  0  0  0  0  0  0
    5.0103  -19.1116   23.1640 C   0  0  0  0  0  0  0  0  0  0  0  0
    6.0971  -18.1784   22.7497 C   0  0  0  0  0  0  0  0  0  0  0  0
    7.2416  -18.6488   22.5560 O   0  0  0  0  0  0  0  0  0  0  0  0
    5.8970  -16.7898   22.5654 N   0  0  0  0  0  0  0  0  0  0  0  0
    6.9555  -15.8602   22.2331 C   0  0  1  0  0  0  0  0  0  0  0  0
    6.4127  -14.5360   21.7479 C   0  0  0  0  0  0  0  0  0  0  0  0
    7.4747  -13.6118   21.2577 C   0  0  0  0  0  0  0  0  0  0  0  0
    7.5685  -13.7161   19.7565 C   0  0  0  0  0  0  0  0  0  0  0  0
    8.6361  -12.8562   19.1472 C   0  0  0  0  0  0  0  0  0  0  0  0
    8.7162  -13.1155   17.6993 N   0  0  0  0  0  0  0  0  0  0  0  0
    7.8520  -15.6924   23.4002 C   0  0  0  0  0  0  0  0  0  0  0  0
    7.3950  -15.2055   24.4641 O   0  0  0  0  0  0  0  0  0  0  0  0
    9.2178  -16.0560   23.3837 N   0  0  0  0  0  0  0  0  0  0  0  0
   10.1003  -15.7408   24.5141 C   0  0  1  0  0  0  0  0  0  0  0  0
    9.7120  -16.6403   25.6665 C   0  0  0  0  0  0  0  0  0  0  0  0
    9.5992  -18.3571   25.1280 S   0  0  0  0  0  0  0  0  0  0  0  0
   11.5103  -15.9381   24.1744 C   0  0  0  0  0  0  0  0  0  0  0  0
   12.4688  -15.7535   24.9668 O   0  0  0  0  0  0  0  0  0  0  0  0
   11.8246  -16.3569   22.8945 O   0  0  0  0  0  0  0  0  0  0  0  0
  2  1  1  0
  3  2  1  0
  4  3  2  0
  5  3  1  0
  6 12  1  0
  6  5  1  0
  6  7  1  1
  8  7  1  0
  9  8  1  0
 10  9  1  0
 11 10  1  0
 12 14  1  0
 13 12  2  0
 14 15  1  0
 15 16  1  1
 15 18  1  0
 17 16  1  0
 18 19  2  0
 18 20  1  0
M  END
$$$$
