GKC.pdb
     RDKit          3D

 20 19  0  0  1  0  0  0  0  0999 V2000
    7.8576  -12.6381   18.5750 N   0  0  0  0  0  0  0  0  0  0  0  0
    8.7188  -13.6047   19.1966 C   0  0  0  0  0  0  0  0  0  0  0  0
    8.1493  -14.1101   20.4787 C   0  0  0  0  0  0  0  0  0  0  0  0
    7.1116  -13.5667   20.9224 O   0  0  0  0  0  0  0  0  0  0  0  0
    8.7244  -15.1721   21.2161 N   0  0  0  0  0  0  0  0  0  0  0  0
    8.1195  -15.7547   22.3949 C   0  0  1  0  0  0  0  0  0  0  0  0
    8.6184  -17.1580   22.6511 C   0  0  0  0  0  0  0  0  0  0  0  0
    7.8625  -18.1959   21.8939 C   0  0  0  0  0  0  0  0  0  0  0  0
    8.4992  -19.5425   22.1279 C   0  0  0  0  0  0  0  0  0  0  0  0
    7.7828  -20.6830   21.4672 C   0  0  0  0  0  0  0  0  0  0  0  0
    8.5494  -21.9267   21.6558 N   0  0  0  0  0  0  0  0  0  0  0  0
    8.3494  -14.8685   23.5593 C   0  0  0  0  0  0  0  0  0  0  0  0
    9.4860  -14.3633   23.7350 O   0  0  0  0  0  0  0  0  0  0  0  0
    7.3435  -14.5536   24.5010 N   0  0  0  0  0  0  0  0  0  0  0  0
    7.6048  -13.6253   25.6082 C   0  0  1  0  0  0  0  0  0  0  0  0
    6.3301  -12.8559   25.8749 C   0  0  0  0  0  0  0  0  0  0  0  0
    6.5220  -11.7766   27.3062 S   0  0  0  0  0  0  0  0  0  0  0  0
    8.0306  -14.3292   26.8188 C   0  0  0  0  0  0  0  0  0  0  0  0
    7.7290  -15.5173   27.0980 O   0  0  0  0  0  0  0  0  0  0  0  0
    8.8211  -13.6510   27.7285 O   0  0  0  0  0  0  0  0  0  0  0  0
  2  1  1  0
  3  2  1  0
  4  3  2  0
  5  3  1  0
  6 12  1  0
  6  5  1  0
  6  7  1  1
  8  7  1  0
  9  8  1  0
 10  9  1  0
 11 10  1  0
 12 14  1  0
 13 12  2  0
 14 15  1  0
 15 16  1  1
 15 18  1  0
 17 16  1  0
 18 19  2  0
 18 20  1  0
M  END
$$$$
