GKC.pdb
     RDKit          3D

 20 19  0  0  1  0  0  0  0  0999 V2000
    5.3773  -19.1163   21.9952 N   0  0  0  0  0  0  0  0  0  0  0  0
    5.4241  -17.7597   22.4637 C   0  0  0  0  0  0  0  0  0  0  0  0
    6.6089  -17.0296   21.9281 C   0  0  0  0  0  0  0  0  0  0  0  0
    7.4597  -17.6767   21.2752 O   0  0  0  0  0  0  0  0  0  0  0  0
    6.8171  -15.6434   22.1221 N   0  0  0  0  0  0  0  0  0  0  0  0
    8.0319  -14.9510   21.7485 C   0  0  1  0  0  0  0  0  0  0  0  0
    7.7792  -13.4935   21.4394 C   0  0  0  0  0  0  0  0  0  0  0  0
    7.1275  -13.2797   20.1159 C   0  0  0  0  0  0  0  0  0  0  0  0
    8.1172  -13.5863   19.0206 C   0  0  0  0  0  0  0  0  0  0  0  0
    7.5617  -13.4441   17.6343 C   0  0  0  0  0  0  0  0  0  0  0  0
    8.5810  -13.8417   16.6479 N   0  0  0  0  0  0  0  0  0  0  0  0
    9.0460  -15.1190   22.8149 C   0  0  0  0  0  0  0  0  0  0  0  0
    8.7417  -14.8492   24.0034 O   0  0  0  0  0  0  0  0  0  0  0  0
   10.3608  -15.5739   22.5660 N   0  0  0  0  0  0  0  0  0  0  0  0
   11.2493  -15.9656   23.6674 C   0  0  1  0  0  0  0  0  0  0  0  0
   10.6139  -17.1412   24.3761 C   0  0  0  0  0  0  0  0  0  0  0  0
   11.3965  -17.4229   25.9756 S   0  0  0  0  0  0  0  0  0  0  0  0
   12.5834  -16.3285   23.1870 C   0  0  0  0  0  0  0  0  0  0  0  0
   12.8766  -16.5378   21.9825 O   0  0  0  0  0  0  0  0  0  0  0  0
   13.6029  -16.4535   24.1129 O   0  0  0  0  0  0  0  0  0  0  0  0
  2  1  1  0
  3  2  1  0
  4  3  2  0
  5  3  1  0
  6 12  1  0
  6  5  1  0
  6  7  1  1
  8  7  1  0
  9  8  1  0
 10  9  1  0
 11 10  1  0
 12 14  1  0
 13 12  2  0
 14 15  1  0
 15 16  1  6
 15 18  1  0
 17 16  1  0
 18 19  2  0
 18 20  1  0
M  END
$$$$
