GKC.pdb
     RDKit          3D

 20 19  0  0  1  0  0  0  0  0999 V2000
    9.9591  -15.6278   19.5601 N   0  0  0  0  0  0  0  0  0  0  0  0
   10.6528  -16.2681   20.6422 C   0  0  0  0  0  0  0  0  0  0  0  0
    9.8695  -16.2160   21.9100 C   0  0  0  0  0  0  0  0  0  0  0  0
    9.1113  -15.2372   22.0994 O   0  0  0  0  0  0  0  0  0  0  0  0
    9.9421  -17.2176   22.9069 N   0  0  0  0  0  0  0  0  0  0  0  0
    9.2607  -17.1369   24.1812 C   0  0  1  0  0  0  0  0  0  0  0  0
    8.9892  -18.5044   24.7643 C   0  0  0  0  0  0  0  0  0  0  0  0
    8.2980  -18.4520   26.0839 C   0  0  0  0  0  0  0  0  0  0  0  0
    8.0699  -19.8574   26.5804 C   0  0  0  0  0  0  0  0  0  0  0  0
    7.4191  -19.9333   27.9299 C   0  0  0  0  0  0  0  0  0  0  0  0
    7.2721  -21.3429   28.3315 N   0  0  0  0  0  0  0  0  0  0  0  0
   10.0444  -16.2894   25.1094 C   0  0  0  0  0  0  0  0  0  0  0  0
   11.2934  -16.4156   25.1544 O   0  0  0  0  0  0  0  0  0  0  0  0
    9.4552  -15.3291   25.9629 N   0  0  0  0  0  0  0  0  0  0  0  0
   10.2761  -14.5062   26.8600 C   0  0  1  0  0  0  0  0  0  0  0  0
    9.7359  -13.0940   26.8128 C   0  0  0  0  0  0  0  0  0  0  0  0
    7.9812  -13.0664   27.2255 S   0  0  0  0  0  0  0  0  0  0  0  0
   10.2510  -15.0092   28.2342 C   0  0  0  0  0  0  0  0  0  0  0  0
    9.5175  -15.9467   28.6387 O   0  0  0  0  0  0  0  0  0  0  0  0
   11.0886  -14.4205   29.1640 O   0  0  0  0  0  0  0  0  0  0  0  0
  2  1  1  0
  3  2  1  0
  4  3  2  0
  5  3  1  0
  6 12  1  0
  6  5  1  0
  6  7  1  1
  8  7  1  0
  9  8  1  0
 10  9  1  0
 11 10  1  0
 12 14  1  0
 13 12  2  0
 14 15  1  0
 15 16  1  1
 15 18  1  0
 17 16  1  0
 18 19  2  0
 18 20  1  0
M  END
$$$$
