GKC.pdb
     RDKit          3D

 20 19  0  0  1  0  0  0  0  0999 V2000
    5.2674  -20.5501   22.9117 N   0  0  0  0  0  0  0  0  0  0  0  0
    4.8243  -19.1844   22.9380 C   0  0  0  0  0  0  0  0  0  0  0  0
    5.9330  -18.2366   22.6282 C   0  0  0  0  0  0  0  0  0  0  0  0
    7.1037  -18.6811   22.6007 O   0  0  0  0  0  0  0  0  0  0  0  0
    5.7256  -16.8619   22.3644 N   0  0  0  0  0  0  0  0  0  0  0  0
    6.7956  -15.9169   22.1257 C   0  0  1  0  0  0  0  0  0  0  0  0
    6.2882  -14.6318   21.5134 C   0  0  0  0  0  0  0  0  0  0  0  0
    7.3809  -13.6882   21.1425 C   0  0  0  0  0  0  0  0  0  0  0  0
    7.6858  -13.8356   19.6732 C   0  0  0  0  0  0  0  0  0  0  0  0
    8.7578  -12.9126   19.1735 C   0  0  0  0  0  0  0  0  0  0  0  0
    9.0755  -13.2340   17.7714 N   0  0  0  0  0  0  0  0  0  0  0  0
    7.5306  -15.6715   23.3881 C   0  0  0  0  0  0  0  0  0  0  0  0
    6.9149  -15.2087   24.3804 O   0  0  0  0  0  0  0  0  0  0  0  0
    8.9110  -15.9336   23.5417 N   0  0  0  0  0  0  0  0  0  0  0  0
    9.6163  -15.5833   24.7809 C   0  0  1  0  0  0  0  0  0  0  0  0
    8.9493  -16.3269   25.9167 C   0  0  0  0  0  0  0  0  0  0  0  0
    9.2918  -18.0939   25.8128 S   0  0  0  0  0  0  0  0  0  0  0  0
   11.0362  -15.9325   24.7157 C   0  0  0  0  0  0  0  0  0  0  0  0
   11.5776  -16.5480   23.7624 O   0  0  0  0  0  0  0  0  0  0  0  0
   11.8515  -15.5655   25.7707 O   0  0  0  0  0  0  0  0  0  0  0  0
  2  1  1  0
  3  2  1  0
  4  3  2  0
  5  3  1  0
  6 12  1  0
  6  5  1  0
  6  7  1  1
  8  7  1  0
  9  8  1  0
 10  9  1  0
 11 10  1  0
 12 14  1  0
 13 12  2  0
 14 15  1  0
 15 16  1  1
 15 18  1  0
 17 16  1  0
 18 19  2  0
 18 20  1  0
M  END
$$$$
