GKC.pdb
     RDKit          3D

 20 19  0  0  1  0  0  0  0  0999 V2000
    4.7130  -19.5516   22.8573 N   0  0  0  0  0  0  0  0  0  0  0  0
    4.7278  -18.1240   23.0115 C   0  0  0  0  0  0  0  0  0  0  0  0
    6.0460  -17.5397   22.6310 C   0  0  0  0  0  0  0  0  0  0  0  0
    7.0261  -18.3111   22.5158 O   0  0  0  0  0  0  0  0  0  0  0  0
    6.2415  -16.1584   22.3945 N   0  0  0  0  0  0  0  0  0  0  0  0
    7.5224  -15.5708   22.0646 C   0  0  1  0  0  0  0  0  0  0  0  0
    7.3702  -14.2376   21.3694 C   0  0  0  0  0  0  0  0  0  0  0  0
    6.9500  -14.3643   19.9449 C   0  0  0  0  0  0  0  0  0  0  0  0
    7.7173  -13.3695   19.1112 C   0  0  0  0  0  0  0  0  0  0  0  0
    7.3536  -13.3787   17.6558 C   0  0  0  0  0  0  0  0  0  0  0  0
    8.2674  -12.4959   16.9103 N   0  0  0  0  0  0  0  0  0  0  0  0
    8.3474  -15.4607   23.2898 C   0  0  0  0  0  0  0  0  0  0  0  0
    7.8677  -14.9039   24.3085 O   0  0  0  0  0  0  0  0  0  0  0  0
    9.6682  -15.9561   23.3789 N   0  0  0  0  0  0  0  0  0  0  0  0
   10.3899  -15.9666   24.6575 C   0  0  1  0  0  0  0  0  0  0  0  0
    9.6095  -16.8344   25.6198 C   0  0  0  0  0  0  0  0  0  0  0  0
   10.4697  -16.9723   27.1983 S   0  0  0  0  0  0  0  0  0  0  0  0
   11.7526  -16.4796   24.5086 C   0  0  0  0  0  0  0  0  0  0  0  0
   12.1908  -17.0558   23.4807 O   0  0  0  0  0  0  0  0  0  0  0  0
   12.6308  -16.3262   25.5657 O   0  0  0  0  0  0  0  0  0  0  0  0
  2  1  1  0
  3  2  1  0
  4  3  2  0
  5  3  1  0
  6 12  1  0
  6  5  1  0
  6  7  1  1
  8  7  1  0
  9  8  1  0
 10  9  1  0
 11 10  1  0
 12 14  1  0
 13 12  2  0
 14 15  1  0
 15 16  1  1
 15 18  1  0
 17 16  1  0
 18 19  2  0
 18 20  1  0
M  END
$$$$
