GKC.pdb
     RDKit          3D

 20 19  0  0  1  0  0  0  0  0999 V2000
    7.2192  -13.2773   19.8037 N   0  0  0  0  0  0  0  0  0  0  0  0
    7.8760  -14.4151   20.3835 C   0  0  0  0  0  0  0  0  0  0  0  0
    7.3674  -14.7090   21.7542 C   0  0  0  0  0  0  0  0  0  0  0  0
    6.5556  -13.9071   22.2707 O   0  0  0  0  0  0  0  0  0  0  0  0
    7.7576  -15.8483   22.4972 N   0  0  0  0  0  0  0  0  0  0  0  0
    7.2919  -16.1345   23.8374 C   0  0  1  0  0  0  0  0  0  0  0  0
    7.4063  -17.6033   24.1736 C   0  0  0  0  0  0  0  0  0  0  0  0
    6.4118  -18.4484   23.4533 C   0  0  0  0  0  0  0  0  0  0  0  0
    6.6816  -19.9002   23.7579 C   0  0  0  0  0  0  0  0  0  0  0  0
    5.6658  -20.8458   23.1881 C   0  0  0  0  0  0  0  0  0  0  0  0
    6.0373  -22.2322   23.5196 N   0  0  0  0  0  0  0  0  0  0  0  0
    8.0257  -15.2897   24.8079 C   0  0  0  0  0  0  0  0  0  0  0  0
    9.2735  -15.1817   24.7118 O   0  0  0  0  0  0  0  0  0  0  0  0
    7.3893  -14.5854   25.8551 N   0  0  0  0  0  0  0  0  0  0  0  0
    8.1578  -13.7402   26.7775 C   0  0  1  0  0  0  0  0  0  0  0  0
    7.2053  -12.7310   27.3797 C   0  0  0  0  0  0  0  0  0  0  0  0
    6.1567  -12.0026   26.1068 S   0  0  0  0  0  0  0  0  0  0  0  0
    8.7922  -14.5275   27.8358 C   0  0  0  0  0  0  0  0  0  0  0  0
    8.5975  -15.7546   28.0279 O   0  0  0  0  0  0  0  0  0  0  0  0
    9.6703  -13.8888   28.6923 O   0  0  0  0  0  0  0  0  0  0  0  0
  2  1  1  0
  3  2  1  0
  4  3  2  0
  5  3  1  0
  6 12  1  0
  6  5  1  0
  6  7  1  1
  8  7  1  0
  9  8  1  0
 10  9  1  0
 11 10  1  0
 12 14  1  0
 13 12  2  0
 14 15  1  0
 15 16  1  1
 15 18  1  0
 17 16  1  0
 18 19  2  0
 18 20  1  0
M  END
$$$$
