GKC.pdb
     RDKit          3D

 20 19  0  0  1  0  0  0  0  0999 V2000
    7.5642  -12.8643   18.7298 N   0  0  0  0  0  0  0  0  0  0  0  0
    8.4861  -13.6597   19.4911 C   0  0  0  0  0  0  0  0  0  0  0  0
    7.9033  -14.0856   20.7961 C   0  0  0  0  0  0  0  0  0  0  0  0
    6.9834  -13.3934   21.2895 O   0  0  0  0  0  0  0  0  0  0  0  0
    8.3395  -15.2320   21.5016 N   0  0  0  0  0  0  0  0  0  0  0  0
    7.7869  -15.6560   22.7703 C   0  0  1  0  0  0  0  0  0  0  0  0
    8.0071  -17.1304   23.0181 C   0  0  0  0  0  0  0  0  0  0  0  0
    7.4582  -17.5934   24.3243 C   0  0  0  0  0  0  0  0  0  0  0  0
    7.7730  -19.0570   24.5037 C   0  0  0  0  0  0  0  0  0  0  0  0
    7.1007  -19.6887   25.6867 C   0  0  0  0  0  0  0  0  0  0  0  0
    7.3626  -21.1383   25.6908 N   0  0  0  0  0  0  0  0  0  0  0  0
    8.3514  -14.8253   23.8591 C   0  0  0  0  0  0  0  0  0  0  0  0
    9.5842  -14.5852   23.8757 O   0  0  0  0  0  0  0  0  0  0  0  0
    7.5666  -14.2778   24.8993 N   0  0  0  0  0  0  0  0  0  0  0  0
    8.1741  -13.4651   25.9606 C   0  0  1  0  0  0  0  0  0  0  0  0
    7.1763  -12.3975   26.3516 C   0  0  0  0  0  0  0  0  0  0  0  0
    5.6118  -13.1381   26.8557 S   0  0  0  0  0  0  0  0  0  0  0  0
    8.5300  -14.2733   27.1278 C   0  0  0  0  0  0  0  0  0  0  0  0
    8.2662  -15.4956   27.2579 O   0  0  0  0  0  0  0  0  0  0  0  0
    9.2046  -13.6616   28.1686 O   0  0  0  0  0  0  0  0  0  0  0  0
  2  1  1  0
  3  2  1  0
  4  3  2  0
  5  3  1  0
  6 12  1  0
  6  5  1  0
  6  7  1  1
  8  7  1  0
  9  8  1  0
 10  9  1  0
 11 10  1  0
 12 14  1  0
 13 12  2  0
 14 15  1  0
 15 16  1  1
 15 18  1  0
 17 16  1  0
 18 19  2  0
 18 20  1  0
M  END
$$$$
