GKC.pdb
     RDKit          3D

 20 19  0  0  1  0  0  0  0  0999 V2000
   13.1642  -19.8508   15.3967 N   0  0  0  0  0  0  0  0  0  0  0  0
   12.6454  -21.0311   16.0291 C   0  0  0  0  0  0  0  0  0  0  0  0
   11.8989  -20.7071   17.2787 C   0  0  0  0  0  0  0  0  0  0  0  0
   11.8969  -19.5200   17.6780 O   0  0  0  0  0  0  0  0  0  0  0  0
   11.1942  -21.6751   18.0328 N   0  0  0  0  0  0  0  0  0  0  0  0
   10.4268  -21.3686   19.2210 C   0  0  1  0  0  0  0  0  0  0  0  0
    9.3533  -22.3998   19.4819 C   0  0  0  0  0  0  0  0  0  0  0  0
    8.4896  -22.0639   20.6494 C   0  0  0  0  0  0  0  0  0  0  0  0
    7.3697  -23.0691   20.7432 C   0  0  0  0  0  0  0  0  0  0  0  0
    6.3913  -22.7964   21.8473 C   0  0  0  0  0  0  0  0  0  0  0  0
    5.4112  -23.8934   21.9242 N   0  0  0  0  0  0  0  0  0  0  0  0
   11.3409  -21.2223   20.3773 C   0  0  0  0  0  0  0  0  0  0  0  0
   12.2722  -22.0502   20.5359 O   0  0  0  0  0  0  0  0  0  0  0  0
   11.2222  -20.1845   21.3295 N   0  0  0  0  0  0  0  0  0  0  0  0
   12.1292  -20.1044   22.4813 C   0  0  1  0  0  0  0  0  0  0  0  0
   12.4163  -18.6421   22.7409 C   0  0  0  0  0  0  0  0  0  0  0  0
   14.0630  -18.4284   23.4429 S   0  0  0  0  0  0  0  0  0  0  0  0
   11.5491  -20.7231   23.6742 C   0  0  0  0  0  0  0  0  0  0  0  0
   10.3236  -20.9523   23.8361 O   0  0  0  0  0  0  0  0  0  0  0  0
   12.3978  -21.0862   24.7039 O   0  0  0  0  0  0  0  0  0  0  0  0
  2  1  1  0
  3  2  1  0
  4  3  2  0
  5  3  1  0
  6 12  1  0
  6  5  1  0
  6  7  1  1
  8  7  1  0
  9  8  1  0
 10  9  1  0
 11 10  1  0
 12 14  1  0
 13 12  2  0
 14 15  1  0
 15 16  1  1
 15 18  1  0
 17 16  1  0
 18 19  2  0
 18 20  1  0
M  END
$$$$
