GEK.pdb
     RDKit          3D

 23 22  0  0  1  0  0  0  0  0999 V2000
   26.1391  -22.4515  -13.6126 N   0  0  0  0  0  0  0  0  0  0  0  0
   25.2311  -21.8601  -14.5483 C   0  0  0  0  0  0  0  0  0  0  0  0
   24.0211  -21.3028  -13.9173 C   0  0  0  0  0  0  0  0  0  0  0  0
   24.1323  -20.8570  -12.7395 O   0  0  0  0  0  0  0  0  0  0  0  0
   22.7593  -21.2405  -14.5502 N   0  0  0  0  0  0  0  0  0  0  0  0
   21.6442  -20.5120  -13.8759 C   0  0  1  0  0  0  0  0  0  0  0  0
   21.0471  -19.5729  -14.9042 C   0  0  0  0  0  0  0  0  0  0  0  0
   21.8376  -18.3223  -15.0965 C   0  0  0  0  0  0  0  0  0  0  0  0
   21.1255  -17.4137  -16.0420 C   0  0  0  0  0  0  0  0  0  0  0  0
   20.3780  -16.5137  -15.5957 O   0  0  0  0  0  0  0  0  0  0  0  0
   20.7118  -21.5560  -13.4084 C   0  0  0  0  0  0  0  0  0  0  0  0
   20.4395  -22.5708  -14.1428 O   0  0  0  0  0  0  0  0  0  0  0  0
   21.2892  -17.5678  -17.4016 O   0  0  0  0  0  0  0  0  0  0  0  0
   20.0495  -21.5507  -12.1482 N   0  0  0  0  0  0  0  0  0  0  0  0
   19.1768  -22.6482  -11.7385 C   0  0  1  0  0  0  0  0  0  0  0  0
   18.9232  -22.4548  -10.2730 C   0  0  0  0  0  0  0  0  0  0  0  0
   17.9552  -23.3834   -9.6443 C   0  0  0  0  0  0  0  0  0  0  0  0
   18.5769  -24.4801   -8.8508 C   0  0  0  0  0  0  0  0  0  0  0  0
   17.6641  -25.5393   -8.3271 C   0  0  0  0  0  0  0  0  0  0  0  0
   18.2981  -26.6762   -7.7580 N   0  0  0  0  0  0  0  0  0  0  0  0
   18.0171  -22.7966  -12.5949 C   0  0  0  0  0  0  0  0  0  0  0  0
   17.4395  -21.7822  -13.0564 O   0  0  0  0  0  0  0  0  0  0  0  0
   17.5196  -24.0311  -12.9269 O   0  0  0  0  0  0  0  0  0  0  0  0
  2  1  1  0
  3  5  1  0
  3  2  1  0
  4  3  2  0
  6  5  1  0
  6 11  1  0
  6  7  1  6
  8  7  1  0
  9  8  1  0
 10  9  2  0
 11 14  1  0
 12 11  2  0
 13  9  1  0
 14 15  1  0
 15 21  1  0
 15 16  1  1
 17 16  1  0
 18 17  1  0
 19 18  1  0
 20 19  1  0
 21 23  1  0
 22 21  2  0
M  END
$$$$
