GEK.pdb
     RDKit          3D

 23 22  0  0  1  0  0  0  0  0999 V2000
   15.8025  -13.1925  -13.7402 N   0  0  0  0  0  0  0  0  0  0  0  0
   16.3249  -12.1017  -14.5063 C   0  0  0  0  0  0  0  0  0  0  0  0
   17.0596  -11.1150  -13.6940 C   0  0  0  0  0  0  0  0  0  0  0  0
   17.2173  -11.3741  -12.4668 O   0  0  0  0  0  0  0  0  0  0  0  0
   17.5907   -9.9103  -14.2071 N   0  0  0  0  0  0  0  0  0  0  0  0
   18.2299   -8.9411  -13.2686 C   0  0  1  0  0  0  0  0  0  0  0  0
   19.1983   -8.1105  -14.0861 C   0  0  0  0  0  0  0  0  0  0  0  0
   19.8655   -7.0316  -13.3007 C   0  0  0  0  0  0  0  0  0  0  0  0
   21.0746   -7.5772  -12.6172 C   0  0  0  0  0  0  0  0  0  0  0  0
   21.0186   -7.8821  -11.4039 O   0  0  0  0  0  0  0  0  0  0  0  0
   17.1209   -8.1620  -12.6845 C   0  0  0  0  0  0  0  0  0  0  0  0
   16.1742   -7.7116  -13.4221 O   0  0  0  0  0  0  0  0  0  0  0  0
   22.2486   -7.7418  -13.3198 O   0  0  0  0  0  0  0  0  0  0  0  0
   16.9873   -7.8464  -11.3028 N   0  0  0  0  0  0  0  0  0  0  0  0
   15.8298   -7.1146  -10.7941 C   0  0  1  0  0  0  0  0  0  0  0  0
   15.2207   -7.9825   -9.7333 C   0  0  0  0  0  0  0  0  0  0  0  0
   14.0115   -7.4514   -9.0624 C   0  0  0  0  0  0  0  0  0  0  0  0
   13.4057   -8.3727   -8.0608 C   0  0  0  0  0  0  0  0  0  0  0  0
   12.1683   -7.9032   -7.3693 C   0  0  0  0  0  0  0  0  0  0  0  0
   11.6533   -8.7689   -6.3676 N   0  0  0  0  0  0  0  0  0  0  0  0
   16.1426   -5.7475  -10.4289 C   0  0  0  0  0  0  0  0  0  0  0  0
   17.2970   -5.4471  -10.0380 O   0  0  0  0  0  0  0  0  0  0  0  0
   15.2035   -4.7500  -10.4984 O   0  0  0  0  0  0  0  0  0  0  0  0
  2  1  1  0
  3  5  1  0
  3  2  1  0
  4  3  2  0
  6  5  1  0
  6 11  1  0
  6  7  1  6
  8  7  1  0
  9  8  1  0
 10  9  2  0
 11 14  1  0
 12 11  2  0
 13  9  1  0
 14 15  1  0
 15 21  1  0
 15 16  1  1
 17 16  1  0
 18 17  1  0
 19 18  1  0
 20 19  1  0
 21 23  1  0
 22 21  2  0
M  END
$$$$
