GEK.pdb
     RDKit          3D

 23 22  0  0  1  0  0  0  0  0999 V2000
   25.1739  -21.0760  -13.0409 N   0  0  0  0  0  0  0  0  0  0  0  0
   23.7724  -21.0517  -13.3319 C   0  0  0  0  0  0  0  0  0  0  0  0
   23.4155  -21.7950  -14.5539 C   0  0  0  0  0  0  0  0  0  0  0  0
   24.3501  -22.3794  -15.1728 O   0  0  0  0  0  0  0  0  0  0  0  0
   22.1011  -21.8884  -15.0642 N   0  0  0  0  0  0  0  0  0  0  0  0
   20.9767  -21.2869  -14.2879 C   0  0  1  0  0  0  0  0  0  0  0  0
   20.1409  -20.4907  -15.2695 C   0  0  0  0  0  0  0  0  0  0  0  0
   20.5722  -19.0685  -15.4002 C   0  0  0  0  0  0  0  0  0  0  0  0
   19.6703  -18.1904  -14.5988 C   0  0  0  0  0  0  0  0  0  0  0  0
   20.1588  -17.2963  -13.8708 O   0  0  0  0  0  0  0  0  0  0  0  0
   20.2601  -22.4242  -13.6788 C   0  0  0  0  0  0  0  0  0  0  0  0
   20.2053  -23.5598  -14.2711 O   0  0  0  0  0  0  0  0  0  0  0  0
   18.3048  -18.3661  -14.6591 O   0  0  0  0  0  0  0  0  0  0  0  0
   19.5885  -22.3853  -12.4242 N   0  0  0  0  0  0  0  0  0  0  0  0
   18.9407  -23.5700  -11.8666 C   0  0  1  0  0  0  0  0  0  0  0  0
   19.1943  -23.5278  -10.3891 C   0  0  0  0  0  0  0  0  0  0  0  0
   18.5404  -24.5814   -9.5786 C   0  0  0  0  0  0  0  0  0  0  0  0
   18.7640  -24.4599   -8.1109 C   0  0  0  0  0  0  0  0  0  0  0  0
   18.0563  -25.4396   -7.2340 C   0  0  0  0  0  0  0  0  0  0  0  0
   18.2645  -25.2828   -5.8375 N   0  0  0  0  0  0  0  0  0  0  0  0
   17.5641  -23.7149  -12.2960 C   0  0  0  0  0  0  0  0  0  0  0  0
   17.1031  -24.8512  -12.5645 O   0  0  0  0  0  0  0  0  0  0  0  0
   16.7301  -22.6329  -12.4201 O   0  0  0  0  0  0  0  0  0  0  0  0
  2  1  1  0
  3  5  1  0
  3  2  1  0
  4  3  2  0
  6  5  1  0
  6 11  1  0
  6  7  1  6
  8  7  1  0
  9  8  1  0
 10  9  2  0
 11 14  1  0
 12 11  2  0
 13  9  1  0
 14 15  1  0
 15 21  1  0
 15 16  1  1
 17 16  1  0
 18 17  1  0
 19 18  1  0
 20 19  1  0
 21 23  1  0
 22 21  2  0
M  END
$$$$
