GEK.pdb
     RDKit          3D

 23 22  0  0  1  0  0  0  0  0999 V2000
   34.1722  -35.9902   -5.0466 N   0  0  0  0  0  0  0  0  0  0  0  0
   33.1782  -35.3121   -4.2707 C   0  0  0  0  0  0  0  0  0  0  0  0
   31.9409  -36.0935   -4.0933 C   0  0  0  0  0  0  0  0  0  0  0  0
   31.4847  -36.6979   -5.1056 O   0  0  0  0  0  0  0  0  0  0  0  0
   31.2460  -36.2020   -2.8677 N   0  0  0  0  0  0  0  0  0  0  0  0
   29.9597  -36.9587   -2.8272 C   0  0  1  0  0  0  0  0  0  0  0  0
   29.8719  -37.6041   -1.4592 C   0  0  0  0  0  0  0  0  0  0  0  0
   30.4401  -38.9830   -1.4153 C   0  0  0  0  0  0  0  0  0  0  0  0
   30.2127  -39.5814   -0.0674 C   0  0  0  0  0  0  0  0  0  0  0  0
   30.6131  -40.7433    0.1728 O   0  0  0  0  0  0  0  0  0  0  0  0
   28.9028  -35.9616   -3.0857 C   0  0  0  0  0  0  0  0  0  0  0  0
   29.1994  -34.7422   -3.3473 O   0  0  0  0  0  0  0  0  0  0  0  0
   29.5618  -38.8571    0.9077 O   0  0  0  0  0  0  0  0  0  0  0  0
   27.5059  -36.2356   -3.0777 N   0  0  0  0  0  0  0  0  0  0  0  0
   26.5307  -35.2499   -3.5377 C   0  0  1  0  0  0  0  0  0  0  0  0
   27.0150  -34.7769   -4.8760 C   0  0  0  0  0  0  0  0  0  0  0  0
   26.1548  -33.7965   -5.5784 C   0  0  0  0  0  0  0  0  0  0  0  0
   26.7166  -33.2893   -6.8615 C   0  0  0  0  0  0  0  0  0  0  0  0
   25.8550  -32.3693   -7.6620 C   0  0  0  0  0  0  0  0  0  0  0  0
   26.3335  -32.0470   -8.9602 N   0  0  0  0  0  0  0  0  0  0  0  0
   25.1652  -35.7293   -3.4618 C   0  0  0  0  0  0  0  0  0  0  0  0
   24.9094  -36.9409   -3.6679 O   0  0  0  0  0  0  0  0  0  0  0  0
   24.1219  -34.8896   -3.1650 O   0  0  0  0  0  0  0  0  0  0  0  0
  2  1  1  0
  3  5  1  0
  3  2  1  0
  4  3  2  0
  6  5  1  0
  6 11  1  0
  6  7  1  1
  8  7  1  0
  9  8  1  0
 10  9  2  0
 11 14  1  0
 12 11  2  0
 13  9  1  0
 14 15  1  0
 15 21  1  0
 15 16  1  6
 17 16  1  0
 18 17  1  0
 19 18  1  0
 20 19  1  0
 21 23  1  0
 22 21  2  0
M  END
$$$$
