GEK.pdb
     RDKit          3D

 23 22  0  0  1  0  0  0  0  0999 V2000
   28.4789  -22.2610  -17.1579 N   0  0  0  0  0  0  0  0  0  0  0  0
   28.1066  -21.2400  -16.2259 C   0  0  0  0  0  0  0  0  0  0  0  0
   26.9961  -21.6332  -15.3398 C   0  0  0  0  0  0  0  0  0  0  0  0
   26.2830  -22.6126  -15.7009 O   0  0  0  0  0  0  0  0  0  0  0  0
   26.6896  -20.9824  -14.1236 N   0  0  0  0  0  0  0  0  0  0  0  0
   25.5152  -21.4471  -13.3277 C   0  0  1  0  0  0  0  0  0  0  0  0
   25.8025  -21.1060  -11.8795 C   0  0  0  0  0  0  0  0  0  0  0  0
   24.7252  -21.5387  -10.9424 C   0  0  0  0  0  0  0  0  0  0  0  0
   25.1074  -21.1988   -9.5406 C   0  0  0  0  0  0  0  0  0  0  0  0
   26.1754  -21.6441   -9.0618 O   0  0  0  0  0  0  0  0  0  0  0  0
   24.3486  -20.7376  -13.8879 C   0  0  0  0  0  0  0  0  0  0  0  0
   24.4067  -19.4849  -14.1537 O   0  0  0  0  0  0  0  0  0  0  0  0
   24.2852  -20.3996   -8.7762 O   0  0  0  0  0  0  0  0  0  0  0  0
   23.0939  -21.3414  -14.1840 N   0  0  0  0  0  0  0  0  0  0  0  0
   21.9772  -20.5633  -14.7148 C   0  0  1  0  0  0  0  0  0  0  0  0
   21.9970  -20.7653  -16.2008 C   0  0  0  0  0  0  0  0  0  0  0  0
   20.9287  -20.0875  -16.9715 C   0  0  0  0  0  0  0  0  0  0  0  0
   21.0019  -20.2967  -18.4445 C   0  0  0  0  0  0  0  0  0  0  0  0
   20.0154  -19.5544  -19.2844 C   0  0  0  0  0  0  0  0  0  0  0  0
   20.1704  -19.6941  -20.6896 N   0  0  0  0  0  0  0  0  0  0  0  0
   20.7283  -20.8291  -14.0293 C   0  0  0  0  0  0  0  0  0  0  0  0
   20.5868  -21.8825  -13.3614 O   0  0  0  0  0  0  0  0  0  0  0  0
   19.6752  -19.9519  -14.0843 O   0  0  0  0  0  0  0  0  0  0  0  0
  2  1  1  0
  3  5  1  0
  3  2  1  0
  4  3  2  0
  6  5  1  0
  6 11  1  0
  6  7  1  1
  8  7  1  0
  9  8  1  0
 10  9  2  0
 11 14  1  0
 12 11  2  0
 13  9  1  0
 14 15  1  0
 15 21  1  0
 15 16  1  6
 17 16  1  0
 18 17  1  0
 19 18  1  0
 20 19  1  0
 21 23  1  0
 22 21  2  0
M  END
$$$$
