GEK.pdb
     RDKit          3D

 23 22  0  0  1  0  0  0  0  0999 V2000
   25.3802  -12.0057  -16.5705 N   0  0  0  0  0  0  0  0  0  0  0  0
   24.5888  -11.5637  -15.4624 C   0  0  0  0  0  0  0  0  0  0  0  0
   23.5220  -10.6207  -15.8443 C   0  0  0  0  0  0  0  0  0  0  0  0
   23.4261  -10.3158  -17.0674 O   0  0  0  0  0  0  0  0  0  0  0  0
   22.6122  -10.0466  -14.9282 N   0  0  0  0  0  0  0  0  0  0  0  0
   21.5404   -9.1422  -15.4401 C   0  0  1  0  0  0  0  0  0  0  0  0
   20.2296   -9.6482  -14.8728 C   0  0  0  0  0  0  0  0  0  0  0  0
   19.0542   -8.8139  -15.2576 C   0  0  0  0  0  0  0  0  0  0  0  0
   17.8131   -9.3774  -14.6504 C   0  0  0  0  0  0  0  0  0  0  0  0
   16.7728   -8.6819  -14.6028 O   0  0  0  0  0  0  0  0  0  0  0  0
   21.9074   -7.7891  -14.9792 C   0  0  0  0  0  0  0  0  0  0  0  0
   22.4947   -7.6151  -13.8531 O   0  0  0  0  0  0  0  0  0  0  0  0
   17.8143  -10.6582  -14.1419 O   0  0  0  0  0  0  0  0  0  0  0  0
   21.6644   -6.5884  -15.7045 N   0  0  0  0  0  0  0  0  0  0  0  0
   22.1861   -5.3018  -15.2500 C   0  0  1  0  0  0  0  0  0  0  0  0
   21.8282   -4.3072  -16.3140 C   0  0  0  0  0  0  0  0  0  0  0  0
   22.1977   -2.8974  -16.0483 C   0  0  0  0  0  0  0  0  0  0  0  0
   21.9396   -1.9667  -17.1824 C   0  0  0  0  0  0  0  0  0  0  0  0
   22.4082   -0.5579  -17.0232 C   0  0  0  0  0  0  0  0  0  0  0  0
   22.3163    0.2590  -18.1818 N   0  0  0  0  0  0  0  0  0  0  0  0
   21.7963   -4.9832  -13.8910 C   0  0  0  0  0  0  0  0  0  0  0  0
   22.6282   -4.4788  -13.0978 O   0  0  0  0  0  0  0  0  0  0  0  0
   20.5247   -5.2165  -13.4324 O   0  0  0  0  0  0  0  0  0  0  0  0
  2  1  1  0
  3  5  1  0
  3  2  1  0
  4  3  2  0
  6  5  1  0
  6 11  1  0
  6  7  1  1
  8  7  1  0
  9  8  1  0
 10  9  2  0
 11 14  1  0
 12 11  2  0
 13  9  1  0
 14 15  1  0
 15 21  1  0
 15 16  1  6
 17 16  1  0
 18 17  1  0
 19 18  1  0
 20 19  1  0
 21 23  1  0
 22 21  2  0
M  END
$$$$
