GEK.pdb
     RDKit          3D

 23 22  0  0  1  0  0  0  0  0999 V2000
   18.9791  -11.4340  -16.0269 N   0  0  0  0  0  0  0  0  0  0  0  0
   20.3538  -11.8243  -16.1130 C   0  0  0  0  0  0  0  0  0  0  0  0
   21.2800  -10.8373  -15.5289 C   0  0  0  0  0  0  0  0  0  0  0  0
   21.1267  -10.5477  -14.3079 O   0  0  0  0  0  0  0  0  0  0  0  0
   22.3171  -10.2055  -16.2513 N   0  0  0  0  0  0  0  0  0  0  0  0
   23.0938   -9.1105  -15.5982 C   0  0  1  0  0  0  0  0  0  0  0  0
   24.5511   -9.3374  -15.9453 C   0  0  0  0  0  0  0  0  0  0  0  0
   25.1875  -10.4296  -15.1527 C   0  0  0  0  0  0  0  0  0  0  0  0
   26.6066  -10.6039  -15.5796 C   0  0  0  0  0  0  0  0  0  0  0  0
   26.8826  -11.3886  -16.5157 O   0  0  0  0  0  0  0  0  0  0  0  0
   22.5404   -7.8533  -16.1380 C   0  0  0  0  0  0  0  0  0  0  0  0
   22.0757   -7.7987  -17.3315 O   0  0  0  0  0  0  0  0  0  0  0  0
   27.6090   -9.9047  -14.9430 O   0  0  0  0  0  0  0  0  0  0  0  0
   22.4625   -6.6250  -15.4226 N   0  0  0  0  0  0  0  0  0  0  0  0
   21.8383   -5.4394  -16.0047 C   0  0  1  0  0  0  0  0  0  0  0  0
   20.4530   -5.8513  -16.4053 C   0  0  0  0  0  0  0  0  0  0  0  0
   19.5736   -4.7806  -16.9295 C   0  0  0  0  0  0  0  0  0  0  0  0
   18.2085   -5.2356  -17.3148 C   0  0  0  0  0  0  0  0  0  0  0  0
   17.3044   -4.2198  -17.9317 C   0  0  0  0  0  0  0  0  0  0  0  0
   15.9690   -4.6428  -18.1682 N   0  0  0  0  0  0  0  0  0  0  0  0
   21.9603   -4.2665  -15.1622 C   0  0  0  0  0  0  0  0  0  0  0  0
   22.2084   -4.3919  -13.9381 O   0  0  0  0  0  0  0  0  0  0  0  0
   21.8130   -2.9990  -15.6657 O   0  0  0  0  0  0  0  0  0  0  0  0
  2  1  1  0
  3  5  1  0
  3  2  1  0
  4  3  2  0
  6  5  1  0
  6 11  1  0
  6  7  1  6
  8  7  1  0
  9  8  1  0
 10  9  2  0
 11 14  1  0
 12 11  2  0
 13  9  1  0
 14 15  1  0
 15 21  1  0
 15 16  1  1
 17 16  1  0
 18 17  1  0
 19 18  1  0
 20 19  1  0
 21 23  1  0
 22 21  2  0
M  END
$$$$
