GEK.pdb
     RDKit          3D

 23 22  0  0  1  0  0  0  0  0999 V2000
   16.2241   -8.1309  -19.5314 N   0  0  0  0  0  0  0  0  0  0  0  0
   16.7111   -8.2816  -18.1935 C   0  0  0  0  0  0  0  0  0  0  0  0
   17.3907   -7.0788  -17.6792 C   0  0  0  0  0  0  0  0  0  0  0  0
   18.5038   -6.7745  -18.1953 O   0  0  0  0  0  0  0  0  0  0  0  0
   16.8711   -6.2578  -16.6532 N   0  0  0  0  0  0  0  0  0  0  0  0
   17.6931   -5.1179  -16.1495 C   0  0  1  0  0  0  0  0  0  0  0  0
   16.7486   -4.1814  -15.4237 C   0  0  0  0  0  0  0  0  0  0  0  0
   16.0054   -3.2633  -16.3351 C   0  0  0  0  0  0  0  0  0  0  0  0
   15.0259   -2.4555  -15.5511 C   0  0  0  0  0  0  0  0  0  0  0  0
   13.8265   -2.8115  -15.4992 O   0  0  0  0  0  0  0  0  0  0  0  0
   18.7206   -5.7219  -15.2792 C   0  0  0  0  0  0  0  0  0  0  0  0
   18.5112   -6.8444  -14.6965 O   0  0  0  0  0  0  0  0  0  0  0  0
   15.4413   -1.3205  -14.8892 O   0  0  0  0  0  0  0  0  0  0  0  0
   19.9969   -5.1517  -15.0102 N   0  0  0  0  0  0  0  0  0  0  0  0
   21.0212   -5.8846  -14.2699 C   0  0  1  0  0  0  0  0  0  0  0  0
   21.2368   -7.1679  -15.0154 C   0  0  0  0  0  0  0  0  0  0  0  0
   22.3336   -8.0361  -14.5278 C   0  0  0  0  0  0  0  0  0  0  0  0
   22.5493   -9.2704  -15.3334 C   0  0  0  0  0  0  0  0  0  0  0  0
   23.5947  -10.2209  -14.8505 C   0  0  0  0  0  0  0  0  0  0  0  0
   23.8819  -11.3140  -15.7114 N   0  0  0  0  0  0  0  0  0  0  0  0
   22.1938   -5.0821  -13.9847 C   0  0  0  0  0  0  0  0  0  0  0  0
   22.8957   -5.3277  -12.9733 O   0  0  0  0  0  0  0  0  0  0  0  0
   22.5721   -4.0443  -14.7979 O   0  0  0  0  0  0  0  0  0  0  0  0
  2  1  1  0
  3  5  1  0
  3  2  1  0
  4  3  2  0
  6  5  1  0
  6 11  1  0
  6  7  1  1
  8  7  1  0
  9  8  1  0
 10  9  2  0
 11 14  1  0
 12 11  2  0
 13  9  1  0
 14 15  1  0
 15 21  1  0
 15 16  1  6
 17 16  1  0
 18 17  1  0
 19 18  1  0
 20 19  1  0
 21 23  1  0
 22 21  2  0
M  END
$$$$
