GEK.pdb
     RDKit          3D

 23 22  0  0  1  0  0  0  0  0999 V2000
   21.3509  -28.7821  -10.8836 N   0  0  0  0  0  0  0  0  0  0  0  0
   20.1006  -28.1239  -11.1142 C   0  0  0  0  0  0  0  0  0  0  0  0
   19.8262  -27.0369  -10.1571 C   0  0  0  0  0  0  0  0  0  0  0  0
   20.6636  -26.8555   -9.2276 O   0  0  0  0  0  0  0  0  0  0  0  0
   18.6917  -26.1971  -10.2220 N   0  0  0  0  0  0  0  0  0  0  0  0
   18.5199  -25.1285   -9.1937 C   0  0  1  0  0  0  0  0  0  0  0  0
   17.7966  -23.9807   -9.8686 C   0  0  0  0  0  0  0  0  0  0  0  0
   18.6529  -23.2184  -10.8234 C   0  0  0  0  0  0  0  0  0  0  0  0
   17.8587  -22.1219  -11.4509 C   0  0  0  0  0  0  0  0  0  0  0  0
   18.4477  -21.1740  -12.0187 O   0  0  0  0  0  0  0  0  0  0  0  0
   17.7562  -25.7519   -8.0954 C   0  0  0  0  0  0  0  0  0  0  0  0
   16.8298  -26.6036   -8.3398 O   0  0  0  0  0  0  0  0  0  0  0  0
   16.4819  -22.1530  -11.4024 O   0  0  0  0  0  0  0  0  0  0  0  0
   17.9605  -25.4901   -6.7111 N   0  0  0  0  0  0  0  0  0  0  0  0
   17.1413  -26.1278   -5.6833 C   0  0  1  0  0  0  0  0  0  0  0  0
   18.0720  -26.4622   -4.5559 C   0  0  0  0  0  0  0  0  0  0  0  0
   17.4604  -27.0896   -3.3614 C   0  0  0  0  0  0  0  0  0  0  0  0
   18.4223  -27.4069   -2.2692 C   0  0  0  0  0  0  0  0  0  0  0  0
   17.8635  -28.0342   -1.0348 C   0  0  0  0  0  0  0  0  0  0  0  0
   18.8145  -28.4226   -0.0535 N   0  0  0  0  0  0  0  0  0  0  0  0
   15.9539  -25.3647   -5.3545 C   0  0  0  0  0  0  0  0  0  0  0  0
   15.9236  -24.1262   -5.5570 O   0  0  0  0  0  0  0  0  0  0  0  0
   14.8393  -25.9602   -4.8209 O   0  0  0  0  0  0  0  0  0  0  0  0
  2  1  1  0
  3  5  1  0
  3  2  1  0
  4  3  2  0
  6  5  1  0
  6 11  1  0
  6  7  1  6
  8  7  1  0
  9  8  1  0
 10  9  2  0
 11 14  1  0
 12 11  2  0
 13  9  1  0
 14 15  1  0
 15 21  1  0
 15 16  1  1
 17 16  1  0
 18 17  1  0
 19 18  1  0
 20 19  1  0
 21 23  1  0
 22 21  2  0
M  END
$$$$
