GET.pdb
     RDKit          3D

 21 20  0  0  1  0  0  0  0  0999 V2000
   15.4248  -13.5011  -14.6222 N   0  0  0  0  0  0  0  0  0  0  0  0
   15.2225  -12.0749  -14.7662 C   0  0  0  0  0  0  0  0  0  0  0  0
   16.0503  -11.3671  -13.7555 C   0  0  0  0  0  0  0  0  0  0  0  0
   16.2123  -11.8657  -12.6072 O   0  0  0  0  0  0  0  0  0  0  0  0
   16.6843  -10.1294  -14.0176 N   0  0  0  0  0  0  0  0  0  0  0  0
   17.4202   -9.3787  -13.0223 C   0  0  1  0  0  0  0  0  0  0  0  0
   18.6090   -8.6773  -13.6022 C   0  0  0  0  0  0  0  0  0  0  0  0
   19.5057   -8.1096  -12.5193 C   0  0  0  0  0  0  0  0  0  0  0  0
   20.6552   -7.4146  -13.1420 C   0  0  0  0  0  0  0  0  0  0  0  0
   21.7017   -8.0824  -13.4101 O   0  0  0  0  0  0  0  0  0  0  0  0
   16.5694   -8.3863  -12.3241 C   0  0  0  0  0  0  0  0  0  0  0  0
   15.6725   -7.7751  -12.9445 O   0  0  0  0  0  0  0  0  0  0  0  0
   20.5102   -6.0678  -13.3917 O   0  0  0  0  0  0  0  0  0  0  0  0
   14.9461   -6.2691   -8.2226 C   0  0  0  0  0  0  0  0  0  0  0  0
   15.9089   -7.2813   -8.8099 C   0  0  1  0  0  0  0  0  0  0  0  0
   15.3504   -8.5517   -8.5384 O   0  0  0  0  0  0  0  0  0  0  0  0
   15.8673   -7.1223  -10.3229 C   0  0  2  0  0  0  0  0  0  0  0  0
   16.7419   -8.1050  -10.9468 N   0  0  0  0  0  0  0  0  0  0  0  0
   16.2285   -5.7480  -10.7528 C   0  0  0  0  0  0  0  0  0  0  0  0
   15.2237   -4.7905  -10.8510 O   0  0  0  0  0  0  0  0  0  0  0  0
   17.3840   -5.3789  -11.0398 O   0  0  0  0  0  0  0  0  0  0  0  0
  2  1  1  0
  3  5  1  0
  3  2  1  0
  4  3  2  0
  6 11  1  0
  6  5  1  0
  6  7  1  6
  8  7  1  0
  9 10  2  0
  9  8  1  0
 11 18  1  0
 12 11  2  0
 13  9  1  0
 15 14  1  1
 16 15  1  0
 17 19  1  0
 17 15  1  0
 17 18  1  6
 19 20  1  0
 21 19  2  0
M  END
$$$$
