GET.pdb
     RDKit          3D

 21 20  0  0  1  0  0  0  0  0999 V2000
   16.7132  -12.2859  -15.6968 N   0  0  0  0  0  0  0  0  0  0  0  0
   16.4374  -11.2085  -14.7701 C   0  0  0  0  0  0  0  0  0  0  0  0
   17.1167   -9.9767  -15.2484 C   0  0  0  0  0  0  0  0  0  0  0  0
   17.7329   -9.9798  -16.3501 O   0  0  0  0  0  0  0  0  0  0  0  0
   17.1103   -8.7663  -14.5152 N   0  0  0  0  0  0  0  0  0  0  0  0
   17.7825   -7.5608  -14.9517 C   0  0  1  0  0  0  0  0  0  0  0  0
   17.0410   -6.3211  -14.5584 C   0  0  0  0  0  0  0  0  0  0  0  0
   17.6885   -5.0766  -15.1337 C   0  0  0  0  0  0  0  0  0  0  0  0
   16.7901   -4.4724  -16.1436 C   0  0  0  0  0  0  0  0  0  0  0  0
   17.2318   -4.2808  -17.3188 O   0  0  0  0  0  0  0  0  0  0  0  0
   19.1704   -7.4741  -14.4392 C   0  0  0  0  0  0  0  0  0  0  0  0
   19.4310   -7.8041  -13.2620 O   0  0  0  0  0  0  0  0  0  0  0  0
   15.5148   -4.1525  -15.7332 O   0  0  0  0  0  0  0  0  0  0  0  0
   23.9066   -7.7362  -15.2490 C   0  0  0  0  0  0  0  0  0  0  0  0
   22.5383   -7.5291  -15.8667 C   0  0  1  0  0  0  0  0  0  0  0  0
   22.1042   -8.8075  -16.2870 O   0  0  0  0  0  0  0  0  0  0  0  0
   21.5934   -7.1149  -14.7479 C   0  0  2  0  0  0  0  0  0  0  0  0
   20.2333   -7.0228  -15.2591 N   0  0  0  0  0  0  0  0  0  0  0  0
   22.0038   -5.8384  -14.1107 C   0  0  0  0  0  0  0  0  0  0  0  0
   21.5490   -4.6411  -14.6545 O   0  0  0  0  0  0  0  0  0  0  0  0
   22.7398   -5.7543  -13.1081 O   0  0  0  0  0  0  0  0  0  0  0  0
  2  1  1  0
  3  5  1  0
  3  2  1  0
  4  3  2  0
  6 11  1  0
  6  5  1  0
  6  7  1  1
  8  7  1  0
  9 10  2  0
  9  8  1  0
 11 18  1  0
 12 11  2  0
 13  9  1  0
 15 14  1  1
 16 15  1  0
 17 19  1  0
 17 15  1  0
 17 18  1  6
 19 20  1  0
 21 19  2  0
M  END
$$$$
