GET.pdb
     RDKit          3D

 21 20  0  0  1  0  0  0  0  0999 V2000
   22.3969  -13.6353  -17.1896 N   0  0  0  0  0  0  0  0  0  0  0  0
   22.7449  -12.6133  -16.2251 C   0  0  0  0  0  0  0  0  0  0  0  0
   22.0910  -11.3383  -16.6179 C   0  0  0  0  0  0  0  0  0  0  0  0
   22.1939  -10.9115  -17.8015 O   0  0  0  0  0  0  0  0  0  0  0  0
   21.3383  -10.5542  -15.7117 N   0  0  0  0  0  0  0  0  0  0  0  0
   20.7114   -9.2986  -16.0666 C   0  0  1  0  0  0  0  0  0  0  0  0
   19.3054   -9.2013  -15.5615 C   0  0  0  0  0  0  0  0  0  0  0  0
   18.4122  -10.2536  -16.1893 C   0  0  0  0  0  0  0  0  0  0  0  0
   17.0299  -10.0961  -15.6831 C   0  0  0  0  0  0  0  0  0  0  0  0
   16.0885   -9.9235  -16.5180 O   0  0  0  0  0  0  0  0  0  0  0  0
   21.4797   -8.1290  -15.5787 C   0  0  0  0  0  0  0  0  0  0  0  0
   22.0922   -8.1847  -14.4904 O   0  0  0  0  0  0  0  0  0  0  0  0
   16.8551  -10.1472  -14.3178 O   0  0  0  0  0  0  0  0  0  0  0  0
   23.3170   -3.6309  -16.2048 C   0  0  0  0  0  0  0  0  0  0  0  0
   22.4799   -4.7319  -16.8243 C   0  0  1  0  0  0  0  0  0  0  0  0
   23.2949   -5.3300  -17.8130 O   0  0  0  0  0  0  0  0  0  0  0  0
   22.2692   -5.7966  -15.7576 C   0  0  2  0  0  0  0  0  0  0  0  0
   21.5458   -6.9262  -16.3236 N   0  0  0  0  0  0  0  0  0  0  0  0
   21.5636   -5.2639  -14.5649 C   0  0  0  0  0  0  0  0  0  0  0  0
   20.1801   -5.1241  -14.6115 O   0  0  0  0  0  0  0  0  0  0  0  0
   22.1256   -4.9241  -13.5054 O   0  0  0  0  0  0  0  0  0  0  0  0
  2  1  1  0
  3  5  1  0
  3  2  1  0
  4  3  2  0
  6 11  1  0
  6  5  1  0
  6  7  1  1
  8  7  1  0
  9 10  2  0
  9  8  1  0
 11 18  1  0
 12 11  2  0
 13  9  1  0
 15 14  1  1
 16 15  1  0
 17 19  1  0
 17 15  1  0
 17 18  1  6
 19 20  1  0
 21 19  2  0
M  END
$$$$
