GET.pdb
     RDKit          3D

 21 20  0  0  1  0  0  0  0  0999 V2000
   26.0022  -22.9328  -11.6715 N   0  0  0  0  0  0  0  0  0  0  0  0
   25.4483  -21.5956  -11.6462 C   0  0  0  0  0  0  0  0  0  0  0  0
   24.9640  -21.2495  -13.0075 C   0  0  0  0  0  0  0  0  0  0  0  0
   25.3370  -21.9280  -14.0045 O   0  0  0  0  0  0  0  0  0  0  0  0
   24.0828  -20.1700  -13.2541 N   0  0  0  0  0  0  0  0  0  0  0  0
   23.5779  -19.8310  -14.5677 C   0  0  1  0  0  0  0  0  0  0  0  0
   22.1246  -19.4720  -14.5440 C   0  0  0  0  0  0  0  0  0  0  0  0
   21.2912  -20.5589  -13.8937 C   0  0  0  0  0  0  0  0  0  0  0  0
   19.8614  -20.1767  -13.9322 C   0  0  0  0  0  0  0  0  0  0  0  0
   19.4353  -19.3167  -13.1004 O   0  0  0  0  0  0  0  0  0  0  0  0
   24.3371  -18.7222  -15.1928 C   0  0  0  0  0  0  0  0  0  0  0  0
   24.3448  -17.5874  -14.6685 O   0  0  0  0  0  0  0  0  0  0  0  0
   19.0761  -20.7907  -14.8828 O   0  0  0  0  0  0  0  0  0  0  0  0
   27.8483  -18.2002  -15.8247 C   0  0  0  0  0  0  0  0  0  0  0  0
   27.2135  -18.0752  -17.1951 C   0  0  1  0  0  0  0  0  0  0  0  0
   27.2594  -19.3690  -17.7640 O   0  0  0  0  0  0  0  0  0  0  0  0
   25.7386  -17.7642  -16.9853 C   0  0  2  0  0  0  0  0  0  0  0  0
   25.0719  -18.9126  -16.3884 N   0  0  0  0  0  0  0  0  0  0  0  0
   25.0654  -17.3611  -18.2456 C   0  0  0  0  0  0  0  0  0  0  0  0
   25.5243  -16.2338  -18.9199 O   0  0  0  0  0  0  0  0  0  0  0  0
   24.1013  -17.9649  -18.7553 O   0  0  0  0  0  0  0  0  0  0  0  0
  2  1  1  0
  3  5  1  0
  3  2  1  0
  4  3  2  0
  6 11  1  0
  6  5  1  0
  6  7  1  1
  8  7  1  0
  9 10  2  0
  9  8  1  0
 11 18  1  0
 12 11  2  0
 13  9  1  0
 15 14  1  1
 16 15  1  0
 17 19  1  0
 17 15  1  0
 17 18  1  6
 19 20  1  0
 21 19  2  0
M  END
$$$$
