GET.pdb
     RDKit          3D

 21 20  0  0  1  0  0  0  0  0999 V2000
   13.0692  -10.4055   -9.2001 N   0  0  0  0  0  0  0  0  0  0  0  0
   14.3032   -9.8910   -8.6448 C   0  0  0  0  0  0  0  0  0  0  0  0
   14.8054   -8.7991   -9.5184 C   0  0  0  0  0  0  0  0  0  0  0  0
   14.4702   -8.7554  -10.7346 O   0  0  0  0  0  0  0  0  0  0  0  0
   15.6636   -7.7770   -9.0478 N   0  0  0  0  0  0  0  0  0  0  0  0
   16.1511   -6.6947   -9.8762 C   0  0  1  0  0  0  0  0  0  0  0  0
   15.9960   -5.3591   -9.2177 C   0  0  0  0  0  0  0  0  0  0  0  0
   16.4583   -4.2332  -10.1219 C   0  0  0  0  0  0  0  0  0  0  0  0
   16.1722   -2.9313   -9.4777 C   0  0  0  0  0  0  0  0  0  0  0  0
   15.6442   -2.9230   -8.3227 O   0  0  0  0  0  0  0  0  0  0  0  0
   17.5699   -6.8781  -10.2634 C   0  0  0  0  0  0  0  0  0  0  0  0
   18.4373   -7.1096   -9.3935 O   0  0  0  0  0  0  0  0  0  0  0  0
   16.5025   -1.7976  -10.1869 O   0  0  0  0  0  0  0  0  0  0  0  0
   21.0143   -8.3361  -13.1830 C   0  0  0  0  0  0  0  0  0  0  0  0
   19.5321   -8.0905  -12.9846 C   0  0  1  0  0  0  0  0  0  0  0  0
   19.0175   -9.2709  -12.4002 O   0  0  0  0  0  0  0  0  0  0  0  0
   19.3895   -7.0054  -11.9272 C   0  0  2  0  0  0  0  0  0  0  0  0
   17.9819   -6.8010  -11.6162 N   0  0  0  0  0  0  0  0  0  0  0  0
   20.0273   -5.7306  -12.3419 C   0  0  0  0  0  0  0  0  0  0  0  0
   21.3870   -5.5533  -12.1056 O   0  0  0  0  0  0  0  0  0  0  0  0
   19.4272   -4.7879  -12.8944 O   0  0  0  0  0  0  0  0  0  0  0  0
  2  1  1  0
  3  5  1  0
  3  2  1  0
  4  3  2  0
  6 11  1  0
  6  5  1  0
  6  7  1  1
  8  7  1  0
  9 10  2  0
  9  8  1  0
 11 18  1  0
 12 11  2  0
 13  9  1  0
 15 14  1  1
 16 15  1  0
 17 19  1  0
 17 15  1  0
 17 18  1  6
 19 20  1  0
 21 19  2  0
M  END
$$$$
