GET.pdb
     RDKit          3D

 21 20  0  0  1  0  0  0  0  0999 V2000
   13.3217  -13.8760  -11.6180 N   0  0  0  0  0  0  0  0  0  0  0  0
   13.0573  -12.5336  -12.0910 C   0  0  0  0  0  0  0  0  0  0  0  0
   14.1961  -11.6573  -11.7132 C   0  0  0  0  0  0  0  0  0  0  0  0
   14.7903  -11.8293  -10.6128 O   0  0  0  0  0  0  0  0  0  0  0  0
   14.6636  -10.6107  -12.5431 N   0  0  0  0  0  0  0  0  0  0  0  0
   15.7831   -9.7578  -12.2042 C   0  0  1  0  0  0  0  0  0  0  0  0
   16.6976   -9.5296  -13.3675 C   0  0  0  0  0  0  0  0  0  0  0  0
   17.9214   -8.7288  -12.9673 C   0  0  0  0  0  0  0  0  0  0  0  0
   18.7532   -8.4644  -14.1632 C   0  0  0  0  0  0  0  0  0  0  0  0
   19.6722   -9.2879  -14.4635 O   0  0  0  0  0  0  0  0  0  0  0  0
   15.3486   -8.4458  -11.6693 C   0  0  0  0  0  0  0  0  0  0  0  0
   14.3806   -7.8436  -12.1822 O   0  0  0  0  0  0  0  0  0  0  0  0
   18.4702   -7.3234  -14.8810 O   0  0  0  0  0  0  0  0  0  0  0  0
   14.5090   -7.4463   -8.0878 C   0  0  0  0  0  0  0  0  0  0  0  0
   15.5707   -6.4891   -8.5911 C   0  0  1  0  0  0  0  0  0  0  0  0
   16.8114   -7.0483   -8.2070 O   0  0  0  0  0  0  0  0  0  0  0  0
   15.5434   -6.5401  -10.1118 C   0  0  2  0  0  0  0  0  0  0  0  0
   16.0072   -7.8417  -10.5706 N   0  0  0  0  0  0  0  0  0  0  0  0
   16.3442   -5.4502  -10.7242 C   0  0  0  0  0  0  0  0  0  0  0  0
   15.9686   -4.1307  -10.4922 O   0  0  0  0  0  0  0  0  0  0  0  0
   17.3451   -5.6291  -11.4454 O   0  0  0  0  0  0  0  0  0  0  0  0
  2  1  1  0
  3  5  1  0
  3  2  1  0
  4  3  2  0
  6 11  1  0
  6  5  1  0
  6  7  1  6
  8  7  1  0
  9 10  2  0
  9  8  1  0
 11 18  1  0
 12 11  2  0
 13  9  1  0
 15 14  1  1
 16 15  1  0
 17 19  1  0
 17 15  1  0
 17 18  1  1
 19 20  1  0
 21 19  2  0
M  END
$$$$
