GET.pdb
     RDKit          3D

 21 20  0  0  1  0  0  0  0  0999 V2000
   14.7365   -8.4169  -16.6224 N   0  0  0  0  0  0  0  0  0  0  0  0
   15.8750   -7.9009  -17.3527 C   0  0  0  0  0  0  0  0  0  0  0  0
   17.0079   -7.7157  -16.4095 C   0  0  0  0  0  0  0  0  0  0  0  0
   16.8038   -7.7259  -15.1639 O   0  0  0  0  0  0  0  0  0  0  0  0
   18.3408   -7.5226  -16.8441 N   0  0  0  0  0  0  0  0  0  0  0  0
   19.4662   -7.3879  -15.9437 C   0  0  1  0  0  0  0  0  0  0  0  0
   20.5821   -8.3267  -16.2826 C   0  0  0  0  0  0  0  0  0  0  0  0
   21.7067   -8.2470  -15.2687 C   0  0  0  0  0  0  0  0  0  0  0  0
   22.7865   -9.1846  -15.6518 C   0  0  0  0  0  0  0  0  0  0  0  0
   22.8959  -10.2822  -15.0222 O   0  0  0  0  0  0  0  0  0  0  0  0
   19.9957   -6.0042  -15.9086 C   0  0  0  0  0  0  0  0  0  0  0  0
   20.1876   -5.3739  -16.9711 O   0  0  0  0  0  0  0  0  0  0  0  0
   23.6144   -8.7964  -16.6819 O   0  0  0  0  0  0  0  0  0  0  0  0
   20.4584   -1.6949  -13.9460 C   0  0  0  0  0  0  0  0  0  0  0  0
   19.8161   -3.0659  -14.0112 C   0  0  1  0  0  0  0  0  0  0  0  0
   18.7067   -2.9344  -14.8781 O   0  0  0  0  0  0  0  0  0  0  0  0
   20.7930   -3.9914  -14.7218 C   0  0  2  0  0  0  0  0  0  0  0  0
   20.2945   -5.3588  -14.6839 N   0  0  0  0  0  0  0  0  0  0  0  0
   22.1594   -3.9133  -14.1467 C   0  0  0  0  0  0  0  0  0  0  0  0
   22.9962   -2.8754  -14.5451 O   0  0  0  0  0  0  0  0  0  0  0  0
   22.6247   -4.7219  -13.3199 O   0  0  0  0  0  0  0  0  0  0  0  0
  2  1  1  0
  3  5  1  0
  3  2  1  0
  4  3  2  0
  6 11  1  0
  6  5  1  0
  6  7  1  6
  8  7  1  0
  9 10  2  0
  9  8  1  0
 11 18  1  0
 12 11  2  0
 13  9  1  0
 15 14  1  6
 16 15  1  0
 17 19  1  0
 17 15  1  0
 17 18  1  1
 19 20  1  0
 21 19  2  0
M  END
$$$$
