GET.pdb
     RDKit          3D

 21 20  0  0  1  0  0  0  0  0999 V2000
   15.4986   -9.6763  -16.6669 N   0  0  0  0  0  0  0  0  0  0  0  0
   15.5253   -8.2378  -16.5059 C   0  0  0  0  0  0  0  0  0  0  0  0
   16.7981   -7.8512  -15.8440 C   0  0  0  0  0  0  0  0  0  0  0  0
   16.8844   -7.8557  -14.5847 O   0  0  0  0  0  0  0  0  0  0  0  0
   17.9510   -7.4670  -16.5692 N   0  0  0  0  0  0  0  0  0  0  0  0
   19.2225   -7.1595  -15.9495 C   0  0  1  0  0  0  0  0  0  0  0  0
   20.3163   -8.0717  -16.4112 C   0  0  0  0  0  0  0  0  0  0  0  0
   21.6208   -7.7884  -15.6920 C   0  0  0  0  0  0  0  0  0  0  0  0
   22.6533   -8.7493  -16.1421 C   0  0  0  0  0  0  0  0  0  0  0  0
   23.8212   -8.3187  -16.3945 O   0  0  0  0  0  0  0  0  0  0  0  0
   19.6366   -5.7557  -16.1823 C   0  0  0  0  0  0  0  0  0  0  0  0
   19.9675   -5.3760  -17.3265 O   0  0  0  0  0  0  0  0  0  0  0  0
   22.2711  -10.0673  -16.2598 O   0  0  0  0  0  0  0  0  0  0  0  0
   17.7172   -2.7665  -15.6921 C   0  0  0  0  0  0  0  0  0  0  0  0
   18.9921   -2.4775  -14.9254 C   0  0  1  0  0  0  0  0  0  0  0  0
   18.7346   -2.8552  -13.5872 O   0  0  0  0  0  0  0  0  0  0  0  0
   20.0552   -3.4408  -15.4332 C   0  0  2  0  0  0  0  0  0  0  0  0
   19.6667   -4.8104  -15.1282 N   0  0  0  0  0  0  0  0  0  0  0  0
   21.3980   -3.1383  -14.8770 C   0  0  0  0  0  0  0  0  0  0  0  0
   22.0382   -4.1048  -14.1076 O   0  0  0  0  0  0  0  0  0  0  0  0
   22.0074   -2.0642  -15.0476 O   0  0  0  0  0  0  0  0  0  0  0  0
  2  1  1  0
  3  5  1  0
  3  2  1  0
  4  3  2  0
  6 11  1  0
  6  5  1  0
  6  7  1  6
  8  7  1  0
  9 10  2  0
  9  8  1  0
 11 18  1  0
 12 11  2  0
 13  9  1  0
 15 14  1  6
 16 15  1  0
 17 19  1  0
 17 15  1  0
 17 18  1  1
 19 20  1  0
 21 19  2  0
M  END
$$$$
