GET.pdb
     RDKit          3D

 21 20  0  0  1  0  0  0  0  0999 V2000
   16.3475  -14.1994  -15.2169 N   0  0  0  0  0  0  0  0  0  0  0  0
   15.9396  -12.9462  -14.6179 C   0  0  0  0  0  0  0  0  0  0  0  0
   16.6298  -11.8316  -15.3172 C   0  0  0  0  0  0  0  0  0  0  0  0
   17.3743  -12.0695  -16.3084 O   0  0  0  0  0  0  0  0  0  0  0  0
   16.4943  -10.4798  -14.9209 N   0  0  0  0  0  0  0  0  0  0  0  0
   17.0734   -9.3694  -15.6469 C   0  0  1  0  0  0  0  0  0  0  0  0
   16.1993   -8.1542  -15.6208 C   0  0  0  0  0  0  0  0  0  0  0  0
   14.9814   -8.3229  -16.5081 C   0  0  0  0  0  0  0  0  0  0  0  0
   13.8970   -8.9776  -15.7417 C   0  0  0  0  0  0  0  0  0  0  0  0
   13.3955  -10.0550  -16.1898 O   0  0  0  0  0  0  0  0  0  0  0  0
   18.4176   -9.0060  -15.1397 C   0  0  0  0  0  0  0  0  0  0  0  0
   18.6633   -9.0474  -13.9147 O   0  0  0  0  0  0  0  0  0  0  0  0
   13.4976   -8.3632  -14.5754 O   0  0  0  0  0  0  0  0  0  0  0  0
   23.1867   -8.5058  -15.7410 C   0  0  0  0  0  0  0  0  0  0  0  0
   21.8544   -8.7598  -16.4171 C   0  0  1  0  0  0  0  0  0  0  0  0
   21.7285  -10.1650  -16.5120 O   0  0  0  0  0  0  0  0  0  0  0  0
   20.7645   -8.3076  -15.4561 C   0  0  2  0  0  0  0  0  0  0  0  0
   19.4552   -8.6080  -16.0177 N   0  0  0  0  0  0  0  0  0  0  0  0
   20.8750   -6.8656  -15.1208 C   0  0  0  0  0  0  0  0  0  0  0  0
   21.5979   -6.4933  -13.9917 O   0  0  0  0  0  0  0  0  0  0  0  0
   20.3589   -5.9449  -15.7841 O   0  0  0  0  0  0  0  0  0  0  0  0
  2  1  1  0
  3  5  1  0
  3  2  1  0
  4  3  2  0
  6 11  1  0
  6  5  1  0
  6  7  1  1
  8  7  1  0
  9 10  2  0
  9  8  1  0
 11 18  1  0
 12 11  2  0
 13  9  1  0
 15 14  1  1
 16 15  1  0
 17 19  1  0
 17 15  1  0
 17 18  1  6
 19 20  1  0
 21 19  2  0
M  END
$$$$
