GET.pdb
     RDKit          3D

 21 20  0  0  1  0  0  0  0  0999 V2000
   15.3957   -9.0521  -15.6064 N   0  0  0  0  0  0  0  0  0  0  0  0
   16.2757  -10.1809  -15.3889 C   0  0  0  0  0  0  0  0  0  0  0  0
   17.5779   -9.6836  -14.8745 C   0  0  0  0  0  0  0  0  0  0  0  0
   17.7631   -9.5601  -13.6319 O   0  0  0  0  0  0  0  0  0  0  0  0
   18.6518   -9.3306  -15.7258 N   0  0  0  0  0  0  0  0  0  0  0  0
   19.9389   -8.8741  -15.2458 C   0  0  1  0  0  0  0  0  0  0  0  0
   21.0763   -9.6297  -15.8599 C   0  0  0  0  0  0  0  0  0  0  0  0
   22.4052   -9.2358  -15.2453 C   0  0  0  0  0  0  0  0  0  0  0  0
   23.4876  -10.0516  -15.8409 C   0  0  0  0  0  0  0  0  0  0  0  0
   24.1124  -10.8733  -15.1009 O   0  0  0  0  0  0  0  0  0  0  0  0
   20.1436   -7.4247  -15.4776 C   0  0  0  0  0  0  0  0  0  0  0  0
   19.9853   -6.9387  -16.6184 O   0  0  0  0  0  0  0  0  0  0  0  0
   23.7493   -9.8605  -17.1797 O   0  0  0  0  0  0  0  0  0  0  0  0
   19.8626   -2.8711  -14.3062 C   0  0  0  0  0  0  0  0  0  0  0  0
   19.5776   -4.3374  -14.0503 C   0  0  1  0  0  0  0  0  0  0  0  0
   18.3964   -4.6346  -14.7687 O   0  0  0  0  0  0  0  0  0  0  0  0
   20.6852   -5.1384  -14.7195 C   0  0  2  0  0  0  0  0  0  0  0  0
   20.5176   -6.5543  -14.4248 N   0  0  0  0  0  0  0  0  0  0  0  0
   22.0361   -4.6732  -14.3162 C   0  0  0  0  0  0  0  0  0  0  0  0
   22.7391   -3.8323  -15.1734 O   0  0  0  0  0  0  0  0  0  0  0  0
   22.6010   -4.9850  -13.2496 O   0  0  0  0  0  0  0  0  0  0  0  0
  2  1  1  0
  3  5  1  0
  3  2  1  0
  4  3  2  0
  6 11  1  0
  6  5  1  0
  6  7  1  6
  8  7  1  0
  9 10  2  0
  9  8  1  0
 11 18  1  0
 12 11  2  0
 13  9  1  0
 15 14  1  6
 16 15  1  0
 17 19  1  0
 17 15  1  0
 17 18  1  1
 19 20  1  0
 21 19  2  0
M  END
$$$$
