GET.pdb
     RDKit          3D

 21 20  0  0  1  0  0  0  0  0999 V2000
   11.4859  -13.8801  -10.6465 N   0  0  0  0  0  0  0  0  0  0  0  0
   11.4534  -12.4536  -10.8909 C   0  0  0  0  0  0  0  0  0  0  0  0
   12.8367  -11.9186  -10.8018 C   0  0  0  0  0  0  0  0  0  0  0  0
   13.6149  -12.3215   -9.8933 O   0  0  0  0  0  0  0  0  0  0  0  0
   13.3431  -10.9543  -11.7054 N   0  0  0  0  0  0  0  0  0  0  0  0
   14.6613  -10.3663  -11.5949 C   0  0  1  0  0  0  0  0  0  0  0  0
   15.4007  -10.3774  -12.8967 C   0  0  0  0  0  0  0  0  0  0  0  0
   15.8713  -11.7723  -13.2600 C   0  0  0  0  0  0  0  0  0  0  0  0
   16.6269  -11.7245  -14.5323 C   0  0  0  0  0  0  0  0  0  0  0  0
   17.0737  -12.8088  -15.0197 O   0  0  0  0  0  0  0  0  0  0  0  0
   14.6159   -8.9775  -11.0794 C   0  0  0  0  0  0  0  0  0  0  0  0
   13.5806   -8.2889  -11.2091 O   0  0  0  0  0  0  0  0  0  0  0  0
   16.7981  -10.4863  -15.1109 O   0  0  0  0  0  0  0  0  0  0  0  0
   15.9420   -5.4328   -8.1498 C   0  0  0  0  0  0  0  0  0  0  0  0
   15.9643   -6.9033   -8.5155 C   0  0  1  0  0  0  0  0  0  0  0  0
   14.8714   -7.4892   -7.8360 O   0  0  0  0  0  0  0  0  0  0  0  0
   15.6375   -7.0071   -9.9982 C   0  0  2  0  0  0  0  0  0  0  0  0
   15.7305   -8.3950  -10.4282 N   0  0  0  0  0  0  0  0  0  0  0  0
   16.5113   -6.1395  -10.8274 C   0  0  0  0  0  0  0  0  0  0  0  0
   17.4888   -6.7338  -11.6195 O   0  0  0  0  0  0  0  0  0  0  0  0
   16.4370   -4.8958  -10.8685 O   0  0  0  0  0  0  0  0  0  0  0  0
  2  1  1  0
  3  5  1  0
  3  2  1  0
  4  3  2  0
  6 11  1  0
  6  5  1  0
  6  7  1  6
  8  7  1  0
  9 10  2  0
  9  8  1  0
 11 18  1  0
 12 11  2  0
 13  9  1  0
 15 14  1  1
 16 15  1  0
 17 19  1  0
 17 15  1  0
 17 18  1  6
 19 20  1  0
 21 19  2  0
M  END
$$$$
