GET.pdb
     RDKit          3D

 21 20  0  0  1  0  0  0  0  0999 V2000
   16.7869  -12.0749  -15.2760 N   0  0  0  0  0  0  0  0  0  0  0  0
   16.5882  -10.6522  -15.0961 C   0  0  0  0  0  0  0  0  0  0  0  0
   17.9127   -9.9790  -15.0848 C   0  0  0  0  0  0  0  0  0  0  0  0
   18.7139  -10.1724  -14.1288 O   0  0  0  0  0  0  0  0  0  0  0  0
   18.3364   -9.1080  -16.1165 N   0  0  0  0  0  0  0  0  0  0  0  0
   19.6476   -8.4963  -16.1615 C   0  0  1  0  0  0  0  0  0  0  0  0
   20.0677   -8.1517  -17.5566 C   0  0  0  0  0  0  0  0  0  0  0  0
   20.2034   -9.3899  -18.4211 C   0  0  0  0  0  0  0  0  0  0  0  0
   20.5318   -8.9917  -19.8087 C   0  0  0  0  0  0  0  0  0  0  0  0
   19.6420   -9.1131  -20.7069 O   0  0  0  0  0  0  0  0  0  0  0  0
   19.7292   -7.2790  -15.3201 C   0  0  0  0  0  0  0  0  0  0  0  0
   18.7755   -6.4716  -15.2828 O   0  0  0  0  0  0  0  0  0  0  0  0
   21.8017   -8.5094  -20.0362 O   0  0  0  0  0  0  0  0  0  0  0  0
   19.7740   -6.9250  -11.8423 C   0  0  0  0  0  0  0  0  0  0  0  0
   21.0298   -6.1800  -12.2478 C   0  0  1  0  0  0  0  0  0  0  0  0
   22.0768   -7.1294  -12.2017 O   0  0  0  0  0  0  0  0  0  0  0  0
   20.8777   -5.7979  -13.7130 C   0  0  2  0  0  0  0  0  0  0  0  0
   20.8761   -6.9973  -14.5383 N   0  0  0  0  0  0  0  0  0  0  0  0
   21.9328   -4.8536  -14.1590 C   0  0  0  0  0  0  0  0  0  0  0  0
   22.0141   -3.6040  -13.5525 O   0  0  0  0  0  0  0  0  0  0  0  0
   22.7664   -5.0974  -15.0533 O   0  0  0  0  0  0  0  0  0  0  0  0
  2  1  1  0
  3  5  1  0
  3  2  1  0
  4  3  2  0
  6 11  1  0
  6  5  1  0
  6  7  1  6
  8  7  1  0
  9 10  2  0
  9  8  1  0
 11 18  1  0
 12 11  2  0
 13  9  1  0
 15 14  1  6
 16 15  1  0
 17 19  1  0
 17 15  1  0
 17 18  1  6
 19 20  1  0
 21 19  2  0
M  END
$$$$
