HYC.pdb
     RDKit          3D

 29 30  0  0  1  0  0  0  0  0999 V2000
   11.0793  -17.0176   19.5968 N   0  0  0  0  0  0  0  0  0  0  0  0
    9.9938  -16.0986   19.8268 C   0  0  1  0  0  0  0  0  0  0  0  0
    8.7761  -16.6246   19.0965 C   0  0  0  0  0  0  0  0  0  0  0  0
    8.3128  -15.5627   18.1659 C   0  0  0  0  0  0  0  0  0  0  0  0
    8.7987  -15.2901   16.8929 C   0  0  0  0  0  0  0  0  0  0  0  0
    8.1112  -14.2428   16.3691 N   0  0  0  0  0  0  0  0  0  0  0  0
    7.2060  -13.8621   17.2993 C   0  0  0  0  0  0  0  0  0  0  0  0
    7.3385  -14.6578   18.3638 N   0  0  0  0  0  0  0  0  0  0  0  0
    9.7119  -15.9383   21.2889 C   0  0  0  0  0  0  0  0  0  0  0  0
   10.2062  -16.7368   22.1216 O   0  0  0  0  0  0  0  0  0  0  0  0
    7.0785  -12.3826   28.9389 O   0  0  0  0  0  0  0  0  0  0  0  0
    7.1825  -12.6691   27.5811 C   0  0  0  0  0  0  0  0  0  0  0  0
    8.2677  -12.2204   26.8606 C   0  0  0  0  0  0  0  0  0  0  0  0
    8.3603  -12.5097   25.5172 C   0  0  0  0  0  0  0  0  0  0  0  0
    7.3839  -13.2521   24.8400 C   0  0  0  0  0  0  0  0  0  0  0  0
    7.5863  -13.5129   23.3976 C   0  0  0  0  0  0  0  0  0  0  0  0
    8.5892  -14.6291   23.1324 C   0  0  2  0  0  0  0  0  0  0  0  0
    8.8867  -14.8915   21.7785 N   0  0  0  0  0  0  0  0  0  0  0  0
    8.3969  -15.8019   24.0047 C   0  0  0  0  0  0  0  0  0  0  0  0
    7.3421  -16.5196   23.9018 O   0  0  0  0  0  0  0  0  0  0  0  0
    6.3224  -13.6773   25.5991 C   0  0  0  0  0  0  0  0  0  0  0  0
    6.2092  -13.3984   26.9485 C   0  0  0  0  0  0  0  0  0  0  0  0
    9.3140  -16.2264   24.9907 N   0  0  0  0  0  0  0  0  0  0  0  0
    9.0463  -17.3492   25.8469 C   0  0  1  0  0  0  0  0  0  0  0  0
    9.7467  -18.6087   25.3932 C   0  0  0  0  0  0  0  0  0  0  0  0
    9.2628  -19.1449   23.7579 S   0  0  0  0  0  0  0  0  0  0  0  0
    9.5109  -17.0909   27.2522 C   0  0  0  0  0  0  0  0  0  0  0  0
    9.3315  -17.9580   28.1471 O   0  0  0  0  0  0  0  0  0  0  0  0
   10.1405  -15.9049   27.5903 O   0  0  0  0  0  0  0  0  0  0  0  0
  2  1  1  1
  2  3  1  0
  2  9  1  0
  3  4  1  0
  4  5  2  0
  6  5  1  0
  7  6  1  0
  8  7  2  0
  8  4  1  0
  9 10  2  0
  9 18  1  0
 12 11  1  0
 12 22  2  0
 13 12  1  0
 14 13  2  0
 14 15  1  0
 15 21  2  0
 16 15  1  0
 17 16  1  6
 18 17  1  0
 19 17  1  0
 19 20  2  0
 21 22  1  0
 23 19  1  0
 24 23  1  0
 24 25  1  6
 26 25  1  0
 27 24  1  0
 28 27  2  0
 29 27  1  0
M  END
$$$$
