HYC.pdb
     RDKit          3D

 29 30  0  0  1  0  0  0  0  0999 V2000
    8.6787  -16.1702   19.9159 N   0  0  0  0  0  0  0  0  0  0  0  0
    9.5947  -15.1215   20.2857 C   0  0  1  0  0  0  0  0  0  0  0  0
    9.1927  -13.8675   19.5382 C   0  0  0  0  0  0  0  0  0  0  0  0
    9.0853  -14.2145   18.0972 C   0  0  0  0  0  0  0  0  0  0  0  0
    8.0281  -13.9313   17.2411 C   0  0  0  0  0  0  0  0  0  0  0  0
    8.3146  -14.4153   16.0052 N   0  0  0  0  0  0  0  0  0  0  0  0
    9.5344  -14.9946   16.0829 C   0  0  0  0  0  0  0  0  0  0  0  0
    9.9804  -14.8668   17.3353 N   0  0  0  0  0  0  0  0  0  0  0  0
    9.5902  -14.8863   21.7648 C   0  0  0  0  0  0  0  0  0  0  0  0
   10.3447  -14.0210   22.2719 O   0  0  0  0  0  0  0  0  0  0  0  0
    6.2221  -10.6947   27.5921 O   0  0  0  0  0  0  0  0  0  0  0  0
    6.4507  -11.8604   26.8674 C   0  0  0  0  0  0  0  0  0  0  0  0
    6.7885  -11.7907   25.5336 C   0  0  0  0  0  0  0  0  0  0  0  0
    7.0125  -12.9510   24.8260 C   0  0  0  0  0  0  0  0  0  0  0  0
    6.9103  -14.2194   25.4121 C   0  0  0  0  0  0  0  0  0  0  0  0
    7.1803  -15.4006   24.5627 C   0  0  0  0  0  0  0  0  0  0  0  0
    8.6057  -15.4303   24.0248 C   0  0  2  0  0  0  0  0  0  0  0  0
    8.7436  -15.6239   22.6343 N   0  0  0  0  0  0  0  0  0  0  0  0
    9.5374  -16.1762   24.8902 C   0  0  0  0  0  0  0  0  0  0  0  0
    9.9675  -17.3288   24.5369 O   0  0  0  0  0  0  0  0  0  0  0  0
    6.5719  -14.2383   26.7421 C   0  0  0  0  0  0  0  0  0  0  0  0
    6.3426  -13.0863   27.4715 C   0  0  0  0  0  0  0  0  0  0  0  0
   10.0221  -15.7133   26.1328 N   0  0  0  0  0  0  0  0  0  0  0  0
   10.9702  -16.4649   26.9084 C   0  0  1  0  0  0  0  0  0  0  0  0
   11.3555  -15.7689   28.1929 C   0  0  0  0  0  0  0  0  0  0  0  0
   10.9958  -14.0178   28.1914 S   0  0  0  0  0  0  0  0  0  0  0  0
   10.4167  -17.8045   27.3040 C   0  0  0  0  0  0  0  0  0  0  0  0
    9.2082  -18.0797   27.0834 O   0  0  0  0  0  0  0  0  0  0  0  0
   11.2162  -18.7563   27.9141 O   0  0  0  0  0  0  0  0  0  0  0  0
  2  1  1  1
  2  3  1  0
  2  9  1  0
  3  4  1  0
  4  5  2  0
  6  5  1  0
  7  6  1  0
  8  7  2  0
  8  4  1  0
  9 10  2  0
  9 18  1  0
 12 11  1  0
 12 22  2  0
 13 12  1  0
 14 13  2  0
 14 15  1  0
 15 21  2  0
 16 15  1  0
 17 16  1  1
 18 17  1  0
 19 17  1  0
 19 20  2  0
 21 22  1  0
 23 19  1  0
 24 23  1  0
 24 25  1  1
 26 25  1  0
 27 24  1  0
 28 27  2  0
 29 27  1  0
M  END
$$$$
