HYC.pdb
     RDKit          3D

 29 30  0  0  1  0  0  0  0  0999 V2000
    9.2419  -17.9060   20.4034 N   0  0  0  0  0  0  0  0  0  0  0  0
   10.3816  -17.0455   20.5941 C   0  0  1  0  0  0  0  0  0  0  0  0
   10.6131  -16.2870   19.3042 C   0  0  0  0  0  0  0  0  0  0  0  0
    9.7945  -16.9338   18.2459 C   0  0  0  0  0  0  0  0  0  0  0  0
    8.4964  -16.6090   17.8713 C   0  0  0  0  0  0  0  0  0  0  0  0
    8.1037  -17.4338   16.8667 N   0  0  0  0  0  0  0  0  0  0  0  0
    9.1399  -18.2654   16.6130 C   0  0  0  0  0  0  0  0  0  0  0  0
   10.1395  -17.9550   17.4426 N   0  0  0  0  0  0  0  0  0  0  0  0
   10.1706  -16.1022   21.7381 C   0  0  0  0  0  0  0  0  0  0  0  0
   11.1119  -15.3792   22.1460 O   0  0  0  0  0  0  0  0  0  0  0  0
    6.4318  -11.0659   27.9542 O   0  0  0  0  0  0  0  0  0  0  0  0
    6.6711  -11.8555   26.8335 C   0  0  0  0  0  0  0  0  0  0  0  0
    6.0500  -13.0783   26.7034 C   0  0  0  0  0  0  0  0  0  0  0  0
    6.2944  -13.8515   25.5901 C   0  0  0  0  0  0  0  0  0  0  0  0
    7.1606  -13.4428   24.5676 C   0  0  0  0  0  0  0  0  0  0  0  0
    7.3451  -14.3472   23.4110 C   0  0  0  0  0  0  0  0  0  0  0  0
    8.6226  -15.1729   23.5024 C   0  0  2  0  0  0  0  0  0  0  0  0
    8.9153  -15.9937   22.3929 N   0  0  0  0  0  0  0  0  0  0  0  0
    8.8375  -15.7645   24.8354 C   0  0  0  0  0  0  0  0  0  0  0  0
    8.6781  -15.0580   25.8908 O   0  0  0  0  0  0  0  0  0  0  0  0
    7.7555  -12.2182   24.7414 C   0  0  0  0  0  0  0  0  0  0  0  0
    7.5248  -11.4258   25.8507 C   0  0  0  0  0  0  0  0  0  0  0  0
    9.2215  -17.1035   25.0657 N   0  0  0  0  0  0  0  0  0  0  0  0
    9.2907  -17.6592   26.3892 C   0  0  1  0  0  0  0  0  0  0  0  0
    8.3003  -18.7798   26.6039 C   0  0  0  0  0  0  0  0  0  0  0  0
    6.6195  -18.3365   26.1866 S   0  0  0  0  0  0  0  0  0  0  0  0
   10.6488  -18.2364   26.6719 C   0  0  0  0  0  0  0  0  0  0  0  0
   10.8878  -18.7759   27.7840 O   0  0  0  0  0  0  0  0  0  0  0  0
   11.6573  -18.1881   25.7243 O   0  0  0  0  0  0  0  0  0  0  0  0
  2  1  1  6
  2  3  1  0
  2  9  1  0
  3  4  1  0
  4  5  2  0
  6  5  1  0
  7  6  1  0
  8  7  2  0
  8  4  1  0
  9 10  2  0
  9 18  1  0
 12 11  1  0
 12 22  2  0
 13 12  1  0
 14 13  2  0
 14 15  1  0
 15 21  2  0
 16 15  1  0
 17 16  1  1
 18 17  1  0
 19 17  1  0
 19 20  2  0
 21 22  1  0
 23 19  1  0
 24 23  1  0
 24 25  1  6
 26 25  1  0
 27 24  1  0
 28 27  2  0
 29 27  1  0
M  END
$$$$
