HYC.pdb
     RDKit          3D

 29 30  0  0  1  0  0  0  0  0999 V2000
    8.8597  -12.8879   20.0184 N   0  0  0  0  0  0  0  0  0  0  0  0
    8.6059  -14.2699   20.3366 C   0  0  1  0  0  0  0  0  0  0  0  0
    9.3303  -15.1229   19.3166 C   0  0  0  0  0  0  0  0  0  0  0  0
    8.6434  -14.9477   18.0105 C   0  0  0  0  0  0  0  0  0  0  0  0
    8.7677  -13.8780   17.1324 C   0  0  0  0  0  0  0  0  0  0  0  0
    7.9758  -14.0956   16.0511 N   0  0  0  0  0  0  0  0  0  0  0  0
    7.3621  -15.2851   16.2464 C   0  0  0  0  0  0  0  0  0  0  0  0
    7.7700  -15.7802   17.4177 N   0  0  0  0  0  0  0  0  0  0  0  0
    9.0536  -14.6034   21.7264 C   0  0  0  0  0  0  0  0  0  0  0  0
   10.2339  -14.3724   22.0853 O   0  0  0  0  0  0  0  0  0  0  0  0
    6.5501  -10.0417   26.5253 O   0  0  0  0  0  0  0  0  0  0  0  0
    6.7395  -11.3678   26.1481 C   0  0  0  0  0  0  0  0  0  0  0  0
    7.9233  -12.0082   26.4420 C   0  0  0  0  0  0  0  0  0  0  0  0
    8.1000  -13.3208   26.0638 C   0  0  0  0  0  0  0  0  0  0  0  0
    7.1130  -14.0452   25.3825 C   0  0  0  0  0  0  0  0  0  0  0  0
    7.4033  -15.4528   25.0308 C   0  0  0  0  0  0  0  0  0  0  0  0
    8.5034  -15.5876   23.9850 C   0  0  2  0  0  0  0  0  0  0  0  0
    8.1707  -15.1848   22.6745 N   0  0  0  0  0  0  0  0  0  0  0  0
    9.2785  -16.8348   24.1150 C   0  0  0  0  0  0  0  0  0  0  0  0
    8.8245  -17.9321   23.6375 O   0  0  0  0  0  0  0  0  0  0  0  0
    5.9516  -13.3655   25.1123 C   0  0  0  0  0  0  0  0  0  0  0  0
    5.7530  -12.0483   25.4824 C   0  0  0  0  0  0  0  0  0  0  0  0
   10.5364  -16.9345   24.7485 N   0  0  0  0  0  0  0  0  0  0  0  0
   11.2400  -18.1832   24.8524 C   0  0  1  0  0  0  0  0  0  0  0  0
   12.7184  -18.0448   24.5734 C   0  0  0  0  0  0  0  0  0  0  0  0
   13.0806  -17.1186   23.0878 S   0  0  0  0  0  0  0  0  0  0  0  0
   11.1239  -18.7655   26.2326 C   0  0  0  0  0  0  0  0  0  0  0  0
   10.5276  -18.1281   27.1399 O   0  0  0  0  0  0  0  0  0  0  0  0
   11.6651  -20.0040   26.5337 O   0  0  0  0  0  0  0  0  0  0  0  0
  2  1  1  6
  2  3  1  0
  2  9  1  0
  3  4  1  0
  4  5  2  0
  6  5  1  0
  7  6  1  0
  8  7  2  0
  8  4  1  0
  9 10  2  0
  9 18  1  0
 12 11  1  0
 12 22  2  0
 13 12  1  0
 14 13  2  0
 14 15  1  0
 15 21  2  0
 16 15  1  0
 17 16  1  1
 18 17  1  0
 19 17  1  0
 19 20  2  0
 21 22  1  0
 23 19  1  0
 24 23  1  0
 24 25  1  1
 26 25  1  0
 27 24  1  0
 28 27  2  0
 29 27  1  0
M  END
$$$$
