HYC.pdb
     RDKit          3D

 29 30  0  0  1  0  0  0  0  0999 V2000
    6.7067  -16.4374   22.2043 N   0  0  0  0  0  0  0  0  0  0  0  0
    8.0084  -16.8451   21.7407 C   0  0  1  0  0  0  0  0  0  0  0  0
    8.2426  -16.2047   20.3887 C   0  0  0  0  0  0  0  0  0  0  0  0
    8.1120  -14.7338   20.5561 C   0  0  0  0  0  0  0  0  0  0  0  0
    7.0090  -14.0370   21.0344 C   0  0  0  0  0  0  0  0  0  0  0  0
    7.2877  -12.7081   21.0337 N   0  0  0  0  0  0  0  0  0  0  0  0
    8.5480  -12.5710   20.5618 C   0  0  0  0  0  0  0  0  0  0  0  0
    9.0254  -13.7864   20.2818 N   0  0  0  0  0  0  0  0  0  0  0  0
    9.0820  -16.4555   22.7095 C   0  0  0  0  0  0  0  0  0  0  0  0
   10.2916  -16.5588   22.3913 O   0  0  0  0  0  0  0  0  0  0  0  0
    5.0156  -11.6255   25.3838 O   0  0  0  0  0  0  0  0  0  0  0  0
    6.1689  -12.3879   25.5423 C   0  0  0  0  0  0  0  0  0  0  0  0
    6.0803  -13.7559   25.6799 C   0  0  0  0  0  0  0  0  0  0  0  0
    7.2283  -14.5006   25.8364 C   0  0  0  0  0  0  0  0  0  0  0  0
    8.5028  -13.9192   25.8622 C   0  0  0  0  0  0  0  0  0  0  0  0
    9.6705  -14.8129   26.0269 C   0  0  0  0  0  0  0  0  0  0  0  0
    9.5935  -16.0562   25.1491 C   0  0  2  0  0  0  0  0  0  0  0  0
    8.7737  -15.9620   24.0049 N   0  0  0  0  0  0  0  0  0  0  0  0
    9.5055  -17.3083   25.9223 C   0  0  0  0  0  0  0  0  0  0  0  0
    8.4942  -18.0816   25.7896 O   0  0  0  0  0  0  0  0  0  0  0  0
    8.5406  -12.5544   25.7212 C   0  0  0  0  0  0  0  0  0  0  0  0
    7.4011  -11.7874   25.5632 C   0  0  0  0  0  0  0  0  0  0  0  0
   10.4816  -17.7540   26.8399 N   0  0  0  0  0  0  0  0  0  0  0  0
   10.7683  -19.1495   27.0290 C   0  0  1  0  0  0  0  0  0  0  0  0
   11.2633  -19.8194   25.7684 C   0  0  0  0  0  0  0  0  0  0  0  0
   11.6675  -21.5467   25.9898 S   0  0  0  0  0  0  0  0  0  0  0  0
   11.8381  -19.3548   28.0638 C   0  0  0  0  0  0  0  0  0  0  0  0
   12.1074  -20.5142   28.4738 O   0  0  0  0  0  0  0  0  0  0  0  0
   12.5443  -18.2833   28.5841 O   0  0  0  0  0  0  0  0  0  0  0  0
  2  1  1  1
  2  3  1  0
  2  9  1  0
  3  4  1  0
  4  5  2  0
  6  5  1  0
  7  6  1  0
  8  7  2  0
  8  4  1  0
  9 10  2  0
  9 18  1  0
 12 11  1  0
 12 22  2  0
 13 12  1  0
 14 13  2  0
 14 15  1  0
 15 21  2  0
 16 15  1  0
 17 16  1  1
 18 17  1  0
 19 17  1  0
 19 20  2  0
 21 22  1  0
 23 19  1  0
 24 23  1  0
 24 25  1  6
 26 25  1  0
 27 24  1  0
 28 27  2  0
 29 27  1  0
M  END
$$$$
