HYC.pdb
     RDKit          3D

 29 30  0  0  1  0  0  0  0  0999 V2000
   10.5725  -17.2680   19.1817 N   0  0  0  0  0  0  0  0  0  0  0  0
    9.2711  -17.1900   19.7949 C   0  0  1  0  0  0  0  0  0  0  0  0
    8.7048  -18.5926   19.8650 C   0  0  0  0  0  0  0  0  0  0  0  0
    7.9734  -18.8491   18.5971 C   0  0  0  0  0  0  0  0  0  0  0  0
    7.8206  -17.9794   17.5242 C   0  0  0  0  0  0  0  0  0  0  0  0
    7.0861  -18.5889   16.5585 N   0  0  0  0  0  0  0  0  0  0  0  0
    6.7813  -19.8243   17.0173 C   0  0  0  0  0  0  0  0  0  0  0  0
    7.3169  -19.9642   18.2327 N   0  0  0  0  0  0  0  0  0  0  0  0
    9.3438  -16.5745   21.1584 C   0  0  0  0  0  0  0  0  0  0  0  0
   10.3520  -16.7562   21.8835 O   0  0  0  0  0  0  0  0  0  0  0  0
    7.2681  -11.8765   28.3692 O   0  0  0  0  0  0  0  0  0  0  0  0
    7.2220  -12.4451   27.0999 C   0  0  0  0  0  0  0  0  0  0  0  0
    7.9451  -11.8902   26.0667 C   0  0  0  0  0  0  0  0  0  0  0  0
    7.8919  -12.4612   24.8144 C   0  0  0  0  0  0  0  0  0  0  0  0
    7.1226  -13.5996   24.5403 C   0  0  0  0  0  0  0  0  0  0  0  0
    7.1438  -14.1365   23.1617 C   0  0  0  0  0  0  0  0  0  0  0  0
    8.2534  -15.1572   22.9403 C   0  0  2  0  0  0  0  0  0  0  0  0
    8.2891  -15.7744   21.6722 N   0  0  0  0  0  0  0  0  0  0  0  0
    8.4795  -16.0311   24.1058 C   0  0  0  0  0  0  0  0  0  0  0  0
    7.7329  -17.0515   24.3046 O   0  0  0  0  0  0  0  0  0  0  0  0
    6.4203  -14.1163   25.6003 C   0  0  0  0  0  0  0  0  0  0  0  0
    6.4589  -13.5595   26.8652 C   0  0  0  0  0  0  0  0  0  0  0  0
    9.4931  -15.8362   25.0691 N   0  0  0  0  0  0  0  0  0  0  0  0
    9.7049  -16.7599   26.1495 C   0  0  1  0  0  0  0  0  0  0  0  0
   10.7253  -17.8232   25.8163 C   0  0  0  0  0  0  0  0  0  0  0  0
   11.1354  -18.8775   27.2006 S   0  0  0  0  0  0  0  0  0  0  0  0
   10.2110  -16.0601   27.3789 C   0  0  0  0  0  0  0  0  0  0  0  0
   10.5586  -14.8515   27.3208 O   0  0  0  0  0  0  0  0  0  0  0  0
   10.3051  -16.7229   28.5910 O   0  0  0  0  0  0  0  0  0  0  0  0
  2  1  1  1
  2  3  1  0
  2  9  1  0
  3  4  1  0
  4  5  2  0
  6  5  1  0
  7  6  1  0
  8  7  2  0
  8  4  1  0
  9 10  2  0
  9 18  1  0
 12 11  1  0
 12 22  2  0
 13 12  1  0
 14 13  2  0
 14 15  1  0
 15 21  2  0
 16 15  1  0
 17 16  1  1
 18 17  1  0
 19 17  1  0
 19 20  2  0
 21 22  1  0
 23 19  1  0
 24 23  1  0
 24 25  1  6
 26 25  1  0
 27 24  1  0
 28 27  2  0
 29 27  1  0
M  END
$$$$
