HYC.pdb
     RDKit          3D

 29 30  0  0  1  0  0  0  0  0999 V2000
    6.1009  -19.3955   20.7011 N   0  0  0  0  0  0  0  0  0  0  0  0
    5.6593  -18.3165   21.5475 C   0  0  1  0  0  0  0  0  0  0  0  0
    4.6489  -18.8765   22.5264 C   0  0  0  0  0  0  0  0  0  0  0  0
    3.3585  -19.0313   21.8057 C   0  0  0  0  0  0  0  0  0  0  0  0
    3.0884  -18.6969   20.4844 C   0  0  0  0  0  0  0  0  0  0  0  0
    1.7924  -18.9922   20.2066 N   0  0  0  0  0  0  0  0  0  0  0  0
    1.2552  -19.5051   21.3371 C   0  0  0  0  0  0  0  0  0  0  0  0
    2.2003  -19.5218   22.2805 N   0  0  0  0  0  0  0  0  0  0  0  0
    6.8074  -17.6815   22.2696 C   0  0  0  0  0  0  0  0  0  0  0  0
    7.8318  -18.3518   22.5461 O   0  0  0  0  0  0  0  0  0  0  0  0
    8.3900  -12.8444   17.6278 O   0  0  0  0  0  0  0  0  0  0  0  0
    8.2886  -13.1596   18.9795 C   0  0  0  0  0  0  0  0  0  0  0  0
    7.0505  -13.2595   19.5755 C   0  0  0  0  0  0  0  0  0  0  0  0
    6.9620  -13.5719   20.9140 C   0  0  0  0  0  0  0  0  0  0  0  0
    8.0935  -13.7961   21.7091 C   0  0  0  0  0  0  0  0  0  0  0  0
    7.8847  -14.1340   23.1345 C   0  0  0  0  0  0  0  0  0  0  0  0
    7.7834  -15.6347   23.3790 C   0  0  2  0  0  0  0  0  0  0  0  0
    6.7783  -16.3169   22.6618 N   0  0  0  0  0  0  0  0  0  0  0  0
    7.9487  -16.0044   24.7965 C   0  0  0  0  0  0  0  0  0  0  0  0
    7.1356  -15.5615   25.6803 O   0  0  0  0  0  0  0  0  0  0  0  0
    9.3040  -13.6858   21.0715 C   0  0  0  0  0  0  0  0  0  0  0  0
    9.4161  -13.3732   19.7294 C   0  0  0  0  0  0  0  0  0  0  0  0
    8.9708  -16.8428   25.2923 N   0  0  0  0  0  0  0  0  0  0  0  0
    9.0748  -17.1739   26.6869 C   0  0  1  0  0  0  0  0  0  0  0  0
    8.3307  -18.4397   27.0430 C   0  0  0  0  0  0  0  0  0  0  0  0
    6.6724  -18.5036   26.3783 S   0  0  0  0  0  0  0  0  0  0  0  0
   10.5042  -17.3964   27.0931 C   0  0  0  0  0  0  0  0  0  0  0  0
   11.4207  -17.3535   26.2311 O   0  0  0  0  0  0  0  0  0  0  0  0
   10.8411  -17.6510   28.4118 O   0  0  0  0  0  0  0  0  0  0  0  0
  2  1  1  6
  2  3  1  0
  2  9  1  0
  3  4  1  0
  4  5  2  0
  6  5  1  0
  7  6  1  0
  8  7  2  0
  8  4  1  0
  9 10  2  0
  9 18  1  0
 12 11  1  0
 12 22  2  0
 13 12  1  0
 14 13  2  0
 14 15  1  0
 15 21  2  0
 16 15  1  0
 17 16  1  1
 18 17  1  0
 19 17  1  0
 19 20  2  0
 21 22  1  0
 23 19  1  0
 24 23  1  0
 24 25  1  6
 26 25  1  0
 27 24  1  0
 28 27  2  0
 29 27  1  0
M  END
$$$$
