HYC.pdb
     RDKit          3D

 29 30  0  0  1  0  0  0  0  0999 V2000
    8.9093  -17.3029   19.2033 N   0  0  0  0  0  0  0  0  0  0  0  0
    8.9072  -15.8788   18.9856 C   0  0  1  0  0  0  0  0  0  0  0  0
    7.8028  -15.5602   17.9998 C   0  0  0  0  0  0  0  0  0  0  0  0
    8.0992  -16.2870   16.7379 C   0  0  0  0  0  0  0  0  0  0  0  0
    8.9289  -15.8713   15.7037 C   0  0  0  0  0  0  0  0  0  0  0  0
    8.9342  -16.8176   14.7298 N   0  0  0  0  0  0  0  0  0  0  0  0
    8.1194  -17.8140   15.1456 C   0  0  0  0  0  0  0  0  0  0  0  0
    7.6297  -17.4833   16.3433 N   0  0  0  0  0  0  0  0  0  0  0  0
    8.7120  -15.1288   20.2672 C   0  0  0  0  0  0  0  0  0  0  0  0
    8.2842  -13.9490   20.2529 O   0  0  0  0  0  0  0  0  0  0  0  0
    7.0810  -11.9601   28.1034 O   0  0  0  0  0  0  0  0  0  0  0  0
    7.1753  -12.5507   26.8468 C   0  0  0  0  0  0  0  0  0  0  0  0
    7.8618  -11.9169   25.8343 C   0  0  0  0  0  0  0  0  0  0  0  0
    7.9486  -12.5107   24.5946 C   0  0  0  0  0  0  0  0  0  0  0  0
    7.3603  -13.7506   24.3131 C   0  0  0  0  0  0  0  0  0  0  0  0
    7.5219  -14.3023   22.9497 C   0  0  0  0  0  0  0  0  0  0  0  0
    8.7949  -15.1247   22.7902 C   0  0  2  0  0  0  0  0  0  0  0  0
    9.0000  -15.7178   21.5268 N   0  0  0  0  0  0  0  0  0  0  0  0
    9.0988  -15.9584   23.9674 C   0  0  0  0  0  0  0  0  0  0  0  0
    8.3925  -16.9937   24.2275 O   0  0  0  0  0  0  0  0  0  0  0  0
    6.6878  -14.3433   25.3524 C   0  0  0  0  0  0  0  0  0  0  0  0
    6.5879  -13.7655   26.6045 C   0  0  0  0  0  0  0  0  0  0  0  0
   10.1481  -15.7073   24.8781 N   0  0  0  0  0  0  0  0  0  0  0  0
   10.6227  -16.7123   25.7891 C   0  0  1  0  0  0  0  0  0  0  0  0
   11.9320  -16.3359   26.4425 C   0  0  0  0  0  0  0  0  0  0  0  0
   12.4875  -17.5197   27.6615 S   0  0  0  0  0  0  0  0  0  0  0  0
    9.6456  -16.9461   26.9063 C   0  0  0  0  0  0  0  0  0  0  0  0
    9.4177  -18.1156   27.3130 O   0  0  0  0  0  0  0  0  0  0  0  0
    8.9809  -15.8904   27.5071 O   0  0  0  0  0  0  0  0  0  0  0  0
  2  1  1  1
  2  3  1  0
  2  9  1  0
  3  4  1  0
  4  5  2  0
  6  5  1  0
  7  6  1  0
  8  7  2  0
  8  4  1  0
  9 10  2  0
  9 18  1  0
 12 11  1  0
 12 22  2  0
 13 12  1  0
 14 13  2  0
 14 15  1  0
 15 21  2  0
 16 15  1  0
 17 16  1  1
 18 17  1  0
 19 17  1  0
 19 20  2  0
 21 22  1  0
 23 19  1  0
 24 23  1  0
 24 25  1  1
 26 25  1  0
 27 24  1  0
 28 27  2  0
 29 27  1  0
M  END
$$$$
