HYC.pdb
     RDKit          3D

 29 30  0  0  1  0  0  0  0  0999 V2000
    9.6090  -16.7099   18.1710 N   0  0  0  0  0  0  0  0  0  0  0  0
    8.5901  -17.0237   19.1400 C   0  0  1  0  0  0  0  0  0  0  0  0
    8.5148  -18.5309   19.2646 C   0  0  0  0  0  0  0  0  0  0  0  0
    8.0509  -19.0702   17.9599 C   0  0  0  0  0  0  0  0  0  0  0  0
    7.0111  -18.5893   17.1735 C   0  0  0  0  0  0  0  0  0  0  0  0
    6.9045  -19.3571   16.0587 N   0  0  0  0  0  0  0  0  0  0  0  0
    7.8636  -20.3073   16.1426 C   0  0  0  0  0  0  0  0  0  0  0  0
    8.5380  -20.1231   17.2806 N   0  0  0  0  0  0  0  0  0  0  0  0
    8.8819  -16.3920   20.4662 C   0  0  0  0  0  0  0  0  0  0  0  0
    9.9726  -16.6113   21.0471 O   0  0  0  0  0  0  0  0  0  0  0  0
    7.2437  -12.5971   28.3209 O   0  0  0  0  0  0  0  0  0  0  0  0
    7.1917  -12.9336   26.9716 C   0  0  0  0  0  0  0  0  0  0  0  0
    6.3898  -13.9705   26.5476 C   0  0  0  0  0  0  0  0  0  0  0  0
    6.3462  -14.2949   25.2097 C   0  0  0  0  0  0  0  0  0  0  0  0
    7.0932  -13.6058   24.2453 C   0  0  0  0  0  0  0  0  0  0  0  0
    6.9656  -14.0311   22.8338 C   0  0  0  0  0  0  0  0  0  0  0  0
    8.0617  -14.9990   22.4052 C   0  0  2  0  0  0  0  0  0  0  0  0
    7.9478  -15.5340   21.1048 N   0  0  0  0  0  0  0  0  0  0  0  0
    8.4582  -15.9364   23.4717 C   0  0  0  0  0  0  0  0  0  0  0  0
    7.7489  -16.9726   23.7197 O   0  0  0  0  0  0  0  0  0  0  0  0
    7.8764  -12.5813   24.7151 C   0  0  0  0  0  0  0  0  0  0  0  0
    7.9356  -12.2387   26.0533 C   0  0  0  0  0  0  0  0  0  0  0  0
    9.6039  -15.7888   24.2835 N   0  0  0  0  0  0  0  0  0  0  0  0
    9.9428  -16.7429   25.3033 C   0  0  1  0  0  0  0  0  0  0  0  0
   11.1858  -17.5350   24.9713 C   0  0  0  0  0  0  0  0  0  0  0  0
   10.9820  -18.6297   23.5727 S   0  0  0  0  0  0  0  0  0  0  0  0
   10.2113  -16.0683   26.6187 C   0  0  0  0  0  0  0  0  0  0  0  0
   10.4813  -16.7554   27.6385 O   0  0  0  0  0  0  0  0  0  0  0  0
   10.1681  -14.6893   26.7368 O   0  0  0  0  0  0  0  0  0  0  0  0
  2  1  1  6
  2  3  1  0
  2  9  1  0
  3  4  1  0
  4  5  2  0
  6  5  1  0
  7  6  1  0
  8  7  2  0
  8  4  1  0
  9 10  2  0
  9 18  1  0
 12 11  1  0
 12 22  2  0
 13 12  1  0
 14 13  2  0
 14 15  1  0
 15 21  2  0
 16 15  1  0
 17 16  1  1
 18 17  1  0
 19 17  1  0
 19 20  2  0
 21 22  1  0
 23 19  1  0
 24 23  1  0
 24 25  1  6
 26 25  1  0
 27 24  1  0
 28 27  2  0
 29 27  1  0
M  END
$$$$
