HYC.pdb
     RDKit          3D

 29 30  0  0  1  0  0  0  0  0999 V2000
   10.4386  -16.0364   19.0800 N   0  0  0  0  0  0  0  0  0  0  0  0
    9.2257  -15.3458   19.4373 C   0  0  1  0  0  0  0  0  0  0  0  0
    8.0895  -15.9626   18.6490 C   0  0  0  0  0  0  0  0  0  0  0  0
    8.1106  -15.3705   17.2861 C   0  0  0  0  0  0  0  0  0  0  0  0
    8.6765  -14.1602   16.9042 C   0  0  0  0  0  0  0  0  0  0  0  0
    8.4839  -13.9796   15.5723 N   0  0  0  0  0  0  0  0  0  0  0  0
    7.8066  -15.0608   15.1229 C   0  0  0  0  0  0  0  0  0  0  0  0
    7.5918  -15.8801   16.1555 N   0  0  0  0  0  0  0  0  0  0  0  0
    8.9613  -15.4284   20.9091 C   0  0  0  0  0  0  0  0  0  0  0  0
    9.4248  -16.3793   21.5845 O   0  0  0  0  0  0  0  0  0  0  0  0
    7.5197  -12.5958   29.1163 O   0  0  0  0  0  0  0  0  0  0  0  0
    7.4297  -12.7270   27.7338 C   0  0  0  0  0  0  0  0  0  0  0  0
    8.5393  -12.5150   26.9452 C   0  0  0  0  0  0  0  0  0  0  0  0
    8.4388  -12.6475   25.5780 C   0  0  0  0  0  0  0  0  0  0  0  0
    7.2387  -12.9939   24.9434 C   0  0  0  0  0  0  0  0  0  0  0  0
    7.2434  -13.1178   23.4690 C   0  0  0  0  0  0  0  0  0  0  0  0
    8.0134  -14.3382   22.9794 C   0  0  2  0  0  0  0  0  0  0  0  0
    8.1874  -14.4472   21.5836 N   0  0  0  0  0  0  0  0  0  0  0  0
    7.6589  -15.5754   23.6984 C   0  0  0  0  0  0  0  0  0  0  0  0
    6.6060  -16.2301   23.3804 O   0  0  0  0  0  0  0  0  0  0  0  0
    6.1615  -13.1951   25.7699 C   0  0  0  0  0  0  0  0  0  0  0  0
    6.2398  -13.0674   27.1444 C   0  0  0  0  0  0  0  0  0  0  0  0
    8.4105  -16.1308   24.7567 N   0  0  0  0  0  0  0  0  0  0  0  0
    8.1013  -17.4175   25.3171 C   0  0  1  0  0  0  0  0  0  0  0  0
    8.2713  -18.5428   24.3233 C   0  0  0  0  0  0  0  0  0  0  0  0
    8.1653  -20.1680   25.0605 S   0  0  0  0  0  0  0  0  0  0  0  0
    8.9987  -17.7407   26.4780 C   0  0  0  0  0  0  0  0  0  0  0  0
   10.1810  -17.3088   26.5029 O   0  0  0  0  0  0  0  0  0  0  0  0
    8.5492  -18.5132   27.5356 O   0  0  0  0  0  0  0  0  0  0  0  0
  2  1  1  1
  2  3  1  0
  2  9  1  0
  3  4  1  0
  4  5  2  0
  6  5  1  0
  7  6  1  0
  8  7  2  0
  8  4  1  0
  9 10  2  0
  9 18  1  0
 12 11  1  0
 12 22  2  0
 13 12  1  0
 14 13  2  0
 14 15  1  0
 15 21  2  0
 16 15  1  0
 17 16  1  6
 18 17  1  0
 19 17  1  0
 19 20  2  0
 21 22  1  0
 23 19  1  0
 24 23  1  0
 24 25  1  6
 26 25  1  0
 27 24  1  0
 28 27  2  0
 29 27  1  0
M  END
$$$$
