HYC.pdb
     RDKit          3D

 29 30  0  0  1  0  0  0  0  0999 V2000
   10.4677  -18.3643   17.6558 N   0  0  0  0  0  0  0  0  0  0  0  0
    9.8719  -18.3647   18.9676 C   0  0  1  0  0  0  0  0  0  0  0  0
   10.0894  -19.7337   19.5770 C   0  0  0  0  0  0  0  0  0  0  0  0
    9.2296  -20.6978   18.8423 C   0  0  0  0  0  0  0  0  0  0  0  0
    8.3697  -20.4217   17.7863 C   0  0  0  0  0  0  0  0  0  0  0  0
    7.7654  -21.5720   17.3922 N   0  0  0  0  0  0  0  0  0  0  0  0
    8.2386  -22.5575   18.1888 C   0  0  0  0  0  0  0  0  0  0  0  0
    9.1096  -22.0210   19.0473 N   0  0  0  0  0  0  0  0  0  0  0  0
   10.4579  -17.2942   19.8358 C   0  0  0  0  0  0  0  0  0  0  0  0
   11.6888  -17.0518   19.8005 O   0  0  0  0  0  0  0  0  0  0  0  0
    6.9605  -12.2294   17.0306 O   0  0  0  0  0  0  0  0  0  0  0  0
    7.5188  -12.7382   18.1994 C   0  0  0  0  0  0  0  0  0  0  0  0
    6.7326  -13.4213   19.1012 C   0  0  0  0  0  0  0  0  0  0  0  0
    7.2957  -13.9205   20.2548 C   0  0  0  0  0  0  0  0  0  0  0  0
    8.6546  -13.7618   20.5565 C   0  0  0  0  0  0  0  0  0  0  0  0
    9.1582  -14.3455   21.8195 C   0  0  0  0  0  0  0  0  0  0  0  0
   10.1055  -15.5176   21.5943 C   0  0  2  0  0  0  0  0  0  0  0  0
    9.6526  -16.5260   20.7178 N   0  0  0  0  0  0  0  0  0  0  0  0
   10.7756  -15.9680   22.8278 C   0  0  0  0  0  0  0  0  0  0  0  0
   10.0902  -16.4266   23.8067 O   0  0  0  0  0  0  0  0  0  0  0  0
    9.3971  -13.0752   19.6287 C   0  0  0  0  0  0  0  0  0  0  0  0
    8.8527  -12.5655   18.4644 C   0  0  0  0  0  0  0  0  0  0  0  0
   12.1714  -15.9383   23.0384 N   0  0  0  0  0  0  0  0  0  0  0  0
   12.7789  -16.5250   24.2011 C   0  0  1  0  0  0  0  0  0  0  0  0
   12.6256  -18.0275   24.2441 C   0  0  0  0  0  0  0  0  0  0  0  0
   12.1961  -18.6550   25.8620 S   0  0  0  0  0  0  0  0  0  0  0  0
   14.2553  -16.2502   24.2468 C   0  0  0  0  0  0  0  0  0  0  0  0
   14.8668  -15.9031   23.2025 O   0  0  0  0  0  0  0  0  0  0  0  0
   14.9687  -16.3715   25.4274 O   0  0  0  0  0  0  0  0  0  0  0  0
  2  1  1  6
  2  3  1  0
  2  9  1  0
  3  4  1  0
  4  5  2  0
  6  5  1  0
  7  6  1  0
  8  7  2  0
  8  4  1  0
  9 10  2  0
  9 18  1  0
 12 11  1  0
 12 22  2  0
 13 12  1  0
 14 13  2  0
 14 15  1  0
 15 21  2  0
 16 15  1  0
 17 16  1  1
 18 17  1  0
 19 17  1  0
 19 20  2  0
 21 22  1  0
 23 19  1  0
 24 23  1  0
 24 25  1  6
 26 25  1  0
 27 24  1  0
 28 27  2  0
 29 27  1  0
M  END
$$$$
