HYC.pdb
     RDKit          3D

 29 30  0  0  1  0  0  0  0  0999 V2000
   10.6727  -16.3856   19.1658 N   0  0  0  0  0  0  0  0  0  0  0  0
    9.4732  -15.6826   19.5433 C   0  0  1  0  0  0  0  0  0  0  0  0
    8.3001  -16.3759   18.8829 C   0  0  0  0  0  0  0  0  0  0  0  0
    8.0763  -15.7290   17.5639 C   0  0  0  0  0  0  0  0  0  0  0  0
    8.5689  -14.5025   17.1349 C   0  0  0  0  0  0  0  0  0  0  0  0
    8.1387  -14.2686   15.8684 N   0  0  0  0  0  0  0  0  0  0  0  0
    7.3863  -15.3327   15.5060 C   0  0  0  0  0  0  0  0  0  0  0  0
    7.3587  -16.1938   16.5265 N   0  0  0  0  0  0  0  0  0  0  0  0
    9.3041  -15.6469   21.0310 C   0  0  0  0  0  0  0  0  0  0  0  0
    9.8740  -16.4992   21.7548 O   0  0  0  0  0  0  0  0  0  0  0  0
    7.2762  -12.5736   29.1224 O   0  0  0  0  0  0  0  0  0  0  0  0
    7.3475  -12.7493   27.7437 C   0  0  0  0  0  0  0  0  0  0  0  0
    6.2642  -13.2464   27.0528 C   0  0  0  0  0  0  0  0  0  0  0  0
    6.3459  -13.4163   25.6884 C   0  0  0  0  0  0  0  0  0  0  0  0
    7.5007  -13.1010   24.9604 C   0  0  0  0  0  0  0  0  0  0  0  0
    7.4783  -13.3143   23.4964 C   0  0  0  0  0  0  0  0  0  0  0  0
    8.3283  -14.5004   23.0573 C   0  0  2  0  0  0  0  0  0  0  0  0
    8.5040  -14.6610   21.6668 N   0  0  0  0  0  0  0  0  0  0  0  0
    8.0621  -15.7247   23.8342 C   0  0  0  0  0  0  0  0  0  0  0  0
    6.9399  -16.3303   23.7241 O   0  0  0  0  0  0  0  0  0  0  0  0
    8.5530  -12.6091   25.6915 C   0  0  0  0  0  0  0  0  0  0  0  0
    8.4929  -12.4306   27.0612 C   0  0  0  0  0  0  0  0  0  0  0  0
    8.9756  -16.3189   24.7318 N   0  0  0  0  0  0  0  0  0  0  0  0
    8.6214  -17.4540   25.5389 C   0  0  1  0  0  0  0  0  0  0  0  0
    9.2473  -18.7380   25.0467 C   0  0  0  0  0  0  0  0  0  0  0  0
    8.9174  -19.0776   23.3228 S   0  0  0  0  0  0  0  0  0  0  0  0
    9.0769  -17.2804   26.9602 C   0  0  0  0  0  0  0  0  0  0  0  0
    9.7181  -16.2509   27.2977 O   0  0  0  0  0  0  0  0  0  0  0  0
    8.8039  -18.2400   27.9205 O   0  0  0  0  0  0  0  0  0  0  0  0
  2  1  1  1
  2  3  1  0
  2  9  1  0
  3  4  1  0
  4  5  2  0
  6  5  1  0
  7  6  1  0
  8  7  2  0
  8  4  1  0
  9 10  2  0
  9 18  1  0
 12 11  1  0
 12 22  2  0
 13 12  1  0
 14 13  2  0
 14 15  1  0
 15 21  2  0
 16 15  1  0
 17 16  1  6
 18 17  1  0
 19 17  1  0
 19 20  2  0
 21 22  1  0
 23 19  1  0
 24 23  1  0
 24 25  1  6
 26 25  1  0
 27 24  1  0
 28 27  2  0
 29 27  1  0
M  END
$$$$
