HYC.pdb
     RDKit          3D

 29 30  0  0  1  0  0  0  0  0999 V2000
   10.5578  -17.0741   19.2227 N   0  0  0  0  0  0  0  0  0  0  0  0
    9.2434  -16.8267   19.7585 C   0  0  1  0  0  0  0  0  0  0  0  0
    8.4653  -18.1243   19.7001 C   0  0  0  0  0  0  0  0  0  0  0  0
    8.2274  -18.4453   18.2687 C   0  0  0  0  0  0  0  0  0  0  0  0
    7.4716  -17.7165   17.3584 C   0  0  0  0  0  0  0  0  0  0  0  0
    7.5018  -18.3420   16.1536 N   0  0  0  0  0  0  0  0  0  0  0  0
    8.2655  -19.4483   16.3040 C   0  0  0  0  0  0  0  0  0  0  0  0
    8.6903  -19.4958   17.5692 N   0  0  0  0  0  0  0  0  0  0  0  0
    9.3124  -16.3078   21.1617 C   0  0  0  0  0  0  0  0  0  0  0  0
   10.2189  -16.6964   21.9379 O   0  0  0  0  0  0  0  0  0  0  0  0
    7.1741  -11.9430   28.5911 O   0  0  0  0  0  0  0  0  0  0  0  0
    7.2373  -12.3566   27.2639 C   0  0  0  0  0  0  0  0  0  0  0  0
    6.3789  -13.3297   26.8010 C   0  0  0  0  0  0  0  0  0  0  0  0
    6.4504  -13.7315   25.4855 C   0  0  0  0  0  0  0  0  0  0  0  0
    7.3723  -13.1857   24.5827 C   0  0  0  0  0  0  0  0  0  0  0  0
    7.3580  -13.6836   23.1894 C   0  0  0  0  0  0  0  0  0  0  0  0
    8.3333  -14.8319   22.9606 C   0  0  2  0  0  0  0  0  0  0  0  0
    8.3676  -15.3706   21.6572 N   0  0  0  0  0  0  0  0  0  0  0  0
    8.3655  -15.7972   24.0743 C   0  0  0  0  0  0  0  0  0  0  0  0
    7.4722  -16.7092   24.1668 O   0  0  0  0  0  0  0  0  0  0  0  0
    8.2057  -12.2201   25.0895 C   0  0  0  0  0  0  0  0  0  0  0  0
    8.1515  -11.8017   26.4062 C   0  0  0  0  0  0  0  0  0  0  0  0
    9.3383  -15.8083   25.0975 N   0  0  0  0  0  0  0  0  0  0  0  0
    9.4180  -16.8715   26.0611 C   0  0  1  0  0  0  0  0  0  0  0  0
   10.3639  -17.9716   25.6391 C   0  0  0  0  0  0  0  0  0  0  0  0
    9.5674  -19.2863   24.7264 S   0  0  0  0  0  0  0  0  0  0  0  0
    9.9158  -16.3733   27.3883 C   0  0  0  0  0  0  0  0  0  0  0  0
   10.2566  -15.1691   27.5245 O   0  0  0  0  0  0  0  0  0  0  0  0
   10.0095  -17.2198   28.4801 O   0  0  0  0  0  0  0  0  0  0  0  0
  2  1  1  1
  2  3  1  0
  2  9  1  0
  3  4  1  0
  4  5  2  0
  6  5  1  0
  7  6  1  0
  8  7  2  0
  8  4  1  0
  9 10  2  0
  9 18  1  0
 12 11  1  0
 12 22  2  0
 13 12  1  0
 14 13  2  0
 14 15  1  0
 15 21  2  0
 16 15  1  0
 17 16  1  6
 18 17  1  0
 19 17  1  0
 19 20  2  0
 21 22  1  0
 23 19  1  0
 24 23  1  0
 24 25  1  6
 26 25  1  0
 27 24  1  0
 28 27  2  0
 29 27  1  0
M  END
$$$$
