HYC.pdb
     RDKit          3D

 29 30  0  0  1  0  0  0  0  0999 V2000
   10.0864  -17.1606   18.5800 N   0  0  0  0  0  0  0  0  0  0  0  0
    9.2813  -17.6881   19.6521 C   0  0  1  0  0  0  0  0  0  0  0  0
    9.7340  -19.1083   19.9186 C   0  0  0  0  0  0  0  0  0  0  0  0
    9.3170  -19.9409   18.7604 C   0  0  0  0  0  0  0  0  0  0  0  0
    8.1282  -20.6460   18.6168 C   0  0  0  0  0  0  0  0  0  0  0  0
    8.1290  -21.2798   17.4160 N   0  0  0  0  0  0  0  0  0  0  0  0
    9.3016  -20.9778   16.8129 C   0  0  0  0  0  0  0  0  0  0  0  0
    9.9980  -20.1796   17.6262 N   0  0  0  0  0  0  0  0  0  0  0  0
    9.3970  -16.8499   20.8878 C   0  0  0  0  0  0  0  0  0  0  0  0
   10.5064  -16.7096   21.4577 O   0  0  0  0  0  0  0  0  0  0  0  0
    7.1513  -12.0070   27.9508 O   0  0  0  0  0  0  0  0  0  0  0  0
    7.1111  -12.6470   26.7157 C   0  0  0  0  0  0  0  0  0  0  0  0
    7.7796  -12.1110   25.6368 C   0  0  0  0  0  0  0  0  0  0  0  0
    7.7329  -12.7528   24.4191 C   0  0  0  0  0  0  0  0  0  0  0  0
    7.0242  -13.9458   24.2258 C   0  0  0  0  0  0  0  0  0  0  0  0
    7.0471  -14.5565   22.8783 C   0  0  0  0  0  0  0  0  0  0  0  0
    8.2482  -15.4690   22.6616 C   0  0  2  0  0  0  0  0  0  0  0  0
    8.2710  -16.1930   21.4510 N   0  0  0  0  0  0  0  0  0  0  0  0
    8.6467  -16.2027   23.8765 C   0  0  0  0  0  0  0  0  0  0  0  0
    7.9766  -17.2209   24.2671 O   0  0  0  0  0  0  0  0  0  0  0  0
    6.3748  -14.4412   25.3289 C   0  0  0  0  0  0  0  0  0  0  0  0
    6.4081  -13.8136   26.5604 C   0  0  0  0  0  0  0  0  0  0  0  0
    9.7531  -15.8691   24.6877 N   0  0  0  0  0  0  0  0  0  0  0  0
   10.1548  -16.6845   25.8007 C   0  0  1  0  0  0  0  0  0  0  0  0
   11.5856  -17.1576   25.6910 C   0  0  0  0  0  0  0  0  0  0  0  0
   11.9617  -17.9363   24.1264 S   0  0  0  0  0  0  0  0  0  0  0  0
   10.0580  -15.9306   27.0968 C   0  0  0  0  0  0  0  0  0  0  0  0
    9.7001  -14.7236   27.1012 O   0  0  0  0  0  0  0  0  0  0  0  0
   10.3575  -16.5411   28.3030 O   0  0  0  0  0  0  0  0  0  0  0  0
  2  1  1  6
  2  3  1  0
  2  9  1  0
  3  4  1  0
  4  5  2  0
  6  5  1  0
  7  6  1  0
  8  7  2  0
  8  4  1  0
  9 10  2  0
  9 18  1  0
 12 11  1  0
 12 22  2  0
 13 12  1  0
 14 13  2  0
 14 15  1  0
 15 21  2  0
 16 15  1  0
 17 16  1  1
 18 17  1  0
 19 17  1  0
 19 20  2  0
 21 22  1  0
 23 19  1  0
 24 23  1  0
 24 25  1  6
 26 25  1  0
 27 24  1  0
 28 27  2  0
 29 27  1  0
M  END
$$$$
