HYC.pdb
     RDKit          3D

 29 30  0  0  1  0  0  0  0  0999 V2000
   10.4946  -17.0387   19.2535 N   0  0  0  0  0  0  0  0  0  0  0  0
    9.1728  -16.7234   19.7320 C   0  0  1  0  0  0  0  0  0  0  0  0
    8.3099  -17.9560   19.5615 C   0  0  0  0  0  0  0  0  0  0  0  0
    7.9473  -18.0591   18.1240 C   0  0  0  0  0  0  0  0  0  0  0  0
    8.3621  -17.2276   17.0909 C   0  0  0  0  0  0  0  0  0  0  0  0
    7.8111  -17.6563   15.9262 N   0  0  0  0  0  0  0  0  0  0  0  0
    7.0607  -18.7420   16.2226 C   0  0  0  0  0  0  0  0  0  0  0  0
    7.1520  -18.9692   17.5354 N   0  0  0  0  0  0  0  0  0  0  0  0
    9.1986  -16.2833   21.1633 C   0  0  0  0  0  0  0  0  0  0  0  0
   10.0071  -16.8010   21.9718 O   0  0  0  0  0  0  0  0  0  0  0  0
    7.3193  -12.0150   28.6729 O   0  0  0  0  0  0  0  0  0  0  0  0
    7.2851  -12.4353   27.3467 C   0  0  0  0  0  0  0  0  0  0  0  0
    8.2348  -11.9880   26.4545 C   0  0  0  0  0  0  0  0  0  0  0  0
    8.1912  -12.4105   25.1443 C   0  0  0  0  0  0  0  0  0  0  0  0
    7.2080  -13.2892   24.6711 C   0  0  0  0  0  0  0  0  0  0  0  0
    7.2588  -13.6860   23.2465 C   0  0  0  0  0  0  0  0  0  0  0  0
    8.1961  -14.8602   22.9916 C   0  0  2  0  0  0  0  0  0  0  0  0
    8.3212  -15.2784   21.6501 N   0  0  0  0  0  0  0  0  0  0  0  0
    8.0837  -15.9237   24.0062 C   0  0  0  0  0  0  0  0  0  0  0  0
    7.0359  -16.6566   24.0628 O   0  0  0  0  0  0  0  0  0  0  0  0
    6.2843  -13.7074   25.5961 C   0  0  0  0  0  0  0  0  0  0  0  0
    6.3090  -13.2961   26.9159 C   0  0  0  0  0  0  0  0  0  0  0  0
    9.0737  -16.2222   24.9676 N   0  0  0  0  0  0  0  0  0  0  0  0
    8.9200  -17.2950   25.9114 C   0  0  1  0  0  0  0  0  0  0  0  0
    9.6686  -18.5424   25.5037 C   0  0  0  0  0  0  0  0  0  0  0  0
    9.1889  -19.1706   23.9002 S   0  0  0  0  0  0  0  0  0  0  0  0
    9.4436  -16.9128   27.2668 C   0  0  0  0  0  0  0  0  0  0  0  0
    9.9341  -15.7689   27.4560 O   0  0  0  0  0  0  0  0  0  0  0  0
    9.3984  -17.8021   28.3273 O   0  0  0  0  0  0  0  0  0  0  0  0
  2  1  1  1
  2  3  1  0
  2  9  1  0
  3  4  1  0
  4  5  2  0
  6  5  1  0
  7  6  1  0
  8  7  2  0
  8  4  1  0
  9 10  2  0
  9 18  1  0
 12 11  1  0
 12 22  2  0
 13 12  1  0
 14 13  2  0
 14 15  1  0
 15 21  2  0
 16 15  1  0
 17 16  1  6
 18 17  1  0
 19 17  1  0
 19 20  2  0
 21 22  1  0
 23 19  1  0
 24 23  1  0
 24 25  1  6
 26 25  1  0
 27 24  1  0
 28 27  2  0
 29 27  1  0
M  END
$$$$
