TNT.pdb
     RDKit          3D

 23 22  0  0  1  0  0  0  0  0999 V2000
   21.8885   -3.1579  -14.8266 C   0  0  0  0  0  0  0  0  0  0  0  0
   21.3353   -3.3292  -16.2467 C   0  0  1  0  0  0  0  0  0  0  0  0
   22.1896   -2.5520  -17.0483 O   0  0  0  0  0  0  0  0  0  0  0  0
   21.5101   -4.7743  -16.6716 C   0  0  2  0  0  0  0  0  0  0  0  0
   20.9766   -4.8878  -18.0166 N   0  0  0  0  0  0  0  0  0  0  0  0
   20.6324   -5.5829  -15.7475 C   0  0  0  0  0  0  0  0  0  0  0  0
   19.4030   -5.7091  -15.9599 O   0  0  0  0  0  0  0  0  0  0  0  0
   22.4730   -9.6758  -14.7669 N   0  0  0  0  0  0  0  0  0  0  0  0
   21.1855   -9.2963  -14.3237 C   0  0  0  0  0  0  0  0  0  0  0  0
   20.1919   -9.8449  -14.8589 O   0  0  0  0  0  0  0  0  0  0  0  0
   21.0797   -8.2804  -13.2608 C   0  0  0  0  0  0  0  0  0  0  0  0
   20.3714   -7.0309  -13.7234 C   0  0  2  0  0  0  0  0  0  0  0  0
   21.1753   -6.2291  -14.6032 N   0  0  0  0  0  0  0  0  0  0  0  0
   19.9056   -6.2524  -12.5332 C   0  0  0  0  0  0  0  0  0  0  0  0
   20.8076   -5.6922  -11.8636 O   0  0  0  0  0  0  0  0  0  0  0  0
   15.6656   -5.2286  -11.7862 C   0  0  0  0  0  0  0  0  0  0  0  0
   16.9038   -4.4486  -11.4677 C   0  0  1  0  0  0  0  0  0  0  0  0
   16.5796   -3.5325  -10.4768 O   0  0  0  0  0  0  0  0  0  0  0  0
   18.0860   -5.2913  -11.0809 C   0  0  2  0  0  0  0  0  0  0  0  0
   18.5386   -6.1392  -12.1633 N   0  0  0  0  0  0  0  0  0  0  0  0
   17.8934   -6.0423   -9.8252 C   0  0  0  0  0  0  0  0  0  0  0  0
   17.7030   -5.3027   -8.6625 O   0  0  0  0  0  0  0  0  0  0  0  0
   17.8882   -7.2749   -9.7232 O   0  0  0  0  0  0  0  0  0  0  0  0
  2  1  1  1
  2  4  1  0
  3  2  1  0
  4  6  1  0
  4  5  1  6
  6 13  1  0
  6  7  2  0
  8  9  1  0
  9 11  1  0
 10  9  2  0
 12 11  1  1
 12 14  1  0
 13 12  1  0
 14 20  1  0
 14 15  2  0
 17 16  1  1
 17 19  1  0
 17 18  1  0
 19 21  1  0
 19 20  1  6
 21 22  1  0
 23 21  2  0
M  END
$$$$
