TNT.pdb
     RDKit          3D

 23 22  0  0  1  0  0  0  0  0999 V2000
   16.8668   -7.2959  -17.7854 C   0  0  0  0  0  0  0  0  0  0  0  0
   16.1689   -8.5916  -17.3542 C   0  0  1  0  0  0  0  0  0  0  0  0
   15.1665   -8.7845  -18.3208 O   0  0  0  0  0  0  0  0  0  0  0  0
   17.1468   -9.7433  -17.4833 C   0  0  2  0  0  0  0  0  0  0  0  0
   16.4570  -10.9374  -17.0308 N   0  0  0  0  0  0  0  0  0  0  0  0
   18.2614   -9.4465  -16.5099 C   0  0  0  0  0  0  0  0  0  0  0  0
   18.0838   -9.5247  -15.2710 O   0  0  0  0  0  0  0  0  0  0  0  0
   22.7979   -9.5615  -14.0355 N   0  0  0  0  0  0  0  0  0  0  0  0
   22.9607   -9.1872  -15.3888 C   0  0  0  0  0  0  0  0  0  0  0  0
   24.0192   -8.5973  -15.7145 O   0  0  0  0  0  0  0  0  0  0  0  0
   21.8824   -9.5089  -16.3412 C   0  0  0  0  0  0  0  0  0  0  0  0
   20.6185   -8.7314  -16.0680 C   0  0  2  0  0  0  0  0  0  0  0  0
   19.5524   -9.0678  -16.9700 N   0  0  0  0  0  0  0  0  0  0  0  0
   20.9207   -7.2658  -16.0877 C   0  0  0  0  0  0  0  0  0  0  0  0
   21.3436   -6.8131  -17.1795 O   0  0  0  0  0  0  0  0  0  0  0  0
   18.8011   -4.3373  -15.8895 C   0  0  0  0  0  0  0  0  0  0  0  0
   19.8343   -4.1491  -14.8217 C   0  0  1  0  0  0  0  0  0  0  0  0
   19.2162   -4.3620  -13.5974 O   0  0  0  0  0  0  0  0  0  0  0  0
   21.0576   -5.0062  -14.9837 C   0  0  2  0  0  0  0  0  0  0  0  0
   20.7494   -6.4203  -14.9590 N   0  0  0  0  0  0  0  0  0  0  0  0
   22.1534   -4.6563  -14.0591 C   0  0  0  0  0  0  0  0  0  0  0  0
   22.7095   -3.3871  -14.1803 O   0  0  0  0  0  0  0  0  0  0  0  0
   22.6171   -5.4001  -13.1865 O   0  0  0  0  0  0  0  0  0  0  0  0
  2  1  1  6
  2  4  1  0
  3  2  1  0
  4  6  1  0
  4  5  1  1
  6 13  1  0
  6  7  2  0
  8  9  1  0
  9 11  1  0
 10  9  2  0
 12 11  1  6
 12 14  1  0
 13 12  1  0
 14 20  1  0
 14 15  2  0
 17 16  1  6
 17 19  1  0
 17 18  1  0
 19 21  1  0
 19 20  1  1
 21 22  1  0
 23 21  2  0
M  END
$$$$
