TNT.pdb
     RDKit          3D

 23 22  0  0  1  0  0  0  0  0999 V2000
   24.3495  -12.2909  -15.5441 C   0  0  0  0  0  0  0  0  0  0  0  0
   23.4516  -11.0555  -15.6840 C   0  0  1  0  0  0  0  0  0  0  0  0
   23.7164  -10.5787  -16.9798 O   0  0  0  0  0  0  0  0  0  0  0  0
   22.0010  -11.4959  -15.6538 C   0  0  2  0  0  0  0  0  0  0  0  0
   21.7170  -12.1065  -16.9396 N   0  0  0  0  0  0  0  0  0  0  0  0
   21.1893  -10.2281  -15.5456 C   0  0  0  0  0  0  0  0  0  0  0  0
   20.6099   -9.7371  -16.5434 O   0  0  0  0  0  0  0  0  0  0  0  0
   17.8802   -9.5972  -14.3230 N   0  0  0  0  0  0  0  0  0  0  0  0
   18.1935   -9.0396  -13.0624 C   0  0  0  0  0  0  0  0  0  0  0  0
   17.3733   -9.1996  -12.1264 O   0  0  0  0  0  0  0  0  0  0  0  0
   19.4620   -8.3031  -12.9159 C   0  0  0  0  0  0  0  0  0  0  0  0
   20.2983   -8.3360  -14.1714 C   0  0  2  0  0  0  0  0  0  0  0  0
   21.0561   -9.5491  -14.3034 N   0  0  0  0  0  0  0  0  0  0  0  0
   21.1764   -7.1251  -14.2172 C   0  0  0  0  0  0  0  0  0  0  0  0
   22.2637   -7.2187  -13.5969 O   0  0  0  0  0  0  0  0  0  0  0  0
   22.2020   -2.6252  -16.1701 C   0  0  0  0  0  0  0  0  0  0  0  0
   21.2791   -3.7949  -16.0182 C   0  0  1  0  0  0  0  0  0  0  0  0
   21.1743   -4.4106  -17.2576 O   0  0  0  0  0  0  0  0  0  0  0  0
   21.6810   -4.7675  -14.9460 C   0  0  2  0  0  0  0  0  0  0  0  0
   20.8261   -5.9351  -14.9097 N   0  0  0  0  0  0  0  0  0  0  0  0
   21.8412   -4.1502  -13.6152 C   0  0  0  0  0  0  0  0  0  0  0  0
   23.0186   -3.4495  -13.3747 O   0  0  0  0  0  0  0  0  0  0  0  0
   21.0143   -4.2060  -12.6971 O   0  0  0  0  0  0  0  0  0  0  0  0
  2  1  1  6
  2  4  1  0
  3  2  1  0
  4  6  1  0
  4  5  1  6
  6 13  1  0
  6  7  2  0
  8  9  1  0
  9 11  1  0
 10  9  2  0
 12 11  1  1
 12 14  1  0
 13 12  1  0
 14 20  1  0
 14 15  2  0
 17 16  1  6
 17 19  1  0
 17 18  1  0
 19 21  1  0
 19 20  1  1
 21 22  1  0
 23 21  2  0
M  END
$$$$
