TNT.pdb
     RDKit          3D

 23 22  0  0  1  0  0  0  0  0999 V2000
   13.8469   -8.7865  -12.5697 C   0  0  0  0  0  0  0  0  0  0  0  0
   15.2802   -8.2613  -12.4223 C   0  0  1  0  0  0  0  0  0  0  0  0
   15.1606   -7.1659  -11.5492 O   0  0  0  0  0  0  0  0  0  0  0  0
   16.1181   -9.3100  -11.7170 C   0  0  2  0  0  0  0  0  0  0  0  0
   15.7108   -9.3110  -10.3239 N   0  0  0  0  0  0  0  0  0  0  0  0
   17.5421   -8.8152  -11.7903 C   0  0  0  0  0  0  0  0  0  0  0  0
   18.1373   -8.3870  -10.7731 O   0  0  0  0  0  0  0  0  0  0  0  0
   22.7956   -9.5227  -14.6462 N   0  0  0  0  0  0  0  0  0  0  0  0
   21.9596   -9.0710  -13.5998 C   0  0  0  0  0  0  0  0  0  0  0  0
   22.4653   -8.3390  -12.7148 O   0  0  0  0  0  0  0  0  0  0  0  0
   20.5440   -9.4824  -13.6043 C   0  0  0  0  0  0  0  0  0  0  0  0
   19.6233   -8.3921  -13.1139 C   0  0  2  0  0  0  0  0  0  0  0  0
   18.2552   -8.8196  -13.0205 N   0  0  0  0  0  0  0  0  0  0  0  0
   19.7696   -7.1859  -13.9875 C   0  0  0  0  0  0  0  0  0  0  0  0
   19.5222   -7.3637  -15.2052 O   0  0  0  0  0  0  0  0  0  0  0  0
   17.9421   -4.1372  -14.4900 C   0  0  0  0  0  0  0  0  0  0  0  0
   19.3397   -3.7024  -14.1729 C   0  0  1  0  0  0  0  0  0  0  0  0
   19.3409   -3.2052  -12.8771 O   0  0  0  0  0  0  0  0  0  0  0  0
   20.3796   -4.7706  -14.3597 C   0  0  2  0  0  0  0  0  0  0  0  0
   20.1616   -5.9118  -13.4962 N   0  0  0  0  0  0  0  0  0  0  0  0
   21.7654   -4.2688  -14.2843 C   0  0  0  0  0  0  0  0  0  0  0  0
   22.5938   -4.8263  -13.3158 O   0  0  0  0  0  0  0  0  0  0  0  0
   22.2490   -3.3931  -15.0116 O   0  0  0  0  0  0  0  0  0  0  0  0
  2  1  1  1
  2  4  1  0
  3  2  1  0
  4  6  1  0
  4  5  1  1
  6 13  1  0
  6  7  2  0
  8  9  1  0
  9 11  1  0
 10  9  2  0
 12 11  1  6
 12 14  1  0
 13 12  1  0
 14 20  1  0
 14 15  2  0
 17 16  1  1
 17 19  1  0
 17 18  1  0
 19 21  1  0
 19 20  1  1
 21 22  1  0
 23 21  2  0
M  END
$$$$
