TNT.pdb
     RDKit          3D

 23 22  0  0  1  0  0  0  0  0999 V2000
   26.2938  -21.0405  -15.9462 C   0  0  0  0  0  0  0  0  0  0  0  0
   26.5204  -20.0489  -14.7985 C   0  0  1  0  0  0  0  0  0  0  0  0
   26.0801  -18.8166  -15.3123 O   0  0  0  0  0  0  0  0  0  0  0  0
   25.6023  -20.4109  -13.6473 C   0  0  2  0  0  0  0  0  0  0  0  0
   26.0850  -21.6651  -13.0989 N   0  0  0  0  0  0  0  0  0  0  0  0
   24.2475  -20.6580  -14.2649 C   0  0  0  0  0  0  0  0  0  0  0  0
   24.0382  -21.6491  -15.0041 O   0  0  0  0  0  0  0  0  0  0  0  0
   20.8034  -21.7395  -12.8023 N   0  0  0  0  0  0  0  0  0  0  0  0
   20.2581  -20.4359  -12.7654 C   0  0  0  0  0  0  0  0  0  0  0  0
   19.3800  -20.1880  -11.9040 O   0  0  0  0  0  0  0  0  0  0  0  0
   20.7484  -19.4417  -13.7371 C   0  0  0  0  0  0  0  0  0  0  0  0
   21.8627  -19.9784  -14.6014 C   0  0  2  0  0  0  0  0  0  0  0  0
   23.1623  -19.7707  -14.0261 N   0  0  0  0  0  0  0  0  0  0  0  0
   21.7607  -19.3849  -15.9714 C   0  0  0  0  0  0  0  0  0  0  0  0
   21.8786  -18.1367  -16.0329 O   0  0  0  0  0  0  0  0  0  0  0  0
   22.2492  -21.7352  -19.6082 C   0  0  0  0  0  0  0  0  0  0  0  0
   22.5327  -20.2818  -19.3833 C   0  0  1  0  0  0  0  0  0  0  0  0
   22.5965  -19.6692  -20.6271 O   0  0  0  0  0  0  0  0  0  0  0  0
   21.5560  -19.5926  -18.4732 C   0  0  2  0  0  0  0  0  0  0  0  0
   21.5449  -20.1607  -17.1418 N   0  0  0  0  0  0  0  0  0  0  0  0
   20.1993  -19.4723  -19.0413 C   0  0  0  0  0  0  0  0  0  0  0  0
   19.1488  -20.0071  -18.3028 O   0  0  0  0  0  0  0  0  0  0  0  0
   19.9213  -18.9353  -20.1203 O   0  0  0  0  0  0  0  0  0  0  0  0
  2  1  1  6
  2  4  1  0
  3  2  1  0
  4  6  1  0
  4  5  1  6
  6 13  1  0
  6  7  2  0
  8  9  1  0
  9 11  1  0
 10  9  2  0
 12 11  1  1
 12 14  1  0
 13 12  1  0
 14 20  1  0
 14 15  2  0
 17 16  1  6
 17 19  1  0
 17 18  1  0
 19 21  1  0
 19 20  1  1
 21 22  1  0
 23 21  2  0
M  END
$$$$
