TNT.pdb
     RDKit          3D

 23 22  0  0  1  0  0  0  0  0999 V2000
   23.8419  -17.1722  -18.2997 C   0  0  0  0  0  0  0  0  0  0  0  0
   24.8417  -16.5375  -17.3253 C   0  0  1  0  0  0  0  0  0  0  0  0
   24.1360  -16.4483  -16.1127 O   0  0  0  0  0  0  0  0  0  0  0  0
   25.9933  -17.4994  -17.1064 C   0  0  2  0  0  0  0  0  0  0  0  0
   26.6540  -17.6675  -18.3879 N   0  0  0  0  0  0  0  0  0  0  0  0
   25.3616  -18.8164  -16.7265 C   0  0  0  0  0  0  0  0  0  0  0  0
   24.5497  -19.3943  -17.4875 O   0  0  0  0  0  0  0  0  0  0  0  0
   27.1189  -21.7146  -16.7524 N   0  0  0  0  0  0  0  0  0  0  0  0
   27.2282  -22.0628  -15.3868 C   0  0  0  0  0  0  0  0  0  0  0  0
   28.2229  -22.7384  -15.0280 O   0  0  0  0  0  0  0  0  0  0  0  0
   26.1718  -21.6152  -14.4611 C   0  0  0  0  0  0  0  0  0  0  0  0
   25.1476  -20.7352  -15.1345 C   0  0  2  0  0  0  0  0  0  0  0  0
   25.6696  -19.4448  -15.4887 N   0  0  0  0  0  0  0  0  0  0  0  0
   23.9361  -20.6239  -14.2630 C   0  0  0  0  0  0  0  0  0  0  0  0
   24.0947  -19.9914  -13.1904 O   0  0  0  0  0  0  0  0  0  0  0  0
   21.5999  -18.4908  -14.1884 C   0  0  0  0  0  0  0  0  0  0  0  0
   20.7525  -19.7257  -14.1910 C   0  0  1  0  0  0  0  0  0  0  0  0
   20.1683  -19.8313  -15.4455 O   0  0  0  0  0  0  0  0  0  0  0  0
   21.4843  -20.9815  -13.8106 C   0  0  2  0  0  0  0  0  0  0  0  0
   22.6775  -21.1881  -14.6037 N   0  0  0  0  0  0  0  0  0  0  0  0
   20.6243  -22.1803  -13.7715 C   0  0  0  0  0  0  0  0  0  0  0  0
   19.6340  -22.2233  -12.7956 O   0  0  0  0  0  0  0  0  0  0  0  0
   20.7133  -23.1489  -14.5354 O   0  0  0  0  0  0  0  0  0  0  0  0
  2  1  1  6
  2  4  1  0
  3  2  1  0
  4  6  1  0
  4  5  1  6
  6 13  1  0
  6  7  2  0
  8  9  1  0
  9 11  1  0
 10  9  2  0
 12 11  1  1
 12 14  1  0
 13 12  1  0
 14 20  1  0
 14 15  2  0
 17 16  1  6
 17 19  1  0
 17 18  1  0
 19 21  1  0
 19 20  1  6
 21 22  1  0
 23 21  2  0
M  END
$$$$
