TNT.pdb
     RDKit          3D

 23 22  0  0  1  0  0  0  0  0999 V2000
   27.2333  -11.9326  -15.5123 C   0  0  0  0  0  0  0  0  0  0  0  0
   26.1169  -10.9073  -15.7451 C   0  0  1  0  0  0  0  0  0  0  0  0
   26.6091  -10.0856  -16.7741 O   0  0  0  0  0  0  0  0  0  0  0  0
   24.8956  -11.6245  -16.2867 C   0  0  2  0  0  0  0  0  0  0  0  0
   25.2347  -12.0916  -17.6185 N   0  0  0  0  0  0  0  0  0  0  0  0
   23.8241  -10.5696  -16.4168 C   0  0  0  0  0  0  0  0  0  0  0  0
   23.6926   -9.8993  -17.4684 O   0  0  0  0  0  0  0  0  0  0  0  0
   19.6343   -7.7802  -15.7285 N   0  0  0  0  0  0  0  0  0  0  0  0
   19.4310   -8.9695  -14.9921 C   0  0  0  0  0  0  0  0  0  0  0  0
   18.2799   -9.1992  -14.5485 O   0  0  0  0  0  0  0  0  0  0  0  0
   20.5778   -9.8724  -14.7856 C   0  0  0  0  0  0  0  0  0  0  0  0
   21.8274   -9.3881  -15.4789 C   0  0  2  0  0  0  0  0  0  0  0  0
   22.9271  -10.3027  -15.3463 N   0  0  0  0  0  0  0  0  0  0  0  0
   22.1778   -8.0222  -14.9778 C   0  0  0  0  0  0  0  0  0  0  0  0
   22.7538   -7.9837  -13.8631 O   0  0  0  0  0  0  0  0  0  0  0  0
   22.7860   -3.1493  -15.9801 C   0  0  0  0  0  0  0  0  0  0  0  0
   22.2568   -4.4986  -16.3575 C   0  0  1  0  0  0  0  0  0  0  0  0
   22.9324   -4.9105  -17.4978 O   0  0  0  0  0  0  0  0  0  0  0  0
   22.3357   -5.5247  -15.2630 C   0  0  2  0  0  0  0  0  0  0  0  0
   21.8886   -6.8314  -15.6966 N   0  0  0  0  0  0  0  0  0  0  0  0
   21.6895   -5.1013  -14.0055 C   0  0  0  0  0  0  0  0  0  0  0  0
   22.4579   -4.3645  -13.1101 O   0  0  0  0  0  0  0  0  0  0  0  0
   20.5212   -5.3490  -13.6837 O   0  0  0  0  0  0  0  0  0  0  0  0
  2  1  1  6
  2  4  1  0
  3  2  1  0
  4  6  1  0
  4  5  1  6
  6 13  1  0
  6  7  2  0
  8  9  1  0
  9 11  1  0
 10  9  2  0
 12 11  1  1
 12 14  1  0
 13 12  1  0
 14 20  1  0
 14 15  2  0
 17 16  1  1
 17 19  1  0
 17 18  1  0
 19 21  1  0
 19 20  1  6
 21 22  1  0
 23 21  2  0
M  END
$$$$
