TNT.pdb
     RDKit          3D

 23 22  0  0  1  0  0  0  0  0999 V2000
   21.6555   -9.3393  -19.6431 C   0  0  0  0  0  0  0  0  0  0  0  0
   22.1699  -10.5866  -18.9142 C   0  0  1  0  0  0  0  0  0  0  0  0
   21.8241  -11.6524  -19.7633 O   0  0  0  0  0  0  0  0  0  0  0  0
   23.6841  -10.5316  -18.8541 C   0  0  2  0  0  0  0  0  0  0  0  0
   24.1281  -11.7639  -18.2288 N   0  0  0  0  0  0  0  0  0  0  0  0
   24.0168   -9.3876  -17.9275 C   0  0  0  0  0  0  0  0  0  0  0  0
   23.9588   -9.5188  -16.6817 O   0  0  0  0  0  0  0  0  0  0  0  0
   25.4081   -4.8826  -16.0208 N   0  0  0  0  0  0  0  0  0  0  0  0
   25.9182   -4.8613  -17.3389 C   0  0  0  0  0  0  0  0  0  0  0  0
   26.6659   -3.9083  -17.6666 O   0  0  0  0  0  0  0  0  0  0  0  0
   25.5459   -5.9554  -18.2539 C   0  0  0  0  0  0  0  0  0  0  0  0
   24.6869   -7.0008  -17.5861 C   0  0  2  0  0  0  0  0  0  0  0  0
   24.4081   -8.1208  -18.4412 N   0  0  0  0  0  0  0  0  0  0  0  0
   23.4315   -6.3641  -17.0780 C   0  0  0  0  0  0  0  0  0  0  0  0
   22.7611   -5.7301  -17.9290 O   0  0  0  0  0  0  0  0  0  0  0  0
   20.5136   -8.0688  -15.4635 C   0  0  0  0  0  0  0  0  0  0  0  0
   20.8755   -6.9044  -14.5939 C   0  0  1  0  0  0  0  0  0  0  0  0
   21.4509   -7.4083  -13.4357 O   0  0  0  0  0  0  0  0  0  0  0  0
   21.7592   -5.8858  -15.2563 C   0  0  2  0  0  0  0  0  0  0  0  0
   23.0042   -6.4557  -15.7263 N   0  0  0  0  0  0  0  0  0  0  0  0
   21.9709   -4.6692  -14.4482 C   0  0  0  0  0  0  0  0  0  0  0  0
   20.8444   -3.9321  -14.0980 O   0  0  0  0  0  0  0  0  0  0  0  0
   23.0681   -4.2523  -14.0581 O   0  0  0  0  0  0  0  0  0  0  0  0
  2  1  1  6
  2  4  1  0
  3  2  1  0
  4  6  1  0
  4  5  1  1
  6 13  1  0
  6  7  2  0
  8  9  1  0
  9 11  1  0
 10  9  2  0
 12 11  1  6
 12 14  1  0
 13 12  1  0
 14 20  1  0
 14 15  2  0
 17 16  1  6
 17 19  1  0
 17 18  1  0
 19 21  1  0
 19 20  1  1
 21 22  1  0
 23 21  2  0
M  END
$$$$
