TNT.pdb
     RDKit          3D

 23 22  0  0  1  0  0  0  0  0999 V2000
   15.7592  -16.3961  -16.0555 C   0  0  0  0  0  0  0  0  0  0  0  0
   16.2322  -15.0633  -15.4624 C   0  0  1  0  0  0  0  0  0  0  0  0
   17.5803  -14.9697  -15.8499 O   0  0  0  0  0  0  0  0  0  0  0  0
   15.4882  -13.9307  -16.1428 C   0  0  2  0  0  0  0  0  0  0  0  0
   15.8284  -13.9872  -17.5527 N   0  0  0  0  0  0  0  0  0  0  0  0
   16.0647  -12.6586  -15.5704 C   0  0  0  0  0  0  0  0  0  0  0  0
   16.0697  -12.4424  -14.3352 O   0  0  0  0  0  0  0  0  0  0  0  0
   20.4242  -10.4764  -14.8219 N   0  0  0  0  0  0  0  0  0  0  0  0
   19.6409  -11.0400  -15.8548 C   0  0  0  0  0  0  0  0  0  0  0  0
   19.8738  -12.2262  -16.1915 O   0  0  0  0  0  0  0  0  0  0  0  0
   18.5965  -10.2073  -16.4785 C   0  0  0  0  0  0  0  0  0  0  0  0
   17.2274  -10.4673  -15.8999 C   0  0  2  0  0  0  0  0  0  0  0  0
   16.6222  -11.6625  -16.4182 N   0  0  0  0  0  0  0  0  0  0  0  0
   16.3594   -9.2673  -16.1148 C   0  0  0  0  0  0  0  0  0  0  0  0
   16.0590   -9.0210  -17.3085 O   0  0  0  0  0  0  0  0  0  0  0  0
   12.8751   -8.6661  -14.5991 C   0  0  0  0  0  0  0  0  0  0  0  0
   13.7541   -7.4821  -14.3371 C   0  0  1  0  0  0  0  0  0  0  0  0
   14.1388   -7.5317  -13.0045 O   0  0  0  0  0  0  0  0  0  0  0  0
   14.9390   -7.3736  -15.2545 C   0  0  2  0  0  0  0  0  0  0  0  0
   15.8927   -8.4442  -15.0551 N   0  0  0  0  0  0  0  0  0  0  0  0
   15.5797   -6.0442  -15.2409 C   0  0  0  0  0  0  0  0  0  0  0  0
   16.9270   -5.9889  -14.8995 O   0  0  0  0  0  0  0  0  0  0  0  0
   15.0157   -4.9763  -15.5076 O   0  0  0  0  0  0  0  0  0  0  0  0
  2  1  1  6
  2  4  1  0
  3  2  1  0
  4  6  1  0
  4  5  1  6
  6 13  1  0
  6  7  2  0
  8  9  1  0
  9 11  1  0
 10  9  2  0
 12 11  1  6
 12 14  1  0
 13 12  1  0
 14 20  1  0
 14 15  2  0
 17 16  1  6
 17 19  1  0
 17 18  1  0
 19 21  1  0
 19 20  1  1
 21 22  1  0
 23 21  2  0
M  END
$$$$
