TNT.pdb
     RDKit          3D

 23 22  0  0  1  0  0  0  0  0999 V2000
   19.2575   -9.8643  -18.8256 C   0  0  0  0  0  0  0  0  0  0  0  0
   19.1975  -11.1026  -17.9229 C   0  0  1  0  0  0  0  0  0  0  0  0
   19.3303  -12.1854  -18.8096 O   0  0  0  0  0  0  0  0  0  0  0  0
   20.4135  -11.1102  -17.0171 C   0  0  2  0  0  0  0  0  0  0  0  0
   20.3580  -12.3374  -16.2440 N   0  0  0  0  0  0  0  0  0  0  0  0
   20.2277   -9.9493  -16.0707 C   0  0  0  0  0  0  0  0  0  0  0  0
   19.2523   -9.8981  -15.2843 O   0  0  0  0  0  0  0  0  0  0  0  0
   22.6597   -4.8697  -13.9391 N   0  0  0  0  0  0  0  0  0  0  0  0
   22.1939   -6.1717  -13.6463 C   0  0  0  0  0  0  0  0  0  0  0  0
   21.6740   -6.3733  -12.5222 O   0  0  0  0  0  0  0  0  0  0  0  0
   22.3434   -7.2187  -14.6732 C   0  0  0  0  0  0  0  0  0  0  0  0
   21.0163   -7.7641  -15.1405 C   0  0  2  0  0  0  0  0  0  0  0  0
   21.1572   -8.8737  -16.0417 N   0  0  0  0  0  0  0  0  0  0  0  0
   20.2074   -6.6587  -15.7430 C   0  0  0  0  0  0  0  0  0  0  0  0
   20.6766   -6.1511  -16.7909 O   0  0  0  0  0  0  0  0  0  0  0  0
   16.5784   -6.6398  -17.0371 C   0  0  0  0  0  0  0  0  0  0  0  0
   16.7631   -5.5659  -16.0098 C   0  0  1  0  0  0  0  0  0  0  0  0
   16.1742   -6.0055  -14.8324 O   0  0  0  0  0  0  0  0  0  0  0  0
   18.1910   -5.1503  -15.7961 C   0  0  2  0  0  0  0  0  0  0  0  0
   18.9857   -6.1950  -15.1857 N   0  0  0  0  0  0  0  0  0  0  0  0
   18.3343   -3.8582  -15.0975 C   0  0  0  0  0  0  0  0  0  0  0  0
   17.7373   -2.7467  -15.6833 O   0  0  0  0  0  0  0  0  0  0  0  0
   18.9424   -3.6840  -14.0346 O   0  0  0  0  0  0  0  0  0  0  0  0
  2  1  1  6
  2  4  1  0
  3  2  1  0
  4  6  1  0
  4  5  1  1
  6 13  1  0
  6  7  2  0
  8  9  1  0
  9 11  1  0
 10  9  2  0
 12 11  1  6
 12 14  1  0
 13 12  1  0
 14 20  1  0
 14 15  2  0
 17 16  1  6
 17 19  1  0
 17 18  1  0
 19 21  1  0
 19 20  1  1
 21 22  1  0
 23 21  2  0
M  END
$$$$
