TNT.pdb
     RDKit          3D

 23 22  0  0  1  0  0  0  0  0999 V2000
   15.2938   -8.7766  -16.6474 C   0  0  0  0  0  0  0  0  0  0  0  0
   15.4074   -9.9529  -15.6700 C   0  0  1  0  0  0  0  0  0  0  0  0
   14.6677  -10.9822  -16.2781 O   0  0  0  0  0  0  0  0  0  0  0  0
   16.8526  -10.4088  -15.6151 C   0  0  2  0  0  0  0  0  0  0  0  0
   16.8998  -11.5614  -14.7341 N   0  0  0  0  0  0  0  0  0  0  0  0
   17.6134   -9.2830  -14.9579 C   0  0  0  0  0  0  0  0  0  0  0  0
   17.3731   -8.9348  -13.7775 O   0  0  0  0  0  0  0  0  0  0  0  0
   20.6504   -9.4211  -13.7516 N   0  0  0  0  0  0  0  0  0  0  0  0
   21.4563   -8.5858  -14.5582 C   0  0  0  0  0  0  0  0  0  0  0  0
   22.6905   -8.8099  -14.5909 O   0  0  0  0  0  0  0  0  0  0  0  0
   20.8061   -7.5005  -15.3149 C   0  0  0  0  0  0  0  0  0  0  0  0
   19.3146   -7.4526  -15.0913 C   0  0  2  0  0  0  0  0  0  0  0  0
   18.6303   -8.5801  -15.6604 N   0  0  0  0  0  0  0  0  0  0  0  0
   18.7745   -6.1564  -15.6085 C   0  0  0  0  0  0  0  0  0  0  0  0
   18.8460   -5.9953  -16.8513 O   0  0  0  0  0  0  0  0  0  0  0  0
   15.2525   -4.5756  -14.8093 C   0  0  0  0  0  0  0  0  0  0  0  0
   16.3472   -3.5725  -14.6134 C   0  0  1  0  0  0  0  0  0  0  0  0
   16.5088   -3.3891  -13.2472 O   0  0  0  0  0  0  0  0  0  0  0  0
   17.6435   -3.9294  -15.2839 C   0  0  2  0  0  0  0  0  0  0  0  0
   18.2126   -5.1570  -14.7695 N   0  0  0  0  0  0  0  0  0  0  0  0
   18.6228   -2.8256  -15.3069 C   0  0  0  0  0  0  0  0  0  0  0  0
   18.2364   -1.6430  -15.9292 O   0  0  0  0  0  0  0  0  0  0  0  0
   19.7584   -2.8673  -14.8185 O   0  0  0  0  0  0  0  0  0  0  0  0
  2  1  1  6
  2  4  1  0
  3  2  1  0
  4  6  1  0
  4  5  1  1
  6 13  1  0
  6  7  2  0
  8  9  1  0
  9 11  1  0
 10  9  2  0
 12 11  1  6
 12 14  1  0
 13 12  1  0
 14 20  1  0
 14 15  2  0
 17 16  1  1
 17 19  1  0
 17 18  1  0
 19 21  1  0
 19 20  1  1
 21 22  1  0
 23 21  2  0
M  END
$$$$
