TNT.pdb
     RDKit          3D

 23 22  0  0  1  0  0  0  0  0999 V2000
   19.9408  -15.2881  -17.2169 C   0  0  0  0  0  0  0  0  0  0  0  0
   19.3699  -14.0330  -17.8883 C   0  0  1  0  0  0  0  0  0  0  0  0
   19.0230  -14.4588  -19.1825 O   0  0  0  0  0  0  0  0  0  0  0  0
   18.0858  -13.6396  -17.1842 C   0  0  2  0  0  0  0  0  0  0  0  0
   16.9889  -14.0792  -18.0271 N   0  0  0  0  0  0  0  0  0  0  0  0
   18.0801  -12.1306  -17.1538 C   0  0  0  0  0  0  0  0  0  0  0  0
   18.6129  -11.4574  -18.0679 O   0  0  0  0  0  0  0  0  0  0  0  0
   13.8453  -10.0767  -15.8045 N   0  0  0  0  0  0  0  0  0  0  0  0
   15.0579   -9.5810  -16.3356 C   0  0  0  0  0  0  0  0  0  0  0  0
   15.0952   -9.2997  -17.5579 O   0  0  0  0  0  0  0  0  0  0  0  0
   16.2089   -9.4217  -15.4285 C   0  0  0  0  0  0  0  0  0  0  0  0
   17.4826   -9.9891  -16.0053 C   0  0  2  0  0  0  0  0  0  0  0  0
   17.4675  -11.4233  -16.0832 N   0  0  0  0  0  0  0  0  0  0  0  0
   18.6526   -9.4882  -15.2181 C   0  0  0  0  0  0  0  0  0  0  0  0
   18.6679   -9.8082  -14.0044 O   0  0  0  0  0  0  0  0  0  0  0  0
   22.4680   -9.7371  -16.2727 C   0  0  0  0  0  0  0  0  0  0  0  0
   22.1187   -8.3535  -15.8179 C   0  0  1  0  0  0  0  0  0  0  0  0
   22.0844   -7.5387  -16.9409 O   0  0  0  0  0  0  0  0  0  0  0  0
   20.8451   -8.2634  -15.0261 C   0  0  2  0  0  0  0  0  0  0  0  0
   19.6912   -8.7003  -15.7830 N   0  0  0  0  0  0  0  0  0  0  0  0
   20.6328   -6.9476  -14.3923 C   0  0  0  0  0  0  0  0  0  0  0  0
   21.6331   -6.4775  -13.5477 O   0  0  0  0  0  0  0  0  0  0  0  0
   19.6379   -6.2301  -14.5510 O   0  0  0  0  0  0  0  0  0  0  0  0
  2  1  1  1
  2  4  1  0
  3  2  1  0
  4  6  1  0
  4  5  1  6
  6 13  1  0
  6  7  2  0
  8  9  1  0
  9 11  1  0
 10  9  2  0
 12 11  1  1
 12 14  1  0
 13 12  1  0
 14 20  1  0
 14 15  2  0
 17 16  1  6
 17 19  1  0
 17 18  1  0
 19 21  1  0
 19 20  1  6
 21 22  1  0
 23 21  2  0
M  END
$$$$
