TNT.pdb
     RDKit          3D

 23 22  0  0  1  0  0  0  0  0999 V2000
   19.4606  -13.3660  -17.6080 C   0  0  0  0  0  0  0  0  0  0  0  0
   18.0660  -13.8385  -17.1793 C   0  0  1  0  0  0  0  0  0  0  0  0
   18.1334  -15.2402  -17.2624 O   0  0  0  0  0  0  0  0  0  0  0  0
   17.8533  -13.4834  -15.7206 C   0  0  2  0  0  0  0  0  0  0  0  0
   16.6203  -14.1259  -15.3037 N   0  0  0  0  0  0  0  0  0  0  0  0
   17.6395  -11.9897  -15.6886 C   0  0  0  0  0  0  0  0  0  0  0  0
   17.0153  -11.4001  -16.6025 O   0  0  0  0  0  0  0  0  0  0  0  0
   17.6315   -7.0777  -14.7217 N   0  0  0  0  0  0  0  0  0  0  0  0
   17.2456   -7.7224  -13.5244 C   0  0  0  0  0  0  0  0  0  0  0  0
   16.7605   -7.0189  -12.6055 O   0  0  0  0  0  0  0  0  0  0  0  0
   17.4331   -9.1808  -13.4200 C   0  0  0  0  0  0  0  0  0  0  0  0
   18.1040   -9.7664  -14.6381 C   0  0  2  0  0  0  0  0  0  0  0  0
   18.1415  -11.2021  -14.6164 N   0  0  0  0  0  0  0  0  0  0  0  0
   19.4718   -9.1774  -14.7853 C   0  0  0  0  0  0  0  0  0  0  0  0
   20.3291   -9.5825  -13.9626 O   0  0  0  0  0  0  0  0  0  0  0  0
   21.7377   -9.5075  -17.7596 C   0  0  0  0  0  0  0  0  0  0  0  0
   21.6181   -8.0528  -17.4240 C   0  0  1  0  0  0  0  0  0  0  0  0
   20.7759   -7.4733  -18.3626 O   0  0  0  0  0  0  0  0  0  0  0  0
   21.1610   -7.7752  -16.0200 C   0  0  2  0  0  0  0  0  0  0  0  0
   19.8045   -8.2209  -15.7816 N   0  0  0  0  0  0  0  0  0  0  0  0
   21.3742   -6.3790  -15.5920 C   0  0  0  0  0  0  0  0  0  0  0  0
   20.2496   -5.6428  -15.2340 O   0  0  0  0  0  0  0  0  0  0  0  0
   22.4711   -5.8112  -15.5267 O   0  0  0  0  0  0  0  0  0  0  0  0
  2  1  1  1
  2  4  1  0
  3  2  1  0
  4  6  1  0
  4  5  1  6
  6 13  1  0
  6  7  2  0
  8  9  1  0
  9 11  1  0
 10  9  2  0
 12 11  1  1
 12 14  1  0
 13 12  1  0
 14 20  1  0
 14 15  2  0
 17 16  1  6
 17 19  1  0
 17 18  1  0
 19 21  1  0
 19 20  1  6
 21 22  1  0
 23 21  2  0
M  END
$$$$
