TNT.pdb
     RDKit          3D

 23 22  0  0  1  0  0  0  0  0999 V2000
   19.0342  -11.8977  -15.0757 C   0  0  0  0  0  0  0  0  0  0  0  0
   17.6097  -12.0483  -15.6236 C   0  0  1  0  0  0  0  0  0  0  0  0
   17.3070  -13.4081  -15.4349 O   0  0  0  0  0  0  0  0  0  0  0  0
   16.6604  -11.2503  -14.7511 C   0  0  2  0  0  0  0  0  0  0  0  0
   15.3189  -11.5005  -15.2458 N   0  0  0  0  0  0  0  0  0  0  0  0
   16.9919   -9.7997  -15.0036 C   0  0  0  0  0  0  0  0  0  0  0  0
   17.0605   -9.3391  -16.1680 O   0  0  0  0  0  0  0  0  0  0  0  0
   14.1295   -6.5600  -13.6384 N   0  0  0  0  0  0  0  0  0  0  0  0
   15.3506   -6.5565  -14.3503 C   0  0  0  0  0  0  0  0  0  0  0  0
   15.3024   -6.5506  -15.6042 O   0  0  0  0  0  0  0  0  0  0  0  0
   16.6102   -6.5599  -13.5844 C   0  0  0  0  0  0  0  0  0  0  0  0
   17.6187   -7.5383  -14.1343 C   0  0  2  0  0  0  0  0  0  0  0  0
   17.2375   -8.9072  -13.9243 N   0  0  0  0  0  0  0  0  0  0  0  0
   18.9668   -7.2425  -13.5557 C   0  0  0  0  0  0  0  0  0  0  0  0
   19.0596   -7.3552  -12.3090 O   0  0  0  0  0  0  0  0  0  0  0  0
   22.3248   -8.8553  -14.7557 C   0  0  0  0  0  0  0  0  0  0  0  0
   22.4640   -7.3681  -14.6464 C   0  0  1  0  0  0  0  0  0  0  0  0
   22.4806   -6.8523  -15.9348 O   0  0  0  0  0  0  0  0  0  0  0  0
   21.4162   -6.7073  -13.7962 C   0  0  2  0  0  0  0  0  0  0  0  0
   20.0845   -6.8571  -14.3435 N   0  0  0  0  0  0  0  0  0  0  0  0
   21.7265   -5.3052  -13.4557 C   0  0  0  0  0  0  0  0  0  0  0  0
   22.8782   -5.0693  -12.7122 O   0  0  0  0  0  0  0  0  0  0  0  0
   21.0453   -4.3242  -13.7772 O   0  0  0  0  0  0  0  0  0  0  0  0
  2  1  1  1
  2  4  1  0
  3  2  1  0
  4  6  1  0
  4  5  1  6
  6 13  1  0
  6  7  2  0
  8  9  1  0
  9 11  1  0
 10  9  2  0
 12 11  1  1
 12 14  1  0
 13 12  1  0
 14 20  1  0
 14 15  2  0
 17 16  1  6
 17 19  1  0
 17 18  1  0
 19 21  1  0
 19 20  1  6
 21 22  1  0
 23 21  2  0
M  END
$$$$
