PSR.pdb
     RDKit          3D

 25 25  0  0  1  0  0  0  0  0999 V2000
    8.0391  -15.4425   17.7494 N   0  0  0  0  0  0  0  0  0  0  0  0
    8.2802  -15.1031   16.3404 C   0  0  0  0  0  0  0  0  0  0  0  0
    8.2861  -13.5774   16.3477 C   0  0  0  0  0  0  0  0  0  0  0  0
    8.4922  -13.1784   17.7827 C   0  0  0  0  0  0  0  0  0  0  0  0
    8.8761  -14.5044   18.4309 C   0  0  1  0  0  0  0  0  0  0  0  0
    8.5745  -14.3605   19.8774 C   0  0  0  0  0  0  0  0  0  0  0  0
    9.3795  -13.6994   20.5638 O   0  0  0  0  0  0  0  0  0  0  0  0
    5.2266  -16.2440   21.8696 O   0  0  0  0  0  0  0  0  0  0  0  0
    5.5008  -14.8900   22.0203 C   0  0  0  0  0  0  0  0  0  0  0  0
    6.9589  -14.5713   21.7860 C   0  0  2  0  0  0  0  0  0  0  0  0
    7.4235  -14.9421   20.4765 N   0  0  0  0  0  0  0  0  0  0  0  0
    7.8282  -15.2303   22.8140 C   0  0  0  0  0  0  0  0  0  0  0  0
    8.4381  -16.3106   22.5779 O   0  0  0  0  0  0  0  0  0  0  0  0
   10.2867  -17.4265   29.2141 N   0  0  0  0  0  0  0  0  0  0  0  0
   10.9924  -16.3292   29.8324 C   0  0  0  0  0  0  0  0  0  0  0  0
   12.1469  -16.4948   30.3687 N   0  0  0  0  0  0  0  0  0  0  0  0
   10.4172  -15.0243   29.8627 N   0  0  0  0  0  0  0  0  0  0  0  0
    9.9474  -14.3511   28.6870 C   0  0  0  0  0  0  0  0  0  0  0  0
    9.4475  -15.1925   27.5824 C   0  0  0  0  0  0  0  0  0  0  0  0
    8.8972  -14.5582   26.3742 C   0  0  0  0  0  0  0  0  0  0  0  0
    8.4231  -15.4230   25.2675 C   0  0  2  0  0  0  0  0  0  0  0  0
    7.9914  -14.6433   24.1080 N   0  0  0  0  0  0  0  0  0  0  0  0
    7.4127  -16.4298   25.6337 C   0  0  0  0  0  0  0  0  0  0  0  0
    6.1770  -16.3032   25.4812 O   0  0  0  0  0  0  0  0  0  0  0  0
    7.8560  -17.6360   26.2018 O   0  0  0  0  0  0  0  0  0  0  0  0
  1  2  1  0
  2  3  1  0
  4  3  1  0
  5  4  1  0
  5  1  1  0
  5  6  1  1
  6 11  1  0
  6  7  2  0
 10  9  1  1
  9  8  1  0
 10 12  1  0
 11 10  1  0
 12 13  2  0
 15 16  2  0
 15 14  1  0
 17 15  1  0
 18 17  1  0
 19 18  1  0
 20 19  1  0
 21 20  1  1
 21 23  1  0
 22 12  1  0
 22 21  1  0
 23 25  1  0
 24 23  2  0
M  END
$$$$
