PSR.pdb
     RDKit          3D

 25 25  0  0  1  0  0  0  0  0999 V2000
    8.2197  -15.2014   18.1678 N   0  0  0  0  0  0  0  0  0  0  0  0
    8.5299  -14.3731   16.9946 C   0  0  0  0  0  0  0  0  0  0  0  0
    8.1084  -12.9750   17.4366 C   0  0  0  0  0  0  0  0  0  0  0  0
    8.0146  -13.0334   18.9361 C   0  0  0  0  0  0  0  0  0  0  0  0
    8.6698  -14.3755   19.2450 C   0  0  1  0  0  0  0  0  0  0  0  0
    8.1624  -14.7865   20.5782 C   0  0  0  0  0  0  0  0  0  0  0  0
    8.6887  -14.2547   21.5765 O   0  0  0  0  0  0  0  0  0  0  0  0
    5.2303  -17.8849   21.1631 O   0  0  0  0  0  0  0  0  0  0  0  0
    5.1724  -16.7069   21.8980 C   0  0  0  0  0  0  0  0  0  0  0  0
    6.5204  -16.0338   22.0085 C   0  0  2  0  0  0  0  0  0  0  0  0
    7.1220  -15.7431   20.7350 N   0  0  0  0  0  0  0  0  0  0  0  0
    7.4731  -16.8611   22.8177 C   0  0  0  0  0  0  0  0  0  0  0  0
    8.2455  -17.7040   22.2816 O   0  0  0  0  0  0  0  0  0  0  0  0
   10.9815  -15.5673   29.9467 N   0  0  0  0  0  0  0  0  0  0  0  0
   10.5023  -14.5081   29.0906 C   0  0  0  0  0  0  0  0  0  0  0  0
    9.7741  -13.5558   29.5496 N   0  0  0  0  0  0  0  0  0  0  0  0
   10.8291  -14.4961   27.7022 N   0  0  0  0  0  0  0  0  0  0  0  0
    9.9368  -14.9735   26.6863 C   0  0  0  0  0  0  0  0  0  0  0  0
    9.9044  -16.4294   26.4470 C   0  0  0  0  0  0  0  0  0  0  0  0
    8.6120  -17.1303   26.3897 C   0  0  0  0  0  0  0  0  0  0  0  0
    8.1717  -17.7102   25.0984 C   0  0  2  0  0  0  0  0  0  0  0  0
    7.5321  -16.7144   24.2392 N   0  0  0  0  0  0  0  0  0  0  0  0
    7.3527  -18.9302   25.1942 C   0  0  0  0  0  0  0  0  0  0  0  0
    6.1107  -18.9810   25.0489 O   0  0  0  0  0  0  0  0  0  0  0  0
    8.0037  -20.1442   25.4711 O   0  0  0  0  0  0  0  0  0  0  0  0
  1  2  1  0
  2  3  1  0
  4  3  1  0
  5  4  1  0
  5  1  1  0
  5  6  1  1
  6 11  1  0
  6  7  2  0
 10  9  1  6
  9  8  1  0
 10 12  1  0
 11 10  1  0
 12 13  2  0
 15 16  2  0
 15 14  1  0
 17 15  1  0
 18 17  1  0
 19 18  1  0
 20 19  1  0
 21 20  1  1
 21 23  1  0
 22 12  1  0
 22 21  1  0
 23 25  1  0
 24 23  2  0
M  END
$$$$
