PSR.pdb
     RDKit          3D

 25 25  0  0  1  0  0  0  0  0999 V2000
    6.7900  -14.7701   20.7193 N   0  0  0  0  0  0  0  0  0  0  0  0
    6.4941  -14.4110   19.3257 C   0  0  0  0  0  0  0  0  0  0  0  0
    6.9660  -12.9631   19.2335 C   0  0  0  0  0  0  0  0  0  0  0  0
    7.8779  -12.7567   20.4110 C   0  0  0  0  0  0  0  0  0  0  0  0
    8.0795  -14.1827   20.9126 C   0  0  1  0  0  0  0  0  0  0  0  0
    8.4869  -14.0672   22.3355 C   0  0  0  0  0  0  0  0  0  0  0  0
    9.7096  -14.0009   22.5740 O   0  0  0  0  0  0  0  0  0  0  0  0
    5.7231  -14.3960   25.6518 O   0  0  0  0  0  0  0  0  0  0  0  0
    6.8176  -13.5412   25.7035 C   0  0  0  0  0  0  0  0  0  0  0  0
    7.9308  -13.9796   24.7811 C   0  0  2  0  0  0  0  0  0  0  0  0
    7.5419  -14.0313   23.3975 N   0  0  0  0  0  0  0  0  0  0  0  0
    8.4708  -15.3187   25.1837 C   0  0  0  0  0  0  0  0  0  0  0  0
    8.0528  -16.3903   24.6626 O   0  0  0  0  0  0  0  0  0  0  0  0
   15.4629  -16.5013   24.2266 N   0  0  0  0  0  0  0  0  0  0  0  0
   15.2239  -17.9146   24.0532 C   0  0  0  0  0  0  0  0  0  0  0  0
   16.0722  -18.7900   24.4555 N   0  0  0  0  0  0  0  0  0  0  0  0
   14.0292  -18.3745   23.4240 N   0  0  0  0  0  0  0  0  0  0  0  0
   12.7409  -18.3043   24.0497 C   0  0  0  0  0  0  0  0  0  0  0  0
   12.5951  -17.3803   25.1912 C   0  0  0  0  0  0  0  0  0  0  0  0
   11.4964  -16.4017   25.2014 C   0  0  0  0  0  0  0  0  0  0  0  0
   10.4325  -16.5344   26.2251 C   0  0  2  0  0  0  0  0  0  0  0  0
    9.4887  -15.4180   26.1836 N   0  0  0  0  0  0  0  0  0  0  0  0
   10.8986  -16.7820   27.5999 C   0  0  0  0  0  0  0  0  0  0  0  0
   10.8408  -15.9605   28.5422 O   0  0  0  0  0  0  0  0  0  0  0  0
   11.4562  -18.0378   27.8934 O   0  0  0  0  0  0  0  0  0  0  0  0
  1  2  1  0
  2  3  1  0
  4  3  1  0
  5  4  1  0
  5  1  1  0
  5  6  1  1
  6 11  1  0
  6  7  2  0
 10  9  1  1
  9  8  1  0
 10 12  1  0
 11 10  1  0
 12 13  2  0
 15 16  2  0
 15 14  1  0
 17 15  1  0
 18 17  1  0
 19 18  1  0
 20 19  1  0
 21 20  1  6
 21 23  1  0
 22 12  1  0
 22 21  1  0
 23 25  1  0
 24 23  2  0
M  END
$$$$
