PSR.pdb
     RDKit          3D

 25 25  0  0  1  0  0  0  0  0999 V2000
    7.8614  -15.0349   17.7563 N   0  0  0  0  0  0  0  0  0  0  0  0
    7.4467  -14.5570   16.4302 C   0  0  0  0  0  0  0  0  0  0  0  0
    7.5717  -13.0415   16.5536 C   0  0  0  0  0  0  0  0  0  0  0  0
    8.4494  -12.8018   17.7506 C   0  0  0  0  0  0  0  0  0  0  0  0
    8.9877  -14.1996   18.0369 C   0  0  1  0  0  0  0  0  0  0  0  0
    9.4032  -14.1992   19.4622 C   0  0  0  0  0  0  0  0  0  0  0  0
   10.5713  -13.8413   19.7146 O   0  0  0  0  0  0  0  0  0  0  0  0
    6.9384  -15.7241   22.6835 O   0  0  0  0  0  0  0  0  0  0  0  0
    7.7782  -14.6313   22.8615 C   0  0  0  0  0  0  0  0  0  0  0  0
    8.9344  -14.6329   21.8890 C   0  0  2  0  0  0  0  0  0  0  0  0
    8.5247  -14.5858   20.5114 N   0  0  0  0  0  0  0  0  0  0  0  0
    9.8113  -15.8312   22.0938 C   0  0  0  0  0  0  0  0  0  0  0  0
    9.5663  -16.9392   21.5399 O   0  0  0  0  0  0  0  0  0  0  0  0
   15.5866  -15.6401   17.8989 N   0  0  0  0  0  0  0  0  0  0  0  0
   15.0539  -15.2336   19.1778 C   0  0  0  0  0  0  0  0  0  0  0  0
   14.4737  -14.0986   19.3297 N   0  0  0  0  0  0  0  0  0  0  0  0
   15.1623  -16.0912   20.3124 N   0  0  0  0  0  0  0  0  0  0  0  0
   14.3673  -17.2734   20.4758 C   0  0  0  0  0  0  0  0  0  0  0  0
   13.0743  -17.1257   21.1716 C   0  0  0  0  0  0  0  0  0  0  0  0
   13.0457  -16.9923   22.6366 C   0  0  0  0  0  0  0  0  0  0  0  0
   11.7326  -16.9318   23.3219 C   0  0  2  0  0  0  0  0  0  0  0  0
   10.9654  -15.7484   22.9346 N   0  0  0  0  0  0  0  0  0  0  0  0
   11.7707  -17.0815   24.7863 C   0  0  0  0  0  0  0  0  0  0  0  0
   11.3031  -16.2630   25.6095 O   0  0  0  0  0  0  0  0  0  0  0  0
   12.3784  -18.2312   25.3184 O   0  0  0  0  0  0  0  0  0  0  0  0
  1  2  1  0
  2  3  1  0
  4  3  1  0
  5  4  1  0
  5  1  1  0
  5  6  1  1
  6 11  1  0
  6  7  2  0
 10  9  1  1
  9  8  1  0
 10 12  1  0
 11 10  1  0
 12 13  2  0
 15 16  2  0
 15 14  1  0
 17 15  1  0
 18 17  1  0
 19 18  1  0
 20 19  1  0
 21 20  1  1
 21 23  1  0
 22 12  1  0
 22 21  1  0
 23 25  1  0
 24 23  2  0
M  END
$$$$
