PSR.pdb
     RDKit          3D

 25 25  0  0  1  0  0  0  0  0999 V2000
    9.3172  -15.1223   14.1167 N   0  0  0  0  0  0  0  0  0  0  0  0
    8.6497  -16.0286   13.1723 C   0  0  0  0  0  0  0  0  0  0  0  0
    8.2120  -17.1910   14.0583 C   0  0  0  0  0  0  0  0  0  0  0  0
    8.2615  -16.6693   15.4676 C   0  0  0  0  0  0  0  0  0  0  0  0
    8.4430  -15.1712   15.2474 C   0  0  1  0  0  0  0  0  0  0  0  0
    9.0382  -14.6381   16.4986 C   0  0  0  0  0  0  0  0  0  0  0  0
   10.2832  -14.6299   16.5783 O   0  0  0  0  0  0  0  0  0  0  0  0
    6.6860  -13.6969   19.9394 O   0  0  0  0  0  0  0  0  0  0  0  0
    7.8231  -12.9413   19.6800 C   0  0  0  0  0  0  0  0  0  0  0  0
    8.8118  -13.6760   18.8052 C   0  0  2  0  0  0  0  0  0  0  0  0
    8.2435  -14.1522   17.5730 N   0  0  0  0  0  0  0  0  0  0  0  0
    9.4250  -14.8323   19.5357 C   0  0  0  0  0  0  0  0  0  0  0  0
    8.9403  -15.9964   19.4679 O   0  0  0  0  0  0  0  0  0  0  0  0
   15.4584  -13.2696   18.2985 N   0  0  0  0  0  0  0  0  0  0  0  0
   15.7642  -14.5979   17.8225 C   0  0  0  0  0  0  0  0  0  0  0  0
   16.2699  -14.7905   16.6585 N   0  0  0  0  0  0  0  0  0  0  0  0
   15.5079  -15.7370   18.6419 N   0  0  0  0  0  0  0  0  0  0  0  0
   14.8465  -15.6522   19.9114 C   0  0  0  0  0  0  0  0  0  0  0  0
   13.3720  -15.7134   19.9090 C   0  0  0  0  0  0  0  0  0  0  0  0
   12.6387  -15.6751   21.1840 C   0  0  0  0  0  0  0  0  0  0  0  0
   11.1571  -15.7176   21.1563 C   0  0  2  0  0  0  0  0  0  0  0  0
   10.5924  -14.6435   20.3401 N   0  0  0  0  0  0  0  0  0  0  0  0
   10.4971  -15.7858   22.4709 C   0  0  0  0  0  0  0  0  0  0  0  0
    9.7353  -14.9128   22.9440 O   0  0  0  0  0  0  0  0  0  0  0  0
   10.7316  -16.9166   23.2713 O   0  0  0  0  0  0  0  0  0  0  0  0
  1  2  1  0
  2  3  1  0
  4  3  1  0
  5  4  1  0
  5  1  1  0
  5  6  1  1
  6 11  1  0
  6  7  2  0
 10  9  1  1
  9  8  1  0
 10 12  1  0
 11 10  1  0
 12 13  2  0
 15 16  2  0
 15 14  1  0
 17 15  1  0
 18 17  1  0
 19 18  1  0
 20 19  1  0
 21 20  1  1
 21 23  1  0
 22 12  1  0
 22 21  1  0
 23 25  1  0
 24 23  2  0
M  END
$$$$
