PSR.pdb
     RDKit          3D

 25 25  0  0  1  0  0  0  0  0999 V2000
    7.9363  -13.3098   20.5682 N   0  0  0  0  0  0  0  0  0  0  0  0
    7.6688  -12.3140   19.5216 C   0  0  0  0  0  0  0  0  0  0  0  0
    8.2462  -12.9650   18.2684 C   0  0  0  0  0  0  0  0  0  0  0  0
    8.3890  -14.4252   18.5975 C   0  0  0  0  0  0  0  0  0  0  0  0
    7.6126  -14.5351   19.9056 C   0  0  1  0  0  0  0  0  0  0  0  0
    8.1244  -15.7490   20.5899 C   0  0  0  0  0  0  0  0  0  0  0  0
    7.9773  -16.8391   20.0013 O   0  0  0  0  0  0  0  0  0  0  0  0
   11.5946  -16.1980   22.4819 O   0  0  0  0  0  0  0  0  0  0  0  0
   10.6984  -17.1968   22.1208 C   0  0  0  0  0  0  0  0  0  0  0  0
    9.2794  -16.8642   22.5186 C   0  0  2  0  0  0  0  0  0  0  0  0
    8.7587  -15.6958   21.8614 N   0  0  0  0  0  0  0  0  0  0  0  0
    9.1628  -16.6794   24.0015 C   0  0  0  0  0  0  0  0  0  0  0  0
    9.3035  -15.5486   24.5456 O   0  0  0  0  0  0  0  0  0  0  0  0
    7.1674  -22.4864   24.1881 N   0  0  0  0  0  0  0  0  0  0  0  0
    5.9129  -21.9806   24.6930 C   0  0  0  0  0  0  0  0  0  0  0  0
    4.8967  -21.8263   23.9241 N   0  0  0  0  0  0  0  0  0  0  0  0
    5.7732  -21.6366   26.0702 N   0  0  0  0  0  0  0  0  0  0  0  0
    6.7843  -20.9345   26.8057 C   0  0  0  0  0  0  0  0  0  0  0  0
    7.2784  -19.6678   26.2318 C   0  0  0  0  0  0  0  0  0  0  0  0
    8.2956  -18.8878   26.9542 C   0  0  0  0  0  0  0  0  0  0  0  0
    8.8587  -17.6783   26.3081 C   0  0  2  0  0  0  0  0  0  0  0  0
    8.8850  -17.7963   24.8506 N   0  0  0  0  0  0  0  0  0  0  0  0
   10.1616  -17.2276   26.8257 C   0  0  0  0  0  0  0  0  0  0  0  0
   10.3862  -16.8647   28.0022 O   0  0  0  0  0  0  0  0  0  0  0  0
   11.2511  -17.1967   25.9391 O   0  0  0  0  0  0  0  0  0  0  0  0
  1  2  1  0
  2  3  1  0
  4  3  1  0
  5  4  1  0
  5  1  1  0
  5  6  1  1
  6 11  1  0
  6  7  2  0
 10  9  1  1
  9  8  1  0
 10 12  1  0
 11 10  1  0
 12 13  2  0
 15 16  2  0
 15 14  1  0
 17 15  1  0
 18 17  1  0
 19 18  1  0
 20 19  1  0
 21 20  1  1
 21 23  1  0
 22 12  1  0
 22 21  1  0
 23 25  1  0
 24 23  2  0
M  END
$$$$
