PSR.pdb
     RDKit          3D

 25 25  0  0  1  0  0  0  0  0999 V2000
    7.5726  -15.1261   17.7003 N   0  0  0  0  0  0  0  0  0  0  0  0
    7.3700  -14.4015   16.4383 C   0  0  0  0  0  0  0  0  0  0  0  0
    7.2525  -12.9484   16.8883 C   0  0  0  0  0  0  0  0  0  0  0  0
    7.8287  -12.9046   18.2764 C   0  0  0  0  0  0  0  0  0  0  0  0
    8.4902  -14.2740   18.3910 C   0  0  1  0  0  0  0  0  0  0  0  0
    8.6061  -14.5573   19.8436 C   0  0  0  0  0  0  0  0  0  0  0  0
    9.5268  -13.9872   20.4632 O   0  0  0  0  0  0  0  0  0  0  0  0
    6.4386  -17.6761   21.8776 O   0  0  0  0  0  0  0  0  0  0  0  0
    6.6133  -16.4388   22.4856 C   0  0  0  0  0  0  0  0  0  0  0  0
    7.8052  -15.6924   21.9335 C   0  0  2  0  0  0  0  0  0  0  0  0
    7.7175  -15.4368   20.5211 N   0  0  0  0  0  0  0  0  0  0  0  0
    9.0810  -16.4271   22.2153 C   0  0  0  0  0  0  0  0  0  0  0  0
    9.5120  -17.3332   21.4486 O   0  0  0  0  0  0  0  0  0  0  0  0
   15.6111  -13.9172   19.8685 N   0  0  0  0  0  0  0  0  0  0  0  0
   16.1054  -15.1825   20.3575 C   0  0  0  0  0  0  0  0  0  0  0  0
   17.2306  -15.6579   19.9627 N   0  0  0  0  0  0  0  0  0  0  0  0
   15.3473  -15.9408   21.2982 N   0  0  0  0  0  0  0  0  0  0  0  0
   14.0813  -15.5055   21.8120 C   0  0  0  0  0  0  0  0  0  0  0  0
   13.5286  -16.2483   22.9613 C   0  0  0  0  0  0  0  0  0  0  0  0
   12.2682  -15.8053   23.5777 C   0  0  0  0  0  0  0  0  0  0  0  0
   11.1373  -16.7605   23.6545 C   0  0  2  0  0  0  0  0  0  0  0  0
    9.8543  -16.1155   23.3775 N   0  0  0  0  0  0  0  0  0  0  0  0
   11.0684  -17.5688   24.8835 C   0  0  0  0  0  0  0  0  0  0  0  0
   10.1237  -17.5583   25.7042 O   0  0  0  0  0  0  0  0  0  0  0  0
   12.1432  -18.4265   25.1726 O   0  0  0  0  0  0  0  0  0  0  0  0
  1  2  1  0
  2  3  1  0
  4  3  1  0
  5  4  1  0
  5  1  1  0
  5  6  1  1
  6 11  1  0
  6  7  2  0
 10  9  1  6
  9  8  1  0
 10 12  1  0
 11 10  1  0
 12 13  2  0
 15 16  2  0
 15 14  1  0
 17 15  1  0
 18 17  1  0
 19 18  1  0
 20 19  1  0
 21 20  1  1
 21 23  1  0
 22 12  1  0
 22 21  1  0
 23 25  1  0
 24 23  2  0
M  END
$$$$
