PSR.pdb
     RDKit          3D

 25 25  0  0  1  0  0  0  0  0999 V2000
    7.8958  -14.9630   19.0044 N   0  0  0  0  0  0  0  0  0  0  0  0
    7.1733  -14.3748   17.8683 C   0  0  0  0  0  0  0  0  0  0  0  0
    7.3556  -12.8751   18.0808 C   0  0  0  0  0  0  0  0  0  0  0  0
    8.5088  -12.7368   19.0357 C   0  0  0  0  0  0  0  0  0  0  0  0
    9.0732  -14.1533   19.0621 C   0  0  1  0  0  0  0  0  0  0  0  0
    9.8308  -14.2733   20.3331 C   0  0  0  0  0  0  0  0  0  0  0  0
   10.9711  -13.7683   20.3660 O   0  0  0  0  0  0  0  0  0  0  0  0
    8.7417  -16.9739   23.4929 O   0  0  0  0  0  0  0  0  0  0  0  0
    9.2533  -15.7219   23.8122 C   0  0  0  0  0  0  0  0  0  0  0  0
   10.0600  -15.1274   22.6816 C   0  0  2  0  0  0  0  0  0  0  0  0
    9.3000  -14.9309   21.4767 N   0  0  0  0  0  0  0  0  0  0  0  0
   11.2567  -15.9738   22.3679 C   0  0  0  0  0  0  0  0  0  0  0  0
   11.1887  -16.9589   21.5808 O   0  0  0  0  0  0  0  0  0  0  0  0
   16.0453  -13.4826   16.7749 N   0  0  0  0  0  0  0  0  0  0  0  0
   16.6742  -13.8553   18.0199 C   0  0  0  0  0  0  0  0  0  0  0  0
   17.8335  -13.4087   18.3429 N   0  0  0  0  0  0  0  0  0  0  0  0
   16.0161  -14.7375   18.9273 N   0  0  0  0  0  0  0  0  0  0  0  0
   16.6159  -15.1907   20.1483 C   0  0  0  0  0  0  0  0  0  0  0  0
   15.7892  -16.0342   21.0333 C   0  0  0  0  0  0  0  0  0  0  0  0
   14.5557  -15.4863   21.6191 C   0  0  0  0  0  0  0  0  0  0  0  0
   13.7566  -16.3420   22.5283 C   0  0  2  0  0  0  0  0  0  0  0  0
   12.5250  -15.6826   22.9613 N   0  0  0  0  0  0  0  0  0  0  0  0
   14.4857  -16.9069   23.6763 C   0  0  0  0  0  0  0  0  0  0  0  0
   14.2370  -16.6687   24.8794 O   0  0  0  0  0  0  0  0  0  0  0  0
   15.5500  -17.7865   23.4162 O   0  0  0  0  0  0  0  0  0  0  0  0
  1  2  1  0
  2  3  1  0
  4  3  1  0
  5  4  1  0
  5  1  1  0
  5  6  1  1
  6 11  1  0
  6  7  2  0
 10  9  1  1
  9  8  1  0
 10 12  1  0
 11 10  1  0
 12 13  2  0
 15 16  2  0
 15 14  1  0
 17 15  1  0
 18 17  1  0
 19 18  1  0
 20 19  1  0
 21 20  1  1
 21 23  1  0
 22 12  1  0
 22 21  1  0
 23 25  1  0
 24 23  2  0
M  END
$$$$
