PSR.pdb
     RDKit          3D

 25 25  0  0  1  0  0  0  0  0999 V2000
    8.9559  -14.6360   18.0651 N   0  0  0  0  0  0  0  0  0  0  0  0
    8.8487  -13.6316   16.9982 C   0  0  0  0  0  0  0  0  0  0  0  0
    7.6911  -12.7538   17.4639 C   0  0  0  0  0  0  0  0  0  0  0  0
    7.5260  -13.0424   18.9303 C   0  0  0  0  0  0  0  0  0  0  0  0
    8.7868  -13.8418   19.2423 C   0  0  1  0  0  0  0  0  0  0  0  0
    8.4869  -14.6265   20.4663 C   0  0  0  0  0  0  0  0  0  0  0  0
    8.3013  -13.9871   21.5213 O   0  0  0  0  0  0  0  0  0  0  0  0
    9.1054  -18.8455   20.8522 O   0  0  0  0  0  0  0  0  0  0  0  0
    7.9398  -18.2913   21.3672 C   0  0  0  0  0  0  0  0  0  0  0  0
    8.0783  -16.8105   21.6328 C   0  0  2  0  0  0  0  0  0  0  0  0
    8.4094  -16.0464   20.4604 N   0  0  0  0  0  0  0  0  0  0  0  0
    9.1058  -16.5449   22.6913 C   0  0  0  0  0  0  0  0  0  0  0  0
   10.3096  -16.2939   22.4040 O   0  0  0  0  0  0  0  0  0  0  0  0
    5.0145  -13.5908   26.2008 N   0  0  0  0  0  0  0  0  0  0  0  0
    6.0232  -12.7202   26.7565 C   0  0  0  0  0  0  0  0  0  0  0  0
    5.9709  -11.4479   26.5939 N   0  0  0  0  0  0  0  0  0  0  0  0
    7.1116  -13.2589   27.5047 N   0  0  0  0  0  0  0  0  0  0  0  0
    8.4701  -13.2153   27.0477 C   0  0  0  0  0  0  0  0  0  0  0  0
    8.8394  -14.1220   25.9434 C   0  0  0  0  0  0  0  0  0  0  0  0
    9.1891  -15.5211   26.2347 C   0  0  0  0  0  0  0  0  0  0  0  0
    9.7242  -16.3655   25.1400 C   0  0  2  0  0  0  0  0  0  0  0  0
    8.7432  -16.5694   24.0746 N   0  0  0  0  0  0  0  0  0  0  0  0
   10.3255  -17.6434   25.5568 C   0  0  0  0  0  0  0  0  0  0  0  0
    9.7178  -18.7337   25.6464 O   0  0  0  0  0  0  0  0  0  0  0  0
   11.6919  -17.6562   25.8843 O   0  0  0  0  0  0  0  0  0  0  0  0
  1  2  1  0
  2  3  1  0
  4  3  1  0
  5  4  1  0
  5  1  1  0
  5  6  1  1
  6 11  1  0
  6  7  2  0
 10  9  1  6
  9  8  1  0
 10 12  1  0
 11 10  1  0
 12 13  2  0
 15 16  2  0
 15 14  1  0
 17 15  1  0
 18 17  1  0
 19 18  1  0
 20 19  1  0
 21 20  1  1
 21 23  1  0
 22 12  1  0
 22 21  1  0
 23 25  1  0
 24 23  2  0
M  END
$$$$
