PSR.pdb
     RDKit          3D

 25 25  0  0  1  0  0  0  0  0999 V2000
    7.4689  -15.2862   19.1847 N   0  0  0  0  0  0  0  0  0  0  0  0
    7.0569  -14.7581   17.8770 C   0  0  0  0  0  0  0  0  0  0  0  0
    7.0371  -13.2494   18.1033 C   0  0  0  0  0  0  0  0  0  0  0  0
    7.8479  -13.0141   19.3475 C   0  0  0  0  0  0  0  0  0  0  0  0
    8.5031  -14.3741   19.5637 C   0  0  1  0  0  0  0  0  0  0  0  0
    8.8683  -14.4337   21.0014 C   0  0  0  0  0  0  0  0  0  0  0  0
   10.0752  -14.5889   21.2763 O   0  0  0  0  0  0  0  0  0  0  0  0
    7.4288  -14.2605   25.6948 O   0  0  0  0  0  0  0  0  0  0  0  0
    7.0756  -14.1492   24.3554 C   0  0  0  0  0  0  0  0  0  0  0  0
    8.2453  -14.3975   23.4321 C   0  0  2  0  0  0  0  0  0  0  0  0
    7.9013  -14.3207   22.0378 N   0  0  0  0  0  0  0  0  0  0  0  0
    8.8751  -15.7303   23.7037 C   0  0  0  0  0  0  0  0  0  0  0  0
    8.3909  -16.8025   23.2448 O   0  0  0  0  0  0  0  0  0  0  0  0
   14.9191  -16.7122   24.3381 N   0  0  0  0  0  0  0  0  0  0  0  0
   15.6331  -17.9172   23.9881 C   0  0  0  0  0  0  0  0  0  0  0  0
   16.8534  -18.0979   24.3431 N   0  0  0  0  0  0  0  0  0  0  0  0
   14.9932  -18.9435   23.2318 N   0  0  0  0  0  0  0  0  0  0  0  0
   13.6315  -18.8546   22.7914 C   0  0  0  0  0  0  0  0  0  0  0  0
   12.6092  -18.5644   23.8154 C   0  0  0  0  0  0  0  0  0  0  0  0
   11.7716  -17.3614   23.6890 C   0  0  0  0  0  0  0  0  0  0  0  0
   10.7480  -17.0926   24.7270 C   0  0  2  0  0  0  0  0  0  0  0  0
   10.0583  -15.8227   24.5019 N   0  0  0  0  0  0  0  0  0  0  0  0
   11.2097  -17.2037   26.1209 C   0  0  0  0  0  0  0  0  0  0  0  0
   11.3289  -16.2494   26.9217 O   0  0  0  0  0  0  0  0  0  0  0  0
   11.5480  -18.4782   26.6063 O   0  0  0  0  0  0  0  0  0  0  0  0
  1  2  1  0
  2  3  1  0
  4  3  1  0
  5  4  1  0
  5  1  1  0
  5  6  1  1
  6 11  1  0
  6  7  2  0
 10  9  1  1
  9  8  1  0
 10 12  1  0
 11 10  1  0
 12 13  2  0
 15 16  2  0
 15 14  1  0
 17 15  1  0
 18 17  1  0
 19 18  1  0
 20 19  1  0
 21 20  1  6
 21 23  1  0
 22 12  1  0
 22 21  1  0
 23 25  1  0
 24 23  2  0
M  END
$$$$
