PSR.pdb
     RDKit          3D

 25 25  0  0  1  0  0  0  0  0999 V2000
    7.6068  -15.2789   19.3907 N   0  0  0  0  0  0  0  0  0  0  0  0
    7.3120  -14.8111   18.0295 C   0  0  0  0  0  0  0  0  0  0  0  0
    7.4719  -13.2979   18.1411 C   0  0  0  0  0  0  0  0  0  0  0  0
    8.2596  -13.0639   19.4003 C   0  0  0  0  0  0  0  0  0  0  0  0
    8.7319  -14.4717   19.7478 C   0  0  1  0  0  0  0  0  0  0  0  0
    9.0339  -14.4599   21.2013 C   0  0  0  0  0  0  0  0  0  0  0  0
   10.1060  -13.9295   21.5558 O   0  0  0  0  0  0  0  0  0  0  0  0
    6.4925  -16.2812   24.2182 O   0  0  0  0  0  0  0  0  0  0  0  0
    7.2156  -15.1164   24.4451 C   0  0  0  0  0  0  0  0  0  0  0  0
    8.4468  -15.0276   23.5742 C   0  0  2  0  0  0  0  0  0  0  0  0
    8.1540  -15.0226   22.1662 N   0  0  0  0  0  0  0  0  0  0  0  0
    9.3986  -16.1477   23.8679 C   0  0  0  0  0  0  0  0  0  0  0  0
    9.3141  -17.2646   23.2848 O   0  0  0  0  0  0  0  0  0  0  0  0
   17.3375  -16.3493   21.8678 N   0  0  0  0  0  0  0  0  0  0  0  0
   17.0576  -16.7641   23.2220 C   0  0  0  0  0  0  0  0  0  0  0  0
   17.9655  -16.7407   24.1292 N   0  0  0  0  0  0  0  0  0  0  0  0
   15.7541  -17.2147   23.5859 N   0  0  0  0  0  0  0  0  0  0  0  0
   15.2751  -17.2079   24.9375 C   0  0  0  0  0  0  0  0  0  0  0  0
   13.8702  -17.6031   25.1571 C   0  0  0  0  0  0  0  0  0  0  0  0
   12.7894  -16.6516   24.8549 C   0  0  0  0  0  0  0  0  0  0  0  0
   11.3905  -17.0445   25.1481 C   0  0  2  0  0  0  0  0  0  0  0  0
   10.4426  -15.9770   24.8306 N   0  0  0  0  0  0  0  0  0  0  0  0
   11.1491  -17.5819   26.4977 C   0  0  0  0  0  0  0  0  0  0  0  0
   10.5487  -16.9831   27.4180 O   0  0  0  0  0  0  0  0  0  0  0  0
   11.6258  -18.8705   26.7919 O   0  0  0  0  0  0  0  0  0  0  0  0
  1  2  1  0
  2  3  1  0
  4  3  1  0
  5  4  1  0
  5  1  1  0
  5  6  1  1
  6 11  1  0
  6  7  2  0
 10  9  1  1
  9  8  1  0
 10 12  1  0
 11 10  1  0
 12 13  2  0
 15 16  2  0
 15 14  1  0
 17 15  1  0
 18 17  1  0
 19 18  1  0
 20 19  1  0
 21 20  1  1
 21 23  1  0
 22 12  1  0
 22 21  1  0
 23 25  1  0
 24 23  2  0
M  END
$$$$
