PSR.pdb
     RDKit          3D

 25 25  0  0  1  0  0  0  0  0999 V2000
    7.7749  -14.8440   17.7386 N   0  0  0  0  0  0  0  0  0  0  0  0
    7.5740  -14.1815   16.4427 C   0  0  0  0  0  0  0  0  0  0  0  0
    7.7279  -12.7021   16.7825 C   0  0  0  0  0  0  0  0  0  0  0  0
    8.4284  -12.6609   18.1122 C   0  0  0  0  0  0  0  0  0  0  0  0
    8.8743  -14.1093   18.2833 C   0  0  1  0  0  0  0  0  0  0  0  0
    9.0767  -14.3106   19.7402 C   0  0  0  0  0  0  0  0  0  0  0  0
   10.2069  -14.0492   20.1994 O   0  0  0  0  0  0  0  0  0  0  0  0
    6.1404  -16.1223   22.3670 O   0  0  0  0  0  0  0  0  0  0  0  0
    6.9399  -15.0645   22.7829 C   0  0  0  0  0  0  0  0  0  0  0  0
    8.2328  -14.9835   22.0057 C   0  0  2  0  0  0  0  0  0  0  0  0
    8.0418  -14.7799   20.5949 N   0  0  0  0  0  0  0  0  0  0  0  0
    9.0645  -16.2137   22.2102 C   0  0  0  0  0  0  0  0  0  0  0  0
    9.0506  -17.1721   21.3881 O   0  0  0  0  0  0  0  0  0  0  0  0
   16.0683  -20.8897   23.0267 N   0  0  0  0  0  0  0  0  0  0  0  0
   15.4583  -20.5593   21.7605 C   0  0  0  0  0  0  0  0  0  0  0  0
   15.6084  -21.3103   20.7303 N   0  0  0  0  0  0  0  0  0  0  0  0
   14.6686  -19.3793   21.6239 N   0  0  0  0  0  0  0  0  0  0  0  0
   14.3463  -18.5237   22.7285 C   0  0  0  0  0  0  0  0  0  0  0  0
   12.9706  -18.5952   23.2580 C   0  0  0  0  0  0  0  0  0  0  0  0
   12.0568  -17.4575   23.0694 C   0  0  0  0  0  0  0  0  0  0  0  0
   10.6867  -17.5428   23.6288 C   0  0  2  0  0  0  0  0  0  0  0  0
    9.9076  -16.3349   23.3591 N   0  0  0  0  0  0  0  0  0  0  0  0
   10.6009  -17.9213   25.0493 C   0  0  0  0  0  0  0  0  0  0  0  0
   11.1140  -18.9432   25.5579 O   0  0  0  0  0  0  0  0  0  0  0  0
    9.8883  -17.0769   25.9173 O   0  0  0  0  0  0  0  0  0  0  0  0
  1  2  1  0
  2  3  1  0
  4  3  1  0
  5  4  1  0
  5  1  1  0
  5  6  1  1
  6 11  1  0
  6  7  2  0
 10  9  1  1
  9  8  1  0
 10 12  1  0
 11 10  1  0
 12 13  2  0
 15 16  2  0
 15 14  1  0
 17 15  1  0
 18 17  1  0
 19 18  1  0
 20 19  1  0
 21 20  1  1
 21 23  1  0
 22 12  1  0
 22 21  1  0
 23 25  1  0
 24 23  2  0
M  END
$$$$
