PSR.pdb
     RDKit          3D

 25 25  0  0  1  0  0  0  0  0999 V2000
    7.2865  -15.0110   20.3573 N   0  0  0  0  0  0  0  0  0  0  0  0
    7.2106  -14.6800   18.9278 C   0  0  0  0  0  0  0  0  0  0  0  0
    7.5907  -13.2028   18.8936 C   0  0  0  0  0  0  0  0  0  0  0  0
    8.2703  -12.9272   20.2062 C   0  0  0  0  0  0  0  0  0  0  0  0
    8.4801  -14.3332   20.7586 C   0  0  1  0  0  0  0  0  0  0  0  0
    8.6280  -14.1826   22.2281 C   0  0  0  0  0  0  0  0  0  0  0  0
    9.7781  -14.2926   22.6988 O   0  0  0  0  0  0  0  0  0  0  0  0
    6.6748  -13.0233   26.5497 O   0  0  0  0  0  0  0  0  0  0  0  0
    6.7004  -12.8920   25.1665 C   0  0  0  0  0  0  0  0  0  0  0  0
    7.6392  -13.8800   24.5146 C   0  0  2  0  0  0  0  0  0  0  0  0
    7.5208  -13.9237   23.0821 N   0  0  0  0  0  0  0  0  0  0  0  0
    7.4352  -15.2609   25.0608 C   0  0  0  0  0  0  0  0  0  0  0  0
    6.3845  -15.9215   24.8279 O   0  0  0  0  0  0  0  0  0  0  0  0
    6.0424  -22.0789   25.5991 N   0  0  0  0  0  0  0  0  0  0  0  0
    7.3746  -22.6319   25.5355 C   0  0  0  0  0  0  0  0  0  0  0  0
    7.6966  -23.6777   26.2067 N   0  0  0  0  0  0  0  0  0  0  0  0
    8.3728  -22.0225   24.7189 N   0  0  0  0  0  0  0  0  0  0  0  0
    8.3542  -20.6315   24.3713 C   0  0  0  0  0  0  0  0  0  0  0  0
    8.3020  -19.6598   25.4808 C   0  0  0  0  0  0  0  0  0  0  0  0
    8.3665  -18.2186   25.1913 C   0  0  0  0  0  0  0  0  0  0  0  0
    8.3373  -17.2617   26.3232 C   0  0  2  0  0  0  0  0  0  0  0  0
    8.4409  -15.8745   25.8719 N   0  0  0  0  0  0  0  0  0  0  0  0
    9.2883  -17.5355   27.4136 C   0  0  0  0  0  0  0  0  0  0  0  0
    9.4986  -18.6582   27.9251 O   0  0  0  0  0  0  0  0  0  0  0  0
   10.0272  -16.4593   27.9331 O   0  0  0  0  0  0  0  0  0  0  0  0
  1  2  1  0
  2  3  1  0
  4  3  1  0
  5  4  1  0
  5  1  1  0
  5  6  1  1
  6 11  1  0
  6  7  2  0
 10  9  1  1
  9  8  1  0
 10 12  1  0
 11 10  1  0
 12 13  2  0
 15 16  2  0
 15 14  1  0
 17 15  1  0
 18 17  1  0
 19 18  1  0
 20 19  1  0
 21 20  1  6
 21 23  1  0
 22 12  1  0
 22 21  1  0
 23 25  1  0
 24 23  2  0
M  END
$$$$
