PSR.pdb
     RDKit          3D

 25 25  0  0  1  0  0  0  0  0999 V2000
    7.5265  -14.9296   19.4443 N   0  0  0  0  0  0  0  0  0  0  0  0
    7.2454  -14.4253   18.0932 C   0  0  0  0  0  0  0  0  0  0  0  0
    7.4677  -12.9223   18.2314 C   0  0  0  0  0  0  0  0  0  0  0  0
    8.2697  -12.7437   19.4906 C   0  0  0  0  0  0  0  0  0  0  0  0
    8.6853  -14.1758   19.8102 C   0  0  1  0  0  0  0  0  0  0  0  0
    8.9937  -14.2030   21.2622 C   0  0  0  0  0  0  0  0  0  0  0  0
   10.1044  -13.7591   21.6167 O   0  0  0  0  0  0  0  0  0  0  0  0
    7.2329  -14.8401   25.7654 O   0  0  0  0  0  0  0  0  0  0  0  0
    7.1628  -14.3131   24.4815 C   0  0  0  0  0  0  0  0  0  0  0  0
    8.3538  -14.7012   23.6370 C   0  0  2  0  0  0  0  0  0  0  0  0
    8.0780  -14.7082   22.2257 N   0  0  0  0  0  0  0  0  0  0  0  0
    8.8832  -16.0460   24.0347 C   0  0  0  0  0  0  0  0  0  0  0  0
    8.2656  -17.1130   23.7617 O   0  0  0  0  0  0  0  0  0  0  0  0
   12.5217  -20.6156   21.4910 N   0  0  0  0  0  0  0  0  0  0  0  0
   13.6507  -21.1452   22.2185 C   0  0  0  0  0  0  0  0  0  0  0  0
   14.0478  -22.3540   22.0482 N   0  0  0  0  0  0  0  0  0  0  0  0
   14.3563  -20.3303   23.1526 N   0  0  0  0  0  0  0  0  0  0  0  0
   13.9249  -19.0134   23.5212 C   0  0  0  0  0  0  0  0  0  0  0  0
   12.5662  -18.8812   24.0821 C   0  0  0  0  0  0  0  0  0  0  0  0
   12.1020  -17.5721   24.5676 C   0  0  0  0  0  0  0  0  0  0  0  0
   10.7147  -17.4507   25.0755 C   0  0  2  0  0  0  0  0  0  0  0  0
   10.1203  -16.1562   24.7441 N   0  0  0  0  0  0  0  0  0  0  0  0
   10.5279  -17.7690   26.5011 C   0  0  0  0  0  0  0  0  0  0  0  0
   10.0940  -16.9777   27.3681 O   0  0  0  0  0  0  0  0  0  0  0  0
   10.8597  -19.0621   26.9394 O   0  0  0  0  0  0  0  0  0  0  0  0
  1  2  1  0
  2  3  1  0
  4  3  1  0
  5  4  1  0
  5  1  1  0
  5  6  1  1
  6 11  1  0
  6  7  2  0
 10  9  1  1
  9  8  1  0
 10 12  1  0
 11 10  1  0
 12 13  2  0
 15 16  2  0
 15 14  1  0
 17 15  1  0
 18 17  1  0
 19 18  1  0
 20 19  1  0
 21 20  1  1
 21 23  1  0
 22 12  1  0
 22 21  1  0
 23 25  1  0
 24 23  2  0
M  END
$$$$
