YVF.pdb
     RDKit          3D

 31 32  0  0  1  0  0  0  0  0999 V2000
   18.3383  -14.1159  -16.4049 O   0  0  0  0  0  0  0  0  0  0  0  0
   19.3694  -15.0359  -16.1334 C   0  0  0  0  0  0  0  0  0  0  0  0
   20.6914  -14.6861  -16.3290 C   0  0  0  0  0  0  0  0  0  0  0  0
   21.7056  -15.6038  -16.0575 C   0  0  0  0  0  0  0  0  0  0  0  0
   21.4110  -16.8617  -15.5945 C   0  0  0  0  0  0  0  0  0  0  0  0
   22.4662  -17.8563  -15.2985 C   0  0  0  0  0  0  0  0  0  0  0  0
   23.0834  -18.4323  -16.5529 C   0  0  2  0  0  0  0  0  0  0  0  0
   22.0545  -19.1750  -17.2737 N   0  0  0  0  0  0  0  0  0  0  0  0
   24.1871  -19.3344  -16.1375 C   0  0  0  0  0  0  0  0  0  0  0  0
   23.8732  -20.4819  -15.7351 O   0  0  0  0  0  0  0  0  0  0  0  0
   20.0902  -17.1995  -15.4032 C   0  0  0  0  0  0  0  0  0  0  0  0
   19.0639  -16.2932  -15.6700 C   0  0  0  0  0  0  0  0  0  0  0  0
   28.5374  -18.5254  -16.7883 C   0  0  0  0  0  0  0  0  0  0  0  0
   27.7736  -19.8154  -16.7594 C   0  0  2  0  0  0  0  0  0  0  0  0
   27.2506  -20.1047  -18.1500 C   0  0  0  0  0  0  0  0  0  0  0  0
   26.6323  -19.7913  -15.7473 C   0  0  2  0  0  0  0  0  0  0  0  0
   25.5547  -18.9497  -16.1795 N   0  0  0  0  0  0  0  0  0  0  0  0
   27.0972  -19.5238  -14.3869 C   0  0  0  0  0  0  0  0  0  0  0  0
   27.4671  -18.3679  -13.9848 O   0  0  0  0  0  0  0  0  0  0  0  0
   27.1720  -20.5453  -13.3995 N   0  0  0  0  0  0  0  0  0  0  0  0
   27.7179  -20.2988  -12.0766 C   0  0  1  0  0  0  0  0  0  0  0  0
   26.9172  -19.1110  -11.5225 C   0  0  0  0  0  0  0  0  0  0  0  0
   25.5508  -19.5293  -11.1505 C   0  0  0  0  0  0  0  0  0  0  0  0
   24.5420  -19.6259  -12.0937 C   0  0  0  0  0  0  0  0  0  0  0  0
   23.2612  -20.0178  -11.7435 C   0  0  0  0  0  0  0  0  0  0  0  0
   23.0358  -20.3065  -10.4187 C   0  0  0  0  0  0  0  0  0  0  0  0
   24.0444  -20.2121   -9.4632 C   0  0  0  0  0  0  0  0  0  0  0  0
   25.3160  -19.8210   -9.8228 C   0  0  0  0  0  0  0  0  0  0  0  0
   27.6365  -21.4612  -11.2006 C   0  0  0  0  0  0  0  0  0  0  0  0
   28.2124  -21.4563   -9.9464 O   0  0  0  0  0  0  0  0  0  0  0  0
   27.0354  -22.4903  -11.5809 O   0  0  0  0  0  0  0  0  0  0  0  0
  2 12  2  0
  2  1  1  0
  3  2  1  0
  4  5  1  0
  4  3  2  0
  5 11  2  0
  6  5  1  0
  7  6  1  0
  7  8  1  1
  9  7  1  0
 10  9  2  0
 11 12  1  0
 14 13  1  6
 14 16  1  0
 15 14  1  0
 16 18  1  0
 16 17  1  6
 17  9  1  0
 18 20  1  0
 19 18  2  0
 20 21  1  0
 21 29  1  0
 21 22  1  1
 23 22  1  0
 24 23  2  0
 25 24  1  0
 26 25  2  0
 26 27  1  0
 27 28  2  0
 28 23  1  0
 29 31  2  0
 29 30  1  0
M  END
$$$$
