YVF.pdb
     RDKit          3D

 31 32  0  0  1  0  0  0  0  0999 V2000
   28.8285  -15.1814  -20.0906 O   0  0  0  0  0  0  0  0  0  0  0  0
   28.1619  -16.0309  -19.1866 C   0  0  0  0  0  0  0  0  0  0  0  0
   28.5160  -16.0515  -17.8515 C   0  0  0  0  0  0  0  0  0  0  0  0
   27.8503  -16.8960  -16.9638 C   0  0  0  0  0  0  0  0  0  0  0  0
   26.8387  -17.7160  -17.3972 C   0  0  0  0  0  0  0  0  0  0  0  0
   26.1151  -18.6228  -16.4783 C   0  0  0  0  0  0  0  0  0  0  0  0
   27.0119  -19.6953  -15.9023 C   0  0  2  0  0  0  0  0  0  0  0  0
   27.4256  -20.5810  -16.9858 N   0  0  0  0  0  0  0  0  0  0  0  0
   26.2261  -20.4408  -14.8868 C   0  0  0  0  0  0  0  0  0  0  0  0
   25.5530  -21.4230  -15.2859 O   0  0  0  0  0  0  0  0  0  0  0  0
   26.4940  -17.6873  -18.7297 C   0  0  0  0  0  0  0  0  0  0  0  0
   27.1501  -16.8483  -19.6305 C   0  0  0  0  0  0  0  0  0  0  0  0
   27.4409  -21.3635  -11.2299 C   0  0  0  0  0  0  0  0  0  0  0  0
   26.0613  -20.7796  -11.1639 C   0  0  2  0  0  0  0  0  0  0  0  0
   25.2351  -21.5877  -10.1865 C   0  0  0  0  0  0  0  0  0  0  0  0
   25.3859  -20.7308  -12.5309 C   0  0  2  0  0  0  0  0  0  0  0  0
   26.2117  -20.0865  -13.5105 N   0  0  0  0  0  0  0  0  0  0  0  0
   24.0196  -20.2143  -12.4612 C   0  0  0  0  0  0  0  0  0  0  0  0
   23.7349  -19.0284  -12.0777 O   0  0  0  0  0  0  0  0  0  0  0  0
   22.8934  -21.0059  -12.8205 N   0  0  0  0  0  0  0  0  0  0  0  0
   21.5335  -20.5132  -12.6919 C   0  0  1  0  0  0  0  0  0  0  0  0
   21.4367  -19.3310  -13.6676 C   0  0  0  0  0  0  0  0  0  0  0  0
   21.3900  -19.8081  -15.0644 C   0  0  0  0  0  0  0  0  0  0  0  0
   20.2196  -20.2897  -15.6254 C   0  0  0  0  0  0  0  0  0  0  0  0
   20.1773  -20.7370  -16.9350 C   0  0  0  0  0  0  0  0  0  0  0  0
   21.3482  -20.6817  -17.6528 C   0  0  0  0  0  0  0  0  0  0  0  0
   22.5301  -20.1988  -17.0966 C   0  0  0  0  0  0  0  0  0  0  0  0
   22.5609  -19.7560  -15.7919 C   0  0  0  0  0  0  0  0  0  0  0  0
   20.5291  -21.5312  -12.9750 C   0  0  0  0  0  0  0  0  0  0  0  0
   19.1825  -21.2744  -12.8161 O   0  0  0  0  0  0  0  0  0  0  0  0
   20.8813  -22.6646  -13.3705 O   0  0  0  0  0  0  0  0  0  0  0  0
  2 12  2  0
  2  1  1  0
  3  2  1  0
  4  5  1  0
  4  3  2  0
  5 11  2  0
  6  5  1  0
  7  6  1  0
  7  8  1  6
  9  7  1  0
 10  9  2  0
 11 12  1  0
 14 13  1  6
 14 16  1  0
 15 14  1  0
 16 18  1  0
 16 17  1  6
 17  9  1  0
 18 20  1  0
 19 18  2  0
 20 21  1  0
 21 29  1  0
 21 22  1  6
 23 22  1  0
 24 23  2  0
 25 24  1  0
 26 25  2  0
 26 27  1  0
 27 28  2  0
 28 23  1  0
 29 31  2  0
 29 30  1  0
M  END
$$$$
