YVF.pdb
     RDKit          3D

 31 32  0  0  1  0  0  0  0  0999 V2000
   18.3079  -17.8475  -15.0166 O   0  0  0  0  0  0  0  0  0  0  0  0
   19.3077  -18.4494  -14.2283 C   0  0  0  0  0  0  0  0  0  0  0  0
   20.6158  -18.0109  -14.2990 C   0  0  0  0  0  0  0  0  0  0  0  0
   21.5991  -18.6131  -13.5147 C   0  0  0  0  0  0  0  0  0  0  0  0
   21.2874  -19.6446  -12.6648 C   0  0  0  0  0  0  0  0  0  0  0  0
   22.3099  -20.3029  -11.8213 C   0  0  0  0  0  0  0  0  0  0  0  0
   23.3941  -20.9651  -12.6412 C   0  0  2  0  0  0  0  0  0  0  0  0
   22.8267  -22.1425  -13.2906 N   0  0  0  0  0  0  0  0  0  0  0  0
   24.4859  -21.3534  -11.7129 C   0  0  0  0  0  0  0  0  0  0  0  0
   24.2581  -22.2992  -10.9186 O   0  0  0  0  0  0  0  0  0  0  0  0
   19.9808  -20.0736  -12.6025 C   0  0  0  0  0  0  0  0  0  0  0  0
   18.9855  -19.4818  -13.3803 C   0  0  0  0  0  0  0  0  0  0  0  0
   28.3732  -21.7465  -12.4396 C   0  0  0  0  0  0  0  0  0  0  0  0
   28.1612  -20.8310  -11.2711 C   0  0  2  0  0  0  0  0  0  0  0  0
   29.1972  -21.1424  -10.2124 C   0  0  0  0  0  0  0  0  0  0  0  0
   26.7522  -20.9402  -10.6966 C   0  0  2  0  0  0  0  0  0  0  0  0
   25.7501  -20.7043  -11.6949 N   0  0  0  0  0  0  0  0  0  0  0  0
   26.5837  -20.1526   -9.4761 C   0  0  0  0  0  0  0  0  0  0  0  0
   25.5010  -19.5416   -9.1773 O   0  0  0  0  0  0  0  0  0  0  0  0
   27.6273  -20.0079   -8.5201 N   0  0  0  0  0  0  0  0  0  0  0  0
   27.4888  -19.1565   -7.3519 C   0  0  1  0  0  0  0  0  0  0  0  0
   26.6907  -19.9880   -6.3367 C   0  0  0  0  0  0  0  0  0  0  0  0
   27.5528  -20.4125   -5.2154 C   0  0  0  0  0  0  0  0  0  0  0  0
   27.8122  -21.7497   -4.9687 C   0  0  0  0  0  0  0  0  0  0  0  0
   28.6203  -22.1465   -3.9168 C   0  0  0  0  0  0  0  0  0  0  0  0
   29.1532  -21.1542   -3.1289 C   0  0  0  0  0  0  0  0  0  0  0  0
   28.8978  -19.8066   -3.3698 C   0  0  0  0  0  0  0  0  0  0  0  0
   28.0918  -19.4229   -4.4198 C   0  0  0  0  0  0  0  0  0  0  0  0
   28.7696  -18.7227   -6.8074 C   0  0  0  0  0  0  0  0  0  0  0  0
   28.8789  -17.5630   -6.0673 O   0  0  0  0  0  0  0  0  0  0  0  0
   29.7982  -19.4060   -7.0075 O   0  0  0  0  0  0  0  0  0  0  0  0
  2 12  2  0
  2  1  1  0
  3  2  1  0
  4  5  1  0
  4  3  2  0
  5 11  2  0
  6  5  1  0
  7  6  1  0
  7  8  1  1
  9  7  1  0
 10  9  2  0
 11 12  1  0
 14 13  1  6
 14 16  1  0
 15 14  1  0
 16 18  1  0
 16 17  1  6
 17  9  1  0
 18 20  1  0
 19 18  2  0
 20 21  1  0
 21 29  1  0
 21 22  1  1
 23 22  1  0
 24 23  2  0
 25 24  1  0
 26 25  2  0
 26 27  1  0
 27 28  2  0
 28 23  1  0
 29 31  2  0
 29 30  1  0
M  END
$$$$
