YVF.pdb
     RDKit          3D

 31 32  0  0  1  0  0  0  0  0999 V2000
   26.0825  -12.3321  -17.7568 O   0  0  0  0  0  0  0  0  0  0  0  0
   25.6489  -13.5765  -17.2599 C   0  0  0  0  0  0  0  0  0  0  0  0
   24.7967  -14.3703  -18.0026 C   0  0  0  0  0  0  0  0  0  0  0  0
   24.3725  -15.6009  -17.5023 C   0  0  0  0  0  0  0  0  0  0  0  0
   24.7911  -16.0424  -16.2721 C   0  0  0  0  0  0  0  0  0  0  0  0
   24.3570  -17.3432  -15.7156 C   0  0  0  0  0  0  0  0  0  0  0  0
   25.4071  -18.4189  -15.8783 C   0  0  2  0  0  0  0  0  0  0  0  0
   25.5494  -18.7126  -17.3007 N   0  0  0  0  0  0  0  0  0  0  0  0
   24.9397  -19.6188  -15.1393 C   0  0  0  0  0  0  0  0  0  0  0  0
   24.1201  -20.3714  -15.7215 O   0  0  0  0  0  0  0  0  0  0  0  0
   25.6403  -15.2432  -15.5405 C   0  0  0  0  0  0  0  0  0  0  0  0
   26.0737  -14.0097  -16.0266 C   0  0  0  0  0  0  0  0  0  0  0  0
   25.3013  -22.6612  -11.2093 C   0  0  0  0  0  0  0  0  0  0  0  0
   25.8043  -21.4612  -11.9545 C   0  0  2  0  0  0  0  0  0  0  0  0
   26.0688  -20.3470  -10.9646 C   0  0  0  0  0  0  0  0  0  0  0  0
   24.8335  -21.0019  -13.0379 C   0  0  2  0  0  0  0  0  0  0  0  0
   25.3797  -19.9352  -13.8254 N   0  0  0  0  0  0  0  0  0  0  0  0
   23.4943  -20.7384  -12.5131 C   0  0  0  0  0  0  0  0  0  0  0  0
   23.2420  -19.8227  -11.6573 O   0  0  0  0  0  0  0  0  0  0  0  0
   22.3601  -21.4930  -12.9234 N   0  0  0  0  0  0  0  0  0  0  0  0
   21.0209  -21.1882  -12.4517 C   0  0  1  0  0  0  0  0  0  0  0  0
   20.7172  -19.7774  -12.9774 C   0  0  0  0  0  0  0  0  0  0  0  0
   20.4231  -19.8103  -14.4242 C   0  0  0  0  0  0  0  0  0  0  0  0
   21.4355  -19.8627  -15.3669 C   0  0  0  0  0  0  0  0  0  0  0  0
   21.1585  -19.8931  -16.7231 C   0  0  0  0  0  0  0  0  0  0  0  0
   19.8345  -19.8691  -17.0915 C   0  0  0  0  0  0  0  0  0  0  0  0
   18.8097  -19.8165  -16.1501 C   0  0  0  0  0  0  0  0  0  0  0  0
   19.0968  -19.7865  -14.8025 C   0  0  0  0  0  0  0  0  0  0  0  0
   20.0257  -22.1563  -12.8961 C   0  0  0  0  0  0  0  0  0  0  0  0
   18.7200  -22.0981  -12.4531 O   0  0  0  0  0  0  0  0  0  0  0  0
   20.3484  -23.0633  -13.6950 O   0  0  0  0  0  0  0  0  0  0  0  0
  2 12  2  0
  2  1  1  0
  3  2  1  0
  4  5  1  0
  4  3  2  0
  5 11  2  0
  6  5  1  0
  7  6  1  0
  7  8  1  6
  9  7  1  0
 10  9  2  0
 11 12  1  0
 14 13  1  1
 14 16  1  0
 15 14  1  0
 16 18  1  0
 16 17  1  1
 17  9  1  0
 18 20  1  0
 19 18  2  0
 20 21  1  0
 21 29  1  0
 21 22  1  6
 23 22  1  0
 24 23  2  0
 25 24  1  0
 26 25  2  0
 26 27  1  0
 27 28  2  0
 28 23  1  0
 29 31  2  0
 29 30  1  0
M  END
$$$$
