YVF.pdb
     RDKit          3D

 31 32  0  0  1  0  0  0  0  0999 V2000
   20.2847  -15.4090  -18.9419 O   0  0  0  0  0  0  0  0  0  0  0  0
   20.5647  -16.3829  -17.9639 C   0  0  0  0  0  0  0  0  0  0  0  0
   20.3009  -17.7170  -18.2064 C   0  0  0  0  0  0  0  0  0  0  0  0
   20.5814  -18.6743  -17.2320 C   0  0  0  0  0  0  0  0  0  0  0  0
   21.1206  -18.3110  -16.0233 C   0  0  0  0  0  0  0  0  0  0  0  0
   21.4280  -19.3047  -14.9705 C   0  0  0  0  0  0  0  0  0  0  0  0
   22.9086  -19.5919  -14.8638 C   0  0  2  0  0  0  0  0  0  0  0  0
   23.3524  -20.1957  -16.1160 N   0  0  0  0  0  0  0  0  0  0  0  0
   23.1038  -20.5313  -13.7307 C   0  0  0  0  0  0  0  0  0  0  0  0
   22.7651  -21.7274  -13.9087 O   0  0  0  0  0  0  0  0  0  0  0  0
   21.3793  -16.9788  -15.7923 C   0  0  0  0  0  0  0  0  0  0  0  0
   21.1046  -16.0089  -16.7566 C   0  0  0  0  0  0  0  0  0  0  0  0
   24.4704  -21.4716   -9.0428 C   0  0  0  0  0  0  0  0  0  0  0  0
   24.6453  -20.6962  -10.3143 C   0  0  2  0  0  0  0  0  0  0  0  0
   24.8654  -19.2385   -9.9711 C   0  0  0  0  0  0  0  0  0  0  0  0
   23.4580  -20.8553  -11.2589 C   0  0  2  0  0  0  0  0  0  0  0  0
   23.6484  -20.1295  -12.4809 N   0  0  0  0  0  0  0  0  0  0  0  0
   22.1794  -20.5971  -10.5980 C   0  0  0  0  0  0  0  0  0  0  0  0
   21.6585  -19.4333  -10.5044 O   0  0  0  0  0  0  0  0  0  0  0  0
   21.4125  -21.6376  -10.0035 N   0  0  0  0  0  0  0  0  0  0  0  0
   20.1417  -21.3801   -9.3497 C   0  0  1  0  0  0  0  0  0  0  0  0
   19.2500  -20.7509  -10.4304 C   0  0  0  0  0  0  0  0  0  0  0  0
   18.8436  -21.7618  -11.4272 C   0  0  0  0  0  0  0  0  0  0  0  0
   19.4943  -21.8806  -12.6433 C   0  0  0  0  0  0  0  0  0  0  0  0
   19.1120  -22.8285  -13.5772 C   0  0  0  0  0  0  0  0  0  0  0  0
   18.0586  -23.6459  -13.2434 C   0  0  0  0  0  0  0  0  0  0  0  0
   17.3984  -23.5335  -12.0224 C   0  0  0  0  0  0  0  0  0  0  0  0
   17.7872  -22.5862  -11.1000 C   0  0  0  0  0  0  0  0  0  0  0  0
   19.5386  -22.5802   -8.7829 C   0  0  0  0  0  0  0  0  0  0  0  0
   20.1751  -23.8030   -8.8489 O   0  0  0  0  0  0  0  0  0  0  0  0
   18.4221  -22.5145   -8.2226 O   0  0  0  0  0  0  0  0  0  0  0  0
  2 12  2  0
  2  1  1  0
  3  2  1  0
  4  5  1  0
  4  3  2  0
  5 11  2  0
  6  5  1  0
  7  6  1  0
  7  8  1  6
  9  7  1  0
 10  9  2  0
 11 12  1  0
 14 13  1  1
 14 16  1  0
 15 14  1  0
 16 18  1  0
 16 17  1  6
 17  9  1  0
 18 20  1  0
 19 18  2  0
 20 21  1  0
 21 29  1  0
 21 22  1  6
 23 22  1  0
 24 23  2  0
 25 24  1  0
 26 25  2  0
 26 27  1  0
 27 28  2  0
 28 23  1  0
 29 31  2  0
 29 30  1  0
M  END
$$$$
