YVF.pdb
     RDKit          3D

 31 32  0  0  1  0  0  0  0  0999 V2000
   18.4906  -16.0336  -15.3809 O   0  0  0  0  0  0  0  0  0  0  0  0
   19.3140  -16.8955  -14.6310 C   0  0  0  0  0  0  0  0  0  0  0  0
   18.7727  -17.9736  -13.9579 C   0  0  0  0  0  0  0  0  0  0  0  0
   19.5959  -18.8215  -13.2177 C   0  0  0  0  0  0  0  0  0  0  0  0
   20.9488  -18.6020  -13.1451 C   0  0  0  0  0  0  0  0  0  0  0  0
   21.8465  -19.4846  -12.3671 C   0  0  0  0  0  0  0  0  0  0  0  0
   22.7437  -20.3192  -13.2530 C   0  0  2  0  0  0  0  0  0  0  0  0
   21.9495  -21.4026  -13.8233 N   0  0  0  0  0  0  0  0  0  0  0  0
   23.8356  -20.8602  -12.4047 C   0  0  0  0  0  0  0  0  0  0  0  0
   23.5496  -21.8078  -11.6318 O   0  0  0  0  0  0  0  0  0  0  0  0
   21.4774  -17.5248  -13.8198 C   0  0  0  0  0  0  0  0  0  0  0  0
   20.6677  -16.6671  -14.5645 C   0  0  0  0  0  0  0  0  0  0  0  0
   27.3762  -21.8133  -13.6440 C   0  0  0  0  0  0  0  0  0  0  0  0
   27.5319  -20.9790  -12.4078 C   0  0  2  0  0  0  0  0  0  0  0  0
   28.6211  -21.5811  -11.5463 C   0  0  0  0  0  0  0  0  0  0  0  0
   26.2293  -20.8553  -11.6234 C   0  0  2  0  0  0  0  0  0  0  0  0
   25.1624  -20.3517  -12.4386 N   0  0  0  0  0  0  0  0  0  0  0  0
   26.4051  -20.1471  -10.3562 C   0  0  0  0  0  0  0  0  0  0  0  0
   26.3182  -18.8765  -10.2428 O   0  0  0  0  0  0  0  0  0  0  0  0
   26.6893  -20.8310   -9.1415 N   0  0  0  0  0  0  0  0  0  0  0  0
   27.4752  -20.2241   -8.0820 C   0  0  1  0  0  0  0  0  0  0  0  0
   26.5487  -20.1920   -6.8575 C   0  0  0  0  0  0  0  0  0  0  0  0
   27.2683  -19.6891   -5.6701 C   0  0  0  0  0  0  0  0  0  0  0  0
   27.8076  -20.5526   -4.7319 C   0  0  0  0  0  0  0  0  0  0  0  0
   28.4817  -20.0798   -3.6188 C   0  0  0  0  0  0  0  0  0  0  0  0
   28.5917  -18.7161   -3.4868 C   0  0  0  0  0  0  0  0  0  0  0  0
   28.0523  -17.8402   -4.4255 C   0  0  0  0  0  0  0  0  0  0  0  0
   27.3832  -18.3217   -5.5299 C   0  0  0  0  0  0  0  0  0  0  0  0
   28.7119  -20.9447   -7.8051 C   0  0  0  0  0  0  0  0  0  0  0  0
   29.8165  -20.3011   -7.2854 O   0  0  0  0  0  0  0  0  0  0  0  0
   28.7868  -22.1715   -8.0387 O   0  0  0  0  0  0  0  0  0  0  0  0
  2 12  2  0
  2  1  1  0
  3  2  1  0
  4  5  1  0
  4  3  2  0
  5 11  2  0
  6  5  1  0
  7  6  1  0
  7  8  1  1
  9  7  1  0
 10  9  2  0
 11 12  1  0
 14 13  1  6
 14 16  1  0
 15 14  1  0
 16 18  1  0
 16 17  1  6
 17  9  1  0
 18 20  1  0
 19 18  2  0
 20 21  1  0
 21 29  1  0
 21 22  1  1
 23 22  1  0
 24 23  2  0
 25 24  1  0
 26 25  2  0
 26 27  1  0
 27 28  2  0
 28 23  1  0
 29 31  2  0
 29 30  1  0
M  END
$$$$
