YVF.pdb
     RDKit          3D

 31 32  0  0  1  0  0  0  0  0999 V2000
   17.4627  -18.7881  -14.3646 O   0  0  0  0  0  0  0  0  0  0  0  0
   18.6392  -19.3253  -13.8072 C   0  0  0  0  0  0  0  0  0  0  0  0
   18.6557  -20.6146  -13.3115 C   0  0  0  0  0  0  0  0  0  0  0  0
   19.8253  -21.1379  -12.7614 C   0  0  0  0  0  0  0  0  0  0  0  0
   20.9727  -20.3872  -12.7030 C   0  0  0  0  0  0  0  0  0  0  0  0
   22.2281  -20.9159  -12.1244 C   0  0  0  0  0  0  0  0  0  0  0  0
   23.2664  -21.2197  -13.1808 C   0  0  2  0  0  0  0  0  0  0  0  0
   22.8010  -22.3545  -13.9716 N   0  0  0  0  0  0  0  0  0  0  0  0
   24.5340  -21.5518  -12.4828 C   0  0  0  0  0  0  0  0  0  0  0  0
   24.6080  -22.6745  -11.9251 O   0  0  0  0  0  0  0  0  0  0  0  0
   20.9449  -19.1037  -13.1999 C   0  0  0  0  0  0  0  0  0  0  0  0
   19.7831  -18.5653  -13.7534 C   0  0  0  0  0  0  0  0  0  0  0  0
   28.3362  -20.8627  -13.5332 C   0  0  0  0  0  0  0  0  0  0  0  0
   28.0495  -20.2847  -12.1796 C   0  0  2  0  0  0  0  0  0  0  0  0
   29.2365  -20.5433  -11.2766 C   0  0  0  0  0  0  0  0  0  0  0  0
   26.7716  -20.8489  -11.5666 C   0  0  2  0  0  0  0  0  0  0  0  0
   25.6399  -20.6607  -12.4269 N   0  0  0  0  0  0  0  0  0  0  0  0
   26.5645  -20.3970  -10.1914 C   0  0  0  0  0  0  0  0  0  0  0  0
   25.9253  -19.3314   -9.8900 O   0  0  0  0  0  0  0  0  0  0  0  0
   27.0665  -21.1211   -9.0744 N   0  0  0  0  0  0  0  0  0  0  0  0
   27.0740  -20.5616   -7.7344 C   0  0  1  0  0  0  0  0  0  0  0  0
   27.9277  -21.5257   -6.8973 C   0  0  0  0  0  0  0  0  0  0  0  0
   28.2310  -20.9424   -5.5750 C   0  0  0  0  0  0  0  0  0  0  0  0
   27.4207  -21.1780   -4.4776 C   0  0  0  0  0  0  0  0  0  0  0  0
   27.7060  -20.6302   -3.2385 C   0  0  0  0  0  0  0  0  0  0  0  0
   28.8286  -19.8425   -3.1465 C   0  0  0  0  0  0  0  0  0  0  0  0
   29.6494  -19.6001   -4.2451 C   0  0  0  0  0  0  0  0  0  0  0  0
   29.3560  -20.1506   -5.4740 C   0  0  0  0  0  0  0  0  0  0  0  0
   27.5935  -19.2003   -7.6878 C   0  0  0  0  0  0  0  0  0  0  0  0
   26.9119  -18.1941   -7.0342 O   0  0  0  0  0  0  0  0  0  0  0  0
   28.6780  -18.9251   -8.2475 O   0  0  0  0  0  0  0  0  0  0  0  0
  2 12  2  0
  2  1  1  0
  3  2  1  0
  4  5  1  0
  4  3  2  0
  5 11  2  0
  6  5  1  0
  7  6  1  0
  7  8  1  1
  9  7  1  0
 10  9  2  0
 11 12  1  0
 14 13  1  6
 14 16  1  0
 15 14  1  0
 16 18  1  0
 16 17  1  6
 17  9  1  0
 18 20  1  0
 19 18  2  0
 20 21  1  0
 21 29  1  0
 21 22  1  1
 23 22  1  0
 24 23  2  0
 25 24  1  0
 26 25  2  0
 26 27  1  0
 27 28  2  0
 28 23  1  0
 29 31  2  0
 29 30  1  0
M  END
$$$$
