YVF.pdb
     RDKit          3D

 31 32  0  0  1  0  0  0  0  0999 V2000
   18.0716  -17.2328  -17.0914 O   0  0  0  0  0  0  0  0  0  0  0  0
   19.1238  -17.9264  -16.4628 C   0  0  0  0  0  0  0  0  0  0  0  0
   20.3176  -17.2890  -16.1857 C   0  0  0  0  0  0  0  0  0  0  0  0
   21.3540  -17.9839  -15.5631 C   0  0  0  0  0  0  0  0  0  0  0  0
   21.2076  -19.3038  -15.2168 C   0  0  0  0  0  0  0  0  0  0  0  0
   22.2900  -20.0665  -14.5557 C   0  0  0  0  0  0  0  0  0  0  0  0
   23.3425  -20.5384  -15.5334 C   0  0  2  0  0  0  0  0  0  0  0  0
   22.7853  -21.6370  -16.3159 N   0  0  0  0  0  0  0  0  0  0  0  0
   24.5143  -20.9975  -14.7456 C   0  0  0  0  0  0  0  0  0  0  0  0
   24.4292  -22.1186  -14.1860 O   0  0  0  0  0  0  0  0  0  0  0  0
   20.0137  -19.9290  -15.4976 C   0  0  0  0  0  0  0  0  0  0  0  0
   18.9674  -19.2481  -16.1199 C   0  0  0  0  0  0  0  0  0  0  0  0
   28.5598  -20.4310  -15.2318 C   0  0  0  0  0  0  0  0  0  0  0  0
   28.0332  -19.8614  -13.9485 C   0  0  2  0  0  0  0  0  0  0  0  0
   29.0435  -20.1155  -12.8504 C   0  0  0  0  0  0  0  0  0  0  0  0
   26.6714  -20.4379  -13.5735 C   0  0  2  0  0  0  0  0  0  0  0  0
   25.7006  -20.2270  -14.6077 N   0  0  0  0  0  0  0  0  0  0  0  0
   26.2343  -20.0188  -12.2425 C   0  0  0  0  0  0  0  0  0  0  0  0
   25.8169  -18.8395  -11.9784 O   0  0  0  0  0  0  0  0  0  0  0  0
   26.2423  -20.9061  -11.1304 N   0  0  0  0  0  0  0  0  0  0  0  0
   25.8041  -20.4896   -9.8101 C   0  0  1  0  0  0  0  0  0  0  0  0
   24.5994  -21.3840   -9.4820 C   0  0  0  0  0  0  0  0  0  0  0  0
   23.3327  -20.6788   -9.7624 C   0  0  0  0  0  0  0  0  0  0  0  0
   22.5848  -20.1047   -8.7487 C   0  0  0  0  0  0  0  0  0  0  0  0
   21.3971  -19.4441   -9.0130 C   0  0  0  0  0  0  0  0  0  0  0  0
   20.9938  -19.3837  -10.3256 C   0  0  0  0  0  0  0  0  0  0  0  0
   21.7397  -19.9584  -11.3516 C   0  0  0  0  0  0  0  0  0  0  0  0
   22.9206  -20.6136  -11.0773 C   0  0  0  0  0  0  0  0  0  0  0  0
   26.8503  -20.6005   -8.8009 C   0  0  0  0  0  0  0  0  0  0  0  0
   26.8448  -19.8074   -7.6715 O   0  0  0  0  0  0  0  0  0  0  0  0
   27.7775  -21.4271   -8.9491 O   0  0  0  0  0  0  0  0  0  0  0  0
  2 12  2  0
  2  1  1  0
  3  2  1  0
  4  5  1  0
  4  3  2  0
  5 11  2  0
  6  5  1  0
  7  6  1  0
  7  8  1  1
  9  7  1  0
 10  9  2  0
 11 12  1  0
 14 13  1  6
 14 16  1  0
 15 14  1  0
 16 18  1  0
 16 17  1  6
 17  9  1  0
 18 20  1  0
 19 18  2  0
 20 21  1  0
 21 29  1  0
 21 22  1  1
 23 22  1  0
 24 23  2  0
 25 24  1  0
 26 25  2  0
 26 27  1  0
 27 28  2  0
 28 23  1  0
 29 31  2  0
 29 30  1  0
M  END
$$$$
