YVF.pdb
     RDKit          3D

 31 32  0  0  1  0  0  0  0  0999 V2000
   30.6450  -16.4671  -18.8633 O   0  0  0  0  0  0  0  0  0  0  0  0
   29.8683  -16.6950  -17.7109 C   0  0  0  0  0  0  0  0  0  0  0  0
   28.7281  -15.9518  -17.4750 C   0  0  0  0  0  0  0  0  0  0  0  0
   27.9652  -16.1845  -16.3310 C   0  0  0  0  0  0  0  0  0  0  0  0
   28.3308  -17.1490  -15.4257 C   0  0  0  0  0  0  0  0  0  0  0  0
   27.5412  -17.4175  -14.2031 C   0  0  0  0  0  0  0  0  0  0  0  0
   26.6950  -18.6645  -14.3258 C   0  0  2  0  0  0  0  0  0  0  0  0
   25.6613  -18.4233  -15.3273 N   0  0  0  0  0  0  0  0  0  0  0  0
   26.0867  -18.9276  -12.9973 C   0  0  0  0  0  0  0  0  0  0  0  0
   25.1076  -18.2168  -12.6606 O   0  0  0  0  0  0  0  0  0  0  0  0
   29.4689  -17.8837  -15.6709 C   0  0  0  0  0  0  0  0  0  0  0  0
   30.2428  -17.6633  -16.8103 C   0  0  0  0  0  0  0  0  0  0  0  0
   23.6960  -20.3916  -11.9906 C   0  0  0  0  0  0  0  0  0  0  0  0
   24.6636  -21.0726  -11.0694 C   0  0  2  0  0  0  0  0  0  0  0  0
   23.9777  -21.3309   -9.7450 C   0  0  0  0  0  0  0  0  0  0  0  0
   25.9405  -20.2628  -10.8675 C   0  0  2  0  0  0  0  0  0  0  0  0
   26.5658  -19.9340  -12.1154 N   0  0  0  0  0  0  0  0  0  0  0  0
   26.8381  -20.8700   -9.8856 C   0  0  0  0  0  0  0  0  0  0  0  0
   27.5414  -21.9105  -10.1247 O   0  0  0  0  0  0  0  0  0  0  0  0
   26.9951  -20.3385   -8.5753 N   0  0  0  0  0  0  0  0  0  0  0  0
   27.6078  -21.1024   -7.5030 C   0  0  1  0  0  0  0  0  0  0  0  0
   28.8371  -20.2869   -7.0754 C   0  0  0  0  0  0  0  0  0  0  0  0
   28.6201  -19.6685   -5.7521 C   0  0  0  0  0  0  0  0  0  0  0  0
   29.0976  -20.2552   -4.5927 C   0  0  0  0  0  0  0  0  0  0  0  0
   28.8932  -19.6746   -3.3525 C   0  0  0  0  0  0  0  0  0  0  0  0
   28.1956  -18.4906   -3.3237 C   0  0  0  0  0  0  0  0  0  0  0  0
   27.7117  -17.8933   -4.4849 C   0  0  0  0  0  0  0  0  0  0  0  0
   27.9209  -18.4800   -5.7143 C   0  0  0  0  0  0  0  0  0  0  0  0
   26.7033  -21.3427   -6.3852 C   0  0  0  0  0  0  0  0  0  0  0  0
   27.0601  -22.1676   -5.3379 O   0  0  0  0  0  0  0  0  0  0  0  0
   25.5781  -20.7965   -6.3624 O   0  0  0  0  0  0  0  0  0  0  0  0
  2 12  2  0
  2  1  1  0
  3  2  1  0
  4  5  1  0
  4  3  2  0
  5 11  2  0
  6  5  1  0
  7  6  1  0
  7  8  1  6
  9  7  1  0
 10  9  2  0
 11 12  1  0
 14 13  1  6
 14 16  1  0
 15 14  1  0
 16 18  1  0
 16 17  1  6
 17  9  1  0
 18 20  1  0
 19 18  2  0
 20 21  1  0
 21 29  1  0
 21 22  1  1
 23 22  1  0
 24 23  2  0
 25 24  1  0
 26 25  2  0
 26 27  1  0
 27 28  2  0
 28 23  1  0
 29 31  2  0
 29 30  1  0
M  END
$$$$
