YVF.pdb
     RDKit          3D

 31 32  0  0  1  0  0  0  0  0999 V2000
   17.3519  -17.0533  -13.6236 O   0  0  0  0  0  0  0  0  0  0  0  0
   18.4837  -17.7764  -13.2001 C   0  0  0  0  0  0  0  0  0  0  0  0
   19.7510  -17.2474  -13.3502 C   0  0  0  0  0  0  0  0  0  0  0  0
   20.8659  -17.9708  -12.9279 C   0  0  0  0  0  0  0  0  0  0  0  0
   20.7254  -19.2121  -12.3597 C   0  0  0  0  0  0  0  0  0  0  0  0
   21.8902  -20.0027  -11.9030 C   0  0  0  0  0  0  0  0  0  0  0  0
   22.7718  -20.4448  -13.0491 C   0  0  2  0  0  0  0  0  0  0  0  0
   22.0420  -21.4326  -13.8374 N   0  0  0  0  0  0  0  0  0  0  0  0
   23.9999  -21.0423  -12.4669 C   0  0  0  0  0  0  0  0  0  0  0  0
   23.9127  -22.2088  -12.0098 O   0  0  0  0  0  0  0  0  0  0  0  0
   19.4579  -19.7296  -12.2150 C   0  0  0  0  0  0  0  0  0  0  0  0
   18.3325  -19.0188  -12.6322 C   0  0  0  0  0  0  0  0  0  0  0  0
   27.3707  -21.4797  -14.0904 C   0  0  0  0  0  0  0  0  0  0  0  0
   27.6238  -20.7982  -12.7789 C   0  0  2  0  0  0  0  0  0  0  0  0
   28.8631  -21.3967  -12.1487 C   0  0  0  0  0  0  0  0  0  0  0  0
   26.4324  -20.9020  -11.8317 C   0  0  2  0  0  0  0  0  0  0  0  0
   25.2415  -20.3527  -12.4115 N   0  0  0  0  0  0  0  0  0  0  0  0
   26.7375  -20.3997  -10.4927 C   0  0  0  0  0  0  0  0  0  0  0  0
   26.2420  -19.3216  -10.0163 O   0  0  0  0  0  0  0  0  0  0  0  0
   27.6201  -21.0845   -9.6117 N   0  0  0  0  0  0  0  0  0  0  0  0
   28.1092  -20.4776   -8.3865 C   0  0  1  0  0  0  0  0  0  0  0  0
   26.8660  -20.2836   -7.5058 C   0  0  0  0  0  0  0  0  0  0  0  0
   27.2425  -19.7596   -6.1775 C   0  0  0  0  0  0  0  0  0  0  0  0
   27.3779  -18.4012   -5.9478 C   0  0  0  0  0  0  0  0  0  0  0  0
   27.7314  -17.9112   -4.7021 C   0  0  0  0  0  0  0  0  0  0  0  0
   27.9418  -18.8328   -3.7043 C   0  0  0  0  0  0  0  0  0  0  0  0
   27.8079  -20.2011   -3.9263 C   0  0  0  0  0  0  0  0  0  0  0  0
   27.4555  -20.6779   -5.1705 C   0  0  0  0  0  0  0  0  0  0  0  0
   29.1250  -21.2816   -7.7180 C   0  0  0  0  0  0  0  0  0  0  0  0
   30.1033  -20.6986   -6.9385 O   0  0  0  0  0  0  0  0  0  0  0  0
   29.1213  -22.5261   -7.8449 O   0  0  0  0  0  0  0  0  0  0  0  0
  2 12  2  0
  2  1  1  0
  3  2  1  0
  4  5  1  0
  4  3  2  0
  5 11  2  0
  6  5  1  0
  7  6  1  0
  7  8  1  1
  9  7  1  0
 10  9  2  0
 11 12  1  0
 14 13  1  6
 14 16  1  0
 15 14  1  0
 16 18  1  0
 16 17  1  6
 17  9  1  0
 18 20  1  0
 19 18  2  0
 20 21  1  0
 21 29  1  0
 21 22  1  1
 23 22  1  0
 24 23  2  0
 25 24  1  0
 26 25  2  0
 26 27  1  0
 27 28  2  0
 28 23  1  0
 29 31  2  0
 29 30  1  0
M  END
$$$$
