YVF.pdb
     RDKit          3D

 31 32  0  0  1  0  0  0  0  0999 V2000
   18.9875  -17.0292  -15.6428 O   0  0  0  0  0  0  0  0  0  0  0  0
   20.0086  -17.7521  -14.9962 C   0  0  0  0  0  0  0  0  0  0  0  0
   19.8898  -19.1149  -14.8039 C   0  0  0  0  0  0  0  0  0  0  0  0
   20.9060  -19.8223  -14.1625 C   0  0  0  0  0  0  0  0  0  0  0  0
   22.0342  -19.1823  -13.7140 C   0  0  0  0  0  0  0  0  0  0  0  0
   23.1282  -19.9069  -13.0297 C   0  0  0  0  0  0  0  0  0  0  0  0
   24.4384  -19.8130  -13.7786 C   0  0  2  0  0  0  0  0  0  0  0  0
   24.2285  -20.3017  -15.1376 N   0  0  0  0  0  0  0  0  0  0  0  0
   25.4265  -20.6599  -13.0638 C   0  0  0  0  0  0  0  0  0  0  0  0
   25.2892  -21.9051  -13.1519 O   0  0  0  0  0  0  0  0  0  0  0  0
   22.1420  -17.8241  -13.9110 C   0  0  0  0  0  0  0  0  0  0  0  0
   21.1345  -17.1019  -14.5508 C   0  0  0  0  0  0  0  0  0  0  0  0
   29.0924  -20.7915  -13.4788 C   0  0  0  0  0  0  0  0  0  0  0  0
   28.8802  -20.6105  -12.0055 C   0  0  2  0  0  0  0  0  0  0  0  0
   29.8595  -21.4910  -11.2592 C   0  0  0  0  0  0  0  0  0  0  0  0
   27.4469  -20.9186  -11.5836 C   0  0  2  0  0  0  0  0  0  0  0  0
   26.4969  -20.1192  -12.3010 N   0  0  0  0  0  0  0  0  0  0  0  0
   27.2754  -20.8998  -10.1315 C   0  0  0  0  0  0  0  0  0  0  0  0
   28.2293  -20.6629   -9.3138 O   0  0  0  0  0  0  0  0  0  0  0  0
   26.0168  -21.1470   -9.5161 N   0  0  0  0  0  0  0  0  0  0  0  0
   25.8407  -21.0952   -8.0756 C   0  0  1  0  0  0  0  0  0  0  0  0
   26.2895  -19.6856   -7.6627 C   0  0  0  0  0  0  0  0  0  0  0  0
   27.3473  -19.7537   -6.6344 C   0  0  0  0  0  0  0  0  0  0  0  0
   28.4585  -18.9297   -6.6845 C   0  0  0  0  0  0  0  0  0  0  0  0
   29.4497  -18.9947   -5.7200 C   0  0  0  0  0  0  0  0  0  0  0  0
   29.2815  -19.9132   -4.7114 C   0  0  0  0  0  0  0  0  0  0  0  0
   28.1669  -20.7460   -4.6531 C   0  0  0  0  0  0  0  0  0  0  0  0
   27.1861  -20.6728   -5.6186 C   0  0  0  0  0  0  0  0  0  0  0  0
   24.4712  -21.3702   -7.6583 C   0  0  0  0  0  0  0  0  0  0  0  0
   24.1837  -21.8034   -6.3799 O   0  0  0  0  0  0  0  0  0  0  0  0
   23.5281  -21.2144   -8.4654 O   0  0  0  0  0  0  0  0  0  0  0  0
  2 12  2  0
  2  1  1  0
  3  2  1  0
  4  5  1  0
  4  3  2  0
  5 11  2  0
  6  5  1  0
  7  6  1  0
  7  8  1  6
  9  7  1  0
 10  9  2  0
 11 12  1  0
 14 13  1  6
 14 16  1  0
 15 14  1  0
 16 18  1  0
 16 17  1  6
 17  9  1  0
 18 20  1  0
 19 18  2  0
 20 21  1  0
 21 29  1  0
 21 22  1  6
 23 22  1  0
 24 23  2  0
 25 24  1  0
 26 25  2  0
 26 27  1  0
 27 28  2  0
 28 23  1  0
 29 31  2  0
 29 30  1  0
M  END
$$$$
