FKQ.pdb
     RDKit          3D

 30 30  0  0  1  0  0  0  0  0999 V2000
   26.9494  -18.2920   -7.9773 N   0  0  0  0  0  0  0  0  0  0  0  0
   27.1159  -19.6376   -8.4839 C   0  0  1  0  0  0  0  0  0  0  0  0
   26.6281  -20.5907   -7.4201 C   0  0  0  0  0  0  0  0  0  0  0  0
   27.5124  -20.5554   -6.2496 C   0  0  0  0  0  0  0  0  0  0  0  0
   26.9814  -20.1493   -5.0352 C   0  0  0  0  0  0  0  0  0  0  0  0
   27.7591  -20.0912   -3.8868 C   0  0  0  0  0  0  0  0  0  0  0  0
   29.0743  -20.4354   -3.9282 C   0  0  0  0  0  0  0  0  0  0  0  0
   29.6319  -20.8474   -5.1390 C   0  0  0  0  0  0  0  0  0  0  0  0
   28.8427  -20.8976   -6.2649 C   0  0  0  0  0  0  0  0  0  0  0  0
   26.3746  -19.7640   -9.7472 C   0  0  0  0  0  0  0  0  0  0  0  0
   25.1768  -19.3937   -9.7893 O   0  0  0  0  0  0  0  0  0  0  0  0
   26.9464  -20.2888  -10.9373 N   0  0  0  0  0  0  0  0  0  0  0  0
   26.4114  -20.1744  -12.2561 C   0  0  1  0  0  0  0  0  0  0  0  0
   27.4599  -20.3787  -13.3334 C   0  0  0  0  0  0  0  0  0  0  0  0
   27.5066  -19.2089  -14.2791 C   0  0  0  0  0  0  0  0  0  0  0  0
   28.5368  -19.3267  -15.3528 C   0  0  0  0  0  0  0  0  0  0  0  0
   28.5476  -18.1133  -16.2580 C   0  0  0  0  0  0  0  0  0  0  0  0
   29.5458  -18.3612  -17.2875 N   0  0  0  0  0  0  0  0  0  0  0  0
   25.2776  -21.1193  -12.4093 C   0  0  0  0  0  0  0  0  0  0  0  0
   25.3898  -22.3073  -11.9754 O   0  0  0  0  0  0  0  0  0  0  0  0
   19.1064  -20.6586  -10.4848 N   0  0  0  0  0  0  0  0  0  0  0  0
   19.9344  -20.2462  -11.5612 C   0  0  0  0  0  0  0  0  0  0  0  0
   19.5503  -19.4356  -12.4297 O   0  0  0  0  0  0  0  0  0  0  0  0
   21.3141  -20.8434  -11.6011 C   0  0  0  0  0  0  0  0  0  0  0  0
   21.6718  -21.0662  -13.0453 C   0  0  0  0  0  0  0  0  0  0  0  0
   22.9886  -21.7757  -13.1514 C   0  0  2  0  0  0  0  0  0  0  0  0
   24.0612  -20.7747  -13.0178 N   0  0  0  0  0  0  0  0  0  0  0  0
   23.1195  -22.4233  -14.4618 C   0  0  0  0  0  0  0  0  0  0  0  0
   22.3673  -23.5892  -14.7073 O   0  0  0  0  0  0  0  0  0  0  0  0
   23.8367  -22.0513  -15.4039 O   0  0  0  0  0  0  0  0  0  0  0  0
  2  1  1  1
  2 10  1  0
  2  3  1  0
  3  4  1  0
  4  5  2  0
  4  9  1  0
  5  6  1  0
  6  7  2  0
  8  7  1  0
  9  8  2  0
 10 11  2  0
 12 13  1  0
 12 10  1  0
 13 14  1  6
 14 15  1  0
 16 17  1  0
 16 15  1  0
 18 17  1  0
 19 20  2  0
 19 13  1  0
 21 22  1  0
 22 24  1  0
 23 22  2  0
 24 25  1  0
 26 25  1  6
 26 28  1  0
 26 27  1  0
 27 19  1  0
 28 29  1  0
 30 28  2  0
M  END
$$$$
