FKQ.pdb
     RDKit          3D

 30 30  0  0  1  0  0  0  0  0999 V2000
   27.1314  -23.7546  -17.5906 N   0  0  0  0  0  0  0  0  0  0  0  0
   27.3538  -25.1292  -17.1959 C   0  0  1  0  0  0  0  0  0  0  0  0
   26.0445  -25.8653  -17.3439 C   0  0  0  0  0  0  0  0  0  0  0  0
   25.0549  -25.3574  -16.3866 C   0  0  0  0  0  0  0  0  0  0  0  0
   24.0258  -24.5606  -16.8638 C   0  0  0  0  0  0  0  0  0  0  0  0
   23.0551  -24.0450  -16.0160 C   0  0  0  0  0  0  0  0  0  0  0  0
   23.0925  -24.3134  -14.6832 C   0  0  0  0  0  0  0  0  0  0  0  0
   24.1186  -25.1132  -14.1789 C   0  0  0  0  0  0  0  0  0  0  0  0
   25.0703  -25.6136  -15.0372 C   0  0  0  0  0  0  0  0  0  0  0  0
   28.4243  -25.6950  -18.0299 C   0  0  0  0  0  0  0  0  0  0  0  0
   28.5039  -25.3508  -19.2335 O   0  0  0  0  0  0  0  0  0  0  0  0
   29.3851  -26.6212  -17.5423 N   0  0  0  0  0  0  0  0  0  0  0  0
   30.5138  -27.1257  -18.2564 C   0  0  1  0  0  0  0  0  0  0  0  0
   31.8037  -26.4161  -17.8902 C   0  0  0  0  0  0  0  0  0  0  0  0
   32.9661  -26.9531  -18.6810 C   0  0  0  0  0  0  0  0  0  0  0  0
   34.2469  -26.2163  -18.4693 C   0  0  0  0  0  0  0  0  0  0  0  0
   35.3370  -26.7035  -19.4000 C   0  0  0  0  0  0  0  0  0  0  0  0
   36.5255  -25.9153  -19.1103 N   0  0  0  0  0  0  0  0  0  0  0  0
   30.6149  -28.5906  -18.0426 C   0  0  0  0  0  0  0  0  0  0  0  0
   30.5839  -29.0543  -16.8611 O   0  0  0  0  0  0  0  0  0  0  0  0
   28.7712  -35.1460  -20.3144 N   0  0  0  0  0  0  0  0  0  0  0  0
   28.9051  -33.7337  -20.3585 C   0  0  0  0  0  0  0  0  0  0  0  0
   28.4083  -33.0417  -21.2714 O   0  0  0  0  0  0  0  0  0  0  0  0
   29.6853  -33.1076  -19.2356 C   0  0  0  0  0  0  0  0  0  0  0  0
   29.6086  -31.6148  -19.4053 C   0  0  0  0  0  0  0  0  0  0  0  0
   30.8126  -30.9597  -18.7973 C   0  0  2  0  0  0  0  0  0  0  0  0
   30.7460  -29.5169  -19.0882 N   0  0  0  0  0  0  0  0  0  0  0  0
   32.0437  -31.4955  -19.3897 C   0  0  0  0  0  0  0  0  0  0  0  0
   32.7384  -32.5008  -18.6881 O   0  0  0  0  0  0  0  0  0  0  0  0
   32.5568  -31.1551  -20.4673 O   0  0  0  0  0  0  0  0  0  0  0  0
  2  1  1  6
  2 10  1  0
  2  3  1  0
  3  4  1  0
  4  5  2  0
  4  9  1  0
  5  6  1  0
  6  7  2  0
  8  7  1  0
  9  8  2  0
 10 11  2  0
 12 13  1  0
 12 10  1  0
 13 14  1  1
 14 15  1  0
 16 17  1  0
 16 15  1  0
 18 17  1  0
 19 20  2  0
 19 13  1  0
 21 22  1  0
 22 24  1  0
 23 22  2  0
 24 25  1  0
 26 25  1  6
 26 28  1  0
 26 27  1  0
 27 19  1  0
 28 29  1  0
 30 28  2  0
M  END
$$$$
