FKQ.pdb
     RDKit          3D

 30 30  0  0  1  0  0  0  0  0999 V2000
   28.1728  -21.2569   -9.2603 N   0  0  0  0  0  0  0  0  0  0  0  0
   26.9149  -20.5898   -9.0005 C   0  0  1  0  0  0  0  0  0  0  0  0
   27.2144  -19.3413   -8.2071 C   0  0  0  0  0  0  0  0  0  0  0  0
   27.8192  -19.6830   -6.9145 C   0  0  0  0  0  0  0  0  0  0  0  0
   28.9613  -19.0025   -6.5216 C   0  0  0  0  0  0  0  0  0  0  0  0
   29.5871  -19.2737   -5.3126 C   0  0  0  0  0  0  0  0  0  0  0  0
   29.0879  -20.2239   -4.4772 C   0  0  0  0  0  0  0  0  0  0  0  0
   27.9393  -20.9224   -4.8506 C   0  0  0  0  0  0  0  0  0  0  0  0
   27.3352  -20.6374   -6.0534 C   0  0  0  0  0  0  0  0  0  0  0  0
   26.2544  -20.3065  -10.2831 C   0  0  0  0  0  0  0  0  0  0  0  0
   26.5021  -19.2254  -10.8692 O   0  0  0  0  0  0  0  0  0  0  0  0
   25.3400  -21.1999  -10.9031 N   0  0  0  0  0  0  0  0  0  0  0  0
   24.7721  -21.0619  -12.2058 C   0  0  1  0  0  0  0  0  0  0  0  0
   25.1633  -22.1930  -13.1382 C   0  0  0  0  0  0  0  0  0  0  0  0
   26.3081  -21.7944  -14.0302 C   0  0  0  0  0  0  0  0  0  0  0  0
   26.7564  -22.8637  -14.9703 C   0  0  0  0  0  0  0  0  0  0  0  0
   27.9542  -22.4285  -15.7876 C   0  0  0  0  0  0  0  0  0  0  0  0
   28.3943  -23.5898  -16.5462 N   0  0  0  0  0  0  0  0  0  0  0  0
   23.2985  -20.9345  -12.0876 C   0  0  0  0  0  0  0  0  0  0  0  0
   22.6858  -21.5739  -11.1777 O   0  0  0  0  0  0  0  0  0  0  0  0
   19.9869  -16.8756  -12.1362 N   0  0  0  0  0  0  0  0  0  0  0  0
   18.8337  -17.6194  -12.4982 C   0  0  0  0  0  0  0  0  0  0  0  0
   17.6933  -17.3352  -12.0765 O   0  0  0  0  0  0  0  0  0  0  0  0
   19.0598  -18.7808  -13.4266 C   0  0  0  0  0  0  0  0  0  0  0  0
   20.5451  -18.9344  -13.6097 C   0  0  0  0  0  0  0  0  0  0  0  0
   21.0630  -20.0470  -12.7482 C   0  0  2  0  0  0  0  0  0  0  0  0
   22.5214  -20.1336  -12.9381 N   0  0  0  0  0  0  0  0  0  0  0  0
   20.4668  -21.3270  -13.1478 C   0  0  0  0  0  0  0  0  0  0  0  0
   19.3446  -21.7916  -12.4335 O   0  0  0  0  0  0  0  0  0  0  0  0
   20.8486  -22.0672  -14.0681 O   0  0  0  0  0  0  0  0  0  0  0  0
  2  1  1  6
  2 10  1  0
  2  3  1  0
  3  4  1  0
  4  5  2  0
  4  9  1  0
  5  6  1  0
  6  7  2  0
  8  7  1  0
  9  8  2  0
 10 11  2  0
 12 13  1  0
 12 10  1  0
 13 14  1  6
 14 15  1  0
 16 17  1  0
 16 15  1  0
 18 17  1  0
 19 20  2  0
 19 13  1  0
 21 22  1  0
 22 24  1  0
 23 22  2  0
 24 25  1  0
 26 25  1  6
 26 28  1  0
 26 27  1  0
 27 19  1  0
 28 29  1  0
 30 28  2  0
M  END
$$$$
