FKQ.pdb
     RDKit          3D

 30 30  0  0  1  0  0  0  0  0999 V2000
   25.7419  -10.9792  -18.2160 N   0  0  0  0  0  0  0  0  0  0  0  0
   25.2646  -10.8736  -16.8537 C   0  0  1  0  0  0  0  0  0  0  0  0
   26.2992  -10.1091  -16.0643 C   0  0  0  0  0  0  0  0  0  0  0  0
   27.5696  -10.8430  -16.0304 C   0  0  0  0  0  0  0  0  0  0  0  0
   27.6117  -12.0556  -15.3599 C   0  0  0  0  0  0  0  0  0  0  0  0
   28.7789  -12.8034  -15.2866 C   0  0  0  0  0  0  0  0  0  0  0  0
   29.9199  -12.3579  -15.8777 C   0  0  0  0  0  0  0  0  0  0  0  0
   29.9026  -11.1401  -16.5585 C   0  0  0  0  0  0  0  0  0  0  0  0
   28.7348  -10.4153  -16.6187 C   0  0  0  0  0  0  0  0  0  0  0  0
   23.9504  -10.2144  -16.8612 C   0  0  0  0  0  0  0  0  0  0  0  0
   23.6998   -9.3672  -17.7518 O   0  0  0  0  0  0  0  0  0  0  0  0
   22.9362  -10.4869  -15.9041 N   0  0  0  0  0  0  0  0  0  0  0  0
   21.6006   -9.9826  -15.9183 C   0  0  1  0  0  0  0  0  0  0  0  0
   20.6835  -10.7262  -14.9656 C   0  0  0  0  0  0  0  0  0  0  0  0
   19.2958  -10.1437  -14.9769 C   0  0  0  0  0  0  0  0  0  0  0  0
   18.2838  -10.9796  -15.6878 C   0  0  0  0  0  0  0  0  0  0  0  0
   16.9198  -10.3228  -15.6999 C   0  0  0  0  0  0  0  0  0  0  0  0
   15.9747  -11.3172  -16.1852 N   0  0  0  0  0  0  0  0  0  0  0  0
   21.6229   -8.5267  -15.6326 C   0  0  0  0  0  0  0  0  0  0  0  0
   22.2746   -8.0950  -14.6321 O   0  0  0  0  0  0  0  0  0  0  0  0
   20.3282   -1.7393  -18.1996 N   0  0  0  0  0  0  0  0  0  0  0  0
   20.4049   -3.1535  -18.2918 C   0  0  0  0  0  0  0  0  0  0  0  0
   20.1954   -3.7679  -19.3584 O   0  0  0  0  0  0  0  0  0  0  0  0
   20.7557   -3.8812  -17.0233 C   0  0  0  0  0  0  0  0  0  0  0  0
   20.7098   -5.3560  -17.3172 C   0  0  0  0  0  0  0  0  0  0  0  0
   21.0477   -6.1424  -16.0860 C   0  0  2  0  0  0  0  0  0  0  0  0
   20.9531   -7.5750  -16.4163 N   0  0  0  0  0  0  0  0  0  0  0  0
   20.0922   -5.8505  -15.0111 C   0  0  0  0  0  0  0  0  0  0  0  0
   18.8880   -6.5812  -14.9729 O   0  0  0  0  0  0  0  0  0  0  0  0
   20.2273   -5.0106  -14.1073 O   0  0  0  0  0  0  0  0  0  0  0  0
  2  1  1  6
  2 10  1  0
  2  3  1  0
  3  4  1  0
  4  5  2  0
  4  9  1  0
  5  6  1  0
  6  7  2  0
  8  7  1  0
  9  8  2  0
 10 11  2  0
 12 13  1  0
 12 10  1  0
 13 14  1  1
 14 15  1  0
 16 17  1  0
 16 15  1  0
 18 17  1  0
 19 20  2  0
 19 13  1  0
 21 22  1  0
 22 24  1  0
 23 22  2  0
 24 25  1  0
 26 25  1  6
 26 28  1  0
 26 27  1  0
 27 19  1  0
 28 29  1  0
 30 28  2  0
M  END
$$$$
