FKQ.pdb
     RDKit          3D

 30 30  0  0  1  0  0  0  0  0999 V2000
   26.3600  -18.4894   -7.6528 N   0  0  0  0  0  0  0  0  0  0  0  0
   26.9578  -19.6525   -8.2729 C   0  0  1  0  0  0  0  0  0  0  0  0
   26.8301  -20.8036   -7.3052 C   0  0  0  0  0  0  0  0  0  0  0  0
   27.6610  -20.5749   -6.1174 C   0  0  0  0  0  0  0  0  0  0  0  0
   28.9566  -20.1164   -6.2986 C   0  0  0  0  0  0  0  0  0  0  0  0
   29.7990  -19.8787   -5.2212 C   0  0  0  0  0  0  0  0  0  0  0  0
   29.3669  -20.0929   -3.9494 C   0  0  0  0  0  0  0  0  0  0  0  0
   28.0667  -20.5543   -3.7414 C   0  0  0  0  0  0  0  0  0  0  0  0
   27.2488  -20.7832   -4.8238 C   0  0  0  0  0  0  0  0  0  0  0  0
   26.2831  -19.9064   -9.5543 C   0  0  0  0  0  0  0  0  0  0  0  0
   25.0426  -19.7373   -9.6327 O   0  0  0  0  0  0  0  0  0  0  0  0
   26.9664  -20.3379  -10.7230 N   0  0  0  0  0  0  0  0  0  0  0  0
   26.5881  -20.0694  -12.0732 C   0  0  1  0  0  0  0  0  0  0  0  0
   27.7552  -20.1623  -13.0381 C   0  0  0  0  0  0  0  0  0  0  0  0
   27.3162  -19.8990  -14.4534 C   0  0  0  0  0  0  0  0  0  0  0  0
   28.4135  -19.9771  -15.4623 C   0  0  0  0  0  0  0  0  0  0  0  0
   27.9420  -19.5623  -16.8398 C   0  0  0  0  0  0  0  0  0  0  0  0
   29.0837  -19.6856  -17.7337 N   0  0  0  0  0  0  0  0  0  0  0  0
   25.4818  -20.9784  -12.4628 C   0  0  0  0  0  0  0  0  0  0  0  0
   25.5496  -22.2106  -12.1645 O   0  0  0  0  0  0  0  0  0  0  0  0
   20.0226  -20.1266  -11.1845 N   0  0  0  0  0  0  0  0  0  0  0  0
   19.7211  -21.2879  -11.9425 C   0  0  0  0  0  0  0  0  0  0  0  0
   18.5860  -21.8080  -11.9489 O   0  0  0  0  0  0  0  0  0  0  0  0
   20.8532  -21.8657  -12.7465 C   0  0  0  0  0  0  0  0  0  0  0  0
   22.0621  -21.0001  -12.5174 C   0  0  0  0  0  0  0  0  0  0  0  0
   23.2081  -21.4734  -13.3607 C   0  0  2  0  0  0  0  0  0  0  0  0
   24.3393  -20.5519  -13.1566 N   0  0  0  0  0  0  0  0  0  0  0  0
   22.8436  -21.4524  -14.7821 C   0  0  0  0  0  0  0  0  0  0  0  0
   22.1056  -22.5365  -15.2972 O   0  0  0  0  0  0  0  0  0  0  0  0
   23.1188  -20.5645  -15.6046 O   0  0  0  0  0  0  0  0  0  0  0  0
  2  1  1  1
  2 10  1  0
  2  3  1  0
  3  4  1  0
  4  5  2  0
  4  9  1  0
  5  6  1  0
  6  7  2  0
  8  7  1  0
  9  8  2  0
 10 11  2  0
 12 13  1  0
 12 10  1  0
 13 14  1  6
 14 15  1  0
 16 17  1  0
 16 15  1  0
 18 17  1  0
 19 20  2  0
 19 13  1  0
 21 22  1  0
 22 24  1  0
 23 22  2  0
 24 25  1  0
 26 25  1  1
 26 28  1  0
 26 27  1  0
 27 19  1  0
 28 29  1  0
 30 28  2  0
M  END
$$$$
