FKQ.pdb
     RDKit          3D

 30 30  0  0  1  0  0  0  0  0999 V2000
   25.7001  -10.5631  -18.4289 N   0  0  0  0  0  0  0  0  0  0  0  0
   25.1205  -10.5720  -17.1028 C   0  0  1  0  0  0  0  0  0  0  0  0
   25.9607   -9.6720  -16.2300 C   0  0  0  0  0  0  0  0  0  0  0  0
   27.3105  -10.2241  -16.0664 C   0  0  0  0  0  0  0  0  0  0  0  0
   27.4748  -11.3295  -15.2461 C   0  0  0  0  0  0  0  0  0  0  0  0
   28.7222  -11.9040  -15.0446 C   0  0  0  0  0  0  0  0  0  0  0  0
   29.8236  -11.3892  -15.6545 C   0  0  0  0  0  0  0  0  0  0  0  0
   29.6838  -10.2767  -16.4849 C   0  0  0  0  0  0  0  0  0  0  0  0
   28.4379   -9.7233  -16.6705 C   0  0  0  0  0  0  0  0  0  0  0  0
   23.7201  -10.1334  -17.1942 C   0  0  0  0  0  0  0  0  0  0  0  0
   23.4180   -9.2286  -18.0088 O   0  0  0  0  0  0  0  0  0  0  0  0
   22.6775  -10.6841  -16.4014 N   0  0  0  0  0  0  0  0  0  0  0  0
   21.2906  -10.3538  -16.4777 C   0  0  1  0  0  0  0  0  0  0  0  0
   20.4027  -11.4009  -15.8321 C   0  0  0  0  0  0  0  0  0  0  0  0
   18.9466  -11.0529  -15.9865 C   0  0  0  0  0  0  0  0  0  0  0  0
   18.0135  -11.9898  -15.2940 C   0  0  0  0  0  0  0  0  0  0  0  0
   16.5693  -11.5630  -15.4496 C   0  0  0  0  0  0  0  0  0  0  0  0
   15.7800  -12.4082  -14.5661 N   0  0  0  0  0  0  0  0  0  0  0  0
   21.0728   -9.0107  -15.8857 C   0  0  0  0  0  0  0  0  0  0  0  0
   21.6083   -8.7237  -14.7708 O   0  0  0  0  0  0  0  0  0  0  0  0
   20.8731   -3.7398  -18.5123 N   0  0  0  0  0  0  0  0  0  0  0  0
   20.5049   -3.2455  -17.2339 C   0  0  0  0  0  0  0  0  0  0  0  0
   20.4486   -2.0246  -16.9782 O   0  0  0  0  0  0  0  0  0  0  0  0
   20.1826   -4.2808  -16.1918 C   0  0  0  0  0  0  0  0  0  0  0  0
   20.3051   -5.6327  -16.8404 C   0  0  0  0  0  0  0  0  0  0  0  0
   20.0945   -6.7171  -15.8264 C   0  0  2  0  0  0  0  0  0  0  0  0
   20.2940   -8.0150  -16.4944 N   0  0  0  0  0  0  0  0  0  0  0  0
   18.7248   -6.6715  -15.3017 C   0  0  0  0  0  0  0  0  0  0  0  0
   18.4760   -5.8922  -14.1545 O   0  0  0  0  0  0  0  0  0  0  0  0
   17.7336   -7.2569  -15.7657 O   0  0  0  0  0  0  0  0  0  0  0  0
  2  1  1  6
  2 10  1  0
  2  3  1  0
  3  4  1  0
  4  5  2  0
  4  9  1  0
  5  6  1  0
  6  7  2  0
  8  7  1  0
  9  8  2  0
 10 11  2  0
 12 13  1  0
 12 10  1  0
 13 14  1  1
 14 15  1  0
 16 17  1  0
 16 15  1  0
 18 17  1  0
 19 20  2  0
 19 13  1  0
 21 22  1  0
 22 24  1  0
 23 22  2  0
 24 25  1  0
 26 25  1  6
 26 28  1  0
 26 27  1  0
 27 19  1  0
 28 29  1  0
 30 28  2  0
M  END
$$$$
