FKQ.pdb
     RDKit          3D

 30 30  0  0  1  0  0  0  0  0999 V2000
   25.8314  -18.7813   -8.1708 N   0  0  0  0  0  0  0  0  0  0  0  0
   26.7926  -19.7111   -8.7242 C   0  0  1  0  0  0  0  0  0  0  0  0
   26.8321  -20.9200   -7.8214 C   0  0  0  0  0  0  0  0  0  0  0  0
   27.4716  -20.5895   -6.5427 C   0  0  0  0  0  0  0  0  0  0  0  0
   26.6907  -20.5869   -5.3973 C   0  0  0  0  0  0  0  0  0  0  0  0
   27.2281  -20.2832   -4.1539 C   0  0  0  0  0  0  0  0  0  0  0  0
   28.5478  -19.9781   -4.0306 C   0  0  0  0  0  0  0  0  0  0  0  0
   29.3544  -19.9741   -5.1691 C   0  0  0  0  0  0  0  0  0  0  0  0
   28.8008  -20.2780   -6.3914 C   0  0  0  0  0  0  0  0  0  0  0  0
   26.3963  -20.0397  -10.1014 C   0  0  0  0  0  0  0  0  0  0  0  0
   25.1763  -20.1376  -10.3763 O   0  0  0  0  0  0  0  0  0  0  0  0
   27.3296  -20.2551  -11.1508 N   0  0  0  0  0  0  0  0  0  0  0  0
   27.0446  -20.2619  -12.5498 C   0  0  1  0  0  0  0  0  0  0  0  0
   28.2892  -20.4324  -13.4003 C   0  0  0  0  0  0  0  0  0  0  0  0
   27.9483  -20.4711  -14.8657 C   0  0  0  0  0  0  0  0  0  0  0  0
   28.1276  -19.1692  -15.5735 C   0  0  0  0  0  0  0  0  0  0  0  0
   27.7231  -19.2598  -17.0296 C   0  0  0  0  0  0  0  0  0  0  0  0
   27.8939  -17.9322  -17.6004 N   0  0  0  0  0  0  0  0  0  0  0  0
   26.0353  -21.3103  -12.8397 C   0  0  0  0  0  0  0  0  0  0  0  0
   26.0765  -22.4108  -12.2078 O   0  0  0  0  0  0  0  0  0  0  0  0
   20.7413  -21.5177  -11.3637 N   0  0  0  0  0  0  0  0  0  0  0  0
   20.8760  -20.4780  -12.3203 C   0  0  0  0  0  0  0  0  0  0  0  0
   20.0686  -19.5286  -12.3964 O   0  0  0  0  0  0  0  0  0  0  0  0
   22.0553  -20.5810  -13.2479 C   0  0  0  0  0  0  0  0  0  0  0  0
   22.9079  -21.7266  -12.7745 C   0  0  0  0  0  0  0  0  0  0  0  0
   23.8943  -22.1139  -13.8353 C   0  0  2  0  0  0  0  0  0  0  0  0
   25.0149  -21.1586  -13.7907 N   0  0  0  0  0  0  0  0  0  0  0  0
   23.2756  -22.0410  -15.1641 C   0  0  0  0  0  0  0  0  0  0  0  0
   23.6080  -20.9529  -15.9954 O   0  0  0  0  0  0  0  0  0  0  0  0
   22.4710  -22.8501  -15.6524 O   0  0  0  0  0  0  0  0  0  0  0  0
  2  1  1  1
  2 10  1  0
  2  3  1  0
  3  4  1  0
  4  5  2  0
  4  9  1  0
  5  6  1  0
  6  7  2  0
  8  7  1  0
  9  8  2  0
 10 11  2  0
 12 13  1  0
 12 10  1  0
 13 14  1  6
 14 15  1  0
 16 17  1  0
 16 15  1  0
 18 17  1  0
 19 20  2  0
 19 13  1  0
 21 22  1  0
 22 24  1  0
 23 22  2  0
 24 25  1  0
 26 25  1  1
 26 28  1  0
 26 27  1  0
 27 19  1  0
 28 29  1  0
 30 28  2  0
M  END
$$$$
