FKQ.pdb
     RDKit          3D

 30 30  0  0  1  0  0  0  0  0999 V2000
   29.8386  -23.9171  -15.9298 N   0  0  0  0  0  0  0  0  0  0  0  0
   28.7957  -23.6717  -16.9029 C   0  0  1  0  0  0  0  0  0  0  0  0
   27.8284  -24.8285  -16.8385 C   0  0  0  0  0  0  0  0  0  0  0  0
   28.4475  -26.0500  -17.3660 C   0  0  0  0  0  0  0  0  0  0  0  0
   28.5952  -26.1733  -18.7388 C   0  0  0  0  0  0  0  0  0  0  0  0
   29.1714  -27.3007  -19.3078 C   0  0  0  0  0  0  0  0  0  0  0  0
   29.6087  -28.3211  -18.5219 C   0  0  0  0  0  0  0  0  0  0  0  0
   29.4710  -28.2204  -17.1371 C   0  0  0  0  0  0  0  0  0  0  0  0
   28.8970  -27.0938  -16.5946 C   0  0  0  0  0  0  0  0  0  0  0  0
   28.1613  -22.3797  -16.6030 C   0  0  0  0  0  0  0  0  0  0  0  0
   28.0274  -22.0313  -15.4054 O   0  0  0  0  0  0  0  0  0  0  0  0
   27.6858  -21.4933  -17.6063 N   0  0  0  0  0  0  0  0  0  0  0  0
   27.1006  -20.2085  -17.3934 C   0  0  1  0  0  0  0  0  0  0  0  0
   27.4119  -19.2305  -18.5107 C   0  0  0  0  0  0  0  0  0  0  0  0
   28.8660  -18.8424  -18.5075 C   0  0  0  0  0  0  0  0  0  0  0  0
   29.2511  -17.8916  -19.5918 C   0  0  0  0  0  0  0  0  0  0  0  0
   30.7220  -17.5375  -19.5336 C   0  0  0  0  0  0  0  0  0  0  0  0
   31.0035  -16.7040  -20.6928 N   0  0  0  0  0  0  0  0  0  0  0  0
   25.6385  -20.3626  -17.1921 C   0  0  0  0  0  0  0  0  0  0  0  0
   24.9887  -21.1755  -17.9195 O   0  0  0  0  0  0  0  0  0  0  0  0
   22.7060  -21.5221  -12.4325 N   0  0  0  0  0  0  0  0  0  0  0  0
   21.5231  -21.1425  -13.1188 C   0  0  0  0  0  0  0  0  0  0  0  0
   20.3836  -21.3282  -12.6433 O   0  0  0  0  0  0  0  0  0  0  0  0
   21.7164  -20.4977  -14.4636 C   0  0  0  0  0  0  0  0  0  0  0  0
   23.1969  -20.3765  -14.7016 C   0  0  0  0  0  0  0  0  0  0  0  0
   23.4609  -19.8603  -16.0845 C   0  0  2  0  0  0  0  0  0  0  0  0
   24.9121  -19.6497  -16.2264 N   0  0  0  0  0  0  0  0  0  0  0  0
   22.7834  -18.5751  -16.2917 C   0  0  0  0  0  0  0  0  0  0  0  0
   23.5768  -17.4230  -16.4605 O   0  0  0  0  0  0  0  0  0  0  0  0
   21.5582  -18.3820  -16.3363 O   0  0  0  0  0  0  0  0  0  0  0  0
  2  1  1  1
  2 10  1  0
  2  3  1  0
  3  4  1  0
  4  5  2  0
  4  9  1  0
  5  6  1  0
  6  7  2  0
  8  7  1  0
  9  8  2  0
 10 11  2  0
 12 13  1  0
 12 10  1  0
 13 14  1  6
 14 15  1  0
 16 17  1  0
 16 15  1  0
 18 17  1  0
 19 20  2  0
 19 13  1  0
 21 22  1  0
 22 24  1  0
 23 22  2  0
 24 25  1  0
 26 25  1  1
 26 28  1  0
 26 27  1  0
 27 19  1  0
 28 29  1  0
 30 28  2  0
M  END
$$$$
