FKQ.pdb
     RDKit          3D

 30 30  0  0  1  0  0  0  0  0999 V2000
   27.9328  -20.3827  -10.4011 N   0  0  0  0  0  0  0  0  0  0  0  0
   26.6657  -21.0138  -10.0995 C   0  0  1  0  0  0  0  0  0  0  0  0
   25.9722  -20.1722   -9.0560 C   0  0  0  0  0  0  0  0  0  0  0  0
   26.8077  -20.0440   -7.8565 C   0  0  0  0  0  0  0  0  0  0  0  0
   27.1579  -21.1974   -7.1717 C   0  0  0  0  0  0  0  0  0  0  0  0
   27.9451  -21.1517   -6.0293 C   0  0  0  0  0  0  0  0  0  0  0  0
   28.3953  -19.9607   -5.5510 C   0  0  0  0  0  0  0  0  0  0  0  0
   28.0562  -18.7858   -6.2229 C   0  0  0  0  0  0  0  0  0  0  0  0
   27.2749  -18.8544   -7.3533 C   0  0  0  0  0  0  0  0  0  0  0  0
   25.8893  -21.1369  -11.3420 C   0  0  0  0  0  0  0  0  0  0  0  0
   25.8482  -20.1638  -12.1325 O   0  0  0  0  0  0  0  0  0  0  0  0
   25.1745  -22.3110  -11.7013 N   0  0  0  0  0  0  0  0  0  0  0  0
   24.4837  -22.5396  -12.9298 C   0  0  1  0  0  0  0  0  0  0  0  0
   24.4019  -24.0108  -13.2909 C   0  0  0  0  0  0  0  0  0  0  0  0
   23.6695  -24.2145  -14.5898 C   0  0  0  0  0  0  0  0  0  0  0  0
   24.4704  -23.8853  -15.8057 C   0  0  0  0  0  0  0  0  0  0  0  0
   23.6738  -24.0903  -17.0767 C   0  0  0  0  0  0  0  0  0  0  0  0
   24.5148  -23.6498  -18.1796 N   0  0  0  0  0  0  0  0  0  0  0  0
   23.1384  -21.9173  -12.8593 C   0  0  0  0  0  0  0  0  0  0  0  0
   22.5325  -21.8609  -11.7450 O   0  0  0  0  0  0  0  0  0  0  0  0
   20.1920  -18.5781  -16.8644 N   0  0  0  0  0  0  0  0  0  0  0  0
   19.3514  -18.2690  -15.7635 C   0  0  0  0  0  0  0  0  0  0  0  0
   18.3140  -17.5845  -15.8838 O   0  0  0  0  0  0  0  0  0  0  0  0
   19.7803  -18.8153  -14.4295 C   0  0  0  0  0  0  0  0  0  0  0  0
   21.0971  -19.5156  -14.6268 C   0  0  0  0  0  0  0  0  0  0  0  0
   21.1385  -20.7813  -13.8240 C   0  0  2  0  0  0  0  0  0  0  0  0
   22.4785  -21.3753  -13.9725 N   0  0  0  0  0  0  0  0  0  0  0  0
   20.1479  -21.7409  -14.3256 C   0  0  0  0  0  0  0  0  0  0  0  0
   19.0084  -21.9963  -13.5371 O   0  0  0  0  0  0  0  0  0  0  0  0
   20.2007  -22.3703  -15.3940 O   0  0  0  0  0  0  0  0  0  0  0  0
  2  1  1  6
  2 10  1  0
  2  3  1  0
  3  4  1  0
  4  5  2  0
  4  9  1  0
  5  6  1  0
  6  7  2  0
  8  7  1  0
  9  8  2  0
 10 11  2  0
 12 13  1  0
 12 10  1  0
 13 14  1  1
 14 15  1  0
 16 17  1  0
 16 15  1  0
 18 17  1  0
 19 20  2  0
 19 13  1  0
 21 22  1  0
 22 24  1  0
 23 22  2  0
 24 25  1  0
 26 25  1  6
 26 28  1  0
 26 27  1  0
 27 19  1  0
 28 29  1  0
 30 28  2  0
M  END
$$$$
