FKQ.pdb
     RDKit          3D

 30 30  0  0  1  0  0  0  0  0999 V2000
   26.0085  -15.6499  -18.6677 N   0  0  0  0  0  0  0  0  0  0  0  0
   26.0736  -16.1869  -17.3253 C   0  0  1  0  0  0  0  0  0  0  0  0
   25.6681  -15.0885  -16.3729 C   0  0  0  0  0  0  0  0  0  0  0  0
   26.6902  -14.0362  -16.3322 C   0  0  0  0  0  0  0  0  0  0  0  0
   26.2793  -12.7154  -16.4235 C   0  0  0  0  0  0  0  0  0  0  0  0
   27.1905  -11.6687  -16.3924 C   0  0  0  0  0  0  0  0  0  0  0  0
   28.5219  -11.9188  -16.2703 C   0  0  0  0  0  0  0  0  0  0  0  0
   28.9601  -13.2401  -16.1766 C   0  0  0  0  0  0  0  0  0  0  0  0
   28.0395  -14.2621  -16.2095 C   0  0  0  0  0  0  0  0  0  0  0  0
   25.1989  -17.3657  -17.2429 C   0  0  0  0  0  0  0  0  0  0  0  0
   24.0867  -17.3396  -17.8225 O   0  0  0  0  0  0  0  0  0  0  0  0
   25.5476  -18.5471  -16.5347 N   0  0  0  0  0  0  0  0  0  0  0  0
   24.7533  -19.7273  -16.4128 C   0  0  1  0  0  0  0  0  0  0  0  0
   25.5903  -20.9838  -16.2639 C   0  0  0  0  0  0  0  0  0  0  0  0
   24.7247  -22.2142  -16.2168 C   0  0  0  0  0  0  0  0  0  0  0  0
   25.4800  -23.4917  -16.0562 C   0  0  0  0  0  0  0  0  0  0  0  0
   24.5609  -24.6946  -16.0717 C   0  0  0  0  0  0  0  0  0  0  0  0
   25.3954  -25.8684  -15.8635 N   0  0  0  0  0  0  0  0  0  0  0  0
   23.8035  -19.5650  -15.2844 C   0  0  0  0  0  0  0  0  0  0  0  0
   24.2507  -19.3472  -14.1162 O   0  0  0  0  0  0  0  0  0  0  0  0
   19.4884  -16.7442  -16.1996 N   0  0  0  0  0  0  0  0  0  0  0  0
   19.1965  -18.0508  -16.6706 C   0  0  0  0  0  0  0  0  0  0  0  0
   18.6227  -18.2578  -17.7601 O   0  0  0  0  0  0  0  0  0  0  0  0
   19.6192  -19.1856  -15.7787 C   0  0  0  0  0  0  0  0  0  0  0  0
   20.3927  -18.5977  -14.6301 C   0  0  0  0  0  0  0  0  0  0  0  0
   21.5323  -19.4975  -14.2557 C   0  0  2  0  0  0  0  0  0  0  0  0
   22.4101  -19.6392  -15.4304 N   0  0  0  0  0  0  0  0  0  0  0  0
   21.0364  -20.8278  -13.8844 C   0  0  0  0  0  0  0  0  0  0  0  0
   21.0706  -21.8473  -14.8565 O   0  0  0  0  0  0  0  0  0  0  0  0
   20.5778  -21.1667  -12.7820 O   0  0  0  0  0  0  0  0  0  0  0  0
  2  1  1  6
  2 10  1  0
  2  3  1  0
  3  4  1  0
  4  5  2  0
  4  9  1  0
  5  6  1  0
  6  7  2  0
  8  7  1  0
  9  8  2  0
 10 11  2  0
 12 13  1  0
 12 10  1  0
 13 14  1  1
 14 15  1  0
 16 17  1  0
 16 15  1  0
 18 17  1  0
 19 20  2  0
 19 13  1  0
 21 22  1  0
 22 24  1  0
 23 22  2  0
 24 25  1  0
 26 25  1  6
 26 28  1  0
 26 27  1  0
 27 19  1  0
 28 29  1  0
 30 28  2  0
M  END
$$$$
