GYF.pdb
     RDKit          3D

 28 29  0  0  1  0  0  0  0  0999 V2000
    9.3633  -19.4444   19.9829 N   0  0  0  0  0  0  0  0  0  0  0  0
    8.2896  -18.8877   20.7642 C   0  0  0  0  0  0  0  0  0  0  0  0
    8.8069  -17.6850   21.4684 C   0  0  0  0  0  0  0  0  0  0  0  0
   10.0552  -17.4740   21.6018 O   0  0  0  0  0  0  0  0  0  0  0  0
    8.0563  -12.9643   16.7991 O   0  0  0  0  0  0  0  0  0  0  0  0
    7.9634  -13.2921   18.1560 C   0  0  0  0  0  0  0  0  0  0  0  0
    9.0185  -13.0556   19.0102 C   0  0  0  0  0  0  0  0  0  0  0  0
    8.9316  -13.3809   20.3664 C   0  0  0  0  0  0  0  0  0  0  0  0
    7.7988  -13.9463   20.9033 C   0  0  0  0  0  0  0  0  0  0  0  0
    7.7123  -14.2815   22.3197 C   0  0  0  0  0  0  0  0  0  0  0  0
    8.4317  -15.5215   22.7502 C   0  0  2  0  0  0  0  0  0  0  0  0
    7.9506  -16.7012   22.0333 N   0  0  0  0  0  0  0  0  0  0  0  0
    8.4288  -15.7894   24.1940 C   0  0  0  0  0  0  0  0  0  0  0  0
    7.4943  -16.5043   24.6996 O   0  0  0  0  0  0  0  0  0  0  0  0
    6.7460  -14.1778   20.0298 C   0  0  0  0  0  0  0  0  0  0  0  0
    6.8267  -13.8586   18.6902 C   0  0  0  0  0  0  0  0  0  0  0  0
    9.3889  -15.3259   25.1290 N   0  0  0  0  0  0  0  0  0  0  0  0
    9.3577  -15.6780   26.5452 C   0  0  1  0  0  0  0  0  0  0  0  0
    7.9860  -15.5375   27.1185 C   0  0  0  0  0  0  0  0  0  0  0  0
    7.5065  -14.1482   27.0401 C   0  0  0  0  0  0  0  0  0  0  0  0
    6.2417  -13.9355   26.5212 C   0  0  0  0  0  0  0  0  0  0  0  0
    5.6766  -12.6923   26.4163 C   0  0  0  0  0  0  0  0  0  0  0  0
    6.3779  -11.5829   26.8397 C   0  0  0  0  0  0  0  0  0  0  0  0
    7.6461  -11.7546   27.3646 C   0  0  0  0  0  0  0  0  0  0  0  0
    8.1956  -13.0347   27.4588 C   0  0  0  0  0  0  0  0  0  0  0  0
    9.8937  -17.0096   26.8046 C   0  0  0  0  0  0  0  0  0  0  0  0
   10.0849  -17.5924   28.0412 O   0  0  0  0  0  0  0  0  0  0  0  0
   10.2322  -17.7357   25.8171 O   0  0  0  0  0  0  0  0  0  0  0  0
  2  1  1  0
  3  2  1  0
  4  3  2  0
  6  5  1  0
  6 16  2  0
  7  6  1  0
  8  7  2  0
  8  9  1  0
  9 15  2  0
 11 10  1  1
 10  9  1  0
 11 12  1  0
 12  3  1  0
 13 17  1  0
 13 11  1  0
 14 13  2  0
 15 16  1  0
 18 17  1  0
 18 19  1  6
 20 21  2  0
 20 19  1  0
 22 21  1  0
 23 22  2  0
 24 25  2  0
 24 23  1  0
 25 20  1  0
 26 18  1  0
 27 26  1  0
 28 26  2  0
M  END
$$$$
