GYF.pdb
     RDKit          3D

 28 29  0  0  1  0  0  0  0  0999 V2000
    6.7658  -13.7459   19.7506 N   0  0  0  0  0  0  0  0  0  0  0  0
    7.8895  -14.5588   20.1376 C   0  0  0  0  0  0  0  0  0  0  0  0
    7.5535  -15.2297   21.4209 C   0  0  0  0  0  0  0  0  0  0  0  0
    6.5155  -14.9154   22.0875 O   0  0  0  0  0  0  0  0  0  0  0  0
    7.1077  -21.7184   27.5519 O   0  0  0  0  0  0  0  0  0  0  0  0
    7.3771  -20.9172   26.4371 C   0  0  0  0  0  0  0  0  0  0  0  0
    8.6738  -20.5981   26.0976 C   0  0  0  0  0  0  0  0  0  0  0  0
    8.9491  -19.7983   24.9853 C   0  0  0  0  0  0  0  0  0  0  0  0
    7.9463  -19.2991   24.1876 C   0  0  0  0  0  0  0  0  0  0  0  0
    8.2390  -18.4670   23.0265 C   0  0  0  0  0  0  0  0  0  0  0  0
    8.0057  -16.9977   23.1912 C   0  0  2  0  0  0  0  0  0  0  0  0
    8.3607  -16.2559   21.9826 N   0  0  0  0  0  0  0  0  0  0  0  0
    8.6518  -16.3779   24.3551 C   0  0  0  0  0  0  0  0  0  0  0  0
    9.8536  -15.9473   24.2528 O   0  0  0  0  0  0  0  0  0  0  0  0
    6.6466  -19.6298   24.5433 C   0  0  0  0  0  0  0  0  0  0  0  0
    6.3695  -20.4189   25.6403 C   0  0  0  0  0  0  0  0  0  0  0  0
    8.0658  -16.1937   25.6332 N   0  0  0  0  0  0  0  0  0  0  0  0
    8.7718  -15.5793   26.7533 C   0  0  1  0  0  0  0  0  0  0  0  0
    7.8472  -14.7941   27.6243 C   0  0  0  0  0  0  0  0  0  0  0  0
    7.3003  -13.6249   26.9173 C   0  0  0  0  0  0  0  0  0  0  0  0
    7.9904  -12.4306   27.0253 C   0  0  0  0  0  0  0  0  0  0  0  0
    7.5942  -11.2795   26.3977 C   0  0  0  0  0  0  0  0  0  0  0  0
    6.4586  -11.2815   25.6153 C   0  0  0  0  0  0  0  0  0  0  0  0
    5.7411  -12.4567   25.4825 C   0  0  0  0  0  0  0  0  0  0  0  0
    6.1701  -13.6144   26.1346 C   0  0  0  0  0  0  0  0  0  0  0  0
    9.5273  -16.5478   27.5401 C   0  0  0  0  0  0  0  0  0  0  0  0
   10.5122  -16.2664   28.4652 O   0  0  0  0  0  0  0  0  0  0  0  0
    9.2834  -17.7860   27.3839 O   0  0  0  0  0  0  0  0  0  0  0  0
  2  1  1  0
  3  2  1  0
  4  3  2  0
  6  5  1  0
  6 16  2  0
  7  6  1  0
  8  7  2  0
  8  9  1  0
  9 15  2  0
 11 10  1  6
 10  9  1  0
 11 12  1  0
 12  3  1  0
 13 17  1  0
 13 11  1  0
 14 13  2  0
 15 16  1  0
 18 17  1  0
 18 19  1  1
 20 21  2  0
 20 19  1  0
 22 21  1  0
 23 22  2  0
 24 25  2  0
 24 23  1  0
 25 20  1  0
 26 18  1  0
 27 26  1  0
 28 26  2  0
M  END
$$$$
