GYF.pdb
     RDKit          3D

 28 29  0  0  1  0  0  0  0  0999 V2000
    6.4875  -19.3830   20.2833 N   0  0  0  0  0  0  0  0  0  0  0  0
    6.0722  -18.3682   21.2165 C   0  0  0  0  0  0  0  0  0  0  0  0
    7.1112  -17.3051   21.2348 C   0  0  0  0  0  0  0  0  0  0  0  0
    8.2301  -17.4542   20.6464 O   0  0  0  0  0  0  0  0  0  0  0  0
    7.8796  -13.3129   15.8681 O   0  0  0  0  0  0  0  0  0  0  0  0
    7.8106  -13.4230   17.2611 C   0  0  0  0  0  0  0  0  0  0  0  0
    8.9407  -13.2726   18.0350 C   0  0  0  0  0  0  0  0  0  0  0  0
    8.8780  -13.3815   19.4267 C   0  0  0  0  0  0  0  0  0  0  0  0
    7.6957  -13.6412   20.0792 C   0  0  0  0  0  0  0  0  0  0  0  0
    7.6352  -13.7514   21.5318 C   0  0  0  0  0  0  0  0  0  0  0  0
    7.9919  -15.0858   22.1085 C   0  0  2  0  0  0  0  0  0  0  0  0
    6.9258  -16.0648   21.9038 N   0  0  0  0  0  0  0  0  0  0  0  0
    8.3898  -15.0817   23.5220 C   0  0  0  0  0  0  0  0  0  0  0  0
    7.7755  -14.3182   24.3466 O   0  0  0  0  0  0  0  0  0  0  0  0
    6.5676  -13.7899   19.2853 C   0  0  0  0  0  0  0  0  0  0  0  0
    6.6240  -13.6834   17.9111 C   0  0  0  0  0  0  0  0  0  0  0  0
    9.4212  -15.8651   24.0993 N   0  0  0  0  0  0  0  0  0  0  0  0
    9.9928  -15.5879   25.4135 C   0  0  1  0  0  0  0  0  0  0  0  0
    8.9696  -15.7015   26.4951 C   0  0  0  0  0  0  0  0  0  0  0  0
    9.4960  -15.2375   27.7889 C   0  0  0  0  0  0  0  0  0  0  0  0
    9.9343  -16.1976   28.6834 C   0  0  0  0  0  0  0  0  0  0  0  0
   10.4638  -15.8907   29.9088 C   0  0  0  0  0  0  0  0  0  0  0  0
   10.5772  -14.5718   30.2954 C   0  0  0  0  0  0  0  0  0  0  0  0
   10.1498  -13.5825   29.4282 C   0  0  0  0  0  0  0  0  0  0  0  0
    9.6144  -13.9265   28.1855 C   0  0  0  0  0  0  0  0  0  0  0  0
   11.1531  -16.4214   25.7082 C   0  0  0  0  0  0  0  0  0  0  0  0
   11.2242  -17.7963   25.6093 O   0  0  0  0  0  0  0  0  0  0  0  0
   12.2249  -15.8609   26.1007 O   0  0  0  0  0  0  0  0  0  0  0  0
  2  1  1  0
  3  2  1  0
  4  3  2  0
  6  5  1  0
  6 16  2  0
  7  6  1  0
  8  7  2  0
  8  9  1  0
  9 15  2  0
 11 10  1  1
 10  9  1  0
 11 12  1  0
 12  3  1  0
 13 17  1  0
 13 11  1  0
 14 13  2  0
 15 16  1  0
 18 17  1  0
 18 19  1  1
 20 21  2  0
 20 19  1  0
 22 21  1  0
 23 22  2  0
 24 25  2  0
 24 23  1  0
 25 20  1  0
 26 18  1  0
 27 26  1  0
 28 26  2  0
M  END
$$$$
