GYF.pdb
     RDKit          3D

 28 29  0  0  1  0  0  0  0  0999 V2000
    2.7629  -17.9506   20.9360 N   0  0  0  0  0  0  0  0  0  0  0  0
    4.2010  -17.8787   20.9306 C   0  0  0  0  0  0  0  0  0  0  0  0
    4.6746  -18.0070   22.3339 C   0  0  0  0  0  0  0  0  0  0  0  0
    3.9130  -17.7535   23.3220 O   0  0  0  0  0  0  0  0  0  0  0  0
    8.8557  -20.8942   29.5947 O   0  0  0  0  0  0  0  0  0  0  0  0
    8.3774  -20.6649   28.3001 C   0  0  0  0  0  0  0  0  0  0  0  0
    7.0286  -20.5074   28.0667 C   0  0  0  0  0  0  0  0  0  0  0  0
    6.5449  -20.2781   26.7759 C   0  0  0  0  0  0  0  0  0  0  0  0
    7.3869  -20.2003   25.6913 C   0  0  0  0  0  0  0  0  0  0  0  0
    6.8773  -19.9584   24.3468 C   0  0  0  0  0  0  0  0  0  0  0  0
    6.4882  -18.5478   24.0317 C   0  0  2  0  0  0  0  0  0  0  0  0
    5.9954  -18.4169   22.6616 N   0  0  0  0  0  0  0  0  0  0  0  0
    7.5196  -17.5328   24.2815 C   0  0  0  0  0  0  0  0  0  0  0  0
    8.2890  -17.1685   23.3247 O   0  0  0  0  0  0  0  0  0  0  0  0
    8.7417  -20.3611   25.9437 C   0  0  0  0  0  0  0  0  0  0  0  0
    9.2243  -20.5877   27.2160 C   0  0  0  0  0  0  0  0  0  0  0  0
    7.7662  -16.8825   25.5172 N   0  0  0  0  0  0  0  0  0  0  0  0
    8.8936  -15.9808   25.7330 C   0  0  1  0  0  0  0  0  0  0  0  0
    8.5701  -14.9236   26.7368 C   0  0  0  0  0  0  0  0  0  0  0  0
    7.7267  -13.8663   26.1564 C   0  0  0  0  0  0  0  0  0  0  0  0
    6.4535  -13.7065   26.6737 C   0  0  0  0  0  0  0  0  0  0  0  0
    5.5830  -12.7454   26.2325 C   0  0  0  0  0  0  0  0  0  0  0  0
    5.9665  -11.8831   25.2270 C   0  0  0  0  0  0  0  0  0  0  0  0
    7.2323  -12.0111   24.6840 C   0  0  0  0  0  0  0  0  0  0  0  0
    8.0975  -13.0007   25.1547 C   0  0  0  0  0  0  0  0  0  0  0  0
   10.1155  -16.6877   26.1005 C   0  0  0  0  0  0  0  0  0  0  0  0
   11.3916  -16.1625   26.1312 O   0  0  0  0  0  0  0  0  0  0  0  0
   10.0375  -17.9135   26.4297 O   0  0  0  0  0  0  0  0  0  0  0  0
  2  1  1  0
  3  2  1  0
  4  3  2  0
  6  5  1  0
  6 16  2  0
  7  6  1  0
  8  7  2  0
  8  9  1  0
  9 15  2  0
 11 10  1  6
 10  9  1  0
 11 12  1  0
 12  3  1  0
 13 17  1  0
 13 11  1  0
 14 13  2  0
 15 16  1  0
 18 17  1  0
 18 19  1  1
 20 21  2  0
 20 19  1  0
 22 21  1  0
 23 22  2  0
 24 25  2  0
 24 23  1  0
 25 20  1  0
 26 18  1  0
 27 26  1  0
 28 26  2  0
M  END
$$$$
