GYF.pdb
     RDKit          3D

 28 29  0  0  1  0  0  0  0  0999 V2000
    8.3718  -12.8036   18.3404 N   0  0  0  0  0  0  0  0  0  0  0  0
    9.2794  -13.8320   18.7783 C   0  0  0  0  0  0  0  0  0  0  0  0
    8.6942  -14.4827   19.9800 C   0  0  0  0  0  0  0  0  0  0  0  0
    7.6778  -13.9983   20.5740 O   0  0  0  0  0  0  0  0  0  0  0  0
    6.2756  -19.1122   16.3242 O   0  0  0  0  0  0  0  0  0  0  0  0
    6.7961  -18.7932   17.5830 C   0  0  0  0  0  0  0  0  0  0  0  0
    8.1539  -18.6463   17.7655 C   0  0  0  0  0  0  0  0  0  0  0  0
    8.6797  -18.3278   19.0204 C   0  0  0  0  0  0  0  0  0  0  0  0
    7.8718  -18.1484   20.1187 C   0  0  0  0  0  0  0  0  0  0  0  0
    8.4252  -17.8137   21.4254 C   0  0  0  0  0  0  0  0  0  0  0  0
    8.6470  -16.3583   21.6958 C   0  0  2  0  0  0  0  0  0  0  0  0
    9.2255  -15.6764   20.5394 N   0  0  0  0  0  0  0  0  0  0  0  0
    9.4361  -16.0474   22.8945 C   0  0  0  0  0  0  0  0  0  0  0  0
   10.7148  -16.0852   22.8336 O   0  0  0  0  0  0  0  0  0  0  0  0
    6.5073  -18.3000   19.9177 C   0  0  0  0  0  0  0  0  0  0  0  0
    5.9832  -18.6144   18.6810 C   0  0  0  0  0  0  0  0  0  0  0  0
    8.9161  -15.6925   24.1652 N   0  0  0  0  0  0  0  0  0  0  0  0
    9.7609  -15.3820   25.3143 C   0  0  1  0  0  0  0  0  0  0  0  0
    9.7218  -13.9276   25.6507 C   0  0  0  0  0  0  0  0  0  0  0  0
    8.3453  -13.4638   25.8875 C   0  0  0  0  0  0  0  0  0  0  0  0
    7.5651  -13.1818   24.7802 C   0  0  0  0  0  0  0  0  0  0  0  0
    6.2639  -12.7637   24.8701 C   0  0  0  0  0  0  0  0  0  0  0  0
    5.6782  -12.6079   26.1089 C   0  0  0  0  0  0  0  0  0  0  0  0
    6.4260  -12.8802   27.2403 C   0  0  0  0  0  0  0  0  0  0  0  0
    7.7503  -13.3049   27.1167 C   0  0  0  0  0  0  0  0  0  0  0  0
    9.4391  -16.1930   26.4832 C   0  0  0  0  0  0  0  0  0  0  0  0
   10.1538  -16.2556   27.6625 O   0  0  0  0  0  0  0  0  0  0  0  0
    8.4046  -16.9316   26.4492 O   0  0  0  0  0  0  0  0  0  0  0  0
  2  1  1  0
  3  2  1  0
  4  3  2  0
  6  5  1  0
  6 16  2  0
  7  6  1  0
  8  7  2  0
  8  9  1  0
  9 15  2  0
 11 10  1  6
 10  9  1  0
 11 12  1  0
 12  3  1  0
 13 17  1  0
 13 11  1  0
 14 13  2  0
 15 16  1  0
 18 17  1  0
 18 19  1  1
 20 21  2  0
 20 19  1  0
 22 21  1  0
 23 22  2  0
 24 25  2  0
 24 23  1  0
 25 20  1  0
 26 18  1  0
 27 26  1  0
 28 26  2  0
M  END
$$$$
