GYF.pdb
     RDKit          3D

 28 29  0  0  1  0  0  0  0  0999 V2000
    7.8408  -19.3038   19.9603 N   0  0  0  0  0  0  0  0  0  0  0  0
    7.1731  -18.3947   20.8552 C   0  0  0  0  0  0  0  0  0  0  0  0
    8.1919  -17.4702   21.4186 C   0  0  0  0  0  0  0  0  0  0  0  0
    9.4387  -17.6756   21.2641 O   0  0  0  0  0  0  0  0  0  0  0  0
    7.6214  -12.9738   16.7141 O   0  0  0  0  0  0  0  0  0  0  0  0
    7.8293  -13.2067   18.0778 C   0  0  0  0  0  0  0  0  0  0  0  0
    6.8032  -13.6602   18.8780 C   0  0  0  0  0  0  0  0  0  0  0  0
    7.0048  -13.8946   20.2407 C   0  0  0  0  0  0  0  0  0  0  0  0
    8.2257  -13.6848   20.8377 C   0  0  0  0  0  0  0  0  0  0  0  0
    8.4315  -13.9333   22.2596 C   0  0  0  0  0  0  0  0  0  0  0  0
    8.8194  -15.3288   22.6370 C   0  0  2  0  0  0  0  0  0  0  0  0
    7.8448  -16.3080   22.1593 N   0  0  0  0  0  0  0  0  0  0  0  0
    9.0803  -15.5521   24.0648 C   0  0  0  0  0  0  0  0  0  0  0  0
   10.1065  -15.0128   24.6090 O   0  0  0  0  0  0  0  0  0  0  0  0
    9.2479  -13.2281   20.0181 C   0  0  0  0  0  0  0  0  0  0  0  0
    9.0541  -12.9951   18.6723 C   0  0  0  0  0  0  0  0  0  0  0  0
    8.2859  -16.3300   24.9449 N   0  0  0  0  0  0  0  0  0  0  0  0
    8.5560  -16.4416   26.3751 C   0  0  1  0  0  0  0  0  0  0  0  0
    7.4027  -15.9617   27.1933 C   0  0  0  0  0  0  0  0  0  0  0  0
    7.1550  -14.5253   26.9894 C   0  0  0  0  0  0  0  0  0  0  0  0
    8.0890  -13.6368   27.4916 C   0  0  0  0  0  0  0  0  0  0  0  0
    7.9814  -12.2790   27.3474 C   0  0  0  0  0  0  0  0  0  0  0  0
    6.9025  -11.7446   26.6749 C   0  0  0  0  0  0  0  0  0  0  0  0
    5.9470  -12.6009   26.1579 C   0  0  0  0  0  0  0  0  0  0  0  0
    6.0842  -13.9808   26.3209 C   0  0  0  0  0  0  0  0  0  0  0  0
    8.9452  -17.7910   26.7694 C   0  0  0  0  0  0  0  0  0  0  0  0
    9.4308  -18.1796   28.0016 O   0  0  0  0  0  0  0  0  0  0  0  0
    8.8428  -18.7302   25.9183 O   0  0  0  0  0  0  0  0  0  0  0  0
  2  1  1  0
  3  2  1  0
  4  3  2  0
  6  5  1  0
  6 16  2  0
  7  6  1  0
  8  7  2  0
  8  9  1  0
  9 15  2  0
 11 10  1  1
 10  9  1  0
 11 12  1  0
 12  3  1  0
 13 17  1  0
 13 11  1  0
 14 13  2  0
 15 16  1  0
 18 17  1  0
 18 19  1  1
 20 21  2  0
 20 19  1  0
 22 21  1  0
 23 22  2  0
 24 25  2  0
 24 23  1  0
 25 20  1  0
 26 18  1  0
 27 26  1  0
 28 26  2  0
M  END
$$$$
