GYF.pdb
     RDKit          3D

 28 29  0  0  1  0  0  0  0  0999 V2000
   10.6645  -17.8334   17.8937 N   0  0  0  0  0  0  0  0  0  0  0  0
    9.4277  -17.9989   18.6123 C   0  0  0  0  0  0  0  0  0  0  0  0
    9.4265  -17.0467   19.7540 C   0  0  0  0  0  0  0  0  0  0  0  0
   10.2312  -16.0615   19.8032 O   0  0  0  0  0  0  0  0  0  0  0  0
    6.5840  -12.6208   27.0067 O   0  0  0  0  0  0  0  0  0  0  0  0
    6.7227  -13.4016   25.8542 C   0  0  0  0  0  0  0  0  0  0  0  0
    6.4386  -14.7496   25.8799 C   0  0  0  0  0  0  0  0  0  0  0  0
    6.5752  -15.5346   24.7319 C   0  0  0  0  0  0  0  0  0  0  0  0
    6.9956  -15.0005   23.5365 C   0  0  0  0  0  0  0  0  0  0  0  0
    7.1341  -15.8234   22.3408 C   0  0  0  0  0  0  0  0  0  0  0  0
    8.5239  -16.2600   21.9968 C   0  0  2  0  0  0  0  0  0  0  0  0
    8.5361  -17.1722   20.8546 N   0  0  0  0  0  0  0  0  0  0  0  0
    9.2982  -16.8438   23.0996 C   0  0  0  0  0  0  0  0  0  0  0  0
    8.8728  -17.9066   23.6737 O   0  0  0  0  0  0  0  0  0  0  0  0
    7.2774  -13.6420   23.5278 C   0  0  0  0  0  0  0  0  0  0  0  0
    7.1442  -12.8626   24.6582 C   0  0  0  0  0  0  0  0  0  0  0  0
   10.5178  -16.3403   23.6189 N   0  0  0  0  0  0  0  0  0  0  0  0
   10.7411  -16.1024   25.0416 C   0  0  1  0  0  0  0  0  0  0  0  0
    9.8988  -14.9800   25.5521 C   0  0  0  0  0  0  0  0  0  0  0  0
   10.0843  -14.7785   26.9981 C   0  0  0  0  0  0  0  0  0  0  0  0
    9.3905  -13.7405   27.5943 C   0  0  0  0  0  0  0  0  0  0  0  0
    9.4634  -13.4655   28.9341 C   0  0  0  0  0  0  0  0  0  0  0  0
   10.2575  -14.2428   29.7509 C   0  0  0  0  0  0  0  0  0  0  0  0
   10.9670  -15.2904   29.1920 C   0  0  0  0  0  0  0  0  0  0  0  0
   10.8723  -15.5462   27.8226 C   0  0  0  0  0  0  0  0  0  0  0  0
   10.5496  -17.3024   25.8484 C   0  0  0  0  0  0  0  0  0  0  0  0
   11.5065  -17.9428   26.6096 O   0  0  0  0  0  0  0  0  0  0  0  0
    9.3990  -17.8431   25.8767 O   0  0  0  0  0  0  0  0  0  0  0  0
  2  1  1  0
  3  2  1  0
  4  3  2  0
  6  5  1  0
  6 16  2  0
  7  6  1  0
  8  7  2  0
  8  9  1  0
  9 15  2  0
 11 10  1  1
 10  9  1  0
 11 12  1  0
 12  3  1  0
 13 17  1  0
 13 11  1  0
 14 13  2  0
 15 16  1  0
 18 17  1  0
 18 19  1  1
 20 21  2  0
 20 19  1  0
 22 21  1  0
 23 22  2  0
 24 25  2  0
 24 23  1  0
 25 20  1  0
 26 18  1  0
 27 26  1  0
 28 26  2  0
M  END
$$$$
