GYF.pdb
     RDKit          3D

 28 29  0  0  1  0  0  0  0  0999 V2000
   11.8693  -17.2477   18.5851 N   0  0  0  0  0  0  0  0  0  0  0  0
   11.6388  -18.0404   19.7649 C   0  0  0  0  0  0  0  0  0  0  0  0
   11.3716  -17.1152   20.8974 C   0  0  0  0  0  0  0  0  0  0  0  0
   12.1671  -16.1638   21.1850 O   0  0  0  0  0  0  0  0  0  0  0  0
    6.9510  -12.9863   18.1694 O   0  0  0  0  0  0  0  0  0  0  0  0
    7.3426  -13.6833   19.3175 C   0  0  0  0  0  0  0  0  0  0  0  0
    6.9059  -14.9709   19.5413 C   0  0  0  0  0  0  0  0  0  0  0  0
    7.2937  -15.6721   20.6861 C   0  0  0  0  0  0  0  0  0  0  0  0
    8.1211  -15.1126   21.6313 C   0  0  0  0  0  0  0  0  0  0  0  0
    8.5247  -15.8494   22.8230 C   0  0  0  0  0  0  0  0  0  0  0  0
    9.9387  -16.3397   22.8492 C   0  0  2  0  0  0  0  0  0  0  0  0
   10.2222  -17.2305   21.7254 N   0  0  0  0  0  0  0  0  0  0  0  0
   10.3677  -16.9766   24.1009 C   0  0  0  0  0  0  0  0  0  0  0  0
   10.3374  -18.2531   24.2001 O   0  0  0  0  0  0  0  0  0  0  0  0
    8.5515  -13.8157   21.3908 C   0  0  0  0  0  0  0  0  0  0  0  0
    8.1717  -13.1191   20.2623 C   0  0  0  0  0  0  0  0  0  0  0  0
   10.8339  -16.3055   25.2598 N   0  0  0  0  0  0  0  0  0  0  0  0
   11.3173  -17.0049   26.4463 C   0  0  1  0  0  0  0  0  0  0  0  0
   11.9337  -16.0639   27.4284 C   0  0  0  0  0  0  0  0  0  0  0  0
   10.9701  -15.0485   27.8830 C   0  0  0  0  0  0  0  0  0  0  0  0
   10.9184  -14.7762   29.2385 C   0  0  0  0  0  0  0  0  0  0  0  0
   10.0798  -13.8386   29.7806 C   0  0  0  0  0  0  0  0  0  0  0  0
    9.2370  -13.1176   28.9612 C   0  0  0  0  0  0  0  0  0  0  0  0
    9.2594  -13.3611   27.5997 C   0  0  0  0  0  0  0  0  0  0  0  0
   10.1254  -14.3233   27.0764 C   0  0  0  0  0  0  0  0  0  0  0  0
   10.2828  -17.8131   27.0821 C   0  0  0  0  0  0  0  0  0  0  0  0
    8.9469  -17.8580   26.7376 O   0  0  0  0  0  0  0  0  0  0  0  0
   10.6055  -18.5631   28.0569 O   0  0  0  0  0  0  0  0  0  0  0  0
  2  1  1  0
  3  2  1  0
  4  3  2  0
  6  5  1  0
  6 16  2  0
  7  6  1  0
  8  7  2  0
  8  9  1  0
  9 15  2  0
 11 10  1  1
 10  9  1  0
 11 12  1  0
 12  3  1  0
 13 17  1  0
 13 11  1  0
 14 13  2  0
 15 16  1  0
 18 17  1  0
 18 19  1  1
 20 21  2  0
 20 19  1  0
 22 21  1  0
 23 22  2  0
 24 25  2  0
 24 23  1  0
 25 20  1  0
 26 18  1  0
 27 26  1  0
 28 26  2  0
M  END
$$$$
