GYF.pdb
     RDKit          3D

 28 29  0  0  1  0  0  0  0  0999 V2000
   12.8473  -15.8611   20.0647 N   0  0  0  0  0  0  0  0  0  0  0  0
   12.0548  -16.8341   20.7708 C   0  0  0  0  0  0  0  0  0  0  0  0
   11.1039  -16.1044   21.6501 C   0  0  0  0  0  0  0  0  0  0  0  0
   11.4204  -15.0059   22.2103 O   0  0  0  0  0  0  0  0  0  0  0  0
    7.6779  -12.5964   17.5146 O   0  0  0  0  0  0  0  0  0  0  0  0
    7.6511  -13.3364   18.7016 C   0  0  0  0  0  0  0  0  0  0  0  0
    7.5493  -14.7102   18.6714 C   0  0  0  0  0  0  0  0  0  0  0  0
    7.5221  -15.4547   19.8536 C   0  0  0  0  0  0  0  0  0  0  0  0
    7.5952  -14.8539   21.0884 C   0  0  0  0  0  0  0  0  0  0  0  0
    7.5689  -15.6355   22.3190 C   0  0  0  0  0  0  0  0  0  0  0  0
    8.8997  -15.9804   22.9111 C   0  0  2  0  0  0  0  0  0  0  0  0
    9.7922  -16.5800   21.9207 N   0  0  0  0  0  0  0  0  0  0  0  0
    8.8616  -16.8243   24.1122 C   0  0  0  0  0  0  0  0  0  0  0  0
    9.3318  -18.0144   24.0605 O   0  0  0  0  0  0  0  0  0  0  0  0
    7.6974  -13.4703   21.1010 C   0  0  0  0  0  0  0  0  0  0  0  0
    7.7246  -12.7306   19.9369 C   0  0  0  0  0  0  0  0  0  0  0  0
    8.3418  -16.4496   25.3772 N   0  0  0  0  0  0  0  0  0  0  0  0
    8.2854  -17.3592   26.5175 C   0  0  1  0  0  0  0  0  0  0  0  0
    7.9709  -16.6354   27.7853 C   0  0  0  0  0  0  0  0  0  0  0  0
    8.8646  -15.4835   27.9868 C   0  0  0  0  0  0  0  0  0  0  0  0
    8.4628  -14.2636   27.4725 C   0  0  0  0  0  0  0  0  0  0  0  0
    9.1963  -13.1155   27.6132 C   0  0  0  0  0  0  0  0  0  0  0  0
   10.3950  -13.1473   28.2942 C   0  0  0  0  0  0  0  0  0  0  0  0
   10.8309  -14.3487   28.8233 C   0  0  0  0  0  0  0  0  0  0  0  0
   10.0610  -15.5025   28.6637 C   0  0  0  0  0  0  0  0  0  0  0  0
    7.3575  -18.4650   26.3083 C   0  0  0  0  0  0  0  0  0  0  0  0
    7.3040  -19.6410   27.0291 O   0  0  0  0  0  0  0  0  0  0  0  0
    6.4978  -18.3740   25.3758 O   0  0  0  0  0  0  0  0  0  0  0  0
  2  1  1  0
  3  2  1  0
  4  3  2  0
  6  5  1  0
  6 16  2  0
  7  6  1  0
  8  7  2  0
  8  9  1  0
  9 15  2  0
 11 10  1  6
 10  9  1  0
 11 12  1  0
 12  3  1  0
 13 17  1  0
 13 11  1  0
 14 13  2  0
 15 16  1  0
 18 17  1  0
 18 19  1  1
 20 21  2  0
 20 19  1  0
 22 21  1  0
 23 22  2  0
 24 25  2  0
 24 23  1  0
 25 20  1  0
 26 18  1  0
 27 26  1  0
 28 26  2  0
M  END
$$$$
