GYF.pdb
     RDKit          3D

 28 29  0  0  1  0  0  0  0  0999 V2000
   13.1453  -15.0884   20.3197 N   0  0  0  0  0  0  0  0  0  0  0  0
   12.3191  -16.2048   20.6995 C   0  0  0  0  0  0  0  0  0  0  0  0
   11.4885  -15.7901   21.8606 C   0  0  0  0  0  0  0  0  0  0  0  0
   11.7249  -14.7160   22.5016 O   0  0  0  0  0  0  0  0  0  0  0  0
    7.3232  -12.7477   18.3230 O   0  0  0  0  0  0  0  0  0  0  0  0
    7.5122  -13.5489   19.4542 C   0  0  0  0  0  0  0  0  0  0  0  0
    7.6572  -12.9813   20.7014 C   0  0  0  0  0  0  0  0  0  0  0  0
    7.8462  -13.7763   21.8349 C   0  0  0  0  0  0  0  0  0  0  0  0
    7.8953  -15.1483   21.7559 C   0  0  0  0  0  0  0  0  0  0  0  0
    8.0903  -15.9735   22.9421 C   0  0  0  0  0  0  0  0  0  0  0  0
    9.5028  -16.1331   23.4109 C   0  0  2  0  0  0  0  0  0  0  0  0
   10.3868  -16.5576   22.3268 N   0  0  0  0  0  0  0  0  0  0  0  0
    9.6919  -17.0127   24.5715 C   0  0  0  0  0  0  0  0  0  0  0  0
   10.3082  -18.1256   24.4239 O   0  0  0  0  0  0  0  0  0  0  0  0
    7.7477  -15.7036   20.4930 C   0  0  0  0  0  0  0  0  0  0  0  0
    7.5609  -14.9234   19.3709 C   0  0  0  0  0  0  0  0  0  0  0  0
    9.2507  -16.7532   25.8939 N   0  0  0  0  0  0  0  0  0  0  0  0
    9.5284  -17.6439   27.0165 C   0  0  1  0  0  0  0  0  0  0  0  0
    9.2856  -16.9712   28.3275 C   0  0  0  0  0  0  0  0  0  0  0  0
    9.6089  -15.5367   28.2676 C   0  0  0  0  0  0  0  0  0  0  0  0
   10.7852  -15.1198   28.8649 C   0  0  0  0  0  0  0  0  0  0  0  0
   11.2056  -13.8162   28.8577 C   0  0  0  0  0  0  0  0  0  0  0  0
   10.4409  -12.8531   28.2336 C   0  0  0  0  0  0  0  0  0  0  0  0
    9.2577  -13.2307   27.6248 C   0  0  0  0  0  0  0  0  0  0  0  0
    8.8554  -14.5675   27.6487 C   0  0  0  0  0  0  0  0  0  0  0  0
    8.7897  -18.8990   26.9335 C   0  0  0  0  0  0  0  0  0  0  0  0
    9.0675  -20.0635   27.6205 O   0  0  0  0  0  0  0  0  0  0  0  0
    7.7834  -18.9662   26.1590 O   0  0  0  0  0  0  0  0  0  0  0  0
  2  1  1  0
  3  2  1  0
  4  3  2  0
  6  5  1  0
  6 16  2  0
  7  6  1  0
  8  7  2  0
  8  9  1  0
  9 15  2  0
 11 10  1  6
 10  9  1  0
 11 12  1  0
 12  3  1  0
 13 17  1  0
 13 11  1  0
 14 13  2  0
 15 16  1  0
 18 17  1  0
 18 19  1  1
 20 21  2  0
 20 19  1  0
 22 21  1  0
 23 22  2  0
 24 25  2  0
 24 23  1  0
 25 20  1  0
 26 18  1  0
 27 26  1  0
 28 26  2  0
M  END
$$$$
