GYF.pdb
     RDKit          3D

 28 29  0  0  1  0  0  0  0  0999 V2000
    6.5193  -20.5520   22.2440 N   0  0  0  0  0  0  0  0  0  0  0  0
    6.3640  -19.3737   23.0569 C   0  0  0  0  0  0  0  0  0  0  0  0
    7.4237  -18.4048   22.6721 C   0  0  0  0  0  0  0  0  0  0  0  0
    8.2977  -18.6856   21.7902 O   0  0  0  0  0  0  0  0  0  0  0  0
    6.1586  -12.3973   27.6282 O   0  0  0  0  0  0  0  0  0  0  0  0
    6.6275  -12.9879   26.4498 C   0  0  0  0  0  0  0  0  0  0  0  0
    7.5041  -12.3149   25.6268 C   0  0  0  0  0  0  0  0  0  0  0  0
    7.9759  -12.8996   24.4485 C   0  0  0  0  0  0  0  0  0  0  0  0
    7.5892  -14.1614   24.0622 C   0  0  0  0  0  0  0  0  0  0  0  0
    8.0863  -14.7679   22.8330 C   0  0  0  0  0  0  0  0  0  0  0  0
    8.6014  -16.1685   22.9488 C   0  0  2  0  0  0  0  0  0  0  0  0
    7.5301  -17.1140   23.2576 N   0  0  0  0  0  0  0  0  0  0  0  0
    9.7126  -16.3615   23.8893 C   0  0  0  0  0  0  0  0  0  0  0  0
   10.8263  -15.7653   23.6785 O   0  0  0  0  0  0  0  0  0  0  0  0
    6.7062  -14.8250   24.9019 C   0  0  0  0  0  0  0  0  0  0  0  0
    6.2375  -14.2524   26.0661 C   0  0  0  0  0  0  0  0  0  0  0  0
    9.6861  -17.1673   25.0558 N   0  0  0  0  0  0  0  0  0  0  0  0
   10.8525  -17.3748   25.9085 C   0  0  1  0  0  0  0  0  0  0  0  0
   10.5277  -17.1577   27.3498 C   0  0  0  0  0  0  0  0  0  0  0  0
   10.3414  -15.7297   27.6534 C   0  0  0  0  0  0  0  0  0  0  0  0
    9.0492  -15.2355   27.6405 C   0  0  0  0  0  0  0  0  0  0  0  0
    8.7454  -13.9310   27.9269 C   0  0  0  0  0  0  0  0  0  0  0  0
    9.7542  -13.0467   28.2464 C   0  0  0  0  0  0  0  0  0  0  0  0
   11.0598  -13.5031   28.2699 C   0  0  0  0  0  0  0  0  0  0  0  0
   11.3383  -14.8388   27.9734 C   0  0  0  0  0  0  0  0  0  0  0  0
   11.4698  -18.6810   25.7074 C   0  0  0  0  0  0  0  0  0  0  0  0
   12.7155  -19.0785   26.1497 O   0  0  0  0  0  0  0  0  0  0  0  0
   10.8270  -19.5685   25.0624 O   0  0  0  0  0  0  0  0  0  0  0  0
  2  1  1  0
  3  2  1  0
  4  3  2  0
  6  5  1  0
  6 16  2  0
  7  6  1  0
  8  7  2  0
  8  9  1  0
  9 15  2  0
 11 10  1  1
 10  9  1  0
 11 12  1  0
 12  3  1  0
 13 17  1  0
 13 11  1  0
 14 13  2  0
 15 16  1  0
 18 17  1  0
 18 19  1  1
 20 21  2  0
 20 19  1  0
 22 21  1  0
 23 22  2  0
 24 25  2  0
 24 23  1  0
 25 20  1  0
 26 18  1  0
 27 26  1  0
 28 26  2  0
M  END
$$$$
