GYF.pdb
     RDKit          3D

 28 29  0  0  1  0  0  0  0  0999 V2000
   10.3994  -18.7623   19.5238 N   0  0  0  0  0  0  0  0  0  0  0  0
    9.2670  -18.5770   20.3937 C   0  0  0  0  0  0  0  0  0  0  0  0
    9.4460  -17.2903   21.1163 C   0  0  0  0  0  0  0  0  0  0  0  0
   10.5894  -16.7432   21.2337 O   0  0  0  0  0  0  0  0  0  0  0  0
    8.0326  -12.9616   16.4777 O   0  0  0  0  0  0  0  0  0  0  0  0
    7.9239  -13.2937   17.8324 C   0  0  0  0  0  0  0  0  0  0  0  0
    8.5091  -12.5049   18.7987 C   0  0  0  0  0  0  0  0  0  0  0  0
    8.4040  -12.8315   20.1533 C   0  0  0  0  0  0  0  0  0  0  0  0
    7.7177  -13.9451   20.5775 C   0  0  0  0  0  0  0  0  0  0  0  0
    7.6089  -14.2801   21.9924 C   0  0  0  0  0  0  0  0  0  0  0  0
    8.5194  -15.3601   22.4874 C   0  0  2  0  0  0  0  0  0  0  0  0
    8.3633  -16.5929   21.7176 N   0  0  0  0  0  0  0  0  0  0  0  0
    8.4270  -15.6618   23.9216 C   0  0  0  0  0  0  0  0  0  0  0  0
    7.5462  -16.4950   24.3340 O   0  0  0  0  0  0  0  0  0  0  0  0
    7.1346  -14.7284   19.5919 C   0  0  0  0  0  0  0  0  0  0  0  0
    7.2354  -14.4105   18.2534 C   0  0  0  0  0  0  0  0  0  0  0  0
    9.2417  -15.1106   24.9429 N   0  0  0  0  0  0  0  0  0  0  0  0
    9.1417  -15.5071   26.3442 C   0  0  1  0  0  0  0  0  0  0  0  0
    7.7392  -15.4065   26.8471 C   0  0  0  0  0  0  0  0  0  0  0  0
    7.2335  -14.0266   26.7675 C   0  0  0  0  0  0  0  0  0  0  0  0
    8.0718  -13.0117   27.1933 C   0  0  0  0  0  0  0  0  0  0  0  0
    7.7242  -11.6876   27.1490 C   0  0  0  0  0  0  0  0  0  0  0  0
    6.4875  -11.3197   26.6622 C   0  0  0  0  0  0  0  0  0  0  0  0
    5.6208  -12.3059   26.2267 C   0  0  0  0  0  0  0  0  0  0  0  0
    6.0036  -13.6474   26.2842 C   0  0  0  0  0  0  0  0  0  0  0  0
    9.6867  -16.8373   26.5915 C   0  0  0  0  0  0  0  0  0  0  0  0
   10.2383  -17.6872   25.6542 O   0  0  0  0  0  0  0  0  0  0  0  0
    9.6672  -17.2953   27.7776 O   0  0  0  0  0  0  0  0  0  0  0  0
  2  1  1  0
  3  2  1  0
  4  3  2  0
  6  5  1  0
  6 16  2  0
  7  6  1  0
  8  7  2  0
  8  9  1  0
  9 15  2  0
 11 10  1  6
 10  9  1  0
 11 12  1  0
 12  3  1  0
 13 17  1  0
 13 11  1  0
 14 13  2  0
 15 16  1  0
 18 17  1  0
 18 19  1  6
 20 21  2  0
 20 19  1  0
 22 21  1  0
 23 22  2  0
 24 25  2  0
 24 23  1  0
 25 20  1  0
 26 18  1  0
 27 26  1  0
 28 26  2  0
M  END
$$$$
