GYF.pdb
     RDKit          3D

 28 29  0  0  1  0  0  0  0  0999 V2000
    6.3455  -13.7221   19.4231 N   0  0  0  0  0  0  0  0  0  0  0  0
    7.6121  -13.5520   20.0866 C   0  0  0  0  0  0  0  0  0  0  0  0
    7.8514  -14.7472   20.9377 C   0  0  0  0  0  0  0  0  0  0  0  0
    6.9848  -15.6732   21.0481 O   0  0  0  0  0  0  0  0  0  0  0  0
    9.5109  -19.3659   16.8558 O   0  0  0  0  0  0  0  0  0  0  0  0
    9.7503  -18.7562   18.0920 C   0  0  0  0  0  0  0  0  0  0  0  0
    9.3092  -19.3385   19.2602 C   0  0  0  0  0  0  0  0  0  0  0  0
    9.5453  -18.7343   20.4979 C   0  0  0  0  0  0  0  0  0  0  0  0
   10.2226  -17.5421   20.6031 C   0  0  0  0  0  0  0  0  0  0  0  0
   10.4685  -16.9169   21.8971 C   0  0  0  0  0  0  0  0  0  0  0  0
    9.3370  -16.1246   22.4737 C   0  0  2  0  0  0  0  0  0  0  0  0
    9.0511  -14.9330   21.6767 N   0  0  0  0  0  0  0  0  0  0  0  0
    9.4793  -15.7481   23.8859 C   0  0  0  0  0  0  0  0  0  0  0  0
   10.3099  -14.8293   24.2118 O   0  0  0  0  0  0  0  0  0  0  0  0
   10.6598  -16.9691   19.4174 C   0  0  0  0  0  0  0  0  0  0  0  0
   10.4293  -17.5615   18.1931 C   0  0  0  0  0  0  0  0  0  0  0  0
    8.7663  -16.3121   24.9742 N   0  0  0  0  0  0  0  0  0  0  0  0
    8.9271  -15.8604   26.3529 C   0  0  1  0  0  0  0  0  0  0  0  0
    7.6121  -15.5490   26.9883 C   0  0  0  0  0  0  0  0  0  0  0  0
    7.1012  -14.2370   26.5595 C   0  0  0  0  0  0  0  0  0  0  0  0
    7.7659  -13.1115   27.0130 C   0  0  0  0  0  0  0  0  0  0  0  0
    7.4000  -11.8377   26.6671 C   0  0  0  0  0  0  0  0  0  0  0  0
    6.3230  -11.6377   25.8294 C   0  0  0  0  0  0  0  0  0  0  0  0
    5.6325  -12.7384   25.3547 C   0  0  0  0  0  0  0  0  0  0  0  0
    6.0294  -14.0248   25.7250 C   0  0  0  0  0  0  0  0  0  0  0  0
    9.6858  -16.8029   27.1676 C   0  0  0  0  0  0  0  0  0  0  0  0
   10.1419  -18.0458   26.7771 O   0  0  0  0  0  0  0  0  0  0  0  0
    9.9734  -16.4835   28.3644 O   0  0  0  0  0  0  0  0  0  0  0  0
  2  1  1  0
  3  2  1  0
  4  3  2  0
  6  5  1  0
  6 16  2  0
  7  6  1  0
  8  7  2  0
  8  9  1  0
  9 15  2  0
 11 10  1  6
 10  9  1  0
 11 12  1  0
 12  3  1  0
 13 17  1  0
 13 11  1  0
 14 13  2  0
 15 16  1  0
 18 17  1  0
 18 19  1  1
 20 21  2  0
 20 19  1  0
 22 21  1  0
 23 22  2  0
 24 25  2  0
 24 23  1  0
 25 20  1  0
 26 18  1  0
 27 26  1  0
 28 26  2  0
M  END
$$$$
