GYF.pdb
     RDKit          3D

 28 29  0  0  1  0  0  0  0  0999 V2000
    7.7779  -12.7208   18.2903 N   0  0  0  0  0  0  0  0  0  0  0  0
    7.8733  -14.1395   18.5176 C   0  0  0  0  0  0  0  0  0  0  0  0
    7.6171  -14.3940   19.9596 C   0  0  0  0  0  0  0  0  0  0  0  0
    7.6996  -13.4659   20.8270 O   0  0  0  0  0  0  0  0  0  0  0  0
    6.9627  -19.8549   27.0668 O   0  0  0  0  0  0  0  0  0  0  0  0
    6.7888  -19.2035   25.8410 C   0  0  0  0  0  0  0  0  0  0  0  0
    7.3687  -19.6987   24.6933 C   0  0  0  0  0  0  0  0  0  0  0  0
    7.1986  -19.0524   23.4661 C   0  0  0  0  0  0  0  0  0  0  0  0
    6.4512  -17.9038   23.3511 C   0  0  0  0  0  0  0  0  0  0  0  0
    6.2748  -17.2346   22.0677 C   0  0  0  0  0  0  0  0  0  0  0  0
    7.0388  -15.9619   21.8757 C   0  0  2  0  0  0  0  0  0  0  0  0
    7.2667  -15.6773   20.4601 N   0  0  0  0  0  0  0  0  0  0  0  0
    8.3091  -15.8666   22.6063 C   0  0  0  0  0  0  0  0  0  0  0  0
    9.3530  -16.4357   22.1305 O   0  0  0  0  0  0  0  0  0  0  0  0
    5.8744  -17.4186   24.5160 C   0  0  0  0  0  0  0  0  0  0  0  0
    6.0393  -18.0527   25.7300 C   0  0  0  0  0  0  0  0  0  0  0  0
    8.5162  -15.1827   23.8312 N   0  0  0  0  0  0  0  0  0  0  0  0
    9.8284  -15.0437   24.4551 C   0  0  1  0  0  0  0  0  0  0  0  0
   10.0904  -13.6367   24.8811 C   0  0  0  0  0  0  0  0  0  0  0  0
    8.8938  -13.0195   25.4754 C   0  0  0  0  0  0  0  0  0  0  0  0
    8.7987  -13.0057   26.8556 C   0  0  0  0  0  0  0  0  0  0  0  0
    7.7456  -12.4425   27.5263 C   0  0  0  0  0  0  0  0  0  0  0  0
    6.7181  -11.8548   26.8188 C   0  0  0  0  0  0  0  0  0  0  0  0
    6.7769  -11.8484   25.4368 C   0  0  0  0  0  0  0  0  0  0  0  0
    7.8636  -12.4306   24.7812 C   0  0  0  0  0  0  0  0  0  0  0  0
   10.0215  -15.9666   25.5681 C   0  0  0  0  0  0  0  0  0  0  0  0
    9.0651  -16.7874   26.1309 O   0  0  0  0  0  0  0  0  0  0  0  0
   11.1730  -16.0493   26.1012 O   0  0  0  0  0  0  0  0  0  0  0  0
  2  1  1  0
  3  2  1  0
  4  3  2  0
  6  5  1  0
  6 16  2  0
  7  6  1  0
  8  7  2  0
  8  9  1  0
  9 15  2  0
 11 10  1  6
 10  9  1  0
 11 12  1  0
 12  3  1  0
 13 17  1  0
 13 11  1  0
 14 13  2  0
 15 16  1  0
 18 17  1  0
 18 19  1  1
 20 21  2  0
 20 19  1  0
 22 21  1  0
 23 22  2  0
 24 25  2  0
 24 23  1  0
 25 20  1  0
 26 18  1  0
 27 26  1  0
 28 26  2  0
M  END
$$$$
