GYF.pdb
     RDKit          3D

 28 29  0  0  1  0  0  0  0  0999 V2000
    9.8255  -18.9816   19.1927 N   0  0  0  0  0  0  0  0  0  0  0  0
    9.3227  -18.7474   20.5214 C   0  0  0  0  0  0  0  0  0  0  0  0
    9.5681  -17.3216   20.8630 C   0  0  0  0  0  0  0  0  0  0  0  0
   10.6938  -16.7673   20.6484 O   0  0  0  0  0  0  0  0  0  0  0  0
    7.1330  -13.6040   15.7423 O   0  0  0  0  0  0  0  0  0  0  0  0
    7.2668  -13.7614   17.1259 C   0  0  0  0  0  0  0  0  0  0  0  0
    7.8451  -12.7737   17.8931 C   0  0  0  0  0  0  0  0  0  0  0  0
    7.9815  -12.9252   19.2756 C   0  0  0  0  0  0  0  0  0  0  0  0
    7.5480  -14.0570   19.9253 C   0  0  0  0  0  0  0  0  0  0  0  0
    7.6904  -14.2091   21.3684 C   0  0  0  0  0  0  0  0  0  0  0  0
    8.7998  -15.1004   21.8324 C   0  0  2  0  0  0  0  0  0  0  0  0
    8.5724  -16.4916   21.4458 N   0  0  0  0  0  0  0  0  0  0  0  0
    9.1114  -15.0339   23.2659 C   0  0  0  0  0  0  0  0  0  0  0  0
    8.5347  -14.1531   23.9952 O   0  0  0  0  0  0  0  0  0  0  0  0
    6.9682  -15.0416   19.1382 C   0  0  0  0  0  0  0  0  0  0  0  0
    6.8312  -14.8971   17.7732 C   0  0  0  0  0  0  0  0  0  0  0  0
   10.0169  -15.8747   23.9614 N   0  0  0  0  0  0  0  0  0  0  0  0
   10.3960  -15.6594   25.3544 C   0  0  1  0  0  0  0  0  0  0  0  0
    9.2032  -15.6293   26.2524 C   0  0  0  0  0  0  0  0  0  0  0  0
    9.5694  -15.2472   27.6257 C   0  0  0  0  0  0  0  0  0  0  0  0
    9.5612  -13.8997   27.9393 C   0  0  0  0  0  0  0  0  0  0  0  0
    9.8621  -13.4212   29.1870 C   0  0  0  0  0  0  0  0  0  0  0  0
   10.1921  -14.3004   30.1968 C   0  0  0  0  0  0  0  0  0  0  0  0
   10.2113  -15.6561   29.9224 C   0  0  0  0  0  0  0  0  0  0  0  0
    9.8997  -16.1137   28.6406 C   0  0  0  0  0  0  0  0  0  0  0  0
   11.3755  -16.6318   25.8265 C   0  0  0  0  0  0  0  0  0  0  0  0
   11.2057  -17.9996   25.9019 O   0  0  0  0  0  0  0  0  0  0  0  0
   12.5111  -16.2151   26.2184 O   0  0  0  0  0  0  0  0  0  0  0  0
  2  1  1  0
  3  2  1  0
  4  3  2  0
  6  5  1  0
  6 16  2  0
  7  6  1  0
  8  7  2  0
  8  9  1  0
  9 15  2  0
 11 10  1  1
 10  9  1  0
 11 12  1  0
 12  3  1  0
 13 17  1  0
 13 11  1  0
 14 13  2  0
 15 16  1  0
 18 17  1  0
 18 19  1  1
 20 21  2  0
 20 19  1  0
 22 21  1  0
 23 22  2  0
 24 25  2  0
 24 23  1  0
 25 20  1  0
 26 18  1  0
 27 26  1  0
 28 26  2  0
M  END
$$$$
