FNW.pdb
     RDKit          3D

 34 36  0  0  1  0  0  0  0  0999 V2000
    6.2424  -18.4543   20.0884 N   0  0  0  0  0  0  0  0  0  0  0  0
    7.0716  -17.3664   20.6058 C   0  0  1  0  0  0  0  0  0  0  0  0
    6.2345  -16.5040   21.5533 C   0  0  0  0  0  0  0  0  0  0  0  0
    6.7320  -15.1184   21.5981 C   0  0  0  0  0  0  0  0  0  0  0  0
    7.0236  -14.5072   22.7970 C   0  0  0  0  0  0  0  0  0  0  0  0
    7.4958  -13.2091   22.8818 C   0  0  0  0  0  0  0  0  0  0  0  0
    7.6812  -12.4981   21.7091 C   0  0  0  0  0  0  0  0  0  0  0  0
    7.4001  -13.0793   20.5067 C   0  0  0  0  0  0  0  0  0  0  0  0
    6.9252  -14.3884   20.4392 C   0  0  0  0  0  0  0  0  0  0  0  0
    8.2298  -17.8979   21.3669 C   0  0  0  0  0  0  0  0  0  0  0  0
    8.6454  -19.0445   21.0318 O   0  0  0  0  0  0  0  0  0  0  0  0
   12.8491  -16.9043   20.2677 N   0  0  0  0  0  0  0  0  0  0  0  0
   12.0751  -15.9106   20.9783 C   0  0  0  0  0  0  0  0  0  0  0  0
   12.6544  -14.8681   21.3255 O   0  0  0  0  0  0  0  0  0  0  0  0
   10.6824  -16.2097   21.2303 C   0  0  0  0  0  0  0  0  0  0  0  0
   10.3423  -17.1092   22.3900 C   0  0  2  0  0  0  0  0  0  0  0  0
    8.8513  -17.1788   22.4143 N   0  0  0  0  0  0  0  0  0  0  0  0
   10.6871  -16.5478   23.7192 C   0  0  0  0  0  0  0  0  0  0  0  0
   11.9239  -16.2439   23.9389 O   0  0  0  0  0  0  0  0  0  0  0  0
    9.8261  -16.2922   24.7921 N   0  0  0  0  0  0  0  0  0  0  0  0
   10.3333  -16.1515   26.1256 C   0  0  1  0  0  0  0  0  0  0  0  0
    9.2278  -16.0124   27.1488 C   0  0  0  0  0  0  0  0  0  0  0  0
    8.0782  -15.3412   26.5019 C   0  0  0  0  0  0  0  0  0  0  0  0
    7.0228  -15.9036   25.7820 C   0  0  0  0  0  0  0  0  0  0  0  0
    6.1963  -14.9137   25.3655 N   0  0  0  0  0  0  0  0  0  0  0  0
    6.6586  -13.7293   25.7773 C   0  0  0  0  0  0  0  0  0  0  0  0
    6.1877  -12.4527   25.6114 C   0  0  0  0  0  0  0  0  0  0  0  0
    6.8687  -11.3573   26.1495 C   0  0  0  0  0  0  0  0  0  0  0  0
    8.0293  -11.5991   26.8519 C   0  0  0  0  0  0  0  0  0  0  0  0
    8.4893  -12.8893   27.0091 C   0  0  0  0  0  0  0  0  0  0  0  0
    7.8164  -13.9702   26.4784 C   0  0  0  0  0  0  0  0  0  0  0  0
   11.1400  -17.3402   26.4705 C   0  0  0  0  0  0  0  0  0  0  0  0
   11.7291  -17.3432   27.6035 O   0  0  0  0  0  0  0  0  0  0  0  0
   11.3027  -18.4512   25.6569 O   0  0  0  0  0  0  0  0  0  0  0  0
  2  1  1  1
  3  2  1  0
  4  5  2  0
  4  3  1  0
  6  5  1  0
  7  6  2  0
  8  7  1  0
  8  9  2  0
  9  4  1  0
 10  2  1  0
 11 10  2  0
 13 14  2  0
 13 12  1  0
 15 13  1  0
 16 17  1  0
 16 15  1  6
 17 10  1  0
 18 16  1  0
 19 18  2  0
 20 18  1  0
 21 20  1  0
 21 22  1  1
 23 22  1  0
 23 31  1  0
 24 25  1  0
 24 23  2  0
 25 26  1  0
 26 31  2  0
 26 27  1  0
 27 28  2  0
 28 29  1  0
 30 29  2  0
 31 30  1  0
 32 21  1  0
 32 34  1  0
 33 32  2  0
M  END
$$$$
