FNW.pdb
     RDKit          3D

 34 36  0  0  1  0  0  0  0  0999 V2000
    6.2054  -17.9649   20.1102 N   0  0  0  0  0  0  0  0  0  0  0  0
    7.0175  -16.7877   20.4157 C   0  0  1  0  0  0  0  0  0  0  0  0
    6.1253  -15.7088   21.0339 C   0  0  0  0  0  0  0  0  0  0  0  0
    6.8782  -14.4676   21.2824 C   0  0  0  0  0  0  0  0  0  0  0  0
    7.1294  -13.5739   20.2654 C   0  0  0  0  0  0  0  0  0  0  0  0
    7.8297  -12.3959   20.4581 C   0  0  0  0  0  0  0  0  0  0  0  0
    8.2961  -12.1076   21.7288 C   0  0  0  0  0  0  0  0  0  0  0  0
    8.0615  -12.9758   22.7553 C   0  0  0  0  0  0  0  0  0  0  0  0
    7.3540  -14.1583   22.5438 C   0  0  0  0  0  0  0  0  0  0  0  0
    8.0857  -17.1187   21.3917 C   0  0  0  0  0  0  0  0  0  0  0  0
    7.7625  -17.8909   22.3398 O   0  0  0  0  0  0  0  0  0  0  0  0
   12.2091  -19.2691   20.2007 N   0  0  0  0  0  0  0  0  0  0  0  0
   11.8686  -17.8668   20.1034 C   0  0  0  0  0  0  0  0  0  0  0  0
   11.7189  -17.3872   18.9674 O   0  0  0  0  0  0  0  0  0  0  0  0
   11.7293  -17.1302   21.3406 C   0  0  0  0  0  0  0  0  0  0  0  0
   10.4475  -17.2748   22.1188 C   0  0  2  0  0  0  0  0  0  0  0  0
    9.4012  -16.6098   21.2872 N   0  0  0  0  0  0  0  0  0  0  0  0
   10.4174  -16.5134   23.3917 C   0  0  0  0  0  0  0  0  0  0  0  0
   10.8434  -15.2934   23.3705 O   0  0  0  0  0  0  0  0  0  0  0  0
    9.9717  -16.9520   24.6434 N   0  0  0  0  0  0  0  0  0  0  0  0
   10.4016  -16.3023   25.8470 C   0  0  1  0  0  0  0  0  0  0  0  0
    9.3124  -16.2574   26.8958 C   0  0  0  0  0  0  0  0  0  0  0  0
    8.1210  -15.6118   26.3005 C   0  0  0  0  0  0  0  0  0  0  0  0
    6.9806  -16.2034   25.7548 C   0  0  0  0  0  0  0  0  0  0  0  0
    6.1436  -15.2300   25.3209 N   0  0  0  0  0  0  0  0  0  0  0  0
    6.6799  -14.0285   25.5554 C   0  0  0  0  0  0  0  0  0  0  0  0
    6.2307  -12.7584   25.3029 C   0  0  0  0  0  0  0  0  0  0  0  0
    6.9951  -11.6409   25.6497 C   0  0  0  0  0  0  0  0  0  0  0  0
    8.2154  -11.8545   26.2531 C   0  0  0  0  0  0  0  0  0  0  0  0
    8.6525  -13.1387   26.4995 C   0  0  0  0  0  0  0  0  0  0  0  0
    7.8973  -14.2413   26.1576 C   0  0  0  0  0  0  0  0  0  0  0  0
   11.5591  -17.0287   26.4088 C   0  0  0  0  0  0  0  0  0  0  0  0
   11.9200  -18.1041   25.8223 O   0  0  0  0  0  0  0  0  0  0  0  0
   12.2815  -16.6286   27.5226 O   0  0  0  0  0  0  0  0  0  0  0  0
  2  1  1  1
  3  2  1  0
  4  5  2  0
  4  3  1  0
  6  5  1  0
  7  6  2  0
  8  7  1  0
  8  9  2  0
  9  4  1  0
 10  2  1  0
 11 10  2  0
 13 14  2  0
 13 12  1  0
 15 13  1  0
 16 17  1  0
 16 15  1  6
 17 10  1  0
 18 16  1  0
 19 18  2  0
 20 18  1  0
 21 20  1  0
 21 22  1  1
 23 22  1  0
 23 31  1  0
 24 25  1  0
 24 23  2  0
 25 26  1  0
 26 31  2  0
 26 27  1  0
 27 28  2  0
 28 29  1  0
 30 29  2  0
 31 30  1  0
 32 21  1  0
 32 34  1  0
 33 32  2  0
M  END
$$$$
