FNW.pdb
     RDKit          3D

 34 36  0  0  1  0  0  0  0  0999 V2000
    8.9051  -13.8244   21.9855 N   0  0  0  0  0  0  0  0  0  0  0  0
    7.9899  -14.9141   22.3223 C   0  0  1  0  0  0  0  0  0  0  0  0
    7.0160  -15.1289   21.1613 C   0  0  0  0  0  0  0  0  0  0  0  0
    7.2340  -14.1432   20.0890 C   0  0  0  0  0  0  0  0  0  0  0  0
    7.5104  -12.8262   20.3807 C   0  0  0  0  0  0  0  0  0  0  0  0
    7.7245  -11.8703   19.4031 C   0  0  0  0  0  0  0  0  0  0  0  0
    7.6569  -12.2588   18.0765 C   0  0  0  0  0  0  0  0  0  0  0  0
    7.3845  -13.5578   17.7587 C   0  0  0  0  0  0  0  0  0  0  0  0
    7.1715  -14.5082   18.7563 C   0  0  0  0  0  0  0  0  0  0  0  0
    8.7315  -16.1807   22.5433 C   0  0  0  0  0  0  0  0  0  0  0  0
    8.0332  -17.2075   22.7838 O   0  0  0  0  0  0  0  0  0  0  0  0
   11.9440  -19.9259   23.3411 N   0  0  0  0  0  0  0  0  0  0  0  0
   12.6977  -18.8933   22.6650 C   0  0  0  0  0  0  0  0  0  0  0  0
   13.7750  -19.2169   22.1381 O   0  0  0  0  0  0  0  0  0  0  0  0
   12.1365  -17.5601   22.6558 C   0  0  0  0  0  0  0  0  0  0  0  0
   10.7848  -17.3485   23.2862 C   0  0  2  0  0  0  0  0  0  0  0  0
   10.1428  -16.2592   22.4926 N   0  0  0  0  0  0  0  0  0  0  0  0
   10.8330  -16.7956   24.6621 C   0  0  0  0  0  0  0  0  0  0  0  0
   11.5108  -15.7110   24.8487 O   0  0  0  0  0  0  0  0  0  0  0  0
   10.2209  -17.3040   25.8130 N   0  0  0  0  0  0  0  0  0  0  0  0
   10.6852  -16.9344   27.1181 C   0  0  1  0  0  0  0  0  0  0  0  0
   10.0878  -15.6275   27.5912 C   0  0  0  0  0  0  0  0  0  0  0  0
    8.6832  -15.5648   27.1289 C   0  0  0  0  0  0  0  0  0  0  0  0
    7.7844  -16.6086   26.9027 C   0  0  0  0  0  0  0  0  0  0  0  0
    6.6054  -16.0914   26.4799 N   0  0  0  0  0  0  0  0  0  0  0  0
    6.6874  -14.7589   26.4176 C   0  0  0  0  0  0  0  0  0  0  0  0
    5.7786  -13.8000   26.0525 C   0  0  0  0  0  0  0  0  0  0  0  0
    6.1147  -12.4435   26.0708 C   0  0  0  0  0  0  0  0  0  0  0  0
    7.3887  -12.0986   26.4667 C   0  0  0  0  0  0  0  0  0  0  0  0
    8.2908  -13.0758   26.8305 C   0  0  0  0  0  0  0  0  0  0  0  0
    7.9583  -14.4145   26.8129 C   0  0  0  0  0  0  0  0  0  0  0  0
   10.3198  -17.9902   28.0848 C   0  0  0  0  0  0  0  0  0  0  0  0
    9.5242  -18.9052   27.6842 O   0  0  0  0  0  0  0  0  0  0  0  0
   10.7774  -18.0612   29.3918 O   0  0  0  0  0  0  0  0  0  0  0  0
  2  1  1  6
  3  2  1  0
  4  5  2  0
  4  3  1  0
  6  5  1  0
  7  6  2  0
  8  7  1  0
  8  9  2  0
  9  4  1  0
 10  2  1  0
 11 10  2  0
 13 14  2  0
 13 12  1  0
 15 13  1  0
 16 17  1  0
 16 15  1  6
 17 10  1  0
 18 16  1  0
 19 18  2  0
 20 18  1  0
 21 20  1  0
 21 22  1  1
 23 22  1  0
 23 31  1  0
 24 25  1  0
 24 23  2  0
 25 26  1  0
 26 31  2  0
 26 27  1  0
 27 28  2  0
 28 29  1  0
 30 29  2  0
 31 30  1  0
 32 21  1  0
 32 34  1  0
 33 32  2  0
M  END
$$$$
