FNW.pdb
     RDKit          3D

 34 36  0  0  1  0  0  0  0  0999 V2000
    6.8428  -18.5368   20.4273 N   0  0  0  0  0  0  0  0  0  0  0  0
    7.4560  -17.2295   20.6591 C   0  0  1  0  0  0  0  0  0  0  0  0
    6.3853  -16.2530   21.1517 C   0  0  0  0  0  0  0  0  0  0  0  0
    6.8466  -14.8576   21.0548 C   0  0  0  0  0  0  0  0  0  0  0  0
    7.2752  -14.3332   19.8559 C   0  0  0  0  0  0  0  0  0  0  0  0
    7.7130  -13.0272   19.7222 C   0  0  0  0  0  0  0  0  0  0  0  0
    7.7189  -12.2168   20.8440 C   0  0  0  0  0  0  0  0  0  0  0  0
    7.2995  -12.7107   22.0451 C   0  0  0  0  0  0  0  0  0  0  0  0
    6.8614  -14.0291   22.1622 C   0  0  0  0  0  0  0  0  0  0  0  0
    8.5141  -17.3162   21.6964 C   0  0  0  0  0  0  0  0  0  0  0  0
    8.1979  -17.8934   22.7764 O   0  0  0  0  0  0  0  0  0  0  0  0
   12.0341  -18.0231   20.0460 N   0  0  0  0  0  0  0  0  0  0  0  0
   12.3208  -16.7370   20.6422 C   0  0  0  0  0  0  0  0  0  0  0  0
   12.7153  -15.8288   19.8923 O   0  0  0  0  0  0  0  0  0  0  0  0
   12.1256  -16.6089   22.0698 C   0  0  0  0  0  0  0  0  0  0  0  0
   10.7738  -16.9503   22.6405 C   0  0  2  0  0  0  0  0  0  0  0  0
    9.8132  -16.7890   21.5093 N   0  0  0  0  0  0  0  0  0  0  0  0
   10.2802  -15.9890   23.6570 C   0  0  0  0  0  0  0  0  0  0  0  0
    9.2347  -15.2889   23.3618 O   0  0  0  0  0  0  0  0  0  0  0  0
   10.8081  -15.7383   24.9283 N   0  0  0  0  0  0  0  0  0  0  0  0
   10.1067  -16.1466   26.1102 C   0  0  1  0  0  0  0  0  0  0  0  0
    8.7920  -16.8241   25.7925 C   0  0  0  0  0  0  0  0  0  0  0  0
    7.7149  -15.8131   25.8835 C   0  0  0  0  0  0  0  0  0  0  0  0
    6.3569  -15.9461   25.5894 C   0  0  0  0  0  0  0  0  0  0  0  0
    5.7393  -14.7607   25.8125 N   0  0  0  0  0  0  0  0  0  0  0  0
    6.6265  -13.8565   26.2385 C   0  0  0  0  0  0  0  0  0  0  0  0
    6.4961  -12.5381   26.5898 C   0  0  0  0  0  0  0  0  0  0  0  0
    7.5999  -11.7911   27.0101 C   0  0  0  0  0  0  0  0  0  0  0  0
    8.8249  -12.4202   27.0602 C   0  0  0  0  0  0  0  0  0  0  0  0
    8.9388  -13.7470   26.7030 C   0  0  0  0  0  0  0  0  0  0  0  0
    7.8487  -14.4841   26.2889 C   0  0  0  0  0  0  0  0  0  0  0  0
   10.9452  -17.0929   26.8747 C   0  0  0  0  0  0  0  0  0  0  0  0
   10.5508  -17.4152   28.0457 O   0  0  0  0  0  0  0  0  0  0  0  0
   12.1255  -17.6566   26.4145 O   0  0  0  0  0  0  0  0  0  0  0  0
  2  1  1  1
  3  2  1  0
  4  5  2  0
  4  3  1  0
  6  5  1  0
  7  6  2  0
  8  7  1  0
  8  9  2  0
  9  4  1  0
 10  2  1  0
 11 10  2  0
 13 14  2  0
 13 12  1  0
 15 13  1  0
 16 17  1  0
 16 15  1  6
 17 10  1  0
 18 16  1  0
 19 18  2  0
 20 18  1  0
 21 20  1  0
 21 22  1  6
 23 22  1  0
 23 31  1  0
 24 25  1  0
 24 23  2  0
 25 26  1  0
 26 31  2  0
 26 27  1  0
 27 28  2  0
 28 29  1  0
 30 29  2  0
 31 30  1  0
 32 21  1  0
 32 34  1  0
 33 32  2  0
M  END
$$$$
