FNW.pdb
     RDKit          3D

 34 36  0  0  1  0  0  0  0  0999 V2000
    6.1721  -18.4065   21.2918 N   0  0  0  0  0  0  0  0  0  0  0  0
    7.0548  -17.2433   21.3741 C   0  0  1  0  0  0  0  0  0  0  0  0
    6.3237  -16.1082   22.0948 C   0  0  0  0  0  0  0  0  0  0  0  0
    6.8003  -14.7904   21.6418 C   0  0  0  0  0  0  0  0  0  0  0  0
    7.5570  -14.6637   20.4984 C   0  0  0  0  0  0  0  0  0  0  0  0
    8.0212  -13.4441   20.0375 C   0  0  0  0  0  0  0  0  0  0  0  0
    7.7095  -12.3055   20.7598 C   0  0  0  0  0  0  0  0  0  0  0  0
    6.9612  -12.4020   21.8970 C   0  0  0  0  0  0  0  0  0  0  0  0
    6.5013  -13.6388   22.3473 C   0  0  0  0  0  0  0  0  0  0  0  0
    8.2834  -17.5629   22.1431 C   0  0  0  0  0  0  0  0  0  0  0  0
    8.1892  -18.4948   22.9930 O   0  0  0  0  0  0  0  0  0  0  0  0
   13.2088  -18.3314   23.5018 N   0  0  0  0  0  0  0  0  0  0  0  0
   13.1662  -17.4140   22.3846 C   0  0  0  0  0  0  0  0  0  0  0  0
   14.2268  -17.1974   21.7754 O   0  0  0  0  0  0  0  0  0  0  0  0
   11.8878  -16.8180   22.0635 C   0  0  0  0  0  0  0  0  0  0  0  0
   10.6633  -17.3209   22.7827 C   0  0  2  0  0  0  0  0  0  0  0  0
    9.5049  -16.8758   21.9528 N   0  0  0  0  0  0  0  0  0  0  0  0
   10.4193  -16.6761   24.0963 C   0  0  0  0  0  0  0  0  0  0  0  0
   10.7117  -15.4224   24.2121 O   0  0  0  0  0  0  0  0  0  0  0  0
    9.8956  -17.2604   25.2548 N   0  0  0  0  0  0  0  0  0  0  0  0
   10.2601  -16.7748   26.5536 C   0  0  1  0  0  0  0  0  0  0  0  0
    9.0524  -16.4521   27.4056 C   0  0  0  0  0  0  0  0  0  0  0  0
    8.1197  -15.6346   26.5981 C   0  0  0  0  0  0  0  0  0  0  0  0
    7.0773  -16.0513   25.7686 C   0  0  0  0  0  0  0  0  0  0  0  0
    6.4873  -14.9613   25.2205 N   0  0  0  0  0  0  0  0  0  0  0  0
    7.0924  -13.8499   25.6502 C   0  0  0  0  0  0  0  0  0  0  0  0
    6.8694  -12.5235   25.3865 C   0  0  0  0  0  0  0  0  0  0  0  0
    7.6581  -11.5292   25.9718 C   0  0  0  0  0  0  0  0  0  0  0  0
    8.6684  -11.9228   26.8223 C   0  0  0  0  0  0  0  0  0  0  0  0
    8.8795  -13.2614   27.0765 C   0  0  0  0  0  0  0  0  0  0  0  0
    8.1002  -14.2423   26.4990 C   0  0  0  0  0  0  0  0  0  0  0  0
   11.0621  -17.8002   27.2522 C   0  0  0  0  0  0  0  0  0  0  0  0
   11.2291  -18.9200   26.6616 O   0  0  0  0  0  0  0  0  0  0  0  0
   11.6468  -17.6358   28.4988 O   0  0  0  0  0  0  0  0  0  0  0  0
  2  1  1  1
  3  2  1  0
  4  5  2  0
  4  3  1  0
  6  5  1  0
  7  6  2  0
  8  7  1  0
  8  9  2  0
  9  4  1  0
 10  2  1  0
 11 10  2  0
 13 14  2  0
 13 12  1  0
 15 13  1  0
 16 17  1  0
 16 15  1  6
 17 10  1  0
 18 16  1  0
 19 18  2  0
 20 18  1  0
 21 20  1  0
 21 22  1  1
 23 22  1  0
 23 31  1  0
 24 25  1  0
 24 23  2  0
 25 26  1  0
 26 31  2  0
 26 27  1  0
 27 28  2  0
 28 29  1  0
 30 29  2  0
 31 30  1  0
 32 21  1  0
 32 34  1  0
 33 32  2  0
M  END
$$$$
