FNW.pdb
     RDKit          3D

 34 36  0  0  1  0  0  0  0  0999 V2000
    5.5513  -18.0537   20.7068 N   0  0  0  0  0  0  0  0  0  0  0  0
    6.5285  -16.9730   20.8329 C   0  0  1  0  0  0  0  0  0  0  0  0
    5.8925  -15.8071   21.5934 C   0  0  0  0  0  0  0  0  0  0  0  0
    6.7944  -14.6438   21.6438 C   0  0  0  0  0  0  0  0  0  0  0  0
    7.1141  -13.9434   20.5022 C   0  0  0  0  0  0  0  0  0  0  0  0
    7.9544  -12.8439   20.5074 C   0  0  0  0  0  0  0  0  0  0  0  0
    8.4947  -12.4340   21.7138 C   0  0  0  0  0  0  0  0  0  0  0  0
    8.1948  -13.1099   22.8609 C   0  0  0  0  0  0  0  0  0  0  0  0
    7.3461  -14.2158   22.8378 C   0  0  0  0  0  0  0  0  0  0  0  0
    7.7222  -17.4229   21.5916 C   0  0  0  0  0  0  0  0  0  0  0  0
    7.5024  -18.0932   22.6414 O   0  0  0  0  0  0  0  0  0  0  0  0
   11.4094  -18.0486   18.6693 N   0  0  0  0  0  0  0  0  0  0  0  0
   11.3265  -18.6351   19.9887 C   0  0  0  0  0  0  0  0  0  0  0  0
   11.2389  -19.8717   20.0657 O   0  0  0  0  0  0  0  0  0  0  0  0
   11.3517  -17.7326   21.1190 C   0  0  0  0  0  0  0  0  0  0  0  0
   10.1468  -17.6830   22.0219 C   0  0  2  0  0  0  0  0  0  0  0  0
    9.0439  -17.1298   21.1817 N   0  0  0  0  0  0  0  0  0  0  0  0
   10.2587  -16.7095   23.1358 C   0  0  0  0  0  0  0  0  0  0  0  0
   10.7803  -15.5564   22.8738 O   0  0  0  0  0  0  0  0  0  0  0  0
    9.8584  -16.8780   24.4658 N   0  0  0  0  0  0  0  0  0  0  0  0
   10.6391  -16.3432   25.5429 C   0  0  1  0  0  0  0  0  0  0  0  0
   10.2713  -14.9111   25.8628 C   0  0  0  0  0  0  0  0  0  0  0  0
    8.8302  -14.7276   25.5798 C   0  0  0  0  0  0  0  0  0  0  0  0
    7.8685  -15.6862   25.2563 C   0  0  0  0  0  0  0  0  0  0  0  0
    6.6753  -15.0699   25.0749 N   0  0  0  0  0  0  0  0  0  0  0  0
    6.8078  -13.7535   25.2637 C   0  0  0  0  0  0  0  0  0  0  0  0
    5.9082  -12.7217   25.1943 C   0  0  0  0  0  0  0  0  0  0  0  0
    6.3027  -11.4033   25.4381 C   0  0  0  0  0  0  0  0  0  0  0  0
    7.6248  -11.1714   25.7499 C   0  0  0  0  0  0  0  0  0  0  0  0
    8.5168  -12.2207   25.8151 C   0  0  0  0  0  0  0  0  0  0  0  0
    8.1268  -13.5219   25.5751 C   0  0  0  0  0  0  0  0  0  0  0  0
   10.4256  -17.1605   26.7550 C   0  0  0  0  0  0  0  0  0  0  0  0
    9.5361  -18.0751   26.6990 O   0  0  0  0  0  0  0  0  0  0  0  0
   11.1195  -17.0088   27.9459 O   0  0  0  0  0  0  0  0  0  0  0  0
  2  1  1  1
  3  2  1  0
  4  5  2  0
  4  3  1  0
  6  5  1  0
  7  6  2  0
  8  7  1  0
  8  9  2  0
  9  4  1  0
 10  2  1  0
 11 10  2  0
 13 14  2  0
 13 12  1  0
 15 13  1  0
 16 17  1  0
 16 15  1  6
 17 10  1  0
 18 16  1  0
 19 18  2  0
 20 18  1  0
 21 20  1  0
 21 22  1  1
 23 22  1  0
 23 31  1  0
 24 25  1  0
 24 23  2  0
 25 26  1  0
 26 31  2  0
 26 27  1  0
 27 28  2  0
 28 29  1  0
 30 29  2  0
 31 30  1  0
 32 21  1  0
 32 34  1  0
 33 32  2  0
M  END
$$$$
