FNW.pdb
     RDKit          3D

 34 36  0  0  1  0  0  0  0  0999 V2000
    7.2054  -19.1828   20.4933 N   0  0  0  0  0  0  0  0  0  0  0  0
    7.3864  -18.1201   21.4816 C   0  0  1  0  0  0  0  0  0  0  0  0
    6.7198  -18.5368   22.7947 C   0  0  0  0  0  0  0  0  0  0  0  0
    6.7501  -17.4443   23.7820 C   0  0  0  0  0  0  0  0  0  0  0  0
    6.2739  -17.6295   25.0606 C   0  0  0  0  0  0  0  0  0  0  0  0
    6.2873  -16.6303   26.0181 C   0  0  0  0  0  0  0  0  0  0  0  0
    6.8020  -15.3933   25.6714 C   0  0  0  0  0  0  0  0  0  0  0  0
    7.2806  -15.1820   24.4109 C   0  0  0  0  0  0  0  0  0  0  0  0
    7.2597  -16.1998   23.4584 C   0  0  0  0  0  0  0  0  0  0  0  0
    8.8272  -17.8845   21.7495 C   0  0  0  0  0  0  0  0  0  0  0  0
    9.5088  -18.8937   22.0908 O   0  0  0  0  0  0  0  0  0  0  0  0
   13.5973  -16.0250   20.8102 N   0  0  0  0  0  0  0  0  0  0  0  0
   12.5892  -15.1731   20.2190 C   0  0  0  0  0  0  0  0  0  0  0  0
   12.9732  -14.2573   19.4728 O   0  0  0  0  0  0  0  0  0  0  0  0
   11.2081  -15.4547   20.5446 C   0  0  0  0  0  0  0  0  0  0  0  0
   10.9144  -16.5741   21.5091 C   0  0  2  0  0  0  0  0  0  0  0  0
    9.4273  -16.6088   21.6357 N   0  0  0  0  0  0  0  0  0  0  0  0
   11.3768  -16.3216   22.8959 C   0  0  0  0  0  0  0  0  0  0  0  0
   12.6493  -16.2099   23.0924 O   0  0  0  0  0  0  0  0  0  0  0  0
   10.5958  -16.1792   24.0481 N   0  0  0  0  0  0  0  0  0  0  0  0
   11.2043  -16.0850   25.3429 C   0  0  1  0  0  0  0  0  0  0  0  0
   10.8201  -14.8134   26.0667 C   0  0  0  0  0  0  0  0  0  0  0  0
    9.3431  -14.7212   26.0910 C   0  0  0  0  0  0  0  0  0  0  0  0
    8.4003  -15.7424   26.2195 C   0  0  0  0  0  0  0  0  0  0  0  0
    7.1579  -15.2023   26.1868 N   0  0  0  0  0  0  0  0  0  0  0  0
    7.2402  -13.8761   26.0428 C   0  0  0  0  0  0  0  0  0  0  0  0
    6.2803  -12.9015   25.9561 C   0  0  0  0  0  0  0  0  0  0  0  0
    6.6295  -11.5569   25.8033 C   0  0  0  0  0  0  0  0  0  0  0  0
    7.9692  -11.2400   25.7416 C   0  0  0  0  0  0  0  0  0  0  0  0
    8.9219  -12.2327   25.8300 C   0  0  0  0  0  0  0  0  0  0  0  0
    8.5767  -13.5596   25.9816 C   0  0  0  0  0  0  0  0  0  0  0  0
   10.7817  -17.2358   26.1673 C   0  0  0  0  0  0  0  0  0  0  0  0
   11.1466  -17.2486   27.3910 O   0  0  0  0  0  0  0  0  0  0  0  0
   10.0184  -18.2999   25.7115 O   0  0  0  0  0  0  0  0  0  0  0  0
  2  1  1  6
  3  2  1  0
  4  5  2  0
  4  3  1  0
  6  5  1  0
  7  6  2  0
  8  7  1  0
  8  9  2  0
  9  4  1  0
 10  2  1  0
 11 10  2  0
 13 14  2  0
 13 12  1  0
 15 13  1  0
 16 17  1  0
 16 15  1  6
 17 10  1  0
 18 16  1  0
 19 18  2  0
 20 18  1  0
 21 20  1  0
 21 22  1  1
 23 22  1  0
 23 31  1  0
 24 25  1  0
 24 23  2  0
 25 26  1  0
 26 31  2  0
 26 27  1  0
 27 28  2  0
 28 29  1  0
 30 29  2  0
 31 30  1  0
 32 21  1  0
 32 34  1  0
 33 32  2  0
M  END
$$$$
