FNW.pdb
     RDKit          3D

 34 36  0  0  1  0  0  0  0  0999 V2000
    7.3037  -19.7945   19.2321 N   0  0  0  0  0  0  0  0  0  0  0  0
    7.2055  -19.2469   20.5846 C   0  0  1  0  0  0  0  0  0  0  0  0
    7.8069  -20.2461   21.5758 C   0  0  0  0  0  0  0  0  0  0  0  0
    7.6936  -19.7609   22.9618 C   0  0  0  0  0  0  0  0  0  0  0  0
    8.8134  -19.4309   23.6921 C   0  0  0  0  0  0  0  0  0  0  0  0
    8.7497  -18.9688   24.9951 C   0  0  0  0  0  0  0  0  0  0  0  0
    7.5053  -18.8342   25.5857 C   0  0  0  0  0  0  0  0  0  0  0  0
    6.3788  -19.1542   24.8849 C   0  0  0  0  0  0  0  0  0  0  0  0
    6.4610  -19.6184   23.5728 C   0  0  0  0  0  0  0  0  0  0  0  0
    7.9599  -17.9736   20.6975 C   0  0  0  0  0  0  0  0  0  0  0  0
    9.1512  -17.9854   20.2729 O   0  0  0  0  0  0  0  0  0  0  0  0
    7.5194  -12.7449   19.2084 N   0  0  0  0  0  0  0  0  0  0  0  0
    7.4426  -13.1033   20.6074 C   0  0  0  0  0  0  0  0  0  0  0  0
    7.7179  -12.2268   21.4433 O   0  0  0  0  0  0  0  0  0  0  0  0
    7.0504  -14.4591   20.9246 C   0  0  0  0  0  0  0  0  0  0  0  0
    8.1197  -15.5188   20.9803 C   0  0  2  0  0  0  0  0  0  0  0  0
    7.3974  -16.7978   21.2468 N   0  0  0  0  0  0  0  0  0  0  0  0
    9.0437  -15.3931   22.1342 C   0  0  0  0  0  0  0  0  0  0  0  0
   10.0046  -14.5338   22.0416 O   0  0  0  0  0  0  0  0  0  0  0  0
    9.0074  -16.0969   23.3430 N   0  0  0  0  0  0  0  0  0  0  0  0
    9.9073  -15.7725   24.4109 C   0  0  1  0  0  0  0  0  0  0  0  0
    9.2844  -15.9890   25.7724 C   0  0  0  0  0  0  0  0  0  0  0  0
    7.9478  -15.3534   25.7777 C   0  0  0  0  0  0  0  0  0  0  0  0
    6.6899  -15.9500   25.6768 C   0  0  0  0  0  0  0  0  0  0  0  0
    5.7394  -14.9851   25.7214 N   0  0  0  0  0  0  0  0  0  0  0  0
    6.3129  -13.7845   25.8465 C   0  0  0  0  0  0  0  0  0  0  0  0
    5.7877  -12.5213   25.9318 C   0  0  0  0  0  0  0  0  0  0  0  0
    6.6160  -11.4028   26.0585 C   0  0  0  0  0  0  0  0  0  0  0  0
    7.9781  -11.6081   26.0946 C   0  0  0  0  0  0  0  0  0  0  0  0
    8.4901  -12.8853   26.0072 C   0  0  0  0  0  0  0  0  0  0  0  0
    7.6720  -13.9890   25.8828 C   0  0  0  0  0  0  0  0  0  0  0  0
   11.1125  -16.6211   24.3102 C   0  0  0  0  0  0  0  0  0  0  0  0
   11.1184  -17.5311   23.4144 O   0  0  0  0  0  0  0  0  0  0  0  0
   12.2359  -16.5014   25.1143 O   0  0  0  0  0  0  0  0  0  0  0  0
  2  1  1  6
  3  2  1  0
  4  5  2  0
  4  3  1  0
  6  5  1  0
  7  6  2  0
  8  7  1  0
  8  9  2  0
  9  4  1  0
 10  2  1  0
 11 10  2  0
 13 14  2  0
 13 12  1  0
 15 13  1  0
 16 17  1  0
 16 15  1  1
 17 10  1  0
 18 16  1  0
 19 18  2  0
 20 18  1  0
 21 20  1  0
 21 22  1  1
 23 22  1  0
 23 31  1  0
 24 25  1  0
 24 23  2  0
 25 26  1  0
 26 31  2  0
 26 27  1  0
 27 28  2  0
 28 29  1  0
 30 29  2  0
 31 30  1  0
 32 21  1  0
 32 34  1  0
 33 32  2  0
M  END
$$$$
