FNW.pdb
     RDKit          3D

 34 36  0  0  1  0  0  0  0  0999 V2000
    7.8940  -19.6171   19.9327 N   0  0  0  0  0  0  0  0  0  0  0  0
    9.0639  -19.5531   20.8078 C   0  0  1  0  0  0  0  0  0  0  0  0
   10.2070  -20.3519   20.1771 C   0  0  0  0  0  0  0  0  0  0  0  0
   11.3286  -20.5170   21.1172 C   0  0  0  0  0  0  0  0  0  0  0  0
   12.5199  -19.8538   20.9246 C   0  0  0  0  0  0  0  0  0  0  0  0
   13.5959  -19.9794   21.7858 C   0  0  0  0  0  0  0  0  0  0  0  0
   13.4651  -20.8081   22.8865 C   0  0  0  0  0  0  0  0  0  0  0  0
   12.2954  -21.4776   23.1016 C   0  0  0  0  0  0  0  0  0  0  0  0
   11.2210  -21.3396   22.2240 C   0  0  0  0  0  0  0  0  0  0  0  0
    9.5207  -18.1516   20.9812 C   0  0  0  0  0  0  0  0  0  0  0  0
   10.4973  -17.7850   20.2658 O   0  0  0  0  0  0  0  0  0  0  0  0
    5.9777  -15.3812   21.8245 N   0  0  0  0  0  0  0  0  0  0  0  0
    7.1594  -15.5545   21.0088 C   0  0  0  0  0  0  0  0  0  0  0  0
    7.0421  -16.1983   19.9531 O   0  0  0  0  0  0  0  0  0  0  0  0
    8.3894  -14.9631   21.4883 C   0  0  0  0  0  0  0  0  0  0  0  0
    9.4854  -15.8798   21.9657 C   0  0  2  0  0  0  0  0  0  0  0  0
    8.9121  -17.2561   21.8914 N   0  0  0  0  0  0  0  0  0  0  0  0
    9.8307  -15.7227   23.4000 C   0  0  0  0  0  0  0  0  0  0  0  0
   10.4403  -14.6395   23.7545 O   0  0  0  0  0  0  0  0  0  0  0  0
    9.5716  -16.6136   24.4473 N   0  0  0  0  0  0  0  0  0  0  0  0
   10.1704  -16.4280   25.7367 C   0  0  1  0  0  0  0  0  0  0  0  0
    9.1416  -16.3669   26.8441 C   0  0  0  0  0  0  0  0  0  0  0  0
    7.9725  -15.6056   26.3501 C   0  0  0  0  0  0  0  0  0  0  0  0
    6.8083  -16.0784   25.7423 C   0  0  0  0  0  0  0  0  0  0  0  0
    6.0061  -15.0266   25.4480 N   0  0  0  0  0  0  0  0  0  0  0  0
    6.5879  -13.8867   25.8332 C   0  0  0  0  0  0  0  0  0  0  0  0
    6.1852  -12.5789   25.7542 C   0  0  0  0  0  0  0  0  0  0  0  0
    6.9923  -11.5453   26.2375 C   0  0  0  0  0  0  0  0  0  0  0  0
    8.2066  -11.8807   26.7960 C   0  0  0  0  0  0  0  0  0  0  0  0
    8.5966  -13.2012   26.8673 C   0  0  0  0  0  0  0  0  0  0  0  0
    7.7993  -14.2210   26.3908 C   0  0  0  0  0  0  0  0  0  0  0  0
   11.0888  -17.5511   26.0160 C   0  0  0  0  0  0  0  0  0  0  0  0
   11.1139  -18.5134   25.1770 O   0  0  0  0  0  0  0  0  0  0  0  0
   11.9247  -17.6361   27.1191 O   0  0  0  0  0  0  0  0  0  0  0  0
  2  1  1  6
  3  2  1  0
  4  5  2  0
  4  3  1  0
  6  5  1  0
  7  6  2  0
  8  7  1  0
  8  9  2  0
  9  4  1  0
 10  2  1  0
 11 10  2  0
 13 14  2  0
 13 12  1  0
 15 13  1  0
 16 17  1  0
 16 15  1  1
 17 10  1  0
 18 16  1  0
 19 18  2  0
 20 18  1  0
 21 20  1  0
 21 22  1  1
 23 22  1  0
 23 31  1  0
 24 25  1  0
 24 23  2  0
 25 26  1  0
 26 31  2  0
 26 27  1  0
 27 28  2  0
 28 29  1  0
 30 29  2  0
 31 30  1  0
 32 21  1  0
 32 34  1  0
 33 32  2  0
M  END
$$$$
