YIH.pdb
     RDKit          3D

 31 32  0  0  1  0  0  0  0  0999 V2000
    7.1634  -14.1186   15.6932 O   0  0  0  0  0  0  0  0  0  0  0  0
    7.3673  -14.0722   17.0705 C   0  0  0  0  0  0  0  0  0  0  0  0
    7.5864  -15.2198   17.8045 C   0  0  0  0  0  0  0  0  0  0  0  0
    7.7881  -15.1696   19.1695 C   0  0  0  0  0  0  0  0  0  0  0  0
    7.7802  -13.9753   19.8605 C   0  0  0  0  0  0  0  0  0  0  0  0
    7.9992  -13.9510   21.3237 C   0  0  0  0  0  0  0  0  0  0  0  0
    8.3801  -15.2780   21.8866 C   0  0  2  0  0  0  0  0  0  0  0  0
    7.2693  -16.2010   21.9757 N   0  0  0  0  0  0  0  0  0  0  0  0
    8.9431  -15.0136   23.2666 C   0  0  0  0  0  0  0  0  0  0  0  0
   10.0624  -14.4561   23.2618 O   0  0  0  0  0  0  0  0  0  0  0  0
    7.5606  -12.8310   19.1207 C   0  0  0  0  0  0  0  0  0  0  0  0
    7.3581  -12.8745   17.7551 C   0  0  0  0  0  0  0  0  0  0  0  0
    6.1135  -12.3562   26.4389 C   0  0  0  0  0  0  0  0  0  0  0  0
    7.2593  -12.9984   25.6283 C   0  0  0  0  0  0  0  0  0  0  0  0
    7.7768  -14.1459   26.4467 C   0  0  2  0  0  0  0  0  0  0  0  0
    8.2380  -13.6598   27.8007 C   0  0  0  0  0  0  0  0  0  0  0  0
    8.6862  -15.0973   25.7866 C   0  0  2  0  0  0  0  0  0  0  0  0
    8.2522  -15.3710   24.4261 N   0  0  0  0  0  0  0  0  0  0  0  0
    9.0922  -16.3224   26.4455 C   0  0  0  0  0  0  0  0  0  0  0  0
    8.2288  -17.1465   26.8401 O   0  0  0  0  0  0  0  0  0  0  0  0
   10.4444  -16.7213   26.7058 N   0  0  0  0  0  0  0  0  0  0  0  0
   10.6845  -17.9686   27.4139 C   0  0  1  0  0  0  0  0  0  0  0  0
   11.9005  -18.6865   26.8663 C   0  0  0  0  0  0  0  0  0  0  0  0
   11.7722  -18.8765   25.3941 C   0  0  0  0  0  0  0  0  0  0  0  0
   10.9296  -19.8113   24.8289 C   0  0  0  0  0  0  0  0  0  0  0  0
   11.0912  -19.6813   23.4993 N   0  0  0  0  0  0  0  0  0  0  0  0
   11.9887  -18.7158   23.2213 C   0  0  0  0  0  0  0  0  0  0  0  0
   12.4015  -18.2269   24.3993 N   0  0  0  0  0  0  0  0  0  0  0  0
   10.8343  -17.6490   28.8439 C   0  0  0  0  0  0  0  0  0  0  0  0
   10.8584  -18.7189   29.7438 O   0  0  0  0  0  0  0  0  0  0  0  0
   10.9381  -16.4766   29.2681 O   0  0  0  0  0  0  0  0  0  0  0  0
  2 12  2  0
  2  1  1  0
  3  2  1  0
  4  5  1  0
  4  3  2  0
  5 11  2  0
  6  5  1  0
  7  6  1  0
  7  8  1  1
  9  7  1  0
  9 10  2  0
 11 12  1  0
 13 14  1  0
 14 15  1  0
 15 17  1  0
 15 16  1  1
 17 18  1  6
 18  9  1  0
 19 17  1  0
 19 21  1  0
 20 19  2  0
 22 21  1  0
 22 29  1  0
 22 23  1  6
 24 23  1  0
 24 25  2  0
 26 25  1  0
 27 26  1  0
 28 27  2  0
 28 24  1  0
 29 31  2  0
 29 30  1  0
M  END
$$$$
