YIH.pdb
     RDKit          3D

 31 32  0  0  1  0  0  0  0  0999 V2000
    7.2185  -22.0100   12.9232 O   0  0  0  0  0  0  0  0  0  0  0  0
    7.6377  -21.1751   13.9566 C   0  0  0  0  0  0  0  0  0  0  0  0
    6.8229  -20.1775   14.4511 C   0  0  0  0  0  0  0  0  0  0  0  0
    7.2421  -19.3520   15.4755 C   0  0  0  0  0  0  0  0  0  0  0  0
    8.4895  -19.4852   16.0500 C   0  0  0  0  0  0  0  0  0  0  0  0
    8.9128  -18.5864   17.1466 C   0  0  0  0  0  0  0  0  0  0  0  0
    8.9449  -17.1486   16.7535 C   0  0  2  0  0  0  0  0  0  0  0  0
    9.8266  -16.8808   15.6379 N   0  0  0  0  0  0  0  0  0  0  0  0
    9.4078  -16.3802   17.9727 C   0  0  0  0  0  0  0  0  0  0  0  0
   10.6502  -16.2722   18.0654 O   0  0  0  0  0  0  0  0  0  0  0  0
    9.2998  -20.4848   15.5509 C   0  0  0  0  0  0  0  0  0  0  0  0
    8.8864  -21.3138   14.5264 C   0  0  0  0  0  0  0  0  0  0  0  0
    6.8057  -12.0170   19.6839 C   0  0  0  0  0  0  0  0  0  0  0  0
    7.9672  -12.9669   19.3219 C   0  0  0  0  0  0  0  0  0  0  0  0
    8.0104  -14.0224   20.3888 C   0  0  2  0  0  0  0  0  0  0  0  0
    8.1733  -13.3874   21.7500 C   0  0  0  0  0  0  0  0  0  0  0  0
    8.8612  -15.1996   20.1478 C   0  0  2  0  0  0  0  0  0  0  0  0
    8.5054  -15.8494   18.8967 N   0  0  0  0  0  0  0  0  0  0  0  0
    9.0837  -16.1856   21.1861 C   0  0  0  0  0  0  0  0  0  0  0  0
    8.3792  -17.2257   21.2345 O   0  0  0  0  0  0  0  0  0  0  0  0
   10.0769  -16.1027   22.2166 N   0  0  0  0  0  0  0  0  0  0  0  0
   10.6535  -17.3324   22.7365 C   0  0  1  0  0  0  0  0  0  0  0  0
   11.1405  -18.2281   21.6165 C   0  0  0  0  0  0  0  0  0  0  0  0
   11.6710  -19.5067   22.1675 C   0  0  0  0  0  0  0  0  0  0  0  0
   11.0734  -20.1779   23.2143 C   0  0  0  0  0  0  0  0  0  0  0  0
   11.8329  -21.2695   23.4197 N   0  0  0  0  0  0  0  0  0  0  0  0
   12.8641  -21.3016   22.5534 C   0  0  0  0  0  0  0  0  0  0  0  0
   12.7529  -20.2080   21.7860 N   0  0  0  0  0  0  0  0  0  0  0  0
   11.7436  -16.9613   23.6551 C   0  0  0  0  0  0  0  0  0  0  0  0
   12.0969  -15.6101   23.7226 O   0  0  0  0  0  0  0  0  0  0  0  0
   12.3489  -17.7988   24.3603 O   0  0  0  0  0  0  0  0  0  0  0  0
  2 12  2  0
  2  1  1  0
  3  2  1  0
  4  5  1  0
  4  3  2  0
  5 11  2  0
  6  5  1  0
  7  6  1  0
  7  8  1  6
  9  7  1  0
  9 10  2  0
 11 12  1  0
 13 14  1  0
 14 15  1  0
 15 17  1  0
 15 16  1  1
 17 18  1  6
 18  9  1  0
 19 17  1  0
 19 21  1  0
 20 19  2  0
 22 21  1  0
 22 29  1  0
 22 23  1  6
 24 23  1  0
 24 25  2  0
 26 25  1  0
 27 26  1  0
 28 27  2  0
 28 24  1  0
 29 31  2  0
 29 30  1  0
M  END
$$$$
