YIH.pdb
     RDKit          3D

 31 32  0  0  1  0  0  0  0  0999 V2000
    6.7198  -21.7091   18.5709 O   0  0  0  0  0  0  0  0  0  0  0  0
    7.0952  -20.7705   19.5294 C   0  0  0  0  0  0  0  0  0  0  0  0
    6.1588  -20.1305   20.3151 C   0  0  0  0  0  0  0  0  0  0  0  0
    6.5349  -19.2008   21.2641 C   0  0  0  0  0  0  0  0  0  0  0  0
    7.8584  -18.8695   21.4705 C   0  0  0  0  0  0  0  0  0  0  0  0
    8.2329  -17.8694   22.4947 C   0  0  0  0  0  0  0  0  0  0  0  0
    8.2373  -16.4699   21.9807 C   0  0  2  0  0  0  0  0  0  0  0  0
    9.0616  -16.2959   20.8042 N   0  0  0  0  0  0  0  0  0  0  0  0
    8.7551  -15.6005   23.1064 C   0  0  0  0  0  0  0  0  0  0  0  0
    9.9983  -15.6260   23.2392 O   0  0  0  0  0  0  0  0  0  0  0  0
    8.7902  -19.5131   20.6815 C   0  0  0  0  0  0  0  0  0  0  0  0
    8.4204  -20.4440   19.7305 C   0  0  0  0  0  0  0  0  0  0  0  0
    6.7967  -11.0673   26.7130 C   0  0  0  0  0  0  0  0  0  0  0  0
    7.8704  -12.1682   26.5798 C   0  0  0  0  0  0  0  0  0  0  0  0
    7.4112  -13.0891   25.4864 C   0  0  2  0  0  0  0  0  0  0  0  0
    5.9307  -13.3612   25.6157 C   0  0  0  0  0  0  0  0  0  0  0  0
    8.2372  -14.2746   25.2033 C   0  0  2  0  0  0  0  0  0  0  0  0
    7.8978  -14.8465   23.9103 N   0  0  0  0  0  0  0  0  0  0  0  0
    8.4063  -15.3205   26.1919 C   0  0  0  0  0  0  0  0  0  0  0  0
    7.7892  -16.4095   26.0751 O   0  0  0  0  0  0  0  0  0  0  0  0
    9.2506  -15.2472   27.3482 N   0  0  0  0  0  0  0  0  0  0  0  0
   10.0257  -16.4178   27.7271 C   0  0  1  0  0  0  0  0  0  0  0  0
   10.9984  -16.8106   26.6346 C   0  0  0  0  0  0  0  0  0  0  0  0
   11.8313  -17.9661   27.0718 C   0  0  0  0  0  0  0  0  0  0  0  0
   11.3763  -18.9303   27.9473 C   0  0  0  0  0  0  0  0  0  0  0  0
   12.3997  -19.7916   28.0945 N   0  0  0  0  0  0  0  0  0  0  0  0
   13.4572  -19.4050   27.3548 C   0  0  0  0  0  0  0  0  0  0  0  0
   13.0936  -18.2769   26.7284 N   0  0  0  0  0  0  0  0  0  0  0  0
   10.7164  -16.1069   28.9903 C   0  0  0  0  0  0  0  0  0  0  0  0
   11.0680  -17.1811   29.8134 O   0  0  0  0  0  0  0  0  0  0  0  0
   10.9917  -14.9380   29.3411 O   0  0  0  0  0  0  0  0  0  0  0  0
  2 12  2  0
  2  1  1  0
  3  2  1  0
  4  5  1  0
  4  3  2  0
  5 11  2  0
  6  5  1  0
  7  6  1  0
  7  8  1  6
  9  7  1  0
  9 10  2  0
 11 12  1  0
 13 14  1  0
 14 15  1  0
 15 17  1  0
 15 16  1  1
 17 18  1  6
 18  9  1  0
 19 17  1  0
 19 21  1  0
 20 19  2  0
 22 21  1  0
 22 29  1  0
 22 23  1  6
 24 23  1  0
 24 25  2  0
 26 25  1  0
 27 26  1  0
 28 27  2  0
 28 24  1  0
 29 31  2  0
 29 30  1  0
M  END
$$$$
