YIH.pdb
     RDKit          3D

 31 32  0  0  1  0  0  0  0  0999 V2000
   13.3093  -21.1599   13.6526 O   0  0  0  0  0  0  0  0  0  0  0  0
   13.0159  -20.3214   14.7256 C   0  0  0  0  0  0  0  0  0  0  0  0
   13.9083  -20.1400   15.7620 C   0  0  0  0  0  0  0  0  0  0  0  0
   13.6138  -19.3080   16.8238 C   0  0  0  0  0  0  0  0  0  0  0  0
   12.4188  -18.6221   16.8982 C   0  0  0  0  0  0  0  0  0  0  0  0
   12.1293  -17.7370   18.0480 C   0  0  0  0  0  0  0  0  0  0  0  0
   11.8077  -16.3366   17.6499 C   0  0  2  0  0  0  0  0  0  0  0  0
   12.8970  -15.6720   16.9676 N   0  0  0  0  0  0  0  0  0  0  0  0
   11.4683  -15.5948   18.9249 C   0  0  0  0  0  0  0  0  0  0  0  0
   12.4571  -15.0853   19.4963 O   0  0  0  0  0  0  0  0  0  0  0  0
   11.5302  -18.8078   15.8584 C   0  0  0  0  0  0  0  0  0  0  0  0
   11.8190  -19.6387   14.7935 C   0  0  0  0  0  0  0  0  0  0  0  0
    7.3514  -12.2013   19.2691 C   0  0  0  0  0  0  0  0  0  0  0  0
    8.7476  -12.8347   19.4475 C   0  0  0  0  0  0  0  0  0  0  0  0
    8.5831  -13.9804   20.4039 C   0  0  2  0  0  0  0  0  0  0  0  0
    7.8775  -13.5207   21.6582 C   0  0  0  0  0  0  0  0  0  0  0  0
    9.7492  -14.8499   20.6316 C   0  0  2  0  0  0  0  0  0  0  0  0
   10.1581  -15.5029   19.3986 N   0  0  0  0  0  0  0  0  0  0  0  0
    9.7772  -15.7880   21.7357 C   0  0  0  0  0  0  0  0  0  0  0  0
    9.1639  -16.8823   21.6539 O   0  0  0  0  0  0  0  0  0  0  0  0
   10.4700  -15.5964   22.9761 N   0  0  0  0  0  0  0  0  0  0  0  0
   10.4563  -16.6667   23.9606 C   0  0  1  0  0  0  0  0  0  0  0  0
   11.7108  -16.6496   24.8091 C   0  0  0  0  0  0  0  0  0  0  0  0
   11.6586  -17.7289   25.8349 C   0  0  0  0  0  0  0  0  0  0  0  0
   11.0492  -18.9465   25.6126 C   0  0  0  0  0  0  0  0  0  0  0  0
   11.2082  -19.6402   26.7546 N   0  0  0  0  0  0  0  0  0  0  0  0
   11.8830  -18.9108   27.6643 C   0  0  0  0  0  0  0  0  0  0  0  0
   12.1552  -17.7332   27.0844 N   0  0  0  0  0  0  0  0  0  0  0  0
    9.2403  -16.5081   24.7765 C   0  0  0  0  0  0  0  0  0  0  0  0
    8.8229  -17.6088   25.5310 O   0  0  0  0  0  0  0  0  0  0  0  0
    8.5848  -15.4432   24.8141 O   0  0  0  0  0  0  0  0  0  0  0  0
  2 12  2  0
  2  1  1  0
  3  2  1  0
  4  5  1  0
  4  3  2  0
  5 11  2  0
  6  5  1  0
  7  6  1  0
  7  8  1  1
  9  7  1  0
  9 10  2  0
 11 12  1  0
 13 14  1  0
 14 15  1  0
 15 17  1  0
 15 16  1  1
 17 18  1  6
 18  9  1  0
 19 17  1  0
 19 21  1  0
 20 19  2  0
 22 21  1  0
 22 29  1  0
 22 23  1  1
 24 23  1  0
 24 25  2  0
 26 25  1  0
 27 26  1  0
 28 27  2  0
 28 24  1  0
 29 31  2  0
 29 30  1  0
M  END
$$$$
