YIH.pdb
     RDKit          3D

 31 32  0  0  1  0  0  0  0  0999 V2000
    4.6025  -21.0409   17.8946 O   0  0  0  0  0  0  0  0  0  0  0  0
    5.3360  -20.1807   18.7087 C   0  0  0  0  0  0  0  0  0  0  0  0
    6.0089  -20.6423   19.8212 C   0  0  0  0  0  0  0  0  0  0  0  0
    6.7348  -19.7866   20.6257 C   0  0  0  0  0  0  0  0  0  0  0  0
    6.8211  -18.4360   20.3563 C   0  0  0  0  0  0  0  0  0  0  0  0
    7.6063  -17.5418   21.2356 C   0  0  0  0  0  0  0  0  0  0  0  0
    7.3276  -16.0950   21.0080 C   0  0  2  0  0  0  0  0  0  0  0  0
    7.6596  -15.6526   19.6709 N   0  0  0  0  0  0  0  0  0  0  0  0
    8.1531  -15.3337   22.0230 C   0  0  0  0  0  0  0  0  0  0  0  0
    9.2830  -14.9938   21.6087 O   0  0  0  0  0  0  0  0  0  0  0  0
    6.1458  -17.9805   19.2420 C   0  0  0  0  0  0  0  0  0  0  0  0
    5.4179  -18.8314   18.4334 C   0  0  0  0  0  0  0  0  0  0  0  0
    5.7171  -12.2145   25.7632 C   0  0  0  0  0  0  0  0  0  0  0  0
    6.6178  -12.7592   24.6342 C   0  0  0  0  0  0  0  0  0  0  0  0
    7.6154  -13.6757   25.2818 C   0  0  2  0  0  0  0  0  0  0  0  0
    8.3648  -12.9491   26.3740 C   0  0  0  0  0  0  0  0  0  0  0  0
    8.4542  -14.5023   24.3982 C   0  0  2  0  0  0  0  0  0  0  0  0
    7.6710  -15.0496   23.3023 N   0  0  0  0  0  0  0  0  0  0  0  0
    9.3422  -15.5110   24.9402 C   0  0  0  0  0  0  0  0  0  0  0  0
    8.9221  -16.6759   25.1563 O   0  0  0  0  0  0  0  0  0  0  0  0
   10.7239  -15.3164   25.2694 N   0  0  0  0  0  0  0  0  0  0  0  0
   11.1375  -15.4311   26.6589 C   0  0  1  0  0  0  0  0  0  0  0  0
    9.9969  -15.1060   27.6009 C   0  0  0  0  0  0  0  0  0  0  0  0
   10.4115  -15.3283   29.0146 C   0  0  0  0  0  0  0  0  0  0  0  0
   11.3327  -14.5299   29.6607 C   0  0  0  0  0  0  0  0  0  0  0  0
   11.4406  -15.0399   30.9013 N   0  0  0  0  0  0  0  0  0  0  0  0
   10.6337  -16.1086   31.0482 C   0  0  0  0  0  0  0  0  0  0  0  0
   10.0040  -16.2762   29.8767 N   0  0  0  0  0  0  0  0  0  0  0  0
   11.6442  -16.7990   26.8630 C   0  0  0  0  0  0  0  0  0  0  0  0
   10.7004  -17.8172   27.0295 O   0  0  0  0  0  0  0  0  0  0  0  0
   12.8649  -17.0714   26.8911 O   0  0  0  0  0  0  0  0  0  0  0  0
  2 12  2  0
  2  1  1  0
  3  2  1  0
  4  5  1  0
  4  3  2  0
  5 11  2  0
  6  5  1  0
  7  6  1  0
  7  8  1  6
  9  7  1  0
  9 10  2  0
 11 12  1  0
 13 14  1  0
 14 15  1  0
 15 17  1  0
 15 16  1  6
 17 18  1  6
 18  9  1  0
 19 17  1  0
 19 21  1  0
 20 19  2  0
 22 21  1  0
 22 29  1  0
 22 23  1  1
 24 23  1  0
 24 25  2  0
 26 25  1  0
 27 26  1  0
 28 27  2  0
 28 24  1  0
 29 31  2  0
 29 30  1  0
M  END
$$$$
