YIH.pdb
     RDKit          3D

 31 32  0  0  1  0  0  0  0  0999 V2000
   12.7281  -19.6344   31.9503 O   0  0  0  0  0  0  0  0  0  0  0  0
   12.0217  -19.1622   30.8464 C   0  0  0  0  0  0  0  0  0  0  0  0
   11.7390  -19.9781   29.7703 C   0  0  0  0  0  0  0  0  0  0  0  0
   11.0385  -19.5063   28.6779 C   0  0  0  0  0  0  0  0  0  0  0  0
   10.5905  -18.2030   28.6113 C   0  0  0  0  0  0  0  0  0  0  0  0
    9.8420  -17.7240   27.4282 C   0  0  0  0  0  0  0  0  0  0  0  0
    8.3633  -17.7377   27.6187 C   0  0  2  0  0  0  0  0  0  0  0  0
    7.8169  -19.0707   27.7536 N   0  0  0  0  0  0  0  0  0  0  0  0
    7.7676  -17.0565   26.4053 C   0  0  0  0  0  0  0  0  0  0  0  0
    6.9782  -17.7750   25.7540 O   0  0  0  0  0  0  0  0  0  0  0  0
   10.8764  -17.3918   29.6909 C   0  0  0  0  0  0  0  0  0  0  0  0
   11.5766  -17.8578   30.7864 C   0  0  0  0  0  0  0  0  0  0  0  0
    6.6978  -11.9025   26.9559 C   0  0  0  0  0  0  0  0  0  0  0  0
    6.2806  -13.2318   26.2916 C   0  0  0  0  0  0  0  0  0  0  0  0
    7.3555  -13.5757   25.3013 C   0  0  2  0  0  0  0  0  0  0  0  0
    7.3072  -12.6303   24.1238 C   0  0  0  0  0  0  0  0  0  0  0  0
    7.5290  -14.9950   24.9504 C   0  0  2  0  0  0  0  0  0  0  0  0
    8.0887  -15.7406   26.0661 N   0  0  0  0  0  0  0  0  0  0  0  0
    8.1668  -15.3849   23.7090 C   0  0  0  0  0  0  0  0  0  0  0  0
    7.7418  -14.9431   22.6115 O   0  0  0  0  0  0  0  0  0  0  0  0
    9.2940  -16.2627   23.5897 N   0  0  0  0  0  0  0  0  0  0  0  0
    9.8569  -16.5075   22.2714 C   0  0  1  0  0  0  0  0  0  0  0  0
    9.0739  -15.7835   21.1959 C   0  0  0  0  0  0  0  0  0  0  0  0
    9.6303  -16.0955   19.8495 C   0  0  0  0  0  0  0  0  0  0  0  0
   10.6756  -16.9747   19.6549 C   0  0  0  0  0  0  0  0  0  0  0  0
   10.8872  -16.9908   18.3261 N   0  0  0  0  0  0  0  0  0  0  0  0
   10.0261  -16.1675   17.6972 C   0  0  0  0  0  0  0  0  0  0  0  0
    9.2557  -15.6209   18.6485 N   0  0  0  0  0  0  0  0  0  0  0  0
   11.2673  -16.0839   22.3019 C   0  0  0  0  0  0  0  0  0  0  0  0
   12.1925  -16.8753   21.6143 O   0  0  0  0  0  0  0  0  0  0  0  0
   11.6537  -15.0613   22.9103 O   0  0  0  0  0  0  0  0  0  0  0  0
  2 12  2  0
  2  1  1  0
  3  2  1  0
  4  5  1  0
  4  3  2  0
  5 11  2  0
  6  5  1  0
  7  6  1  0
  7  8  1  6
  9  7  1  0
  9 10  2  0
 11 12  1  0
 13 14  1  0
 14 15  1  0
 15 17  1  0
 15 16  1  6
 17 18  1  1
 18  9  1  0
 19 17  1  0
 19 21  1  0
 20 19  2  0
 22 21  1  0
 22 29  1  0
 22 23  1  6
 24 23  1  0
 24 25  2  0
 26 25  1  0
 27 26  1  0
 28 27  2  0
 28 24  1  0
 29 31  2  0
 29 30  1  0
M  END
$$$$
