YIH.pdb
     RDKit          3D

 31 32  0  0  1  0  0  0  0  0999 V2000
   10.5464  -20.5857   11.3377 O   0  0  0  0  0  0  0  0  0  0  0  0
   10.6419  -19.8449   12.5136 C   0  0  0  0  0  0  0  0  0  0  0  0
   11.8456  -19.3211   12.9382 C   0  0  0  0  0  0  0  0  0  0  0  0
   11.9362  -18.5873   14.1043 C   0  0  0  0  0  0  0  0  0  0  0  0
   10.8325  -18.3446   14.8961 C   0  0  0  0  0  0  0  0  0  0  0  0
   10.9585  -17.5548   16.1411 C   0  0  0  0  0  0  0  0  0  0  0  0
   10.3301  -16.2057   16.0515 C   0  0  2  0  0  0  0  0  0  0  0  0
   10.9297  -15.3621   15.0404 N   0  0  0  0  0  0  0  0  0  0  0  0
   10.4868  -15.5676   17.4151 C   0  0  0  0  0  0  0  0  0  0  0  0
   11.5993  -15.0272   17.5998 O   0  0  0  0  0  0  0  0  0  0  0  0
    9.6314  -18.8712   14.4660 C   0  0  0  0  0  0  0  0  0  0  0  0
    9.5343  -19.6060   13.3005 C   0  0  0  0  0  0  0  0  0  0  0  0
    7.0239  -12.1645   19.2595 C   0  0  0  0  0  0  0  0  0  0  0  0
    8.3653  -12.8729   18.9745 C   0  0  0  0  0  0  0  0  0  0  0  0
    8.4384  -14.0495   19.9045 C   0  0  2  0  0  0  0  0  0  0  0  0
    8.2495  -13.6013   21.3348 C   0  0  0  0  0  0  0  0  0  0  0  0
    9.5302  -15.0150   19.6961 C   0  0  2  0  0  0  0  0  0  0  0  0
    9.4631  -15.5946   18.3643 N   0  0  0  0  0  0  0  0  0  0  0  0
    9.8205  -16.0381   20.6804 C   0  0  0  0  0  0  0  0  0  0  0  0
    9.0112  -16.9805   20.8733 O   0  0  0  0  0  0  0  0  0  0  0  0
   10.9961  -16.0992   21.4987 N   0  0  0  0  0  0  0  0  0  0  0  0
   11.1413  -17.1998   22.4381 C   0  0  1  0  0  0  0  0  0  0  0  0
   12.5769  -17.6772   22.5084 C   0  0  0  0  0  0  0  0  0  0  0  0
   12.9658  -18.3430   21.2335 C   0  0  0  0  0  0  0  0  0  0  0  0
   12.0504  -18.7074   20.2678 C   0  0  0  0  0  0  0  0  0  0  0  0
   12.7741  -19.2706   19.2830 N   0  0  0  0  0  0  0  0  0  0  0  0
   14.0845  -19.2699   19.5955 C   0  0  0  0  0  0  0  0  0  0  0  0
   14.1896  -18.6946   20.8018 N   0  0  0  0  0  0  0  0  0  0  0  0
   10.6527  -16.7366   23.7482 C   0  0  0  0  0  0  0  0  0  0  0  0
   10.6445  -17.6620   24.7964 O   0  0  0  0  0  0  0  0  0  0  0  0
   10.2540  -15.5676   23.9470 O   0  0  0  0  0  0  0  0  0  0  0  0
  2 12  2  0
  2  1  1  0
  3  2  1  0
  4  5  1  0
  4  3  2  0
  5 11  2  0
  6  5  1  0
  7  6  1  0
  7  8  1  6
  9  7  1  0
  9 10  2  0
 11 12  1  0
 13 14  1  0
 14 15  1  0
 15 17  1  0
 15 16  1  1
 17 18  1  6
 18  9  1  0
 19 17  1  0
 19 21  1  0
 20 19  2  0
 22 21  1  0
 22 29  1  0
 22 23  1  1
 24 23  1  0
 24 25  2  0
 26 25  1  0
 27 26  1  0
 28 27  2  0
 28 24  1  0
 29 31  2  0
 29 30  1  0
M  END
$$$$
