YIH.pdb
     RDKit          3D

 31 32  0  0  1  0  0  0  0  0999 V2000
    6.0904  -19.6521   17.1073 O   0  0  0  0  0  0  0  0  0  0  0  0
    6.5963  -19.0465   18.2552 C   0  0  0  0  0  0  0  0  0  0  0  0
    7.8433  -18.4563   18.2674 C   0  0  0  0  0  0  0  0  0  0  0  0
    8.3413  -17.8570   19.4073 C   0  0  0  0  0  0  0  0  0  0  0  0
    7.6187  -17.8203   20.5823 C   0  0  0  0  0  0  0  0  0  0  0  0
    8.1770  -17.1712   21.7891 C   0  0  0  0  0  0  0  0  0  0  0  0
    8.1404  -15.6819   21.7299 C   0  0  2  0  0  0  0  0  0  0  0  0
    8.8957  -15.1354   20.6233 N   0  0  0  0  0  0  0  0  0  0  0  0
    8.7132  -15.1858   23.0403 C   0  0  0  0  0  0  0  0  0  0  0  0
    9.9520  -15.0161   23.0229 O   0  0  0  0  0  0  0  0  0  0  0  0
    6.3721  -18.4124   20.5637 C   0  0  0  0  0  0  0  0  0  0  0  0
    5.8684  -19.0135   19.4267 C   0  0  0  0  0  0  0  0  0  0  0  0
    5.8794  -11.7712   25.9255 C   0  0  0  0  0  0  0  0  0  0  0  0
    7.1272  -12.3940   25.2640 C   0  0  0  0  0  0  0  0  0  0  0  0
    7.5129  -13.5798   26.1003 C   0  0  2  0  0  0  0  0  0  0  0  0
    7.9360  -13.1342   27.4805 C   0  0  0  0  0  0  0  0  0  0  0  0
    8.3826  -14.5946   25.4825 C   0  0  2  0  0  0  0  0  0  0  0  0
    7.9065  -14.9469   24.1546 N   0  0  0  0  0  0  0  0  0  0  0  0
    8.7782  -15.7830   26.2112 C   0  0  0  0  0  0  0  0  0  0  0  0
    8.0770  -16.8248   26.1541 O   0  0  0  0  0  0  0  0  0  0  0  0
    9.9481  -15.9088   27.0302 N   0  0  0  0  0  0  0  0  0  0  0  0
   10.7210  -17.1391   26.9661 C   0  0  1  0  0  0  0  0  0  0  0  0
   11.9161  -16.9906   26.0476 C   0  0  0  0  0  0  0  0  0  0  0  0
   12.7660  -18.2133   26.0997 C   0  0  0  0  0  0  0  0  0  0  0  0
   12.4561  -19.3099   26.8774 C   0  0  0  0  0  0  0  0  0  0  0  0
   13.4463  -20.1946   26.6593 N   0  0  0  0  0  0  0  0  0  0  0  0
   14.3460  -19.6968   25.7889 C   0  0  0  0  0  0  0  0  0  0  0  0
   13.9146  -18.4733   25.4510 N   0  0  0  0  0  0  0  0  0  0  0  0
   11.1248  -17.4852   28.3397 C   0  0  0  0  0  0  0  0  0  0  0  0
   10.7327  -16.6179   29.3641 O   0  0  0  0  0  0  0  0  0  0  0  0
   11.7924  -18.5077   28.6115 O   0  0  0  0  0  0  0  0  0  0  0  0
  2 12  2  0
  2  1  1  0
  3  2  1  0
  4  5  1  0
  4  3  2  0
  5 11  2  0
  6  5  1  0
  7  6  1  0
  7  8  1  6
  9  7  1  0
  9 10  2  0
 11 12  1  0
 13 14  1  0
 14 15  1  0
 15 17  1  0
 15 16  1  1
 17 18  1  6
 18  9  1  0
 19 17  1  0
 19 21  1  0
 20 19  2  0
 22 21  1  0
 22 29  1  0
 22 23  1  6
 24 23  1  0
 24 25  2  0
 26 25  1  0
 27 26  1  0
 28 27  2  0
 28 24  1  0
 29 31  2  0
 29 30  1  0
M  END
$$$$
