YIH.pdb
     RDKit          3D

 31 32  0  0  1  0  0  0  0  0999 V2000
    6.7931  -13.8978   15.3000 O   0  0  0  0  0  0  0  0  0  0  0  0
    7.0165  -14.1539   16.6509 C   0  0  0  0  0  0  0  0  0  0  0  0
    7.0137  -15.4404   17.1494 C   0  0  0  0  0  0  0  0  0  0  0  0
    7.2355  -15.6901   18.4892 C   0  0  0  0  0  0  0  0  0  0  0  0
    7.4693  -14.6698   19.3882 C   0  0  0  0  0  0  0  0  0  0  0  0
    7.7040  -14.9663   20.8187 C   0  0  0  0  0  0  0  0  0  0  0  0
    9.0189  -14.4707   21.3173 C   0  0  2  0  0  0  0  0  0  0  0  0
   10.1452  -14.9902   20.5721 N   0  0  0  0  0  0  0  0  0  0  0  0
    9.1177  -14.8979   22.7660 C   0  0  0  0  0  0  0  0  0  0  0  0
   10.0495  -15.6988   22.9985 O   0  0  0  0  0  0  0  0  0  0  0  0
    7.4708  -13.3852   18.8834 C   0  0  0  0  0  0  0  0  0  0  0  0
    7.2496  -13.1288   17.5443 C   0  0  0  0  0  0  0  0  0  0  0  0
    7.2014  -11.7364   27.6174 C   0  0  0  0  0  0  0  0  0  0  0  0
    7.9889  -13.0138   27.2560 C   0  0  0  0  0  0  0  0  0  0  0  0
    7.7427  -13.2747   25.7980 C   0  0  2  0  0  0  0  0  0  0  0  0
    6.2604  -13.2710   25.5064 C   0  0  0  0  0  0  0  0  0  0  0  0
    8.4964  -14.3702   25.1658 C   0  0  2  0  0  0  0  0  0  0  0  0
    8.2330  -14.4241   23.7369 N   0  0  0  0  0  0  0  0  0  0  0  0
    8.4928  -15.7038   25.7328 C   0  0  0  0  0  0  0  0  0  0  0  0
    7.4765  -16.4359   25.6252 O   0  0  0  0  0  0  0  0  0  0  0  0
    9.5825  -16.3144   26.4362 N   0  0  0  0  0  0  0  0  0  0  0  0
    9.3937  -17.6365   27.0120 C   0  0  1  0  0  0  0  0  0  0  0  0
   10.4322  -18.6128   26.4999 C   0  0  0  0  0  0  0  0  0  0  0  0
   10.1922  -18.9192   25.0617 C   0  0  0  0  0  0  0  0  0  0  0  0
   10.4037  -18.0014   24.0535 C   0  0  0  0  0  0  0  0  0  0  0  0
   10.0807  -18.6404   22.9142 N   0  0  0  0  0  0  0  0  0  0  0  0
    9.6825  -19.9013   23.1723 C   0  0  0  0  0  0  0  0  0  0  0  0
    9.7559  -20.0609   24.5013 N   0  0  0  0  0  0  0  0  0  0  0  0
    9.4473  -17.4975   28.4774 C   0  0  0  0  0  0  0  0  0  0  0  0
    9.6772  -16.2191   28.9951 O   0  0  0  0  0  0  0  0  0  0  0  0
    9.2968  -18.4660   29.2549 O   0  0  0  0  0  0  0  0  0  0  0  0
  2 12  2  0
  2  1  1  0
  3  2  1  0
  4  5  1  0
  4  3  2  0
  5 11  2  0
  6  5  1  0
  7  6  1  0
  7  8  1  6
  9  7  1  0
  9 10  2  0
 11 12  1  0
 13 14  1  0
 14 15  1  0
 15 17  1  0
 15 16  1  1
 17 18  1  6
 18  9  1  0
 19 17  1  0
 19 21  1  0
 20 19  2  0
 22 21  1  0
 22 29  1  0
 22 23  1  6
 24 23  1  0
 24 25  2  0
 26 25  1  0
 27 26  1  0
 28 27  2  0
 28 24  1  0
 29 31  2  0
 29 30  1  0
M  END
$$$$
