YIH.pdb
     RDKit          3D

 31 32  0  0  1  0  0  0  0  0999 V2000
    8.7939  -20.1460   28.8909 O   0  0  0  0  0  0  0  0  0  0  0  0
    8.1285  -20.0166   27.6739 C   0  0  0  0  0  0  0  0  0  0  0  0
    6.7614  -20.1774   27.5806 C   0  0  0  0  0  0  0  0  0  0  0  0
    6.1055  -20.0483   26.3725 C   0  0  0  0  0  0  0  0  0  0  0  0
    6.7832  -19.7538   25.2071 C   0  0  0  0  0  0  0  0  0  0  0  0
    6.0548  -19.6212   23.9260 C   0  0  0  0  0  0  0  0  0  0  0  0
    5.4238  -18.2831   23.7404 C   0  0  2  0  0  0  0  0  0  0  0  0
    4.6761  -18.1701   22.5068 N   0  0  0  0  0  0  0  0  0  0  0  0
    6.5497  -17.2715   23.7557 C   0  0  0  0  0  0  0  0  0  0  0  0
    7.1662  -17.1792   22.6716 O   0  0  0  0  0  0  0  0  0  0  0  0
    8.1505  -19.5940   25.3070 C   0  0  0  0  0  0  0  0  0  0  0  0
    8.8123  -19.7219   26.5126 C   0  0  0  0  0  0  0  0  0  0  0  0
    5.9837  -12.5635   26.3251 C   0  0  0  0  0  0  0  0  0  0  0  0
    6.3602  -13.5914   25.2369 C   0  0  0  0  0  0  0  0  0  0  0  0
    7.5227  -14.3781   25.7699 C   0  0  2  0  0  0  0  0  0  0  0  0
    8.6449  -13.4502   26.1724 C   0  0  0  0  0  0  0  0  0  0  0  0
    7.9438  -15.5684   25.0123 C   0  0  2  0  0  0  0  0  0  0  0  0
    6.8517  -16.5209   24.8937 N   0  0  0  0  0  0  0  0  0  0  0  0
    9.1822  -16.2529   25.3244 C   0  0  0  0  0  0  0  0  0  0  0  0
    9.3002  -16.8912   26.4010 O   0  0  0  0  0  0  0  0  0  0  0  0
   10.3489  -16.2883   24.4920 N   0  0  0  0  0  0  0  0  0  0  0  0
   11.4756  -17.1137   24.8969 C   0  0  1  0  0  0  0  0  0  0  0  0
   12.4108  -17.3762   23.7349 C   0  0  0  0  0  0  0  0  0  0  0  0
   11.7186  -18.1691   22.6803 C   0  0  0  0  0  0  0  0  0  0  0  0
   10.4699  -18.7277   22.8597 C   0  0  0  0  0  0  0  0  0  0  0  0
   10.1887  -19.3548   21.7028 N   0  0  0  0  0  0  0  0  0  0  0  0
   11.2000  -19.2093   20.8247 C   0  0  0  0  0  0  0  0  0  0  0  0
   12.1381  -18.4756   21.4401 N   0  0  0  0  0  0  0  0  0  0  0  0
   12.1585  -16.4249   26.0055 C   0  0  0  0  0  0  0  0  0  0  0  0
   13.2632  -17.0635   26.5774 O   0  0  0  0  0  0  0  0  0  0  0  0
   11.7889  -15.3118   26.4408 O   0  0  0  0  0  0  0  0  0  0  0  0
  2 12  2  0
  2  1  1  0
  3  2  1  0
  4  5  1  0
  4  3  2  0
  5 11  2  0
  6  5  1  0
  7  6  1  0
  7  8  1  6
  9  7  1  0
  9 10  2  0
 11 12  1  0
 13 14  1  0
 14 15  1  0
 15 17  1  0
 15 16  1  6
 17 18  1  1
 18  9  1  0
 19 17  1  0
 19 21  1  0
 20 19  2  0
 22 21  1  0
 22 29  1  0
 22 23  1  6
 24 23  1  0
 24 25  2  0
 26 25  1  0
 27 26  1  0
 28 27  2  0
 28 24  1  0
 29 31  2  0
 29 30  1  0
M  END
$$$$
