YIH.pdb
     RDKit          3D

 31 32  0  0  1  0  0  0  0  0999 V2000
    1.2572  -19.8782   19.7669 O   0  0  0  0  0  0  0  0  0  0  0  0
    2.2199  -19.2994   20.5907 C   0  0  0  0  0  0  0  0  0  0  0  0
    2.6353  -17.9967   20.4068 C   0  0  0  0  0  0  0  0  0  0  0  0
    3.5898  -17.4266   21.2255 C   0  0  0  0  0  0  0  0  0  0  0  0
    4.1705  -18.1295   22.2612 C   0  0  0  0  0  0  0  0  0  0  0  0
    5.1913  -17.4935   23.1231 C   0  0  0  0  0  0  0  0  0  0  0  0
    6.1515  -16.6375   22.3693 C   0  0  2  0  0  0  0  0  0  0  0  0
    6.8075  -17.3340   21.2839 N   0  0  0  0  0  0  0  0  0  0  0  0
    7.1799  -16.1599   23.3721 C   0  0  0  0  0  0  0  0  0  0  0  0
    8.3281  -16.6169   23.1810 O   0  0  0  0  0  0  0  0  0  0  0  0
    3.7508  -19.4322   22.4400 C   0  0  0  0  0  0  0  0  0  0  0  0
    2.7964  -20.0081   21.6245 C   0  0  0  0  0  0  0  0  0  0  0  0
    6.2631  -11.3700   25.5841 C   0  0  0  0  0  0  0  0  0  0  0  0
    7.0982  -12.4684   24.8922 C   0  0  0  0  0  0  0  0  0  0  0  0
    7.3990  -13.5044   25.9366 C   0  0  2  0  0  0  0  0  0  0  0  0
    8.3240  -12.9374   26.9880 C   0  0  0  0  0  0  0  0  0  0  0  0
    7.7434  -14.8586   25.4726 C   0  0  2  0  0  0  0  0  0  0  0  0
    6.8484  -15.2860   24.4094 N   0  0  0  0  0  0  0  0  0  0  0  0
    7.9633  -15.9375   26.4147 C   0  0  0  0  0  0  0  0  0  0  0  0
    6.9890  -16.5795   26.8825 O   0  0  0  0  0  0  0  0  0  0  0  0
    9.2402  -16.3802   26.8932 N   0  0  0  0  0  0  0  0  0  0  0  0
    9.4542  -17.8021   27.1101 C   0  0  1  0  0  0  0  0  0  0  0  0
    9.2140  -18.5943   25.8418 C   0  0  0  0  0  0  0  0  0  0  0  0
    9.5482  -20.0304   26.0554 C   0  0  0  0  0  0  0  0  0  0  0  0
   10.0229  -20.5200   27.2548 C   0  0  0  0  0  0  0  0  0  0  0  0
   10.2036  -21.8387   27.0568 N   0  0  0  0  0  0  0  0  0  0  0  0
    9.8642  -22.1818   25.7990 C   0  0  0  0  0  0  0  0  0  0  0  0
    9.4614  -21.0569   25.1913 N   0  0  0  0  0  0  0  0  0  0  0  0
   10.8277  -17.9757   27.6132 C   0  0  0  0  0  0  0  0  0  0  0  0
   11.1654  -19.2234   28.1464 O   0  0  0  0  0  0  0  0  0  0  0  0
   11.6815  -17.0620   27.5787 O   0  0  0  0  0  0  0  0  0  0  0  0
  2 12  2  0
  2  1  1  0
  3  2  1  0
  4  5  1  0
  4  3  2  0
  5 11  2  0
  6  5  1  0
  7  6  1  0
  7  8  1  6
  9  7  1  0
  9 10  2  0
 11 12  1  0
 13 14  1  0
 14 15  1  0
 15 17  1  0
 15 16  1  6
 17 18  1  6
 18  9  1  0
 19 17  1  0
 19 21  1  0
 20 19  2  0
 22 21  1  0
 22 29  1  0
 22 23  1  6
 24 23  1  0
 24 25  2  0
 26 25  1  0
 27 26  1  0
 28 27  2  0
 28 24  1  0
 29 31  2  0
 29 30  1  0
M  END
$$$$
