YIH.pdb
     RDKit          3D

 31 32  0  0  1  0  0  0  0  0999 V2000
    8.8649  -21.2220   11.5720 O   0  0  0  0  0  0  0  0  0  0  0  0
    9.1700  -20.4620   12.6989 C   0  0  0  0  0  0  0  0  0  0  0  0
    8.1839  -20.0159   13.5546 C   0  0  0  0  0  0  0  0  0  0  0  0
    8.4905  -19.2629   14.6705 C   0  0  0  0  0  0  0  0  0  0  0  0
    9.7911  -18.9225   14.9811 C   0  0  0  0  0  0  0  0  0  0  0  0
   10.0909  -18.1143   16.1837 C   0  0  0  0  0  0  0  0  0  0  0  0
    9.9016  -16.6503   15.9743 C   0  0  2  0  0  0  0  0  0  0  0  0
   10.7603  -16.1045   14.9455 N   0  0  0  0  0  0  0  0  0  0  0  0
   10.1989  -15.9847   17.3009 C   0  0  0  0  0  0  0  0  0  0  0  0
   11.4173  -15.8081   17.5204 O   0  0  0  0  0  0  0  0  0  0  0  0
   10.7730  -19.3717   14.1212 C   0  0  0  0  0  0  0  0  0  0  0  0
   10.4728  -20.1254   13.0034 C   0  0  0  0  0  0  0  0  0  0  0  0
    6.8057  -12.2082   19.2632 C   0  0  0  0  0  0  0  0  0  0  0  0
    8.1230  -12.9037   18.8589 C   0  0  0  0  0  0  0  0  0  0  0  0
    8.3112  -14.0551   19.8040 C   0  0  2  0  0  0  0  0  0  0  0  0
    8.2833  -13.5706   21.2347 C   0  0  0  0  0  0  0  0  0  0  0  0
    9.3797  -15.0203   19.4968 C   0  0  2  0  0  0  0  0  0  0  0  0
    9.1830  -15.6113   18.1830 N   0  0  0  0  0  0  0  0  0  0  0  0
    9.7686  -16.0345   20.4560 C   0  0  0  0  0  0  0  0  0  0  0  0
    9.2000  -17.1557   20.4593 O   0  0  0  0  0  0  0  0  0  0  0  0
   10.7900  -15.8932   21.4521 N   0  0  0  0  0  0  0  0  0  0  0  0
   11.2780  -17.0830   22.1311 C   0  0  1  0  0  0  0  0  0  0  0  0
   12.2982  -17.8184   21.2871 C   0  0  0  0  0  0  0  0  0  0  0  0
   12.7678  -19.0445   21.9915 C   0  0  0  0  0  0  0  0  0  0  0  0
   12.2503  -19.4596   23.2011 C   0  0  0  0  0  0  0  0  0  0  0  0
   12.9186  -20.5864   23.5085 N   0  0  0  0  0  0  0  0  0  0  0  0
   13.8180  -20.8826   22.5503 C   0  0  0  0  0  0  0  0  0  0  0  0
   13.7150  -19.9233   21.6196 N   0  0  0  0  0  0  0  0  0  0  0  0
   11.8396  -16.6601   23.4255 C   0  0  0  0  0  0  0  0  0  0  0  0
   12.2109  -17.6641   24.3252 O   0  0  0  0  0  0  0  0  0  0  0  0
   11.9910  -15.4581   23.7372 O   0  0  0  0  0  0  0  0  0  0  0  0
  2 12  2  0
  2  1  1  0
  3  2  1  0
  4  5  1  0
  4  3  2  0
  5 11  2  0
  6  5  1  0
  7  6  1  0
  7  8  1  6
  9  7  1  0
  9 10  2  0
 11 12  1  0
 13 14  1  0
 14 15  1  0
 15 17  1  0
 15 16  1  1
 17 18  1  6
 18  9  1  0
 19 17  1  0
 19 21  1  0
 20 19  2  0
 22 21  1  0
 22 29  1  0
 22 23  1  6
 24 23  1  0
 24 25  2  0
 26 25  1  0
 27 26  1  0
 28 27  2  0
 28 24  1  0
 29 31  2  0
 29 30  1  0
M  END
$$$$
