CRN.pdb
     RDKit          3D

 26 25  0  0  1  0  0  0  0  0999 V2000
    7.6135  -16.9454   27.0243 N   0  0  0  0  0  0  0  0  0  0  0  0
    8.0801  -15.7665   26.3162 C   0  0  1  0  0  0  0  0  0  0  0  0
    9.3685  -15.2565   26.8760 C   0  0  0  0  0  0  0  0  0  0  0  0
    9.1552  -13.8597   27.9947 S   0  0  0  0  0  0  0  0  0  0  0  0
    8.1663  -16.0433   24.8544 C   0  0  0  0  0  0  0  0  0  0  0  0
    8.2885  -17.2219   24.4588 O   0  0  0  0  0  0  0  0  0  0  0  0
    9.1299  -14.5127   17.2774 N   0  0  0  0  0  0  0  0  0  0  0  0
    7.8110  -14.0275   17.0655 C   0  0  0  0  0  0  0  0  0  0  0  0
    7.2616  -14.1782   15.9135 N   0  0  0  0  0  0  0  0  0  0  0  0
    7.1234  -13.3774   18.1491 N   0  0  0  0  0  0  0  0  0  0  0  0
    7.8676  -13.1267   19.3573 C   0  0  0  0  0  0  0  0  0  0  0  0
    8.1217  -14.3834   20.1513 C   0  0  0  0  0  0  0  0  0  0  0  0
    7.9448  -14.0489   21.6247 C   0  0  0  0  0  0  0  0  0  0  0  0
    8.2325  -15.2858   22.4775 C   0  0  2  0  0  0  0  0  0  0  0  0
    8.1159  -15.0059   23.8781 N   0  0  0  0  0  0  0  0  0  0  0  0
    9.6634  -15.6580   22.1652 C   0  0  0  0  0  0  0  0  0  0  0  0
    9.9153  -15.9851   20.9883 O   0  0  0  0  0  0  0  0  0  0  0  0
    6.3138  -13.7947   15.7294 N   0  0  0  0  0  0  0  0  0  0  0  0
   15.4217  -15.7168   23.6002 C   0  0  0  0  0  0  0  0  0  0  0  0
   14.3761  -15.3102   22.7289 O   0  0  0  0  0  0  0  0  0  0  0  0
   14.6260  -15.2835   21.4774 C   0  0  0  0  0  0  0  0  0  0  0  0
   13.0282  -14.9240   23.2521 C   0  0  2  0  0  0  0  0  0  0  0  0
   12.0431  -15.9431   22.7467 N   0  0  0  0  0  0  0  0  0  0  0  0
   10.6912  -15.6496   23.1116 C   0  0  0  0  0  0  0  0  0  0  0  0
   12.4138  -17.2937   23.2000 O   0  0  0  0  0  0  0  0  0  0  0  0
   11.9758  -17.7110   24.3242 O   0  0  0  0  0  0  0  0  0  0  0  0
  2  1  1  1
  3  2  1  0
  4  3  1  0
  5  2  1  0
  5  6  2  0
  7  8  1  0
  8 10  1  0
  8  9  2  0
 10 11  1  0
 11 12  1  0
 12 13  1  0
 14 13  1  6
 15 14  1  0
 15  5  1  0
 16 14  1  0
 17 16  2  0
 18 19  1  0
 19 21  1  0
 19 20  2  0
 22 21  1  6
 22 23  1  0
 22 24  1  0
 23 16  1  0
 24 26  1  0
 25 24  2  0
M  END
$$$$
