CRN.pdb
     RDKit          3D

 26 25  0  0  1  0  0  0  0  0999 V2000
    5.2385  -13.4891   26.7786 N   0  0  0  0  0  0  0  0  0  0  0  0
    6.4151  -13.0064   26.0775 C   0  0  1  0  0  0  0  0  0  0  0  0
    7.4895  -12.5798   27.0246 C   0  0  0  0  0  0  0  0  0  0  0  0
    6.9876  -11.2310   28.1095 S   0  0  0  0  0  0  0  0  0  0  0  0
    6.8905  -14.0288   25.1031 C   0  0  0  0  0  0  0  0  0  0  0  0
    6.7138  -15.2408   25.3493 O   0  0  0  0  0  0  0  0  0  0  0  0
    9.0324  -12.7945   18.3900 N   0  0  0  0  0  0  0  0  0  0  0  0
    8.3918  -13.7866   17.5994 C   0  0  0  0  0  0  0  0  0  0  0  0
    8.8310  -14.0302   16.4165 N   0  0  0  0  0  0  0  0  0  0  0  0
    7.2643  -14.4941   18.1451 N   0  0  0  0  0  0  0  0  0  0  0  0
    6.9066  -14.2249   19.5148 C   0  0  0  0  0  0  0  0  0  0  0  0
    7.7249  -15.0277   20.4948 C   0  0  0  0  0  0  0  0  0  0  0  0
    8.2354  -14.0766   21.5667 C   0  0  0  0  0  0  0  0  0  0  0  0
    7.9829  -14.6713   22.9533 C   0  0  2  0  0  0  0  0  0  0  0  0
    7.5475  -13.6763   23.8881 N   0  0  0  0  0  0  0  0  0  0  0  0
    9.3196  -15.2173   23.3992 C   0  0  0  0  0  0  0  0  0  0  0  0
    9.8855  -14.6219   24.3376 O   0  0  0  0  0  0  0  0  0  0  0  0
    8.4016  -14.7810   15.8410 N   0  0  0  0  0  0  0  0  0  0  0  0
   14.2831  -15.7300   24.7488 C   0  0  0  0  0  0  0  0  0  0  0  0
   13.5683  -16.1097   23.5815 O   0  0  0  0  0  0  0  0  0  0  0  0
   14.1252  -16.9443   22.7924 C   0  0  0  0  0  0  0  0  0  0  0  0
   12.2116  -15.5544   23.2804 C   0  0  2  0  0  0  0  0  0  0  0  0
   11.2637  -16.7188   23.1792 N   0  0  0  0  0  0  0  0  0  0  0  0
    9.9329  -16.3329   22.8233 C   0  0  0  0  0  0  0  0  0  0  0  0
   11.2546  -17.4920   24.4319 O   0  0  0  0  0  0  0  0  0  0  0  0
   12.1837  -18.3424   24.6408 O   0  0  0  0  0  0  0  0  0  0  0  0
  2  1  1  1
  3  2  1  0
  4  3  1  0
  5  2  1  0
  5  6  2  0
  7  8  1  0
  8 10  1  0
  8  9  2  0
 10 11  1  0
 11 12  1  0
 12 13  1  0
 14 13  1  6
 15 14  1  0
 15  5  1  0
 16 14  1  0
 17 16  2  0
 18 19  1  0
 19 21  1  0
 19 20  2  0
 22 21  1  6
 22 23  1  0
 22 24  1  0
 23 16  1  0
 24 26  1  0
 25 24  2  0
M  END
$$$$
