CRN.pdb
     RDKit          3D

 26 25  0  0  1  0  0  0  0  0999 V2000
    7.1723  -15.4157   19.3206 N   0  0  0  0  0  0  0  0  0  0  0  0
    7.7240  -14.6128   20.3976 C   0  0  1  0  0  0  0  0  0  0  0  0
    7.4520  -13.1567   20.1997 C   0  0  0  0  0  0  0  0  0  0  0  0
    8.2547  -12.1094   21.4272 S   0  0  0  0  0  0  0  0  0  0  0  0
    7.2324  -15.1083   21.7143 C   0  0  0  0  0  0  0  0  0  0  0  0
    6.0071  -15.0933   21.9575 O   0  0  0  0  0  0  0  0  0  0  0  0
    4.8393  -18.6888   20.2985 N   0  0  0  0  0  0  0  0  0  0  0  0
    3.8635  -19.1211   21.2371 C   0  0  0  0  0  0  0  0  0  0  0  0
    2.6177  -19.0442   20.9314 N   0  0  0  0  0  0  0  0  0  0  0  0
    4.2971  -19.6343   22.5092 N   0  0  0  0  0  0  0  0  0  0  0  0
    5.6526  -19.3590   22.9132 C   0  0  0  0  0  0  0  0  0  0  0  0
    5.9094  -17.8861   23.1105 C   0  0  0  0  0  0  0  0  0  0  0  0
    7.3197  -17.7270   23.6583 C   0  0  0  0  0  0  0  0  0  0  0  0
    7.6199  -16.2467   23.9009 C   0  0  2  0  0  0  0  0  0  0  0  0
    8.1135  -15.6029   22.7197 N   0  0  0  0  0  0  0  0  0  0  0  0
    8.6975  -16.2298   24.9602 C   0  0  0  0  0  0  0  0  0  0  0  0
    9.8758  -16.3350   24.5654 O   0  0  0  0  0  0  0  0  0  0  0  0
    1.8924  -19.3812   21.5945 N   0  0  0  0  0  0  0  0  0  0  0  0
   10.5793  -12.9588   28.5526 C   0  0  0  0  0  0  0  0  0  0  0  0
    9.6129  -13.7768   27.9086 O   0  0  0  0  0  0  0  0  0  0  0  0
    9.0348  -13.3051   26.8728 C   0  0  0  0  0  0  0  0  0  0  0  0
    9.2783  -15.1425   28.4209 C   0  0  2  0  0  0  0  0  0  0  0  0
    9.4975  -16.1108   27.2901 N   0  0  0  0  0  0  0  0  0  0  0  0
    8.4392  -16.1022   26.3274 C   0  0  0  0  0  0  0  0  0  0  0  0
    9.7087  -17.4733   27.8061 O   0  0  0  0  0  0  0  0  0  0  0  0
   10.6018  -17.6656   28.6980 O   0  0  0  0  0  0  0  0  0  0  0  0
  2  1  1  6
  3  2  1  0
  4  3  1  0
  5  2  1  0
  5  6  2  0
  7  8  1  0
  8 10  1  0
  8  9  2  0
 10 11  1  0
 11 12  1  0
 12 13  1  0
 14 13  1  6
 15 14  1  0
 15  5  1  0
 16 14  1  0
 17 16  2  0
 18 19  1  0
 19 21  1  0
 19 20  2  0
 22 21  1  6
 22 23  1  0
 22 24  1  0
 23 16  1  0
 24 26  1  0
 25 24  2  0
M  END
$$$$
