CRN.pdb
     RDKit          3D

 26 25  0  0  1  0  0  0  0  0999 V2000
    6.2431  -21.8107   22.6028 N   0  0  0  0  0  0  0  0  0  0  0  0
    5.7203  -20.5812   23.1719 C   0  0  1  0  0  0  0  0  0  0  0  0
    5.4504  -20.7179   24.6355 C   0  0  0  0  0  0  0  0  0  0  0  0
    5.9181  -22.3273   25.2982 S   0  0  0  0  0  0  0  0  0  0  0  0
    6.6327  -19.4430   22.8669 C   0  0  0  0  0  0  0  0  0  0  0  0
    7.8435  -19.6662   22.6554 O   0  0  0  0  0  0  0  0  0  0  0  0
    7.8292  -13.0048   18.2014 N   0  0  0  0  0  0  0  0  0  0  0  0
    8.5172  -12.6020   19.3779 C   0  0  0  0  0  0  0  0  0  0  0  0
    8.8679  -11.3731   19.5132 N   0  0  0  0  0  0  0  0  0  0  0  0
    8.8048  -13.5835   20.3895 N   0  0  0  0  0  0  0  0  0  0  0  0
    7.8051  -14.5887   20.6479 C   0  0  0  0  0  0  0  0  0  0  0  0
    7.3211  -14.5694   22.0761 C   0  0  0  0  0  0  0  0  0  0  0  0
    6.3290  -15.7096   22.2487 C   0  0  0  0  0  0  0  0  0  0  0  0
    7.0758  -17.0048   22.5724 C   0  0  2  0  0  0  0  0  0  0  0  0
    6.1750  -18.0943   22.8075 N   0  0  0  0  0  0  0  0  0  0  0  0
    7.8414  -16.7135   23.8423 C   0  0  0  0  0  0  0  0  0  0  0  0
    7.2510  -16.9352   24.9183 O   0  0  0  0  0  0  0  0  0  0  0  0
    9.3146  -11.0482   20.3931 N   0  0  0  0  0  0  0  0  0  0  0  0
   11.5326  -19.5110   26.5110 C   0  0  0  0  0  0  0  0  0  0  0  0
   10.7628  -18.3177   26.4767 O   0  0  0  0  0  0  0  0  0  0  0  0
   10.9261  -17.4811   27.4269 C   0  0  0  0  0  0  0  0  0  0  0  0
    9.7922  -18.0451   25.3707 C   0  0  2  0  0  0  0  0  0  0  0  0
   10.0992  -16.6733   24.8337 N   0  0  0  0  0  0  0  0  0  0  0  0
    9.1491  -16.2219   23.8641 C   0  0  0  0  0  0  0  0  0  0  0  0
   11.4610  -16.6261   24.2764 O   0  0  0  0  0  0  0  0  0  0  0  0
   11.6225  -16.8006   23.0220 O   0  0  0  0  0  0  0  0  0  0  0  0
  2  1  1  1
  3  2  1  0
  4  3  1  0
  5  2  1  0
  5  6  2  0
  7  8  1  0
  8 10  1  0
  8  9  2  0
 10 11  1  0
 11 12  1  0
 12 13  1  0
 14 13  1  1
 15 14  1  0
 15  5  1  0
 16 14  1  0
 17 16  2  0
 18 19  1  0
 19 21  1  0
 19 20  2  0
 22 21  1  1
 22 23  1  0
 22 24  1  0
 23 16  1  0
 24 26  1  0
 25 24  2  0
M  END
$$$$
