CRN.pdb
     RDKit          3D

 26 25  0  0  1  0  0  0  0  0999 V2000
    4.7654  -12.9622   26.3539 N   0  0  0  0  0  0  0  0  0  0  0  0
    6.1062  -12.7754   25.8282 C   0  0  1  0  0  0  0  0  0  0  0  0
    6.9449  -11.9328   26.7338 C   0  0  0  0  0  0  0  0  0  0  0  0
    8.6535  -11.7778   26.1817 S   0  0  0  0  0  0  0  0  0  0  0  0
    6.7345  -14.0950   25.5373 C   0  0  0  0  0  0  0  0  0  0  0  0
    6.8147  -14.9503   26.4442 O   0  0  0  0  0  0  0  0  0  0  0  0
    9.8771  -13.1862   20.6384 N   0  0  0  0  0  0  0  0  0  0  0  0
    8.8345  -13.2572   19.6752 C   0  0  0  0  0  0  0  0  0  0  0  0
    8.3029  -12.1709   19.2408 N   0  0  0  0  0  0  0  0  0  0  0  0
    8.3992  -14.5474   19.2108 N   0  0  0  0  0  0  0  0  0  0  0  0
    7.9105  -15.4808   20.1938 C   0  0  0  0  0  0  0  0  0  0  0  0
    8.2171  -15.0475   21.6054 C   0  0  0  0  0  0  0  0  0  0  0  0
    7.7103  -16.1297   22.5468 C   0  0  0  0  0  0  0  0  0  0  0  0
    7.8913  -15.6831   23.9987 C   0  0  2  0  0  0  0  0  0  0  0  0
    7.2552  -14.4243   24.2518 N   0  0  0  0  0  0  0  0  0  0  0  0
    9.3833  -15.5289   24.1823 C   0  0  0  0  0  0  0  0  0  0  0  0
    9.8157  -14.3674   24.3214 O   0  0  0  0  0  0  0  0  0  0  0  0
    7.5188  -12.2054   18.5601 N   0  0  0  0  0  0  0  0  0  0  0  0
   10.5313  -15.0786   28.5530 C   0  0  0  0  0  0  0  0  0  0  0  0
   10.9661  -15.4084   27.2415 O   0  0  0  0  0  0  0  0  0  0  0  0
   11.6371  -14.5303   26.6026 C   0  0  0  0  0  0  0  0  0  0  0  0
   10.6512  -16.7348   26.6240 C   0  0  2  0  0  0  0  0  0  0  0  0
   11.2513  -16.7397   25.2440 N   0  0  0  0  0  0  0  0  0  0  0  0
   10.2771  -16.6027   24.2053 C   0  0  0  0  0  0  0  0  0  0  0  0
   12.0578  -17.9529   25.0323 O   0  0  0  0  0  0  0  0  0  0  0  0
   11.4842  -19.0105   24.6050 O   0  0  0  0  0  0  0  0  0  0  0  0
  2  1  1  1
  3  2  1  0
  4  3  1  0
  5  2  1  0
  5  6  2  0
  7  8  1  0
  8 10  1  0
  8  9  2  0
 10 11  1  0
 11 12  1  0
 12 13  1  0
 14 13  1  6
 15 14  1  0
 15  5  1  0
 16 14  1  0
 17 16  2  0
 18 19  1  0
 19 21  1  0
 19 20  2  0
 22 21  1  1
 22 23  1  0
 22 24  1  0
 23 16  1  0
 24 26  1  0
 25 24  2  0
M  END
$$$$
