CRN.pdb
     RDKit          3D

 26 25  0  0  1  0  0  0  0  0999 V2000
    6.8655  -13.7153   16.4388 N   0  0  0  0  0  0  0  0  0  0  0  0
    7.8349  -13.6486   17.5180 C   0  0  1  0  0  0  0  0  0  0  0  0
    7.4661  -12.6148   18.5323 C   0  0  0  0  0  0  0  0  0  0  0  0
    8.4788  -12.6855   20.0214 S   0  0  0  0  0  0  0  0  0  0  0  0
    8.0251  -14.9964   18.1245 C   0  0  0  0  0  0  0  0  0  0  0  0
    7.0556  -15.5685   18.6661 O   0  0  0  0  0  0  0  0  0  0  0  0
   10.7894  -23.0227   18.2449 N   0  0  0  0  0  0  0  0  0  0  0  0
    9.4284  -22.6148   18.2775 C   0  0  0  0  0  0  0  0  0  0  0  0
    8.5564  -23.2749   17.6028 N   0  0  0  0  0  0  0  0  0  0  0  0
    9.0612  -21.4695   19.0668 N   0  0  0  0  0  0  0  0  0  0  0  0
    8.9373  -20.2037   18.3893 C   0  0  0  0  0  0  0  0  0  0  0  0
   10.1372  -19.3149   18.6006 C   0  0  0  0  0  0  0  0  0  0  0  0
    9.9039  -18.0241   17.8301 C   0  0  0  0  0  0  0  0  0  0  0  0
    9.4762  -16.9139   18.7917 C   0  0  2  0  0  0  0  0  0  0  0  0
    9.2831  -15.6667   18.1130 N   0  0  0  0  0  0  0  0  0  0  0  0
   10.6209  -16.7733   19.7682 C   0  0  0  0  0  0  0  0  0  0  0  0
   11.5188  -15.9611   19.4690 O   0  0  0  0  0  0  0  0  0  0  0  0
    7.5722  -22.9458   17.5523 N   0  0  0  0  0  0  0  0  0  0  0  0
   12.7316  -16.9671   25.3604 C   0  0  0  0  0  0  0  0  0  0  0  0
   12.6487  -16.5623   24.0014 O   0  0  0  0  0  0  0  0  0  0  0  0
   13.6792  -16.0153   23.4834 C   0  0  0  0  0  0  0  0  0  0  0  0
   11.4012  -16.7651   23.2000 C   0  0  2  0  0  0  0  0  0  0  0  0
   11.8140  -17.3091   21.8591 N   0  0  0  0  0  0  0  0  0  0  0  0
   10.7144  -17.4926   20.9624 C   0  0  0  0  0  0  0  0  0  0  0  0
   12.5614  -18.5676   22.0166 O   0  0  0  0  0  0  0  0  0  0  0  0
   11.9611  -19.5882   22.4941 O   0  0  0  0  0  0  0  0  0  0  0  0
  2  1  1  6
  3  2  1  0
  4  3  1  0
  5  2  1  0
  5  6  2  0
  7  8  1  0
  8 10  1  0
  8  9  2  0
 10 11  1  0
 11 12  1  0
 12 13  1  0
 14 13  1  6
 15 14  1  0
 15  5  1  0
 16 14  1  0
 17 16  2  0
 18 19  1  0
 19 21  1  0
 19 20  2  0
 22 21  1  6
 22 23  1  0
 22 24  1  0
 23 16  1  0
 24 26  1  0
 25 24  2  0
M  END
$$$$
