CRN.pdb
     RDKit          3D

 26 25  0  0  1  0  0  0  0  0999 V2000
    7.7483  -18.7621   27.4088 N   0  0  0  0  0  0  0  0  0  0  0  0
    7.8252  -17.3697   27.0037 C   0  0  1  0  0  0  0  0  0  0  0  0
    8.7839  -16.5973   27.8509 C   0  0  0  0  0  0  0  0  0  0  0  0
   10.1650  -17.5894   28.4480 S   0  0  0  0  0  0  0  0  0  0  0  0
    8.1450  -17.2720   25.5514 C   0  0  0  0  0  0  0  0  0  0  0  0
    8.3828  -18.3133   24.9036 O   0  0  0  0  0  0  0  0  0  0  0  0
    7.8527  -11.9527   19.1297 N   0  0  0  0  0  0  0  0  0  0  0  0
    7.9764  -13.2147   18.4879 C   0  0  0  0  0  0  0  0  0  0  0  0
    7.6013  -13.3392   17.2651 N   0  0  0  0  0  0  0  0  0  0  0  0
    8.5191  -14.3237   19.2263 N   0  0  0  0  0  0  0  0  0  0  0  0
    8.6044  -14.1941   20.6589 C   0  0  0  0  0  0  0  0  0  0  0  0
    7.4540  -14.8621   21.3695 C   0  0  0  0  0  0  0  0  0  0  0  0
    7.6706  -14.6978   22.8662 C   0  0  0  0  0  0  0  0  0  0  0  0
    8.3254  -15.9562   23.4386 C   0  0  2  0  0  0  0  0  0  0  0  0
    8.1928  -16.0242   24.8638 N   0  0  0  0  0  0  0  0  0  0  0  0
    9.7894  -15.8373   23.0834 C   0  0  0  0  0  0  0  0  0  0  0  0
   10.5161  -15.2254   23.8914 O   0  0  0  0  0  0  0  0  0  0  0  0
    7.7658  -14.2281   16.7531 N   0  0  0  0  0  0  0  0  0  0  0  0
   13.8623  -14.4137   19.8134 C   0  0  0  0  0  0  0  0  0  0  0  0
   13.5962  -14.7219   21.1743 O   0  0  0  0  0  0  0  0  0  0  0  0
   14.5951  -14.9555   21.9339 C   0  0  0  0  0  0  0  0  0  0  0  0
   12.1979  -14.7741   21.7050 C   0  0  1  0  0  0  0  0  0  0  0  0
   11.7400  -16.2050   21.6197 N   0  0  0  0  0  0  0  0  0  0  0  0
   10.3513  -16.3713   21.9209 C   0  0  0  0  0  0  0  0  0  0  0  0
   12.5588  -17.0655   22.4893 O   0  0  0  0  0  0  0  0  0  0  0  0
   13.1489  -18.0768   21.9804 O   0  0  0  0  0  0  0  0  0  0  0  0
  2  1  1  1
  3  2  1  0
  4  3  1  0
  5  2  1  0
  5  6  2  0
  7  8  1  0
  8 10  1  0
  8  9  2  0
 10 11  1  0
 11 12  1  0
 12 13  1  0
 14 13  1  1
 15 14  1  0
 15  5  1  0
 16 14  1  0
 17 16  2  0
 18 19  1  0
 19 21  1  0
 19 20  2  0
 22 21  1  6
 22 23  1  0
 22 24  1  0
 23 16  1  0
 24 26  1  0
 25 24  2  0
M  END
$$$$
