CRN.pdb
     RDKit          3D

 26 25  0  0  1  0  0  0  0  0999 V2000
    8.8235  -18.9893   17.4645 N   0  0  0  0  0  0  0  0  0  0  0  0
    8.5208  -19.0680   18.8827 C   0  0  1  0  0  0  0  0  0  0  0  0
    8.6591  -20.4622   19.4030 C   0  0  0  0  0  0  0  0  0  0  0  0
    7.9706  -20.6769   21.0547 S   0  0  0  0  0  0  0  0  0  0  0  0
    9.3534  -18.0933   19.6426 C   0  0  0  0  0  0  0  0  0  0  0  0
   10.4867  -17.7886   19.2145 O   0  0  0  0  0  0  0  0  0  0  0  0
    6.3003  -12.5038   18.8791 N   0  0  0  0  0  0  0  0  0  0  0  0
    7.6642  -12.2654   19.1994 C   0  0  0  0  0  0  0  0  0  0  0  0
    8.0089  -11.1235   19.6778 N   0  0  0  0  0  0  0  0  0  0  0  0
    8.6268  -13.3114   18.9783 N   0  0  0  0  0  0  0  0  0  0  0  0
    9.1721  -13.9726   20.1367 C   0  0  0  0  0  0  0  0  0  0  0  0
    8.1097  -14.6328   20.9793 C   0  0  0  0  0  0  0  0  0  0  0  0
    8.8053  -15.3810   22.1064 C   0  0  0  0  0  0  0  0  0  0  0  0
    9.6828  -16.4931   21.5291 C   0  0  2  0  0  0  0  0  0  0  0  0
    8.9047  -17.4885   20.8530 N   0  0  0  0  0  0  0  0  0  0  0  0
   10.3607  -17.1230   22.7239 C   0  0  0  0  0  0  0  0  0  0  0  0
    9.7317  -18.0207   23.3188 O   0  0  0  0  0  0  0  0  0  0  0  0
    9.0010  -10.9333   19.9202 N   0  0  0  0  0  0  0  0  0  0  0  0
   14.4400  -19.5721   24.2784 C   0  0  0  0  0  0  0  0  0  0  0  0
   13.8443  -19.7400   22.9998 O   0  0  0  0  0  0  0  0  0  0  0  0
   14.1836  -20.7655   22.3195 C   0  0  0  0  0  0  0  0  0  0  0  0
   12.8552  -18.7538   22.4625 C   0  0  2  0  0  0  0  0  0  0  0  0
   12.6042  -17.7374   23.5434 N   0  0  0  0  0  0  0  0  0  0  0  0
   11.6298  -16.7555   23.1785 C   0  0  0  0  0  0  0  0  0  0  0  0
   13.8613  -17.0858   23.9462 O   0  0  0  0  0  0  0  0  0  0  0  0
   14.3007  -16.1075   23.2536 O   0  0  0  0  0  0  0  0  0  0  0  0
  2  1  1  6
  3  2  1  0
  4  3  1  0
  5  2  1  0
  5  6  2  0
  7  8  1  0
  8 10  1  0
  8  9  2  0
 10 11  1  0
 11 12  1  0
 12 13  1  0
 14 13  1  1
 15 14  1  0
 15  5  1  0
 16 14  1  0
 17 16  2  0
 18 19  1  0
 19 21  1  0
 19 20  2  0
 22 21  1  1
 22 23  1  0
 22 24  1  0
 23 16  1  0
 24 26  1  0
 25 24  2  0
M  END
$$$$
