CRN.pdb
     RDKit          3D

 26 25  0  0  1  0  0  0  0  0999 V2000
    7.3108  -18.6021   26.0353 N   0  0  0  0  0  0  0  0  0  0  0  0
    7.1186  -17.2393   25.5719 C   0  0  1  0  0  0  0  0  0  0  0  0
    7.5783  -16.2393   26.5830 C   0  0  0  0  0  0  0  0  0  0  0  0
    9.1295  -16.6942   27.3797 S   0  0  0  0  0  0  0  0  0  0  0  0
    7.7726  -17.0482   24.2465 C   0  0  0  0  0  0  0  0  0  0  0  0
    8.4848  -17.9602   23.7760 O   0  0  0  0  0  0  0  0  0  0  0  0
    7.0732  -13.9854   15.6572 N   0  0  0  0  0  0  0  0  0  0  0  0
    7.6518  -13.7536   16.9343 C   0  0  0  0  0  0  0  0  0  0  0  0
    8.9311  -13.7050   17.0471 N   0  0  0  0  0  0  0  0  0  0  0  0
    6.7880  -13.5798   18.0715 N   0  0  0  0  0  0  0  0  0  0  0  0
    7.4034  -13.2616   19.3350 C   0  0  0  0  0  0  0  0  0  0  0  0
    8.0252  -14.4667   19.9951 C   0  0  0  0  0  0  0  0  0  0  0  0
    7.5860  -14.4801   21.4516 C   0  0  0  0  0  0  0  0  0  0  0  0
    8.0782  -15.7588   22.1318 C   0  0  2  0  0  0  0  0  0  0  0  0
    7.6179  -15.8527   23.4857 N   0  0  0  0  0  0  0  0  0  0  0  0
    9.5857  -15.6540   22.1284 C   0  0  0  0  0  0  0  0  0  0  0  0
   10.0878  -14.7453   22.8194 O   0  0  0  0  0  0  0  0  0  0  0  0
    9.3742  -13.6568   17.9855 N   0  0  0  0  0  0  0  0  0  0  0  0
   13.2615  -15.1700   23.4660 C   0  0  0  0  0  0  0  0  0  0  0  0
   12.8867  -16.4546   23.9425 O   0  0  0  0  0  0  0  0  0  0  0  0
   13.4627  -16.8854   24.9971 C   0  0  0  0  0  0  0  0  0  0  0  0
   11.8559  -17.2796   23.2379 C   0  0  2  0  0  0  0  0  0  0  0  0
   11.7639  -16.7701   21.8250 N   0  0  0  0  0  0  0  0  0  0  0  0
   10.4210  -16.5099   21.4059 C   0  0  0  0  0  0  0  0  0  0  0  0
   12.4195  -17.7020   20.8928 O   0  0  0  0  0  0  0  0  0  0  0  0
   13.6857  -17.6383   20.7424 O   0  0  0  0  0  0  0  0  0  0  0  0
  2  1  1  1
  3  2  1  0
  4  3  1  0
  5  2  1  0
  5  6  2  0
  7  8  1  0
  8 10  1  0
  8  9  2  0
 10 11  1  0
 11 12  1  0
 12 13  1  0
 14 13  1  1
 15 14  1  0
 15  5  1  0
 16 14  1  0
 17 16  2  0
 18 19  1  0
 19 21  1  0
 19 20  2  0
 22 21  1  1
 22 23  1  0
 22 24  1  0
 23 16  1  0
 24 26  1  0
 25 24  2  0
M  END
$$$$
