CRN.pdb
     RDKit          3D

 26 25  0  0  1  0  0  0  0  0999 V2000
    5.4062  -13.6434   26.6446 N   0  0  0  0  0  0  0  0  0  0  0  0
    6.4255  -13.2467   25.6893 C   0  0  1  0  0  0  0  0  0  0  0  0
    7.5521  -12.5198   26.3495 C   0  0  0  0  0  0  0  0  0  0  0  0
    7.0064  -11.1406   27.3732 S   0  0  0  0  0  0  0  0  0  0  0  0
    6.8914  -14.4294   24.9114 C   0  0  0  0  0  0  0  0  0  0  0  0
    6.1609  -15.4398   24.8335 O   0  0  0  0  0  0  0  0  0  0  0  0
   10.2107  -13.8475   19.2430 N   0  0  0  0  0  0  0  0  0  0  0  0
    8.9474  -13.7198   18.6047 C   0  0  0  0  0  0  0  0  0  0  0  0
    8.7590  -12.7648   17.7655 N   0  0  0  0  0  0  0  0  0  0  0  0
    7.9087  -14.6652   18.9160 N   0  0  0  0  0  0  0  0  0  0  0  0
    7.1306  -14.4340   20.1066 C   0  0  0  0  0  0  0  0  0  0  0  0
    7.9829  -14.3560   21.3484 C   0  0  0  0  0  0  0  0  0  0  0  0
    7.7873  -15.6457   22.1311 C   0  0  0  0  0  0  0  0  0  0  0  0
    8.5584  -15.5758   23.4504 C   0  0  2  0  0  0  0  0  0  0  0  0
    8.1518  -14.4556   24.2461 N   0  0  0  0  0  0  0  0  0  0  0  0
   10.0062  -15.4012   23.0540 C   0  0  0  0  0  0  0  0  0  0  0  0
   10.2605  -15.4148   21.8332 O   0  0  0  0  0  0  0  0  0  0  0  0
    7.8488  -12.6696   17.2738 N   0  0  0  0  0  0  0  0  0  0  0  0
   12.8027  -18.2990   26.0885 C   0  0  0  0  0  0  0  0  0  0  0  0
   11.3894  -18.1961   26.1859 O   0  0  0  0  0  0  0  0  0  0  0  0
   10.7833  -19.0497   26.9163 C   0  0  0  0  0  0  0  0  0  0  0  0
   10.6313  -17.1293   25.4600 C   0  0  2  0  0  0  0  0  0  0  0  0
   11.6288  -16.3387   24.6573 N   0  0  0  0  0  0  0  0  0  0  0  0
   11.0458  -15.2270   23.9711 C   0  0  0  0  0  0  0  0  0  0  0  0
   12.3397  -17.2105   23.7077 O   0  0  0  0  0  0  0  0  0  0  0  0
   11.6847  -17.7511   22.7544 O   0  0  0  0  0  0  0  0  0  0  0  0
  2  1  1  1
  3  2  1  0
  4  3  1  0
  5  2  1  0
  5  6  2  0
  7  8  1  0
  8 10  1  0
  8  9  2  0
 10 11  1  0
 11 12  1  0
 12 13  1  0
 14 13  1  6
 15 14  1  0
 15  5  1  0
 16 14  1  0
 17 16  2  0
 18 19  1  0
 19 21  1  0
 19 20  2  0
 22 21  1  1
 22 23  1  0
 22 24  1  0
 23 16  1  0
 24 26  1  0
 25 24  2  0
M  END
$$$$
