CRN.pdb
     RDKit          3D

 26 25  0  0  1  0  0  0  0  0999 V2000
   16.3303  -12.3682   15.1486 N   0  0  0  0  0  0  0  0  0  0  0  0
   15.7812  -13.6485   15.5587 C   0  0  1  0  0  0  0  0  0  0  0  0
   16.7926  -14.7442   15.4576 C   0  0  0  0  0  0  0  0  0  0  0  0
   18.1765  -14.5424   16.5944 S   0  0  0  0  0  0  0  0  0  0  0  0
   15.1924  -13.5437   16.9237 C   0  0  0  0  0  0  0  0  0  0  0  0
   15.6997  -12.7589   17.7527 O   0  0  0  0  0  0  0  0  0  0  0  0
    8.2513  -13.9599   16.0819 N   0  0  0  0  0  0  0  0  0  0  0  0
    8.7536  -15.2890   16.0522 C   0  0  0  0  0  0  0  0  0  0  0  0
    8.5260  -16.0259   15.0242 N   0  0  0  0  0  0  0  0  0  0  0  0
    9.5054  -15.7770   17.1775 N   0  0  0  0  0  0  0  0  0  0  0  0
    9.7901  -14.8494   18.2429 C   0  0  0  0  0  0  0  0  0  0  0  0
   11.1053  -14.1362   18.0527 C   0  0  0  0  0  0  0  0  0  0  0  0
   12.1796  -14.9373   18.7726 C   0  0  0  0  0  0  0  0  0  0  0  0
   13.5278  -14.2244   18.6539 C   0  0  2  0  0  0  0  0  0  0  0  0
   14.0617  -14.3124   17.3270 N   0  0  0  0  0  0  0  0  0  0  0  0
   14.4468  -14.9544   19.6059 C   0  0  0  0  0  0  0  0  0  0  0  0
   14.9793  -15.9997   19.1829 O   0  0  0  0  0  0  0  0  0  0  0  0
    8.9031  -16.9928   14.9771 N   0  0  0  0  0  0  0  0  0  0  0  0
   17.4678  -16.5856   23.1863 C   0  0  0  0  0  0  0  0  0  0  0  0
   17.6153  -15.1733   23.1488 O   0  0  0  0  0  0  0  0  0  0  0  0
   18.6006  -14.6647   23.7811 C   0  0  0  0  0  0  0  0  0  0  0  0
   16.6533  -14.3065   22.3985 C   0  0  2  0  0  0  0  0  0  0  0  0
   15.6487  -15.2155   21.7436 N   0  0  0  0  0  0  0  0  0  0  0  0
   14.7215  -14.5197   20.9051 C   0  0  0  0  0  0  0  0  0  0  0  0
   14.9294  -16.0088   22.7538 O   0  0  0  0  0  0  0  0  0  0  0  0
   13.7587  -15.6434   23.1088 O   0  0  0  0  0  0  0  0  0  0  0  0
  2  1  1  1
  3  2  1  0
  4  3  1  0
  5  2  1  0
  5  6  2  0
  7  8  1  0
  8 10  1  0
  8  9  2  0
 10 11  1  0
 11 12  1  0
 12 13  1  0
 14 13  1  6
 15 14  1  0
 15  5  1  0
 16 14  1  0
 17 16  2  0
 18 19  1  0
 19 21  1  0
 19 20  2  0
 22 21  1  6
 22 23  1  0
 22 24  1  0
 23 16  1  0
 24 26  1  0
 25 24  2  0
M  END
$$$$
