CRN.pdb
     RDKit          3D

 26 25  0  0  1  0  0  0  0  0999 V2000
    7.2342  -13.8357   18.7348 N   0  0  0  0  0  0  0  0  0  0  0  0
    8.2884  -13.6629   19.7185 C   0  0  1  0  0  0  0  0  0  0  0  0
    7.9948  -12.5353   20.6544 C   0  0  0  0  0  0  0  0  0  0  0  0
    8.4294  -10.9207   19.9818 S   0  0  0  0  0  0  0  0  0  0  0  0
    8.5399  -14.9449   20.4356 C   0  0  0  0  0  0  0  0  0  0  0  0
    7.5715  -15.6448   20.8002 O   0  0  0  0  0  0  0  0  0  0  0  0
    9.3983  -20.9984   19.1443 N   0  0  0  0  0  0  0  0  0  0  0  0
    9.7705  -20.6556   17.8163 C   0  0  0  0  0  0  0  0  0  0  0  0
    9.1595  -21.2058   16.8286 N   0  0  0  0  0  0  0  0  0  0  0  0
   10.8255  -19.6992   17.6114 N   0  0  0  0  0  0  0  0  0  0  0  0
   11.3772  -19.0541   18.7758 C   0  0  0  0  0  0  0  0  0  0  0  0
   10.3550  -18.2327   19.5207 C   0  0  0  0  0  0  0  0  0  0  0  0
   11.0620  -17.5462   20.6797 C   0  0  0  0  0  0  0  0  0  0  0  0
   10.0801  -16.6406   21.4254 C   0  0  2  0  0  0  0  0  0  0  0  0
    9.8556  -15.4096   20.7271 N   0  0  0  0  0  0  0  0  0  0  0  0
   10.7436  -16.3436   22.7502 C   0  0  0  0  0  0  0  0  0  0  0  0
   11.2935  -15.2303   22.8666 O   0  0  0  0  0  0  0  0  0  0  0  0
    9.4491  -21.0013   15.8521 N   0  0  0  0  0  0  0  0  0  0  0  0
    9.5092  -14.0927   27.2102 C   0  0  0  0  0  0  0  0  0  0  0  0
    9.5304  -15.4681   26.8558 O   0  0  0  0  0  0  0  0  0  0  0  0
    9.6032  -16.3216   27.8022 C   0  0  0  0  0  0  0  0  0  0  0  0
    9.4715  -15.9081   25.4266 C   0  0  1  0  0  0  0  0  0  0  0  0
   10.6727  -16.7794   25.1766 N   0  0  0  0  0  0  0  0  0  0  0  0
   10.7655  -17.2370   23.8243 C   0  0  0  0  0  0  0  0  0  0  0  0
   10.6887  -17.9214   26.1055 O   0  0  0  0  0  0  0  0  0  0  0  0
    9.9190  -18.9144   25.8785 O   0  0  0  0  0  0  0  0  0  0  0  0
  2  1  1  6
  3  2  1  0
  4  3  1  0
  5  2  1  0
  5  6  2  0
  7  8  1  0
  8 10  1  0
  8  9  2  0
 10 11  1  0
 11 12  1  0
 12 13  1  0
 14 13  1  6
 15 14  1  0
 15  5  1  0
 16 14  1  0
 17 16  2  0
 18 19  1  0
 19 21  1  0
 19 20  2  0
 22 21  1  6
 22 23  1  0
 22 24  1  0
 23 16  1  0
 24 26  1  0
 25 24  2  0
M  END
$$$$
