CRN.pdb
     RDKit          3D

 26 25  0  0  1  0  0  0  0  0999 V2000
    6.3447  -14.9499   27.2607 N   0  0  0  0  0  0  0  0  0  0  0  0
    6.6802  -14.2394   26.0394 C   0  0  1  0  0  0  0  0  0  0  0  0
    7.2785  -12.8996   26.3233 C   0  0  0  0  0  0  0  0  0  0  0  0
    7.3924  -12.5295   28.0835 S   0  0  0  0  0  0  0  0  0  0  0  0
    7.5569  -15.0813   25.1772 C   0  0  0  0  0  0  0  0  0  0  0  0
    8.0516  -16.1298   25.6425 O   0  0  0  0  0  0  0  0  0  0  0  0
    8.2511  -14.5695   17.1614 N   0  0  0  0  0  0  0  0  0  0  0  0
    7.9958  -13.5147   18.0790 C   0  0  0  0  0  0  0  0  0  0  0  0
    8.3364  -12.3147   17.7702 N   0  0  0  0  0  0  0  0  0  0  0  0
    7.3616  -13.8188   19.3339 N   0  0  0  0  0  0  0  0  0  0  0  0
    7.0317  -15.1963   19.5987 C   0  0  0  0  0  0  0  0  0  0  0  0
    7.1307  -15.5435   21.0630 C   0  0  0  0  0  0  0  0  0  0  0  0
    8.5453  -15.2261   21.5238 C   0  0  0  0  0  0  0  0  0  0  0  0
    8.6962  -15.5598   23.0090 C   0  0  2  0  0  0  0  0  0  0  0  0
    7.8587  -14.7343   23.8279 N   0  0  0  0  0  0  0  0  0  0  0  0
   10.1436  -15.2723   23.3343 C   0  0  0  0  0  0  0  0  0  0  0  0
   10.3645  -14.3693   24.1658 O   0  0  0  0  0  0  0  0  0  0  0  0
    8.2262  -11.5439   18.4580 N   0  0  0  0  0  0  0  0  0  0  0  0
   14.5857  -16.8993   24.9564 C   0  0  0  0  0  0  0  0  0  0  0  0
   13.3483  -17.3829   25.4590 O   0  0  0  0  0  0  0  0  0  0  0  0
   13.3794  -18.1092   26.5083 C   0  0  0  0  0  0  0  0  0  0  0  0
   12.0511  -17.0581   24.7871 C   0  0  1  0  0  0  0  0  0  0  0  0
   12.3765  -16.3016   23.5276 N   0  0  0  0  0  0  0  0  0  0  0  0
   11.2182  -15.9576   22.7616 C   0  0  0  0  0  0  0  0  0  0  0  0
   13.3316  -17.0566   22.7000 O   0  0  0  0  0  0  0  0  0  0  0  0
   12.9926  -18.2041   22.2548 O   0  0  0  0  0  0  0  0  0  0  0  0
  2  1  1  1
  3  2  1  0
  4  3  1  0
  5  2  1  0
  5  6  2  0
  7  8  1  0
  8 10  1  0
  8  9  2  0
 10 11  1  0
 11 12  1  0
 12 13  1  0
 14 13  1  6
 15 14  1  0
 15  5  1  0
 16 14  1  0
 17 16  2  0
 18 19  1  0
 19 21  1  0
 19 20  2  0
 22 21  1  1
 22 23  1  0
 22 24  1  0
 23 16  1  0
 24 26  1  0
 25 24  2  0
M  END
$$$$
