CRN.pdb
     RDKit          3D

 26 25  0  0  1  0  0  0  0  0999 V2000
    9.6123  -17.5895   28.2470 N   0  0  0  0  0  0  0  0  0  0  0  0
    9.2801  -16.3184   27.6282 C   0  0  1  0  0  0  0  0  0  0  0  0
   10.0938  -15.1980   28.1905 C   0  0  0  0  0  0  0  0  0  0  0  0
    9.1980  -13.6359   28.2660 S   0  0  0  0  0  0  0  0  0  0  0  0
    9.4004  -16.4191   26.1462 C   0  0  0  0  0  0  0  0  0  0  0  0
   10.0413  -17.3672   25.6452 O   0  0  0  0  0  0  0  0  0  0  0  0
    8.0385  -14.7532   18.4306 N   0  0  0  0  0  0  0  0  0  0  0  0
    8.2386  -13.4013   18.8206 C   0  0  0  0  0  0  0  0  0  0  0  0
    8.9513  -12.6305   18.0793 N   0  0  0  0  0  0  0  0  0  0  0  0
    7.6369  -12.9294   20.0391 N   0  0  0  0  0  0  0  0  0  0  0  0
    7.1177  -13.9155   20.9528 C   0  0  0  0  0  0  0  0  0  0  0  0
    8.2072  -14.7239   21.6115 C   0  0  0  0  0  0  0  0  0  0  0  0
    8.0883  -14.5302   23.1156 C   0  0  0  0  0  0  0  0  0  0  0  0
    8.9311  -15.5788   23.8438 C   0  0  2  0  0  0  0  0  0  0  0  0
    8.8083  -15.4660   25.2670 N   0  0  0  0  0  0  0  0  0  0  0  0
   10.3591  -15.2848   23.4459 C   0  0  0  0  0  0  0  0  0  0  0  0
   10.9738  -14.4470   24.1355 O   0  0  0  0  0  0  0  0  0  0  0  0
    9.0525  -11.6234   18.3132 N   0  0  0  0  0  0  0  0  0  0  0  0
   15.3490  -15.2803   22.6863 C   0  0  0  0  0  0  0  0  0  0  0  0
   14.6820  -16.4467   22.2253 O   0  0  0  0  0  0  0  0  0  0  0  0
   15.3202  -17.2192   21.4345 C   0  0  0  0  0  0  0  0  0  0  0  0
   13.2813  -16.7640   22.6459 C   0  0  1  0  0  0  0  0  0  0  0  0
   12.3947  -15.6731   22.1088 N   0  0  0  0  0  0  0  0  0  0  0  0
   11.0057  -15.8965   22.3689 C   0  0  0  0  0  0  0  0  0  0  0  0
   12.6211  -15.4821   20.6668 O   0  0  0  0  0  0  0  0  0  0  0  0
   11.9246  -16.1569   19.8364 O   0  0  0  0  0  0  0  0  0  0  0  0
  2  1  1  1
  3  2  1  0
  4  3  1  0
  5  2  1  0
  5  6  2  0
  7  8  1  0
  8 10  1  0
  8  9  2  0
 10 11  1  0
 11 12  1  0
 12 13  1  0
 14 13  1  6
 15 14  1  0
 15  5  1  0
 16 14  1  0
 17 16  2  0
 18 19  1  0
 19 21  1  0
 19 20  2  0
 22 21  1  1
 22 23  1  0
 22 24  1  0
 23 16  1  0
 24 26  1  0
 25 24  2  0
M  END
$$$$
