CRN.pdb
     RDKit          3D

 26 25  0  0  1  0  0  0  0  0999 V2000
    4.9697  -13.1597   26.8309 N   0  0  0  0  0  0  0  0  0  0  0  0
    6.3080  -12.8378   26.3682 C   0  0  1  0  0  0  0  0  0  0  0  0
    7.2971  -12.8354   27.4886 C   0  0  0  0  0  0  0  0  0  0  0  0
    9.0084  -12.7709   26.9271 S   0  0  0  0  0  0  0  0  0  0  0  0
    6.7055  -13.7538   25.2620 C   0  0  0  0  0  0  0  0  0  0  0  0
    6.5559  -14.9862   25.4015 O   0  0  0  0  0  0  0  0  0  0  0  0
    7.7184  -12.9144   16.6433 N   0  0  0  0  0  0  0  0  0  0  0  0
    7.9295  -14.2971   16.8948 C   0  0  0  0  0  0  0  0  0  0  0  0
    7.7432  -15.1455   15.9477 N   0  0  0  0  0  0  0  0  0  0  0  0
    8.3466  -14.7126   18.2074 N   0  0  0  0  0  0  0  0  0  0  0  0
    8.0460  -13.8370   19.3118 C   0  0  0  0  0  0  0  0  0  0  0  0
    8.4483  -14.4241   20.6414 C   0  0  0  0  0  0  0  0  0  0  0  0
    8.0679  -13.4279   21.7263 C   0  0  0  0  0  0  0  0  0  0  0  0
    7.6925  -14.1729   23.0085 C   0  0  2  0  0  0  0  0  0  0  0  0
    7.2572  -13.2757   24.0376 N   0  0  0  0  0  0  0  0  0  0  0  0
    8.9634  -14.8579   23.4549 C   0  0  0  0  0  0  0  0  0  0  0  0
    9.8480  -14.1331   23.9524 O   0  0  0  0  0  0  0  0  0  0  0  0
    7.9078  -16.1584   16.1099 N   0  0  0  0  0  0  0  0  0  0  0  0
    9.5081  -17.2228   26.3258 C   0  0  0  0  0  0  0  0  0  0  0  0
   10.1114  -18.3020   25.6264 O   0  0  0  0  0  0  0  0  0  0  0  0
   10.4987  -19.3074   26.3110 C   0  0  0  0  0  0  0  0  0  0  0  0
   10.2912  -18.2679   24.1411 C   0  0  2  0  0  0  0  0  0  0  0  0
   10.4249  -16.8239   23.7395 N   0  0  0  0  0  0  0  0  0  0  0  0
    9.1848  -16.2327   23.3404 C   0  0  0  0  0  0  0  0  0  0  0  0
   11.4304  -16.6715   22.6751 O   0  0  0  0  0  0  0  0  0  0  0  0
   11.0566  -16.2631   21.5247 O   0  0  0  0  0  0  0  0  0  0  0  0
  2  1  1  1
  3  2  1  0
  4  3  1  0
  5  2  1  0
  5  6  2  0
  7  8  1  0
  8 10  1  0
  8  9  2  0
 10 11  1  0
 11 12  1  0
 12 13  1  0
 14 13  1  6
 15 14  1  0
 15  5  1  0
 16 14  1  0
 17 16  2  0
 18 19  1  0
 19 21  1  0
 19 20  2  0
 22 21  1  1
 22 23  1  0
 22 24  1  0
 23 16  1  0
 24 26  1  0
 25 24  2  0
M  END
$$$$
