CRN.pdb
     RDKit          3D

 26 25  0  0  1  0  0  0  0  0999 V2000
   10.5064  -20.8086   19.8389 N   0  0  0  0  0  0  0  0  0  0  0  0
   10.0128  -20.1859   21.0544 C   0  0  1  0  0  0  0  0  0  0  0  0
   10.2881  -21.0257   22.2596 C   0  0  0  0  0  0  0  0  0  0  0  0
    9.3472  -20.5184   23.7106 S   0  0  0  0  0  0  0  0  0  0  0  0
   10.5611  -18.8065   21.1865 C   0  0  0  0  0  0  0  0  0  0  0  0
   11.7263  -18.5695   20.8035 O   0  0  0  0  0  0  0  0  0  0  0  0
    7.4043  -14.4896   18.2361 N   0  0  0  0  0  0  0  0  0  0  0  0
    7.4665  -13.1957   18.8206 C   0  0  0  0  0  0  0  0  0  0  0  0
    7.6141  -12.1684   18.0629 N   0  0  0  0  0  0  0  0  0  0  0  0
    7.3630  -13.0692   20.2499 N   0  0  0  0  0  0  0  0  0  0  0  0
    7.2757  -14.2822   21.0229 C   0  0  0  0  0  0  0  0  0  0  0  0
    8.4180  -15.2274   20.7469 C   0  0  0  0  0  0  0  0  0  0  0  0
    9.2300  -15.3651   22.0260 C   0  0  0  0  0  0  0  0  0  0  0  0
   10.3334  -16.4068   21.8325 C   0  0  2  0  0  0  0  0  0  0  0  0
    9.8020  -17.7344   21.7399 N   0  0  0  0  0  0  0  0  0  0  0  0
   11.1956  -16.3045   23.0693 C   0  0  0  0  0  0  0  0  0  0  0  0
   10.6266  -16.4695   24.1667 O   0  0  0  0  0  0  0  0  0  0  0  0
    7.6887  -11.2178   18.4753 N   0  0  0  0  0  0  0  0  0  0  0  0
   13.9741  -18.3022   26.7466 C   0  0  0  0  0  0  0  0  0  0  0  0
   14.2823  -18.3886   25.3627 O   0  0  0  0  0  0  0  0  0  0  0  0
   15.4464  -18.8019   25.0408 C   0  0  0  0  0  0  0  0  0  0  0  0
   13.2841  -18.0091   24.3143 C   0  0  1  0  0  0  0  0  0  0  0  0
   13.4437  -16.5351   24.0570 N   0  0  0  0  0  0  0  0  0  0  0  0
   12.5678  -16.0426   23.0387 C   0  0  0  0  0  0  0  0  0  0  0  0
   14.8422  -16.2132   23.7287 O   0  0  0  0  0  0  0  0  0  0  0  0
   15.7274  -16.2948   24.6450 O   0  0  0  0  0  0  0  0  0  0  0  0
  2  1  1  6
  3  2  1  0
  4  3  1  0
  5  2  1  0
  5  6  2  0
  7  8  1  0
  8 10  1  0
  8  9  2  0
 10 11  1  0
 11 12  1  0
 12 13  1  0
 14 13  1  1
 15 14  1  0
 15  5  1  0
 16 14  1  0
 17 16  2  0
 18 19  1  0
 19 21  1  0
 19 20  2  0
 22 21  1  1
 22 23  1  0
 22 24  1  0
 23 16  1  0
 24 26  1  0
 25 24  2  0
M  END
$$$$
