CRN.pdb
     RDKit          3D

 26 25  0  0  1  0  0  0  0  0999 V2000
    7.7052  -13.4558   17.7048 N   0  0  0  0  0  0  0  0  0  0  0  0
    8.4823  -13.3956   18.9301 C   0  0  1  0  0  0  0  0  0  0  0  0
    7.6194  -13.1359   20.1224 C   0  0  0  0  0  0  0  0  0  0  0  0
    8.4860  -13.3492   21.6882 S   0  0  0  0  0  0  0  0  0  0  0  0
    9.3031  -14.6302   19.0815 C   0  0  0  0  0  0  0  0  0  0  0  0
    8.7880  -15.7431   18.8433 O   0  0  0  0  0  0  0  0  0  0  0  0
   16.7803  -15.1003   16.4251 N   0  0  0  0  0  0  0  0  0  0  0  0
   15.6198  -14.4427   16.9155 C   0  0  0  0  0  0  0  0  0  0  0  0
   15.7406  -13.5541   17.8360 N   0  0  0  0  0  0  0  0  0  0  0  0
   14.3359  -14.7906   16.3677 N   0  0  0  0  0  0  0  0  0  0  0  0
   13.8102  -16.0964   16.6758 C   0  0  0  0  0  0  0  0  0  0  0  0
   12.4808  -16.0321   17.3850 C   0  0  0  0  0  0  0  0  0  0  0  0
   12.7476  -15.7251   18.8508 C   0  0  0  0  0  0  0  0  0  0  0  0
   11.4403  -15.7900   19.6426 C   0  0  2  0  0  0  0  0  0  0  0  0
   10.6673  -14.5927   19.4931 N   0  0  0  0  0  0  0  0  0  0  0  0
   11.8593  -15.9308   21.0877 C   0  0  0  0  0  0  0  0  0  0  0  0
   12.3754  -14.9299   21.6236 O   0  0  0  0  0  0  0  0  0  0  0  0
   14.8991  -13.0950   18.2365 N   0  0  0  0  0  0  0  0  0  0  0  0
   10.8045  -18.3400   26.4583 C   0  0  0  0  0  0  0  0  0  0  0  0
   11.7220  -18.2176   25.3809 O   0  0  0  0  0  0  0  0  0  0  0  0
   12.9580  -18.0812   25.6694 C   0  0  0  0  0  0  0  0  0  0  0  0
   11.2635  -18.2450   23.9566 C   0  0  1  0  0  0  0  0  0  0  0  0
   11.9867  -17.1420   23.2322 N   0  0  0  0  0  0  0  0  0  0  0  0
   11.6958  -17.1019   21.8320 C   0  0  0  0  0  0  0  0  0  0  0  0
   13.4391  -17.2419   23.4505 O   0  0  0  0  0  0  0  0  0  0  0  0
   14.1332  -17.9750   22.6690 O   0  0  0  0  0  0  0  0  0  0  0  0
  2  1  1  6
  3  2  1  0
  4  3  1  0
  5  2  1  0
  5  6  2  0
  7  8  1  0
  8 10  1  0
  8  9  2  0
 10 11  1  0
 11 12  1  0
 12 13  1  0
 14 13  1  6
 15 14  1  0
 15  5  1  0
 16 14  1  0
 17 16  2  0
 18 19  1  0
 19 21  1  0
 19 20  2  0
 22 21  1  1
 22 23  1  0
 22 24  1  0
 23 16  1  0
 24 26  1  0
 25 24  2  0
M  END
$$$$
