KIM.pdb
     RDKit          3D

 26 25  0  0  1  0  0  0  0  0999 V2000
   15.4463  -13.1880  -12.8069 N   0  0  0  0  0  0  0  0  0  0  0  0
   14.7815  -11.9136  -12.9211 C   0  0  1  0  0  0  0  0  0  0  0  0
   13.5337  -11.8673  -12.0219 C   0  0  0  0  0  0  0  0  0  0  0  0
   12.5620  -12.9235  -12.4144 C   0  0  0  0  0  0  0  0  0  0  0  0
   11.3467  -13.0602  -11.5800 C   0  0  0  0  0  0  0  0  0  0  0  0
   10.3951  -14.1440  -11.9308 C   0  0  0  0  0  0  0  0  0  0  0  0
    9.2499  -14.2807  -11.0913 N   0  0  0  0  0  0  0  0  0  0  0  0
   15.7353  -10.8456  -12.5292 C   0  0  0  0  0  0  0  0  0  0  0  0
   16.6267  -11.0534  -11.6664 O   0  0  0  0  0  0  0  0  0  0  0  0
   19.1834   -8.9707  -15.6637 C   0  0  0  0  0  0  0  0  0  0  0  0
   18.2882   -9.3774  -14.5012 C   0  0  0  0  0  0  0  0  0  0  0  0
   17.5418   -8.1955  -13.9424 C   0  0  2  0  0  0  0  0  0  0  0  0
   18.4793   -7.0343  -13.6814 C   0  0  0  0  0  0  0  0  0  0  0  0
   16.6696   -8.5018  -12.7776 C   0  0  2  0  0  0  0  0  0  0  0  0
   15.6990   -9.5438  -13.0970 N   0  0  0  0  0  0  0  0  0  0  0  0
   15.9831   -7.3791  -12.1379 C   0  0  0  0  0  0  0  0  0  0  0  0
   15.0706   -6.7785  -12.7827 O   0  0  0  0  0  0  0  0  0  0  0  0
   13.9608   -7.1168   -6.1537 C   0  0  0  0  0  0  0  0  0  0  0  0
   14.6752   -5.4321   -6.1931 S   0  0  0  0  0  0  0  0  0  0  0  0
   14.9327   -4.9700   -7.9023 C   0  0  0  0  0  0  0  0  0  0  0  0
   15.3961   -6.0271   -8.8207 C   0  0  0  0  0  0  0  0  0  0  0  0
   15.5124   -5.7155  -10.2816 C   0  0  2  0  0  0  0  0  0  0  0  0
   16.2408   -6.8960  -10.8419 N   0  0  0  0  0  0  0  0  0  0  0  0
   16.3073   -4.5366  -10.5857 C   0  0  0  0  0  0  0  0  0  0  0  0
   17.6954   -4.5232  -10.7384 O   0  0  0  0  0  0  0  0  0  0  0  0
   15.7060   -3.4117  -10.7224 O   0  0  0  0  0  0  0  0  0  0  0  0
  2  1  1  1
  3  2  1  0
  4  5  1  0
  4  3  1  0
  6  7  1  0
  6  5  1  0
  8 15  1  0
  8  2  1  0
  9  8  2  0
 10 11  1  0
 12 11  1  0
 12 14  1  0
 12 13  1  1
 14 15  1  6
 16 14  1  0
 16 23  1  0
 17 16  2  0
 18 19  1  0
 19 20  1  0
 20 21  1  0
 22 21  1  1
 22 23  1  0
 22 24  1  0
 24 26  2  0
 24 25  1  0
M  END
$$$$
