KIM.pdb
     RDKit          3D

 26 25  0  0  1  0  0  0  0  0999 V2000
   27.8468  -21.9869  -15.8089 N   0  0  0  0  0  0  0  0  0  0  0  0
   27.2365  -20.7974  -15.2689 C   0  0  1  0  0  0  0  0  0  0  0  0
   26.6851  -19.9077  -16.3968 C   0  0  0  0  0  0  0  0  0  0  0  0
   27.7949  -19.3273  -17.2003 C   0  0  0  0  0  0  0  0  0  0  0  0
   28.6960  -18.3763  -16.5108 C   0  0  0  0  0  0  0  0  0  0  0  0
   29.6843  -17.6455  -17.3427 C   0  0  0  0  0  0  0  0  0  0  0  0
   29.7045  -17.9647  -18.7330 N   0  0  0  0  0  0  0  0  0  0  0  0
   26.1402  -21.2019  -14.3533 C   0  0  0  0  0  0  0  0  0  0  0  0
   25.3430  -22.1252  -14.6603 O   0  0  0  0  0  0  0  0  0  0  0  0
   26.8944  -20.9581   -8.9427 C   0  0  0  0  0  0  0  0  0  0  0  0
   26.4721  -21.4036  -10.3360 C   0  0  0  0  0  0  0  0  0  0  0  0
   25.2059  -20.7165  -10.7727 C   0  0  2  0  0  0  0  0  0  0  0  0
   24.0677  -21.0167   -9.8190 C   0  0  0  0  0  0  0  0  0  0  0  0
   24.8350  -20.9364  -12.1959 C   0  0  2  0  0  0  0  0  0  0  0  0
   25.9290  -20.5798  -13.0937 N   0  0  0  0  0  0  0  0  0  0  0  0
   23.5965  -20.3191  -12.6712 C   0  0  0  0  0  0  0  0  0  0  0  0
   23.5626  -19.0593  -12.8154 O   0  0  0  0  0  0  0  0  0  0  0  0
   20.8580  -22.1987  -17.5695 C   0  0  0  0  0  0  0  0  0  0  0  0
   19.3811  -21.2178  -17.1146 S   0  0  0  0  0  0  0  0  0  0  0  0
   19.6490  -20.5181  -15.4898 C   0  0  0  0  0  0  0  0  0  0  0  0
   20.9012  -20.8823  -14.8005 C   0  0  0  0  0  0  0  0  0  0  0  0
   21.1837  -20.2895  -13.4538 C   0  0  2  0  0  0  0  0  0  0  0  0
   22.4141  -21.0080  -12.9980 N   0  0  0  0  0  0  0  0  0  0  0  0
   20.1515  -20.5323  -12.4590 C   0  0  0  0  0  0  0  0  0  0  0  0
   19.0660  -19.6902  -12.2082 O   0  0  0  0  0  0  0  0  0  0  0  0
   20.2295  -21.5937  -11.7426 O   0  0  0  0  0  0  0  0  0  0  0  0
  2  1  1  6
  3  2  1  0
  4  5  1  0
  4  3  1  0
  6  7  1  0
  6  5  1  0
  8 15  1  0
  8  2  1  0
  9  8  2  0
 10 11  1  0
 12 11  1  0
 12 14  1  0
 12 13  1  1
 14 15  1  6
 16 14  1  0
 16 23  1  0
 17 16  2  0
 18 19  1  0
 19 20  1  0
 20 21  1  0
 22 21  1  6
 22 23  1  0
 22 24  1  0
 24 26  2  0
 24 25  1  0
M  END
$$$$
