KIM.pdb
     RDKit          3D

 26 25  0  0  1  0  0  0  0  0999 V2000
   17.5243  -11.2710  -17.3607 N   0  0  0  0  0  0  0  0  0  0  0  0
   18.4920  -10.2953  -17.7972 C   0  0  1  0  0  0  0  0  0  0  0  0
   17.8103   -9.1724  -18.5986 C   0  0  0  0  0  0  0  0  0  0  0  0
   16.6042   -9.6853  -19.3028 C   0  0  0  0  0  0  0  0  0  0  0  0
   16.6526   -9.7134  -20.7823 C   0  0  0  0  0  0  0  0  0  0  0  0
   15.4121  -10.1003  -21.4995 C   0  0  0  0  0  0  0  0  0  0  0  0
   15.4707  -10.0843  -22.9248 N   0  0  0  0  0  0  0  0  0  0  0  0
   19.1692   -9.7330  -16.6018 C   0  0  0  0  0  0  0  0  0  0  0  0
   18.5819   -9.6676  -15.4913 O   0  0  0  0  0  0  0  0  0  0  0  0
   23.5049  -11.7540  -14.7923 C   0  0  0  0  0  0  0  0  0  0  0  0
   22.1999  -11.0122  -15.0470 C   0  0  0  0  0  0  0  0  0  0  0  0
   22.4262   -9.5296  -15.1757 C   0  0  2  0  0  0  0  0  0  0  0  0
   23.2055   -8.9939  -13.9921 C   0  0  0  0  0  0  0  0  0  0  0  0
   21.2037   -8.7341  -15.4653 C   0  0  2  0  0  0  0  0  0  0  0  0
   20.5020   -9.2423  -16.6397 N   0  0  0  0  0  0  0  0  0  0  0  0
   21.3571   -7.2837  -15.5818 C   0  0  0  0  0  0  0  0  0  0  0  0
   22.0586   -6.8218  -16.5323 O   0  0  0  0  0  0  0  0  0  0  0  0
   18.1073   -0.2518  -14.4597 C   0  0  0  0  0  0  0  0  0  0  0  0
   17.9605   -2.0757  -14.4164 S   0  0  0  0  0  0  0  0  0  0  0  0
   19.5999   -2.7758  -14.5705 C   0  0  0  0  0  0  0  0  0  0  0  0
   19.6925   -4.2396  -14.7269 C   0  0  0  0  0  0  0  0  0  0  0  0
   21.0449   -4.8661  -14.8797 C   0  0  2  0  0  0  0  0  0  0  0  0
   20.7803   -6.3301  -14.7229 N   0  0  0  0  0  0  0  0  0  0  0  0
   22.0033   -4.4907  -13.8527 C   0  0  0  0  0  0  0  0  0  0  0  0
   22.2457   -5.2105  -12.6808 O   0  0  0  0  0  0  0  0  0  0  0  0
   22.6843   -3.4156  -14.0148 O   0  0  0  0  0  0  0  0  0  0  0  0
  2  1  1  1
  3  2  1  0
  4  5  1  0
  4  3  1  0
  6  7  1  0
  6  5  1  0
  8 15  1  0
  8  2  1  0
  9  8  2  0
 10 11  1  0
 12 11  1  0
 12 14  1  0
 12 13  1  1
 14 15  1  6
 16 14  1  0
 16 23  1  0
 17 16  2  0
 18 19  1  0
 19 20  1  0
 20 21  1  0
 22 21  1  1
 22 23  1  0
 22 24  1  0
 24 26  2  0
 24 25  1  0
M  END
$$$$
