KIM.pdb
     RDKit          3D

 26 25  0  0  1  0  0  0  0  0999 V2000
   26.1644  -21.6402  -15.1781 N   0  0  0  0  0  0  0  0  0  0  0  0
   25.1322  -20.7065  -14.8016 C   0  0  1  0  0  0  0  0  0  0  0  0
   25.0539  -20.5687  -13.2711 C   0  0  0  0  0  0  0  0  0  0  0  0
   23.9346  -21.3830  -12.7253 C   0  0  0  0  0  0  0  0  0  0  0  0
   23.1744  -22.2099  -13.6897 C   0  0  0  0  0  0  0  0  0  0  0  0
   21.9831  -22.9335  -13.1795 C   0  0  0  0  0  0  0  0  0  0  0  0
   21.1144  -22.1997  -12.3182 N   0  0  0  0  0  0  0  0  0  0  0  0
   25.4356  -19.3912  -15.4195 C   0  0  0  0  0  0  0  0  0  0  0  0
   24.7908  -18.3587  -15.1027 O   0  0  0  0  0  0  0  0  0  0  0  0
   30.0821  -16.6934  -18.5869 C   0  0  0  0  0  0  0  0  0  0  0  0
   28.6555  -16.6068  -18.0620 C   0  0  0  0  0  0  0  0  0  0  0  0
   28.2089  -17.9146  -17.4651 C   0  0  2  0  0  0  0  0  0  0  0  0
   28.5155  -19.0699  -18.3959 C   0  0  0  0  0  0  0  0  0  0  0  0
   26.8053  -17.9301  -16.9743 C   0  0  2  0  0  0  0  0  0  0  0  0
   26.4579  -19.2222  -16.3915 N   0  0  0  0  0  0  0  0  0  0  0  0
   25.7597  -17.5250  -17.9144 C   0  0  0  0  0  0  0  0  0  0  0  0
   25.2635  -18.4018  -18.6851 O   0  0  0  0  0  0  0  0  0  0  0  0
   19.6830  -18.8056  -17.9109 C   0  0  0  0  0  0  0  0  0  0  0  0
   20.4827  -17.1854  -17.6182 S   0  0  0  0  0  0  0  0  0  0  0  0
   22.1030  -17.2126  -18.3768 C   0  0  0  0  0  0  0  0  0  0  0  0
   22.9051  -15.9777  -18.2905 C   0  0  0  0  0  0  0  0  0  0  0  0
   24.1889  -15.8945  -19.0584 C   0  0  2  0  0  0  0  0  0  0  0  0
   25.2354  -16.2257  -18.0420 N   0  0  0  0  0  0  0  0  0  0  0  0
   24.4973  -14.5715  -19.5768 C   0  0  0  0  0  0  0  0  0  0  0  0
   25.5346  -13.7542  -19.1223 O   0  0  0  0  0  0  0  0  0  0  0  0
   23.7683  -14.0988  -20.5206 O   0  0  0  0  0  0  0  0  0  0  0  0
  2  1  1  1
  3  2  1  0
  4  5  1  0
  4  3  1  0
  6  7  1  0
  6  5  1  0
  8 15  1  0
  8  2  1  0
  9  8  2  0
 10 11  1  0
 12 11  1  0
 12 14  1  0
 12 13  1  6
 14 15  1  6
 16 14  1  0
 16 23  1  0
 17 16  2  0
 18 19  1  0
 19 20  1  0
 20 21  1  0
 22 21  1  1
 22 23  1  0
 22 24  1  0
 24 26  2  0
 24 25  1  0
M  END
$$$$
