KIM.pdb
     RDKit          3D

 26 25  0  0  1  0  0  0  0  0999 V2000
   28.0879  -25.2035  -16.1878 N   0  0  0  0  0  0  0  0  0  0  0  0
   27.1762  -24.3356  -16.8911 C   0  0  1  0  0  0  0  0  0  0  0  0
   26.1004  -25.1552  -17.6250 C   0  0  0  0  0  0  0  0  0  0  0  0
   26.6491  -25.7438  -18.8765 C   0  0  0  0  0  0  0  0  0  0  0  0
   27.7602  -26.7114  -18.7316 C   0  0  0  0  0  0  0  0  0  0  0  0
   28.2531  -27.3757  -19.9641 C   0  0  0  0  0  0  0  0  0  0  0  0
   27.2745  -27.6822  -20.9558 N   0  0  0  0  0  0  0  0  0  0  0  0
   26.5419  -23.4204  -15.9094 C   0  0  0  0  0  0  0  0  0  0  0  0
   26.2553  -23.8089  -14.7478 O   0  0  0  0  0  0  0  0  0  0  0  0
   28.2982  -18.3700  -15.5471 C   0  0  0  0  0  0  0  0  0  0  0  0
   27.7427  -19.7498  -15.2217 C   0  0  0  0  0  0  0  0  0  0  0  0
   26.2451  -19.7884  -15.3693 C   0  0  2  0  0  0  0  0  0  0  0  0
   25.5828  -18.7742  -14.4594 C   0  0  0  0  0  0  0  0  0  0  0  0
   25.6411  -21.1424  -15.2552 C   0  0  2  0  0  0  0  0  0  0  0  0
   26.2253  -22.0703  -16.2184 N   0  0  0  0  0  0  0  0  0  0  0  0
   24.1821  -21.2352  -15.3156 C   0  0  0  0  0  0  0  0  0  0  0  0
   23.6042  -21.0020  -16.4204 O   0  0  0  0  0  0  0  0  0  0  0  0
   21.1851  -26.0168  -13.6069 C   0  0  0  0  0  0  0  0  0  0  0  0
   19.6660  -25.1333  -14.1189 S   0  0  0  0  0  0  0  0  0  0  0  0
   20.0540  -23.3941  -14.2801 C   0  0  0  0  0  0  0  0  0  0  0  0
   21.4812  -23.0214  -14.2718 C   0  0  0  0  0  0  0  0  0  0  0  0
   21.8506  -21.5731  -14.3750 C   0  0  2  0  0  0  0  0  0  0  0  0
   23.3405  -21.5738  -14.2402 N   0  0  0  0  0  0  0  0  0  0  0  0
   21.3233  -20.7382  -13.3077 C   0  0  0  0  0  0  0  0  0  0  0  0
   20.0413  -20.1850  -13.2817 O   0  0  0  0  0  0  0  0  0  0  0  0
   22.0810  -20.4733  -12.3069 O   0  0  0  0  0  0  0  0  0  0  0  0
  2  1  1  1
  3  2  1  0
  4  5  1  0
  4  3  1  0
  6  7  1  0
  6  5  1  0
  8 15  1  0
  8  2  1  0
  9  8  2  0
 10 11  1  0
 12 11  1  0
 12 14  1  0
 12 13  1  1
 14 15  1  6
 16 14  1  0
 16 23  1  0
 17 16  2  0
 18 19  1  0
 19 20  1  0
 20 21  1  0
 22 21  1  1
 22 23  1  0
 22 24  1  0
 24 26  2  0
 24 25  1  0
M  END
$$$$
