KIM.pdb
     RDKit          3D

 26 25  0  0  1  0  0  0  0  0999 V2000
   28.0024  -21.8389  -15.7535 N   0  0  0  0  0  0  0  0  0  0  0  0
   27.2743  -20.6835  -15.2909 C   0  0  1  0  0  0  0  0  0  0  0  0
   26.6345  -19.9335  -16.4724 C   0  0  0  0  0  0  0  0  0  0  0  0
   27.6726  -19.2342  -17.2768 C   0  0  0  0  0  0  0  0  0  0  0  0
   28.3910  -18.1185  -16.6203 C   0  0  0  0  0  0  0  0  0  0  0  0
   28.3905  -16.8047  -17.3110 C   0  0  0  0  0  0  0  0  0  0  0  0
   29.3398  -16.6393  -18.3629 N   0  0  0  0  0  0  0  0  0  0  0  0
   26.2255  -21.1341  -14.3418 C   0  0  0  0  0  0  0  0  0  0  0  0
   25.5414  -22.1650  -14.5688 O   0  0  0  0  0  0  0  0  0  0  0  0
   26.9066  -20.5771   -8.9542 C   0  0  0  0  0  0  0  0  0  0  0  0
   26.4933  -21.1474  -10.3040 C   0  0  0  0  0  0  0  0  0  0  0  0
   25.2290  -20.5048  -10.8086 C   0  0  2  0  0  0  0  0  0  0  0  0
   24.0802  -20.7375   -9.8486 C   0  0  0  0  0  0  0  0  0  0  0  0
   24.8778  -20.8370  -12.2149 C   0  0  2  0  0  0  0  0  0  0  0  0
   25.9358  -20.4381  -13.1376 N   0  0  0  0  0  0  0  0  0  0  0  0
   23.5898  -20.3582  -12.7175 C   0  0  0  0  0  0  0  0  0  0  0  0
   23.4355  -19.1129  -12.9032 O   0  0  0  0  0  0  0  0  0  0  0  0
   19.9079  -24.1323  -16.1286 C   0  0  0  0  0  0  0  0  0  0  0  0
   19.0076  -22.5817  -16.4968 S   0  0  0  0  0  0  0  0  0  0  0  0
   19.4949  -21.3493  -15.2948 C   0  0  0  0  0  0  0  0  0  0  0  0
   20.8104  -21.5233  -14.6507 C   0  0  0  0  0  0  0  0  0  0  0  0
   21.2035  -20.5906  -13.5461 C   0  0  2  0  0  0  0  0  0  0  0  0
   22.4825  -21.1686  -13.0284 N   0  0  0  0  0  0  0  0  0  0  0  0
   20.2701  -20.5472  -12.4321 C   0  0  0  0  0  0  0  0  0  0  0  0
   19.2221  -19.6337  -12.2995 O   0  0  0  0  0  0  0  0  0  0  0  0
   20.4070  -21.4020  -11.4852 O   0  0  0  0  0  0  0  0  0  0  0  0
  2  1  1  6
  3  2  1  0
  4  5  1  0
  4  3  1  0
  6  7  1  0
  6  5  1  0
  8 15  1  0
  8  2  1  0
  9  8  2  0
 10 11  1  0
 12 11  1  0
 12 14  1  0
 12 13  1  1
 14 15  1  6
 16 14  1  0
 16 23  1  0
 17 16  2  0
 18 19  1  0
 19 20  1  0
 20 21  1  0
 22 21  1  6
 22 23  1  0
 22 24  1  0
 24 26  2  0
 24 25  1  0
M  END
$$$$
