KIM.pdb
     RDKit          3D

 26 25  0  0  1  0  0  0  0  0999 V2000
   27.3707  -22.1056  -16.1183 N   0  0  0  0  0  0  0  0  0  0  0  0
   26.7513  -20.8937  -15.6421 C   0  0  1  0  0  0  0  0  0  0  0  0
   26.1452  -20.0962  -16.8101 C   0  0  0  0  0  0  0  0  0  0  0  0
   27.2167  -19.5102  -17.6601 C   0  0  0  0  0  0  0  0  0  0  0  0
   28.4114  -18.9818  -16.9635 C   0  0  0  0  0  0  0  0  0  0  0  0
   29.4302  -18.2843  -17.7874 C   0  0  0  0  0  0  0  0  0  0  0  0
   28.9402  -17.4935  -18.8689 N   0  0  0  0  0  0  0  0  0  0  0  0
   25.6935  -21.2553  -14.6653 C   0  0  0  0  0  0  0  0  0  0  0  0
   24.8693  -22.1739  -14.9084 O   0  0  0  0  0  0  0  0  0  0  0  0
   26.5643  -20.9495   -9.2603 C   0  0  0  0  0  0  0  0  0  0  0  0
   26.0674  -21.4206  -10.6202 C   0  0  0  0  0  0  0  0  0  0  0  0
   24.8750  -20.6231  -11.0764 C   0  0  2  0  0  0  0  0  0  0  0  0
   23.7260  -20.7553  -10.0978 C   0  0  0  0  0  0  0  0  0  0  0  0
   24.4612  -20.8679  -12.4836 C   0  0  2  0  0  0  0  0  0  0  0  0
   25.5509  -20.5952  -13.4154 N   0  0  0  0  0  0  0  0  0  0  0  0
   23.2446  -20.2037  -12.9521 C   0  0  0  0  0  0  0  0  0  0  0  0
   23.2387  -18.9381  -13.0384 O   0  0  0  0  0  0  0  0  0  0  0  0
   19.6626  -20.4900  -18.4858 C   0  0  0  0  0  0  0  0  0  0  0  0
   18.6352  -21.1567  -17.1256 S   0  0  0  0  0  0  0  0  0  0  0  0
   19.1124  -20.3391  -15.6074 C   0  0  0  0  0  0  0  0  0  0  0  0
   20.3908  -20.7501  -14.9971 C   0  0  0  0  0  0  0  0  0  0  0  0
   20.8325  -20.0866  -13.7284 C   0  0  2  0  0  0  0  0  0  0  0  0
   22.0551  -20.8520  -13.3317 N   0  0  0  0  0  0  0  0  0  0  0  0
   19.8848  -20.1922  -12.6307 C   0  0  0  0  0  0  0  0  0  0  0  0
   18.8745  -19.2692  -12.3522 O   0  0  0  0  0  0  0  0  0  0  0  0
   19.9710  -21.2010  -11.8427 O   0  0  0  0  0  0  0  0  0  0  0  0
  2  1  1  6
  3  2  1  0
  4  5  1  0
  4  3  1  0
  6  7  1  0
  6  5  1  0
  8 15  1  0
  8  2  1  0
  9  8  2  0
 10 11  1  0
 12 11  1  0
 12 14  1  0
 12 13  1  1
 14 15  1  6
 16 14  1  0
 16 23  1  0
 17 16  2  0
 18 19  1  0
 19 20  1  0
 20 21  1  0
 22 21  1  6
 22 23  1  0
 22 24  1  0
 24 26  2  0
 24 25  1  0
M  END
$$$$
