KIM.pdb
     RDKit          3D

 26 25  0  0  1  0  0  0  0  0999 V2000
   21.9557  -14.9468  -18.0211 N   0  0  0  0  0  0  0  0  0  0  0  0
   22.3705  -13.6655  -18.5360 C   0  0  1  0  0  0  0  0  0  0  0  0
   21.2632  -13.0426  -19.4040 C   0  0  0  0  0  0  0  0  0  0  0  0
   20.3540  -14.0948  -19.9332 C   0  0  0  0  0  0  0  0  0  0  0  0
   19.2086  -13.6406  -20.7540 C   0  0  0  0  0  0  0  0  0  0  0  0
   18.3106  -14.6832  -21.3106 C   0  0  0  0  0  0  0  0  0  0  0  0
   18.9000  -15.6097  -22.2212 N   0  0  0  0  0  0  0  0  0  0  0  0
   22.6857  -12.7749  -17.3909 C   0  0  0  0  0  0  0  0  0  0  0  0
   21.9995  -12.8018  -16.3370 O   0  0  0  0  0  0  0  0  0  0  0  0
   27.6911  -11.9267  -15.6000 C   0  0  0  0  0  0  0  0  0  0  0  0
   26.1862  -12.1076  -15.7441 C   0  0  0  0  0  0  0  0  0  0  0  0
   25.5047  -10.8058  -16.0709 C   0  0  2  0  0  0  0  0  0  0  0  0
   25.8362   -9.7450  -15.0413 C   0  0  0  0  0  0  0  0  0  0  0  0
   24.0450  -10.9139  -16.3339 C   0  0  2  0  0  0  0  0  0  0  0  0
   23.7658  -11.8523  -17.4162 N   0  0  0  0  0  0  0  0  0  0  0  0
   23.3101   -9.6706  -16.5681 C   0  0  0  0  0  0  0  0  0  0  0  0
   23.6321   -8.9533  -17.5636 O   0  0  0  0  0  0  0  0  0  0  0  0
   17.4831   -8.9379  -18.2411 C   0  0  0  0  0  0  0  0  0  0  0  0
   17.4546   -7.7568  -16.8432 S   0  0  0  0  0  0  0  0  0  0  0  0
   19.1333   -7.2303  -16.5173 C   0  0  0  0  0  0  0  0  0  0  0  0
   20.1468   -8.2880  -16.3449 C   0  0  0  0  0  0  0  0  0  0  0  0
   21.5678   -7.8917  -16.0832 C   0  0  2  0  0  0  0  0  0  0  0  0
   22.2501   -9.1878  -15.7789 N   0  0  0  0  0  0  0  0  0  0  0  0
   21.7505   -7.0286  -14.9274 C   0  0  0  0  0  0  0  0  0  0  0  0
   21.6121   -5.6390  -14.9347 O   0  0  0  0  0  0  0  0  0  0  0  0
   22.0694   -7.5658  -13.8068 O   0  0  0  0  0  0  0  0  0  0  0  0
  2  1  1  1
  3  2  1  0
  4  5  1  0
  4  3  1  0
  6  7  1  0
  6  5  1  0
  8 15  1  0
  8  2  1  0
  9  8  2  0
 10 11  1  0
 12 11  1  0
 12 14  1  0
 12 13  1  1
 14 15  1  6
 16 14  1  0
 16 23  1  0
 17 16  2  0
 18 19  1  0
 19 20  1  0
 20 21  1  0
 22 21  1  1
 22 23  1  0
 22 24  1  0
 24 26  2  0
 24 25  1  0
M  END
$$$$
