KIM.pdb
     RDKit          3D

 26 25  0  0  1  0  0  0  0  0999 V2000
   18.9136  -23.4932  -10.7681 N   0  0  0  0  0  0  0  0  0  0  0  0
   19.7999  -22.5639  -10.1125 C   0  0  1  0  0  0  0  0  0  0  0  0
   20.2867  -23.1314   -8.7677 C   0  0  0  0  0  0  0  0  0  0  0  0
   19.1462  -23.3174   -7.8304 C   0  0  0  0  0  0  0  0  0  0  0  0
   18.4078  -24.5975   -7.9183 C   0  0  0  0  0  0  0  0  0  0  0  0
   18.3486  -25.4377   -6.6961 C   0  0  0  0  0  0  0  0  0  0  0  0
   17.5275  -24.9568   -5.6334 N   0  0  0  0  0  0  0  0  0  0  0  0
   20.9558  -22.3015  -11.0063 C   0  0  0  0  0  0  0  0  0  0  0  0
   21.5172  -23.2349  -11.6356 O   0  0  0  0  0  0  0  0  0  0  0  0
   20.3438  -19.1914  -14.4319 C   0  0  0  0  0  0  0  0  0  0  0  0
   21.3263  -20.2999  -14.0797 C   0  0  0  0  0  0  0  0  0  0  0  0
   22.3872  -19.8129  -13.1292 C   0  0  2  0  0  0  0  0  0  0  0  0
   23.6337  -19.3872  -13.8776 C   0  0  0  0  0  0  0  0  0  0  0  0
   22.6827  -20.7326  -11.9987 C   0  0  2  0  0  0  0  0  0  0  0  0
   21.4894  -20.9995  -11.2019 N   0  0  0  0  0  0  0  0  0  0  0  0
   23.7886  -20.3731  -11.1107 C   0  0  0  0  0  0  0  0  0  0  0  0
   23.6912  -19.3152  -10.4175 O   0  0  0  0  0  0  0  0  0  0  0  0
   27.0175  -18.5978   -6.2819 C   0  0  0  0  0  0  0  0  0  0  0  0
   27.9686  -20.0177   -6.9374 S   0  0  0  0  0  0  0  0  0  0  0  0
   27.8027  -20.0316   -8.7189 C   0  0  0  0  0  0  0  0  0  0  0  0
   26.5249  -20.5205   -9.2701 C   0  0  0  0  0  0  0  0  0  0  0  0
   26.2984  -20.4422  -10.7490 C   0  0  2  0  0  0  0  0  0  0  0  0
   24.9746  -21.1112  -10.9438 N   0  0  0  0  0  0  0  0  0  0  0  0
   27.2699  -21.1720  -11.5477 C   0  0  0  0  0  0  0  0  0  0  0  0
   28.5685  -20.7385  -11.8237 O   0  0  0  0  0  0  0  0  0  0  0  0
   26.9245  -22.3003  -12.0511 O   0  0  0  0  0  0  0  0  0  0  0  0
  2  1  1  6
  3  2  1  0
  4  5  1  0
  4  3  1  0
  6  7  1  0
  6  5  1  0
  8 15  1  0
  8  2  1  0
  9  8  2  0
 10 11  1  0
 12 11  1  0
 12 14  1  0
 12 13  1  6
 14 15  1  1
 16 14  1  0
 16 23  1  0
 17 16  2  0
 18 19  1  0
 19 20  1  0
 20 21  1  0
 22 21  1  1
 22 23  1  0
 22 24  1  0
 24 26  2  0
 24 25  1  0
M  END
$$$$
