KIM.pdb
     RDKit          3D

 26 25  0  0  1  0  0  0  0  0999 V2000
   27.8241  -19.0502  -16.9772 N   0  0  0  0  0  0  0  0  0  0  0  0
   27.5807  -18.4709  -15.6794 C   0  0  1  0  0  0  0  0  0  0  0  0
   26.4663  -17.4127  -15.7554 C   0  0  0  0  0  0  0  0  0  0  0  0
   26.9223  -16.2212  -16.5210 C   0  0  0  0  0  0  0  0  0  0  0  0
   26.3356  -14.9157  -16.1423 C   0  0  0  0  0  0  0  0  0  0  0  0
   26.8379  -13.7102  -16.8477 C   0  0  0  0  0  0  0  0  0  0  0  0
   26.2370  -12.4672  -16.4887 N   0  0  0  0  0  0  0  0  0  0  0  0
   27.1945  -19.5553  -14.7421 C   0  0  0  0  0  0  0  0  0  0  0  0
   26.5616  -20.5664  -15.1414 O   0  0  0  0  0  0  0  0  0  0  0  0
   30.4527  -21.0055  -10.6243 C   0  0  0  0  0  0  0  0  0  0  0  0
   29.4458  -21.1045  -11.7621 C   0  0  0  0  0  0  0  0  0  0  0  0
   28.0647  -20.7120  -11.3098 C   0  0  2  0  0  0  0  0  0  0  0  0
   27.5667  -21.6370  -10.2182 C   0  0  0  0  0  0  0  0  0  0  0  0
   27.0758  -20.5334  -12.4059 C   0  0  2  0  0  0  0  0  0  0  0  0
   27.5120  -19.5168  -13.3578 N   0  0  0  0  0  0  0  0  0  0  0  0
   25.6872  -20.2759  -12.0235 C   0  0  0  0  0  0  0  0  0  0  0  0
   25.3701  -19.1101  -11.6370 O   0  0  0  0  0  0  0  0  0  0  0  0
   18.2029  -22.6710  -12.8595 C   0  0  0  0  0  0  0  0  0  0  0  0
   19.9654  -22.8662  -13.3129 S   0  0  0  0  0  0  0  0  0  0  0  0
   20.9359  -21.7720  -12.2821 C   0  0  0  0  0  0  0  0  0  0  0  0
   22.3959  -21.7716  -12.4923 C   0  0  0  0  0  0  0  0  0  0  0  0
   23.2458  -20.8611  -11.6597 C   0  0  2  0  0  0  0  0  0  0  0  0
   24.6442  -21.2199  -12.0516 N   0  0  0  0  0  0  0  0  0  0  0  0
   23.1336  -21.0747  -10.2258 C   0  0  0  0  0  0  0  0  0  0  0  0
   23.8925  -21.9869   -9.4894 O   0  0  0  0  0  0  0  0  0  0  0  0
   22.2728  -20.3857   -9.5699 O   0  0  0  0  0  0  0  0  0  0  0  0
  2  1  1  6
  3  2  1  0
  4  5  1  0
  4  3  1  0
  6  7  1  0
  6  5  1  0
  8 15  1  0
  8  2  1  0
  9  8  2  0
 10 11  1  0
 12 11  1  0
 12 14  1  0
 12 13  1  1
 14 15  1  6
 16 14  1  0
 16 23  1  0
 17 16  2  0
 18 19  1  0
 19 20  1  0
 20 21  1  0
 22 21  1  6
 22 23  1  0
 22 24  1  0
 24 26  2  0
 24 25  1  0
M  END
$$$$
