TFK.pdb
     RDKit          3D

 28 28  0  0  1  0  0  0  0  0999 V2000
    7.3924  -18.3359   18.8788 C   0  0  0  0  0  0  0  0  0  0  0  0
    7.7454  -17.6747   20.1837 C   0  0  1  0  0  0  0  0  0  0  0  0
    8.4941  -18.4829   21.0147 O   0  0  0  0  0  0  0  0  0  0  0  0
    8.4444  -16.3612   20.0228 C   0  0  2  0  0  0  0  0  0  0  0  0
    9.7144  -16.4644   19.3632 N   0  0  0  0  0  0  0  0  0  0  0  0
    8.6867  -15.8087   21.3850 C   0  0  0  0  0  0  0  0  0  0  0  0
    9.7731  -16.1064   21.9309 O   0  0  0  0  0  0  0  0  0  0  0  0
    7.7798  -14.9915   22.0688 N   0  0  0  0  0  0  0  0  0  0  0  0
    7.9710  -14.5041   23.4338 C   0  0  1  0  0  0  0  0  0  0  0  0
    6.9557  -13.4404   23.7687 C   0  0  0  0  0  0  0  0  0  0  0  0
    7.0882  -12.9045   25.1402 C   0  0  0  0  0  0  0  0  0  0  0  0
    8.2351  -12.3326   25.6506 C   0  0  0  0  0  0  0  0  0  0  0  0
    8.2666  -11.8570   26.9419 C   0  0  0  0  0  0  0  0  0  0  0  0
    7.1648  -11.9298   27.7757 C   0  0  0  0  0  0  0  0  0  0  0  0
    6.0173  -12.5021   27.2649 C   0  0  0  0  0  0  0  0  0  0  0  0
    5.9834  -12.9795   25.9707 C   0  0  0  0  0  0  0  0  0  0  0  0
    7.9953  -15.6303   24.3981 C   0  0  0  0  0  0  0  0  0  0  0  0
    6.9960  -16.3862   24.4635 O   0  0  0  0  0  0  0  0  0  0  0  0
    9.0915  -15.8902   25.2454 N   0  0  0  0  0  0  0  0  0  0  0  0
    9.0692  -17.1170   26.0630 C   0  0  1  0  0  0  0  0  0  0  0  0
    9.4541  -18.2902   25.2253 C   0  0  0  0  0  0  0  0  0  0  0  0
    9.5571  -19.5353   26.0531 C   0  0  0  0  0  0  0  0  0  0  0  0
    9.9101  -20.7429   25.1640 C   0  0  0  0  0  0  0  0  0  0  0  0
   10.0069  -21.9257   26.1280 C   0  0  0  0  0  0  0  0  0  0  0  0
   10.3138  -23.1501   25.4531 N   0  0  0  0  0  0  0  0  0  0  0  0
    9.9719  -16.9644   27.2132 C   0  0  0  0  0  0  0  0  0  0  0  0
   10.9793  -16.1840   27.1042 O   0  0  0  0  0  0  0  0  0  0  0  0
    9.8237  -17.5973   28.4221 O   0  0  0  0  0  0  0  0  0  0  0  0
  2  1  1  6
  2  4  1  0
  3  2  1  0
  4  5  1  1
  4  6  1  0
  6  7  2  0
  8  6  1  0
  8  9  1  0
  9 10  1  1
 10 11  1  0
 11 12  2  0
 12 13  1  0
 14 13  2  0
 15 14  1  0
 16 11  1  0
 16 15  2  0
 17 19  1  0
 17  9  1  0
 18 17  2  0
 20 21  1  6
 20 19  1  0
 22 23  1  0
 22 21  1  0
 24 25  1  0
 24 23  1  0
 26 20  1  0
 26 28  1  0
 27 26  2  0
M  END
$$$$
