TFK.pdb
     RDKit          3D

 28 28  0  0  1  0  0  0  0  0999 V2000
    8.7016  -19.0678   19.4131 C   0  0  0  0  0  0  0  0  0  0  0  0
    8.9292  -18.2172   20.6334 C   0  0  1  0  0  0  0  0  0  0  0  0
    9.8403  -18.7653   21.5129 O   0  0  0  0  0  0  0  0  0  0  0  0
    9.3397  -16.8126   20.3196 C   0  0  2  0  0  0  0  0  0  0  0  0
   10.6213  -16.7187   19.6812 N   0  0  0  0  0  0  0  0  0  0  0  0
    9.4210  -16.0675   21.6071 C   0  0  0  0  0  0  0  0  0  0  0  0
   10.5195  -16.0932   22.2068 O   0  0  0  0  0  0  0  0  0  0  0  0
    8.3537  -15.3562   22.1664 N   0  0  0  0  0  0  0  0  0  0  0  0
    8.4086  -14.6518   23.4462 C   0  0  1  0  0  0  0  0  0  0  0  0
    7.2059  -13.7579   23.6164 C   0  0  0  0  0  0  0  0  0  0  0  0
    7.1786  -13.0394   24.9082 C   0  0  0  0  0  0  0  0  0  0  0  0
    6.2848  -13.2939   25.9277 C   0  0  0  0  0  0  0  0  0  0  0  0
    6.3352  -12.5745   27.1001 C   0  0  0  0  0  0  0  0  0  0  0  0
    7.2716  -11.5770   27.3071 C   0  0  0  0  0  0  0  0  0  0  0  0
    8.1658  -11.3225   26.2869 C   0  0  0  0  0  0  0  0  0  0  0  0
    8.1172  -12.0423   25.1107 C   0  0  0  0  0  0  0  0  0  0  0  0
    8.6070  -15.6044   24.5652 C   0  0  0  0  0  0  0  0  0  0  0  0
    7.8093  -16.5656   24.6837 O   0  0  0  0  0  0  0  0  0  0  0  0
    9.6523  -15.4786   25.5025 N   0  0  0  0  0  0  0  0  0  0  0  0
    9.8586  -16.5701   26.4720 C   0  0  1  0  0  0  0  0  0  0  0  0
   11.1443  -17.2691   26.1809 C   0  0  0  0  0  0  0  0  0  0  0  0
   10.9019  -18.6597   25.6773 C   0  0  0  0  0  0  0  0  0  0  0  0
   12.2349  -19.3333   25.2994 C   0  0  0  0  0  0  0  0  0  0  0  0
   11.8352  -20.6570   24.6471 C   0  0  0  0  0  0  0  0  0  0  0  0
   12.9683  -21.3860   24.1637 N   0  0  0  0  0  0  0  0  0  0  0  0
    9.8432  -16.0302   27.8392 C   0  0  0  0  0  0  0  0  0  0  0  0
    9.9717  -16.8397   28.8210 O   0  0  0  0  0  0  0  0  0  0  0  0
    9.7033  -14.7035   28.1621 O   0  0  0  0  0  0  0  0  0  0  0  0
  2  1  1  6
  2  4  1  0
  3  2  1  0
  4  5  1  1
  4  6  1  0
  6  7  2  0
  8  6  1  0
  8  9  1  0
  9 10  1  1
 10 11  1  0
 11 12  2  0
 12 13  1  0
 14 13  2  0
 15 14  1  0
 16 11  1  0
 16 15  2  0
 17 19  1  0
 17  9  1  0
 18 17  2  0
 20 21  1  6
 20 19  1  0
 22 23  1  0
 22 21  1  0
 24 25  1  0
 24 23  1  0
 26 20  1  0
 26 28  1  0
 27 26  2  0
M  END
$$$$
