TFK.pdb
     RDKit          3D

 28 28  0  0  1  0  0  0  0  0999 V2000
    7.4294  -18.0946   18.4742 C   0  0  0  0  0  0  0  0  0  0  0  0
    7.8148  -17.4893   19.7969 C   0  0  1  0  0  0  0  0  0  0  0  0
    8.6326  -18.3078   20.5488 O   0  0  0  0  0  0  0  0  0  0  0  0
    8.4522  -16.1404   19.6783 C   0  0  2  0  0  0  0  0  0  0  0  0
    9.6972  -16.1552   18.9653 N   0  0  0  0  0  0  0  0  0  0  0  0
    8.7275  -15.6482   21.0572 C   0  0  0  0  0  0  0  0  0  0  0  0
    9.8890  -15.8119   21.4946 O   0  0  0  0  0  0  0  0  0  0  0  0
    7.7730  -15.0259   21.8693 N   0  0  0  0  0  0  0  0  0  0  0  0
    8.0364  -14.5143   23.2132 C   0  0  1  0  0  0  0  0  0  0  0  0
    6.9682  -13.5353   23.6314 C   0  0  0  0  0  0  0  0  0  0  0  0
    7.1149  -13.0552   25.0219 C   0  0  0  0  0  0  0  0  0  0  0  0
    6.3331  -13.4690   26.0804 C   0  0  0  0  0  0  0  0  0  0  0  0
    6.5434  -12.9684   27.3452 C   0  0  0  0  0  0  0  0  0  0  0  0
    7.5348  -12.0400   27.6094 C   0  0  0  0  0  0  0  0  0  0  0  0
    8.3170  -11.6259   26.5503 C   0  0  0  0  0  0  0  0  0  0  0  0
    8.1080  -12.1264   25.2814 C   0  0  0  0  0  0  0  0  0  0  0  0
    8.2340  -15.6276   24.1727 C   0  0  0  0  0  0  0  0  0  0  0  0
    7.3230  -16.4813   24.2973 O   0  0  0  0  0  0  0  0  0  0  0  0
    9.4001  -15.7700   24.9517 N   0  0  0  0  0  0  0  0  0  0  0  0
    9.5417  -16.9774   25.7861 C   0  0  1  0  0  0  0  0  0  0  0  0
   10.8003  -17.6946   25.4284 C   0  0  0  0  0  0  0  0  0  0  0  0
   10.7598  -18.1845   24.0126 C   0  0  0  0  0  0  0  0  0  0  0  0
   12.1037  -18.8340   23.6312 C   0  0  0  0  0  0  0  0  0  0  0  0
   11.9077  -19.3304   22.1984 C   0  0  0  0  0  0  0  0  0  0  0  0
   13.0745  -19.9835   21.6876 N   0  0  0  0  0  0  0  0  0  0  0  0
    9.5269  -16.6037   27.2078 C   0  0  0  0  0  0  0  0  0  0  0  0
    9.8021  -15.3967   27.5287 O   0  0  0  0  0  0  0  0  0  0  0  0
    9.2338  -17.4545   28.2443 O   0  0  0  0  0  0  0  0  0  0  0  0
  2  1  1  6
  2  4  1  0
  3  2  1  0
  4  5  1  6
  4  6  1  0
  6  7  2  0
  8  6  1  0
  8  9  1  0
  9 10  1  1
 10 11  1  0
 11 12  2  0
 12 13  1  0
 14 13  2  0
 15 14  1  0
 16 11  1  0
 16 15  2  0
 17 19  1  0
 17  9  1  0
 18 17  2  0
 20 21  1  6
 20 19  1  0
 22 23  1  0
 22 21  1  0
 24 25  1  0
 24 23  1  0
 26 20  1  0
 26 28  1  0
 27 26  2  0
M  END
$$$$
