TFK.pdb
     RDKit          3D

 28 28  0  0  1  0  0  0  0  0999 V2000
    8.6107  -18.4788   19.0400 C   0  0  0  0  0  0  0  0  0  0  0  0
    8.7863  -17.7267   20.3315 C   0  0  1  0  0  0  0  0  0  0  0  0
    9.6516  -18.3498   21.2072 O   0  0  0  0  0  0  0  0  0  0  0  0
    9.2199  -16.3063   20.1463 C   0  0  2  0  0  0  0  0  0  0  0  0
   10.5138  -16.1762   19.5399 N   0  0  0  0  0  0  0  0  0  0  0  0
    9.2875  -15.6753   21.4941 C   0  0  0  0  0  0  0  0  0  0  0  0
   10.3874  -15.7298   22.0894 O   0  0  0  0  0  0  0  0  0  0  0  0
    8.2062  -15.0390   22.1135 N   0  0  0  0  0  0  0  0  0  0  0  0
    8.2201  -14.5284   23.4832 C   0  0  1  0  0  0  0  0  0  0  0  0
    7.0394  -13.6225   23.7281 C   0  0  0  0  0  0  0  0  0  0  0  0
    6.9216  -13.1671   25.1296 C   0  0  0  0  0  0  0  0  0  0  0  0
    6.0198  -13.6706   26.0441 C   0  0  0  0  0  0  0  0  0  0  0  0
    5.9828  -13.1863   27.3319 C   0  0  0  0  0  0  0  0  0  0  0  0
    6.8364  -12.1861   27.7626 C   0  0  0  0  0  0  0  0  0  0  0  0
    7.7387  -11.6823   26.8476 C   0  0  0  0  0  0  0  0  0  0  0  0
    7.7776  -12.1662   25.5559 C   0  0  0  0  0  0  0  0  0  0  0  0
    8.3326  -15.6388   24.4596 C   0  0  0  0  0  0  0  0  0  0  0  0
    7.5102  -16.5839   24.3911 O   0  0  0  0  0  0  0  0  0  0  0  0
    9.3227  -15.6804   25.4621 N   0  0  0  0  0  0  0  0  0  0  0  0
    9.6112  -16.9740   26.1081 C   0  0  1  0  0  0  0  0  0  0  0  0
   10.4710  -17.8047   25.2153 C   0  0  0  0  0  0  0  0  0  0  0  0
   10.7738  -19.1333   25.8392 C   0  0  0  0  0  0  0  0  0  0  0  0
   11.6811  -19.9662   24.9137 C   0  0  0  0  0  0  0  0  0  0  0  0
   11.8629  -21.3002   25.6383 C   0  0  0  0  0  0  0  0  0  0  0  0
   12.7951  -22.1564   24.9699 N   0  0  0  0  0  0  0  0  0  0  0  0
   10.2568  -16.7470   27.4092 C   0  0  0  0  0  0  0  0  0  0  0  0
   10.6034  -17.7603   28.1082 O   0  0  0  0  0  0  0  0  0  0  0  0
   10.5294  -15.5155   27.9506 O   0  0  0  0  0  0  0  0  0  0  0  0
  2  1  1  6
  2  4  1  0
  3  2  1  0
  4  5  1  1
  4  6  1  0
  6  7  2  0
  8  6  1  0
  8  9  1  0
  9 10  1  1
 10 11  1  0
 11 12  2  0
 12 13  1  0
 14 13  2  0
 15 14  1  0
 16 11  1  0
 16 15  2  0
 17 19  1  0
 17  9  1  0
 18 17  2  0
 20 21  1  6
 20 19  1  0
 22 23  1  0
 22 21  1  0
 24 25  1  0
 24 23  1  0
 26 20  1  0
 26 28  1  0
 27 26  2  0
M  END
$$$$
