TFK.pdb
     RDKit          3D

 28 28  0  0  1  0  0  0  0  0999 V2000
    9.1248  -18.8799   19.3169 C   0  0  0  0  0  0  0  0  0  0  0  0
    9.1589  -17.9229   20.4776 C   0  0  1  0  0  0  0  0  0  0  0  0
    9.9965  -18.3345   21.4940 O   0  0  0  0  0  0  0  0  0  0  0  0
    9.5141  -16.5213   20.0914 C   0  0  2  0  0  0  0  0  0  0  0  0
   10.7887  -16.4110   19.4417 N   0  0  0  0  0  0  0  0  0  0  0  0
    9.5719  -15.7098   21.3394 C   0  0  0  0  0  0  0  0  0  0  0  0
   10.7098  -15.4320   21.7811 O   0  0  0  0  0  0  0  0  0  0  0  0
    8.4420  -15.2530   22.0268 N   0  0  0  0  0  0  0  0  0  0  0  0
    8.4796  -14.5629   23.3150 C   0  0  1  0  0  0  0  0  0  0  0  0
    7.1607  -13.8887   23.5990 C   0  0  0  0  0  0  0  0  0  0  0  0
    7.1287  -13.1675   24.8892 C   0  0  0  0  0  0  0  0  0  0  0  0
    6.3667  -13.5407   25.9768 C   0  0  0  0  0  0  0  0  0  0  0  0
    6.4016  -12.8083   27.1417 C   0  0  0  0  0  0  0  0  0  0  0  0
    7.1915  -11.6799   27.2735 C   0  0  0  0  0  0  0  0  0  0  0  0
    7.9539  -11.3066   26.1852 C   0  0  0  0  0  0  0  0  0  0  0  0
    7.9206  -12.0392   25.0163 C   0  0  0  0  0  0  0  0  0  0  0  0
    8.9253  -15.4794   24.3923 C   0  0  0  0  0  0  0  0  0  0  0  0
    9.0327  -15.0280   25.5580 O   0  0  0  0  0  0  0  0  0  0  0  0
    9.2339  -16.8359   24.1654 N   0  0  0  0  0  0  0  0  0  0  0  0
    9.6630  -17.6577   25.3119 C   0  0  1  0  0  0  0  0  0  0  0  0
    9.8286  -19.0772   24.8830 C   0  0  0  0  0  0  0  0  0  0  0  0
   10.2506  -19.9433   26.0310 C   0  0  0  0  0  0  0  0  0  0  0  0
   10.5677  -21.3685   25.5394 C   0  0  0  0  0  0  0  0  0  0  0  0
   10.9728  -22.1371   26.7975 C   0  0  0  0  0  0  0  0  0  0  0  0
    9.8403  -22.6546   27.5036 N   0  0  0  0  0  0  0  0  0  0  0  0
   10.9127  -17.1200   25.8688 C   0  0  0  0  0  0  0  0  0  0  0  0
   11.0662  -17.1122   27.1385 O   0  0  0  0  0  0  0  0  0  0  0  0
   11.9542  -16.6173   25.1294 O   0  0  0  0  0  0  0  0  0  0  0  0
  2  1  1  6
  2  4  1  0
  3  2  1  0
  4  5  1  1
  4  6  1  0
  6  7  2  0
  8  6  1  0
  8  9  1  0
  9 10  1  1
 10 11  1  0
 11 12  2  0
 12 13  1  0
 14 13  2  0
 15 14  1  0
 16 11  1  0
 16 15  2  0
 17 19  1  0
 17  9  1  0
 18 17  2  0
 20 21  1  6
 20 19  1  0
 22 23  1  0
 22 21  1  0
 24 25  1  0
 24 23  1  0
 26 20  1  0
 26 28  1  0
 27 26  2  0
M  END
$$$$
