TFK.pdb
     RDKit          3D

 28 28  0  0  1  0  0  0  0  0999 V2000
    7.5150  -18.5505   18.5119 C   0  0  0  0  0  0  0  0  0  0  0  0
    7.9196  -17.8540   19.7830 C   0  0  1  0  0  0  0  0  0  0  0  0
    8.7470  -18.6191   20.5795 O   0  0  0  0  0  0  0  0  0  0  0  0
    8.5569  -16.5183   19.5604 C   0  0  2  0  0  0  0  0  0  0  0  0
    9.7896  -16.5857   18.8292 N   0  0  0  0  0  0  0  0  0  0  0  0
    8.8563  -15.9324   20.8970 C   0  0  0  0  0  0  0  0  0  0  0  0
   10.0059  -16.1241   21.3538 O   0  0  0  0  0  0  0  0  0  0  0  0
    7.9361  -15.1947   21.6501 N   0  0  0  0  0  0  0  0  0  0  0  0
    8.1968  -14.6646   22.9873 C   0  0  1  0  0  0  0  0  0  0  0  0
    7.1207  -13.6896   23.3949 C   0  0  0  0  0  0  0  0  0  0  0  0
    7.2922  -13.1542   24.7622 C   0  0  0  0  0  0  0  0  0  0  0  0
    8.3171  -12.3179   25.1535 C   0  0  0  0  0  0  0  0  0  0  0  0
    8.3961  -11.8654   26.4511 C   0  0  0  0  0  0  0  0  0  0  0  0
    7.4643  -12.2236   27.4092 C   0  0  0  0  0  0  0  0  0  0  0  0
    6.4389  -13.0605   27.0176 C   0  0  0  0  0  0  0  0  0  0  0  0
    6.3576  -13.5153   25.7174 C   0  0  0  0  0  0  0  0  0  0  0  0
    8.4049  -15.7643   23.9601 C   0  0  0  0  0  0  0  0  0  0  0  0
    7.4995  -16.6217   24.0995 O   0  0  0  0  0  0  0  0  0  0  0  0
    9.5751  -15.8900   24.7358 N   0  0  0  0  0  0  0  0  0  0  0  0
    9.7160  -17.0734   25.6040 C   0  0  1  0  0  0  0  0  0  0  0  0
   10.9826  -17.7918   25.2782 C   0  0  0  0  0  0  0  0  0  0  0  0
   11.0401  -18.1548   23.8253 C   0  0  0  0  0  0  0  0  0  0  0  0
   12.3419  -18.9176   23.5141 C   0  0  0  0  0  0  0  0  0  0  0  0
   12.3603  -19.0591   21.9919 C   0  0  0  0  0  0  0  0  0  0  0  0
   13.5343  -19.7320   21.5251 N   0  0  0  0  0  0  0  0  0  0  0  0
    9.6846  -16.6616   27.0148 C   0  0  0  0  0  0  0  0  0  0  0  0
    9.7976  -17.5587   27.9193 O   0  0  0  0  0  0  0  0  0  0  0  0
    9.5446  -15.3697   27.4568 O   0  0  0  0  0  0  0  0  0  0  0  0
  2  1  1  6
  2  4  1  0
  3  2  1  0
  4  5  1  6
  4  6  1  0
  6  7  2  0
  8  6  1  0
  8  9  1  0
  9 10  1  1
 10 11  1  0
 11 12  2  0
 12 13  1  0
 14 13  2  0
 15 14  1  0
 16 11  1  0
 16 15  2  0
 17 19  1  0
 17  9  1  0
 18 17  2  0
 20 21  1  6
 20 19  1  0
 22 23  1  0
 22 21  1  0
 24 25  1  0
 24 23  1  0
 26 20  1  0
 26 28  1  0
 27 26  2  0
M  END
$$$$
