TFK.pdb
     RDKit          3D

 28 28  0  0  1  0  0  0  0  0999 V2000
    8.1622  -18.8081   18.8576 C   0  0  0  0  0  0  0  0  0  0  0  0
    8.4415  -17.9812   20.0835 C   0  0  1  0  0  0  0  0  0  0  0  0
    9.4758  -18.4802   20.8486 O   0  0  0  0  0  0  0  0  0  0  0  0
    8.7064  -16.5382   19.7882 C   0  0  2  0  0  0  0  0  0  0  0  0
    9.8713  -16.3229   18.9786 N   0  0  0  0  0  0  0  0  0  0  0  0
    8.9254  -15.8440   21.0880 C   0  0  0  0  0  0  0  0  0  0  0  0
   10.1121  -15.7008   21.4596 O   0  0  0  0  0  0  0  0  0  0  0  0
    7.8927  -15.3551   21.8958 N   0  0  0  0  0  0  0  0  0  0  0  0
    8.0903  -14.7188   23.1971 C   0  0  1  0  0  0  0  0  0  0  0  0
    6.8784  -13.9097   23.5860 C   0  0  0  0  0  0  0  0  0  0  0  0
    6.9617  -13.3317   24.9441 C   0  0  0  0  0  0  0  0  0  0  0  0
    7.7607  -12.2626   25.2931 C   0  0  0  0  0  0  0  0  0  0  0  0
    7.7726  -11.7886   26.5853 C   0  0  0  0  0  0  0  0  0  0  0  0
    6.9947  -12.3548   27.5798 C   0  0  0  0  0  0  0  0  0  0  0  0
    6.1954  -13.4245   27.2305 C   0  0  0  0  0  0  0  0  0  0  0  0
    6.1818  -13.9014   25.9357 C   0  0  0  0  0  0  0  0  0  0  0  0
    8.4938  -15.7166   24.2171 C   0  0  0  0  0  0  0  0  0  0  0  0
    7.8105  -16.7621   24.3372 O   0  0  0  0  0  0  0  0  0  0  0  0
    9.6114  -15.5435   25.0585 N   0  0  0  0  0  0  0  0  0  0  0  0
   10.0710  -16.6940   25.8579 C   0  0  1  0  0  0  0  0  0  0  0  0
   11.4505  -17.0808   25.4410 C   0  0  0  0  0  0  0  0  0  0  0  0
   11.4186  -18.0368   24.2872 C   0  0  0  0  0  0  0  0  0  0  0  0
   12.8511  -18.3897   23.8433 C   0  0  0  0  0  0  0  0  0  0  0  0
   12.6737  -19.4087   22.7174 C   0  0  0  0  0  0  0  0  0  0  0  0
   13.9261  -19.8304   22.1670 N   0  0  0  0  0  0  0  0  0  0  0  0
   10.0212  -16.3573   27.2880 C   0  0  0  0  0  0  0  0  0  0  0  0
   10.0309  -15.1249   27.6298 O   0  0  0  0  0  0  0  0  0  0  0  0
    9.9606  -17.2696   28.3118 O   0  0  0  0  0  0  0  0  0  0  0  0
  2  1  1  6
  2  4  1  0
  3  2  1  0
  4  5  1  6
  4  6  1  0
  6  7  2  0
  8  6  1  0
  8  9  1  0
  9 10  1  1
 10 11  1  0
 11 12  2  0
 12 13  1  0
 14 13  2  0
 15 14  1  0
 16 11  1  0
 16 15  2  0
 17 19  1  0
 17  9  1  0
 18 17  2  0
 20 21  1  6
 20 19  1  0
 22 23  1  0
 22 21  1  0
 24 25  1  0
 24 23  1  0
 26 20  1  0
 26 28  1  0
 27 26  2  0
M  END
$$$$
