TFK.pdb
     RDKit          3D

 28 28  0  0  1  0  0  0  0  0999 V2000
    7.4799  -18.7771   18.9711 C   0  0  0  0  0  0  0  0  0  0  0  0
    7.9159  -17.8975   20.1116 C   0  0  1  0  0  0  0  0  0  0  0  0
    9.0140  -18.3906   20.7862 O   0  0  0  0  0  0  0  0  0  0  0  0
    8.1866  -16.4815   19.7097 C   0  0  2  0  0  0  0  0  0  0  0  0
    9.2676  -16.3472   18.7758 N   0  0  0  0  0  0  0  0  0  0  0  0
    8.5558  -15.7258   20.9393 C   0  0  0  0  0  0  0  0  0  0  0  0
    9.7582  -15.4005   21.0634 O   0  0  0  0  0  0  0  0  0  0  0  0
    7.6449  -15.3695   21.9399 N   0  0  0  0  0  0  0  0  0  0  0  0
    7.9949  -14.6355   23.1548 C   0  0  1  0  0  0  0  0  0  0  0  0
    6.7573  -14.1054   23.8343 C   0  0  0  0  0  0  0  0  0  0  0  0
    7.0316  -13.4160   25.1130 C   0  0  0  0  0  0  0  0  0  0  0  0
    6.7729  -13.9459   26.3601 C   0  0  0  0  0  0  0  0  0  0  0  0
    7.0639  -13.2309   27.4998 C   0  0  0  0  0  0  0  0  0  0  0  0
    7.6215  -11.9656   27.4476 C   0  0  0  0  0  0  0  0  0  0  0  0
    7.8802  -11.4355   26.1997 C   0  0  0  0  0  0  0  0  0  0  0  0
    7.5893  -12.1504   25.0559 C   0  0  0  0  0  0  0  0  0  0  0  0
    8.8552  -15.4580   24.0394 C   0  0  0  0  0  0  0  0  0  0  0  0
    9.4317  -14.8998   25.0039 O   0  0  0  0  0  0  0  0  0  0  0  0
    9.0546  -16.8399   23.8453 N   0  0  0  0  0  0  0  0  0  0  0  0
    9.8434  -17.5810   24.8465 C   0  0  1  0  0  0  0  0  0  0  0  0
   11.2936  -17.5067   24.5039 C   0  0  0  0  0  0  0  0  0  0  0  0
   11.5346  -17.9110   23.0809 C   0  0  0  0  0  0  0  0  0  0  0  0
   13.0425  -17.8923   22.7660 C   0  0  0  0  0  0  0  0  0  0  0  0
   13.1513  -18.4161   21.3338 C   0  0  0  0  0  0  0  0  0  0  0  0
   14.5107  -18.5222   20.8982 N   0  0  0  0  0  0  0  0  0  0  0  0
    9.5838  -17.0357   26.1868 C   0  0  0  0  0  0  0  0  0  0  0  0
    8.3828  -17.0322   26.6266 O   0  0  0  0  0  0  0  0  0  0  0  0
   10.5387  -16.5214   27.0280 O   0  0  0  0  0  0  0  0  0  0  0  0
  2  1  1  6
  2  4  1  0
  3  2  1  0
  4  5  1  6
  4  6  1  0
  6  7  2  0
  8  6  1  0
  8  9  1  0
  9 10  1  1
 10 11  1  0
 11 12  2  0
 12 13  1  0
 14 13  2  0
 15 14  1  0
 16 11  1  0
 16 15  2  0
 17 19  1  0
 17  9  1  0
 18 17  2  0
 20 21  1  6
 20 19  1  0
 22 23  1  0
 22 21  1  0
 24 25  1  0
 24 23  1  0
 26 20  1  0
 26 28  1  0
 27 26  2  0
M  END
$$$$
