RAP.pdb
     RDKit          3D

 24 24  0  0  1  0  0  0  0  0999 V2000
   20.4639  -21.8917  -13.3736 N   0  0  0  0  0  0  0  0  0  0  0  0
   21.0019  -20.6633  -12.8889 C   0  0  0  0  0  0  0  0  0  0  0  0
   20.8330  -19.5489  -13.5559 N   0  0  0  0  0  0  0  0  0  0  0  0
   21.7368  -20.5619  -11.6838 N   0  0  0  0  0  0  0  0  0  0  0  0
   23.0733  -21.1756  -11.6102 C   0  0  0  0  0  0  0  0  0  0  0  0
   23.9982  -20.1956  -12.2779 C   0  0  0  0  0  0  0  0  0  0  0  0
   25.2539  -19.8839  -11.5566 C   0  0  0  0  0  0  0  0  0  0  0  0
   26.3745  -20.8831  -11.8214 C   0  0  2  0  0  0  0  0  0  0  0  0
   25.8123  -22.1291  -12.3154 N   0  0  0  0  0  0  0  0  0  0  0  0
   26.9630  -21.2288  -10.4816 C   0  0  0  0  0  0  0  0  0  0  0  0
   26.2956  -22.0171   -9.7677 O   0  0  0  0  0  0  0  0  0  0  0  0
   21.2440  -18.6957  -13.1332 C   0  0  0  0  0  0  0  0  0  0  0  0
   30.2785  -20.9276   -9.0118 C   0  0  1  0  0  0  0  0  0  0  0  0
   28.7578  -21.1247   -8.8135 N   0  0  0  0  0  0  0  0  0  0  0  0
   28.1972  -20.6761  -10.1016 C   0  0  0  0  0  0  0  0  0  0  0  0
   28.2694  -20.2242   -7.7571 O   0  0  0  0  0  0  0  0  0  0  0  0
   27.6510  -19.1378   -8.0583 N   0  0  0  0  0  0  0  0  0  0  0  0
   28.4185  -20.4369   -6.3607 C   0  0  0  0  0  0  0  0  0  0  0  0
   29.0256  -21.5689   -5.6855 C   0  0  0  0  0  0  0  0  0  0  0  0
   28.1757  -21.5793   -4.3979 C   0  0  0  0  0  0  0  0  0  0  0  0
   28.3101  -20.1088   -4.0190 C   0  0  2  0  0  0  0  0  0  0  0  0
   27.9739  -19.4621   -5.3705 C   0  0  0  0  0  0  0  0  0  0  0  0
   28.7516  -18.2260   -5.4312 O   0  0  0  0  0  0  0  0  0  0  0  0
   28.3567  -17.0510   -4.7655 O   0  0  0  0  0  0  0  0  0  0  0  0
  1  2  1  0
  2  3  2  0
  4  2  1  0
  5  4  1  0
  6  5  1  0
  7  6  1  0
  8 10  1  0
  8  7  1  0
  8  9  1  1
 10 11  2  0
 10 14  1  0
 13 12  1  6
 14 13  1  0
 15 13  1  0
 16 15  2  0
 17 15  1  0
 17 18  1  0
 19 18  1  0
 20 19  1  0
 21 20  1  0
 21 17  1  0
 22 23  1  0
 21 22  1  6
 24 22  2  0
M  END
$$$$
