RAP.pdb
     RDKit          3D

 24 24  0  0  1  0  0  0  0  0999 V2000
   28.8113  -26.5438  -17.1465 N   0  0  0  0  0  0  0  0  0  0  0  0
   30.1843  -26.4584  -16.7709 C   0  0  0  0  0  0  0  0  0  0  0  0
   30.6539  -25.3822  -16.1906 N   0  0  0  0  0  0  0  0  0  0  0  0
   31.1137  -27.5024  -16.9912 N   0  0  0  0  0  0  0  0  0  0  0  0
   30.6483  -28.7503  -17.6191 C   0  0  0  0  0  0  0  0  0  0  0  0
   29.9147  -29.4913  -16.5353 C   0  0  0  0  0  0  0  0  0  0  0  0
   29.3520  -30.8097  -16.9083 C   0  0  0  0  0  0  0  0  0  0  0  0
   28.5524  -31.4708  -15.7913 C   0  0  2  0  0  0  0  0  0  0  0  0
   29.1615  -32.7431  -15.4405 N   0  0  0  0  0  0  0  0  0  0  0  0
   27.2160  -31.8309  -16.3789 C   0  0  0  0  0  0  0  0  0  0  0  0
   27.2109  -32.7653  -17.2176 O   0  0  0  0  0  0  0  0  0  0  0  0
   31.6552  -25.4071  -15.9218 C   0  0  0  0  0  0  0  0  0  0  0  0
   23.7415  -31.1164  -15.5577 C   0  0  1  0  0  0  0  0  0  0  0  0
   24.7963  -31.5103  -16.6173 N   0  0  0  0  0  0  0  0  0  0  0  0
   26.0675  -31.1316  -15.9728 C   0  0  0  0  0  0  0  0  0  0  0  0
   24.6257  -30.6863  -17.8246 O   0  0  0  0  0  0  0  0  0  0  0  0
   25.1758  -29.5271  -17.9080 N   0  0  0  0  0  0  0  0  0  0  0  0
   23.8736  -31.0537  -18.9720 C   0  0  0  0  0  0  0  0  0  0  0  0
   23.1641  -32.2952  -19.2199 C   0  0  0  0  0  0  0  0  0  0  0  0
   23.3151  -32.3694  -20.7535 C   0  0  0  0  0  0  0  0  0  0  0  0
   22.8445  -30.9618  -21.1016 C   0  0  2  0  0  0  0  0  0  0  0  0
   23.6877  -30.1536  -20.1050 C   0  0  0  0  0  0  0  0  0  0  0  0
   22.8841  -28.9853  -19.7503 O   0  0  0  0  0  0  0  0  0  0  0  0
   22.8684  -27.8138  -20.5296 O   0  0  0  0  0  0  0  0  0  0  0  0
  1  2  1  0
  2  3  2  0
  4  2  1  0
  5  4  1  0
  6  5  1  0
  7  6  1  0
  8 10  1  0
  8  7  1  0
  8  9  1  6
 10 11  2  0
 10 14  1  0
 13 12  1  1
 14 13  1  0
 15 13  1  0
 16 15  2  0
 17 15  1  0
 17 18  1  0
 19 18  1  0
 20 19  1  0
 21 20  1  0
 21 17  1  0
 22 23  1  0
 21 22  1  1
 24 22  2  0
M  END
$$$$
