RAP.pdb
     RDKit          3D

 24 24  0  0  1  0  0  0  0  0999 V2000
   28.3931  -27.5579  -18.5564 N   0  0  0  0  0  0  0  0  0  0  0  0
   27.7371  -27.6951  -17.2978 C   0  0  0  0  0  0  0  0  0  0  0  0
   28.1086  -28.6183  -16.4463 N   0  0  0  0  0  0  0  0  0  0  0  0
   26.6663  -26.8656  -16.8883 N   0  0  0  0  0  0  0  0  0  0  0  0
   26.2254  -25.7791  -17.7791 C   0  0  0  0  0  0  0  0  0  0  0  0
   27.2768  -24.7110  -17.6540 C   0  0  0  0  0  0  0  0  0  0  0  0
   26.8728  -23.4736  -16.9473 C   0  0  0  0  0  0  0  0  0  0  0  0
   27.9563  -22.4013  -16.9253 C   0  0  2  0  0  0  0  0  0  0  0  0
   29.2649  -23.0296  -16.8506 N   0  0  0  0  0  0  0  0  0  0  0  0
   27.8044  -21.6682  -15.6212 C   0  0  0  0  0  0  0  0  0  0  0  0
   28.2732  -22.2378  -14.6053 O   0  0  0  0  0  0  0  0  0  0  0  0
   27.6583  -28.5876  -15.5126 C   0  0  0  0  0  0  0  0  0  0  0  0
   26.7141  -18.2999  -14.6502 C   0  0  1  0  0  0  0  0  0  0  0  0
   27.0205  -19.7697  -14.2812 N   0  0  0  0  0  0  0  0  0  0  0  0
   27.1693  -20.4156  -15.5986 C   0  0  0  0  0  0  0  0  0  0  0  0
   25.8608  -20.3676  -13.6006 O   0  0  0  0  0  0  0  0  0  0  0  0
   24.9475  -20.9721  -14.2743 N   0  0  0  0  0  0  0  0  0  0  0  0
   25.6273  -20.3453  -12.1998 C   0  0  0  0  0  0  0  0  0  0  0  0
   26.4519  -19.7543  -11.1622 C   0  0  0  0  0  0  0  0  0  0  0  0
   26.1339  -20.7240  -10.0051 C   0  0  0  0  0  0  0  0  0  0  0  0
   24.6120  -20.6963  -10.0906 C   0  0  2  0  0  0  0  0  0  0  0  0
   24.4337  -20.9294  -11.5977 C   0  0  0  0  0  0  0  0  0  0  0  0
   23.2201  -20.2084  -11.9770 O   0  0  0  0  0  0  0  0  0  0  0  0
   21.9311  -20.6997  -11.6997 O   0  0  0  0  0  0  0  0  0  0  0  0
  1  2  1  0
  2  3  2  0
  4  2  1  0
  5  4  1  0
  6  5  1  0
  7  6  1  0
  8 10  1  0
  8  7  1  0
  8  9  1  1
 10 11  2  0
 10 14  1  0
 13 12  1  1
 14 13  1  0
 15 13  1  0
 16 15  2  0
 17 15  1  0
 17 18  1  0
 19 18  1  0
 20 19  1  0
 21 20  1  0
 21 17  1  0
 22 23  1  0
 21 22  1  6
 24 22  2  0
M  END
$$$$
