RAP.pdb
     RDKit          3D

 24 24  0  0  1  0  0  0  0  0999 V2000
   28.8577  -21.1443  -10.1255 N   0  0  0  0  0  0  0  0  0  0  0  0
   28.2056  -20.6925   -8.9406 C   0  0  0  0  0  0  0  0  0  0  0  0
   28.8954  -20.4034   -7.8655 N   0  0  0  0  0  0  0  0  0  0  0  0
   26.8036  -20.5273   -8.8434 N   0  0  0  0  0  0  0  0  0  0  0  0
   25.9441  -21.0968   -9.8948 C   0  0  0  0  0  0  0  0  0  0  0  0
   26.5657  -20.6641  -11.1941 C   0  0  0  0  0  0  0  0  0  0  0  0
   25.6820  -20.6861  -12.3826 C   0  0  0  0  0  0  0  0  0  0  0  0
   24.8309  -21.9466  -12.4877 C   0  0  2  0  0  0  0  0  0  0  0  0
   25.6499  -23.0521  -12.9566 N   0  0  0  0  0  0  0  0  0  0  0  0
   23.8416  -21.7023  -13.5933 C   0  0  0  0  0  0  0  0  0  0  0  0
   24.3146  -21.6121  -14.7529 O   0  0  0  0  0  0  0  0  0  0  0  0
   28.3541  -20.0432   -7.0575 C   0  0  0  0  0  0  0  0  0  0  0  0
   20.5071  -22.5420  -14.1932 C   0  0  1  0  0  0  0  0  0  0  0  0
   21.5525  -21.4277  -14.4295 N   0  0  0  0  0  0  0  0  0  0  0  0
   22.4742  -21.5943  -13.2905 C   0  0  0  0  0  0  0  0  0  0  0  0
   20.9118  -20.1077  -14.3175 O   0  0  0  0  0  0  0  0  0  0  0  0
   20.8097  -19.5252  -13.1757 N   0  0  0  0  0  0  0  0  0  0  0  0
   20.3601  -19.3667  -15.3963 C   0  0  0  0  0  0  0  0  0  0  0  0
   20.3240  -19.7218  -16.8030 C   0  0  0  0  0  0  0  0  0  0  0  0
   20.3955  -18.3100  -17.4209 C   0  0  0  0  0  0  0  0  0  0  0  0
   19.2831  -17.6476  -16.6161 C   0  0  2  0  0  0  0  0  0  0  0  0
   19.6921  -18.0843  -15.2020 C   0  0  0  0  0  0  0  0  0  0  0  0
   18.4485  -18.2234  -14.4467 O   0  0  0  0  0  0  0  0  0  0  0  0
   17.8766  -17.1567  -13.7290 O   0  0  0  0  0  0  0  0  0  0  0  0
  1  2  1  0
  2  3  2  0
  4  2  1  0
  5  4  1  0
  6  5  1  0
  7  6  1  0
  8 10  1  0
  8  7  1  0
  8  9  1  6
 10 11  2  0
 10 14  1  0
 13 12  1  6
 14 13  1  0
 15 13  1  0
 16 15  2  0
 17 15  1  0
 17 18  1  0
 19 18  1  0
 20 19  1  0
 21 20  1  0
 21 17  1  0
 22 23  1  0
 21 22  1  6
 24 22  2  0
M  END
$$$$
