RAP.pdb
     RDKit          3D

 24 24  0  0  1  0  0  0  0  0999 V2000
   17.5285  -22.3599  -11.0693 N   0  0  0  0  0  0  0  0  0  0  0  0
   17.5077  -23.2855  -12.1538 C   0  0  0  0  0  0  0  0  0  0  0  0
   17.1382  -24.5280  -11.9666 N   0  0  0  0  0  0  0  0  0  0  0  0
   17.8740  -22.9377  -13.4756 N   0  0  0  0  0  0  0  0  0  0  0  0
   19.2992  -22.7475  -13.7936 C   0  0  0  0  0  0  0  0  0  0  0  0
   19.4733  -21.2637  -13.9669 C   0  0  0  0  0  0  0  0  0  0  0  0
   20.8539  -20.7454  -13.8282 C   0  0  0  0  0  0  0  0  0  0  0  0
   21.5641  -21.2286  -12.5687 C   0  0  2  0  0  0  0  0  0  0  0  0
   20.8975  -20.6908  -11.3943 N   0  0  0  0  0  0  0  0  0  0  0  0
   22.9226  -20.5841  -12.5712 C   0  0  0  0  0  0  0  0  0  0  0  0
   22.9450  -19.3346  -12.6930 O   0  0  0  0  0  0  0  0  0  0  0  0
   17.1934  -25.1515  -12.7935 C   0  0  0  0  0  0  0  0  0  0  0  0
   26.3438  -21.6664  -11.8589 C   0  0  1  0  0  0  0  0  0  0  0  0
   25.3720  -20.7046  -12.5807 N   0  0  0  0  0  0  0  0  0  0  0  0
   24.0704  -21.3825  -12.4363 C   0  0  0  0  0  0  0  0  0  0  0  0
   25.7037  -20.6389  -14.0129 O   0  0  0  0  0  0  0  0  0  0  0  0
   25.1936  -21.4798  -14.8413 N   0  0  0  0  0  0  0  0  0  0  0  0
   26.5785  -19.6943  -14.6125 C   0  0  0  0  0  0  0  0  0  0  0  0
   27.2653  -18.5818  -13.9826 C   0  0  0  0  0  0  0  0  0  0  0  0
   27.3043  -17.6028  -15.1744 C   0  0  0  0  0  0  0  0  0  0  0  0
   27.8683  -18.5457  -16.2312 C   0  0  2  0  0  0  0  0  0  0  0  0
   26.9388  -19.7503  -16.0251 C   0  0  0  0  0  0  0  0  0  0  0  0
   27.7359  -20.9342  -16.3405 O   0  0  0  0  0  0  0  0  0  0  0  0
   28.3015  -21.7519  -15.3449 O   0  0  0  0  0  0  0  0  0  0  0  0
  1  2  1  0
  2  3  2  0
  4  2  1  0
  5  4  1  0
  6  5  1  0
  7  6  1  0
  8 10  1  0
  8  7  1  0
  8  9  1  1
 10 11  2  0
 10 14  1  0
 13 12  1  1
 14 13  1  0
 15 13  1  0
 16 15  2  0
 17 15  1  0
 17 18  1  0
 19 18  1  0
 20 19  1  0
 21 20  1  0
 21 17  1  0
 22 23  1  0
 21 22  1  1
 24 22  2  0
M  END
$$$$
