RAP.pdb
     RDKit          3D

 24 24  0  0  1  0  0  0  0  0999 V2000
   26.8895  -21.4652  -10.5411 N   0  0  0  0  0  0  0  0  0  0  0  0
   25.6282  -21.0093  -10.0567 C   0  0  0  0  0  0  0  0  0  0  0  0
   25.5302  -20.4304   -8.8860 N   0  0  0  0  0  0  0  0  0  0  0  0
   24.4235  -21.1450  -10.7865 N   0  0  0  0  0  0  0  0  0  0  0  0
   24.4505  -21.8421  -12.0833 C   0  0  0  0  0  0  0  0  0  0  0  0
   25.4620  -21.1000  -12.9127 C   0  0  0  0  0  0  0  0  0  0  0  0
   25.6275  -21.5604  -14.3109 C   0  0  0  0  0  0  0  0  0  0  0  0
   24.6501  -22.6597  -14.7117 C   0  0  2  0  0  0  0  0  0  0  0  0
   25.3867  -23.8487  -15.1074 N   0  0  0  0  0  0  0  0  0  0  0  0
   23.9712  -22.1894  -15.9682 C   0  0  0  0  0  0  0  0  0  0  0  0
   24.6789  -22.1601  -17.0050 O   0  0  0  0  0  0  0  0  0  0  0  0
   24.5828  -20.1093   -8.6120 C   0  0  0  0  0  0  0  0  0  0  0  0
   20.5262  -21.9161  -17.0263 C   0  0  1  0  0  0  0  0  0  0  0  0
   21.9901  -21.4551  -17.2133 N   0  0  0  0  0  0  0  0  0  0  0  0
   22.6166  -21.8201  -15.9292 C   0  0  0  0  0  0  0  0  0  0  0  0
   22.0403  -19.9910  -17.3534 O   0  0  0  0  0  0  0  0  0  0  0  0
   22.0400  -19.2343  -16.3138 N   0  0  0  0  0  0  0  0  0  0  0  0
   22.0892  -19.2834  -18.5840 C   0  0  0  0  0  0  0  0  0  0  0  0
   22.1703  -19.8253  -19.9278 C   0  0  0  0  0  0  0  0  0  0  0  0
   22.9731  -18.6960  -20.6064 C   0  0  0  0  0  0  0  0  0  0  0  0
   22.1350  -17.5077  -20.1485 C   0  0  2  0  0  0  0  0  0  0  0  0
   22.0309  -17.8272  -18.6503 C   0  0  0  0  0  0  0  0  0  0  0  0
   20.7342  -17.3106  -18.2164 O   0  0  0  0  0  0  0  0  0  0  0  0
   20.5044  -15.9415  -17.9869 O   0  0  0  0  0  0  0  0  0  0  0  0
  1  2  1  0
  2  3  2  0
  4  2  1  0
  5  4  1  0
  6  5  1  0
  7  6  1  0
  8 10  1  0
  8  7  1  0
  8  9  1  6
 10 11  2  0
 10 14  1  0
 13 12  1  6
 14 13  1  0
 15 13  1  0
 16 15  2  0
 17 15  1  0
 17 18  1  0
 19 18  1  0
 20 19  1  0
 21 20  1  0
 21 17  1  0
 22 23  1  0
 21 22  1  6
 24 22  2  0
M  END
$$$$
