RAP.pdb
     RDKit          3D

 24 24  0  0  1  0  0  0  0  0999 V2000
   19.3134  -21.5877  -11.5172 N   0  0  0  0  0  0  0  0  0  0  0  0
   19.9254  -22.4516  -10.5619 C   0  0  0  0  0  0  0  0  0  0  0  0
   19.2146  -23.3345   -9.9058 N   0  0  0  0  0  0  0  0  0  0  0  0
   21.3079  -22.4189  -10.2623 N   0  0  0  0  0  0  0  0  0  0  0  0
   22.1537  -21.4019  -10.9093 C   0  0  0  0  0  0  0  0  0  0  0  0
   22.3944  -21.9130  -12.3031 C   0  0  0  0  0  0  0  0  0  0  0  0
   23.0323  -20.9664  -13.2470 C   0  0  0  0  0  0  0  0  0  0  0  0
   24.3304  -21.4888  -13.8523 C   0  0  2  0  0  0  0  0  0  0  0  0
   25.0670  -22.2442  -12.8526 N   0  0  0  0  0  0  0  0  0  0  0  0
   25.1849  -20.2840  -14.1338 C   0  0  0  0  0  0  0  0  0  0  0  0
   25.7689  -19.7736  -13.1465 O   0  0  0  0  0  0  0  0  0  0  0  0
   19.7367  -23.9491   -9.2536 C   0  0  0  0  0  0  0  0  0  0  0  0
   27.0744  -19.1005  -16.8332 C   0  0  2  0  0  0  0  0  0  0  0  0
   26.1790  -18.6413  -15.6594 N   0  0  0  0  0  0  0  0  0  0  0  0
   25.2928  -19.8009  -15.4484 C   0  0  0  0  0  0  0  0  0  0  0  0
   25.3530  -17.4972  -16.0772 O   0  0  0  0  0  0  0  0  0  0  0  0
   24.2298  -17.6852  -16.6741 N   0  0  0  0  0  0  0  0  0  0  0  0
   25.6833  -16.1295  -15.8831 C   0  0  0  0  0  0  0  0  0  0  0  0
   26.8632  -15.5730  -15.2474 C   0  0  0  0  0  0  0  0  0  0  0  0
   26.2494  -14.2843  -14.6619 C   0  0  0  0  0  0  0  0  0  0  0  0
   25.5563  -13.7661  -15.9169 C   0  0  2  0  0  0  0  0  0  0  0  0
   24.8305  -15.0452  -16.3580 C   0  0  0  0  0  0  0  0  0  0  0  0
   24.7720  -14.9935  -17.8176 O   0  0  0  0  0  0  0  0  0  0  0  0
   25.6309  -15.7502  -18.6358 O   0  0  0  0  0  0  0  0  0  0  0  0
  1  2  1  0
  2  3  2  0
  4  2  1  0
  5  4  1  0
  6  5  1  0
  7  6  1  0
  8 10  1  0
  8  7  1  0
  8  9  1  1
 10 11  2  0
 10 14  1  0
 13 12  1  1
 14 13  1  0
 15 13  1  0
 16 15  2  0
 17 15  1  0
 17 18  1  0
 19 18  1  0
 20 19  1  0
 21 20  1  0
 21 17  1  0
 22 23  1  0
 21 22  1  6
 24 22  2  0
M  END
$$$$
