RAP.pdb
     RDKit          3D

 24 24  0  0  1  0  0  0  0  0999 V2000
   20.7041  -23.1025   -7.0088 N   0  0  0  0  0  0  0  0  0  0  0  0
   19.8817  -22.2817   -7.8354 C   0  0  0  0  0  0  0  0  0  0  0  0
   18.6450  -22.0159   -7.4958 N   0  0  0  0  0  0  0  0  0  0  0  0
   20.3302  -21.7095   -9.0494 N   0  0  0  0  0  0  0  0  0  0  0  0
   21.6294  -22.1317   -9.5991 C   0  0  0  0  0  0  0  0  0  0  0  0
   22.6532  -21.2831   -8.8965 C   0  0  0  0  0  0  0  0  0  0  0  0
   23.8934  -20.9922   -9.6523 C   0  0  0  0  0  0  0  0  0  0  0  0
   23.6659  -20.7955  -11.1469 C   0  0  2  0  0  0  0  0  0  0  0  0
   23.5942  -22.0894  -11.8053 N   0  0  0  0  0  0  0  0  0  0  0  0
   24.9143  -20.1551  -11.6876 C   0  0  0  0  0  0  0  0  0  0  0  0
   25.2365  -19.0515  -11.1829 O   0  0  0  0  0  0  0  0  0  0  0  0
   18.0904  -21.4674   -8.1794 C   0  0  0  0  0  0  0  0  0  0  0  0
   27.8252  -21.0812  -13.5645 C   0  0  2  0  0  0  0  0  0  0  0  0
   26.7190  -20.0240  -13.3429 N   0  0  0  0  0  0  0  0  0  0  0  0
   25.6449  -20.8018  -12.6981 C   0  0  0  0  0  0  0  0  0  0  0  0
   26.2237  -19.5377  -14.6406 O   0  0  0  0  0  0  0  0  0  0  0  0
   25.3868  -20.2349  -15.3238 N   0  0  0  0  0  0  0  0  0  0  0  0
   26.5938  -18.3122  -15.2557 C   0  0  0  0  0  0  0  0  0  0  0  0
   27.4177  -17.2484  -14.7120 C   0  0  0  0  0  0  0  0  0  0  0  0
   26.7669  -16.0405  -15.4175 C   0  0  0  0  0  0  0  0  0  0  0  0
   26.7830  -16.5700  -16.8469 C   0  0  2  0  0  0  0  0  0  0  0  0
   26.1852  -17.9647  -16.6125 C   0  0  0  0  0  0  0  0  0  0  0  0
   26.7982  -18.8397  -17.6101 O   0  0  0  0  0  0  0  0  0  0  0  0
   26.3968  -18.8460  -18.9587 O   0  0  0  0  0  0  0  0  0  0  0  0
  1  2  1  0
  2  3  2  0
  4  2  1  0
  5  4  1  0
  6  5  1  0
  7  6  1  0
  8 10  1  0
  8  7  1  0
  8  9  1  6
 10 11  2  0
 10 14  1  0
 13 12  1  1
 14 13  1  0
 15 13  1  0
 16 15  2  0
 17 15  1  0
 17 18  1  0
 19 18  1  0
 20 19  1  0
 21 20  1  0
 21 17  1  0
 22 23  1  0
 21 22  1  1
 24 22  2  0
M  END
$$$$
