RAP.pdb
     RDKit          3D

 24 24  0  0  1  0  0  0  0  0999 V2000
   30.0459  -25.0746  -15.9173 N   0  0  0  0  0  0  0  0  0  0  0  0
   28.6465  -25.0643  -16.1909 C   0  0  0  0  0  0  0  0  0  0  0  0
   27.9890  -26.1844  -16.3594 N   0  0  0  0  0  0  0  0  0  0  0  0
   27.8869  -23.8750  -16.2967 N   0  0  0  0  0  0  0  0  0  0  0  0
   27.8585  -23.1594  -17.5833 C   0  0  0  0  0  0  0  0  0  0  0  0
   29.0542  -22.2476  -17.5576 C   0  0  0  0  0  0  0  0  0  0  0  0
   28.8250  -20.8812  -17.0334 C   0  0  0  0  0  0  0  0  0  0  0  0
   27.5389  -20.2397  -17.5420 C   0  0  2  0  0  0  0  0  0  0  0  0
   27.8597  -19.1864  -18.4910 N   0  0  0  0  0  0  0  0  0  0  0  0
   26.9240  -19.5286  -16.3684 C   0  0  0  0  0  0  0  0  0  0  0  0
   27.5577  -18.5405  -15.9227 O   0  0  0  0  0  0  0  0  0  0  0  0
   28.5177  -27.0576  -16.1759 C   0  0  0  0  0  0  0  0  0  0  0  0
   24.0389  -18.3929  -15.3124 C   0  0  1  0  0  0  0  0  0  0  0  0
   25.1638  -19.2475  -14.6841 N   0  0  0  0  0  0  0  0  0  0  0  0
   25.7037  -19.9836  -15.8423 C   0  0  0  0  0  0  0  0  0  0  0  0
   24.5871  -20.2218  -13.7440 O   0  0  0  0  0  0  0  0  0  0  0  0
   23.8924  -21.2142  -14.1753 N   0  0  0  0  0  0  0  0  0  0  0  0
   24.7208  -20.1800  -12.3307 C   0  0  0  0  0  0  0  0  0  0  0  0
   25.4109  -19.1908  -11.5237 C   0  0  0  0  0  0  0  0  0  0  0  0
   25.8652  -20.0911  -10.3561 C   0  0  0  0  0  0  0  0  0  0  0  0
   24.5301  -20.7568  -10.0429 C   0  0  2  0  0  0  0  0  0  0  0  0
   24.1142  -21.1804  -11.4589 C   0  0  0  0  0  0  0  0  0  0  0  0
   22.6541  -21.1179  -11.4867 O   0  0  0  0  0  0  0  0  0  0  0  0
   21.8437  -22.1305  -10.9410 O   0  0  0  0  0  0  0  0  0  0  0  0
  1  2  1  0
  2  3  2  0
  4  2  1  0
  5  4  1  0
  6  5  1  0
  7  6  1  0
  8 10  1  0
  8  7  1  0
  8  9  1  6
 10 11  2  0
 10 14  1  0
 13 12  1  6
 14 13  1  0
 15 13  1  0
 16 15  2  0
 17 15  1  0
 17 18  1  0
 19 18  1  0
 20 19  1  0
 21 20  1  0
 21 17  1  0
 22 23  1  0
 21 22  1  6
 24 22  2  0
M  END
$$$$
