RAP.pdb
     RDKit          3D

 24 24  0  0  1  0  0  0  0  0999 V2000
   25.9507  -21.9354  -10.3946 N   0  0  0  0  0  0  0  0  0  0  0  0
   25.2572  -21.3822   -9.2783 C   0  0  0  0  0  0  0  0  0  0  0  0
   25.7805  -21.4218   -8.0783 N   0  0  0  0  0  0  0  0  0  0  0  0
   23.9877  -20.7660   -9.3833 N   0  0  0  0  0  0  0  0  0  0  0  0
   23.0308  -21.2709  -10.3822 C   0  0  0  0  0  0  0  0  0  0  0  0
   23.4799  -20.6874  -11.6936 C   0  0  0  0  0  0  0  0  0  0  0  0
   22.4258  -20.0697  -12.5311 C   0  0  0  0  0  0  0  0  0  0  0  0
   22.3816  -20.6115  -13.9554 C   0  0  2  0  0  0  0  0  0  0  0  0
   23.0668  -21.8920  -14.0132 N   0  0  0  0  0  0  0  0  0  0  0  0
   23.2219  -19.6853  -14.7903 C   0  0  0  0  0  0  0  0  0  0  0  0
   24.4638  -19.7547  -14.6187 O   0  0  0  0  0  0  0  0  0  0  0  0
   25.1834  -21.0699   -7.3067 C   0  0  0  0  0  0  0  0  0  0  0  0
   22.7086  -18.0359  -17.9286 C   0  0  2  0  0  0  0  0  0  0  0  0
   23.4861  -18.0428  -16.5922 N   0  0  0  0  0  0  0  0  0  0  0  0
   22.6005  -18.8143  -15.7004 C   0  0  0  0  0  0  0  0  0  0  0  0
   23.5919  -16.6721  -16.0670 O   0  0  0  0  0  0  0  0  0  0  0  0
   22.6048  -16.1327  -15.4441 N   0  0  0  0  0  0  0  0  0  0  0  0
   24.7314  -15.8322  -16.1832 C   0  0  0  0  0  0  0  0  0  0  0  0
   26.0235  -16.1483  -16.7634 C   0  0  0  0  0  0  0  0  0  0  0  0
   26.9199  -15.2507  -15.8853 C   0  0  0  0  0  0  0  0  0  0  0  0
   26.1490  -13.9432  -16.0268 C   0  0  2  0  0  0  0  0  0  0  0  0
   24.7297  -14.4464  -15.7272 C   0  0  0  0  0  0  0  0  0  0  0  0
   23.8293  -13.6104  -16.5190 O   0  0  0  0  0  0  0  0  0  0  0  0
   23.3659  -12.3607  -16.0681 O   0  0  0  0  0  0  0  0  0  0  0  0
  1  2  1  0
  2  3  2  0
  4  2  1  0
  5  4  1  0
  6  5  1  0
  7  6  1  0
  8 10  1  0
  8  7  1  0
  8  9  1  1
 10 11  2  0
 10 14  1  0
 13 12  1  6
 14 13  1  0
 15 13  1  0
 16 15  2  0
 17 15  1  0
 17 18  1  0
 19 18  1  0
 20 19  1  0
 21 20  1  0
 21 17  1  0
 22 23  1  0
 21 22  1  6
 24 22  2  0
M  END
$$$$
