RAP.pdb
     RDKit          3D

 24 24  0  0  1  0  0  0  0  0999 V2000
   15.5816  -13.9353  -21.6958 N   0  0  0  0  0  0  0  0  0  0  0  0
   15.1118  -14.8840  -20.7405 C   0  0  0  0  0  0  0  0  0  0  0  0
   14.8199  -16.1088  -21.1011 N   0  0  0  0  0  0  0  0  0  0  0  0
   14.9323  -14.5793  -19.3704 N   0  0  0  0  0  0  0  0  0  0  0  0
   16.1177  -14.3148  -18.5378 C   0  0  0  0  0  0  0  0  0  0  0  0
   16.7780  -13.1134  -19.1563 C   0  0  0  0  0  0  0  0  0  0  0  0
   17.9349  -12.5510  -18.4220 C   0  0  0  0  0  0  0  0  0  0  0  0
   19.2802  -13.0870  -18.8989 C   0  0  2  0  0  0  0  0  0  0  0  0
   19.2996  -14.5355  -18.7797 N   0  0  0  0  0  0  0  0  0  0  0  0
   20.3060  -12.6040  -17.9113 C   0  0  0  0  0  0  0  0  0  0  0  0
   20.3197  -13.1814  -16.7965 O   0  0  0  0  0  0  0  0  0  0  0  0
   14.4821  -16.7390  -20.3498 C   0  0  0  0  0  0  0  0  0  0  0  0
   23.3046  -10.5460  -18.0948 C   0  0  2  0  0  0  0  0  0  0  0  0
   22.1499  -11.1294  -17.2481 N   0  0  0  0  0  0  0  0  0  0  0  0
   21.1798  -11.5643  -18.2700 C   0  0  0  0  0  0  0  0  0  0  0  0
   21.5298  -10.0638  -16.4446 O   0  0  0  0  0  0  0  0  0  0  0  0
   20.6015   -9.3261  -16.9420 N   0  0  0  0  0  0  0  0  0  0  0  0
   21.8676   -9.7426  -15.1029 C   0  0  0  0  0  0  0  0  0  0  0  0
   22.8279  -10.4016  -14.2372 C   0  0  0  0  0  0  0  0  0  0  0  0
   22.1441  -10.1627  -12.8750 C   0  0  0  0  0  0  0  0  0  0  0  0
   21.9013   -8.6627  -12.9969 C   0  0  2  0  0  0  0  0  0  0  0  0
   21.2687   -8.6162  -14.3951 C   0  0  0  0  0  0  0  0  0  0  0  0
   21.6629   -7.3333  -14.9743 O   0  0  0  0  0  0  0  0  0  0  0  0
   21.0197   -6.1259  -14.6454 O   0  0  0  0  0  0  0  0  0  0  0  0
  1  2  1  0
  2  3  2  0
  4  2  1  0
  5  4  1  0
  6  5  1  0
  7  6  1  0
  8 10  1  0
  8  7  1  0
  8  9  1  1
 10 11  2  0
 10 14  1  0
 13 12  1  6
 14 13  1  0
 15 13  1  0
 16 15  2  0
 17 15  1  0
 17 18  1  0
 19 18  1  0
 20 19  1  0
 21 20  1  0
 21 17  1  0
 22 23  1  0
 21 22  1  6
 24 22  2  0
M  END
$$$$
