RAP.pdb
     RDKit          3D

 24 24  0  0  1  0  0  0  0  0999 V2000
   18.0143  -23.3269  -11.7033 N   0  0  0  0  0  0  0  0  0  0  0  0
   17.5108  -23.0497  -13.0082 C   0  0  0  0  0  0  0  0  0  0  0  0
   16.2941  -22.5938  -13.1735 N   0  0  0  0  0  0  0  0  0  0  0  0
   18.2690  -23.2413  -14.1876 N   0  0  0  0  0  0  0  0  0  0  0  0
   19.7008  -22.8975  -14.1781 C   0  0  0  0  0  0  0  0  0  0  0  0
   19.7514  -21.4010  -14.3184 C   0  0  0  0  0  0  0  0  0  0  0  0
   21.0955  -20.8047  -14.4968 C   0  0  0  0  0  0  0  0  0  0  0  0
   22.1131  -21.2714  -13.4619 C   0  0  2  0  0  0  0  0  0  0  0  0
   21.5299  -21.1935  -12.1327 N   0  0  0  0  0  0  0  0  0  0  0  0
   23.2178  -20.2514  -13.4598 C   0  0  0  0  0  0  0  0  0  0  0  0
   23.0064  -19.2041  -12.8004 O   0  0  0  0  0  0  0  0  0  0  0  0
   16.0072  -22.3989  -14.1509 C   0  0  0  0  0  0  0  0  0  0  0  0
   26.7329  -20.3297  -13.8237 C   0  0  2  0  0  0  0  0  0  0  0  0
   25.4628  -19.4878  -14.0853 N   0  0  0  0  0  0  0  0  0  0  0  0
   24.4025  -20.5092  -14.1691 C   0  0  0  0  0  0  0  0  0  0  0  0
   25.5656  -18.8186  -15.3920 O   0  0  0  0  0  0  0  0  0  0  0  0
   25.1231  -19.3898  -16.4556 N   0  0  0  0  0  0  0  0  0  0  0  0
   26.1360  -17.5376  -15.6178 C   0  0  0  0  0  0  0  0  0  0  0  0
   26.6079  -16.5798  -14.6350 C   0  0  0  0  0  0  0  0  0  0  0  0
   26.3022  -15.2709  -15.3922 C   0  0  0  0  0  0  0  0  0  0  0  0
   26.9598  -15.6140  -16.7240 C   0  0  2  0  0  0  0  0  0  0  0  0
   26.3571  -17.0066  -16.9585 C   0  0  0  0  0  0  0  0  0  0  0  0
   27.3695  -17.7671  -17.6887 O   0  0  0  0  0  0  0  0  0  0  0  0
   27.6358  -17.5546  -19.0539 O   0  0  0  0  0  0  0  0  0  0  0  0
  1  2  1  0
  2  3  2  0
  4  2  1  0
  5  4  1  0
  6  5  1  0
  7  6  1  0
  8 10  1  0
  8  7  1  0
  8  9  1  1
 10 11  2  0
 10 14  1  0
 13 12  1  1
 14 13  1  0
 15 13  1  0
 16 15  2  0
 17 15  1  0
 17 18  1  0
 19 18  1  0
 20 19  1  0
 21 20  1  0
 21 17  1  0
 22 23  1  0
 21 22  1  1
 24 22  2  0
M  END
$$$$
