FFN.pdb
     RDKit          3D

 31 32  0  0  1  0  0  0  0  0999 V2000
   34.9090   -7.7968  -14.9811 N   0  0  0  0  0  0  0  0  0  0  0  0
   34.2226   -8.2190  -16.1605 C   0  0  1  0  0  0  0  0  0  0  0  0
   34.0374   -9.7190  -16.1855 C   0  0  0  0  0  0  0  0  0  0  0  0
   35.3646  -10.3794  -16.2363 C   0  0  0  0  0  0  0  0  0  0  0  0
   35.7561  -11.1210  -15.1425 C   0  0  0  0  0  0  0  0  0  0  0  0
   36.9948  -11.7705  -15.1202 C   0  0  0  0  0  0  0  0  0  0  0  0
   37.8378  -11.6805  -16.1832 C   0  0  0  0  0  0  0  0  0  0  0  0
   37.4676  -10.9447  -17.2873 C   0  0  0  0  0  0  0  0  0  0  0  0
   36.2346  -10.3021  -17.3014 C   0  0  0  0  0  0  0  0  0  0  0  0
   32.9359   -7.5025  -16.3668 C   0  0  0  0  0  0  0  0  0  0  0  0
   32.0110   -7.6047  -15.5158 O   0  0  0  0  0  0  0  0  0  0  0  0
   32.6653   -6.6833  -17.4922 N   0  0  0  0  0  0  0  0  0  0  0  0
   31.4093   -5.9320  -17.6389 C   0  0  1  0  0  0  0  0  0  0  0  0
   31.6175   -4.4749  -17.3984 C   0  0  0  0  0  0  0  0  0  0  0  0
   32.1606   -4.1119  -16.0943 C   0  0  0  0  0  0  0  0  0  0  0  0
   31.3480   -3.9849  -14.9887 C   0  0  0  0  0  0  0  0  0  0  0  0
   31.8405   -3.6394  -13.7452 C   0  0  0  0  0  0  0  0  0  0  0  0
   33.1841   -3.4056  -13.5622 C   0  0  0  0  0  0  0  0  0  0  0  0
   34.0133   -3.5273  -14.6547 C   0  0  0  0  0  0  0  0  0  0  0  0
   33.5018   -3.8780  -15.9103 C   0  0  0  0  0  0  0  0  0  0  0  0
   30.8093   -6.2922  -18.9247 C   0  0  0  0  0  0  0  0  0  0  0  0
   29.6493   -5.8625  -19.2526 O   0  0  0  0  0  0  0  0  0  0  0  0
   30.1776   -7.5959  -23.7026 N   0  0  0  0  0  0  0  0  0  0  0  0
   31.2158   -8.4786  -23.3113 C   0  0  0  0  0  0  0  0  0  0  0  0
   31.7713   -9.2305  -24.1372 O   0  0  0  0  0  0  0  0  0  0  0  0
   31.6380   -8.4996  -21.9011 C   0  0  0  0  0  0  0  0  0  0  0  0
   30.7298   -7.5875  -21.1041 C   0  0  2  0  0  0  0  0  0  0  0  0
   31.4359   -7.1204  -19.8960 N   0  0  0  0  0  0  0  0  0  0  0  0
   29.4556   -8.2138  -20.7700 C   0  0  0  0  0  0  0  0  0  0  0  0
   28.2136   -7.6221  -20.9146 O   0  0  0  0  0  0  0  0  0  0  0  0
   29.4302   -9.4002  -20.3026 O   0  0  0  0  0  0  0  0  0  0  0  0
  2  1  1  1
  2  3  1  0
  3  4  1  0
  4  5  2  0
  5  6  1  0
  7  6  2  0
  8  7  1  0
  9  4  1  0
  9  8  2  0
 10 12  1  0
 10  2  1  0
 11 10  2  0
 13 12  1  0
 13 14  1  6
 15 16  2  0
 15 14  1  0
 17 16  1  0
 18 17  2  0
 19 18  1  0
 19 20  2  0
 20 15  1  0
 21 28  1  0
 21 13  1  0
 22 21  2  0
 24 23  1  0
 24 25  2  0
 27 26  1  1
 26 24  1  0
 27 28  1  0
 27 29  1  0
 29 30  1  0
 31 29  2  0
M  END
$$$$
