FFN.pdb
     RDKit          3D

 31 32  0  0  1  0  0  0  0  0999 V2000
   25.5852  -20.0583  -19.2351 N   0  0  0  0  0  0  0  0  0  0  0  0
   25.0266  -19.2464  -18.2011 C   0  0  1  0  0  0  0  0  0  0  0  0
   23.7227  -18.6172  -18.6357 C   0  0  0  0  0  0  0  0  0  0  0  0
   23.9941  -17.5697  -19.6501 C   0  0  0  0  0  0  0  0  0  0  0  0
   23.7716  -17.8835  -20.9737 C   0  0  0  0  0  0  0  0  0  0  0  0
   24.0069  -16.9454  -21.9844 C   0  0  0  0  0  0  0  0  0  0  0  0
   24.4614  -15.7016  -21.6760 C   0  0  0  0  0  0  0  0  0  0  0  0
   24.6908  -15.3658  -20.3599 C   0  0  0  0  0  0  0  0  0  0  0  0
   24.4544  -16.3040  -19.3614 C   0  0  0  0  0  0  0  0  0  0  0  0
   24.8839  -19.9725  -16.9112 C   0  0  0  0  0  0  0  0  0  0  0  0
   24.2763  -21.0767  -16.8702 O   0  0  0  0  0  0  0  0  0  0  0  0
   25.4007  -19.4948  -15.6801 N   0  0  0  0  0  0  0  0  0  0  0  0
   25.1410  -20.1693  -14.3991 C   0  0  1  0  0  0  0  0  0  0  0  0
   26.1192  -19.7472  -13.3556 C   0  0  0  0  0  0  0  0  0  0  0  0
   25.8818  -20.2585  -12.0104 C   0  0  0  0  0  0  0  0  0  0  0  0
   26.3102  -21.5128  -11.6335 C   0  0  0  0  0  0  0  0  0  0  0  0
   26.0937  -22.0179  -10.3661 C   0  0  0  0  0  0  0  0  0  0  0  0
   25.4308  -21.2737   -9.4174 C   0  0  0  0  0  0  0  0  0  0  0  0
   24.9944  -20.0174   -9.7740 C   0  0  0  0  0  0  0  0  0  0  0  0
   25.2200  -19.5166  -11.0623 C   0  0  0  0  0  0  0  0  0  0  0  0
   23.7271  -19.9880  -14.0660 C   0  0  0  0  0  0  0  0  0  0  0  0
   23.1708  -18.8394  -14.1617 O   0  0  0  0  0  0  0  0  0  0  0  0
   20.9480  -22.8440  -16.0471 N   0  0  0  0  0  0  0  0  0  0  0  0
   20.5076  -21.7654  -15.2390 C   0  0  0  0  0  0  0  0  0  0  0  0
   20.0564  -20.7191  -15.7465 O   0  0  0  0  0  0  0  0  0  0  0  0
   20.5892  -21.8940  -13.7748 C   0  0  0  0  0  0  0  0  0  0  0  0
   21.4677  -20.7860  -13.2338 C   0  0  2  0  0  0  0  0  0  0  0  0
   22.8691  -21.0321  -13.6235 N   0  0  0  0  0  0  0  0  0  0  0  0
   21.3358  -20.6166  -11.7911 C   0  0  0  0  0  0  0  0  0  0  0  0
   20.3224  -19.9186  -11.1591 O   0  0  0  0  0  0  0  0  0  0  0  0
   22.1983  -21.1327  -11.0059 O   0  0  0  0  0  0  0  0  0  0  0  0
  2  1  1  6
  2  3  1  0
  3  4  1  0
  4  5  2  0
  5  6  1  0
  7  6  2  0
  8  7  1  0
  9  4  1  0
  9  8  2  0
 10 12  1  0
 10  2  1  0
 11 10  2  0
 13 12  1  0
 13 14  1  1
 15 16  2  0
 15 14  1  0
 17 16  1  0
 18 17  2  0
 19 18  1  0
 19 20  2  0
 20 15  1  0
 21 28  1  0
 21 13  1  0
 22 21  2  0
 24 23  1  0
 24 25  2  0
 27 26  1  1
 26 24  1  0
 27 28  1  0
 27 29  1  0
 29 30  1  0
 31 29  2  0
M  END
$$$$
