FFN.pdb
     RDKit          3D

 31 32  0  0  1  0  0  0  0  0999 V2000
   20.5764  -28.3612  -13.2032 N   0  0  0  0  0  0  0  0  0  0  0  0
   20.7119  -28.4124  -11.7821 C   0  0  1  0  0  0  0  0  0  0  0  0
   19.3722  -28.2835  -11.0939 C   0  0  0  0  0  0  0  0  0  0  0  0
   18.7708  -26.9691  -11.4268 C   0  0  0  0  0  0  0  0  0  0  0  0
   19.4157  -25.8355  -10.9810 C   0  0  0  0  0  0  0  0  0  0  0  0
   18.9054  -24.5626  -11.2567 C   0  0  0  0  0  0  0  0  0  0  0  0
   17.7583  -24.4218  -11.9730 C   0  0  0  0  0  0  0  0  0  0  0  0
   17.0967  -25.5408  -12.4287 C   0  0  0  0  0  0  0  0  0  0  0  0
   17.6106  -26.8024  -12.1503 C   0  0  0  0  0  0  0  0  0  0  0  0
   21.4562  -29.6126  -11.3164 C   0  0  0  0  0  0  0  0  0  0  0  0
   21.2991  -30.7202  -11.8986 O   0  0  0  0  0  0  0  0  0  0  0  0
   22.3622  -29.6002  -10.2257 N   0  0  0  0  0  0  0  0  0  0  0  0
   23.1011  -30.7981   -9.7985 C   0  0  1  0  0  0  0  0  0  0  0  0
   24.3604  -30.4338   -9.0874 C   0  0  0  0  0  0  0  0  0  0  0  0
   25.1545  -31.5469   -8.5796 C   0  0  0  0  0  0  0  0  0  0  0  0
   26.1178  -32.1540   -9.3556 C   0  0  0  0  0  0  0  0  0  0  0  0
   26.8793  -33.2110   -8.8960 C   0  0  0  0  0  0  0  0  0  0  0  0
   26.7001  -33.7047   -7.6241 C   0  0  0  0  0  0  0  0  0  0  0  0
   25.7422  -33.1118   -6.8325 C   0  0  0  0  0  0  0  0  0  0  0  0
   24.9766  -32.0408   -7.3101 C   0  0  0  0  0  0  0  0  0  0  0  0
   22.1780  -31.6674   -9.0669 C   0  0  0  0  0  0  0  0  0  0  0  0
   21.3747  -31.1873   -8.1940 O   0  0  0  0  0  0  0  0  0  0  0  0
   20.5345  -36.7300  -10.7491 N   0  0  0  0  0  0  0  0  0  0  0  0
   21.0258  -35.4577  -10.3615 C   0  0  0  0  0  0  0  0  0  0  0  0
   22.1258  -35.0366  -10.7720 O   0  0  0  0  0  0  0  0  0  0  0  0
   20.2140  -34.6269   -9.4572 C   0  0  0  0  0  0  0  0  0  0  0  0
   21.1343  -33.9072   -8.4944 C   0  0  2  0  0  0  0  0  0  0  0  0
   22.0878  -33.0744   -9.2518 N   0  0  0  0  0  0  0  0  0  0  0  0
   21.8232  -34.8180   -7.5871 C   0  0  0  0  0  0  0  0  0  0  0  0
   23.1958  -34.9599   -7.4891 O   0  0  0  0  0  0  0  0  0  0  0  0
   21.1522  -35.5659   -6.8015 O   0  0  0  0  0  0  0  0  0  0  0  0
  2  1  1  6
  2  3  1  0
  3  4  1  0
  4  5  2  0
  5  6  1  0
  7  6  2  0
  8  7  1  0
  9  4  1  0
  9  8  2  0
 10 12  1  0
 10  2  1  0
 11 10  2  0
 13 12  1  0
 13 14  1  1
 15 16  2  0
 15 14  1  0
 17 16  1  0
 18 17  2  0
 19 18  1  0
 19 20  2  0
 20 15  1  0
 21 28  1  0
 21 13  1  0
 22 21  2  0
 24 23  1  0
 24 25  2  0
 27 26  1  6
 26 24  1  0
 27 28  1  0
 27 29  1  0
 29 30  1  0
 31 29  2  0
M  END
$$$$
