FFN.pdb
     RDKit          3D

 31 32  0  0  1  0  0  0  0  0999 V2000
   28.6988  -20.0799  -14.6714 N   0  0  0  0  0  0  0  0  0  0  0  0
   27.5473  -19.4068  -14.1601 C   0  0  1  0  0  0  0  0  0  0  0  0
   26.7684  -18.7278  -15.2633 C   0  0  0  0  0  0  0  0  0  0  0  0
   27.4952  -17.5124  -15.7047 C   0  0  0  0  0  0  0  0  0  0  0  0
   27.4430  -16.4011  -14.8910 C   0  0  0  0  0  0  0  0  0  0  0  0
   28.1036  -15.2197  -15.2443 C   0  0  0  0  0  0  0  0  0  0  0  0
   28.8120  -15.1478  -16.4026 C   0  0  0  0  0  0  0  0  0  0  0  0
   28.8781  -16.2462  -17.2314 C   0  0  0  0  0  0  0  0  0  0  0  0
   28.2186  -17.4166  -16.8729 C   0  0  0  0  0  0  0  0  0  0  0  0
   26.6793  -20.2916  -13.3383 C   0  0  0  0  0  0  0  0  0  0  0  0
   26.5442  -21.5073  -13.6446 O   0  0  0  0  0  0  0  0  0  0  0  0
   25.9675  -19.8500  -12.1942 N   0  0  0  0  0  0  0  0  0  0  0  0
   25.1329  -20.7520  -11.3860 C   0  0  1  0  0  0  0  0  0  0  0  0
   25.1454  -20.3591   -9.9473 C   0  0  0  0  0  0  0  0  0  0  0  0
   26.4187  -20.5117   -9.2524 C   0  0  0  0  0  0  0  0  0  0  0  0
   26.7266  -19.7531   -8.1441 C   0  0  0  0  0  0  0  0  0  0  0  0
   27.9272  -19.8791   -7.4725 C   0  0  0  0  0  0  0  0  0  0  0  0
   28.8758  -20.7826   -7.8934 C   0  0  0  0  0  0  0  0  0  0  0  0
   28.5875  -21.5505   -8.9993 C   0  0  0  0  0  0  0  0  0  0  0  0
   27.3666  -21.4133   -9.6716 C   0  0  0  0  0  0  0  0  0  0  0  0
   23.8148  -20.8420  -12.0165 C   0  0  0  0  0  0  0  0  0  0  0  0
   23.2678  -19.8138  -12.5470 O   0  0  0  0  0  0  0  0  0  0  0  0
   19.5213  -22.3367  -14.2188 N   0  0  0  0  0  0  0  0  0  0  0  0
   20.1429  -23.5622  -13.8693 C   0  0  0  0  0  0  0  0  0  0  0  0
   19.6668  -24.6560  -14.2339 O   0  0  0  0  0  0  0  0  0  0  0  0
   21.3727  -23.5309  -13.0608 C   0  0  0  0  0  0  0  0  0  0  0  0
   21.7467  -22.0884  -12.7932 C   0  0  2  0  0  0  0  0  0  0  0  0
   23.0471  -22.0362  -12.0986 N   0  0  0  0  0  0  0  0  0  0  0  0
   20.7164  -21.3675  -12.0543 C   0  0  0  0  0  0  0  0  0  0  0  0
   19.7376  -20.5711  -12.6211 O   0  0  0  0  0  0  0  0  0  0  0  0
   20.6717  -21.4435  -10.7818 O   0  0  0  0  0  0  0  0  0  0  0  0
  2  1  1  6
  2  3  1  0
  3  4  1  0
  4  5  2  0
  5  6  1  0
  7  6  2  0
  8  7  1  0
  9  4  1  0
  9  8  2  0
 10 12  1  0
 10  2  1  0
 11 10  2  0
 13 12  1  0
 13 14  1  1
 15 16  2  0
 15 14  1  0
 17 16  1  0
 18 17  2  0
 19 18  1  0
 19 20  2  0
 20 15  1  0
 21 28  1  0
 21 13  1  0
 22 21  2  0
 24 23  1  0
 24 25  2  0
 27 26  1  1
 26 24  1  0
 27 28  1  0
 27 29  1  0
 29 30  1  0
 31 29  2  0
M  END
$$$$
