FFN.pdb
     RDKit          3D

 31 32  0  0  1  0  0  0  0  0999 V2000
   27.5232  -21.1881  -16.9438 N   0  0  0  0  0  0  0  0  0  0  0  0
   26.5056  -20.3019  -16.4752 C   0  0  1  0  0  0  0  0  0  0  0  0
   25.5263  -19.9546  -17.5731 C   0  0  0  0  0  0  0  0  0  0  0  0
   26.1982  -19.0986  -18.5811 C   0  0  0  0  0  0  0  0  0  0  0  0
   26.3202  -19.5899  -19.8630 C   0  0  0  0  0  0  0  0  0  0  0  0
   26.9432  -18.8381  -20.8648 C   0  0  0  0  0  0  0  0  0  0  0  0
   27.4413  -17.6034  -20.5889 C   0  0  0  0  0  0  0  0  0  0  0  0
   27.3306  -17.0921  -19.3145 C   0  0  0  0  0  0  0  0  0  0  0  0
   26.7100  -17.8458  -18.3246 C   0  0  0  0  0  0  0  0  0  0  0  0
   25.8131  -20.8093  -15.2609 C   0  0  0  0  0  0  0  0  0  0  0  0
   25.5197  -22.0319  -15.1639 O   0  0  0  0  0  0  0  0  0  0  0  0
   25.4462  -19.9873  -14.1653 N   0  0  0  0  0  0  0  0  0  0  0  0
   24.6367  -20.4829  -13.0417 C   0  0  1  0  0  0  0  0  0  0  0  0
   25.3185  -20.2475  -11.7364 C   0  0  0  0  0  0  0  0  0  0  0  0
   26.7550  -20.4990  -11.7092 C   0  0  0  0  0  0  0  0  0  0  0  0
   27.2982  -21.4696  -10.8959 C   0  0  0  0  0  0  0  0  0  0  0  0
   28.6556  -21.7227  -10.8523 C   0  0  0  0  0  0  0  0  0  0  0  0
   29.5297  -21.0020  -11.6332 C   0  0  0  0  0  0  0  0  0  0  0  0
   29.0068  -20.0272  -12.4531 C   0  0  0  0  0  0  0  0  0  0  0  0
   27.6288  -19.7801  -12.4883 C   0  0  0  0  0  0  0  0  0  0  0  0
   23.2877  -19.9293  -13.1716 C   0  0  0  0  0  0  0  0  0  0  0  0
   22.9360  -18.8919  -12.5099 O   0  0  0  0  0  0  0  0  0  0  0  0
   20.2576  -23.8963  -14.3090 N   0  0  0  0  0  0  0  0  0  0  0  0
   21.6095  -24.0409  -13.9068 C   0  0  0  0  0  0  0  0  0  0  0  0
   22.1728  -25.1538  -13.9200 O   0  0  0  0  0  0  0  0  0  0  0  0
   22.3525  -22.8485  -13.4672 C   0  0  0  0  0  0  0  0  0  0  0  0
   21.4627  -21.6331  -13.6192 C   0  0  2  0  0  0  0  0  0  0  0  0
   22.2790  -20.4699  -14.0155 N   0  0  0  0  0  0  0  0  0  0  0  0
   20.6811  -21.3541  -12.4198 C   0  0  0  0  0  0  0  0  0  0  0  0
   21.1843  -21.3091  -11.1321 O   0  0  0  0  0  0  0  0  0  0  0  0
   19.4291  -21.1281  -12.5115 O   0  0  0  0  0  0  0  0  0  0  0  0
  2  1  1  6
  2  3  1  0
  3  4  1  0
  4  5  2  0
  5  6  1  0
  7  6  2  0
  8  7  1  0
  9  4  1  0
  9  8  2  0
 10 12  1  0
 10  2  1  0
 11 10  2  0
 13 12  1  0
 13 14  1  1
 15 16  2  0
 15 14  1  0
 17 16  1  0
 18 17  2  0
 19 18  1  0
 19 20  2  0
 20 15  1  0
 21 28  1  0
 21 13  1  0
 22 21  2  0
 24 23  1  0
 24 25  2  0
 27 26  1  1
 26 24  1  0
 27 28  1  0
 27 29  1  0
 29 30  1  0
 31 29  2  0
M  END
$$$$
