FFN.pdb
     RDKit          3D

 31 32  0  0  1  0  0  0  0  0999 V2000
   20.6811  -20.9925  -12.1759 N   0  0  0  0  0  0  0  0  0  0  0  0
   21.9864  -21.3495  -12.6333 C   0  0  1  0  0  0  0  0  0  0  0  0
   22.1406  -21.0985  -14.1159 C   0  0  0  0  0  0  0  0  0  0  0  0
   21.1889  -21.9564  -14.8633 C   0  0  0  0  0  0  0  0  0  0  0  0
   21.6164  -23.2100  -15.2446 C   0  0  0  0  0  0  0  0  0  0  0  0
   20.7731  -24.0726  -15.9528 C   0  0  0  0  0  0  0  0  0  0  0  0
   19.5107  -23.6864  -16.2786 C   0  0  0  0  0  0  0  0  0  0  0  0
   19.0620  -22.4379  -15.9078 C   0  0  0  0  0  0  0  0  0  0  0  0
   19.9066  -21.5866  -15.2040 C   0  0  0  0  0  0  0  0  0  0  0  0
   23.0701  -20.6989  -11.8498 C   0  0  0  0  0  0  0  0  0  0  0  0
   23.0023  -19.4701  -11.5748 O   0  0  0  0  0  0  0  0  0  0  0  0
   24.2150  -21.3863  -11.3728 N   0  0  0  0  0  0  0  0  0  0  0  0
   25.3339  -20.6954  -10.7140 C   0  0  1  0  0  0  0  0  0  0  0  0
   26.1137  -21.6277   -9.8496 C   0  0  0  0  0  0  0  0  0  0  0  0
   27.1511  -21.0197   -9.0240 C   0  0  0  0  0  0  0  0  0  0  0  0
   26.8453  -20.0781   -8.0656 C   0  0  0  0  0  0  0  0  0  0  0  0
   27.8119  -19.4876   -7.2748 C   0  0  0  0  0  0  0  0  0  0  0  0
   29.1383  -19.8242   -7.4180 C   0  0  0  0  0  0  0  0  0  0  0  0
   29.4649  -20.7634   -8.3705 C   0  0  0  0  0  0  0  0  0  0  0  0
   28.4758  -21.3548   -9.1661 C   0  0  0  0  0  0  0  0  0  0  0  0
   26.0959  -19.9798  -11.7388 C   0  0  0  0  0  0  0  0  0  0  0  0
   27.0252  -19.1613  -11.4158 O   0  0  0  0  0  0  0  0  0  0  0  0
   29.3079  -17.9050  -14.9749 N   0  0  0  0  0  0  0  0  0  0  0  0
   29.0082  -19.2906  -14.9964 C   0  0  0  0  0  0  0  0  0  0  0  0
   29.4282  -20.0292  -15.9097 O   0  0  0  0  0  0  0  0  0  0  0  0
   28.1852  -19.8573  -13.9154 C   0  0  0  0  0  0  0  0  0  0  0  0
   26.7428  -19.4528  -14.1342 C   0  0  2  0  0  0  0  0  0  0  0  0
   25.8855  -20.1227  -13.1378 N   0  0  0  0  0  0  0  0  0  0  0  0
   26.2853  -19.7131  -15.4944 C   0  0  0  0  0  0  0  0  0  0  0  0
   26.5669  -18.9245  -16.5955 O   0  0  0  0  0  0  0  0  0  0  0  0
   25.5642  -20.7358  -15.7411 O   0  0  0  0  0  0  0  0  0  0  0  0
  2  1  1  1
  2  3  1  0
  3  4  1  0
  4  5  2  0
  5  6  1  0
  7  6  2  0
  8  7  1  0
  9  4  1  0
  9  8  2  0
 10 12  1  0
 10  2  1  0
 11 10  2  0
 13 12  1  0
 13 14  1  6
 15 16  2  0
 15 14  1  0
 17 16  1  0
 18 17  2  0
 19 18  1  0
 19 20  2  0
 20 15  1  0
 21 28  1  0
 21 13  1  0
 22 21  2  0
 24 23  1  0
 24 25  2  0
 27 26  1  6
 26 24  1  0
 27 28  1  0
 27 29  1  0
 29 30  1  0
 31 29  2  0
M  END
$$$$
