FFN.pdb
     RDKit          3D

 31 32  0  0  1  0  0  0  0  0999 V2000
   26.8995  -21.0862  -13.6821 N   0  0  0  0  0  0  0  0  0  0  0  0
   26.8502  -20.0233  -12.7290 C   0  0  1  0  0  0  0  0  0  0  0  0
   25.7201  -19.0649  -13.0276 C   0  0  0  0  0  0  0  0  0  0  0  0
   25.9703  -18.3965  -14.3279 C   0  0  0  0  0  0  0  0  0  0  0  0
   26.9306  -17.4086  -14.3688 C   0  0  0  0  0  0  0  0  0  0  0  0
   27.2188  -16.7349  -15.5603 C   0  0  0  0  0  0  0  0  0  0  0  0
   26.5526  -17.0452  -16.7044 C   0  0  0  0  0  0  0  0  0  0  0  0
   25.5887  -18.0292  -16.6872 C   0  0  0  0  0  0  0  0  0  0  0  0
   25.3083  -18.6940  -15.4986 C   0  0  0  0  0  0  0  0  0  0  0  0
   26.8022  -20.5096  -11.3245 C   0  0  0  0  0  0  0  0  0  0  0  0
   26.3062  -21.6390  -11.0623 O   0  0  0  0  0  0  0  0  0  0  0  0
   27.2919  -19.7677  -10.2197 N   0  0  0  0  0  0  0  0  0  0  0  0
   27.2349  -20.2743   -8.8400 C   0  0  1  0  0  0  0  0  0  0  0  0
   28.2004  -19.5568   -7.9584 C   0  0  0  0  0  0  0  0  0  0  0  0
   28.0844  -19.8247   -6.5294 C   0  0  0  0  0  0  0  0  0  0  0  0
   28.4021  -21.0577   -6.0024 C   0  0  0  0  0  0  0  0  0  0  0  0
   28.2971  -21.3340   -4.6530 C   0  0  0  0  0  0  0  0  0  0  0  0
   27.8638  -20.3712   -3.7706 C   0  0  0  0  0  0  0  0  0  0  0  0
   27.5412  -19.1322   -4.2772 C   0  0  0  0  0  0  0  0  0  0  0  0
   27.6519  -18.8644   -5.6474 C   0  0  0  0  0  0  0  0  0  0  0  0
   25.8367  -20.2621   -8.4064 C   0  0  0  0  0  0  0  0  0  0  0  0
   25.0666  -19.2821   -8.6966 O   0  0  0  0  0  0  0  0  0  0  0  0
   21.2615  -21.0746   -6.5184 N   0  0  0  0  0  0  0  0  0  0  0  0
   21.5089  -21.5956   -7.8136 C   0  0  0  0  0  0  0  0  0  0  0  0
   20.5724  -21.9447   -8.5601 O   0  0  0  0  0  0  0  0  0  0  0  0
   22.9008  -21.7225   -8.2756 C   0  0  0  0  0  0  0  0  0  0  0  0
   23.8257  -21.2155   -7.1895 C   0  0  2  0  0  0  0  0  0  0  0  0
   25.2240  -21.3003   -7.6523 N   0  0  0  0  0  0  0  0  0  0  0  0
   23.6392  -21.9112   -5.9212 C   0  0  0  0  0  0  0  0  0  0  0  0
   24.5914  -22.6932   -5.2925 O   0  0  0  0  0  0  0  0  0  0  0  0
   22.5270  -21.8247   -5.3028 O   0  0  0  0  0  0  0  0  0  0  0  0
  2  1  1  6
  2  3  1  0
  3  4  1  0
  4  5  2  0
  5  6  1  0
  7  6  2  0
  8  7  1  0
  9  4  1  0
  9  8  2  0
 10 12  1  0
 10  2  1  0
 11 10  2  0
 13 12  1  0
 13 14  1  1
 15 16  2  0
 15 14  1  0
 17 16  1  0
 18 17  2  0
 19 18  1  0
 19 20  2  0
 20 15  1  0
 21 28  1  0
 21 13  1  0
 22 21  2  0
 24 23  1  0
 24 25  2  0
 27 26  1  6
 26 24  1  0
 27 28  1  0
 27 29  1  0
 29 30  1  0
 31 29  2  0
M  END
$$$$
