FFN.pdb
     RDKit          3D

 31 32  0  0  1  0  0  0  0  0999 V2000
   27.8061  -21.2602  -14.0211 N   0  0  0  0  0  0  0  0  0  0  0  0
   27.1883  -20.3229  -13.1378 C   0  0  1  0  0  0  0  0  0  0  0  0
   25.7932  -19.9663  -13.5978 C   0  0  0  0  0  0  0  0  0  0  0  0
   25.8691  -19.2499  -14.8944 C   0  0  0  0  0  0  0  0  0  0  0  0
   25.5306  -19.9465  -16.0345 C   0  0  0  0  0  0  0  0  0  0  0  0
   25.5797  -19.3351  -17.2917 C   0  0  0  0  0  0  0  0  0  0  0  0
   25.9644  -18.0364  -17.4104 C   0  0  0  0  0  0  0  0  0  0  0  0
   26.3071  -17.3206  -16.2845 C   0  0  0  0  0  0  0  0  0  0  0  0
   26.2556  -17.9358  -15.0386 C   0  0  0  0  0  0  0  0  0  0  0  0
   27.2022  -20.7709  -11.7198 C   0  0  0  0  0  0  0  0  0  0  0  0
   26.9448  -21.9715  -11.4328 O   0  0  0  0  0  0  0  0  0  0  0  0
   27.4946  -19.9139  -10.6286 N   0  0  0  0  0  0  0  0  0  0  0  0
   27.3237  -20.3307   -9.2285 C   0  0  1  0  0  0  0  0  0  0  0  0
   27.8959  -19.3237   -8.2889 C   0  0  0  0  0  0  0  0  0  0  0  0
   27.7433  -19.6141   -6.8678 C   0  0  0  0  0  0  0  0  0  0  0  0
   28.5661  -20.5149   -6.2270 C   0  0  0  0  0  0  0  0  0  0  0  0
   28.4376  -20.8068   -4.8829 C   0  0  0  0  0  0  0  0  0  0  0  0
   27.4663  -20.1980   -4.1218 C   0  0  0  0  0  0  0  0  0  0  0  0
   26.6337  -19.2945   -4.7433 C   0  0  0  0  0  0  0  0  0  0  0  0
   26.7741  -19.0070   -6.1067 C   0  0  0  0  0  0  0  0  0  0  0  0
   25.9157  -20.6747   -9.0230 C   0  0  0  0  0  0  0  0  0  0  0  0
   25.5451  -21.3440   -7.9971 O   0  0  0  0  0  0  0  0  0  0  0  0
   20.8585  -20.4899   -7.7729 N   0  0  0  0  0  0  0  0  0  0  0  0
   21.2746  -19.8937   -8.9902 C   0  0  0  0  0  0  0  0  0  0  0  0
   20.4683  -19.6919   -9.9204 O   0  0  0  0  0  0  0  0  0  0  0  0
   22.6870  -19.5097   -9.1480 C   0  0  0  0  0  0  0  0  0  0  0  0
   23.4631  -20.7002   -9.6697 C   0  0  2  0  0  0  0  0  0  0  0  0
   24.8653  -20.3092   -9.9091 N   0  0  0  0  0  0  0  0  0  0  0  0
   22.8607  -21.2866  -10.8616 C   0  0  0  0  0  0  0  0  0  0  0  0
   23.3320  -21.1310  -12.1528 O   0  0  0  0  0  0  0  0  0  0  0  0
   21.8135  -22.0077  -10.7592 O   0  0  0  0  0  0  0  0  0  0  0  0
  2  1  1  6
  2  3  1  0
  3  4  1  0
  4  5  2  0
  5  6  1  0
  7  6  2  0
  8  7  1  0
  9  4  1  0
  9  8  2  0
 10 12  1  0
 10  2  1  0
 11 10  2  0
 13 12  1  0
 13 14  1  1
 15 16  2  0
 15 14  1  0
 17 16  1  0
 18 17  2  0
 19 18  1  0
 19 20  2  0
 20 15  1  0
 21 28  1  0
 21 13  1  0
 22 21  2  0
 24 23  1  0
 24 25  2  0
 27 26  1  6
 26 24  1  0
 27 28  1  0
 27 29  1  0
 29 30  1  0
 31 29  2  0
M  END
$$$$
