FFN.pdb
     RDKit          3D

 31 32  0  0  1  0  0  0  0  0999 V2000
   19.2517  -13.6016  -18.1921 N   0  0  0  0  0  0  0  0  0  0  0  0
   19.4071  -12.2167  -18.5058 C   0  0  1  0  0  0  0  0  0  0  0  0
   18.3462  -11.7468  -19.4746 C   0  0  0  0  0  0  0  0  0  0  0  0
   18.5009  -12.4657  -20.7628 C   0  0  0  0  0  0  0  0  0  0  0  0
   17.5415  -13.3965  -21.0989 C   0  0  0  0  0  0  0  0  0  0  0  0
   17.6236  -14.1129  -22.2976 C   0  0  0  0  0  0  0  0  0  0  0  0
   18.6569  -13.9016  -23.1557 C   0  0  0  0  0  0  0  0  0  0  0  0
   19.6274  -12.9762  -22.8405 C   0  0  0  0  0  0  0  0  0  0  0  0
   19.5384  -12.2684  -21.6471 C   0  0  0  0  0  0  0  0  0  0  0  0
   19.4675  -11.3545  -17.2957 C   0  0  0  0  0  0  0  0  0  0  0  0
   18.6075  -11.4840  -16.3825 O   0  0  0  0  0  0  0  0  0  0  0  0
   20.4584  -10.3617  -17.0879 N   0  0  0  0  0  0  0  0  0  0  0  0
   20.4311   -9.4467  -15.9367 C   0  0  1  0  0  0  0  0  0  0  0  0
   21.8089   -9.0494  -15.5266 C   0  0  0  0  0  0  0  0  0  0  0  0
   21.8995   -8.0620  -14.4569 C   0  0  0  0  0  0  0  0  0  0  0  0
   22.0818   -6.7236  -14.7294 C   0  0  0  0  0  0  0  0  0  0  0  0
   22.1731   -5.7721  -13.7321 C   0  0  0  0  0  0  0  0  0  0  0  0
   22.0836   -6.1326  -12.4072 C   0  0  0  0  0  0  0  0  0  0  0  0
   21.9013   -7.4654  -12.1137 C   0  0  0  0  0  0  0  0  0  0  0  0
   21.8104   -8.4206  -13.1338 C   0  0  0  0  0  0  0  0  0  0  0  0
   19.5112   -8.3507  -16.2461 C   0  0  0  0  0  0  0  0  0  0  0  0
   19.5326   -7.7771  -17.3899 O   0  0  0  0  0  0  0  0  0  0  0  0
   14.8774   -5.6136  -16.7918 N   0  0  0  0  0  0  0  0  0  0  0  0
   15.4435   -5.7692  -15.5013 C   0  0  0  0  0  0  0  0  0  0  0  0
   15.2551   -4.9215  -14.6058 O   0  0  0  0  0  0  0  0  0  0  0  0
   16.2675   -6.9572  -15.2243 C   0  0  0  0  0  0  0  0  0  0  0  0
   17.6878   -6.6837  -15.6715 C   0  0  2  0  0  0  0  0  0  0  0  0
   18.5413   -7.8405  -15.3401 N   0  0  0  0  0  0  0  0  0  0  0  0
   18.2245   -5.4466  -15.1159 C   0  0  0  0  0  0  0  0  0  0  0  0
   19.2125   -5.3680  -14.1509 O   0  0  0  0  0  0  0  0  0  0  0  0
   17.7802   -4.3205  -15.5175 O   0  0  0  0  0  0  0  0  0  0  0  0
  2  1  1  1
  2  3  1  0
  3  4  1  0
  4  5  2  0
  5  6  1  0
  7  6  2  0
  8  7  1  0
  9  4  1  0
  9  8  2  0
 10 12  1  0
 10  2  1  0
 11 10  2  0
 13 12  1  0
 13 14  1  6
 15 16  2  0
 15 14  1  0
 17 16  1  0
 18 17  2  0
 19 18  1  0
 19 20  2  0
 20 15  1  0
 21 28  1  0
 21 13  1  0
 22 21  2  0
 24 23  1  0
 24 25  2  0
 27 26  1  1
 26 24  1  0
 27 28  1  0
 27 29  1  0
 29 30  1  0
 31 29  2  0
M  END
$$$$
