FFN.pdb
     RDKit          3D

 31 32  0  0  1  0  0  0  0  0999 V2000
   25.9816  -21.0831  -13.7148 N   0  0  0  0  0  0  0  0  0  0  0  0
   25.1969  -20.4720  -12.6895 C   0  0  1  0  0  0  0  0  0  0  0  0
   23.7250  -20.7638  -12.8717 C   0  0  0  0  0  0  0  0  0  0  0  0
   23.2554  -20.1587  -14.1420 C   0  0  0  0  0  0  0  0  0  0  0  0
   23.1156  -18.7883  -14.1882 C   0  0  0  0  0  0  0  0  0  0  0  0
   22.6765  -18.1493  -15.3525 C   0  0  0  0  0  0  0  0  0  0  0  0
   22.3787  -18.8736  -16.4641 C   0  0  0  0  0  0  0  0  0  0  0  0
   22.5110  -20.2445  -16.4409 C   0  0  0  0  0  0  0  0  0  0  0  0
   22.9481  -20.8719  -15.2796 C   0  0  0  0  0  0  0  0  0  0  0  0
   25.6617  -20.8227  -11.3211 C   0  0  0  0  0  0  0  0  0  0  0  0
   25.8268  -22.0306  -10.9988 O   0  0  0  0  0  0  0  0  0  0  0  0
   25.9427  -19.8615  -10.3171 N   0  0  0  0  0  0  0  0  0  0  0  0
   26.4355  -20.2339   -8.9823 C   0  0  1  0  0  0  0  0  0  0  0  0
   27.4169  -19.2355   -8.4683 C   0  0  0  0  0  0  0  0  0  0  0  0
   27.9012  -19.4537   -7.1099 C   0  0  0  0  0  0  0  0  0  0  0  0
   27.4873  -18.6576   -6.0640 C   0  0  0  0  0  0  0  0  0  0  0  0
   27.9351  -18.8447   -4.7706 C   0  0  0  0  0  0  0  0  0  0  0  0
   28.8263  -19.8504   -4.4746 C   0  0  0  0  0  0  0  0  0  0  0  0
   29.2523  -20.6572   -5.5058 C   0  0  0  0  0  0  0  0  0  0  0  0
   28.7909  -20.4574   -6.8129 C   0  0  0  0  0  0  0  0  0  0  0  0
   25.2782  -20.4979   -8.1255 C   0  0  0  0  0  0  0  0  0  0  0  0
   24.2950  -19.6801   -8.0777 O   0  0  0  0  0  0  0  0  0  0  0  0
   21.7638  -22.4254   -5.0645 N   0  0  0  0  0  0  0  0  0  0  0  0
   22.6619  -23.5101   -5.2287 C   0  0  0  0  0  0  0  0  0  0  0  0
   22.4219  -24.6294   -4.7331 O   0  0  0  0  0  0  0  0  0  0  0  0
   23.8978  -23.2999   -6.0005 C   0  0  0  0  0  0  0  0  0  0  0  0
   23.9722  -21.8473   -6.4203 C   0  0  2  0  0  0  0  0  0  0  0  0
   25.1407  -21.6462   -7.2982 N   0  0  0  0  0  0  0  0  0  0  0  0
   23.9936  -20.9332   -5.2840 C   0  0  0  0  0  0  0  0  0  0  0  0
   24.8681  -21.0097   -4.2149 O   0  0  0  0  0  0  0  0  0  0  0  0
   23.1592  -19.9705   -5.2228 O   0  0  0  0  0  0  0  0  0  0  0  0
  2  1  1  6
  2  3  1  0
  3  4  1  0
  4  5  2  0
  5  6  1  0
  7  6  2  0
  8  7  1  0
  9  4  1  0
  9  8  2  0
 10 12  1  0
 10  2  1  0
 11 10  2  0
 13 12  1  0
 13 14  1  1
 15 16  2  0
 15 14  1  0
 17 16  1  0
 18 17  2  0
 19 18  1  0
 19 20  2  0
 20 15  1  0
 21 28  1  0
 21 13  1  0
 22 21  2  0
 24 23  1  0
 24 25  2  0
 27 26  1  1
 26 24  1  0
 27 28  1  0
 27 29  1  0
 29 30  1  0
 31 29  2  0
M  END
$$$$
