FFN.pdb
     RDKit          3D

 31 32  0  0  1  0  0  0  0  0999 V2000
   17.5789  -11.2665  -15.4927 N   0  0  0  0  0  0  0  0  0  0  0  0
   18.2343  -10.2983  -16.3134 C   0  0  1  0  0  0  0  0  0  0  0  0
   17.3854   -9.0605  -16.4933 C   0  0  0  0  0  0  0  0  0  0  0  0
   16.1720   -9.4035  -17.2744 C   0  0  0  0  0  0  0  0  0  0  0  0
   16.2942   -9.4966  -18.6442 C   0  0  0  0  0  0  0  0  0  0  0  0
   15.1918   -9.8151  -19.4443 C   0  0  0  0  0  0  0  0  0  0  0  0
   13.9748  -10.0393  -18.8808 C   0  0  0  0  0  0  0  0  0  0  0  0
   13.8292   -9.9517  -17.5138 C   0  0  0  0  0  0  0  0  0  0  0  0
   14.9300   -9.6346  -16.7257 C   0  0  0  0  0  0  0  0  0  0  0  0
   19.6004   -9.9629  -15.8309 C   0  0  0  0  0  0  0  0  0  0  0  0
   19.7739   -9.5672  -14.6462 O   0  0  0  0  0  0  0  0  0  0  0  0
   20.7633  -10.0599  -16.6366 N   0  0  0  0  0  0  0  0  0  0  0  0
   22.0994   -9.6936  -16.1428 C   0  0  1  0  0  0  0  0  0  0  0  0
   23.1557  -10.5579  -16.7442 C   0  0  0  0  0  0  0  0  0  0  0  0
   24.5288  -10.2559  -16.3557 C   0  0  0  0  0  0  0  0  0  0  0  0
   25.0666  -10.7426  -15.1841 C   0  0  0  0  0  0  0  0  0  0  0  0
   26.3632  -10.4669  -14.7955 C   0  0  0  0  0  0  0  0  0  0  0  0
   27.1791   -9.6825  -15.5781 C   0  0  0  0  0  0  0  0  0  0  0  0
   26.6606   -9.1861  -16.7531 C   0  0  0  0  0  0  0  0  0  0  0  0
   25.3443   -9.4728  -17.1360 C   0  0  0  0  0  0  0  0  0  0  0  0
   22.2719   -8.2507  -16.3193 C   0  0  0  0  0  0  0  0  0  0  0  0
   21.9545   -7.6800  -17.4199 O   0  0  0  0  0  0  0  0  0  0  0  0
   20.7800   -4.6079  -16.3188 N   0  0  0  0  0  0  0  0  0  0  0  0
   21.0781   -4.5128  -14.9359 C   0  0  0  0  0  0  0  0  0  0  0  0
   20.3286   -3.8945  -14.1536 O   0  0  0  0  0  0  0  0  0  0  0  0
   22.2976   -5.1600  -14.4249 C   0  0  0  0  0  0  0  0  0  0  0  0
   22.9522   -5.9308  -15.5516 C   0  0  2  0  0  0  0  0  0  0  0  0
   22.7865   -7.3785  -15.3210 N   0  0  0  0  0  0  0  0  0  0  0  0
   24.3548   -5.5759  -15.7358 C   0  0  0  0  0  0  0  0  0  0  0  0
   24.8125   -4.4374  -16.3745 O   0  0  0  0  0  0  0  0  0  0  0  0
   25.2716   -6.3437  -15.2923 O   0  0  0  0  0  0  0  0  0  0  0  0
  2  1  1  1
  2  3  1  0
  3  4  1  0
  4  5  2  0
  5  6  1  0
  7  6  2  0
  8  7  1  0
  9  4  1  0
  9  8  2  0
 10 12  1  0
 10  2  1  0
 11 10  2  0
 13 12  1  0
 13 14  1  6
 15 16  2  0
 15 14  1  0
 17 16  1  0
 18 17  2  0
 19 18  1  0
 19 20  2  0
 20 15  1  0
 21 28  1  0
 21 13  1  0
 22 21  2  0
 24 23  1  0
 24 25  2  0
 27 26  1  1
 26 24  1  0
 27 28  1  0
 27 29  1  0
 29 30  1  0
 31 29  2  0
M  END
$$$$
