FFN.pdb
     RDKit          3D

 31 32  0  0  1  0  0  0  0  0999 V2000
   26.9484  -21.4384  -13.8956 N   0  0  0  0  0  0  0  0  0  0  0  0
   26.8089  -20.3294  -13.0061 C   0  0  1  0  0  0  0  0  0  0  0  0
   25.6737  -19.4237  -13.4255 C   0  0  0  0  0  0  0  0  0  0  0  0
   26.1512  -18.4851  -14.4701 C   0  0  0  0  0  0  0  0  0  0  0  0
   25.5884  -18.5791  -15.7247 C   0  0  0  0  0  0  0  0  0  0  0  0
   25.9906  -17.7272  -16.7588 C   0  0  0  0  0  0  0  0  0  0  0  0
   26.9487  -16.7871  -16.5421 C   0  0  0  0  0  0  0  0  0  0  0  0
   27.5252  -16.6750  -15.2960 C   0  0  0  0  0  0  0  0  0  0  0  0
   27.1197  -17.5256  -14.2736 C   0  0  0  0  0  0  0  0  0  0  0  0
   26.6855  -20.7432  -11.5831 C   0  0  0  0  0  0  0  0  0  0  0  0
   26.0717  -21.8031  -11.2831 O   0  0  0  0  0  0  0  0  0  0  0  0
   27.2280  -20.0046  -10.5009 N   0  0  0  0  0  0  0  0  0  0  0  0
   27.1156  -20.4515   -9.1042 C   0  0  1  0  0  0  0  0  0  0  0  0
   28.1346  -19.7899   -8.2392 C   0  0  0  0  0  0  0  0  0  0  0  0
   27.9933  -20.0046   -6.8035 C   0  0  0  0  0  0  0  0  0  0  0  0
   27.3145  -19.1079   -6.0073 C   0  0  0  0  0  0  0  0  0  0  0  0
   27.1709  -19.2900   -4.6455 C   0  0  0  0  0  0  0  0  0  0  0  0
   27.7100  -20.3928   -4.0238 C   0  0  0  0  0  0  0  0  0  0  0  0
   28.3923  -21.3011   -4.8018 C   0  0  0  0  0  0  0  0  0  0  0  0
   28.5311  -21.1052   -6.1815 C   0  0  0  0  0  0  0  0  0  0  0  0
   25.7209  -20.2987   -8.6865 C   0  0  0  0  0  0  0  0  0  0  0  0
   25.1184  -19.1758   -8.8039 O   0  0  0  0  0  0  0  0  0  0  0  0
   22.9418  -19.7130   -9.8231 N   0  0  0  0  0  0  0  0  0  0  0  0
   22.3155  -20.9825   -9.7445 C   0  0  0  0  0  0  0  0  0  0  0  0
   21.5504  -21.3833  -10.6445 O   0  0  0  0  0  0  0  0  0  0  0  0
   22.5805  -21.8353   -8.5741 C   0  0  0  0  0  0  0  0  0  0  0  0
   23.5532  -21.1226   -7.6587 C   0  0  2  0  0  0  0  0  0  0  0  0
   24.9320  -21.3449   -8.1340 N   0  0  0  0  0  0  0  0  0  0  0  0
   23.4000  -21.5122   -6.2615 C   0  0  0  0  0  0  0  0  0  0  0  0
   22.3480  -21.1452   -5.4416 O   0  0  0  0  0  0  0  0  0  0  0  0
   24.2795  -22.2484   -5.7036 O   0  0  0  0  0  0  0  0  0  0  0  0
  2  1  1  6
  2  3  1  0
  3  4  1  0
  4  5  2  0
  5  6  1  0
  7  6  2  0
  8  7  1  0
  9  4  1  0
  9  8  2  0
 10 12  1  0
 10  2  1  0
 11 10  2  0
 13 12  1  0
 13 14  1  1
 15 16  2  0
 15 14  1  0
 17 16  1  0
 18 17  2  0
 19 18  1  0
 19 20  2  0
 20 15  1  0
 21 28  1  0
 21 13  1  0
 22 21  2  0
 24 23  1  0
 24 25  2  0
 27 26  1  6
 26 24  1  0
 27 28  1  0
 27 29  1  0
 29 30  1  0
 31 29  2  0
M  END
$$$$
