FFN.pdb
     RDKit          3D

 31 32  0  0  1  0  0  0  0  0999 V2000
   26.4878  -19.4050  -17.2922 N   0  0  0  0  0  0  0  0  0  0  0  0
   26.1334  -19.0167  -15.9639 C   0  0  1  0  0  0  0  0  0  0  0  0
   25.4470  -17.6701  -15.9461 C   0  0  0  0  0  0  0  0  0  0  0  0
   26.2714  -16.6860  -16.6892 C   0  0  0  0  0  0  0  0  0  0  0  0
   27.3926  -16.1842  -16.0641 C   0  0  0  0  0  0  0  0  0  0  0  0
   28.2161  -15.2521  -16.7043 C   0  0  0  0  0  0  0  0  0  0  0  0
   27.9224  -14.8232  -17.9607 C   0  0  0  0  0  0  0  0  0  0  0  0
   26.8067  -15.3111  -18.6048 C   0  0  0  0  0  0  0  0  0  0  0  0
   25.9935  -16.2374  -17.9615 C   0  0  0  0  0  0  0  0  0  0  0  0
   25.3342  -20.0508  -15.2544 C   0  0  0  0  0  0  0  0  0  0  0  0
   24.4015  -20.6515  -15.8539 O   0  0  0  0  0  0  0  0  0  0  0  0
   25.5540  -20.4229  -13.9039 N   0  0  0  0  0  0  0  0  0  0  0  0
   24.7746  -21.4776  -13.2379 C   0  0  1  0  0  0  0  0  0  0  0  0
   25.5318  -22.0755  -12.1006 C   0  0  0  0  0  0  0  0  0  0  0  0
   25.5857  -21.2812  -10.8786 C   0  0  0  0  0  0  0  0  0  0  0  0
   24.6245  -21.4053   -9.8990 C   0  0  0  0  0  0  0  0  0  0  0  0
   24.6546  -20.6612   -8.7355 C   0  0  0  0  0  0  0  0  0  0  0  0
   25.6631  -19.7532   -8.5085 C   0  0  0  0  0  0  0  0  0  0  0  0
   26.6336  -19.6140   -9.4753 C   0  0  0  0  0  0  0  0  0  0  0  0
   26.5921  -20.3742  -10.6507 C   0  0  0  0  0  0  0  0  0  0  0  0
   23.4535  -20.9351  -12.9164 C   0  0  0  0  0  0  0  0  0  0  0  0
   23.2883  -19.6822  -12.7142 O   0  0  0  0  0  0  0  0  0  0  0  0
   18.4896  -20.0814  -12.9972 N   0  0  0  0  0  0  0  0  0  0  0  0
   19.3505  -19.7861  -14.0844 C   0  0  0  0  0  0  0  0  0  0  0  0
   18.9629  -19.0938  -15.0469 O   0  0  0  0  0  0  0  0  0  0  0  0
   20.7255  -20.3117  -14.0662 C   0  0  0  0  0  0  0  0  0  0  0  0
   20.9261  -21.1155  -12.7990 C   0  0  2  0  0  0  0  0  0  0  0  0
   22.2723  -21.7189  -12.8049 N   0  0  0  0  0  0  0  0  0  0  0  0
   19.8897  -22.1225  -12.6012 C   0  0  0  0  0  0  0  0  0  0  0  0
   19.1577  -22.2967  -11.4404 O   0  0  0  0  0  0  0  0  0  0  0  0
   19.5980  -22.9323  -13.5424 O   0  0  0  0  0  0  0  0  0  0  0  0
  2  1  1  6
  2  3  1  0
  3  4  1  0
  4  5  2  0
  5  6  1  0
  7  6  2  0
  8  7  1  0
  9  4  1  0
  9  8  2  0
 10 12  1  0
 10  2  1  0
 11 10  2  0
 13 12  1  0
 13 14  1  1
 15 16  2  0
 15 14  1  0
 17 16  1  0
 18 17  2  0
 19 18  1  0
 19 20  2  0
 20 15  1  0
 21 28  1  0
 21 13  1  0
 22 21  2  0
 24 23  1  0
 24 25  2  0
 27 26  1  6
 26 24  1  0
 27 28  1  0
 27 29  1  0
 29 30  1  0
 31 29  2  0
M  END
$$$$
