FFN.pdb
     RDKit          3D

 31 32  0  0  1  0  0  0  0  0999 V2000
   27.8778  -22.1811  -13.3069 N   0  0  0  0  0  0  0  0  0  0  0  0
   28.6491  -21.8504  -12.1510 C   0  0  1  0  0  0  0  0  0  0  0  0
   29.8482  -21.0031  -12.5102 C   0  0  0  0  0  0  0  0  0  0  0  0
   31.0898  -21.7789  -12.2724 C   0  0  0  0  0  0  0  0  0  0  0  0
   31.6986  -21.6565  -11.0418 C   0  0  0  0  0  0  0  0  0  0  0  0
   32.8728  -22.3576  -10.7477 C   0  0  0  0  0  0  0  0  0  0  0  0
   33.4361  -23.1760  -11.6761 C   0  0  0  0  0  0  0  0  0  0  0  0
   32.8451  -23.3137  -12.9127 C   0  0  0  0  0  0  0  0  0  0  0  0
   31.6781  -22.6133  -13.1970 C   0  0  0  0  0  0  0  0  0  0  0  0
   27.8359  -21.2244  -11.0747 C   0  0  0  0  0  0  0  0  0  0  0  0
   26.5781  -21.2042  -11.1621 O   0  0  0  0  0  0  0  0  0  0  0  0
   28.3938  -20.6274   -9.9158 N   0  0  0  0  0  0  0  0  0  0  0  0
   27.7163  -20.6510   -8.6105 C   0  0  1  0  0  0  0  0  0  0  0  0
   28.5887  -20.0951   -7.5362 C   0  0  0  0  0  0  0  0  0  0  0  0
   27.9482  -19.8630   -6.2466 C   0  0  0  0  0  0  0  0  0  0  0  0
   27.5847  -18.5964   -5.8435 C   0  0  0  0  0  0  0  0  0  0  0  0
   26.9797  -18.3535   -4.6256 C   0  0  0  0  0  0  0  0  0  0  0  0
   26.7133  -19.3857   -3.7555 C   0  0  0  0  0  0  0  0  0  0  0  0
   27.0688  -20.6593   -4.1395 C   0  0  0  0  0  0  0  0  0  0  0  0
   27.6818  -20.8926   -5.3769 C   0  0  0  0  0  0  0  0  0  0  0  0
   26.4049  -20.0190   -8.7652 C   0  0  0  0  0  0  0  0  0  0  0  0
   26.2955  -18.8430   -9.2580 O   0  0  0  0  0  0  0  0  0  0  0  0
   22.3106  -18.7984  -11.5488 N   0  0  0  0  0  0  0  0  0  0  0  0
   22.5707  -20.0837  -11.0098 C   0  0  0  0  0  0  0  0  0  0  0  0
   21.6885  -20.9653  -10.9847 O   0  0  0  0  0  0  0  0  0  0  0  0
   23.9107  -20.3720  -10.4726 C   0  0  0  0  0  0  0  0  0  0  0  0
   23.8830  -20.2003   -8.9687 C   0  0  2  0  0  0  0  0  0  0  0  0
   25.1742  -20.6299   -8.3988 N   0  0  0  0  0  0  0  0  0  0  0  0
   22.7644  -20.8964   -8.3431 C   0  0  0  0  0  0  0  0  0  0  0  0
   22.8730  -21.8331   -7.3310 O   0  0  0  0  0  0  0  0  0  0  0  0
   21.5706  -20.6591   -8.7245 O   0  0  0  0  0  0  0  0  0  0  0  0
  2  1  1  6
  2  3  1  0
  3  4  1  0
  4  5  2  0
  5  6  1  0
  7  6  2  0
  8  7  1  0
  9  4  1  0
  9  8  2  0
 10 12  1  0
 10  2  1  0
 11 10  2  0
 13 12  1  0
 13 14  1  1
 15 16  2  0
 15 14  1  0
 17 16  1  0
 18 17  2  0
 19 18  1  0
 19 20  2  0
 20 15  1  0
 21 28  1  0
 21 13  1  0
 22 21  2  0
 24 23  1  0
 24 25  2  0
 27 26  1  6
 26 24  1  0
 27 28  1  0
 27 29  1  0
 29 30  1  0
 31 29  2  0
M  END
$$$$
