FFN.pdb
     RDKit          3D

 31 32  0  0  1  0  0  0  0  0999 V2000
   20.0738  -12.3752  -19.1973 N   0  0  0  0  0  0  0  0  0  0  0  0
   20.9356  -11.2364  -19.1648 C   0  0  1  0  0  0  0  0  0  0  0  0
   20.8993  -10.4781  -20.4719 C   0  0  0  0  0  0  0  0  0  0  0  0
   21.2220  -11.4012  -21.5872 C   0  0  0  0  0  0  0  0  0  0  0  0
   22.5449  -11.5319  -21.9514 C   0  0  0  0  0  0  0  0  0  0  0  0
   22.9226  -12.3835  -22.9948 C   0  0  0  0  0  0  0  0  0  0  0  0
   21.9857  -13.1006  -23.6708 C   0  0  0  0  0  0  0  0  0  0  0  0
   20.6575  -12.9859  -23.3241 C   0  0  0  0  0  0  0  0  0  0  0  0
   20.2905  -12.1371  -22.2857 C   0  0  0  0  0  0  0  0  0  0  0  0
   20.6703  -10.3451  -18.0043 C   0  0  0  0  0  0  0  0  0  0  0  0
   19.4878  -10.1545  -17.6099 O   0  0  0  0  0  0  0  0  0  0  0  0
   21.6884   -9.6703  -17.2840 N   0  0  0  0  0  0  0  0  0  0  0  0
   21.3922   -8.6986  -16.2202 C   0  0  1  0  0  0  0  0  0  0  0  0
   22.3356   -8.8444  -15.0743 C   0  0  0  0  0  0  0  0  0  0  0  0
   22.2114   -7.8529  -14.0119 C   0  0  0  0  0  0  0  0  0  0  0  0
   22.6501   -6.5580  -14.1840 C   0  0  0  0  0  0  0  0  0  0  0  0
   22.5448   -5.6038  -13.1907 C   0  0  0  0  0  0  0  0  0  0  0  0
   21.9882   -5.9172  -11.9719 C   0  0  0  0  0  0  0  0  0  0  0  0
   21.5436   -7.2061  -11.7797 C   0  0  0  0  0  0  0  0  0  0  0  0
   21.6559   -8.1645  -12.7946 C   0  0  0  0  0  0  0  0  0  0  0  0
   21.3165   -7.3678  -16.8254 C   0  0  0  0  0  0  0  0  0  0  0  0
   21.9134   -7.1118  -17.9281 O   0  0  0  0  0  0  0  0  0  0  0  0
   20.1866   -3.7279  -20.1648 N   0  0  0  0  0  0  0  0  0  0  0  0
   19.3896   -4.1152  -19.0580 C   0  0  0  0  0  0  0  0  0  0  0  0
   18.4297   -3.4162  -18.6759 O   0  0  0  0  0  0  0  0  0  0  0  0
   19.7101   -5.3678  -18.3542 C   0  0  0  0  0  0  0  0  0  0  0  0
   20.3464   -5.0324  -17.0220 C   0  0  2  0  0  0  0  0  0  0  0  0
   20.5973   -6.2752  -16.2678 N   0  0  0  0  0  0  0  0  0  0  0  0
   19.5567   -4.0848  -16.2437 C   0  0  0  0  0  0  0  0  0  0  0  0
   19.0000   -4.3395  -15.0033 O   0  0  0  0  0  0  0  0  0  0  0  0
   19.3316   -2.9150  -16.6994 O   0  0  0  0  0  0  0  0  0  0  0  0
  2  1  1  6
  2  3  1  0
  3  4  1  0
  4  5  2  0
  5  6  1  0
  7  6  2  0
  8  7  1  0
  9  4  1  0
  9  8  2  0
 10 12  1  0
 10  2  1  0
 11 10  2  0
 13 12  1  0
 13 14  1  1
 15 16  2  0
 15 14  1  0
 17 16  1  0
 18 17  2  0
 19 18  1  0
 19 20  2  0
 20 15  1  0
 21 28  1  0
 21 13  1  0
 22 21  2  0
 24 23  1  0
 24 25  2  0
 27 26  1  6
 26 24  1  0
 27 28  1  0
 27 29  1  0
 29 30  1  0
 31 29  2  0
M  END
$$$$
