HTG.pdb
     RDKit          3D

 22 22  0  0  1  0  0  0  0  0999 V2000
    9.1919  -15.0467   14.4884 N   0  0  0  0  0  0  0  0  0  0  0  0
    9.6404  -15.8178   15.6282 C   0  0  1  0  0  0  0  0  0  0  0  0
   10.9213  -16.5661   15.3241 C   0  0  0  0  0  0  0  0  0  0  0  0
   10.7334  -17.5746   14.2632 C   0  0  0  0  0  0  0  0  0  0  0  0
    9.9459  -18.6881   14.3987 C   0  0  0  0  0  0  0  0  0  0  0  0
   10.0182  -19.3663   13.2377 N   0  0  0  0  0  0  0  0  0  0  0  0
   10.8180  -18.7256   12.3787 C   0  0  0  0  0  0  0  0  0  0  0  0
   11.2502  -17.6257   13.0239 N   0  0  0  0  0  0  0  0  0  0  0  0
    9.8121  -14.8982   16.7683 C   0  0  0  0  0  0  0  0  0  0  0  0
   10.4218  -13.8185   16.6026 O   0  0  0  0  0  0  0  0  0  0  0  0
    7.3440  -13.0662   18.6500 C   0  0  0  0  0  0  0  0  0  0  0  0
    8.0312  -13.9386   19.6716 C   0  0  1  0  0  0  0  0  0  0  0  0
    7.2775  -15.0448   20.0274 O   0  0  0  0  0  0  0  0  0  0  0  0
    9.4007  -14.3881   19.2117 C   0  0  2  0  0  0  0  0  0  0  0  0
    9.2838  -15.2524   18.0331 N   0  0  0  0  0  0  0  0  0  0  0  0
   10.1593  -15.0946   20.2812 C   0  0  0  0  0  0  0  0  0  0  0  0
   10.3521  -16.3590   20.2094 O   0  0  0  0  0  0  0  0  0  0  0  0
   10.7146  -14.4710   21.4233 N   0  0  0  0  0  0  0  0  0  0  0  0
   11.6393  -15.1948   22.3125 C   0  0  0  0  0  0  0  0  0  0  0  0
   10.9291  -16.0262   23.2761 C   0  0  0  0  0  0  0  0  0  0  0  0
   11.6183  -16.6985   24.2608 O   0  0  0  0  0  0  0  0  0  0  0  0
    9.6874  -16.1376   23.2186 O   0  0  0  0  0  0  0  0  0  0  0  0
  2  1  1  6
  2  9  1  0
  3  2  1  0
  3  4  1  0
  4  5  2  0
  5  6  1  0
  7  6  1  0
  8  4  1  0
  8  7  2  0
  9 10  2  0
 12 11  1  6
 12 13  1  0
 12 14  1  0
 14 16  1  0
 14 15  1  6
 15  9  1  0
 16 17  2  0
 16 18  1  0
 18 19  1  0
 19 20  1  0
 20 22  2  0
 20 21  1  0
M  END
$$$$
