HTG.pdb
     RDKit          3D

 22 22  0  0  1  0  0  0  0  0999 V2000
    9.9692  -14.3827   21.4302 N   0  0  0  0  0  0  0  0  0  0  0  0
    8.6619  -13.9973   21.9173 C   0  0  1  0  0  0  0  0  0  0  0  0
    7.5572  -14.7282   21.1833 C   0  0  0  0  0  0  0  0  0  0  0  0
    7.4841  -14.3358   19.7626 C   0  0  0  0  0  0  0  0  0  0  0  0
    8.3533  -13.4597   19.1665 C   0  0  0  0  0  0  0  0  0  0  0  0
    7.9789  -13.3475   17.8779 N   0  0  0  0  0  0  0  0  0  0  0  0
    6.9111  -14.1163   17.6396 C   0  0  0  0  0  0  0  0  0  0  0  0
    6.6187  -14.7178   18.8082 N   0  0  0  0  0  0  0  0  0  0  0  0
    8.6128  -14.2639   23.3669 C   0  0  0  0  0  0  0  0  0  0  0  0
    9.5318  -14.9212   23.9039 O   0  0  0  0  0  0  0  0  0  0  0  0
    6.2907  -13.0413   27.6418 C   0  0  0  0  0  0  0  0  0  0  0  0
    6.4185  -12.9356   26.1420 C   0  0  1  0  0  0  0  0  0  0  0  0
    6.6798  -11.6443   25.7148 O   0  0  0  0  0  0  0  0  0  0  0  0
    7.4706  -13.8722   25.5899 C   0  0  2  0  0  0  0  0  0  0  0  0
    7.5256  -13.7714   24.1281 N   0  0  0  0  0  0  0  0  0  0  0  0
    7.2409  -15.2886   25.9888 C   0  0  0  0  0  0  0  0  0  0  0  0
    6.2077  -15.9190   25.5691 O   0  0  0  0  0  0  0  0  0  0  0  0
    8.0978  -16.0402   26.8271 N   0  0  0  0  0  0  0  0  0  0  0  0
    7.7515  -17.4120   27.2368 C   0  0  0  0  0  0  0  0  0  0  0  0
    8.7427  -17.9759   28.1441 C   0  0  0  0  0  0  0  0  0  0  0  0
    8.5557  -19.2242   28.6949 O   0  0  0  0  0  0  0  0  0  0  0  0
    9.7727  -17.3325   28.4317 O   0  0  0  0  0  0  0  0  0  0  0  0
  2  1  1  6
  2  9  1  0
  3  2  1  0
  3  4  1  0
  4  5  2  0
  5  6  1  0
  7  6  1  0
  8  4  1  0
  8  7  2  0
  9 10  2  0
 12 11  1  1
 12 13  1  0
 12 14  1  0
 14 16  1  0
 14 15  1  6
 15  9  1  0
 16 17  2  0
 16 18  1  0
 18 19  1  0
 19 20  1  0
 20 22  2  0
 20 21  1  0
M  END
$$$$
