HTG.pdb
     RDKit          3D

 22 22  0  0  1  0  0  0  0  0999 V2000
    7.5724  -17.8545   16.6964 N   0  0  0  0  0  0  0  0  0  0  0  0
    7.2599  -17.7257   18.1037 C   0  0  1  0  0  0  0  0  0  0  0  0
    7.2480  -19.0725   18.7962 C   0  0  0  0  0  0  0  0  0  0  0  0
    6.0413  -19.8542   18.4635 C   0  0  0  0  0  0  0  0  0  0  0  0
    4.9192  -19.3185   17.8872 C   0  0  0  0  0  0  0  0  0  0  0  0
    4.0357  -20.3233   17.7351 N   0  0  0  0  0  0  0  0  0  0  0  0
    4.5558  -21.4674   18.1916 C   0  0  0  0  0  0  0  0  0  0  0  0
    5.7896  -21.1628   18.6364 N   0  0  0  0  0  0  0  0  0  0  0  0
    8.2468  -16.8156   18.7139 C   0  0  0  0  0  0  0  0  0  0  0  0
    9.4257  -16.8149   18.2953 O   0  0  0  0  0  0  0  0  0  0  0  0
    7.8015  -13.0917   19.0995 C   0  0  0  0  0  0  0  0  0  0  0  0
    8.1289  -13.6323   20.4697 C   0  0  1  0  0  0  0  0  0  0  0  0
    7.0292  -13.6657   21.3109 O   0  0  0  0  0  0  0  0  0  0  0  0
    8.7580  -15.0069   20.4072 C   0  0  2  0  0  0  0  0  0  0  0  0
    7.8441  -15.9565   19.7645 N   0  0  0  0  0  0  0  0  0  0  0  0
    9.1516  -15.5169   21.7500 C   0  0  0  0  0  0  0  0  0  0  0  0
    8.2566  -15.8033   22.6206 O   0  0  0  0  0  0  0  0  0  0  0  0
   10.4848  -15.7259   22.1750 N   0  0  0  0  0  0  0  0  0  0  0  0
   10.7813  -16.2985   23.4993 C   0  0  0  0  0  0  0  0  0  0  0  0
   12.0403  -15.8004   24.0385 C   0  0  0  0  0  0  0  0  0  0  0  0
   12.4301  -16.1268   25.3184 O   0  0  0  0  0  0  0  0  0  0  0  0
   12.7791  -15.0720   23.3450 O   0  0  0  0  0  0  0  0  0  0  0  0
  2  1  1  6
  2  9  1  0
  3  2  1  0
  3  4  1  0
  4  5  2  0
  5  6  1  0
  7  6  1  0
  8  4  1  0
  8  7  2  0
  9 10  2  0
 12 11  1  6
 12 13  1  0
 12 14  1  0
 14 16  1  0
 14 15  1  1
 15  9  1  0
 16 17  2  0
 16 18  1  0
 18 19  1  0
 19 20  1  0
 20 22  2  0
 20 21  1  0
M  END
$$$$
