HTG.pdb
     RDKit          3D

 22 22  0  0  1  0  0  0  0  0999 V2000
   10.0131  -17.0977   15.0489 N   0  0  0  0  0  0  0  0  0  0  0  0
    9.2196  -17.2752   16.2462 C   0  0  1  0  0  0  0  0  0  0  0  0
    9.4049  -18.6575   16.8363 C   0  0  0  0  0  0  0  0  0  0  0  0
    8.9325  -19.7160   15.9228 C   0  0  0  0  0  0  0  0  0  0  0  0
    7.6476  -20.1924   15.9054 C   0  0  0  0  0  0  0  0  0  0  0  0
    7.5914  -21.1413   14.9517 N   0  0  0  0  0  0  0  0  0  0  0  0
    8.7870  -21.2808   14.3693 C   0  0  0  0  0  0  0  0  0  0  0  0
    9.6012  -20.3976   14.9773 N   0  0  0  0  0  0  0  0  0  0  0  0
    9.5967  -16.2241   17.2094 C   0  0  0  0  0  0  0  0  0  0  0  0
   10.8041  -15.9365   17.3664 O   0  0  0  0  0  0  0  0  0  0  0  0
    8.0047  -12.5753   20.2157 C   0  0  0  0  0  0  0  0  0  0  0  0
    7.7934  -13.5392   19.0741 C   0  0  1  0  0  0  0  0  0  0  0  0
    7.6811  -12.9040   17.8485 O   0  0  0  0  0  0  0  0  0  0  0  0
    8.8821  -14.5873   19.0011 C   0  0  2  0  0  0  0  0  0  0  0  0
    8.5856  -15.5566   17.9417 N   0  0  0  0  0  0  0  0  0  0  0  0
    9.0778  -15.2991   20.2947 C   0  0  0  0  0  0  0  0  0  0  0  0
    8.1283  -15.9952   20.7997 O   0  0  0  0  0  0  0  0  0  0  0  0
   10.2711  -15.2788   21.0546 N   0  0  0  0  0  0  0  0  0  0  0  0
   10.3820  -16.0269   22.3186 C   0  0  0  0  0  0  0  0  0  0  0  0
   11.6965  -15.8730   22.9288 C   0  0  0  0  0  0  0  0  0  0  0  0
   11.9447  -16.3711   24.1886 O   0  0  0  0  0  0  0  0  0  0  0  0
   12.6120  -15.2874   22.3153 O   0  0  0  0  0  0  0  0  0  0  0  0
  2  1  1  6
  2  9  1  0
  3  2  1  0
  3  4  1  0
  4  5  2  0
  5  6  1  0
  7  6  1  0
  8  4  1  0
  8  7  2  0
  9 10  2  0
 12 11  1  1
 12 13  1  0
 12 14  1  0
 14 16  1  0
 14 15  1  6
 15  9  1  0
 16 17  2  0
 16 18  1  0
 18 19  1  0
 19 20  1  0
 20 22  2  0
 20 21  1  0
M  END
$$$$
