HTG.pdb
     RDKit          3D

 22 22  0  0  1  0  0  0  0  0999 V2000
    8.4057  -13.3002   16.8822 N   0  0  0  0  0  0  0  0  0  0  0  0
    9.0145  -14.4411   17.5321 C   0  0  1  0  0  0  0  0  0  0  0  0
   10.2767  -14.8792   16.8191 C   0  0  0  0  0  0  0  0  0  0  0  0
    9.9840  -15.5290   15.5269 C   0  0  0  0  0  0  0  0  0  0  0  0
    8.7263  -15.6346   14.9926 C   0  0  0  0  0  0  0  0  0  0  0  0
    8.8496  -16.2811   13.8179 N   0  0  0  0  0  0  0  0  0  0  0  0
   10.1317  -16.5861   13.5919 C   0  0  0  0  0  0  0  0  0  0  0  0
   10.8171  -16.1171   14.6517 N   0  0  0  0  0  0  0  0  0  0  0  0
    9.2870  -14.0810   18.9360 C   0  0  0  0  0  0  0  0  0  0  0  0
    9.8054  -12.9732   19.1985 O   0  0  0  0  0  0  0  0  0  0  0  0
    6.9207  -13.6319   21.5992 C   0  0  0  0  0  0  0  0  0  0  0  0
    7.8604  -14.6870   22.1288 C   0  0  1  0  0  0  0  0  0  0  0  0
    7.3055  -15.9559   22.1159 O   0  0  0  0  0  0  0  0  0  0  0  0
    9.1779  -14.7051   21.3852 C   0  0  2  0  0  0  0  0  0  0  0  0
    8.9572  -14.9956   19.9650 N   0  0  0  0  0  0  0  0  0  0  0  0
   10.1429  -15.6857   21.9558 C   0  0  0  0  0  0  0  0  0  0  0  0
   10.5425  -16.6816   21.2562 O   0  0  0  0  0  0  0  0  0  0  0  0
   10.6868  -15.6172   23.2602 N   0  0  0  0  0  0  0  0  0  0  0  0
   11.6651  -16.6129   23.7306 C   0  0  0  0  0  0  0  0  0  0  0  0
   11.3853  -17.0497   25.0926 C   0  0  0  0  0  0  0  0  0  0  0  0
   12.2422  -17.9121   25.7396 O   0  0  0  0  0  0  0  0  0  0  0  0
   10.3650  -16.6462   25.6873 O   0  0  0  0  0  0  0  0  0  0  0  0
  2  1  1  6
  2  9  1  0
  3  2  1  0
  3  4  1  0
  4  5  2  0
  5  6  1  0
  7  6  1  0
  8  4  1  0
  8  7  2  0
  9 10  2  0
 12 11  1  6
 12 13  1  0
 12 14  1  0
 14 16  1  0
 14 15  1  6
 15  9  1  0
 16 17  2  0
 16 18  1  0
 18 19  1  0
 19 20  1  0
 20 22  2  0
 20 21  1  0
M  END
$$$$
