HTG.pdb
     RDKit          3D

 22 22  0  0  1  0  0  0  0  0999 V2000
    8.2566  -17.2142   20.4733 N   0  0  0  0  0  0  0  0  0  0  0  0
    8.9767  -16.3638   21.3969 C   0  0  1  0  0  0  0  0  0  0  0  0
    8.1405  -15.1767   21.8272 C   0  0  0  0  0  0  0  0  0  0  0  0
    8.0329  -14.1615   20.7616 C   0  0  0  0  0  0  0  0  0  0  0  0
    8.6181  -14.2837   19.5283 C   0  0  0  0  0  0  0  0  0  0  0  0
    8.3045  -13.1752   18.8311 N   0  0  0  0  0  0  0  0  0  0  0  0
    7.5470  -12.3619   19.5746 C   0  0  0  0  0  0  0  0  0  0  0  0
    7.3886  -12.9822   20.7591 N   0  0  0  0  0  0  0  0  0  0  0  0
    9.3855  -17.1817   22.5540 C   0  0  0  0  0  0  0  0  0  0  0  0
    8.5561  -17.9504   23.0890 O   0  0  0  0  0  0  0  0  0  0  0  0
   13.1763  -19.2623   24.9315 C   0  0  0  0  0  0  0  0  0  0  0  0
   12.5731  -18.4807   23.7904 C   0  0  1  0  0  0  0  0  0  0  0  0
   12.4768  -19.2212   22.6239 O   0  0  0  0  0  0  0  0  0  0  0  0
   11.2153  -17.9125   24.1406 C   0  0  2  0  0  0  0  0  0  0  0  0
   10.7110  -17.0838   23.0412 N   0  0  0  0  0  0  0  0  0  0  0  0
   11.2356  -17.1192   25.4010 C   0  0  0  0  0  0  0  0  0  0  0  0
   11.8038  -15.9715   25.4334 O   0  0  0  0  0  0  0  0  0  0  0  0
   10.6580  -17.5329   26.6245 N   0  0  0  0  0  0  0  0  0  0  0  0
   10.7622  -16.7013   27.8358 C   0  0  0  0  0  0  0  0  0  0  0  0
   10.9184  -17.5088   29.0389 C   0  0  0  0  0  0  0  0  0  0  0  0
   11.0764  -16.9080   30.2680 O   0  0  0  0  0  0  0  0  0  0  0  0
   10.9105  -18.7547   28.9676 O   0  0  0  0  0  0  0  0  0  0  0  0
  2  1  1  6
  2  9  1  0
  3  2  1  0
  3  4  1  0
  4  5  2  0
  5  6  1  0
  7  6  1  0
  8  4  1  0
  8  7  2  0
  9 10  2  0
 12 11  1  1
 12 13  1  0
 12 14  1  0
 14 16  1  0
 14 15  1  6
 15  9  1  0
 16 17  2  0
 16 18  1  0
 18 19  1  0
 19 20  1  0
 20 22  2  0
 20 21  1  0
M  END
$$$$
