HTG.pdb
     RDKit          3D

 22 22  0  0  1  0  0  0  0  0999 V2000
   11.5889  -14.5776   10.2582 N   0  0  0  0  0  0  0  0  0  0  0  0
   12.7589  -14.4397   11.0990 C   0  0  1  0  0  0  0  0  0  0  0  0
   12.9913  -12.9970   11.4964 C   0  0  0  0  0  0  0  0  0  0  0  0
   13.2952  -12.1449   10.3305 C   0  0  0  0  0  0  0  0  0  0  0  0
   14.5598  -11.7444    9.9861 C   0  0  0  0  0  0  0  0  0  0  0  0
   14.4460  -10.9863    8.8791 N   0  0  0  0  0  0  0  0  0  0  0  0
   13.1630  -10.8937    8.5137 C   0  0  0  0  0  0  0  0  0  0  0  0
   12.4676  -11.6115    9.4160 N   0  0  0  0  0  0  0  0  0  0  0  0
   12.5807  -15.3017   12.2822 C   0  0  0  0  0  0  0  0  0  0  0  0
   11.4752  -15.3241   12.8673 O   0  0  0  0  0  0  0  0  0  0  0  0
   12.5550  -18.8493   12.4877 C   0  0  0  0  0  0  0  0  0  0  0  0
   13.6841  -18.4437   13.4030 C   0  0  1  0  0  0  0  0  0  0  0  0
   14.9320  -18.6300   12.8318 O   0  0  0  0  0  0  0  0  0  0  0  0
   13.5532  -17.0115   13.8730 C   0  0  2  0  0  0  0  0  0  0  0  0
   13.6644  -16.0907   12.7373 N   0  0  0  0  0  0  0  0  0  0  0  0
   14.5612  -16.6560   14.9103 C   0  0  0  0  0  0  0  0  0  0  0  0
   15.5633  -15.9162   14.6112 O   0  0  0  0  0  0  0  0  0  0  0  0
   14.5136  -17.0779   16.2599 N   0  0  0  0  0  0  0  0  0  0  0  0
   15.5341  -16.6447   17.2297 C   0  0  0  0  0  0  0  0  0  0  0  0
   16.6944  -17.5266   17.2297 C   0  0  0  0  0  0  0  0  0  0  0  0
   17.7268  -17.3230   18.1181 O   0  0  0  0  0  0  0  0  0  0  0  0
   16.7644  -18.4767   16.4235 O   0  0  0  0  0  0  0  0  0  0  0  0
  2  1  1  6
  2  9  1  0
  3  2  1  0
  3  4  1  0
  4  5  2  0
  5  6  1  0
  7  6  1  0
  8  4  1  0
  8  7  2  0
  9 10  2  0
 12 11  1  6
 12 13  1  0
 12 14  1  0
 14 16  1  0
 14 15  1  6
 15  9  1  0
 16 17  2  0
 16 18  1  0
 18 19  1  0
 19 20  1  0
 20 22  2  0
 20 21  1  0
M  END
$$$$
