HTG.pdb
     RDKit          3D

 22 22  0  0  1  0  0  0  0  0999 V2000
    7.5809  -17.2628   19.7993 N   0  0  0  0  0  0  0  0  0  0  0  0
    8.6962  -16.9287   20.6592 C   0  0  1  0  0  0  0  0  0  0  0  0
    8.4182  -15.6809   21.4710 C   0  0  0  0  0  0  0  0  0  0  0  0
    8.1986  -14.5008   20.6125 C   0  0  0  0  0  0  0  0  0  0  0  0
    8.2666  -14.5286   19.2439 C   0  0  0  0  0  0  0  0  0  0  0  0
    8.0126  -13.2792   18.8107 N   0  0  0  0  0  0  0  0  0  0  0  0
    7.7880  -12.4679   19.8496 C   0  0  0  0  0  0  0  0  0  0  0  0
    7.9059  -13.2337   20.9508 N   0  0  0  0  0  0  0  0  0  0  0  0
    8.9704  -18.0870   21.5297 C   0  0  0  0  0  0  0  0  0  0  0  0
    8.0581  -18.9097   21.7664 O   0  0  0  0  0  0  0  0  0  0  0  0
   10.5629  -20.9851   20.8980 C   0  0  0  0  0  0  0  0  0  0  0  0
   11.4165  -20.4041   21.9984 C   0  0  1  0  0  0  0  0  0  0  0  0
   12.5644  -19.7929   21.5220 O   0  0  0  0  0  0  0  0  0  0  0  0
   10.6485  -19.4297   22.8643 C   0  0  2  0  0  0  0  0  0  0  0  0
   10.2628  -18.2497   22.0842 N   0  0  0  0  0  0  0  0  0  0  0  0
   11.4159  -19.0082   24.0692 C   0  0  0  0  0  0  0  0  0  0  0  0
   12.3134  -18.0987   23.9785 O   0  0  0  0  0  0  0  0  0  0  0  0
   11.2380  -19.5426   25.3671 N   0  0  0  0  0  0  0  0  0  0  0  0
   12.0096  -19.0322   26.5133 C   0  0  0  0  0  0  0  0  0  0  0  0
   12.5354  -20.1115   27.3396 C   0  0  0  0  0  0  0  0  0  0  0  0
   13.3069  -19.8323   28.4457 O   0  0  0  0  0  0  0  0  0  0  0  0
   12.2916  -21.3014   27.0529 O   0  0  0  0  0  0  0  0  0  0  0  0
  2  1  1  1
  2  9  1  0
  3  2  1  0
  3  4  1  0
  4  5  2  0
  5  6  1  0
  7  6  1  0
  8  4  1  0
  8  7  2  0
  9 10  2  0
 12 11  1  6
 12 13  1  0
 12 14  1  0
 14 16  1  0
 14 15  1  6
 15  9  1  0
 16 17  2  0
 16 18  1  0
 18 19  1  0
 19 20  1  0
 20 22  2  0
 20 21  1  0
M  END
$$$$
