HTG.pdb
     RDKit          3D

 22 22  0  0  1  0  0  0  0  0999 V2000
   15.0528  -13.9248   16.6349 N   0  0  0  0  0  0  0  0  0  0  0  0
   14.3811  -15.0781   17.1948 C   0  0  1  0  0  0  0  0  0  0  0  0
   15.3626  -16.1753   17.5499 C   0  0  0  0  0  0  0  0  0  0  0  0
   16.0009  -16.7546   16.3521 C   0  0  0  0  0  0  0  0  0  0  0  0
   15.6794  -16.3993   15.0680 C   0  0  0  0  0  0  0  0  0  0  0  0
   16.4602  -17.1296   14.2493 N   0  0  0  0  0  0  0  0  0  0  0  0
   17.2585  -17.9286   14.9651 C   0  0  0  0  0  0  0  0  0  0  0  0
   16.9643  -17.6865   16.2565 N   0  0  0  0  0  0  0  0  0  0  0  0
   13.6158  -14.6377   18.3760 C   0  0  0  0  0  0  0  0  0  0  0  0
   14.1105  -13.7872   19.1486 O   0  0  0  0  0  0  0  0  0  0  0  0
    9.9820  -13.3550   18.5203 C   0  0  0  0  0  0  0  0  0  0  0  0
   10.1029  -14.5682   19.4094 C   0  0  1  0  0  0  0  0  0  0  0  0
    9.5471  -15.7047   18.8459 O   0  0  0  0  0  0  0  0  0  0  0  0
   11.5368  -14.8493   19.8018 C   0  0  2  0  0  0  0  0  0  0  0  0
   12.3326  -15.1849   18.6168 N   0  0  0  0  0  0  0  0  0  0  0  0
   11.6502  -15.9397   20.8100 C   0  0  0  0  0  0  0  0  0  0  0  0
   12.2352  -17.0392   20.5101 O   0  0  0  0  0  0  0  0  0  0  0  0
   11.1495  -15.8722   22.1316 N   0  0  0  0  0  0  0  0  0  0  0  0
   11.2965  -17.0058   23.0606 C   0  0  0  0  0  0  0  0  0  0  0  0
   10.6719  -16.7377   24.3497 C   0  0  0  0  0  0  0  0  0  0  0  0
   10.6559  -17.7024   25.3325 O   0  0  0  0  0  0  0  0  0  0  0  0
   10.1443  -15.6297   24.5767 O   0  0  0  0  0  0  0  0  0  0  0  0
  2  1  1  1
  2  9  1  0
  3  2  1  0
  3  4  1  0
  4  5  2  0
  5  6  1  0
  7  6  1  0
  8  4  1  0
  8  7  2  0
  9 10  2  0
 12 11  1  6
 12 13  1  0
 12 14  1  0
 14 16  1  0
 14 15  1  6
 15  9  1  0
 16 17  2  0
 16 18  1  0
 18 19  1  0
 19 20  1  0
 20 22  2  0
 20 21  1  0
M  END
$$$$
