HTG.pdb
     RDKit          3D

 22 22  0  0  1  0  0  0  0  0999 V2000
   10.0085  -17.9658   11.4481 N   0  0  0  0  0  0  0  0  0  0  0  0
   10.6083  -19.2150   11.8658 C   0  0  1  0  0  0  0  0  0  0  0  0
   11.9288  -19.4593   11.1659 C   0  0  0  0  0  0  0  0  0  0  0  0
   11.7410  -19.9835    9.7992 C   0  0  0  0  0  0  0  0  0  0  0  0
   10.6315  -20.6783    9.3934 C   0  0  0  0  0  0  0  0  0  0  0  0
   10.8142  -20.9910    8.0965 N   0  0  0  0  0  0  0  0  0  0  0  0
   11.9917  -20.5220    7.6706 C   0  0  0  0  0  0  0  0  0  0  0  0
   12.5500  -19.9048    8.7291 N   0  0  0  0  0  0  0  0  0  0  0  0
   10.7743  -19.1798   13.3307 C   0  0  0  0  0  0  0  0  0  0  0  0
   11.2116  -18.1426   13.8765 O   0  0  0  0  0  0  0  0  0  0  0  0
    8.0194  -20.7015   15.7943 C   0  0  0  0  0  0  0  0  0  0  0  0
    9.3974  -21.2240   16.1182 C   0  0  1  0  0  0  0  0  0  0  0  0
    9.5935  -22.5255   15.6873 O   0  0  0  0  0  0  0  0  0  0  0  0
   10.4906  -20.3383   15.5617 C   0  0  2  0  0  0  0  0  0  0  0  0
   10.4358  -20.3213   14.0966 N   0  0  0  0  0  0  0  0  0  0  0  0
   11.8481  -20.7557   16.0102 C   0  0  0  0  0  0  0  0  0  0  0  0
   12.5773  -21.4960   15.2609 O   0  0  0  0  0  0  0  0  0  0  0  0
   12.4371  -20.3938   17.2446 N   0  0  0  0  0  0  0  0  0  0  0  0
   13.7769  -20.8773   17.6202 C   0  0  0  0  0  0  0  0  0  0  0  0
   14.2298  -20.3023   18.8804 C   0  0  0  0  0  0  0  0  0  0  0  0
   15.4403  -20.6731   19.4225 O   0  0  0  0  0  0  0  0  0  0  0  0
   13.5244  -19.4668   19.4820 O   0  0  0  0  0  0  0  0  0  0  0  0
  2  1  1  6
  2  9  1  0
  3  2  1  0
  3  4  1  0
  4  5  2  0
  5  6  1  0
  7  6  1  0
  8  4  1  0
  8  7  2  0
  9 10  2  0
 12 11  1  6
 12 13  1  0
 12 14  1  0
 14 16  1  0
 14 15  1  6
 15  9  1  0
 16 17  2  0
 16 18  1  0
 18 19  1  0
 19 20  1  0
 20 22  2  0
 20 21  1  0
M  END
$$$$
