HTG.pdb
     RDKit          3D

 22 22  0  0  1  0  0  0  0  0999 V2000
   10.3606  -15.9569   14.2810 N   0  0  0  0  0  0  0  0  0  0  0  0
   10.0603  -16.6014   15.5416 C   0  0  1  0  0  0  0  0  0  0  0  0
   11.0263  -17.7308   15.8327 C   0  0  0  0  0  0  0  0  0  0  0  0
   10.9402  -18.8051   14.8247 C   0  0  0  0  0  0  0  0  0  0  0  0
    9.7640  -19.3812   14.4210 C   0  0  0  0  0  0  0  0  0  0  0  0
   10.0764  -20.3126   13.5001 N   0  0  0  0  0  0  0  0  0  0  0  0
   11.3993  -20.3458   13.3084 C   0  0  0  0  0  0  0  0  0  0  0  0
   11.9168  -19.4130   14.1300 N   0  0  0  0  0  0  0  0  0  0  0  0
   10.0939  -15.5777   16.6026 C   0  0  0  0  0  0  0  0  0  0  0  0
   10.9903  -14.7051   16.5887 O   0  0  0  0  0  0  0  0  0  0  0  0
    7.7591  -12.9133   19.9338 C   0  0  0  0  0  0  0  0  0  0  0  0
    7.8659  -13.8038   18.7203 C   0  0  1  0  0  0  0  0  0  0  0  0
    7.8146  -13.0980   17.5298 O   0  0  0  0  0  0  0  0  0  0  0  0
    9.1138  -14.6590   18.7462 C   0  0  2  0  0  0  0  0  0  0  0  0
    9.1105  -15.5988   17.6207 N   0  0  0  0  0  0  0  0  0  0  0  0
    9.2683  -15.4059   20.0255 C   0  0  0  0  0  0  0  0  0  0  0  0
    8.3634  -16.2283   20.4073 O   0  0  0  0  0  0  0  0  0  0  0  0
   10.3739  -15.2878   20.9005 N   0  0  0  0  0  0  0  0  0  0  0  0
   10.4535  -16.0817   22.1386 C   0  0  0  0  0  0  0  0  0  0  0  0
   11.6819  -15.8173   22.8769 C   0  0  0  0  0  0  0  0  0  0  0  0
   11.8795  -16.3668   24.1242 O   0  0  0  0  0  0  0  0  0  0  0  0
   12.5686  -15.0892   22.3858 O   0  0  0  0  0  0  0  0  0  0  0  0
  2  1  1  6
  2  9  1  0
  3  2  1  0
  3  4  1  0
  4  5  2  0
  5  6  1  0
  7  6  1  0
  8  4  1  0
  8  7  2  0
  9 10  2  0
 12 11  1  1
 12 13  1  0
 12 14  1  0
 14 16  1  0
 14 15  1  6
 15  9  1  0
 16 17  2  0
 16 18  1  0
 18 19  1  0
 19 20  1  0
 20 22  2  0
 20 21  1  0
M  END
$$$$
