HTG.pdb
     RDKit          3D

 22 22  0  0  1  0  0  0  0  0999 V2000
   11.4999  -15.2702   15.9547 N   0  0  0  0  0  0  0  0  0  0  0  0
   11.0854  -15.9049   17.1877 C   0  0  1  0  0  0  0  0  0  0  0  0
   12.1197  -16.8967   17.6776 C   0  0  0  0  0  0  0  0  0  0  0  0
   12.4272  -17.9216   16.6613 C   0  0  0  0  0  0  0  0  0  0  0  0
   11.6560  -19.0326   16.4393 C   0  0  0  0  0  0  0  0  0  0  0  0
   12.2433  -19.7289   15.4476 N   0  0  0  0  0  0  0  0  0  0  0  0
   13.3509  -19.1020   15.0374 C   0  0  0  0  0  0  0  0  0  0  0  0
   13.4506  -17.9922   15.7932 N   0  0  0  0  0  0  0  0  0  0  0  0
   10.8351  -14.8504   18.1877 C   0  0  0  0  0  0  0  0  0  0  0  0
   11.6825  -13.9452   18.3540 O   0  0  0  0  0  0  0  0  0  0  0  0
    7.4758  -12.6741   18.6936 C   0  0  0  0  0  0  0  0  0  0  0  0
    7.8280  -13.5314   19.8844 C   0  0  1  0  0  0  0  0  0  0  0  0
    7.0952  -14.7055   19.9365 O   0  0  0  0  0  0  0  0  0  0  0  0
    9.3048  -13.8556   19.9394 C   0  0  2  0  0  0  0  0  0  0  0  0
    9.6388  -14.8792   18.9442 N   0  0  0  0  0  0  0  0  0  0  0  0
    9.7413  -14.3052   21.2905 C   0  0  0  0  0  0  0  0  0  0  0  0
    9.5407  -13.5628   22.3150 O   0  0  0  0  0  0  0  0  0  0  0  0
   10.3869  -15.5345   21.5625 N   0  0  0  0  0  0  0  0  0  0  0  0
   10.8041  -15.8895   22.9299 C   0  0  0  0  0  0  0  0  0  0  0  0
   11.3283  -17.2473   23.0039 C   0  0  0  0  0  0  0  0  0  0  0  0
   11.7511  -17.7684   24.2066 O   0  0  0  0  0  0  0  0  0  0  0  0
   11.3994  -17.9527   21.9769 O   0  0  0  0  0  0  0  0  0  0  0  0
  2  1  1  6
  2  9  1  0
  3  2  1  0
  3  4  1  0
  4  5  2  0
  5  6  1  0
  7  6  1  0
  8  4  1  0
  8  7  2  0
  9 10  2  0
 12 11  1  6
 12 13  1  0
 12 14  1  0
 14 16  1  0
 14 15  1  6
 15  9  1  0
 16 17  2  0
 16 18  1  0
 18 19  1  0
 19 20  1  0
 20 22  2  0
 20 21  1  0
M  END
$$$$
