HTG.pdb
     RDKit          3D

 22 22  0  0  1  0  0  0  0  0999 V2000
    9.4234  -16.6378   19.7222 N   0  0  0  0  0  0  0  0  0  0  0  0
    9.2204  -15.8888   20.9439 C   0  0  1  0  0  0  0  0  0  0  0  0
    7.9120  -15.1267   20.9181 C   0  0  0  0  0  0  0  0  0  0  0  0
    7.7950  -14.2701   19.7220 C   0  0  0  0  0  0  0  0  0  0  0  0
    8.3842  -13.0383   19.6042 C   0  0  0  0  0  0  0  0  0  0  0  0
    8.0595  -12.5603   18.3880 N   0  0  0  0  0  0  0  0  0  0  0  0
    7.2912  -13.4400   17.7370 C   0  0  0  0  0  0  0  0  0  0  0  0
    7.1374  -14.4863   18.5703 N   0  0  0  0  0  0  0  0  0  0  0  0
    9.2718  -16.8315   22.0767 C   0  0  0  0  0  0  0  0  0  0  0  0
    8.2213  -17.3928   22.4594 O   0  0  0  0  0  0  0  0  0  0  0  0
   12.6633  -18.9589   22.4246 C   0  0  0  0  0  0  0  0  0  0  0  0
   11.3790  -19.3356   23.1215 C   0  0  1  0  0  0  0  0  0  0  0  0
   11.5606  -20.3017   24.0971 O   0  0  0  0  0  0  0  0  0  0  0  0
   10.6814  -18.1356   23.7235 C   0  0  2  0  0  0  0  0  0  0  0  0
   10.5101  -17.0865   22.7136 N   0  0  0  0  0  0  0  0  0  0  0  0
   11.4057  -17.5858   24.9031 C   0  0  0  0  0  0  0  0  0  0  0  0
   12.1912  -16.5827   24.7695 O   0  0  0  0  0  0  0  0  0  0  0  0
   11.3025  -18.0905   26.2208 N   0  0  0  0  0  0  0  0  0  0  0  0
   12.0659  -17.4903   27.3283 C   0  0  0  0  0  0  0  0  0  0  0  0
   11.7655  -18.1267   28.6045 C   0  0  0  0  0  0  0  0  0  0  0  0
   12.4421  -17.7576   29.7458 O   0  0  0  0  0  0  0  0  0  0  0  0
   10.8907  -19.0139   28.6763 O   0  0  0  0  0  0  0  0  0  0  0  0
  2  1  1  6
  2  9  1  0
  3  2  1  0
  3  4  1  0
  4  5  2  0
  5  6  1  0
  7  6  1  0
  8  4  1  0
  8  7  2  0
  9 10  2  0
 12 11  1  1
 12 13  1  0
 12 14  1  0
 14 16  1  0
 14 15  1  6
 15  9  1  0
 16 17  2  0
 16 18  1  0
 18 19  1  0
 19 20  1  0
 20 22  2  0
 20 21  1  0
M  END
$$$$
