PPL.pdb
     RDKit          3D

 23 24  0  0  1  0  0  0  0  0999 V2000
   25.9007  -18.6759  -15.9947 N   0  0  0  0  0  0  0  0  0  0  0  0
   26.4055  -17.4348  -16.6235 C   0  0  0  0  0  0  0  0  0  0  0  0
   26.6065  -16.5784  -15.3778 C   0  0  0  0  0  0  0  0  0  0  0  0
   26.9921  -17.5949  -14.2982 C   0  0  0  0  0  0  0  0  0  0  0  0
   26.9538  -18.9122  -15.0550 C   0  0  1  0  0  0  0  0  0  0  0  0
   26.8434  -20.0829  -14.1998 C   0  0  0  0  0  0  0  0  0  0  0  0
   25.8523  -20.9030  -14.3730 O   0  0  0  0  0  0  0  0  0  0  0  0
   27.7635  -20.3767  -13.1835 N   0  0  0  0  0  0  0  0  0  0  0  0
   29.0221  -19.6125  -13.0062 C   0  0  0  0  0  0  0  0  0  0  0  0
   29.9006  -20.4382  -12.1224 C   0  0  0  0  0  0  0  0  0  0  0  0
   29.2241  -21.7674  -12.0327 C   0  0  0  0  0  0  0  0  0  0  0  0
   27.7532  -21.3718  -12.1695 C   0  0  1  0  0  0  0  0  0  0  0  0
   27.2755  -20.7837  -10.8652 C   0  0  0  0  0  0  0  0  0  0  0  0
   27.6646  -19.6247  -10.5834 O   0  0  0  0  0  0  0  0  0  0  0  0
   27.2774  -21.1797   -6.8637 C   0  0  0  0  0  0  0  0  0  0  0  0
   27.3938  -19.7566   -7.4361 C   0  0  2  0  0  0  0  0  0  0  0  0
   27.3268  -18.7935   -6.2871 C   0  0  0  0  0  0  0  0  0  0  0  0
   26.3116  -19.6191   -8.4373 C   0  0  0  0  0  0  0  0  0  0  0  0
   25.6854  -20.8758   -8.9377 C   0  0  2  0  0  0  0  0  0  0  0  0
   26.4241  -21.5014   -9.9894 N   0  0  0  0  0  0  0  0  0  0  0  0
   24.2494  -20.7397   -9.2885 C   0  0  0  0  0  0  0  0  0  0  0  0
   23.8461  -20.0566  -10.2635 O   0  0  0  0  0  0  0  0  0  0  0  0
   23.2609  -21.3794   -8.5327 O   0  0  0  0  0  0  0  0  0  0  0  0
  1  5  1  0
  1  2  1  0
  2  3  1  0
  4  3  1  0
  5  6  1  1
  5  4  1  0
  6  7  2  0
  6  8  1  0
  8  9  1  0
 10  9  1  0
 11 10  1  0
 11 12  1  0
 12  8  1  0
 13 20  1  0
 12 13  1  1
 14 13  2  0
 16 15  1  1
 17 16  1  0
 18 16  1  0
 19 20  1  0
 19 18  1  6
 21 19  1  0
 22 21  2  0
 23 21  1  0
M  END
$$$$
