PPL.pdb
     RDKit          3D

 23 24  0  0  1  0  0  0  0  0999 V2000
   23.0377  -21.7137  -12.8186 N   0  0  0  0  0  0  0  0  0  0  0  0
   22.3523  -20.7327  -13.6895 C   0  0  0  0  0  0  0  0  0  0  0  0
   22.3366  -19.5268  -12.7562 C   0  0  0  0  0  0  0  0  0  0  0  0
   23.6245  -19.6831  -11.9413 C   0  0  0  0  0  0  0  0  0  0  0  0
   24.2159  -20.9668  -12.4997 C   0  0  1  0  0  0  0  0  0  0  0  0
   25.1962  -21.5945  -11.6285 C   0  0  0  0  0  0  0  0  0  0  0  0
   24.8981  -22.7134  -11.0416 O   0  0  0  0  0  0  0  0  0  0  0  0
   26.4640  -21.0476  -11.3850 N   0  0  0  0  0  0  0  0  0  0  0  0
   26.9479  -19.8265  -12.0738 C   0  0  0  0  0  0  0  0  0  0  0  0
   28.4289  -19.7843  -11.8750 C   0  0  0  0  0  0  0  0  0  0  0  0
   28.7834  -21.1181  -11.3027 C   0  0  0  0  0  0  0  0  0  0  0  0
   27.5139  -21.4637  -10.5231 C   0  0  1  0  0  0  0  0  0  0  0  0
   27.4866  -20.6657   -9.2433 C   0  0  0  0  0  0  0  0  0  0  0  0
   27.0757  -19.4825   -9.3152 O   0  0  0  0  0  0  0  0  0  0  0  0
   27.1079  -20.0975   -3.8842 C   0  0  0  0  0  0  0  0  0  0  0  0
   28.5059  -20.5634   -4.3257 C   0  0  2  0  0  0  0  0  0  0  0  0
   29.3896  -19.3528   -4.4023 C   0  0  0  0  0  0  0  0  0  0  0  0
   28.3203  -21.2897   -5.6026 C   0  0  0  0  0  0  0  0  0  0  0  0
   27.8699  -20.4922   -6.7786 C   0  0  2  0  0  0  0  0  0  0  0  0
   27.9048  -21.2198   -8.0083 N   0  0  0  0  0  0  0  0  0  0  0  0
   28.5381  -19.1730   -6.9083 C   0  0  0  0  0  0  0  0  0  0  0  0
   28.1091  -18.1320   -6.3497 O   0  0  0  0  0  0  0  0  0  0  0  0
   29.6996  -19.0277   -7.6749 O   0  0  0  0  0  0  0  0  0  0  0  0
  1  5  1  0
  1  2  1  0
  2  3  1  0
  4  3  1  0
  5  6  1  1
  5  4  1  0
  6  7  2  0
  6  8  1  0
  8  9  1  0
 10  9  1  0
 11 10  1  0
 11 12  1  0
 12  8  1  0
 13 20  1  0
 12 13  1  1
 14 13  2  0
 16 15  1  6
 17 16  1  0
 18 16  1  0
 19 20  1  0
 19 18  1  1
 21 19  1  0
 22 21  2  0
 23 21  1  0
M  END
$$$$
