PPL.pdb
     RDKit          3D

 23 24  0  0  1  0  0  0  0  0999 V2000
   23.9394  -21.3720  -11.2446 N   0  0  0  0  0  0  0  0  0  0  0  0
   23.4835  -20.6866  -12.4747 C   0  0  0  0  0  0  0  0  0  0  0  0
   24.1597  -19.3335  -12.2811 C   0  0  0  0  0  0  0  0  0  0  0  0
   25.4513  -19.6781  -11.5325 C   0  0  0  0  0  0  0  0  0  0  0  0
   25.3521  -21.1868  -11.3783 C   0  0  1  0  0  0  0  0  0  0  0  0
   26.2048  -21.7321  -10.3346 C   0  0  0  0  0  0  0  0  0  0  0  0
   25.6767  -22.4686   -9.4052 O   0  0  0  0  0  0  0  0  0  0  0  0
   27.5865  -21.5011  -10.2778 N   0  0  0  0  0  0  0  0  0  0  0  0
   28.3481  -20.9530  -11.4262 C   0  0  0  0  0  0  0  0  0  0  0  0
   29.7920  -21.2206  -11.1461 C   0  0  0  0  0  0  0  0  0  0  0  0
   29.7964  -22.1452   -9.9725 C   0  0  0  0  0  0  0  0  0  0  0  0
   28.5291  -21.7100   -9.2354 C   0  0  1  0  0  0  0  0  0  0  0  0
   28.7992  -20.4163   -8.5082 C   0  0  0  0  0  0  0  0  0  0  0  0
   28.2840  -19.3751   -8.9821 O   0  0  0  0  0  0  0  0  0  0  0  0
   27.6303  -17.9737   -4.5782 C   0  0  0  0  0  0  0  0  0  0  0  0
   27.1945  -19.4488   -4.5530 C   0  0  2  0  0  0  0  0  0  0  0  0
   27.6800  -20.0483   -3.2657 C   0  0  0  0  0  0  0  0  0  0  0  0
   27.7421  -20.0673   -5.7820 C   0  0  0  0  0  0  0  0  0  0  0  0
   29.1607  -19.7614   -6.1224 C   0  0  2  0  0  0  0  0  0  0  0  0
   29.5988  -20.3690   -7.3397 N   0  0  0  0  0  0  0  0  0  0  0  0
   30.1173  -20.0112   -5.0152 C   0  0  0  0  0  0  0  0  0  0  0  0
   30.4171  -21.1658   -4.6188 O   0  0  0  0  0  0  0  0  0  0  0  0
   30.7402  -18.9497   -4.3498 O   0  0  0  0  0  0  0  0  0  0  0  0
  1  5  1  0
  1  2  1  0
  2  3  1  0
  4  3  1  0
  5  6  1  1
  5  4  1  0
  6  7  2  0
  6  8  1  0
  8  9  1  0
 10  9  1  0
 11 10  1  0
 11 12  1  0
 12  8  1  0
 13 20  1  0
 12 13  1  6
 14 13  2  0
 16 15  1  1
 17 16  1  0
 18 16  1  0
 19 20  1  0
 19 18  1  1
 21 19  1  0
 22 21  2  0
 23 21  1  0
M  END
$$$$
