PPL.pdb
     RDKit          3D

 23 24  0  0  1  0  0  0  0  0999 V2000
   23.5378  -22.9178  -14.2408 N   0  0  0  0  0  0  0  0  0  0  0  0
   22.3048  -22.3358  -14.8165 C   0  0  0  0  0  0  0  0  0  0  0  0
   21.7102  -21.7014  -13.5637 C   0  0  0  0  0  0  0  0  0  0  0  0
   22.9401  -21.2889  -12.7485 C   0  0  0  0  0  0  0  0  0  0  0  0
   24.0904  -21.7480  -13.6292 C   0  0  1  0  0  0  0  0  0  0  0  0
   25.3547  -21.8891  -12.9253 C   0  0  0  0  0  0  0  0  0  0  0  0
   25.8333  -23.0771  -12.7143 O   0  0  0  0  0  0  0  0  0  0  0  0
   26.0944  -20.7947  -12.4556 N   0  0  0  0  0  0  0  0  0  0  0  0
   25.7443  -19.3943  -12.7960 C   0  0  0  0  0  0  0  0  0  0  0  0
   26.9441  -18.5643  -12.4700 C   0  0  0  0  0  0  0  0  0  0  0  0
   28.0361  -19.5474  -12.1989 C   0  0  0  0  0  0  0  0  0  0  0  0
   27.2494  -20.7294  -11.6307 C   0  0  1  0  0  0  0  0  0  0  0  0
   26.8577  -20.4242  -10.2064 C   0  0  0  0  0  0  0  0  0  0  0  0
   25.6363  -20.2592   -9.9715 O   0  0  0  0  0  0  0  0  0  0  0  0
   28.9879  -19.0071   -4.8300 C   0  0  0  0  0  0  0  0  0  0  0  0
   28.3777  -20.2900   -5.4201 C   0  0  2  0  0  0  0  0  0  0  0  0
   28.9737  -21.4585   -4.6910 C   0  0  0  0  0  0  0  0  0  0  0  0
   28.6488  -20.2506   -6.8753 C   0  0  0  0  0  0  0  0  0  0  0  0
   27.4915  -20.4723   -7.7881 C   0  0  2  0  0  0  0  0  0  0  0  0
   27.8202  -20.3261   -9.1715 N   0  0  0  0  0  0  0  0  0  0  0  0
   26.2801  -19.6918   -7.4318 C   0  0  0  0  0  0  0  0  0  0  0  0
   26.0579  -18.5360   -7.8730 O   0  0  0  0  0  0  0  0  0  0  0  0
   25.3121  -20.2199   -6.5706 O   0  0  0  0  0  0  0  0  0  0  0  0
  1  5  1  0
  1  2  1  0
  2  3  1  0
  4  3  1  0
  5  6  1  1
  5  4  1  0
  6  7  2  0
  6  8  1  0
  8  9  1  0
 10  9  1  0
 11 10  1  0
 11 12  1  0
 12  8  1  0
 13 20  1  0
 12 13  1  1
 14 13  2  0
 16 15  1  1
 17 16  1  0
 18 16  1  0
 19 20  1  0
 19 18  1  1
 21 19  1  0
 22 21  2  0
 23 21  1  0
M  END
$$$$
