PPL.pdb
     RDKit          3D

 23 24  0  0  1  0  0  0  0  0999 V2000
   24.2124  -20.4540  -14.6244 N   0  0  0  0  0  0  0  0  0  0  0  0
   23.0511  -20.5764  -15.5337 C   0  0  0  0  0  0  0  0  0  0  0  0
   23.5643  -21.6732  -16.4607 C   0  0  0  0  0  0  0  0  0  0  0  0
   24.4449  -22.5343  -15.5495 C   0  0  0  0  0  0  0  0  0  0  0  0
   24.3378  -21.8188  -14.2131 C   0  0  1  0  0  0  0  0  0  0  0  0
   25.4036  -22.1459  -13.2798 C   0  0  0  0  0  0  0  0  0  0  0  0
   25.4503  -23.3358  -12.7629 O   0  0  0  0  0  0  0  0  0  0  0  0
   26.3972  -21.2313  -12.9029 N   0  0  0  0  0  0  0  0  0  0  0  0
   26.5351  -19.9002  -13.5420 C   0  0  0  0  0  0  0  0  0  0  0  0
   27.8955  -19.3947  -13.1834 C   0  0  0  0  0  0  0  0  0  0  0  0
   28.5954  -20.5625  -12.5681 C   0  0  0  0  0  0  0  0  0  0  0  0
   27.4284  -21.3168  -11.9294 C   0  0  1  0  0  0  0  0  0  0  0  0
   27.0133  -20.6069  -10.6648 C   0  0  0  0  0  0  0  0  0  0  0  0
   25.8545  -20.1272  -10.6318 O   0  0  0  0  0  0  0  0  0  0  0  0
   28.3481  -18.6880   -5.1205 C   0  0  0  0  0  0  0  0  0  0  0  0
   27.8045  -19.9555   -5.8021 C   0  0  2  0  0  0  0  0  0  0  0  0
   28.3028  -21.1413   -5.0290 C   0  0  0  0  0  0  0  0  0  0  0  0
   28.2465  -19.8930   -7.2140 C   0  0  0  0  0  0  0  0  0  0  0  0
   27.4636  -20.6827   -8.2065 C   0  0  2  0  0  0  0  0  0  0  0  0
   27.8872  -20.4821   -9.5568 N   0  0  0  0  0  0  0  0  0  0  0  0
   25.9923  -20.5385   -8.0712 C   0  0  0  0  0  0  0  0  0  0  0  0
   25.3232  -21.1499   -7.2004 O   0  0  0  0  0  0  0  0  0  0  0  0
   25.2707  -19.6978   -8.9257 O   0  0  0  0  0  0  0  0  0  0  0  0
  1  5  1  0
  1  2  1  0
  2  3  1  0
  4  3  1  0
  5  6  1  1
  5  4  1  0
  6  7  2  0
  6  8  1  0
  8  9  1  0
 10  9  1  0
 11 10  1  0
 11 12  1  0
 12  8  1  0
 13 20  1  0
 12 13  1  1
 14 13  2  0
 16 15  1  1
 17 16  1  0
 18 16  1  0
 19 20  1  0
 19 18  1  1
 21 19  1  0
 22 21  2  0
 23 21  1  0
M  END
$$$$
