PPL.pdb
     RDKit          3D

 23 24  0  0  1  0  0  0  0  0999 V2000
   28.6199  -20.4248  -16.0728 N   0  0  0  0  0  0  0  0  0  0  0  0
   28.7435  -21.4851  -17.0980 C   0  0  0  0  0  0  0  0  0  0  0  0
   28.9663  -22.6927  -16.1938 C   0  0  0  0  0  0  0  0  0  0  0  0
   28.1589  -22.3567  -14.9358 C   0  0  0  0  0  0  0  0  0  0  0  0
   27.5807  -20.9912  -15.2684 C   0  0  1  0  0  0  0  0  0  0  0  0
   27.1409  -20.2360  -14.1064 C   0  0  0  0  0  0  0  0  0  0  0  0
   27.9047  -19.2990  -13.6334 O   0  0  0  0  0  0  0  0  0  0  0  0
   25.9186  -20.4697  -13.4606 N   0  0  0  0  0  0  0  0  0  0  0  0
   24.9640  -21.5082  -13.9185 C   0  0  0  0  0  0  0  0  0  0  0  0
   23.6542  -21.1992  -13.2677 C   0  0  0  0  0  0  0  0  0  0  0  0
   23.8293  -19.8438  -12.6639 C   0  0  0  0  0  0  0  0  0  0  0  0
   25.3220  -19.8477  -12.3311 C   0  0  1  0  0  0  0  0  0  0  0  0
   25.5511  -20.6803  -11.0943 C   0  0  0  0  0  0  0  0  0  0  0  0
   25.3751  -21.9183  -11.1971 O   0  0  0  0  0  0  0  0  0  0  0  0
   28.9513  -20.6034   -8.2443 C   0  0  0  0  0  0  0  0  0  0  0  0
   27.9614  -19.4741   -7.9107 C   0  0  2  0  0  0  0  0  0  0  0  0
   28.5792  -18.6247   -6.8388 C   0  0  0  0  0  0  0  0  0  0  0  0
   26.6880  -20.1314   -7.5378 C   0  0  0  0  0  0  0  0  0  0  0  0
   25.9303  -20.8116   -8.6264 C   0  0  2  0  0  0  0  0  0  0  0  0
   25.9480  -20.0986   -9.8650 N   0  0  0  0  0  0  0  0  0  0  0  0
   24.5513  -21.2097   -8.2479 C   0  0  0  0  0  0  0  0  0  0  0  0
   24.3067  -22.0746   -7.3692 O   0  0  0  0  0  0  0  0  0  0  0  0
   23.4395  -20.6273   -8.8663 O   0  0  0  0  0  0  0  0  0  0  0  0
  1  5  1  0
  1  2  1  0
  2  3  1  0
  4  3  1  0
  5  6  1  1
  5  4  1  0
  6  7  2  0
  6  8  1  0
  8  9  1  0
 10  9  1  0
 11 10  1  0
 11 12  1  0
 12  8  1  0
 13 20  1  0
 12 13  1  1
 14 13  2  0
 16 15  1  1
 17 16  1  0
 18 16  1  0
 19 20  1  0
 19 18  1  1
 21 19  1  0
 22 21  2  0
 23 21  1  0
M  END
$$$$
