PPL.pdb
     RDKit          3D

 23 24  0  0  1  0  0  0  0  0999 V2000
   20.0200  -12.6253  -17.7507 N   0  0  0  0  0  0  0  0  0  0  0  0
   20.0032  -12.7922  -19.2212 C   0  0  0  0  0  0  0  0  0  0  0  0
   19.7076  -11.3559  -19.6400 C   0  0  0  0  0  0  0  0  0  0  0  0
   20.3900  -10.5153  -18.5560 C   0  0  0  0  0  0  0  0  0  0  0  0
   20.9842  -11.5735  -17.6414 C   0  0  1  0  0  0  0  0  0  0  0  0
   21.3058  -11.0904  -16.3083 C   0  0  0  0  0  0  0  0  0  0  0  0
   20.6008  -11.5004  -15.2985 O   0  0  0  0  0  0  0  0  0  0  0  0
   22.3515  -10.1922  -16.0523 N   0  0  0  0  0  0  0  0  0  0  0  0
   23.2353   -9.6753  -17.1253 C   0  0  0  0  0  0  0  0  0  0  0  0
   24.4336   -9.0939  -16.4466 C   0  0  0  0  0  0  0  0  0  0  0  0
   24.3235   -9.5286  -15.0214 C   0  0  0  0  0  0  0  0  0  0  0  0
   22.8067   -9.6051  -14.8413 C   0  0  1  0  0  0  0  0  0  0  0  0
   22.2544   -8.2088  -14.6977 C   0  0  0  0  0  0  0  0  0  0  0  0
   21.8980   -7.6234  -15.7485 O   0  0  0  0  0  0  0  0  0  0  0  0
   19.2646   -5.7298  -10.0378 C   0  0  0  0  0  0  0  0  0  0  0  0
   19.6259   -5.4895  -11.5137 C   0  0  2  0  0  0  0  0  0  0  0  0
   18.3454   -5.3113  -12.2759 C   0  0  0  0  0  0  0  0  0  0  0  0
   20.4540   -6.6428  -11.9343 C   0  0  0  0  0  0  0  0  0  0  0  0
   21.2449   -6.4898  -13.1885 C   0  0  2  0  0  0  0  0  0  0  0  0
   22.1393   -7.5771  -13.4348 N   0  0  0  0  0  0  0  0  0  0  0  0
   21.9327   -5.1805  -13.3155 C   0  0  0  0  0  0  0  0  0  0  0  0
   23.1115   -4.9874  -12.9243 O   0  0  0  0  0  0  0  0  0  0  0  0
   21.2850   -4.0805  -13.8883 O   0  0  0  0  0  0  0  0  0  0  0  0
  1  5  1  0
  1  2  1  0
  2  3  1  0
  4  3  1  0
  5  6  1  1
  5  4  1  0
  6  7  2  0
  6  8  1  0
  8  9  1  0
 10  9  1  0
 11 10  1  0
 11 12  1  0
 12  8  1  0
 13 20  1  0
 12 13  1  6
 14 13  2  0
 16 15  1  1
 17 16  1  0
 18 16  1  0
 19 20  1  0
 19 18  1  1
 21 19  1  0
 22 21  2  0
 23 21  1  0
M  END
$$$$
