PPL.pdb
     RDKit          3D

 23 24  0  0  1  0  0  0  0  0999 V2000
   23.6106  -22.2077  -13.1969 N   0  0  0  0  0  0  0  0  0  0  0  0
   22.7961  -21.2432  -13.9696 C   0  0  0  0  0  0  0  0  0  0  0  0
   22.7268  -20.1000  -12.9628 C   0  0  0  0  0  0  0  0  0  0  0  0
   24.0660  -20.1870  -12.2237 C   0  0  0  0  0  0  0  0  0  0  0  0
   24.7352  -21.3777  -12.8900 C   0  0  1  0  0  0  0  0  0  0  0  0
   25.8123  -21.9643  -12.1093 C   0  0  0  0  0  0  0  0  0  0  0  0
   25.6686  -23.1626  -11.6313 O   0  0  0  0  0  0  0  0  0  0  0  0
   27.0147  -21.2948  -11.8415 N   0  0  0  0  0  0  0  0  0  0  0  0
   27.4537  -20.1094  -12.6171 C   0  0  0  0  0  0  0  0  0  0  0  0
   28.9093  -19.9274  -12.3292 C   0  0  0  0  0  0  0  0  0  0  0  0
   29.3210  -21.1673  -11.6042 C   0  0  0  0  0  0  0  0  0  0  0  0
   28.0285  -21.5397  -10.8766 C   0  0  1  0  0  0  0  0  0  0  0  0
   27.8495  -20.6285   -9.6879 C   0  0  0  0  0  0  0  0  0  0  0  0
   27.0082  -19.7043   -9.7968 O   0  0  0  0  0  0  0  0  0  0  0  0
   29.0298  -18.8228   -5.1916 C   0  0  0  0  0  0  0  0  0  0  0  0
   28.8034  -20.3020   -4.8351 C   0  0  2  0  0  0  0  0  0  0  0  0
   29.7699  -20.6641   -3.7456 C   0  0  0  0  0  0  0  0  0  0  0  0
   28.9598  -21.0641   -6.0950 C   0  0  0  0  0  0  0  0  0  0  0  0
   28.0014  -20.7612   -7.1957 C   0  0  2  0  0  0  0  0  0  0  0  0
   28.5947  -20.8011   -8.4954 N   0  0  0  0  0  0  0  0  0  0  0  0
   27.2194  -19.5158   -6.9930 C   0  0  0  0  0  0  0  0  0  0  0  0
   27.5970  -18.3952   -7.4191 O   0  0  0  0  0  0  0  0  0  0  0  0
   26.0019  -19.5354   -6.3039 O   0  0  0  0  0  0  0  0  0  0  0  0
  1  5  1  0
  1  2  1  0
  2  3  1  0
  4  3  1  0
  5  6  1  1
  5  4  1  0
  6  7  2  0
  6  8  1  0
  8  9  1  0
 10  9  1  0
 11 10  1  0
 11 12  1  0
 12  8  1  0
 13 20  1  0
 12 13  1  1
 14 13  2  0
 16 15  1  6
 17 16  1  0
 18 16  1  0
 19 20  1  0
 19 18  1  1
 21 19  1  0
 22 21  2  0
 23 21  1  0
M  END
$$$$
