PPL.pdb
     RDKit          3D

 23 24  0  0  1  0  0  0  0  0999 V2000
   19.4578  -15.2363  -20.0174 N   0  0  0  0  0  0  0  0  0  0  0  0
   18.5269  -16.3044  -19.5896 C   0  0  0  0  0  0  0  0  0  0  0  0
   18.9002  -16.3955  -18.1138 C   0  0  0  0  0  0  0  0  0  0  0  0
   19.2953  -14.9603  -17.7513 C   0  0  0  0  0  0  0  0  0  0  0  0
   19.1110  -14.2236  -19.0676 C   0  0  1  0  0  0  0  0  0  0  0  0
   19.8228  -12.9580  -19.1421 C   0  0  0  0  0  0  0  0  0  0  0  0
   20.9361  -12.8953  -19.8067 O   0  0  0  0  0  0  0  0  0  0  0  0
   19.3643  -11.7855  -18.5250 N   0  0  0  0  0  0  0  0  0  0  0  0
   18.0914  -11.7330  -17.7658 C   0  0  0  0  0  0  0  0  0  0  0  0
   17.7472  -10.2865  -17.6115 C   0  0  0  0  0  0  0  0  0  0  0  0
   18.6944   -9.5623  -18.5119 C   0  0  0  0  0  0  0  0  0  0  0  0
   19.9182  -10.4784  -18.4688 C   0  0  1  0  0  0  0  0  0  0  0  0
   20.6436  -10.2741  -17.1621 C   0  0  0  0  0  0  0  0  0  0  0  0
   20.2005  -10.8852  -16.1599 O   0  0  0  0  0  0  0  0  0  0  0  0
   26.4259   -9.8616  -15.7944 C   0  0  0  0  0  0  0  0  0  0  0  0
   25.0385   -9.7168  -15.1459 C   0  0  2  0  0  0  0  0  0  0  0  0
   24.9066  -10.7864  -14.1016 C   0  0  0  0  0  0  0  0  0  0  0  0
   24.0525   -9.7877  -16.2484 C   0  0  0  0  0  0  0  0  0  0  0  0
   22.6434   -9.4259  -15.9239 C   0  0  2  0  0  0  0  0  0  0  0  0
   21.7771   -9.4304  -17.0608 N   0  0  0  0  0  0  0  0  0  0  0  0
   22.5044   -8.1732  -15.1395 C   0  0  0  0  0  0  0  0  0  0  0  0
   22.4552   -8.1555  -13.8837 O   0  0  0  0  0  0  0  0  0  0  0  0
   22.4199   -6.9310  -15.7777 O   0  0  0  0  0  0  0  0  0  0  0  0
  1  5  1  0
  1  2  1  0
  2  3  1  0
  4  3  1  0
  5  6  1  1
  5  4  1  0
  6  7  2  0
  6  8  1  0
  8  9  1  0
 10  9  1  0
 11 10  1  0
 11 12  1  0
 12  8  1  0
 13 20  1  0
 12 13  1  1
 14 13  2  0
 16 15  1  6
 17 16  1  0
 18 16  1  0
 19 20  1  0
 19 18  1  6
 21 19  1  0
 22 21  2  0
 23 21  1  0
M  END
$$$$
