PPL.pdb
     RDKit          3D

 23 24  0  0  1  0  0  0  0  0999 V2000
   26.6267  -17.6226  -16.3794 N   0  0  0  0  0  0  0  0  0  0  0  0
   27.4724  -16.4343  -16.1280 C   0  0  0  0  0  0  0  0  0  0  0  0
   26.7565  -15.8620  -14.9092 C   0  0  0  0  0  0  0  0  0  0  0  0
   26.2219  -17.1033  -14.1876 C   0  0  0  0  0  0  0  0  0  0  0  0
   26.6874  -18.2357  -15.0878 C   0  0  1  0  0  0  0  0  0  0  0  0
   25.9594  -19.4799  -14.8978 C   0  0  0  0  0  0  0  0  0  0  0  0
   25.3816  -20.0380  -15.9175 O   0  0  0  0  0  0  0  0  0  0  0  0
   25.8465  -20.1174  -13.6542 N   0  0  0  0  0  0  0  0  0  0  0  0
   26.5590  -19.6345  -12.4465 C   0  0  0  0  0  0  0  0  0  0  0  0
   26.5247  -20.7536  -11.4560 C   0  0  0  0  0  0  0  0  0  0  0  0
   26.0231  -21.9353  -12.2205 C   0  0  0  0  0  0  0  0  0  0  0  0
   25.1150  -21.2678  -13.2542 C   0  0  1  0  0  0  0  0  0  0  0  0
   23.8237  -20.8609  -12.5892 C   0  0  0  0  0  0  0  0  0  0  0  0
   23.8929  -19.9878  -11.6909 O   0  0  0  0  0  0  0  0  0  0  0  0
   20.5894  -17.9619  -15.5229 C   0  0  0  0  0  0  0  0  0  0  0  0
   20.3620  -18.5966  -14.1402 C   0  0  2  0  0  0  0  0  0  0  0  0
   20.0700  -17.4896  -13.1699 C   0  0  0  0  0  0  0  0  0  0  0  0
   21.5743  -19.3927  -13.8414 C   0  0  0  0  0  0  0  0  0  0  0  0
   21.3825  -20.6681  -13.0942 C   0  0  2  0  0  0  0  0  0  0  0  0
   22.5813  -21.4341  -12.9564 N   0  0  0  0  0  0  0  0  0  0  0  0
   20.2598  -21.5007  -13.5943 C   0  0  0  0  0  0  0  0  0  0  0  0
   19.0689  -21.3320  -13.2294 O   0  0  0  0  0  0  0  0  0  0  0  0
   20.4831  -22.5320  -14.5131 O   0  0  0  0  0  0  0  0  0  0  0  0
  1  5  1  0
  1  2  1  0
  2  3  1  0
  4  3  1  0
  5  6  1  6
  5  4  1  0
  6  7  2  0
  6  8  1  0
  8  9  1  0
 10  9  1  0
 11 10  1  0
 11 12  1  0
 12  8  1  0
 13 20  1  0
 12 13  1  1
 14 13  2  0
 16 15  1  6
 17 16  1  0
 18 16  1  0
 19 20  1  0
 19 18  1  6
 21 19  1  0
 22 21  2  0
 23 21  1  0
M  END
$$$$
