PPL.pdb
     RDKit          3D

 23 24  0  0  1  0  0  0  0  0999 V2000
   25.4244  -34.4607   -8.1267 N   0  0  0  0  0  0  0  0  0  0  0  0
   26.1555  -33.9598   -9.3120 C   0  0  0  0  0  0  0  0  0  0  0  0
   26.5612  -32.5815   -8.8009 C   0  0  0  0  0  0  0  0  0  0  0  0
   26.7593  -32.7972   -7.2970 C   0  0  0  0  0  0  0  0  0  0  0  0
   26.4316  -34.2715   -7.1280 C   0  0  1  0  0  0  0  0  0  0  0  0
   26.1068  -34.6526   -5.7630 C   0  0  0  0  0  0  0  0  0  0  0  0
   24.8849  -34.9776   -5.4695 O   0  0  0  0  0  0  0  0  0  0  0  0
   27.0568  -34.6877   -4.7325 N   0  0  0  0  0  0  0  0  0  0  0  0
   28.4980  -34.4320   -4.9716 C   0  0  0  0  0  0  0  0  0  0  0  0
   29.2258  -34.9394   -3.7684 C   0  0  0  0  0  0  0  0  0  0  0  0
   28.2063  -35.7072   -2.9914 C   0  0  0  0  0  0  0  0  0  0  0  0
   26.9226  -34.9541   -3.3433 C   0  0  1  0  0  0  0  0  0  0  0  0
   26.8777  -33.6624   -2.5656 C   0  0  0  0  0  0  0  0  0  0  0  0
   27.6973  -32.7698   -2.8906 O   0  0  0  0  0  0  0  0  0  0  0  0
   22.5725  -30.0273   -1.2876 C   0  0  0  0  0  0  0  0  0  0  0  0
   24.0417  -30.2421   -0.8855 C   0  0  2  0  0  0  0  0  0  0  0  0
   24.8199  -29.0394   -1.3328 C   0  0  0  0  0  0  0  0  0  0  0  0
   24.4587  -31.5251   -1.4960 C   0  0  0  0  0  0  0  0  0  0  0  0
   25.6879  -32.1687   -0.9515 C   0  0  2  0  0  0  0  0  0  0  0  0
   25.9534  -33.4565   -1.5119 N   0  0  0  0  0  0  0  0  0  0  0  0
   25.7512  -32.1976    0.5313 C   0  0  0  0  0  0  0  0  0  0  0  0
   25.3198  -33.1602    1.2148 O   0  0  0  0  0  0  0  0  0  0  0  0
   26.3054  -31.1316    1.2483 O   0  0  0  0  0  0  0  0  0  0  0  0
  1  5  1  0
  1  2  1  0
  2  3  1  0
  4  3  1  0
  5  6  1  1
  5  4  1  0
  6  7  2  0
  6  8  1  0
  8  9  1  0
 10  9  1  0
 11 10  1  0
 11 12  1  0
 12  8  1  0
 13 20  1  0
 12 13  1  1
 14 13  2  0
 16 15  1  6
 17 16  1  0
 18 16  1  0
 19 20  1  0
 19 18  1  1
 21 19  1  0
 22 21  2  0
 23 21  1  0
M  END
$$$$
