PPL.pdb
     RDKit          3D

 23 24  0  0  1  0  0  0  0  0999 V2000
   24.7548  -17.8702  -15.4188 N   0  0  0  0  0  0  0  0  0  0  0  0
   25.2080  -16.6163  -16.0613 C   0  0  0  0  0  0  0  0  0  0  0  0
   25.9154  -15.9623  -14.8790 C   0  0  0  0  0  0  0  0  0  0  0  0
   26.4721  -17.1506  -14.0881 C   0  0  0  0  0  0  0  0  0  0  0  0
   26.0056  -18.3419  -14.9082 C   0  0  1  0  0  0  0  0  0  0  0  0
   26.0040  -19.5989  -14.1776 C   0  0  0  0  0  0  0  0  0  0  0  0
   24.8984  -20.2716  -14.0764 O   0  0  0  0  0  0  0  0  0  0  0  0
   27.1492  -20.1302  -13.5677 N   0  0  0  0  0  0  0  0  0  0  0  0
   28.4656  -19.4490  -13.6202 C   0  0  0  0  0  0  0  0  0  0  0  0
   29.4880  -20.4681  -13.2319 C   0  0  0  0  0  0  0  0  0  0  0  0
   28.7560  -21.7706  -13.2227 C   0  0  0  0  0  0  0  0  0  0  0  0
   27.3468  -21.3267  -12.8276 C   0  0  1  0  0  0  0  0  0  0  0  0
   27.3161  -21.0367  -11.3476 C   0  0  0  0  0  0  0  0  0  0  0  0
   28.3484  -20.5347  -10.8412 O   0  0  0  0  0  0  0  0  0  0  0  0
   26.4893  -18.8791   -6.9624 C   0  0  0  0  0  0  0  0  0  0  0  0
   27.3280  -20.1570   -7.1359 C   0  0  2  0  0  0  0  0  0  0  0  0
   28.6766  -19.9063   -6.5272 C   0  0  0  0  0  0  0  0  0  0  0  0
   27.3372  -20.4571   -8.5859 C   0  0  0  0  0  0  0  0  0  0  0  0
   26.1778  -21.2203   -9.1290 C   0  0  2  0  0  0  0  0  0  0  0  0
   26.1754  -21.3156  -10.5551 N   0  0  0  0  0  0  0  0  0  0  0  0
   24.8607  -20.7714   -8.6120 C   0  0  0  0  0  0  0  0  0  0  0  0
   24.1328  -19.9471   -9.2207 O   0  0  0  0  0  0  0  0  0  0  0  0
   24.3613  -21.2565   -7.3983 O   0  0  0  0  0  0  0  0  0  0  0  0
  1  5  1  0
  1  2  1  0
  2  3  1  0
  4  3  1  0
  5  6  1  1
  5  4  1  0
  6  7  2  0
  6  8  1  0
  8  9  1  0
 10  9  1  0
 11 10  1  0
 11 12  1  0
 12  8  1  0
 13 20  1  0
 12 13  1  1
 14 13  2  0
 16 15  1  6
 17 16  1  0
 18 16  1  0
 19 20  1  0
 19 18  1  6
 21 19  1  0
 22 21  2  0
 23 21  1  0
M  END
$$$$
