PPL.pdb
     RDKit          3D

 23 24  0  0  1  0  0  0  0  0999 V2000
   27.1777  -20.1774  -15.4126 N   0  0  0  0  0  0  0  0  0  0  0  0
   27.2166  -21.2810  -16.3980 C   0  0  0  0  0  0  0  0  0  0  0  0
   27.8206  -22.3799  -15.5302 C   0  0  0  0  0  0  0  0  0  0  0  0
   27.2865  -22.0685  -14.1284 C   0  0  0  0  0  0  0  0  0  0  0  0
   26.4501  -20.8215  -14.3622 C   0  0  1  0  0  0  0  0  0  0  0  0
   26.1845  -20.0527  -13.1570 C   0  0  0  0  0  0  0  0  0  0  0  0
   26.8706  -18.9746  -12.9291 O   0  0  0  0  0  0  0  0  0  0  0  0
   25.2133  -20.4195  -12.2147 N   0  0  0  0  0  0  0  0  0  0  0  0
   24.3555  -21.6175  -12.3832 C   0  0  0  0  0  0  0  0  0  0  0  0
   23.2144  -21.4616  -11.4302 C   0  0  0  0  0  0  0  0  0  0  0  0
   23.3122  -20.0564  -10.9319 C   0  0  0  0  0  0  0  0  0  0  0  0
   24.8213  -19.8156  -10.9899 C   0  0  1  0  0  0  0  0  0  0  0  0
   25.4793  -20.5166   -9.8276 C   0  0  0  0  0  0  0  0  0  0  0  0
   25.5947  -21.7636   -9.9023 O   0  0  0  0  0  0  0  0  0  0  0  0
   27.5114  -19.8913   -4.8080 C   0  0  0  0  0  0  0  0  0  0  0  0
   28.5403  -20.0223   -5.9441 C   0  0  2  0  0  0  0  0  0  0  0  0
   29.7468  -19.2142   -5.5653 C   0  0  0  0  0  0  0  0  0  0  0  0
   27.8537  -19.5871   -7.1818 C   0  0  0  0  0  0  0  0  0  0  0  0
   26.7117  -20.4204   -7.6542 C   0  0  2  0  0  0  0  0  0  0  0  0
   25.9499  -19.8061   -8.6959 N   0  0  0  0  0  0  0  0  0  0  0  0
   25.8371  -20.9233   -6.5653 C   0  0  0  0  0  0  0  0  0  0  0  0
   24.7304  -20.3994   -6.2810 O   0  0  0  0  0  0  0  0  0  0  0  0
   26.2145  -22.0260   -5.7912 O   0  0  0  0  0  0  0  0  0  0  0  0
  1  5  1  0
  1  2  1  0
  2  3  1  0
  4  3  1  0
  5  6  1  1
  5  4  1  0
  6  7  2  0
  6  8  1  0
  8  9  1  0
 10  9  1  0
 11 10  1  0
 11 12  1  0
 12  8  1  0
 13 20  1  0
 12 13  1  1
 14 13  2  0
 16 15  1  1
 17 16  1  0
 18 16  1  0
 19 20  1  0
 19 18  1  1
 21 19  1  0
 22 21  2  0
 23 21  1  0
M  END
$$$$
