VLI.pdb
     RDKit          3D

 24 23  0  0  1  0  0  0  0  0999 V2000
   10.5386  -19.5369   23.2091 C   0  0  0  0  0  0  0  0  0  0  0  0
    9.4467  -19.5246   22.1934 C   0  0  2  0  0  0  0  0  0  0  0  0
    9.2506  -20.9177   21.6149 C   0  0  0  0  0  0  0  0  0  0  0  0
    9.6673  -18.5753   21.0578 C   0  0  2  0  0  0  0  0  0  0  0  0
   10.8500  -18.9548   20.3310 N   0  0  0  0  0  0  0  0  0  0  0  0
    9.7741  -17.1699   21.4611 C   0  0  0  0  0  0  0  0  0  0  0  0
   10.8998  -16.6547   21.7655 O   0  0  0  0  0  0  0  0  0  0  0  0
    6.5050  -13.1238   19.6435 C   0  0  0  0  0  0  0  0  0  0  0  0
    7.7351  -13.9101   20.0815 C   0  0  1  0  0  0  0  0  0  0  0  0
    8.9328  -13.0185   19.7545 C   0  0  0  0  0  0  0  0  0  0  0  0
    7.6460  -14.1039   21.5649 C   0  0  0  0  0  0  0  0  0  0  0  0
    8.7365  -14.9697   22.1212 C   0  0  2  0  0  0  0  0  0  0  0  0
    8.6569  -16.2896   21.5432 N   0  0  0  0  0  0  0  0  0  0  0  0
    8.5589  -15.0142   23.6089 C   0  0  0  0  0  0  0  0  0  0  0  0
    7.6250  -15.6696   24.1379 O   0  0  0  0  0  0  0  0  0  0  0  0
    6.4579  -11.7470   26.2416 C   0  0  0  0  0  0  0  0  0  0  0  0
    7.7530  -12.3506   25.7080 C   0  0  0  0  0  0  0  0  0  0  0  0
    8.1057  -13.5994   26.4239 C   0  0  2  0  0  0  0  0  0  0  0  0
    8.3441  -13.2818   27.9046 C   0  0  0  0  0  0  0  0  0  0  0  0
    9.3063  -14.3306   25.9346 C   0  0  2  0  0  0  0  0  0  0  0  0
    9.4305  -14.3227   24.4913 N   0  0  0  0  0  0  0  0  0  0  0  0
    9.5116  -15.6754   26.5113 C   0  0  0  0  0  0  0  0  0  0  0  0
    9.7655  -15.8933   27.7147 O   0  0  0  0  0  0  0  0  0  0  0  0
    9.4292  -16.8274   25.7042 O   0  0  0  0  0  0  0  0  0  0  0  0
  2  1  1  1
  2  3  1  0
  4  2  1  0
  4  5  1  1
  6  4  1  0
  6  7  2  0
  9 11  1  0
  9  8  1  1
 10  9  1  0
 12 11  1  6
 12 13  1  0
 13  6  1  0
 14 12  1  0
 15 14  2  0
 16 17  1  0
 17 18  1  0
 18 20  1  0
 18 19  1  1
 20 21  1  6
 20 22  1  0
 21 14  1  0
 22 24  1  0
 23 22  2  0
M  END
$$$$
