VLI.pdb
     RDKit          3D

 24 23  0  0  1  0  0  0  0  0999 V2000
    8.5504  -17.5010   18.3739 C   0  0  0  0  0  0  0  0  0  0  0  0
    8.9234  -16.5613   19.4703 C   0  0  2  0  0  0  0  0  0  0  0  0
   10.1736  -15.7816   19.0923 C   0  0  0  0  0  0  0  0  0  0  0  0
    9.1657  -17.2175   20.7932 C   0  0  2  0  0  0  0  0  0  0  0  0
    8.0857  -18.1206   21.0918 N   0  0  0  0  0  0  0  0  0  0  0  0
    9.3379  -16.2798   21.9068 C   0  0  0  0  0  0  0  0  0  0  0  0
   10.3632  -15.5259   21.9819 O   0  0  0  0  0  0  0  0  0  0  0  0
    5.8687  -13.2642   25.7008 C   0  0  0  0  0  0  0  0  0  0  0  0
    6.8464  -13.5984   24.5802 C   0  0  1  0  0  0  0  0  0  0  0  0
    8.0140  -12.6263   24.7477 C   0  0  0  0  0  0  0  0  0  0  0  0
    7.3275  -15.0006   24.8002 C   0  0  0  0  0  0  0  0  0  0  0  0
    8.6289  -15.3000   24.1182 C   0  0  2  0  0  0  0  0  0  0  0  0
    8.3972  -16.1395   22.9676 N   0  0  0  0  0  0  0  0  0  0  0  0
    9.5139  -15.9790   25.1194 C   0  0  0  0  0  0  0  0  0  0  0  0
   10.0526  -17.0880   24.8719 O   0  0  0  0  0  0  0  0  0  0  0  0
   10.1912  -13.1036   29.8048 C   0  0  0  0  0  0  0  0  0  0  0  0
   10.8137  -13.8088   28.6042 C   0  0  0  0  0  0  0  0  0  0  0  0
   10.6388  -15.2782   28.6866 C   0  0  2  0  0  0  0  0  0  0  0  0
   11.7637  -15.8728   29.5417 C   0  0  0  0  0  0  0  0  0  0  0  0
   10.6309  -16.0208   27.3966 C   0  0  2  0  0  0  0  0  0  0  0  0
    9.7874  -15.4083   26.3906 N   0  0  0  0  0  0  0  0  0  0  0  0
   10.4151  -17.4787   27.5025 C   0  0  0  0  0  0  0  0  0  0  0  0
   11.3335  -18.3238   27.5523 O   0  0  0  0  0  0  0  0  0  0  0  0
    9.1127  -18.0139   27.5547 O   0  0  0  0  0  0  0  0  0  0  0  0
  2  1  1  6
  2  3  1  0
  4  2  1  0
  4  5  1  1
  6  4  1  0
  6  7  2  0
  9 11  1  0
  9  8  1  1
 10  9  1  0
 12 11  1  1
 12 13  1  0
 13  6  1  0
 14 12  1  0
 15 14  2  0
 16 17  1  0
 17 18  1  0
 18 20  1  0
 18 19  1  1
 20 21  1  6
 20 22  1  0
 21 14  1  0
 22 24  1  0
 23 22  2  0
M  END
$$$$
