VLI.pdb
     RDKit          3D

 24 23  0  0  1  0  0  0  0  0999 V2000
    6.8739  -14.4616   20.1427 C   0  0  0  0  0  0  0  0  0  0  0  0
    8.0605  -15.2950   19.7938 C   0  0  2  0  0  0  0  0  0  0  0  0
    7.7439  -16.1893   18.6048 C   0  0  0  0  0  0  0  0  0  0  0  0
    8.5592  -16.1604   20.9081 C   0  0  2  0  0  0  0  0  0  0  0  0
    7.5861  -17.1783   21.2046 N   0  0  0  0  0  0  0  0  0  0  0  0
    8.8885  -15.4297   22.1355 C   0  0  0  0  0  0  0  0  0  0  0  0
    9.9006  -14.6565   22.1916 O   0  0  0  0  0  0  0  0  0  0  0  0
    5.7892  -12.7958   26.1974 C   0  0  0  0  0  0  0  0  0  0  0  0
    6.7894  -13.1407   25.1000 C   0  0  1  0  0  0  0  0  0  0  0  0
    7.9366  -12.1431   25.2589 C   0  0  0  0  0  0  0  0  0  0  0  0
    7.2924  -14.5276   25.3633 C   0  0  0  0  0  0  0  0  0  0  0  0
    8.5125  -14.8821   24.5670 C   0  0  2  0  0  0  0  0  0  0  0  0
    8.1234  -15.5227   23.3338 N   0  0  0  0  0  0  0  0  0  0  0  0
    9.3514  -15.7917   25.4130 C   0  0  0  0  0  0  0  0  0  0  0  0
    9.5647  -16.9852   25.0790 O   0  0  0  0  0  0  0  0  0  0  0  0
   11.0582  -14.1766   30.7648 C   0  0  0  0  0  0  0  0  0  0  0  0
   10.3586  -14.9669   29.6637 C   0  0  0  0  0  0  0  0  0  0  0  0
   11.3231  -15.4599   28.6522 C   0  0  2  0  0  0  0  0  0  0  0  0
   12.1160  -14.2738   28.0912 C   0  0  0  0  0  0  0  0  0  0  0  0
   10.7516  -16.1931   27.4897 C   0  0  2  0  0  0  0  0  0  0  0  0
    9.9442  -15.3549   26.6271 N   0  0  0  0  0  0  0  0  0  0  0  0
   10.0919  -17.4763   27.8081 C   0  0  0  0  0  0  0  0  0  0  0  0
    8.8609  -17.6726   27.7299 O   0  0  0  0  0  0  0  0  0  0  0  0
   10.8444  -18.5891   28.2333 O   0  0  0  0  0  0  0  0  0  0  0  0
  2  1  1  1
  2  3  1  0
  4  2  1  0
  4  5  1  1
  6  4  1  0
  6  7  2  0
  9 11  1  0
  9  8  1  1
 10  9  1  0
 12 11  1  1
 12 13  1  0
 13  6  1  0
 14 12  1  0
 15 14  2  0
 16 17  1  0
 17 18  1  0
 18 20  1  0
 18 19  1  6
 20 21  1  1
 20 22  1  0
 21 14  1  0
 22 24  1  0
 23 22  2  0
M  END
$$$$
