VLI.pdb
     RDKit          3D

 24 23  0  0  1  0  0  0  0  0999 V2000
    9.9000  -18.9628   19.7264 C   0  0  0  0  0  0  0  0  0  0  0  0
    9.9906  -18.1499   20.9736 C   0  0  2  0  0  0  0  0  0  0  0  0
    9.1400  -18.7725   22.0702 C   0  0  0  0  0  0  0  0  0  0  0  0
    9.5732  -16.7218   20.8141 C   0  0  2  0  0  0  0  0  0  0  0  0
   10.4095  -16.0782   19.8357 N   0  0  0  0  0  0  0  0  0  0  0  0
    9.5949  -15.9466   22.0582 C   0  0  0  0  0  0  0  0  0  0  0  0
   10.6933  -15.5482   22.5682 O   0  0  0  0  0  0  0  0  0  0  0  0
    7.6455  -12.2289   25.3258 C   0  0  0  0  0  0  0  0  0  0  0  0
    7.0355  -13.5880   25.6488 C   0  0  1  0  0  0  0  0  0  0  0  0
    5.5810  -13.3083   26.0266 C   0  0  0  0  0  0  0  0  0  0  0  0
    7.0778  -14.4136   24.3988 C   0  0  0  0  0  0  0  0  0  0  0  0
    8.4553  -14.8844   24.0397 C   0  0  2  0  0  0  0  0  0  0  0  0
    8.4201  -15.5855   22.7788 N   0  0  0  0  0  0  0  0  0  0  0  0
    8.9269  -15.7774   25.1473 C   0  0  0  0  0  0  0  0  0  0  0  0
    8.7281  -17.0188   25.1177 O   0  0  0  0  0  0  0  0  0  0  0  0
   10.6496  -13.2064   29.7618 C   0  0  0  0  0  0  0  0  0  0  0  0
   10.9548  -13.9868   28.4874 C   0  0  0  0  0  0  0  0  0  0  0  0
   10.4688  -15.3841   28.5766 C   0  0  2  0  0  0  0  0  0  0  0  0
   11.4701  -16.2156   29.3865 C   0  0  0  0  0  0  0  0  0  0  0  0
   10.2502  -16.0962   27.2879 C   0  0  2  0  0  0  0  0  0  0  0  0
    9.6179  -15.2704   26.2796 N   0  0  0  0  0  0  0  0  0  0  0  0
    9.6267  -17.4314   27.3961 C   0  0  0  0  0  0  0  0  0  0  0  0
    8.3957  -17.6287   27.4723 O   0  0  0  0  0  0  0  0  0  0  0  0
   10.4172  -18.5976   27.4202 O   0  0  0  0  0  0  0  0  0  0  0  0
  2  1  1  6
  2  3  1  0
  4  2  1  0
  4  5  1  6
  6  4  1  0
  6  7  2  0
  9 11  1  0
  9  8  1  6
 10  9  1  0
 12 11  1  1
 12 13  1  0
 13  6  1  0
 14 12  1  0
 15 14  2  0
 16 17  1  0
 17 18  1  0
 18 20  1  0
 18 19  1  1
 20 21  1  6
 20 22  1  0
 21 14  1  0
 22 24  1  0
 23 22  2  0
M  END
$$$$
