VLI.pdb
     RDKit          3D

 24 23  0  0  1  0  0  0  0  0999 V2000
    7.5230  -19.4229   24.6916 C   0  0  0  0  0  0  0  0  0  0  0  0
    6.3912  -18.9854   23.8245 C   0  0  2  0  0  0  0  0  0  0  0  0
    5.3119  -20.0567   23.7880 C   0  0  0  0  0  0  0  0  0  0  0  0
    6.7783  -18.6657   22.4148 C   0  0  2  0  0  0  0  0  0  0  0  0
    7.2448  -19.8579   21.7575 N   0  0  0  0  0  0  0  0  0  0  0  0
    7.7928  -17.6145   22.2935 C   0  0  0  0  0  0  0  0  0  0  0  0
    9.0346  -17.8988   22.2430 O   0  0  0  0  0  0  0  0  0  0  0  0
    6.7444  -12.7996   19.7590 C   0  0  0  0  0  0  0  0  0  0  0  0
    7.4209  -14.1029   20.1678 C   0  0  1  0  0  0  0  0  0  0  0  0
    8.6237  -14.2532   19.2366 C   0  0  0  0  0  0  0  0  0  0  0  0
    7.8980  -13.9437   21.5795 C   0  0  0  0  0  0  0  0  0  0  0  0
    8.4885  -15.1958   22.1557 C   0  0  2  0  0  0  0  0  0  0  0  0
    7.4805  -16.2262   22.2242 N   0  0  0  0  0  0  0  0  0  0  0  0
    9.0159  -14.8574   23.5173 C   0  0  0  0  0  0  0  0  0  0  0  0
   10.0752  -14.1957   23.6637 O   0  0  0  0  0  0  0  0  0  0  0  0
    5.6698  -12.6326   26.5675 C   0  0  0  0  0  0  0  0  0  0  0  0
    7.0203  -13.0061   25.9650 C   0  0  0  0  0  0  0  0  0  0  0  0
    7.6850  -14.0775   26.7440 C   0  0  2  0  0  0  0  0  0  0  0  0
    8.3351  -13.4657   27.9902 C   0  0  0  0  0  0  0  0  0  0  0  0
    8.7389  -14.8569   26.0388 C   0  0  2  0  0  0  0  0  0  0  0  0
    8.3506  -15.2643   24.7040 N   0  0  0  0  0  0  0  0  0  0  0  0
    9.3393  -15.9623   26.8140 C   0  0  0  0  0  0  0  0  0  0  0  0
    9.9268  -15.8170   27.9066 O   0  0  0  0  0  0  0  0  0  0  0  0
    9.2791  -17.2894   26.3444 O   0  0  0  0  0  0  0  0  0  0  0  0
  2  1  1  1
  2  3  1  0
  4  2  1  0
  4  5  1  1
  6  4  1  0
  6  7  2  0
  9 11  1  0
  9  8  1  6
 10  9  1  0
 12 11  1  1
 12 13  1  0
 13  6  1  0
 14 12  1  0
 15 14  2  0
 16 17  1  0
 17 18  1  0
 18 20  1  0
 18 19  1  1
 20 21  1  6
 20 22  1  0
 21 14  1  0
 22 24  1  0
 23 22  2  0
M  END
$$$$
