VLI.pdb
     RDKit          3D

 24 23  0  0  1  0  0  0  0  0999 V2000
    9.1140  -19.6096   20.0595 C   0  0  0  0  0  0  0  0  0  0  0  0
    9.4265  -18.6357   21.1448 C   0  0  2  0  0  0  0  0  0  0  0  0
    8.8938  -19.1429   22.4762 C   0  0  0  0  0  0  0  0  0  0  0  0
    8.8823  -17.2602   20.9186 C   0  0  2  0  0  0  0  0  0  0  0  0
    9.4240  -16.7183   19.7004 N   0  0  0  0  0  0  0  0  0  0  0  0
    9.1326  -16.3259   22.0202 C   0  0  0  0  0  0  0  0  0  0  0  0
   10.2895  -15.8252   22.2107 O   0  0  0  0  0  0  0  0  0  0  0  0
    7.7806  -12.0531   24.8576 C   0  0  0  0  0  0  0  0  0  0  0  0
    7.2224  -13.3139   25.5075 C   0  0  1  0  0  0  0  0  0  0  0  0
    5.8452  -12.9258   26.0453 C   0  0  0  0  0  0  0  0  0  0  0  0
    7.0669  -14.3478   24.4338 C   0  0  0  0  0  0  0  0  0  0  0  0
    8.3679  -14.9417   23.9830 C   0  0  2  0  0  0  0  0  0  0  0  0
    8.1286  -15.9130   22.9429 N   0  0  0  0  0  0  0  0  0  0  0  0
    9.0118  -15.5723   25.1806 C   0  0  0  0  0  0  0  0  0  0  0  0
    8.4469  -16.4986   25.8165 O   0  0  0  0  0  0  0  0  0  0  0  0
   10.7956  -13.7600   30.3607 C   0  0  0  0  0  0  0  0  0  0  0  0
   11.2565  -14.7633   29.3083 C   0  0  0  0  0  0  0  0  0  0  0  0
   10.5922  -14.5269   28.0047 C   0  0  2  0  0  0  0  0  0  0  0  0
    9.0755  -14.4584   28.2167 C   0  0  0  0  0  0  0  0  0  0  0  0
   10.8397  -15.5361   26.9390 C   0  0  2  0  0  0  0  0  0  0  0  0
   10.2846  -15.1586   25.6554 N   0  0  0  0  0  0  0  0  0  0  0  0
   10.5257  -16.9339   27.3006 C   0  0  0  0  0  0  0  0  0  0  0  0
   11.0370  -17.5431   28.2638 O   0  0  0  0  0  0  0  0  0  0  0  0
    9.5979  -17.6829   26.5499 O   0  0  0  0  0  0  0  0  0  0  0  0
  2  1  1  6
  2  3  1  0
  4  2  1  0
  4  5  1  6
  6  4  1  0
  6  7  2  0
  9 11  1  0
  9  8  1  6
 10  9  1  0
 12 11  1  1
 12 13  1  0
 13  6  1  0
 14 12  1  0
 15 14  2  0
 16 17  1  0
 17 18  1  0
 18 20  1  0
 18 19  1  1
 20 21  1  6
 20 22  1  0
 21 14  1  0
 22 24  1  0
 23 22  2  0
M  END
$$$$
