VLI.pdb
     RDKit          3D

 24 23  0  0  1  0  0  0  0  0999 V2000
    9.2913  -18.3062   19.6084 C   0  0  0  0  0  0  0  0  0  0  0  0
    9.4791  -17.5565   20.8839 C   0  0  2  0  0  0  0  0  0  0  0  0
    9.0100  -18.3968   22.0619 C   0  0  0  0  0  0  0  0  0  0  0  0
    8.7700  -16.2399   20.9389 C   0  0  2  0  0  0  0  0  0  0  0  0
    9.1799  -15.4213   19.8285 N   0  0  0  0  0  0  0  0  0  0  0  0
    8.9711  -15.5005   22.1887 C   0  0  0  0  0  0  0  0  0  0  0  0
   10.0572  -14.8729   22.4166 O   0  0  0  0  0  0  0  0  0  0  0  0
    5.3431  -12.8506   25.8996 C   0  0  0  0  0  0  0  0  0  0  0  0
    6.4753  -13.1468   24.9230 C   0  0  1  0  0  0  0  0  0  0  0  0
    7.5722  -12.1315   25.2427 C   0  0  0  0  0  0  0  0  0  0  0  0
    6.9743  -14.5301   25.2121 C   0  0  0  0  0  0  0  0  0  0  0  0
    8.2643  -14.8568   24.5209 C   0  0  2  0  0  0  0  0  0  0  0  0
    7.9938  -15.4260   23.2227 N   0  0  0  0  0  0  0  0  0  0  0  0
    9.0095  -15.8203   25.3944 C   0  0  0  0  0  0  0  0  0  0  0  0
    9.0761  -17.0439   25.1120 O   0  0  0  0  0  0  0  0  0  0  0  0
   11.1797  -13.3985   29.7798 C   0  0  0  0  0  0  0  0  0  0  0  0
   11.4334  -14.2658   28.5511 C   0  0  0  0  0  0  0  0  0  0  0  0
   10.8571  -15.6214   28.7148 C   0  0  2  0  0  0  0  0  0  0  0  0
   11.9051  -16.5414   29.3514 C   0  0  0  0  0  0  0  0  0  0  0  0
   10.3781  -16.2948   27.4768 C   0  0  2  0  0  0  0  0  0  0  0  0
    9.6741  -15.4032   26.5780 N   0  0  0  0  0  0  0  0  0  0  0  0
    9.6614  -17.5704   27.6825 C   0  0  0  0  0  0  0  0  0  0  0  0
    8.4364  -17.6601   27.9094 O   0  0  0  0  0  0  0  0  0  0  0  0
   10.3472  -18.8002   27.6321 O   0  0  0  0  0  0  0  0  0  0  0  0
  2  1  1  6
  2  3  1  0
  4  2  1  0
  4  5  1  6
  6  4  1  0
  6  7  2  0
  9 11  1  0
  9  8  1  1
 10  9  1  0
 12 11  1  1
 12 13  1  0
 13  6  1  0
 14 12  1  0
 15 14  2  0
 16 17  1  0
 17 18  1  0
 18 20  1  0
 18 19  1  6
 20 21  1  1
 20 22  1  0
 21 14  1  0
 22 24  1  0
 23 22  2  0
M  END
$$$$
