VLI.pdb
     RDKit          3D

 24 23  0  0  1  0  0  0  0  0999 V2000
    6.5916  -20.7640   25.8234 C   0  0  0  0  0  0  0  0  0  0  0  0
    7.3039  -19.6305   25.1659 C   0  0  2  0  0  0  0  0  0  0  0  0
    7.1899  -18.3739   26.0155 C   0  0  0  0  0  0  0  0  0  0  0  0
    6.8162  -19.3076   23.7885 C   0  0  2  0  0  0  0  0  0  0  0  0
    6.8102  -20.5007   22.9839 N   0  0  0  0  0  0  0  0  0  0  0  0
    7.5883  -18.2647   23.1065 C   0  0  0  0  0  0  0  0  0  0  0  0
    8.7497  -18.5034   22.6381 O   0  0  0  0  0  0  0  0  0  0  0  0
    8.5777  -13.8429   20.1923 C   0  0  0  0  0  0  0  0  0  0  0  0
    7.8983  -13.5318   21.5208 C   0  0  1  0  0  0  0  0  0  0  0  0
    6.9442  -12.3724   21.2349 C   0  0  0  0  0  0  0  0  0  0  0  0
    7.1097  -14.7414   21.9220 C   0  0  0  0  0  0  0  0  0  0  0  0
    7.9571  -15.8581   22.4541 C   0  0  2  0  0  0  0  0  0  0  0  0
    7.1147  -16.9343   22.9173 N   0  0  0  0  0  0  0  0  0  0  0  0
    8.7886  -15.2981   23.5685 C   0  0  0  0  0  0  0  0  0  0  0  0
    9.8352  -14.6402   23.3381 O   0  0  0  0  0  0  0  0  0  0  0  0
    6.7577  -11.8377   26.5013 C   0  0  0  0  0  0  0  0  0  0  0  0
    7.7075  -12.7716   25.7584 C   0  0  0  0  0  0  0  0  0  0  0  0
    8.3257  -13.7589   26.6747 C   0  0  2  0  0  0  0  0  0  0  0  0
    9.2569  -13.0284   27.6492 C   0  0  0  0  0  0  0  0  0  0  0  0
    9.1208  -14.8468   26.0425 C   0  0  2  0  0  0  0  0  0  0  0  0
    8.4391  -15.4809   24.9326 N   0  0  0  0  0  0  0  0  0  0  0  0
    9.7128  -15.8275   26.9757 C   0  0  0  0  0  0  0  0  0  0  0  0
    9.3008  -16.9977   27.1210 O   0  0  0  0  0  0  0  0  0  0  0  0
   10.8153  -15.4822   27.7824 O   0  0  0  0  0  0  0  0  0  0  0  0
  2  1  1  1
  2  3  1  0
  4  2  1  0
  4  5  1  6
  6  4  1  0
  6  7  2  0
  9 11  1  0
  9  8  1  6
 10  9  1  0
 12 11  1  1
 12 13  1  0
 13  6  1  0
 14 12  1  0
 15 14  2  0
 16 17  1  0
 17 18  1  0
 18 20  1  0
 18 19  1  1
 20 21  1  6
 20 22  1  0
 21 14  1  0
 22 24  1  0
 23 22  2  0
M  END
$$$$
