VLI.pdb
     RDKit          3D

 24 23  0  0  1  0  0  0  0  0999 V2000
    6.8257  -15.8880   20.5079 C   0  0  0  0  0  0  0  0  0  0  0  0
    7.8235  -16.9960   20.5364 C   0  0  2  0  0  0  0  0  0  0  0  0
    7.2164  -18.2656   19.9591 C   0  0  0  0  0  0  0  0  0  0  0  0
    8.3592  -17.3125   21.8973 C   0  0  2  0  0  0  0  0  0  0  0  0
    7.3061  -17.8440   22.7217 N   0  0  0  0  0  0  0  0  0  0  0  0
    8.9822  -16.1735   22.5782 C   0  0  0  0  0  0  0  0  0  0  0  0
   10.0357  -15.6243   22.1158 O   0  0  0  0  0  0  0  0  0  0  0  0
    5.6959  -13.2790   25.6185 C   0  0  0  0  0  0  0  0  0  0  0  0
    6.6996  -13.7572   24.5758 C   0  0  1  0  0  0  0  0  0  0  0  0
    6.6179  -12.7478   23.4309 C   0  0  0  0  0  0  0  0  0  0  0  0
    8.0622  -13.6997   25.1971 C   0  0  0  0  0  0  0  0  0  0  0  0
    9.0957  -14.4838   24.4450 C   0  0  2  0  0  0  0  0  0  0  0  0
    8.4732  -15.6034   23.7806 N   0  0  0  0  0  0  0  0  0  0  0  0
   10.1220  -14.9404   25.4374 C   0  0  0  0  0  0  0  0  0  0  0  0
   10.9514  -14.1385   25.9380 O   0  0  0  0  0  0  0  0  0  0  0  0
   10.5613  -13.8839   29.6256 C   0  0  0  0  0  0  0  0  0  0  0  0
   11.0635  -14.5836   28.3668 C   0  0  0  0  0  0  0  0  0  0  0  0
   10.5393  -15.9663   28.2681 C   0  0  2  0  0  0  0  0  0  0  0  0
   11.0239  -16.7769   29.4757 C   0  0  0  0  0  0  0  0  0  0  0  0
   10.9118  -16.7337   27.0483 C   0  0  2  0  0  0  0  0  0  0  0  0
   10.2097  -16.2932   25.8602 N   0  0  0  0  0  0  0  0  0  0  0  0
   10.9060  -18.2040   27.1946 C   0  0  0  0  0  0  0  0  0  0  0  0
   11.6122  -18.8323   28.0111 O   0  0  0  0  0  0  0  0  0  0  0  0
   10.0723  -19.0064   26.3905 O   0  0  0  0  0  0  0  0  0  0  0  0
  2  1  1  1
  2  3  1  0
  4  2  1  0
  4  5  1  1
  6  4  1  0
  6  7  2  0
  9 11  1  0
  9  8  1  1
 10  9  1  0
 12 11  1  1
 12 13  1  0
 13  6  1  0
 14 12  1  0
 15 14  2  0
 16 17  1  0
 17 18  1  0
 18 20  1  0
 18 19  1  1
 20 21  1  6
 20 22  1  0
 21 14  1  0
 22 24  1  0
 23 22  2  0
M  END
$$$$
