VLI.pdb
     RDKit          3D

 24 23  0  0  1  0  0  0  0  0999 V2000
    8.4690  -16.3238   19.4707 C   0  0  0  0  0  0  0  0  0  0  0  0
    9.4442  -17.3926   19.8323 C   0  0  2  0  0  0  0  0  0  0  0  0
    9.2151  -18.6265   18.9727 C   0  0  0  0  0  0  0  0  0  0  0  0
    9.4011  -17.8107   21.2685 C   0  0  2  0  0  0  0  0  0  0  0  0
    8.2039  -18.5696   21.5172 N   0  0  0  0  0  0  0  0  0  0  0  0
    9.4791  -16.6990   22.2209 C   0  0  0  0  0  0  0  0  0  0  0  0
   10.5141  -15.9575   22.2861 O   0  0  0  0  0  0  0  0  0  0  0  0
    7.6618  -12.3809   24.6693 C   0  0  0  0  0  0  0  0  0  0  0  0
    7.2273  -13.6359   25.4173 C   0  0  1  0  0  0  0  0  0  0  0  0
    5.8101  -13.3505   25.9139 C   0  0  0  0  0  0  0  0  0  0  0  0
    7.1941  -14.7639   24.4312 C   0  0  0  0  0  0  0  0  0  0  0  0
    8.5493  -15.3238   24.1176 C   0  0  2  0  0  0  0  0  0  0  0  0
    8.4312  -16.3666   23.1271 N   0  0  0  0  0  0  0  0  0  0  0  0
    9.1243  -15.8501   25.3978 C   0  0  0  0  0  0  0  0  0  0  0  0
    8.4668  -16.6202   26.1435 O   0  0  0  0  0  0  0  0  0  0  0  0
   10.2308  -12.7933   29.2091 C   0  0  0  0  0  0  0  0  0  0  0  0
   10.7121  -13.5831   27.9964 C   0  0  0  0  0  0  0  0  0  0  0  0
   10.6279  -15.0440   28.2312 C   0  0  2  0  0  0  0  0  0  0  0  0
   11.5307  -15.4178   29.4124 C   0  0  0  0  0  0  0  0  0  0  0  0
   11.0098  -15.9240   27.0931 C   0  0  2  0  0  0  0  0  0  0  0  0
   10.4326  -15.5081   25.8313 N   0  0  0  0  0  0  0  0  0  0  0  0
   10.8595  -17.3745   27.3316 C   0  0  0  0  0  0  0  0  0  0  0  0
   11.5589  -18.0320   28.1307 O   0  0  0  0  0  0  0  0  0  0  0  0
    9.8825  -18.1218   26.6444 O   0  0  0  0  0  0  0  0  0  0  0  0
  2  1  1  1
  2  3  1  0
  4  2  1  0
  4  5  1  6
  6  4  1  0
  6  7  2  0
  9 11  1  0
  9  8  1  6
 10  9  1  0
 12 11  1  1
 12 13  1  0
 13  6  1  0
 14 12  1  0
 15 14  2  0
 16 17  1  0
 17 18  1  0
 18 20  1  0
 18 19  1  1
 20 21  1  6
 20 22  1  0
 21 14  1  0
 22 24  1  0
 23 22  2  0
M  END
$$$$
