VLI.pdb
     RDKit          3D

 24 23  0  0  1  0  0  0  0  0999 V2000
    6.3680  -20.6956   23.8329 C   0  0  0  0  0  0  0  0  0  0  0  0
    7.1351  -19.4360   24.0549 C   0  0  2  0  0  0  0  0  0  0  0  0
    7.3128  -19.1840   25.5445 C   0  0  0  0  0  0  0  0  0  0  0  0
    6.5151  -18.2174   23.4468 C   0  0  2  0  0  0  0  0  0  0  0  0
    6.2866  -18.4385   22.0432 N   0  0  0  0  0  0  0  0  0  0  0  0
    7.2989  -16.9915   23.6249 C   0  0  0  0  0  0  0  0  0  0  0  0
    8.3516  -16.7759   22.9389 O   0  0  0  0  0  0  0  0  0  0  0  0
    5.6206  -12.1526   26.4009 C   0  0  0  0  0  0  0  0  0  0  0  0
    6.2895  -12.9096   25.2595 C   0  0  1  0  0  0  0  0  0  0  0  0
    7.1509  -11.8791   24.5297 C   0  0  0  0  0  0  0  0  0  0  0  0
    7.1709  -13.9593   25.8655 C   0  0  0  0  0  0  0  0  0  0  0  0
    7.8210  -14.8522   24.8514 C   0  0  2  0  0  0  0  0  0  0  0  0
    6.9558  -15.9686   24.5554 N   0  0  0  0  0  0  0  0  0  0  0  0
    9.1256  -15.3116   25.4292 C   0  0  0  0  0  0  0  0  0  0  0  0
   10.2239  -14.9693   24.9212 O   0  0  0  0  0  0  0  0  0  0  0  0
   10.5454  -13.9337   30.2084 C   0  0  0  0  0  0  0  0  0  0  0  0
    9.9187  -14.9670   29.2780 C   0  0  0  0  0  0  0  0  0  0  0  0
   10.8485  -15.3536   28.1905 C   0  0  2  0  0  0  0  0  0  0  0  0
   11.1191  -14.1346   27.3012 C   0  0  0  0  0  0  0  0  0  0  0  0
   10.4045  -16.4575   27.2963 C   0  0  2  0  0  0  0  0  0  0  0  0
    9.1875  -16.1514   26.5726 N   0  0  0  0  0  0  0  0  0  0  0  0
   10.3729  -17.8010   27.9107 C   0  0  0  0  0  0  0  0  0  0  0  0
    9.3584  -18.5278   27.9607 O   0  0  0  0  0  0  0  0  0  0  0  0
   11.5291  -18.3549   28.4953 O   0  0  0  0  0  0  0  0  0  0  0  0
  2  1  1  1
  2  3  1  0
  4  2  1  0
  4  5  1  6
  6  4  1  0
  6  7  2  0
  9 11  1  0
  9  8  1  1
 10  9  1  0
 12 11  1  1
 12 13  1  0
 13  6  1  0
 14 12  1  0
 15 14  2  0
 16 17  1  0
 17 18  1  0
 18 20  1  0
 18 19  1  6
 20 21  1  1
 20 22  1  0
 21 14  1  0
 22 24  1  0
 23 22  2  0
M  END
$$$$
