VLI.pdb
     RDKit          3D

 24 23  0  0  1  0  0  0  0  0999 V2000
   12.1912  -20.0269   21.0442 C   0  0  0  0  0  0  0  0  0  0  0  0
   11.5289  -18.8619   21.6988 C   0  0  2  0  0  0  0  0  0  0  0  0
   10.1745  -19.2720   22.2567 C   0  0  0  0  0  0  0  0  0  0  0  0
   11.3256  -17.6808   20.8028 C   0  0  2  0  0  0  0  0  0  0  0  0
   12.5839  -17.2870   20.2260 N   0  0  0  0  0  0  0  0  0  0  0  0
   10.7096  -16.5252   21.4617 C   0  0  0  0  0  0  0  0  0  0  0  0
   11.3488  -15.8408   22.3268 O   0  0  0  0  0  0  0  0  0  0  0  0
    6.5935  -13.4635   19.0910 C   0  0  0  0  0  0  0  0  0  0  0  0
    7.8972  -13.9527   19.7110 C   0  0  1  0  0  0  0  0  0  0  0  0
    8.7798  -12.7123   19.8487 C   0  0  0  0  0  0  0  0  0  0  0  0
    7.5783  -14.4933   21.0719 C   0  0  0  0  0  0  0  0  0  0  0  0
    8.7887  -14.9370   21.8376 C   0  0  2  0  0  0  0  0  0  0  0  0
    9.3809  -16.0855   21.1950 N   0  0  0  0  0  0  0  0  0  0  0  0
    8.3435  -15.2612   23.2316 C   0  0  0  0  0  0  0  0  0  0  0  0
    8.2805  -16.4491   23.6397 O   0  0  0  0  0  0  0  0  0  0  0  0
    7.1138  -10.8551   26.6287 C   0  0  0  0  0  0  0  0  0  0  0  0
    7.8324  -12.1439   26.2431 C   0  0  0  0  0  0  0  0  0  0  0  0
    6.8873  -13.2800   26.1304 C   0  0  2  0  0  0  0  0  0  0  0  0
    6.4230  -13.6907   27.5325 C   0  0  0  0  0  0  0  0  0  0  0  0
    7.3990  -14.5075   25.4620 C   0  0  2  0  0  0  0  0  0  0  0  0
    7.9723  -14.2499   24.1569 N   0  0  0  0  0  0  0  0  0  0  0  0
    6.4753  -15.6608   25.4550 C   0  0  0  0  0  0  0  0  0  0  0  0
    5.5908  -15.8482   24.5933 O   0  0  0  0  0  0  0  0  0  0  0  0
    6.5452  -16.6479   26.4581 O   0  0  0  0  0  0  0  0  0  0  0  0
  2  1  1  6
  2  3  1  0
  4  2  1  0
  4  5  1  1
  6  4  1  0
  6  7  2  0
  9 11  1  0
  9  8  1  1
 10  9  1  0
 12 11  1  6
 12 13  1  0
 13  6  1  0
 14 12  1  0
 15 14  2  0
 16 17  1  0
 17 18  1  0
 18 20  1  0
 18 19  1  1
 20 21  1  6
 20 22  1  0
 21 14  1  0
 22 24  1  0
 23 22  2  0
M  END
$$$$
