VLI.pdb
     RDKit          3D

 24 23  0  0  1  0  0  0  0  0999 V2000
    8.5943  -18.9069   20.7075 C   0  0  0  0  0  0  0  0  0  0  0  0
    8.8913  -17.9884   21.8444 C   0  0  2  0  0  0  0  0  0  0  0  0
    8.1097  -18.4101   23.0793 C   0  0  0  0  0  0  0  0  0  0  0  0
    8.5909  -16.5480   21.5720 C   0  0  2  0  0  0  0  0  0  0  0  0
    9.3725  -16.0926   20.4527 N   0  0  0  0  0  0  0  0  0  0  0  0
    8.8164  -15.6600   22.7163 C   0  0  0  0  0  0  0  0  0  0  0  0
    9.9956  -15.3793   23.1113 O   0  0  0  0  0  0  0  0  0  0  0  0
    7.6301  -11.6331   26.1914 C   0  0  0  0  0  0  0  0  0  0  0  0
    6.8205  -12.9079   26.3986 C   0  0  1  0  0  0  0  0  0  0  0  0
    5.4310  -12.4473   26.8388 C   0  0  0  0  0  0  0  0  0  0  0  0
    6.7209  -13.6031   25.0747 C   0  0  0  0  0  0  0  0  0  0  0  0
    7.9870  -14.2947   24.6660 C   0  0  2  0  0  0  0  0  0  0  0  0
    7.7626  -15.0548   23.4601 N   0  0  0  0  0  0  0  0  0  0  0  0
    8.3996  -15.1823   25.8013 C   0  0  0  0  0  0  0  0  0  0  0  0
    7.6729  -16.1334   26.1868 O   0  0  0  0  0  0  0  0  0  0  0  0
   12.7514  -18.7812   26.9432 C   0  0  0  0  0  0  0  0  0  0  0  0
   11.7759  -17.8886   27.7034 C   0  0  0  0  0  0  0  0  0  0  0  0
   11.2252  -16.8219   26.8341 C   0  0  2  0  0  0  0  0  0  0  0  0
   12.3670  -15.9111   26.3686 C   0  0  0  0  0  0  0  0  0  0  0  0
   10.1836  -15.9450   27.4354 C   0  0  2  0  0  0  0  0  0  0  0  0
    9.6245  -14.9955   26.4951 N   0  0  0  0  0  0  0  0  0  0  0  0
   10.5456  -15.3175   28.7232 C   0  0  0  0  0  0  0  0  0  0  0  0
   10.6705  -14.0867   28.8953 O   0  0  0  0  0  0  0  0  0  0  0  0
   10.7782  -16.1035   29.8693 O   0  0  0  0  0  0  0  0  0  0  0  0
  2  1  1  6
  2  3  1  0
  4  2  1  0
  4  5  1  6
  6  4  1  0
  6  7  2  0
  9 11  1  0
  9  8  1  6
 10  9  1  0
 12 11  1  1
 12 13  1  0
 13  6  1  0
 14 12  1  0
 15 14  2  0
 16 17  1  0
 17 18  1  0
 18 20  1  0
 18 19  1  1
 20 21  1  6
 20 22  1  0
 21 14  1  0
 22 24  1  0
 23 22  2  0
M  END
$$$$
