VLI.pdb
     RDKit          3D

 24 23  0  0  1  0  0  0  0  0999 V2000
    9.3923  -20.9081   22.0348 C   0  0  0  0  0  0  0  0  0  0  0  0
    9.5853  -19.4654   22.3599 C   0  0  2  0  0  0  0  0  0  0  0  0
    9.1188  -19.1790   23.7791 C   0  0  0  0  0  0  0  0  0  0  0  0
    8.8784  -18.5224   21.4377 C   0  0  2  0  0  0  0  0  0  0  0  0
    9.0906  -18.9278   20.0733 N   0  0  0  0  0  0  0  0  0  0  0  0
    9.2721  -17.1192   21.5953 C   0  0  0  0  0  0  0  0  0  0  0  0
   10.4783  -16.7481   21.4146 O   0  0  0  0  0  0  0  0  0  0  0  0
    6.2514  -13.0465   19.7776 C   0  0  0  0  0  0  0  0  0  0  0  0
    7.4324  -13.9419   20.1338 C   0  0  1  0  0  0  0  0  0  0  0  0
    8.6238  -13.3822   19.3566 C   0  0  0  0  0  0  0  0  0  0  0  0
    7.6831  -13.7996   21.6044 C   0  0  0  0  0  0  0  0  0  0  0  0
    8.7611  -14.7069   22.1176 C   0  0  2  0  0  0  0  0  0  0  0  0
    8.3614  -16.0838   21.9539 N   0  0  0  0  0  0  0  0  0  0  0  0
    8.9803  -14.3706   23.5617 C   0  0  0  0  0  0  0  0  0  0  0  0
    9.2954  -13.2080   23.9231 O   0  0  0  0  0  0  0  0  0  0  0  0
    6.9225  -11.6427   26.0718 C   0  0  0  0  0  0  0  0  0  0  0  0
    7.9943  -12.6489   25.6658 C   0  0  0  0  0  0  0  0  0  0  0  0
    7.7790  -13.9636   26.3152 C   0  0  2  0  0  0  0  0  0  0  0  0
    7.7807  -13.7806   27.8372 C   0  0  0  0  0  0  0  0  0  0  0  0
    8.7684  -15.0306   26.0018 C   0  0  2  0  0  0  0  0  0  0  0  0
    8.8443  -15.3415   24.5890 N   0  0  0  0  0  0  0  0  0  0  0  0
    8.6853  -16.2427   26.8427 C   0  0  0  0  0  0  0  0  0  0  0  0
    8.0593  -17.2764   26.5267 O   0  0  0  0  0  0  0  0  0  0  0  0
    9.3318  -16.2996   28.0934 O   0  0  0  0  0  0  0  0  0  0  0  0
  2  1  1  6
  2  3  1  0
  4  2  1  0
  4  5  1  6
  6  4  1  0
  6  7  2  0
  9 11  1  0
  9  8  1  6
 10  9  1  0
 12 11  1  1
 12 13  1  0
 13  6  1  0
 14 12  1  0
 15 14  2  0
 16 17  1  0
 17 18  1  0
 18 20  1  0
 18 19  1  1
 20 21  1  6
 20 22  1  0
 21 14  1  0
 22 24  1  0
 23 22  2  0
M  END
$$$$
