VLI.pdb
     RDKit          3D

 24 23  0  0  1  0  0  0  0  0999 V2000
    6.9534  -14.4662   20.2364 C   0  0  0  0  0  0  0  0  0  0  0  0
    8.2097  -15.1597   19.8301 C   0  0  2  0  0  0  0  0  0  0  0  0
    7.9720  -15.9865   18.5756 C   0  0  0  0  0  0  0  0  0  0  0  0
    8.7880  -16.0582   20.8777 C   0  0  2  0  0  0  0  0  0  0  0  0
    7.9294  -17.1974   21.0677 N   0  0  0  0  0  0  0  0  0  0  0  0
    9.0213  -15.4041   22.1687 C   0  0  0  0  0  0  0  0  0  0  0  0
   10.0303  -14.6466   22.3517 O   0  0  0  0  0  0  0  0  0  0  0  0
    5.4223  -13.2981   26.1981 C   0  0  0  0  0  0  0  0  0  0  0  0
    6.5291  -13.4388   25.1596 C   0  0  1  0  0  0  0  0  0  0  0  0
    7.5518  -12.3539   25.4969 C   0  0  0  0  0  0  0  0  0  0  0  0
    7.1537  -14.7889   25.3414 C   0  0  0  0  0  0  0  0  0  0  0  0
    8.4336  -14.9629   24.5797 C   0  0  2  0  0  0  0  0  0  0  0  0
    8.1611  -15.5586   23.2939 N   0  0  0  0  0  0  0  0  0  0  0  0
    9.3317  -15.8340   25.4051 C   0  0  0  0  0  0  0  0  0  0  0  0
    9.6186  -17.0048   25.0469 O   0  0  0  0  0  0  0  0  0  0  0  0
   11.4929  -13.2637   29.7635 C   0  0  0  0  0  0  0  0  0  0  0  0
   11.6827  -14.1467   28.5344 C   0  0  0  0  0  0  0  0  0  0  0  0
   11.1237  -15.5026   28.7482 C   0  0  2  0  0  0  0  0  0  0  0  0
   12.1846  -16.3862   29.4144 C   0  0  0  0  0  0  0  0  0  0  0  0
   10.6503  -16.2258   27.5364 C   0  0  2  0  0  0  0  0  0  0  0  0
    9.9007  -15.3845   26.6260 N   0  0  0  0  0  0  0  0  0  0  0  0
    9.9833  -17.5201   27.7875 C   0  0  0  0  0  0  0  0  0  0  0  0
    8.7792  -17.6426   28.0963 O   0  0  0  0  0  0  0  0  0  0  0  0
   10.6966  -18.7312   27.6886 O   0  0  0  0  0  0  0  0  0  0  0  0
  2  1  1  1
  2  3  1  0
  4  2  1  0
  4  5  1  1
  6  4  1  0
  6  7  2  0
  9 11  1  0
  9  8  1  1
 10  9  1  0
 12 11  1  1
 12 13  1  0
 13  6  1  0
 14 12  1  0
 15 14  2  0
 16 17  1  0
 17 18  1  0
 18 20  1  0
 18 19  1  6
 20 21  1  1
 20 22  1  0
 21 14  1  0
 22 24  1  0
 23 22  2  0
M  END
$$$$
