VLI.pdb
     RDKit          3D

 24 23  0  0  1  0  0  0  0  0999 V2000
    8.6009  -18.3033   20.9919 C   0  0  0  0  0  0  0  0  0  0  0  0
    7.6827  -17.2333   20.5058 C   0  0  2  0  0  0  0  0  0  0  0  0
    7.2096  -17.5473   19.0946 C   0  0  0  0  0  0  0  0  0  0  0  0
    8.2777  -15.8603   20.5031 C   0  0  2  0  0  0  0  0  0  0  0  0
    9.4156  -15.8263   19.6228 N   0  0  0  0  0  0  0  0  0  0  0  0
    8.6730  -15.3738   21.8283 C   0  0  0  0  0  0  0  0  0  0  0  0
    9.8838  -15.4415   22.2217 O   0  0  0  0  0  0  0  0  0  0  0  0
    8.3112  -12.2369   26.2320 C   0  0  0  0  0  0  0  0  0  0  0  0
    7.2642  -13.3438   26.1893 C   0  0  1  0  0  0  0  0  0  0  0  0
    6.0023  -12.7423   26.8074 C   0  0  0  0  0  0  0  0  0  0  0  0
    7.0085  -13.6720   24.7495 C   0  0  0  0  0  0  0  0  0  0  0  0
    8.1407  -14.4036   24.0929 C   0  0  2  0  0  0  0  0  0  0  0  0
    7.7591  -14.8009   22.7591 N   0  0  0  0  0  0  0  0  0  0  0  0
    8.4603  -15.5938   24.9461 C   0  0  0  0  0  0  0  0  0  0  0  0
    7.6058  -16.4894   25.1677 O   0  0  0  0  0  0  0  0  0  0  0  0
   12.6939  -18.3107   23.5535 C   0  0  0  0  0  0  0  0  0  0  0  0
   11.3460  -17.8432   24.0929 C   0  0  0  0  0  0  0  0  0  0  0  0
   11.4109  -17.5609   25.5464 C   0  0  2  0  0  0  0  0  0  0  0  0
   11.7441  -18.8553   26.2971 C   0  0  0  0  0  0  0  0  0  0  0  0
   10.1826  -16.9972   26.1703 C   0  0  2  0  0  0  0  0  0  0  0  0
    9.7363  -15.7696   25.5441 N   0  0  0  0  0  0  0  0  0  0  0  0
   10.2030  -16.9037   27.6447 C   0  0  0  0  0  0  0  0  0  0  0  0
   10.1355  -17.8863   28.4128 O   0  0  0  0  0  0  0  0  0  0  0  0
   10.3033  -15.6538   28.2876 O   0  0  0  0  0  0  0  0  0  0  0  0
  2  1  1  6
  2  3  1  0
  4  2  1  0
  4  5  1  6
  6  4  1  0
  6  7  2  0
  9 11  1  0
  9  8  1  6
 10  9  1  0
 12 11  1  1
 12 13  1  0
 13  6  1  0
 14 12  1  0
 15 14  2  0
 16 17  1  0
 17 18  1  0
 18 20  1  0
 18 19  1  1
 20 21  1  6
 20 22  1  0
 21 14  1  0
 22 24  1  0
 23 22  2  0
M  END
$$$$
