VLI.pdb
     RDKit          3D

 24 23  0  0  1  0  0  0  0  0999 V2000
   10.3899  -18.2668   21.4825 C   0  0  0  0  0  0  0  0  0  0  0  0
    9.0133  -17.8095   21.1360 C   0  0  2  0  0  0  0  0  0  0  0  0
    8.5837  -18.3987   19.8010 C   0  0  0  0  0  0  0  0  0  0  0  0
    8.8542  -16.3234   21.0623 C   0  0  2  0  0  0  0  0  0  0  0  0
    9.7409  -15.7895   20.0624 N   0  0  0  0  0  0  0  0  0  0  0  0
    9.0814  -15.6306   22.3340 C   0  0  0  0  0  0  0  0  0  0  0  0
   10.2110  -15.1062   22.6070 O   0  0  0  0  0  0  0  0  0  0  0  0
    5.2121  -12.9994   25.6997 C   0  0  0  0  0  0  0  0  0  0  0  0
    6.4541  -13.2579   24.8548 C   0  0  1  0  0  0  0  0  0  0  0  0
    7.4188  -12.1176   25.1795 C   0  0  0  0  0  0  0  0  0  0  0  0
    7.0473  -14.5584   25.3050 C   0  0  0  0  0  0  0  0  0  0  0  0
    8.3431  -14.8907   24.6277 C   0  0  2  0  0  0  0  0  0  0  0  0
    8.0836  -15.4912   23.3414 N   0  0  0  0  0  0  0  0  0  0  0  0
    9.0913  -15.8284   25.5264 C   0  0  0  0  0  0  0  0  0  0  0  0
    9.1144  -17.0666   25.3078 O   0  0  0  0  0  0  0  0  0  0  0  0
   10.8891  -13.2351   29.8372 C   0  0  0  0  0  0  0  0  0  0  0  0
   11.3698  -14.1509   28.7164 C   0  0  0  0  0  0  0  0  0  0  0  0
   10.8472  -15.5283   28.8785 C   0  0  2  0  0  0  0  0  0  0  0  0
   11.9105  -16.3937   29.5645 C   0  0  0  0  0  0  0  0  0  0  0  0
   10.4425  -16.2373   27.6339 C   0  0  2  0  0  0  0  0  0  0  0  0
    9.8075  -15.3693   26.6634 N   0  0  0  0  0  0  0  0  0  0  0  0
    9.7006  -17.4995   27.8328 C   0  0  0  0  0  0  0  0  0  0  0  0
    8.4833  -17.5645   28.1047 O   0  0  0  0  0  0  0  0  0  0  0  0
   10.3512  -18.7445   27.7225 O   0  0  0  0  0  0  0  0  0  0  0  0
  2  1  1  6
  2  3  1  0
  4  2  1  0
  4  5  1  6
  6  4  1  0
  6  7  2  0
  9 11  1  0
  9  8  1  1
 10  9  1  0
 12 11  1  1
 12 13  1  0
 13  6  1  0
 14 12  1  0
 15 14  2  0
 16 17  1  0
 17 18  1  0
 18 20  1  0
 18 19  1  6
 20 21  1  6
 20 22  1  0
 21 14  1  0
 22 24  1  0
 23 22  2  0
M  END
$$$$
