ATA.pdb
     RDKit          3D

 18 17  0  0  1  0  0  0  0  0999 V2000
   25.6724  -11.9248  -15.9352 C   0  0  0  0  0  0  0  0  0  0  0  0
   24.2129  -12.2461  -16.1375 C   0  0  2  0  0  0  0  0  0  0  0  0
   24.0941  -13.2283  -17.1707 N   0  0  0  0  0  0  0  0  0  0  0  0
   23.4077  -11.0260  -16.4097 C   0  0  0  0  0  0  0  0  0  0  0  0
   23.4413  -10.5042  -17.5540 O   0  0  0  0  0  0  0  0  0  0  0  0
   19.5863  -10.4780  -15.9091 C   0  0  0  0  0  0  0  0  0  0  0  0
   20.3636   -9.4354  -15.1345 C   0  0  1  0  0  0  0  0  0  0  0  0
   20.4660   -9.8139  -13.7940 O   0  0  0  0  0  0  0  0  0  0  0  0
   21.7626   -9.2566  -15.7391 C   0  0  2  0  0  0  0  0  0  0  0  0
   22.5907  -10.4048  -15.4410 N   0  0  0  0  0  0  0  0  0  0  0  0
   22.3209   -8.0130  -15.1618 C   0  0  0  0  0  0  0  0  0  0  0  0
   23.0320   -8.1264  -14.1421 O   0  0  0  0  0  0  0  0  0  0  0  0
   22.3675   -4.2964  -16.0013 C   0  0  0  0  0  0  0  0  0  0  0  0
   22.6663   -5.5146  -15.1604 C   0  0  2  0  0  0  0  0  0  0  0  0
   22.0978   -6.7178  -15.6927 N   0  0  0  0  0  0  0  0  0  0  0  0
   22.0313   -5.2771  -13.8227 C   0  0  0  0  0  0  0  0  0  0  0  0
   20.9623   -5.8652  -13.5962 O   0  0  0  0  0  0  0  0  0  0  0  0
   22.6028   -4.4401  -12.8724 O   0  0  0  0  0  0  0  0  0  0  0  0
  2  1  1  6
  3  2  1  0
  4 10  1  0
  4  2  1  0
  5  4  2  0
  7  6  1  6
  7  9  1  0
  7  8  1  0
  9 11  1  0
  9 10  1  1
 11 12  2  0
 14 13  1  6
 14 16  1  0
 15 14  1  0
 15 11  1  0
 16 18  1  0
 17 16  2  0
M  END
$$$$
