ATA.pdb
     RDKit          3D

 18 17  0  0  1  0  0  0  0  0999 V2000
   23.4550  -35.3053    4.5498 C   0  0  0  0  0  0  0  0  0  0  0  0
   24.2321  -34.1563    5.1418 C   0  0  2  0  0  0  0  0  0  0  0  0
   23.3153  -33.1310    5.5346 N   0  0  0  0  0  0  0  0  0  0  0  0
   25.2847  -33.6614    4.2154 C   0  0  0  0  0  0  0  0  0  0  0  0
   24.9785  -32.8424    3.3108 O   0  0  0  0  0  0  0  0  0  0  0  0
   28.5660  -31.8982    5.2358 C   0  0  0  0  0  0  0  0  0  0  0  0
   28.8838  -33.0981    4.3695 C   0  0  1  0  0  0  0  0  0  0  0  0
   29.2323  -34.1874    5.1712 O   0  0  0  0  0  0  0  0  0  0  0  0
   27.6766  -33.4555    3.4921 C   0  0  2  0  0  0  0  0  0  0  0  0
   26.6353  -34.0637    4.2913 N   0  0  0  0  0  0  0  0  0  0  0  0
   28.1700  -34.3752    2.4422 C   0  0  0  0  0  0  0  0  0  0  0  0
   28.2030  -35.5920    2.7192 O   0  0  0  0  0  0  0  0  0  0  0  0
   29.2948  -34.1750   -1.1886 C   0  0  0  0  0  0  0  0  0  0  0  0
   29.1358  -34.8381    0.1588 C   0  0  2  0  0  0  0  0  0  0  0  0
   28.6015  -33.9600    1.1575 N   0  0  0  0  0  0  0  0  0  0  0  0
   30.5116  -35.2343    0.6054 C   0  0  0  0  0  0  0  0  0  0  0  0
   31.0584  -34.5083    1.4503 O   0  0  0  0  0  0  0  0  0  0  0  0
   31.1551  -36.3591    0.1044 O   0  0  0  0  0  0  0  0  0  0  0  0
  2  1  1  6
  3  2  1  0
  4 10  1  0
  4  2  1  0
  5  4  2  0
  7  6  1  1
  7  9  1  0
  7  8  1  0
  9 11  1  0
  9 10  1  1
 11 12  2  0
 14 13  1  6
 14 16  1  0
 15 14  1  0
 15 11  1  0
 16 18  1  0
 17 16  2  0
M  END
$$$$
