ATA.pdb
     RDKit          3D

 18 17  0  0  1  0  0  0  0  0999 V2000
   15.1360   -6.7333   -7.1339 C   0  0  0  0  0  0  0  0  0  0  0  0
   14.6440   -7.3208   -8.4328 C   0  0  2  0  0  0  0  0  0  0  0  0
   13.6286   -8.2874   -8.1484 N   0  0  0  0  0  0  0  0  0  0  0  0
   15.7562   -7.8787   -9.2470 C   0  0  0  0  0  0  0  0  0  0  0  0
   16.2882   -8.9667   -8.9060 O   0  0  0  0  0  0  0  0  0  0  0  0
   15.7717   -9.4854  -12.4324 C   0  0  0  0  0  0  0  0  0  0  0  0
   16.6462   -8.2611  -12.5992 C   0  0  1  0  0  0  0  0  0  0  0  0
   15.8946   -7.2038  -13.1166 O   0  0  0  0  0  0  0  0  0  0  0  0
   17.2616   -7.8594  -11.2521 C   0  0  2  0  0  0  0  0  0  0  0  0
   16.2617   -7.2480  -10.4039 N   0  0  0  0  0  0  0  0  0  0  0  0
   18.3715   -6.9267  -11.5516 C   0  0  0  0  0  0  0  0  0  0  0  0
   18.1321   -5.7052  -11.4551 O   0  0  0  0  0  0  0  0  0  0  0  0
   22.0122   -7.1473  -12.6615 C   0  0  0  0  0  0  0  0  0  0  0  0
   20.7352   -6.4361  -12.2820 C   0  0  2  0  0  0  0  0  0  0  0  0
   19.6733   -7.3345  -11.9364 N   0  0  0  0  0  0  0  0  0  0  0  0
   20.2942   -5.6725  -13.4950 C   0  0  0  0  0  0  0  0  0  0  0  0
   19.5013   -6.2432  -14.2602 O   0  0  0  0  0  0  0  0  0  0  0  0
   20.7448   -4.3855  -13.7614 O   0  0  0  0  0  0  0  0  0  0  0  0
  2  1  1  1
  3  2  1  0
  4 10  1  0
  4  2  1  0
  5  4  2  0
  7  6  1  1
  7  9  1  0
  7  8  1  0
  9 11  1  0
  9 10  1  1
 11 12  2  0
 14 13  1  6
 14 16  1  0
 15 14  1  0
 15 11  1  0
 16 18  1  0
 17 16  2  0
M  END
$$$$
