ATA.pdb
     RDKit          3D

 18 17  0  0  1  0  0  0  0  0999 V2000
   21.3023  -21.9640  -15.9155 C   0  0  0  0  0  0  0  0  0  0  0  0
   22.5671  -21.1426  -15.9077 C   0  0  2  0  0  0  0  0  0  0  0  0
   23.1630  -21.1981  -17.2070 N   0  0  0  0  0  0  0  0  0  0  0  0
   23.4992  -21.5676  -14.8298 C   0  0  0  0  0  0  0  0  0  0  0  0
   23.6177  -22.7907  -14.5601 O   0  0  0  0  0  0  0  0  0  0  0  0
   27.1688  -21.1723  -14.7856 C   0  0  0  0  0  0  0  0  0  0  0  0
   26.6558  -20.5151  -13.5222 C   0  0  1  0  0  0  0  0  0  0  0  0
   26.5543  -19.1347  -13.7089 O   0  0  0  0  0  0  0  0  0  0  0  0
   25.2884  -21.0960  -13.1378 C   0  0  2  0  0  0  0  0  0  0  0  0
   24.2753  -20.6622  -14.0751 N   0  0  0  0  0  0  0  0  0  0  0  0
   24.9987  -20.6304  -11.7626 C   0  0  0  0  0  0  0  0  0  0  0  0
   24.2233  -19.6597  -11.6404 O   0  0  0  0  0  0  0  0  0  0  0  0
   25.9841  -21.5681   -8.2020 C   0  0  0  0  0  0  0  0  0  0  0  0
   25.3642  -20.6965   -9.2680 C   0  0  2  0  0  0  0  0  0  0  0  0
   25.5435  -21.2151  -10.5920 N   0  0  0  0  0  0  0  0  0  0  0  0
   26.0741  -19.3768   -9.2078 C   0  0  0  0  0  0  0  0  0  0  0  0
   26.9034  -19.1441  -10.1011 O   0  0  0  0  0  0  0  0  0  0  0  0
   25.8242  -18.4493   -8.2040 O   0  0  0  0  0  0  0  0  0  0  0  0
  2  1  1  6
  3  2  1  0
  4 10  1  0
  4  2  1  0
  5  4  2  0
  7  6  1  6
  7  9  1  0
  7  8  1  0
  9 11  1  0
  9 10  1  6
 11 12  2  0
 14 13  1  1
 14 16  1  0
 15 14  1  0
 15 11  1  0
 16 18  1  0
 17 16  2  0
M  END
$$$$
