ATA.pdb
     RDKit          3D

 18 17  0  0  1  0  0  0  0  0999 V2000
   20.1865  -12.1464  -18.0755 C   0  0  0  0  0  0  0  0  0  0  0  0
   19.5115  -11.8790  -16.7536 C   0  0  2  0  0  0  0  0  0  0  0  0
   18.3120  -12.6549  -16.6810 N   0  0  0  0  0  0  0  0  0  0  0  0
   19.2709  -10.4279  -16.5359 C   0  0  0  0  0  0  0  0  0  0  0  0
   18.7491   -9.7422  -17.4526 O   0  0  0  0  0  0  0  0  0  0  0  0
   16.9358   -8.7400  -14.2856 C   0  0  0  0  0  0  0  0  0  0  0  0
   18.3146   -8.2409  -13.9100 C   0  0  1  0  0  0  0  0  0  0  0  0
   18.8057   -8.9666  -12.8224 O   0  0  0  0  0  0  0  0  0  0  0  0
   19.2705   -8.3700  -15.1034 C   0  0  2  0  0  0  0  0  0  0  0  0
   19.5997   -9.7592  -15.3373 N   0  0  0  0  0  0  0  0  0  0  0  0
   20.4719   -7.5693  -14.7760 C   0  0  0  0  0  0  0  0  0  0  0  0
   21.4498   -8.1783  -14.2951 O   0  0  0  0  0  0  0  0  0  0  0  0
   21.6629   -3.9899  -15.2849 C   0  0  0  0  0  0  0  0  0  0  0  0
   21.7760   -5.4105  -14.7854 C   0  0  2  0  0  0  0  0  0  0  0  0
   20.5751   -6.1695  -14.9742 N   0  0  0  0  0  0  0  0  0  0  0  0
   22.0208   -5.3262  -13.3082 C   0  0  0  0  0  0  0  0  0  0  0  0
   21.0852   -5.6591  -12.5641 O   0  0  0  0  0  0  0  0  0  0  0  0
   23.2339   -4.8970  -12.7842 O   0  0  0  0  0  0  0  0  0  0  0  0
  2  1  1  6
  3  2  1  0
  4 10  1  0
  4  2  1  0
  5  4  2  0
  7  6  1  6
  7  9  1  0
  7  8  1  0
  9 11  1  0
  9 10  1  1
 11 12  2  0
 14 13  1  1
 14 16  1  0
 15 14  1  0
 15 11  1  0
 16 18  1  0
 17 16  2  0
M  END
$$$$
