ATA.pdb
     RDKit          3D

 18 17  0  0  1  0  0  0  0  0999 V2000
   18.7529  -12.5298  -17.5403 C   0  0  0  0  0  0  0  0  0  0  0  0
   19.3453  -11.8092  -16.3553 C   0  0  2  0  0  0  0  0  0  0  0  0
   18.3894  -11.8045  -15.2912 N   0  0  0  0  0  0  0  0  0  0  0  0
   19.8139  -10.4439  -16.7124 C   0  0  0  0  0  0  0  0  0  0  0  0
   20.7014  -10.3043  -17.5932 O   0  0  0  0  0  0  0  0  0  0  0  0
   17.7405   -7.4109  -17.9382 C   0  0  0  0  0  0  0  0  0  0  0  0
   18.5074   -7.0319  -16.6894 C   0  0  1  0  0  0  0  0  0  0  0  0
   17.6763   -7.1269  -15.5710 O   0  0  0  0  0  0  0  0  0  0  0  0
   19.7281   -7.9457  -16.5169 C   0  0  2  0  0  0  0  0  0  0  0  0
   19.3123   -9.2703  -16.1101 N   0  0  0  0  0  0  0  0  0  0  0  0
   20.5979   -7.3082  -15.5026 C   0  0  0  0  0  0  0  0  0  0  0  0
   20.3887   -7.6001  -14.3070 O   0  0  0  0  0  0  0  0  0  0  0  0
   23.7053   -5.1175  -15.4452 C   0  0  0  0  0  0  0  0  0  0  0  0
   22.5092   -5.8056  -14.8318 C   0  0  2  0  0  0  0  0  0  0  0  0
   21.6409   -6.3976  -15.8062 N   0  0  0  0  0  0  0  0  0  0  0  0
   21.7226   -4.7441  -14.1221 C   0  0  0  0  0  0  0  0  0  0  0  0
   20.6672   -4.3736  -14.6595 O   0  0  0  0  0  0  0  0  0  0  0  0
   22.1446   -4.1931  -12.9185 O   0  0  0  0  0  0  0  0  0  0  0  0
  2  1  1  6
  3  2  1  0
  4 10  1  0
  4  2  1  0
  5  4  2  0
  7  6  1  6
  7  9  1  0
  7  8  1  0
  9 11  1  0
  9 10  1  1
 11 12  2  0
 14 13  1  6
 14 16  1  0
 15 14  1  0
 15 11  1  0
 16 18  1  0
 17 16  2  0
M  END
$$$$
