ATA.pdb
     RDKit          3D

 18 17  0  0  1  0  0  0  0  0999 V2000
   18.0548  -13.9914  -20.1075 C   0  0  0  0  0  0  0  0  0  0  0  0
   18.4530  -13.6837  -18.6857 C   0  0  2  0  0  0  0  0  0  0  0  0
   17.3227  -13.8898  -17.8336 N   0  0  0  0  0  0  0  0  0  0  0  0
   19.0310  -12.3201  -18.5532 C   0  0  0  0  0  0  0  0  0  0  0  0
   20.1152  -12.0481  -19.1306 O   0  0  0  0  0  0  0  0  0  0  0  0
   17.2921   -9.0470  -19.5114 C   0  0  0  0  0  0  0  0  0  0  0  0
   17.7490   -8.9526  -18.0714 C   0  0  1  0  0  0  0  0  0  0  0  0
   16.6848   -9.2373  -17.2128 O   0  0  0  0  0  0  0  0  0  0  0  0
   18.9066   -9.9269  -17.8155 C   0  0  2  0  0  0  0  0  0  0  0  0
   18.4237  -11.2906  -17.8027 N   0  0  0  0  0  0  0  0  0  0  0  0
   19.5061   -9.5451  -16.5169 C   0  0  0  0  0  0  0  0  0  0  0  0
   18.9070   -9.9076  -15.4834 O   0  0  0  0  0  0  0  0  0  0  0  0
   22.7680   -8.1010  -15.2470 C   0  0  0  0  0  0  0  0  0  0  0  0
   21.3043   -8.4525  -15.1263 C   0  0  2  0  0  0  0  0  0  0  0  0
   20.7052   -8.8016  -16.3805 N   0  0  0  0  0  0  0  0  0  0  0  0
   20.6082   -7.2208  -14.6288 C   0  0  0  0  0  0  0  0  0  0  0  0
   20.8751   -6.8527  -13.4741 O   0  0  0  0  0  0  0  0  0  0  0  0
   19.7047   -6.5155  -15.4139 O   0  0  0  0  0  0  0  0  0  0  0  0
  2  1  1  6
  3  2  1  0
  4 10  1  0
  4  2  1  0
  5  4  2  0
  7  6  1  6
  7  9  1  0
  7  8  1  0
  9 11  1  0
  9 10  1  1
 11 12  2  0
 14 13  1  6
 14 16  1  0
 15 14  1  0
 15 11  1  0
 16 18  1  0
 17 16  2  0
M  END
$$$$
