ATA.pdb
     RDKit          3D

 18 17  0  0  1  0  0  0  0  0999 V2000
   17.9350  -10.4248  -18.4466 C   0  0  0  0  0  0  0  0  0  0  0  0
   19.1531  -11.0490  -17.8134 C   0  0  2  0  0  0  0  0  0  0  0  0
   18.9315  -12.4550  -17.6708 N   0  0  0  0  0  0  0  0  0  0  0  0
   19.5108  -10.3908  -16.5289 C   0  0  0  0  0  0  0  0  0  0  0  0
   18.8161  -10.6141  -15.5040 O   0  0  0  0  0  0  0  0  0  0  0  0
   22.1166  -10.7663  -14.0836 C   0  0  0  0  0  0  0  0  0  0  0  0
   22.2543   -9.3447  -14.5848 C   0  0  1  0  0  0  0  0  0  0  0  0
   23.2379   -9.2800  -15.5743 O   0  0  0  0  0  0  0  0  0  0  0  0
   20.9145   -8.8446  -15.1412 C   0  0  2  0  0  0  0  0  0  0  0  0
   20.6059   -9.5119  -16.3872 N   0  0  0  0  0  0  0  0  0  0  0  0
   21.0471   -7.3811  -15.3210 C   0  0  0  0  0  0  0  0  0  0  0  0
   21.6419   -6.9836  -16.3441 O   0  0  0  0  0  0  0  0  0  0  0  0
   19.6756   -4.1968  -13.8242 C   0  0  0  0  0  0  0  0  0  0  0  0
   20.7309   -5.0028  -14.5434 C   0  0  2  0  0  0  0  0  0  0  0  0
   20.5445   -6.4176  -14.4110 N   0  0  0  0  0  0  0  0  0  0  0  0
   22.0414   -4.6648  -13.8972 C   0  0  0  0  0  0  0  0  0  0  0  0
   22.4547   -5.4444  -13.0246 O   0  0  0  0  0  0  0  0  0  0  0  0
   22.7687   -3.5348  -14.2498 O   0  0  0  0  0  0  0  0  0  0  0  0
  2  1  1  1
  3  2  1  0
  4 10  1  0
  4  2  1  0
  5  4  2  0
  7  6  1  6
  7  9  1  0
  7  8  1  0
  9 11  1  0
  9 10  1  6
 11 12  2  0
 14 13  1  1
 14 16  1  0
 15 14  1  0
 15 11  1  0
 16 18  1  0
 17 16  2  0
M  END
$$$$
