ATA.pdb
     RDKit          3D

 18 17  0  0  1  0  0  0  0  0999 V2000
   14.5927  -13.0653  -18.7050 C   0  0  0  0  0  0  0  0  0  0  0  0
   15.9994  -13.3648  -18.2513 C   0  0  2  0  0  0  0  0  0  0  0  0
   16.1031  -14.7605  -17.9555 N   0  0  0  0  0  0  0  0  0  0  0  0
   16.4107  -12.5039  -17.1108 C   0  0  0  0  0  0  0  0  0  0  0  0
   15.7376  -12.5205  -16.0480 O   0  0  0  0  0  0  0  0  0  0  0  0
   19.6520  -12.5903  -15.2857 C   0  0  0  0  0  0  0  0  0  0  0  0
   19.4535  -11.1519  -15.7135 C   0  0  1  0  0  0  0  0  0  0  0  0
   20.2206  -10.8808  -16.8486 O   0  0  0  0  0  0  0  0  0  0  0  0
   17.9709  -10.8831  -16.0038 C   0  0  2  0  0  0  0  0  0  0  0  0
   17.5346  -11.6511  -17.1495 N   0  0  0  0  0  0  0  0  0  0  0  0
   17.8394   -9.4270  -16.2372 C   0  0  0  0  0  0  0  0  0  0  0  0
   18.1897   -8.9945  -17.3546 O   0  0  0  0  0  0  0  0  0  0  0  0
   16.4260   -6.3873  -14.4474 C   0  0  0  0  0  0  0  0  0  0  0  0
   17.2876   -7.0886  -15.4704 C   0  0  2  0  0  0  0  0  0  0  0  0
   17.3453   -8.5076  -15.2782 N   0  0  0  0  0  0  0  0  0  0  0  0
   18.6794   -6.5591  -15.2925 C   0  0  0  0  0  0  0  0  0  0  0  0
   18.8648   -5.3635  -15.5683 O   0  0  0  0  0  0  0  0  0  0  0  0
   19.7215   -7.3592  -14.8407 O   0  0  0  0  0  0  0  0  0  0  0  0
  2  1  1  1
  3  2  1  0
  4 10  1  0
  4  2  1  0
  5  4  2  0
  7  6  1  6
  7  9  1  0
  7  8  1  0
  9 11  1  0
  9 10  1  6
 11 12  2  0
 14 13  1  1
 14 16  1  0
 15 14  1  0
 15 11  1  0
 16 18  1  0
 17 16  2  0
M  END
$$$$
