ATA.pdb
     RDKit          3D

 18 17  0  0  1  0  0  0  0  0999 V2000
   24.0336  -21.8454  -13.5764 C   0  0  0  0  0  0  0  0  0  0  0  0
   24.1961  -20.9617  -14.7877 C   0  0  2  0  0  0  0  0  0  0  0  0
   22.9035  -20.6795  -15.3315 N   0  0  0  0  0  0  0  0  0  0  0  0
   25.1231  -21.5546  -15.7878 C   0  0  0  0  0  0  0  0  0  0  0  0
   24.6752  -22.3538  -16.6501 O   0  0  0  0  0  0  0  0  0  0  0  0
   27.3553  -19.7696  -18.2950 C   0  0  0  0  0  0  0  0  0  0  0  0
   28.2284  -20.6887  -17.4677 C   0  0  1  0  0  0  0  0  0  0  0  0
   28.8731  -19.9607  -16.4652 O   0  0  0  0  0  0  0  0  0  0  0  0
   27.3827  -21.8073  -16.8446 C   0  0  2  0  0  0  0  0  0  0  0  0
   26.5045  -21.2688  -15.8289 N   0  0  0  0  0  0  0  0  0  0  0  0
   28.3308  -22.7956  -16.2822 C   0  0  0  0  0  0  0  0  0  0  0  0
   28.7588  -22.5832  -15.1288 O   0  0  0  0  0  0  0  0  0  0  0  0
   29.5375  -26.2879  -16.9329 C   0  0  0  0  0  0  0  0  0  0  0  0
   29.7547  -24.8694  -16.4626 C   0  0  2  0  0  0  0  0  0  0  0  0
   28.7749  -23.9537  -16.9681 N   0  0  0  0  0  0  0  0  0  0  0  0
   31.0858  -24.4388  -17.0028 C   0  0  0  0  0  0  0  0  0  0  0  0
   31.0750  -23.6246  -17.9392 O   0  0  0  0  0  0  0  0  0  0  0  0
   32.2826  -24.9213  -16.4879 O   0  0  0  0  0  0  0  0  0  0  0  0
  2  1  1  1
  3  2  1  0
  4 10  1  0
  4  2  1  0
  5  4  2  0
  7  6  1  1
  7  9  1  0
  7  8  1  0
  9 11  1  0
  9 10  1  1
 11 12  2  0
 14 13  1  6
 14 16  1  0
 15 14  1  0
 15 11  1  0
 16 18  1  0
 17 16  2  0
M  END
$$$$
