ATA.pdb
     RDKit          3D

 18 17  0  0  1  0  0  0  0  0999 V2000
   23.7437  -12.8160  -15.6157 C   0  0  0  0  0  0  0  0  0  0  0  0
   22.2933  -12.4125  -15.7055 C   0  0  2  0  0  0  0  0  0  0  0  0
   21.5845  -13.3985  -16.4615 N   0  0  0  0  0  0  0  0  0  0  0  0
   22.1311  -11.0407  -16.2559 C   0  0  0  0  0  0  0  0  0  0  0  0
   22.6309  -10.7596  -17.3758 O   0  0  0  0  0  0  0  0  0  0  0  0
   19.1593   -9.0854  -17.4090 C   0  0  0  0  0  0  0  0  0  0  0  0
   19.7882   -8.3318  -16.2566 C   0  0  1  0  0  0  0  0  0  0  0  0
   19.1261   -8.6400  -15.0661 O   0  0  0  0  0  0  0  0  0  0  0  0
   21.2764   -8.6865  -16.1380 C   0  0  2  0  0  0  0  0  0  0  0  0
   21.4355  -10.0132  -15.5835 N   0  0  0  0  0  0  0  0  0  0  0  0
   21.8934   -7.6538  -15.2751 C   0  0  0  0  0  0  0  0  0  0  0  0
   21.9976   -7.9146  -14.0587 O   0  0  0  0  0  0  0  0  0  0  0  0
   23.5379   -4.2443  -15.7108 C   0  0  0  0  0  0  0  0  0  0  0  0
   23.0172   -5.4234  -14.9240 C   0  0  2  0  0  0  0  0  0  0  0  0
   22.3665   -6.4025  -15.7437 N   0  0  0  0  0  0  0  0  0  0  0  0
   21.9889   -4.8838  -13.9751 C   0  0  0  0  0  0  0  0  0  0  0  0
   20.8016   -4.9697  -14.3256 O   0  0  0  0  0  0  0  0  0  0  0  0
   22.3359   -4.3120  -12.7573 O   0  0  0  0  0  0  0  0  0  0  0  0
  2  1  1  6
  3  2  1  0
  4 10  1  0
  4  2  1  0
  5  4  2  0
  7  6  1  6
  7  9  1  0
  7  8  1  0
  9 11  1  0
  9 10  1  1
 11 12  2  0
 14 13  1  6
 14 16  1  0
 15 14  1  0
 15 11  1  0
 16 18  1  0
 17 16  2  0
M  END
$$$$
