RQR.pdb
     RDKit          3D

 32 31  0  0  1  0  0  0  0  0999 V2000
   18.3836  -12.2702   18.4962 N   0  0  0  0  0  0  0  0  0  0  0  0
   17.2445  -12.9307   17.9569 C   0  0  0  0  0  0  0  0  0  0  0  0
   16.8307  -12.6180   16.7565 N   0  0  0  0  0  0  0  0  0  0  0  0
   16.5493  -13.9227   18.7017 N   0  0  0  0  0  0  0  0  0  0  0  0
   16.6899  -15.3106   18.3807 C   0  0  0  0  0  0  0  0  0  0  0  0
   15.3911  -16.0408   18.1627 C   0  0  0  0  0  0  0  0  0  0  0  0
   14.6378  -16.3709   19.4050 C   0  0  0  0  0  0  0  0  0  0  0  0
   13.1541  -16.0649   19.2516 C   0  0  2  0  0  0  0  0  0  0  0  0
   12.7794  -16.1479   17.8684 N   0  0  0  0  0  0  0  0  0  0  0  0
   12.9082  -14.7126   19.8372 C   0  0  0  0  0  0  0  0  0  0  0  0
   13.7336  -14.2937   20.6830 O   0  0  0  0  0  0  0  0  0  0  0  0
   16.0866  -13.1588   16.2822 N   0  0  0  0  0  0  0  0  0  0  0  0
    7.4662  -15.2503   17.6707 C   0  0  0  0  0  0  0  0  0  0  0  0
    7.1618  -14.2516   18.6351 O   0  0  0  0  0  0  0  0  0  0  0  0
    6.0122  -13.7583   18.7527 C   0  0  0  0  0  0  0  0  0  0  0  0
    8.2299  -13.7577   19.5491 C   0  0  0  0  0  0  0  0  0  0  0  0
    9.5280  -14.4818   19.3300 C   0  0  2  0  0  0  0  0  0  0  0  0
   10.6105  -13.9310   20.2522 N   0  0  0  0  0  0  0  0  0  0  0  0
   11.8281  -13.8839   19.5104 C   0  0  0  0  0  0  0  0  0  0  0  0
   10.7015  -14.7043   21.4961 O   0  0  0  0  0  0  0  0  0  0  0  0
   11.0317  -15.9102   21.5610 N   0  0  0  0  0  0  0  0  0  0  0  0
    7.1866  -20.1486   24.3751 C   0  0  0  0  0  0  0  0  0  0  0  0
    6.3178  -19.2367   23.6873 N   0  0  0  0  0  0  0  0  0  0  0  0
    5.4941  -19.6936   22.8457 N   0  0  0  0  0  0  0  0  0  0  0  0
    6.3578  -17.8497   23.9297 C   0  0  0  0  0  0  0  0  0  0  0  0
    7.4788  -17.0052   23.9701 C   0  0  0  0  0  0  0  0  0  0  0  0
    7.2363  -15.5471   24.2370 C   0  0  0  0  0  0  0  0  0  0  0  0
    8.0707  -14.6921   23.2547 C   0  0  1  0  0  0  0  0  0  0  0  0
    9.5044  -14.6441   23.6922 N   0  0  0  0  0  0  0  0  0  0  0  0
   10.3979  -14.0674   22.7387 C   0  0  0  0  0  0  0  0  0  0  0  0
    9.9641  -15.9940   24.1477 O   0  0  0  0  0  0  0  0  0  0  0  0
   10.1649  -16.9508   23.3611 O   0  0  0  0  0  0  0  0  0  0  0  0
  2  3  2  0
  2  1  1  0
  4  2  1  0
  5  6  1  0
  5  4  1  0
  6  7  1  0
  7  8  1  0
  8 10  1  0
  8  9  1  6
 10 18  1  0
 11 10  2  0
 13 12  1  0
 13 14  2  0
 15 13  1  0
 16 15  1  0
 17 16  1  6
 18 17  1  0
 19 20  2  0
 19 17  1  0
 22 21  1  0
 23 22  2  0
 24 22  1  0
 25 24  1  0
 26 27  1  0
 26 25  1  0
 28 27  1  1
 28 30  1  0
 28 29  1  0
 29 19  1  0
 30 32  1  0
 31 30  2  0
M  END
$$$$
