RQR.pdb
     RDKit          3D

 32 31  0  0  1  0  0  0  0  0999 V2000
    7.9153  -13.3014   14.9003 N   0  0  0  0  0  0  0  0  0  0  0  0
    7.5414  -13.9203   16.1258 C   0  0  0  0  0  0  0  0  0  0  0  0
    6.8652  -13.2345   17.0103 N   0  0  0  0  0  0  0  0  0  0  0  0
    7.8921  -15.2701   16.4042 N   0  0  0  0  0  0  0  0  0  0  0  0
    7.4221  -15.9178   17.5911 C   0  0  0  0  0  0  0  0  0  0  0  0
    8.4062  -16.8674   18.2214 C   0  0  0  0  0  0  0  0  0  0  0  0
    9.5812  -16.2191   18.8686 C   0  0  0  0  0  0  0  0  0  0  0  0
   10.4784  -17.2465   19.5453 C   0  0  2  0  0  0  0  0  0  0  0  0
   10.5737  -18.4236   18.7292 N   0  0  0  0  0  0  0  0  0  0  0  0
    9.9076  -17.5250   20.8976 C   0  0  0  0  0  0  0  0  0  0  0  0
    9.5626  -16.5383   21.5902 O   0  0  0  0  0  0  0  0  0  0  0  0
    6.5448  -13.6614   17.8970 N   0  0  0  0  0  0  0  0  0  0  0  0
    7.5730  -22.6409   23.2737 C   0  0  0  0  0  0  0  0  0  0  0  0
    7.8173  -21.9226   24.4755 O   0  0  0  0  0  0  0  0  0  0  0  0
    7.3039  -22.2539   25.5734 C   0  0  0  0  0  0  0  0  0  0  0  0
    8.7109  -20.7304   24.4547 C   0  0  0  0  0  0  0  0  0  0  0  0
    9.2574  -20.4691   23.0798 C   0  0  2  0  0  0  0  0  0  0  0  0
    9.2411  -18.9755   22.7722 N   0  0  0  0  0  0  0  0  0  0  0  0
    9.7306  -18.8020   21.4435 C   0  0  0  0  0  0  0  0  0  0  0  0
    9.9802  -18.2104   23.7830 O   0  0  0  0  0  0  0  0  0  0  0  0
   11.0275  -17.5622   23.5586 N   0  0  0  0  0  0  0  0  0  0  0  0
    6.1630  -11.4801   25.0347 C   0  0  0  0  0  0  0  0  0  0  0  0
    6.7241  -12.0668   26.2181 N   0  0  0  0  0  0  0  0  0  0  0  0
    6.8000  -11.3703   27.2691 N   0  0  0  0  0  0  0  0  0  0  0  0
    7.1870  -13.3969   26.2376 C   0  0  0  0  0  0  0  0  0  0  0  0
    7.3558  -14.2758   25.1556 C   0  0  0  0  0  0  0  0  0  0  0  0
    7.7863  -15.6807   25.4671 C   0  0  0  0  0  0  0  0  0  0  0  0
    9.3306  -15.7540   25.5127 C   0  0  1  0  0  0  0  0  0  0  0  0
    9.7750  -17.0960   26.0136 N   0  0  0  0  0  0  0  0  0  0  0  0
    9.4990  -18.1823   25.1281 C   0  0  0  0  0  0  0  0  0  0  0  0
    9.2480  -17.3474   27.3921 O   0  0  0  0  0  0  0  0  0  0  0  0
    8.4076  -18.2424   27.6516 O   0  0  0  0  0  0  0  0  0  0  0  0
  2  3  2  0
  2  1  1  0
  4  2  1  0
  5  6  1  0
  5  4  1  0
  6  7  1  0
  7  8  1  0
  8 10  1  0
  8  9  1  6
 10 18  1  0
 11 10  2  0
 13 12  1  0
 13 14  2  0
 15 13  1  0
 16 15  1  0
 17 16  1  6
 18 17  1  0
 19 20  2  0
 19 17  1  0
 22 21  1  0
 23 22  2  0
 24 22  1  0
 25 24  1  0
 26 27  1  0
 26 25  1  0
 28 27  1  6
 28 30  1  0
 28 29  1  0
 29 19  1  0
 30 32  1  0
 31 30  2  0
M  END
$$$$
