RQR.pdb
     RDKit          3D

 32 31  0  0  1  0  0  0  0  0999 V2000
    7.1964  -12.8687   14.2789 N   0  0  0  0  0  0  0  0  0  0  0  0
    7.5666  -13.6742   15.3918 C   0  0  0  0  0  0  0  0  0  0  0  0
    7.2607  -14.9457   15.3930 N   0  0  0  0  0  0  0  0  0  0  0  0
    8.2614  -13.1195   16.5017 N   0  0  0  0  0  0  0  0  0  0  0  0
    8.7743  -13.9623   17.5389 C   0  0  0  0  0  0  0  0  0  0  0  0
    7.7721  -14.3371   18.5984 C   0  0  0  0  0  0  0  0  0  0  0  0
    8.2220  -15.3964   19.5445 C   0  0  0  0  0  0  0  0  0  0  0  0
    7.1786  -15.6566   20.6226 C   0  0  2  0  0  0  0  0  0  0  0  0
    5.9435  -15.0152   20.2708 N   0  0  0  0  0  0  0  0  0  0  0  0
    7.7359  -15.1667   21.9193 C   0  0  0  0  0  0  0  0  0  0  0  0
    8.0492  -13.9545   21.9890 O   0  0  0  0  0  0  0  0  0  0  0  0
    7.4842  -15.5557   16.1986 N   0  0  0  0  0  0  0  0  0  0  0  0
    5.7584  -12.2554   25.5434 C   0  0  0  0  0  0  0  0  0  0  0  0
    6.8945  -12.5389   26.3489 O   0  0  0  0  0  0  0  0  0  0  0  0
    7.1650  -11.8821   27.3854 C   0  0  0  0  0  0  0  0  0  0  0  0
    7.8109  -13.6504   25.9683 C   0  0  0  0  0  0  0  0  0  0  0  0
    7.4026  -14.2882   24.6707 C   0  0  1  0  0  0  0  0  0  0  0  0
    8.3825  -15.3910   24.2844 N   0  0  0  0  0  0  0  0  0  0  0  0
    7.9317  -15.9598   23.0563 C   0  0  0  0  0  0  0  0  0  0  0  0
    8.5467  -16.3676   25.3673 O   0  0  0  0  0  0  0  0  0  0  0  0
    7.6773  -17.1999   25.7120 N   0  0  0  0  0  0  0  0  0  0  0  0
   14.6532  -14.5425   20.3882 C   0  0  0  0  0  0  0  0  0  0  0  0
   15.3267  -15.3569   21.3591 N   0  0  0  0  0  0  0  0  0  0  0  0
   16.5846  -15.4585   21.3054 N   0  0  0  0  0  0  0  0  0  0  0  0
   14.6225  -16.0403   22.3696 C   0  0  0  0  0  0  0  0  0  0  0  0
   13.2390  -16.0540   22.6094 C   0  0  0  0  0  0  0  0  0  0  0  0
   12.7484  -16.8589   23.7789 C   0  0  0  0  0  0  0  0  0  0  0  0
   11.3518  -16.3529   24.2099 C   0  0  1  0  0  0  0  0  0  0  0  0
   10.9797  -16.9225   25.5465 N   0  0  0  0  0  0  0  0  0  0  0  0
    9.7725  -16.3980   26.1011 C   0  0  0  0  0  0  0  0  0  0  0  0
   12.1272  -16.8217   26.5027 O   0  0  0  0  0  0  0  0  0  0  0  0
   12.1699  -15.9835   27.4356 O   0  0  0  0  0  0  0  0  0  0  0  0
  2  3  2  0
  2  1  1  0
  4  2  1  0
  5  6  1  0
  5  4  1  0
  6  7  1  0
  7  8  1  0
  8 10  1  0
  8  9  1  6
 10 18  1  0
 11 10  2  0
 13 12  1  0
 13 14  2  0
 15 13  1  0
 16 15  1  0
 17 16  1  6
 18 17  1  0
 19 20  2  0
 19 17  1  0
 22 21  1  0
 23 22  2  0
 24 22  1  0
 25 24  1  0
 26 27  1  0
 26 25  1  0
 28 27  1  6
 28 30  1  0
 28 29  1  0
 29 19  1  0
 30 32  1  0
 31 30  2  0
M  END
$$$$
