RQR.pdb
     RDKit          3D

 32 31  0  0  1  0  0  0  0  0999 V2000
   14.0841  -18.3832   16.6219 N   0  0  0  0  0  0  0  0  0  0  0  0
   14.0331  -18.2900   15.2030 C   0  0  0  0  0  0  0  0  0  0  0  0
   15.1270  -18.0217   14.5384 N   0  0  0  0  0  0  0  0  0  0  0  0
   12.8135  -18.4820   14.4973 N   0  0  0  0  0  0  0  0  0  0  0  0
   11.5665  -18.5486   15.1971 C   0  0  0  0  0  0  0  0  0  0  0  0
   11.5431  -17.8160   16.5124 C   0  0  0  0  0  0  0  0  0  0  0  0
   10.2724  -17.9402   17.2802 C   0  0  0  0  0  0  0  0  0  0  0  0
    9.4731  -16.6446   17.2431 C   0  0  2  0  0  0  0  0  0  0  0  0
   10.1227  -15.6953   16.3843 N   0  0  0  0  0  0  0  0  0  0  0  0
    9.3384  -16.1557   18.6484 C   0  0  0  0  0  0  0  0  0  0  0  0
   10.3312  -16.2920   19.4021 O   0  0  0  0  0  0  0  0  0  0  0  0
   15.1354  -17.9780   13.5044 N   0  0  0  0  0  0  0  0  0  0  0  0
    9.1433  -12.0807   18.4681 C   0  0  0  0  0  0  0  0  0  0  0  0
    8.4631  -12.3571   19.6851 O   0  0  0  0  0  0  0  0  0  0  0  0
    8.9649  -12.1033   20.8088 C   0  0  0  0  0  0  0  0  0  0  0  0
    7.1055  -12.9701   19.6497 C   0  0  0  0  0  0  0  0  0  0  0  0
    6.9808  -14.1023   20.6294 C   0  0  2  0  0  0  0  0  0  0  0  0
    8.1731  -15.0458   20.5119 N   0  0  0  0  0  0  0  0  0  0  0  0
    8.1894  -15.5587   19.1807 C   0  0  0  0  0  0  0  0  0  0  0  0
    8.1415  -16.0837   21.5487 O   0  0  0  0  0  0  0  0  0  0  0  0
    7.7993  -17.2723   21.3547 N   0  0  0  0  0  0  0  0  0  0  0  0
   12.8269  -19.0424   28.6927 C   0  0  0  0  0  0  0  0  0  0  0  0
   12.1442  -17.7848   28.8023 N   0  0  0  0  0  0  0  0  0  0  0  0
   11.9511  -17.2916   29.9490 N   0  0  0  0  0  0  0  0  0  0  0  0
   11.6894  -17.0872   27.6663 C   0  0  0  0  0  0  0  0  0  0  0  0
   11.2654  -17.6117   26.4347 C   0  0  0  0  0  0  0  0  0  0  0  0
    9.8864  -17.2451   25.9655 C   0  0  0  0  0  0  0  0  0  0  0  0
    9.8792  -17.1114   24.4246 C   0  0  1  0  0  0  0  0  0  0  0  0
    8.5174  -16.7092   23.9418 N   0  0  0  0  0  0  0  0  0  0  0  0
    8.5210  -15.7485   22.8849 C   0  0  0  0  0  0  0  0  0  0  0  0
    7.6551  -16.2801   25.0879 O   0  0  0  0  0  0  0  0  0  0  0  0
    7.2944  -15.0915   25.2663 O   0  0  0  0  0  0  0  0  0  0  0  0
  2  3  2  0
  2  1  1  0
  4  2  1  0
  5  6  1  0
  5  4  1  0
  6  7  1  0
  7  8  1  0
  8 10  1  0
  8  9  1  6
 10 18  1  0
 11 10  2  0
 13 12  1  0
 13 14  2  0
 15 13  1  0
 16 15  1  0
 17 16  1  6
 18 17  1  0
 19 20  2  0
 19 17  1  0
 22 21  1  0
 23 22  2  0
 24 22  1  0
 25 24  1  0
 26 27  1  0
 26 25  1  0
 28 27  1  6
 28 30  1  0
 28 29  1  0
 29 19  1  0
 30 32  1  0
 31 30  2  0
M  END
$$$$
