RQR.pdb
     RDKit          3D

 32 31  0  0  1  0  0  0  0  0999 V2000
    5.6406  -20.6463   16.1302 N   0  0  0  0  0  0  0  0  0  0  0  0
    5.6856  -20.2168   14.7745 C   0  0  0  0  0  0  0  0  0  0  0  0
    5.0427  -20.9003   13.8636 N   0  0  0  0  0  0  0  0  0  0  0  0
    6.4186  -19.0589   14.3945 N   0  0  0  0  0  0  0  0  0  0  0  0
    7.1025  -18.2719   15.3754 C   0  0  0  0  0  0  0  0  0  0  0  0
    8.5117  -18.7154   15.6671 C   0  0  0  0  0  0  0  0  0  0  0  0
    9.5696  -17.7308   15.3054 C   0  0  0  0  0  0  0  0  0  0  0  0
    9.0330  -16.3060   15.3302 C   0  0  2  0  0  0  0  0  0  0  0  0
    9.5145  -15.5835   14.1871 N   0  0  0  0  0  0  0  0  0  0  0  0
    9.4517  -15.6872   16.6239 C   0  0  0  0  0  0  0  0  0  0  0  0
   10.6109  -15.2132   16.6859 O   0  0  0  0  0  0  0  0  0  0  0  0
    5.0511  -20.6176   12.8681 N   0  0  0  0  0  0  0  0  0  0  0  0
    8.4132  -12.1486   19.7069 C   0  0  0  0  0  0  0  0  0  0  0  0
    7.1756  -12.6203   19.1914 O   0  0  0  0  0  0  0  0  0  0  0  0
    6.3335  -11.8550   18.6584 C   0  0  0  0  0  0  0  0  0  0  0  0
    6.8448  -14.0706   19.2765 C   0  0  0  0  0  0  0  0  0  0  0  0
    7.9511  -14.8565   19.9213 C   0  0  2  0  0  0  0  0  0  0  0  0
    9.1317  -15.0011   18.9669 N   0  0  0  0  0  0  0  0  0  0  0  0
    8.6464  -15.5986   17.7657 C   0  0  0  0  0  0  0  0  0  0  0  0
   10.2400  -15.7339   19.5899 O   0  0  0  0  0  0  0  0  0  0  0  0
   10.3481  -16.9811   19.6052 N   0  0  0  0  0  0  0  0  0  0  0  0
   18.4550  -13.0810   19.4096 C   0  0  0  0  0  0  0  0  0  0  0  0
   17.2460  -13.3725   18.6933 N   0  0  0  0  0  0  0  0  0  0  0  0
   17.1176  -12.9467   17.5111 N   0  0  0  0  0  0  0  0  0  0  0  0
   16.2041  -14.1227   19.2727 C   0  0  0  0  0  0  0  0  0  0  0  0
   16.2333  -14.8889   20.4491 C   0  0  0  0  0  0  0  0  0  0  0  0
   14.9914  -15.6547   20.8060 C   0  0  0  0  0  0  0  0  0  0  0  0
   13.7425  -14.8569   20.3629 C   0  0  2  0  0  0  0  0  0  0  0  0
   12.4938  -15.6285   20.6708 N   0  0  0  0  0  0  0  0  0  0  0  0
   11.2860  -15.0038   20.2338 C   0  0  0  0  0  0  0  0  0  0  0  0
   12.4430  -15.9962   22.1212 O   0  0  0  0  0  0  0  0  0  0  0  0
   11.5240  -15.6243   22.8904 O   0  0  0  0  0  0  0  0  0  0  0  0
  2  3  2  0
  2  1  1  0
  4  2  1  0
  5  6  1  0
  5  4  1  0
  6  7  1  0
  7  8  1  0
  8 10  1  0
  8  9  1  6
 10 18  1  0
 11 10  2  0
 13 12  1  0
 13 14  2  0
 15 13  1  0
 16 15  1  0
 17 16  1  6
 18 17  1  0
 19 20  2  0
 19 17  1  0
 22 21  1  0
 23 22  2  0
 24 22  1  0
 25 24  1  0
 26 27  1  0
 26 25  1  0
 28 27  1  6
 28 30  1  0
 28 29  1  0
 29 19  1  0
 30 32  1  0
 31 30  2  0
M  END
$$$$
