RQR.pdb
     RDKit          3D

 32 31  0  0  1  0  0  0  0  0999 V2000
   14.8590  -23.9141   22.9264 N   0  0  0  0  0  0  0  0  0  0  0  0
   14.8667  -23.2206   21.6840 C   0  0  0  0  0  0  0  0  0  0  0  0
   15.2015  -23.8612   20.5942 N   0  0  0  0  0  0  0  0  0  0  0  0
   14.5181  -21.8440   21.6088 N   0  0  0  0  0  0  0  0  0  0  0  0
   14.7195  -20.9763   22.7294 C   0  0  0  0  0  0  0  0  0  0  0  0
   13.4735  -20.6631   23.5147 C   0  0  0  0  0  0  0  0  0  0  0  0
   13.6800  -19.7842   24.6999 C   0  0  0  0  0  0  0  0  0  0  0  0
   12.6976  -20.1167   25.8147 C   0  0  2  0  0  0  0  0  0  0  0  0
   11.3953  -19.6116   25.4838 N   0  0  0  0  0  0  0  0  0  0  0  0
   13.2378  -19.5375   27.0815 C   0  0  0  0  0  0  0  0  0  0  0  0
   13.7613  -18.4000   27.0161 O   0  0  0  0  0  0  0  0  0  0  0  0
   15.2821  -23.3757   19.6838 N   0  0  0  0  0  0  0  0  0  0  0  0
   11.2920  -16.0449   30.1135 C   0  0  0  0  0  0  0  0  0  0  0  0
   10.6341  -17.2611   29.7849 O   0  0  0  0  0  0  0  0  0  0  0  0
    9.3839  -17.3456   29.6913 C   0  0  0  0  0  0  0  0  0  0  0  0
   11.4369  -18.4920   29.5393 C   0  0  0  0  0  0  0  0  0  0  0  0
   12.9095  -18.2348   29.6896 C   0  0  1  0  0  0  0  0  0  0  0  0
   13.7004  -19.5248   29.4998 N   0  0  0  0  0  0  0  0  0  0  0  0
   13.2010  -20.1704   28.3298 C   0  0  0  0  0  0  0  0  0  0  0  0
   13.6601  -20.3621   30.7042 O   0  0  0  0  0  0  0  0  0  0  0  0
   12.6639  -21.0215   31.0787 N   0  0  0  0  0  0  0  0  0  0  0  0
   20.2718  -24.6241   35.5402 C   0  0  0  0  0  0  0  0  0  0  0  0
   19.3215  -23.6679   36.0326 N   0  0  0  0  0  0  0  0  0  0  0  0
   19.2639  -23.4469   37.2749 N   0  0  0  0  0  0  0  0  0  0  0  0
   18.4572  -22.9693   35.1673 C   0  0  0  0  0  0  0  0  0  0  0  0
   18.2226  -23.1962   33.8016 C   0  0  0  0  0  0  0  0  0  0  0  0
   16.8012  -23.1181   33.3223 C   0  0  0  0  0  0  0  0  0  0  0  0
   16.4731  -21.6667   32.9002 C   0  0  2  0  0  0  0  0  0  0  0  0
   15.0721  -21.5807   32.3718 N   0  0  0  0  0  0  0  0  0  0  0  0
   14.8220  -20.4535   31.5310 C   0  0  0  0  0  0  0  0  0  0  0  0
   14.0787  -21.6807   33.4873 O   0  0  0  0  0  0  0  0  0  0  0  0
   13.3190  -20.7371   33.8147 O   0  0  0  0  0  0  0  0  0  0  0  0
  2  3  2  0
  2  1  1  0
  4  2  1  0
  5  6  1  0
  5  4  1  0
  6  7  1  0
  7  8  1  0
  8 10  1  0
  8  9  1  6
 10 18  1  0
 11 10  2  0
 13 12  1  0
 13 14  2  0
 15 13  1  0
 16 15  1  0
 17 16  1  6
 18 17  1  0
 19 20  2  0
 19 17  1  0
 22 21  1  0
 23 22  2  0
 24 22  1  0
 25 24  1  0
 26 27  1  0
 26 25  1  0
 28 27  1  6
 28 30  1  0
 28 29  1  0
 29 19  1  0
 30 32  1  0
 31 30  2  0
M  END
$$$$
