RQR.pdb
     RDKit          3D

 32 31  0  0  1  0  0  0  0  0999 V2000
    9.1709  -14.2174   14.4606 N   0  0  0  0  0  0  0  0  0  0  0  0
    7.9704  -14.5019   15.1695 C   0  0  0  0  0  0  0  0  0  0  0  0
    7.0783  -13.5584   15.3244 N   0  0  0  0  0  0  0  0  0  0  0  0
    7.7264  -15.7933   15.7128 N   0  0  0  0  0  0  0  0  0  0  0  0
    7.6974  -15.9971   17.1294 C   0  0  0  0  0  0  0  0  0  0  0  0
    8.4838  -14.9901   17.9263 C   0  0  0  0  0  0  0  0  0  0  0  0
    8.3493  -15.1132   19.4049 C   0  0  0  0  0  0  0  0  0  0  0  0
    7.8922  -13.8026   20.0311 C   0  0  2  0  0  0  0  0  0  0  0  0
    8.5863  -12.7032   19.4227 N   0  0  0  0  0  0  0  0  0  0  0  0
    8.1336  -13.8958   21.5026 C   0  0  0  0  0  0  0  0  0  0  0  0
    9.2897  -14.2046   21.8770 O   0  0  0  0  0  0  0  0  0  0  0  0
    6.2575  -13.6852   15.9419 N   0  0  0  0  0  0  0  0  0  0  0  0
    7.2006  -11.4409   26.0778 C   0  0  0  0  0  0  0  0  0  0  0  0
    6.9292  -12.6223   26.8199 O   0  0  0  0  0  0  0  0  0  0  0  0
    7.1217  -12.6972   28.0593 C   0  0  0  0  0  0  0  0  0  0  0  0
    6.3972  -13.8266   26.1223 C   0  0  0  0  0  0  0  0  0  0  0  0
    6.1835  -13.5716   24.6572 C   0  0  2  0  0  0  0  0  0  0  0  0
    7.4287  -13.9478   23.8611 N   0  0  0  0  0  0  0  0  0  0  0  0
    7.1665  -13.6636   22.4879 C   0  0  0  0  0  0  0  0  0  0  0  0
    7.8299  -15.3362   24.1150 O   0  0  0  0  0  0  0  0  0  0  0  0
    7.2923  -16.3386   23.5919 N   0  0  0  0  0  0  0  0  0  0  0  0
   14.8628  -14.7383   20.4960 C   0  0  0  0  0  0  0  0  0  0  0  0
   13.4800  -15.1176   20.5576 N   0  0  0  0  0  0  0  0  0  0  0  0
   12.7834  -15.0628   19.5054 N   0  0  0  0  0  0  0  0  0  0  0  0
   12.8836  -15.5518   21.7574 C   0  0  0  0  0  0  0  0  0  0  0  0
   12.7462  -16.8648   22.2357 C   0  0  0  0  0  0  0  0  0  0  0  0
   12.1233  -17.0451   23.5906 C   0  0  0  0  0  0  0  0  0  0  0  0
   11.0093  -15.9920   23.7958 C   0  0  1  0  0  0  0  0  0  0  0  0
    9.9485  -16.5258   24.7118 N   0  0  0  0  0  0  0  0  0  0  0  0
    8.9059  -15.5987   25.0179 C   0  0  0  0  0  0  0  0  0  0  0  0
   10.5607  -17.1102   25.9466 O   0  0  0  0  0  0  0  0  0  0  0  0
   11.4108  -18.0329   25.9190 O   0  0  0  0  0  0  0  0  0  0  0  0
  2  3  2  0
  2  1  1  0
  4  2  1  0
  5  6  1  0
  5  4  1  0
  6  7  1  0
  7  8  1  0
  8 10  1  0
  8  9  1  6
 10 18  1  0
 11 10  2  0
 13 12  1  0
 13 14  2  0
 15 13  1  0
 16 15  1  0
 17 16  1  1
 18 17  1  0
 19 20  2  0
 19 17  1  0
 22 21  1  0
 23 22  2  0
 24 22  1  0
 25 24  1  0
 26 27  1  0
 26 25  1  0
 28 27  1  6
 28 30  1  0
 28 29  1  0
 29 19  1  0
 30 32  1  0
 31 30  2  0
M  END
$$$$
