RQR.pdb
     RDKit          3D

 32 31  0  0  1  0  0  0  0  0999 V2000
   12.1138  -21.8459   17.2907 N   0  0  0  0  0  0  0  0  0  0  0  0
   13.4082  -22.1992   16.8172 C   0  0  0  0  0  0  0  0  0  0  0  0
   13.8505  -23.4152   17.0069 N   0  0  0  0  0  0  0  0  0  0  0  0
   14.2279  -21.2523   16.1435 N   0  0  0  0  0  0  0  0  0  0  0  0
   13.7388  -19.9393   15.8503 C   0  0  0  0  0  0  0  0  0  0  0  0
   13.0830  -19.2385   17.0106 C   0  0  0  0  0  0  0  0  0  0  0  0
   13.4988  -17.8214   17.2072 C   0  0  0  0  0  0  0  0  0  0  0  0
   12.4168  -16.8563   16.7418 C   0  0  2  0  0  0  0  0  0  0  0  0
   12.9195  -16.0378   15.6750 N   0  0  0  0  0  0  0  0  0  0  0  0
   11.9819  -16.0583   17.9275 C   0  0  0  0  0  0  0  0  0  0  0  0
   12.7535  -15.1540   18.3262 O   0  0  0  0  0  0  0  0  0  0  0  0
   14.8217  -23.6815   16.7682 N   0  0  0  0  0  0  0  0  0  0  0  0
    6.3987  -14.0181   19.2458 C   0  0  0  0  0  0  0  0  0  0  0  0
    7.1229  -13.5879   20.3906 O   0  0  0  0  0  0  0  0  0  0  0  0
    6.6440  -12.7794   21.2248 C   0  0  0  0  0  0  0  0  0  0  0  0
    8.5011  -14.1015   20.6287 C   0  0  0  0  0  0  0  0  0  0  0  0
    8.9456  -15.0295   19.5339 C   0  0  2  0  0  0  0  0  0  0  0  0
   10.4150  -15.3984   19.7085 N   0  0  0  0  0  0  0  0  0  0  0  0
   10.7804  -16.2465   18.6211 C   0  0  0  0  0  0  0  0  0  0  0  0
   10.6691  -15.9832   21.0302 O   0  0  0  0  0  0  0  0  0  0  0  0
   10.5369  -17.1968   21.3079 N   0  0  0  0  0  0  0  0  0  0  0  0
    9.6726  -17.2604   28.7755 C   0  0  0  0  0  0  0  0  0  0  0  0
   10.2476  -15.9866   29.1021 N   0  0  0  0  0  0  0  0  0  0  0  0
   10.8278  -15.8448   30.2151 N   0  0  0  0  0  0  0  0  0  0  0  0
   10.1848  -14.8956   28.2135 C   0  0  0  0  0  0  0  0  0  0  0  0
    9.8182  -14.8971   26.8580 C   0  0  0  0  0  0  0  0  0  0  0  0
   10.8524  -15.3403   25.8629 C   0  0  0  0  0  0  0  0  0  0  0  0
   10.2969  -15.1799   24.4283 C   0  0  2  0  0  0  0  0  0  0  0  0
   11.3137  -15.6292   23.4215 N   0  0  0  0  0  0  0  0  0  0  0  0
   11.0980  -15.1365   22.0983 C   0  0  0  0  0  0  0  0  0  0  0  0
   11.4632  -17.1185   23.4488 O   0  0  0  0  0  0  0  0  0  0  0  0
   12.3932  -17.7026   24.0559 O   0  0  0  0  0  0  0  0  0  0  0  0
  2  3  2  0
  2  1  1  0
  4  2  1  0
  5  6  1  0
  5  4  1  0
  6  7  1  0
  7  8  1  0
  8 10  1  0
  8  9  1  6
 10 18  1  0
 11 10  2  0
 13 12  1  0
 13 14  2  0
 15 13  1  0
 16 15  1  0
 17 16  1  6
 18 17  1  0
 19 20  2  0
 19 17  1  0
 22 21  1  0
 23 22  2  0
 24 22  1  0
 25 24  1  0
 26 27  1  0
 26 25  1  0
 28 27  1  1
 28 30  1  0
 28 29  1  0
 29 19  1  0
 30 32  1  0
 31 30  2  0
M  END
$$$$
