RQR.pdb
     RDKit          3D

 32 31  0  0  1  0  0  0  0  0999 V2000
   14.1266  -16.3896   18.6964 N   0  0  0  0  0  0  0  0  0  0  0  0
   14.2195  -15.3550   17.7240 C   0  0  0  0  0  0  0  0  0  0  0  0
   14.7928  -15.6042   16.5754 N   0  0  0  0  0  0  0  0  0  0  0  0
   13.7012  -14.0560   17.9814 N   0  0  0  0  0  0  0  0  0  0  0  0
   12.3210  -13.7591   17.7443 C   0  0  0  0  0  0  0  0  0  0  0  0
   11.3601  -14.8211   18.2092 C   0  0  0  0  0  0  0  0  0  0  0  0
   10.5725  -14.4698   19.4241 C   0  0  0  0  0  0  0  0  0  0  0  0
    9.1019  -14.2593   19.0899 C   0  0  2  0  0  0  0  0  0  0  0  0
    8.9186  -12.9693   18.4874 N   0  0  0  0  0  0  0  0  0  0  0  0
    8.3227  -14.4231   20.3541 C   0  0  0  0  0  0  0  0  0  0  0  0
    8.3402  -13.4694   21.1679 O   0  0  0  0  0  0  0  0  0  0  0  0
   14.8835  -14.8756   15.8460 N   0  0  0  0  0  0  0  0  0  0  0  0
    3.7285  -18.4631   21.7326 C   0  0  0  0  0  0  0  0  0  0  0  0
    5.0363  -18.9405   21.4465 O   0  0  0  0  0  0  0  0  0  0  0  0
    5.2632  -20.1378   21.1400 C   0  0  0  0  0  0  0  0  0  0  0  0
    6.1939  -18.0044   21.5071 C   0  0  0  0  0  0  0  0  0  0  0  0
    5.7590  -16.6021   21.8263 C   0  0  1  0  0  0  0  0  0  0  0  0
    6.9699  -15.6874   21.9770 N   0  0  0  0  0  0  0  0  0  0  0  0
    7.5778  -15.5591   20.6928 C   0  0  0  0  0  0  0  0  0  0  0  0
    7.8814  -16.1697   23.0210 O   0  0  0  0  0  0  0  0  0  0  0  0
    8.8960  -16.8721   22.8099 N   0  0  0  0  0  0  0  0  0  0  0  0
    9.8430  -13.7250   30.3701 C   0  0  0  0  0  0  0  0  0  0  0  0
   10.1871  -15.1128   30.4944 N   0  0  0  0  0  0  0  0  0  0  0  0
   11.3451  -15.4225   30.8925 N   0  0  0  0  0  0  0  0  0  0  0  0
    9.2671  -16.1345   30.1884 C   0  0  0  0  0  0  0  0  0  0  0  0
    8.9355  -16.6586   28.9286 C   0  0  0  0  0  0  0  0  0  0  0  0
    9.3981  -15.8965   27.7196 C   0  0  0  0  0  0  0  0  0  0  0  0
    8.2009  -15.6452   26.7732 C   0  0  2  0  0  0  0  0  0  0  0  0
    8.4214  -16.3323   25.4585 N   0  0  0  0  0  0  0  0  0  0  0  0
    7.6219  -15.8332   24.3853 C   0  0  0  0  0  0  0  0  0  0  0  0
    8.2955  -17.8165   25.6094 O   0  0  0  0  0  0  0  0  0  0  0  0
    7.2195  -18.4351   25.4244 O   0  0  0  0  0  0  0  0  0  0  0  0
  2  3  2  0
  2  1  1  0
  4  2  1  0
  5  6  1  0
  5  4  1  0
  6  7  1  0
  7  8  1  0
  8 10  1  0
  8  9  1  1
 10 18  1  0
 11 10  2  0
 13 12  1  0
 13 14  2  0
 15 13  1  0
 16 15  1  0
 17 16  1  6
 18 17  1  0
 19 20  2  0
 19 17  1  0
 22 21  1  0
 23 22  2  0
 24 22  1  0
 25 24  1  0
 26 27  1  0
 26 25  1  0
 28 27  1  6
 28 30  1  0
 28 29  1  0
 29 19  1  0
 30 32  1  0
 31 30  2  0
M  END
$$$$
