RQR.pdb
     RDKit          3D

 32 31  0  0  1  0  0  0  0  0999 V2000
    7.2523  -12.4672   16.1238 N   0  0  0  0  0  0  0  0  0  0  0  0
    7.8508  -13.7217   16.4283 C   0  0  0  0  0  0  0  0  0  0  0  0
    8.1112  -14.5599   15.4589 N   0  0  0  0  0  0  0  0  0  0  0  0
    8.1684  -14.0784   17.7677 N   0  0  0  0  0  0  0  0  0  0  0  0
    8.1892  -13.0895   18.8026 C   0  0  0  0  0  0  0  0  0  0  0  0
    7.3366  -13.4144   20.0005 C   0  0  0  0  0  0  0  0  0  0  0  0
    7.9054  -14.4404   20.9189 C   0  0  0  0  0  0  0  0  0  0  0  0
    8.2163  -15.7349   20.1797 C   0  0  2  0  0  0  0  0  0  0  0  0
    7.1456  -16.6726   20.3668 N   0  0  0  0  0  0  0  0  0  0  0  0
    9.5258  -16.2432   20.6885 C   0  0  0  0  0  0  0  0  0  0  0  0
    9.5053  -16.9471   21.7259 O   0  0  0  0  0  0  0  0  0  0  0  0
    8.5438  -15.4821   15.6421 N   0  0  0  0  0  0  0  0  0  0  0  0
   14.4385  -16.0012   17.2199 C   0  0  0  0  0  0  0  0  0  0  0  0
   14.2769  -14.8922   18.0940 O   0  0  0  0  0  0  0  0  0  0  0  0
   14.7541  -13.7584   17.8375 C   0  0  0  0  0  0  0  0  0  0  0  0
   13.5182  -15.0584   19.3655 C   0  0  0  0  0  0  0  0  0  0  0  0
   13.0373  -16.4703   19.5457 C   0  0  1  0  0  0  0  0  0  0  0  0
   11.9697  -16.5377   20.6326 N   0  0  0  0  0  0  0  0  0  0  0  0
   10.7674  -15.9916   20.0925 C   0  0  0  0  0  0  0  0  0  0  0  0
   12.4177  -15.8836   21.8674 O   0  0  0  0  0  0  0  0  0  0  0  0
   12.4875  -14.6443   22.0305 N   0  0  0  0  0  0  0  0  0  0  0  0
    9.2209  -16.3359   28.6784 C   0  0  0  0  0  0  0  0  0  0  0  0
   10.1679  -15.2930   28.4040 N   0  0  0  0  0  0  0  0  0  0  0  0
   10.0124  -14.1659   28.9525 N   0  0  0  0  0  0  0  0  0  0  0  0
   11.2650  -15.4959   27.5443 C   0  0  0  0  0  0  0  0  0  0  0  0
   12.4497  -16.2059   27.7976 C   0  0  0  0  0  0  0  0  0  0  0  0
   13.4761  -16.2508   26.7018 C   0  0  0  0  0  0  0  0  0  0  0  0
   12.8594  -16.8923   25.4367 C   0  0  1  0  0  0  0  0  0  0  0  0
   13.2530  -16.1181   24.2140 N   0  0  0  0  0  0  0  0  0  0  0  0
   12.8100  -16.6879   22.9814 C   0  0  0  0  0  0  0  0  0  0  0  0
   14.7254  -15.8474   24.2103 O   0  0  0  0  0  0  0  0  0  0  0  0
   15.5224  -16.4042   23.4169 O   0  0  0  0  0  0  0  0  0  0  0  0
  2  3  2  0
  2  1  1  0
  4  2  1  0
  5  6  1  0
  5  4  1  0
  6  7  1  0
  7  8  1  0
  8 10  1  0
  8  9  1  1
 10 18  1  0
 11 10  2  0
 13 12  1  0
 13 14  2  0
 15 13  1  0
 16 15  1  0
 17 16  1  6
 18 17  1  0
 19 20  2  0
 19 17  1  0
 22 21  1  0
 23 22  2  0
 24 22  1  0
 25 24  1  0
 26 27  1  0
 26 25  1  0
 28 27  1  1
 28 30  1  0
 28 29  1  0
 29 19  1  0
 30 32  1  0
 31 30  2  0
M  END
$$$$
