RQR.pdb
     RDKit          3D

 32 31  0  0  1  0  0  0  0  0999 V2000
    8.1743  -13.7846   17.0062 N   0  0  0  0  0  0  0  0  0  0  0  0
    7.0364  -13.7683   17.8605 C   0  0  0  0  0  0  0  0  0  0  0  0
    6.4295  -12.6347   18.0984 N   0  0  0  0  0  0  0  0  0  0  0  0
    6.5505  -14.9628   18.4598 N   0  0  0  0  0  0  0  0  0  0  0  0
    7.3923  -15.7496   19.3093 C   0  0  0  0  0  0  0  0  0  0  0  0
    7.1932  -15.5159   20.7835 C   0  0  0  0  0  0  0  0  0  0  0  0
    8.0614  -16.3360   21.6742 C   0  0  0  0  0  0  0  0  0  0  0  0
    9.3596  -15.6115   22.0034 C   0  0  2  0  0  0  0  0  0  0  0  0
   10.4649  -16.2851   21.3828 N   0  0  0  0  0  0  0  0  0  0  0  0
    9.4799  -15.5524   23.4914 C   0  0  0  0  0  0  0  0  0  0  0  0
   10.5611  -15.9374   23.9964 O   0  0  0  0  0  0  0  0  0  0  0  0
    5.5879  -12.5866   18.6989 N   0  0  0  0  0  0  0  0  0  0  0  0
    5.5773  -12.6061   27.3875 C   0  0  0  0  0  0  0  0  0  0  0  0
    6.6795  -11.9627   26.7619 O   0  0  0  0  0  0  0  0  0  0  0  0
    6.7525  -10.7135   26.6470 C   0  0  0  0  0  0  0  0  0  0  0  0
    7.7990  -12.7802   26.2156 C   0  0  0  0  0  0  0  0  0  0  0  0
    7.5450  -14.2518   26.3804 C   0  0  2  0  0  0  0  0  0  0  0  0
    8.6822  -15.0632   25.7688 N   0  0  0  0  0  0  0  0  0  0  0  0
    8.4774  -15.0996   24.3574 C   0  0  0  0  0  0  0  0  0  0  0  0
    8.7904  -16.3889   26.3885 O   0  0  0  0  0  0  0  0  0  0  0  0
    7.8398  -17.1936   26.5166 N   0  0  0  0  0  0  0  0  0  0  0  0
    7.2882  -20.8115   24.1054 C   0  0  0  0  0  0  0  0  0  0  0  0
    8.5158  -20.7684   23.3632 N   0  0  0  0  0  0  0  0  0  0  0  0
    8.4680  -20.6150   22.1103 N   0  0  0  0  0  0  0  0  0  0  0  0
    9.7686  -20.8885   23.9957 C   0  0  0  0  0  0  0  0  0  0  0  0
   10.1227  -20.5178   25.3029 C   0  0  0  0  0  0  0  0  0  0  0  0
   10.8619  -19.2219   25.4774 C   0  0  0  0  0  0  0  0  0  0  0  0
   11.1922  -19.0083   26.9733 C   0  0  2  0  0  0  0  0  0  0  0  0
   10.2119  -18.0579   27.5939 N   0  0  0  0  0  0  0  0  0  0  0  0
   10.0548  -16.8237   26.8924 C   0  0  0  0  0  0  0  0  0  0  0  0
   10.5259  -17.8448   29.0421 O   0  0  0  0  0  0  0  0  0  0  0  0
   10.8312  -16.7251   29.5193 O   0  0  0  0  0  0  0  0  0  0  0  0
  2  3  2  0
  2  1  1  0
  4  2  1  0
  5  6  1  0
  5  4  1  0
  6  7  1  0
  7  8  1  0
  8 10  1  0
  8  9  1  6
 10 18  1  0
 11 10  2  0
 13 12  1  0
 13 14  2  0
 15 13  1  0
 16 15  1  0
 17 16  1  6
 18 17  1  0
 19 20  2  0
 19 17  1  0
 22 21  1  0
 23 22  2  0
 24 22  1  0
 25 24  1  0
 26 27  1  0
 26 25  1  0
 28 27  1  6
 28 30  1  0
 28 29  1  0
 29 19  1  0
 30 32  1  0
 31 30  2  0
M  END
$$$$
