RQR.pdb
     RDKit          3D

 32 31  0  0  1  0  0  0  0  0999 V2000
    6.6736  -14.3049   21.1350 N   0  0  0  0  0  0  0  0  0  0  0  0
    6.8900  -13.0393   20.5218 C   0  0  0  0  0  0  0  0  0  0  0  0
    7.0527  -11.9819   21.2739 N   0  0  0  0  0  0  0  0  0  0  0  0
    6.9304  -12.9058   19.1066 N   0  0  0  0  0  0  0  0  0  0  0  0
    7.7897  -13.7359   18.3181 C   0  0  0  0  0  0  0  0  0  0  0  0
    9.1155  -13.1147   17.9664 C   0  0  0  0  0  0  0  0  0  0  0  0
   10.3051  -13.7975   18.5480 C   0  0  0  0  0  0  0  0  0  0  0  0
   11.0632  -14.5878   17.4900 C   0  0  2  0  0  0  0  0  0  0  0  0
   10.2326  -15.6419   16.9804 N   0  0  0  0  0  0  0  0  0  0  0  0
   12.3204  -15.0946   18.1181 C   0  0  0  0  0  0  0  0  0  0  0  0
   12.2609  -16.1945   18.7171 O   0  0  0  0  0  0  0  0  0  0  0  0
    7.1892  -11.0415   20.8638 N   0  0  0  0  0  0  0  0  0  0  0  0
   17.8382  -12.5288   17.2361 C   0  0  0  0  0  0  0  0  0  0  0  0
   17.1611  -13.3995   16.3397 O   0  0  0  0  0  0  0  0  0  0  0  0
   17.4175  -13.4309   15.1100 C   0  0  0  0  0  0  0  0  0  0  0  0
   16.1057  -14.3158   16.8560 C   0  0  0  0  0  0  0  0  0  0  0  0
   15.9079  -14.1579   18.3369 C   0  0  2  0  0  0  0  0  0  0  0  0
   14.6813  -14.9372   18.7994 N   0  0  0  0  0  0  0  0  0  0  0  0
   13.5538  -14.4329   18.0854 C   0  0  0  0  0  0  0  0  0  0  0  0
   14.5319  -14.8882   20.2583 O   0  0  0  0  0  0  0  0  0  0  0  0
   14.2937  -13.8486   20.9141 N   0  0  0  0  0  0  0  0  0  0  0  0
    8.7461  -14.7324   24.8256 C   0  0  0  0  0  0  0  0  0  0  0  0
    8.6088  -15.7909   23.8662 N   0  0  0  0  0  0  0  0  0  0  0  0
    7.5714  -16.5110   23.8941 N   0  0  0  0  0  0  0  0  0  0  0  0
    9.5971  -16.0431   22.8948 C   0  0  0  0  0  0  0  0  0  0  0  0
   10.8294  -16.6966   23.0562 C   0  0  0  0  0  0  0  0  0  0  0  0
   12.0570  -15.9900   22.5561 C   0  0  0  0  0  0  0  0  0  0  0  0
   13.3183  -16.7888   22.9602 C   0  0  2  0  0  0  0  0  0  0  0  0
   14.5524  -16.1145   22.4390 N   0  0  0  0  0  0  0  0  0  0  0  0
   14.6619  -16.0933   21.0150 C   0  0  0  0  0  0  0  0  0  0  0  0
   15.7779  -16.6786   23.0881 O   0  0  0  0  0  0  0  0  0  0  0  0
   16.7103  -17.2148   22.4418 O   0  0  0  0  0  0  0  0  0  0  0  0
  2  3  2  0
  2  1  1  0
  4  2  1  0
  5  6  1  0
  5  4  1  0
  6  7  1  0
  7  8  1  0
  8 10  1  0
  8  9  1  1
 10 18  1  0
 11 10  2  0
 13 12  1  0
 13 14  2  0
 15 13  1  0
 16 15  1  0
 17 16  1  6
 18 17  1  0
 19 20  2  0
 19 17  1  0
 22 21  1  0
 23 22  2  0
 24 22  1  0
 25 24  1  0
 26 27  1  0
 26 25  1  0
 28 27  1  6
 28 30  1  0
 28 29  1  0
 29 19  1  0
 30 32  1  0
 31 30  2  0
M  END
$$$$
