AYK.pdb
     RDKit          3D

 27 27  0  0  1  0  0  0  0  0999 V2000
    8.4372  -18.4573   19.7562 C   0  0  0  0  0  0  0  0  0  0  0  0
    8.8176  -17.0385   19.3888 C   0  0  2  0  0  0  0  0  0  0  0  0
    9.9753  -17.0089   18.5411 N   0  0  0  0  0  0  0  0  0  0  0  0
    9.0746  -16.3183   20.6836 C   0  0  0  0  0  0  0  0  0  0  0  0
   10.2144  -16.3639   21.1538 O   0  0  0  0  0  0  0  0  0  0  0  0
    6.6753  -11.8195   28.1817 O   0  0  0  0  0  0  0  0  0  0  0  0
    6.8058  -12.3660   26.8997 C   0  0  0  0  0  0  0  0  0  0  0  0
    7.6425  -11.8133   25.9553 C   0  0  0  0  0  0  0  0  0  0  0  0
    7.7587  -12.3641   24.6989 C   0  0  0  0  0  0  0  0  0  0  0  0
    7.0365  -13.5053   24.3237 C   0  0  0  0  0  0  0  0  0  0  0  0
    7.1385  -14.0491   22.9624 C   0  0  0  0  0  0  0  0  0  0  0  0
    8.2068  -15.0196   22.6892 C   0  0  2  0  0  0  0  0  0  0  0  0
    8.0365  -15.6104   21.3397 N   0  0  0  0  0  0  0  0  0  0  0  0
    8.5436  -16.0569   23.6560 C   0  0  0  0  0  0  0  0  0  0  0  0
    7.7945  -17.1137   23.7265 O   0  0  0  0  0  0  0  0  0  0  0  0
    6.2045  -14.0412   25.2872 C   0  0  0  0  0  0  0  0  0  0  0  0
    6.0913  -13.4887   26.5397 C   0  0  0  0  0  0  0  0  0  0  0  0
    9.6212  -16.0836   24.5642 N   0  0  0  0  0  0  0  0  0  0  0  0
    9.8059  -17.2254   25.5224 C   0  0  1  0  0  0  0  0  0  0  0  0
   10.7798  -18.1249   24.9007 C   0  0  0  0  0  0  0  0  0  0  0  0
   11.0789  -19.4871   25.2601 C   0  0  0  0  0  0  0  0  0  0  0  0
   12.0683  -20.2502   24.4535 C   0  0  0  0  0  0  0  0  0  0  0  0
   12.2083  -21.6956   24.9251 C   0  0  0  0  0  0  0  0  0  0  0  0
   13.1686  -22.4149   24.1238 N   0  0  0  0  0  0  0  0  0  0  0  0
   10.0670  -16.6081   26.8137 C   0  0  0  0  0  0  0  0  0  0  0  0
   10.0948  -17.2928   27.8954 O   0  0  0  0  0  0  0  0  0  0  0  0
   10.3150  -15.2746   27.0339 O   0  0  0  0  0  0  0  0  0  0  0  0
  2  1  1  1
  2  3  1  0
  4  5  2  0
  4  2  1  0
  7  6  1  0
  8  7  2  0
  9  8  1  0
 10  9  2  0
 10 16  1  0
 12 11  1  1
 11 10  1  0
 12 13  1  0
 13  4  1  0
 14 15  2  0
 14 12  1  0
 16 17  2  0
 17  7  1  0
 18 14  1  0
 19 18  1  0
 19 20  1  6
 21 22  1  0
 21 20  1  0
 22 23  1  0
 23 24  1  0
 25 19  1  0
 26 25  2  0
 27 25  1  0
M  END
$$$$
