AYK.pdb
     RDKit          3D

 27 27  0  0  1  0  0  0  0  0999 V2000
    8.0140  -18.1855   19.5854 C   0  0  0  0  0  0  0  0  0  0  0  0
    8.6530  -16.8235   19.4139 C   0  0  2  0  0  0  0  0  0  0  0  0
    9.8760  -16.9083   18.6680 N   0  0  0  0  0  0  0  0  0  0  0  0
    8.8980  -16.2914   20.7989 C   0  0  0  0  0  0  0  0  0  0  0  0
    9.9480  -16.6100   21.3630 O   0  0  0  0  0  0  0  0  0  0  0  0
    7.1073  -11.4276   28.2305 O   0  0  0  0  0  0  0  0  0  0  0  0
    7.1418  -12.0227   26.9640 C   0  0  0  0  0  0  0  0  0  0  0  0
    8.1152  -11.7112   26.0404 C   0  0  0  0  0  0  0  0  0  0  0  0
    8.1340  -12.3063   24.7991 C   0  0  0  0  0  0  0  0  0  0  0  0
    7.1705  -13.2506   24.4187 C   0  0  0  0  0  0  0  0  0  0  0  0
    7.1804  -13.8382   23.0719 C   0  0  0  0  0  0  0  0  0  0  0  0
    8.1604  -14.8959   22.7916 C   0  0  2  0  0  0  0  0  0  0  0  0
    7.9491  -15.4502   21.4325 N   0  0  0  0  0  0  0  0  0  0  0  0
    8.3961  -15.9725   23.7453 C   0  0  0  0  0  0  0  0  0  0  0  0
    7.5480  -16.9524   23.8051 O   0  0  0  0  0  0  0  0  0  0  0  0
    6.2051  -13.5464   25.3612 C   0  0  0  0  0  0  0  0  0  0  0  0
    6.1898  -12.9504   26.5987 C   0  0  0  0  0  0  0  0  0  0  0  0
    9.4671  -16.1146   24.6505 N   0  0  0  0  0  0  0  0  0  0  0  0
    9.5450  -17.2841   25.5897 C   0  0  1  0  0  0  0  0  0  0  0  0
   10.5678  -18.1778   25.0428 C   0  0  0  0  0  0  0  0  0  0  0  0
   11.0454  -19.4180   25.5979 C   0  0  0  0  0  0  0  0  0  0  0  0
   12.1275  -20.1585   24.8961 C   0  0  0  0  0  0  0  0  0  0  0  0
   12.5418  -21.4240   25.6432 C   0  0  0  0  0  0  0  0  0  0  0  0
   13.5917  -22.1230   24.9427 N   0  0  0  0  0  0  0  0  0  0  0  0
    9.6817  -16.7053   26.9176 C   0  0  0  0  0  0  0  0  0  0  0  0
    9.3984  -17.3692   27.9752 O   0  0  0  0  0  0  0  0  0  0  0  0
   10.1196  -15.4342   27.2012 O   0  0  0  0  0  0  0  0  0  0  0  0
  2  1  1  1
  2  3  1  0
  4  5  2  0
  4  2  1  0
  7  6  1  0
  8  7  2  0
  9  8  1  0
 10  9  2  0
 10 16  1  0
 12 11  1  1
 11 10  1  0
 12 13  1  0
 13  4  1  0
 14 15  2  0
 14 12  1  0
 16 17  2  0
 17  7  1  0
 18 14  1  0
 19 18  1  0
 19 20  1  6
 21 22  1  0
 21 20  1  0
 22 23  1  0
 23 24  1  0
 25 19  1  0
 26 25  2  0
 27 25  1  0
M  END
$$$$
