AYK.pdb
     RDKit          3D

 27 27  0  0  1  0  0  0  0  0999 V2000
    8.6174  -18.5006   19.5406 C   0  0  0  0  0  0  0  0  0  0  0  0
    8.7511  -17.0289   19.2106 C   0  0  2  0  0  0  0  0  0  0  0  0
    9.8239  -16.7940   18.2869 N   0  0  0  0  0  0  0  0  0  0  0  0
    8.9935  -16.3210   20.5151 C   0  0  0  0  0  0  0  0  0  0  0  0
   10.1572  -16.2269   20.9139 O   0  0  0  0  0  0  0  0  0  0  0  0
    6.8645  -11.9940   28.1161 O   0  0  0  0  0  0  0  0  0  0  0  0
    6.8650  -12.5659   26.8386 C   0  0  0  0  0  0  0  0  0  0  0  0
    6.3109  -13.8034   26.5956 C   0  0  0  0  0  0  0  0  0  0  0  0
    6.3201  -14.3510   25.3325 C   0  0  0  0  0  0  0  0  0  0  0  0
    6.8896  -13.6801   24.2415 C   0  0  0  0  0  0  0  0  0  0  0  0
    6.9319  -14.3028   22.9111 C   0  0  0  0  0  0  0  0  0  0  0  0
    8.1096  -15.1113   22.5687 C   0  0  2  0  0  0  0  0  0  0  0  0
    7.9153  -15.7802   21.2596 N   0  0  0  0  0  0  0  0  0  0  0  0
    8.6864  -16.0419   23.5308 C   0  0  0  0  0  0  0  0  0  0  0  0
    8.1788  -17.2314   23.6327 O   0  0  0  0  0  0  0  0  0  0  0  0
    7.4388  -12.4415   24.5097 C   0  0  0  0  0  0  0  0  0  0  0  0
    7.4276  -11.8986   25.7715 C   0  0  0  0  0  0  0  0  0  0  0  0
    9.7729  -15.8297   24.4033 N   0  0  0  0  0  0  0  0  0  0  0  0
   10.3142  -16.9388   25.2594 C   0  0  1  0  0  0  0  0  0  0  0  0
   11.6085  -17.3048   24.6809 C   0  0  0  0  0  0  0  0  0  0  0  0
   12.4856  -18.3735   25.0841 C   0  0  0  0  0  0  0  0  0  0  0  0
   13.7392  -18.6115   24.3199 C   0  0  0  0  0  0  0  0  0  0  0  0
   14.4910  -19.8463   24.8108 C   0  0  0  0  0  0  0  0  0  0  0  0
   15.5508  -20.2075   23.9008 N   0  0  0  0  0  0  0  0  0  0  0  0
   10.2096  -16.4568   26.6282 C   0  0  0  0  0  0  0  0  0  0  0  0
    9.9055  -15.2418   26.8941 O   0  0  0  0  0  0  0  0  0  0  0  0
   10.4051  -17.2061   27.7633 O   0  0  0  0  0  0  0  0  0  0  0  0
  2  1  1  1
  2  3  1  0
  4  5  2  0
  4  2  1  0
  7  6  1  0
  8  7  2  0
  9  8  1  0
 10  9  2  0
 10 16  1  0
 12 11  1  1
 11 10  1  0
 12 13  1  0
 13  4  1  0
 14 15  2  0
 14 12  1  0
 16 17  2  0
 17  7  1  0
 18 14  1  0
 19 18  1  0
 19 20  1  6
 21 22  1  0
 21 20  1  0
 22 23  1  0
 23 24  1  0
 25 19  1  0
 26 25  2  0
 27 25  1  0
M  END
$$$$
