AYK.pdb
     RDKit          3D

 27 27  0  0  1  0  0  0  0  0999 V2000
    7.9656  -18.3760   19.6400 C   0  0  0  0  0  0  0  0  0  0  0  0
    8.3091  -16.9536   19.2511 C   0  0  2  0  0  0  0  0  0  0  0  0
    9.3844  -16.9148   18.3014 N   0  0  0  0  0  0  0  0  0  0  0  0
    8.6826  -16.2434   20.5229 C   0  0  0  0  0  0  0  0  0  0  0  0
    9.8704  -16.2424   20.8567 O   0  0  0  0  0  0  0  0  0  0  0  0
    7.3576  -11.7386   28.2017 O   0  0  0  0  0  0  0  0  0  0  0  0
    7.2416  -12.3033   26.9262 C   0  0  0  0  0  0  0  0  0  0  0  0
    6.4671  -13.4181   26.6921 C   0  0  0  0  0  0  0  0  0  0  0  0
    6.3643  -13.9603   25.4309 C   0  0  0  0  0  0  0  0  0  0  0  0
    7.0380  -13.4079   24.3329 C   0  0  0  0  0  0  0  0  0  0  0  0
    6.9532  -14.0303   23.0044 C   0  0  0  0  0  0  0  0  0  0  0  0
    8.0072  -14.9795   22.6226 C   0  0  2  0  0  0  0  0  0  0  0  0
    7.6972  -15.5968   21.3103 N   0  0  0  0  0  0  0  0  0  0  0  0
    8.4800  -15.9922   23.5581 C   0  0  0  0  0  0  0  0  0  0  0  0
    7.8620  -17.1316   23.6120 O   0  0  0  0  0  0  0  0  0  0  0  0
    7.8081  -12.2910   24.5923 C   0  0  0  0  0  0  0  0  0  0  0  0
    7.9080  -11.7529   25.8522 C   0  0  0  0  0  0  0  0  0  0  0  0
    9.5681  -15.9126   24.4505 N   0  0  0  0  0  0  0  0  0  0  0  0
   10.0105  -17.1047   25.2498 C   0  0  1  0  0  0  0  0  0  0  0  0
   11.1108  -17.7126   24.4990 C   0  0  0  0  0  0  0  0  0  0  0  0
   11.0286  -18.5154   23.3062 C   0  0  0  0  0  0  0  0  0  0  0  0
   12.2782  -19.0546   22.7064 C   0  0  0  0  0  0  0  0  0  0  0  0
   12.0036  -19.9332   21.4883 C   0  0  0  0  0  0  0  0  0  0  0  0
   13.2309  -20.4385   20.9224 N   0  0  0  0  0  0  0  0  0  0  0  0
   10.2045  -16.6115   26.6048 C   0  0  0  0  0  0  0  0  0  0  0  0
   10.4047  -15.3705   26.8486 O   0  0  0  0  0  0  0  0  0  0  0  0
   10.1911  -17.3724   27.7489 O   0  0  0  0  0  0  0  0  0  0  0  0
  2  1  1  1
  2  3  1  0
  4  5  2  0
  4  2  1  0
  7  6  1  0
  8  7  2  0
  9  8  1  0
 10  9  2  0
 10 16  1  0
 12 11  1  1
 11 10  1  0
 12 13  1  0
 13  4  1  0
 14 15  2  0
 14 12  1  0
 16 17  2  0
 17  7  1  0
 18 14  1  0
 19 18  1  0
 19 20  1  6
 21 22  1  0
 21 20  1  0
 22 23  1  0
 23 24  1  0
 25 19  1  0
 26 25  2  0
 27 25  1  0
M  END
$$$$
