AYK.pdb
     RDKit          3D

 27 27  0  0  1  0  0  0  0  0999 V2000
    8.6342  -18.7453   19.8696 C   0  0  0  0  0  0  0  0  0  0  0  0
    8.8880  -17.2946   19.5180 C   0  0  2  0  0  0  0  0  0  0  0  0
   10.0134  -17.1575   18.6381 N   0  0  0  0  0  0  0  0  0  0  0  0
    9.1253  -16.5772   20.8182 C   0  0  0  0  0  0  0  0  0  0  0  0
   10.2766  -16.5486   21.2607 O   0  0  0  0  0  0  0  0  0  0  0  0
    6.9133  -11.4685   27.9661 O   0  0  0  0  0  0  0  0  0  0  0  0
    6.9840  -12.1660   26.7546 C   0  0  0  0  0  0  0  0  0  0  0  0
    7.7317  -11.7060   25.6931 C   0  0  0  0  0  0  0  0  0  0  0  0
    7.7900  -12.4051   24.5085 C   0  0  0  0  0  0  0  0  0  0  0  0
    7.0962  -13.6096   24.3275 C   0  0  0  0  0  0  0  0  0  0  0  0
    7.1331  -14.3155   23.0392 C   0  0  0  0  0  0  0  0  0  0  0  0
    8.2505  -15.2367   22.7930 C   0  0  2  0  0  0  0  0  0  0  0  0
    8.0562  -15.9547   21.5101 N   0  0  0  0  0  0  0  0  0  0  0  0
    8.7029  -16.1606   23.8255 C   0  0  0  0  0  0  0  0  0  0  0  0
    8.0843  -17.2920   23.9675 O   0  0  0  0  0  0  0  0  0  0  0  0
    6.3536  -14.0504   25.4055 C   0  0  0  0  0  0  0  0  0  0  0  0
    6.2981  -13.3499   26.5858 C   0  0  0  0  0  0  0  0  0  0  0  0
    9.7709  -15.9989   24.7309 N   0  0  0  0  0  0  0  0  0  0  0  0
   10.2090  -17.1203   25.6290 C   0  0  1  0  0  0  0  0  0  0  0  0
   11.3757  -17.7261   24.9840 C   0  0  0  0  0  0  0  0  0  0  0  0
   11.4169  -18.9112   24.1667 C   0  0  0  0  0  0  0  0  0  0  0  0
   12.6887  -19.2835   23.4914 C   0  0  0  0  0  0  0  0  0  0  0  0
   12.5241  -20.4914   22.5722 C   0  0  0  0  0  0  0  0  0  0  0  0
   13.7496  -20.7817   21.8681 N   0  0  0  0  0  0  0  0  0  0  0  0
   10.3009  -16.5373   26.9588 C   0  0  0  0  0  0  0  0  0  0  0  0
   10.2316  -15.2727   27.1471 O   0  0  0  0  0  0  0  0  0  0  0  0
   10.4579  -17.2319   28.1339 O   0  0  0  0  0  0  0  0  0  0  0  0
  2  1  1  1
  2  3  1  0
  4  5  2  0
  4  2  1  0
  7  6  1  0
  8  7  2  0
  9  8  1  0
 10  9  2  0
 10 16  1  0
 12 11  1  1
 11 10  1  0
 12 13  1  0
 13  4  1  0
 14 15  2  0
 14 12  1  0
 16 17  2  0
 17  7  1  0
 18 14  1  0
 19 18  1  0
 19 20  1  6
 21 22  1  0
 21 20  1  0
 22 23  1  0
 23 24  1  0
 25 19  1  0
 26 25  2  0
 27 25  1  0
M  END
$$$$
