AYK.pdb
     RDKit          3D

 27 27  0  0  1  0  0  0  0  0999 V2000
    8.7066  -18.5443   19.7645 C   0  0  0  0  0  0  0  0  0  0  0  0
    9.0043  -17.0888   19.4717 C   0  0  2  0  0  0  0  0  0  0  0  0
   10.1634  -16.9483   18.6373 N   0  0  0  0  0  0  0  0  0  0  0  0
    9.2099  -16.4206   20.8030 C   0  0  0  0  0  0  0  0  0  0  0  0
   10.3578  -16.3684   21.2522 O   0  0  0  0  0  0  0  0  0  0  0  0
    6.7104  -11.7960   28.1870 O   0  0  0  0  0  0  0  0  0  0  0  0
    6.8320  -12.4119   26.9359 C   0  0  0  0  0  0  0  0  0  0  0  0
    7.5837  -11.8585   25.9229 C   0  0  0  0  0  0  0  0  0  0  0  0
    7.6924  -12.4781   24.6983 C   0  0  0  0  0  0  0  0  0  0  0  0
    7.0481  -13.6927   24.4260 C   0  0  0  0  0  0  0  0  0  0  0  0
    7.1379  -14.3132   23.0970 C   0  0  0  0  0  0  0  0  0  0  0  0
    8.2790  -15.1982   22.8283 C   0  0  2  0  0  0  0  0  0  0  0  0
    8.1158  -15.8693   21.5160 N   0  0  0  0  0  0  0  0  0  0  0  0
    8.7413  -16.1516   23.8291 C   0  0  0  0  0  0  0  0  0  0  0  0
    8.1001  -17.2705   23.9707 O   0  0  0  0  0  0  0  0  0  0  0  0
    6.3005  -14.2279   25.4567 C   0  0  0  0  0  0  0  0  0  0  0  0
    6.1945  -13.6066   26.6773 C   0  0  0  0  0  0  0  0  0  0  0  0
    9.8411  -16.0323   24.7025 N   0  0  0  0  0  0  0  0  0  0  0  0
   10.1895  -17.1250   25.6723 C   0  0  1  0  0  0  0  0  0  0  0  0
   11.3761  -17.7886   25.1287 C   0  0  0  0  0  0  0  0  0  0  0  0
   11.4686  -18.6004   23.9427 C   0  0  0  0  0  0  0  0  0  0  0  0
   12.7651  -19.2455   23.6038 C   0  0  0  0  0  0  0  0  0  0  0  0
   12.7174  -19.9710   22.2613 C   0  0  0  0  0  0  0  0  0  0  0  0
   13.9924  -20.5678   21.9454 N   0  0  0  0  0  0  0  0  0  0  0  0
   10.2148  -16.4877   26.9800 C   0  0  0  0  0  0  0  0  0  0  0  0
   10.2495  -15.2143   27.1093 O   0  0  0  0  0  0  0  0  0  0  0  0
   10.1972  -17.1348   28.1921 O   0  0  0  0  0  0  0  0  0  0  0  0
  2  1  1  1
  2  3  1  0
  4  5  2  0
  4  2  1  0
  7  6  1  0
  8  7  2  0
  9  8  1  0
 10  9  2  0
 10 16  1  0
 12 11  1  1
 11 10  1  0
 12 13  1  0
 13  4  1  0
 14 15  2  0
 14 12  1  0
 16 17  2  0
 17  7  1  0
 18 14  1  0
 19 18  1  0
 19 20  1  6
 21 22  1  0
 21 20  1  0
 22 23  1  0
 23 24  1  0
 25 19  1  0
 26 25  2  0
 27 25  1  0
M  END
$$$$
