AYK.pdb
     RDKit          3D

 27 27  0  0  1  0  0  0  0  0999 V2000
    7.9516  -13.3517   18.0927 C   0  0  0  0  0  0  0  0  0  0  0  0
    8.2476  -14.6985   18.7181 C   0  0  2  0  0  0  0  0  0  0  0  0
    7.1150  -15.5759   18.6340 N   0  0  0  0  0  0  0  0  0  0  0  0
    8.6206  -14.4298   20.1498 C   0  0  0  0  0  0  0  0  0  0  0  0
    9.7784  -14.0768   20.3888 O   0  0  0  0  0  0  0  0  0  0  0  0
    7.4375  -12.8417   28.8964 O   0  0  0  0  0  0  0  0  0  0  0  0
    7.2942  -13.0336   27.5173 C   0  0  0  0  0  0  0  0  0  0  0  0
    6.7324  -14.1786   26.9968 C   0  0  0  0  0  0  0  0  0  0  0  0
    6.5992  -14.3507   25.6375 C   0  0  0  0  0  0  0  0  0  0  0  0
    7.0257  -13.3761   24.7248 C   0  0  0  0  0  0  0  0  0  0  0  0
    6.9184  -13.6000   23.2765 C   0  0  0  0  0  0  0  0  0  0  0  0
    8.0019  -14.3379   22.6137 C   0  0  2  0  0  0  0  0  0  0  0  0
    7.6682  -14.5786   21.1891 N   0  0  0  0  0  0  0  0  0  0  0  0
    8.5646  -15.5423   23.2113 C   0  0  0  0  0  0  0  0  0  0  0  0
    7.9623  -16.6754   23.0208 O   0  0  0  0  0  0  0  0  0  0  0  0
    7.5857  -12.2374   25.2702 C   0  0  0  0  0  0  0  0  0  0  0  0
    7.7168  -12.0694   26.6272 C   0  0  0  0  0  0  0  0  0  0  0  0
    9.7282  -15.6619   23.9976 N   0  0  0  0  0  0  0  0  0  0  0  0
   10.1787  -16.9933   24.5271 C   0  0  1  0  0  0  0  0  0  0  0  0
   11.3973  -17.3333   23.7900 C   0  0  0  0  0  0  0  0  0  0  0  0
   12.0228  -18.6246   23.6653 C   0  0  0  0  0  0  0  0  0  0  0  0
   13.2652  -18.7545   22.8582 C   0  0  0  0  0  0  0  0  0  0  0  0
   13.7394  -20.2021   22.7543 C   0  0  0  0  0  0  0  0  0  0  0  0
   14.8710  -20.3177   21.8666 N   0  0  0  0  0  0  0  0  0  0  0  0
   10.1886  -16.8504   25.9749 C   0  0  0  0  0  0  0  0  0  0  0  0
    9.9888  -15.7201   26.5425 O   0  0  0  0  0  0  0  0  0  0  0  0
   10.3951  -17.8609   26.8829 O   0  0  0  0  0  0  0  0  0  0  0  0
  2  1  1  1
  2  3  1  0
  4  5  2  0
  4  2  1  0
  7  6  1  0
  8  7  2  0
  9  8  1  0
 10  9  2  0
 10 16  1  0
 12 11  1  1
 11 10  1  0
 12 13  1  0
 13  4  1  0
 14 15  2  0
 14 12  1  0
 16 17  2  0
 17  7  1  0
 18 14  1  0
 19 18  1  0
 19 20  1  6
 21 22  1  0
 21 20  1  0
 22 23  1  0
 23 24  1  0
 25 19  1  0
 26 25  2  0
 27 25  1  0
M  END
$$$$
