AYK.pdb
     RDKit          3D

 27 27  0  0  1  0  0  0  0  0999 V2000
    6.2897  -15.7490   20.0669 C   0  0  0  0  0  0  0  0  0  0  0  0
    6.9741  -14.4042   20.1932 C   0  0  2  0  0  0  0  0  0  0  0  0
    7.8138  -14.1349   19.0610 N   0  0  0  0  0  0  0  0  0  0  0  0
    7.7763  -14.4531   21.4642 C   0  0  0  0  0  0  0  0  0  0  0  0
    8.9573  -14.8018   21.3891 O   0  0  0  0  0  0  0  0  0  0  0  0
    9.2701  -13.6446   30.3122 O   0  0  0  0  0  0  0  0  0  0  0  0
    8.7631  -13.5573   29.0104 C   0  0  0  0  0  0  0  0  0  0  0  0
    7.6085  -14.2077   28.6344 C   0  0  0  0  0  0  0  0  0  0  0  0
    7.1241  -14.1107   27.3495 C   0  0  0  0  0  0  0  0  0  0  0  0
    7.7779  -13.3510   26.3696 C   0  0  0  0  0  0  0  0  0  0  0  0
    7.2705  -13.2994   24.9915 C   0  0  0  0  0  0  0  0  0  0  0  0
    7.9566  -14.1098   23.9766 C   0  0  2  0  0  0  0  0  0  0  0  0
    7.1893  -14.1083   22.7076 N   0  0  0  0  0  0  0  0  0  0  0  0
    8.4251  -15.4558   24.2819 C   0  0  0  0  0  0  0  0  0  0  0  0
    7.5787  -16.4379   24.2387 O   0  0  0  0  0  0  0  0  0  0  0  0
    8.9330  -12.7083   26.7701 C   0  0  0  0  0  0  0  0  0  0  0  0
    9.4132  -12.8076   28.0533 C   0  0  0  0  0  0  0  0  0  0  0  0
    9.7287  -15.8663   24.6268 N   0  0  0  0  0  0  0  0  0  0  0  0
   10.0460  -17.3090   24.8988 C   0  0  1  0  0  0  0  0  0  0  0  0
   10.8487  -17.7701   23.7643 C   0  0  0  0  0  0  0  0  0  0  0  0
   10.4596  -17.8454   22.3797 C   0  0  0  0  0  0  0  0  0  0  0  0
   11.4628  -18.2657   21.3655 C   0  0  0  0  0  0  0  0  0  0  0  0
   10.8826  -18.2921   19.9535 C   0  0  0  0  0  0  0  0  0  0  0  0
   11.9207  -18.4647   18.9663 N   0  0  0  0  0  0  0  0  0  0  0  0
   10.5705  -17.3404   26.2555 C   0  0  0  0  0  0  0  0  0  0  0  0
   10.9485  -16.2753   26.8573 O   0  0  0  0  0  0  0  0  0  0  0  0
   10.7155  -18.4608   27.0376 O   0  0  0  0  0  0  0  0  0  0  0  0
  2  1  1  6
  2  3  1  0
  4  5  2  0
  4  2  1  0
  7  6  1  0
  8  7  2  0
  9  8  1  0
 10  9  2  0
 10 16  1  0
 12 11  1  1
 11 10  1  0
 12 13  1  0
 13  4  1  0
 14 15  2  0
 14 12  1  0
 16 17  2  0
 17  7  1  0
 18 14  1  0
 19 18  1  0
 19 20  1  6
 21 22  1  0
 21 20  1  0
 22 23  1  0
 23 24  1  0
 25 19  1  0
 26 25  2  0
 27 25  1  0
M  END
$$$$
