AYK.pdb
     RDKit          3D

 27 27  0  0  1  0  0  0  0  0999 V2000
   10.4282  -17.2257   19.1481 C   0  0  0  0  0  0  0  0  0  0  0  0
   10.1280  -17.9028   20.4688 C   0  0  2  0  0  0  0  0  0  0  0  0
    8.8310  -18.5170   20.4601 N   0  0  0  0  0  0  0  0  0  0  0  0
   10.2156  -16.8348   21.5238 C   0  0  0  0  0  0  0  0  0  0  0  0
   11.3146  -16.3124   21.7273 O   0  0  0  0  0  0  0  0  0  0  0  0
    6.9860  -12.7449   17.6747 O   0  0  0  0  0  0  0  0  0  0  0  0
    7.2458  -13.1638   18.9848 C   0  0  0  0  0  0  0  0  0  0  0  0
    6.5341  -14.1838   19.5768 C   0  0  0  0  0  0  0  0  0  0  0  0
    6.8031  -14.5830   20.8666 C   0  0  0  0  0  0  0  0  0  0  0  0
    7.8066  -13.9749   21.6333 C   0  0  0  0  0  0  0  0  0  0  0  0
    8.0455  -14.3836   23.0244 C   0  0  0  0  0  0  0  0  0  0  0  0
    9.1062  -15.3676   23.2783 C   0  0  2  0  0  0  0  0  0  0  0  0
    9.0684  -16.4439   22.2589 N   0  0  0  0  0  0  0  0  0  0  0  0
    9.3000  -15.9361   24.6063 C   0  0  0  0  0  0  0  0  0  0  0  0
    9.3531  -15.1376   25.6273 O   0  0  0  0  0  0  0  0  0  0  0  0
    8.5063  -12.9550   21.0184 C   0  0  0  0  0  0  0  0  0  0  0  0
    8.2349  -12.5596   19.7312 C   0  0  0  0  0  0  0  0  0  0  0  0
    9.4375  -17.2935   24.9604 N   0  0  0  0  0  0  0  0  0  0  0  0
    9.5553  -17.7170   26.3967 C   0  0  1  0  0  0  0  0  0  0  0  0
    8.8518  -18.9968   26.5026 C   0  0  0  0  0  0  0  0  0  0  0  0
    8.7267  -19.8426   27.6615 C   0  0  0  0  0  0  0  0  0  0  0  0
    8.1004  -21.1838   27.5172 C   0  0  0  0  0  0  0  0  0  0  0  0
    8.0015  -21.9230   28.8495 C   0  0  0  0  0  0  0  0  0  0  0  0
    7.2151  -23.1259   28.7214 N   0  0  0  0  0  0  0  0  0  0  0  0
   10.9699  -17.6057   26.7178 C   0  0  0  0  0  0  0  0  0  0  0  0
   11.3734  -17.3365   27.9029 O   0  0  0  0  0  0  0  0  0  0  0  0
   12.0116  -17.7744   25.8378 O   0  0  0  0  0  0  0  0  0  0  0  0
  2  1  1  6
  2  3  1  0
  4  5  2  0
  4  2  1  0
  7  6  1  0
  8  7  2  0
  9  8  1  0
 10  9  2  0
 10 16  1  0
 12 11  1  1
 11 10  1  0
 12 13  1  0
 13  4  1  0
 14 15  2  0
 14 12  1  0
 16 17  2  0
 17  7  1  0
 18 14  1  0
 19 18  1  0
 19 20  1  6
 21 22  1  0
 21 20  1  0
 22 23  1  0
 23 24  1  0
 25 19  1  0
 26 25  2  0
 27 25  1  0
M  END
$$$$
