AYK.pdb
     RDKit          3D

 27 27  0  0  1  0  0  0  0  0999 V2000
    7.8482  -13.3716   18.1127 C   0  0  0  0  0  0  0  0  0  0  0  0
    8.3220  -14.6790   18.7119 C   0  0  2  0  0  0  0  0  0  0  0  0
    7.3420  -15.7150   18.5514 N   0  0  0  0  0  0  0  0  0  0  0  0
    8.5913  -14.4073   20.1662 C   0  0  0  0  0  0  0  0  0  0  0  0
    9.6118  -13.7779   20.4572 O   0  0  0  0  0  0  0  0  0  0  0  0
    7.1437  -12.5064   28.7307 O   0  0  0  0  0  0  0  0  0  0  0  0
    7.0657  -12.8998   27.3897 C   0  0  0  0  0  0  0  0  0  0  0  0
    7.2403  -12.0044   26.3577 C   0  0  0  0  0  0  0  0  0  0  0  0
    7.1603  -12.4088   25.0442 C   0  0  0  0  0  0  0  0  0  0  0  0
    6.8992  -13.7415   24.6970 C   0  0  0  0  0  0  0  0  0  0  0  0
    6.7702  -14.1431   23.2894 C   0  0  0  0  0  0  0  0  0  0  0  0
    7.9623  -14.6737   22.6148 C   0  0  2  0  0  0  0  0  0  0  0  0
    7.6975  -14.8622   21.1680 N   0  0  0  0  0  0  0  0  0  0  0  0
    8.6785  -15.8242   23.1513 C   0  0  0  0  0  0  0  0  0  0  0  0
    8.1663  -17.0064   23.0000 O   0  0  0  0  0  0  0  0  0  0  0  0
    6.7278  -14.6204   25.7485 C   0  0  0  0  0  0  0  0  0  0  0  0
    6.8084  -14.2129   27.0578 C   0  0  0  0  0  0  0  0  0  0  0  0
    9.9097  -15.8406   23.8372 N   0  0  0  0  0  0  0  0  0  0  0  0
   10.5274  -17.1288   24.3010 C   0  0  1  0  0  0  0  0  0  0  0  0
   11.7747  -17.2762   23.5483 C   0  0  0  0  0  0  0  0  0  0  0  0
   11.9419  -17.7595   22.2020 C   0  0  0  0  0  0  0  0  0  0  0  0
   13.3123  -17.8674   21.6342 C   0  0  0  0  0  0  0  0  0  0  0  0
   13.3101  -18.4498   20.2229 C   0  0  0  0  0  0  0  0  0  0  0  0
   14.6522  -18.5752   19.7084 N   0  0  0  0  0  0  0  0  0  0  0  0
   10.5280  -17.0562   25.7541 C   0  0  0  0  0  0  0  0  0  0  0  0
   10.3307  -15.9535   26.3744 O   0  0  0  0  0  0  0  0  0  0  0  0
   10.7223  -18.1106   26.6134 O   0  0  0  0  0  0  0  0  0  0  0  0
  2  1  1  1
  2  3  1  0
  4  5  2  0
  4  2  1  0
  7  6  1  0
  8  7  2  0
  9  8  1  0
 10  9  2  0
 10 16  1  0
 12 11  1  1
 11 10  1  0
 12 13  1  0
 13  4  1  0
 14 15  2  0
 14 12  1  0
 16 17  2  0
 17  7  1  0
 18 14  1  0
 19 18  1  0
 19 20  1  6
 21 22  1  0
 21 20  1  0
 22 23  1  0
 23 24  1  0
 25 19  1  0
 26 25  2  0
 27 25  1  0
M  END
$$$$
