AYK.pdb
     RDKit          3D

 27 27  0  0  1  0  0  0  0  0999 V2000
    8.7478  -18.5810   19.8486 C   0  0  0  0  0  0  0  0  0  0  0  0
    9.0860  -17.1231   19.6183 C   0  0  2  0  0  0  0  0  0  0  0  0
   10.3016  -16.9789   18.8693 N   0  0  0  0  0  0  0  0  0  0  0  0
    9.2093  -16.4952   20.9791 C   0  0  0  0  0  0  0  0  0  0  0  0
   10.2929  -16.5872   21.5619 O   0  0  0  0  0  0  0  0  0  0  0  0
    6.5637  -11.4650   28.0330 O   0  0  0  0  0  0  0  0  0  0  0  0
    6.7088  -12.1414   26.8161 C   0  0  0  0  0  0  0  0  0  0  0  0
    7.5567  -11.6891   25.8293 C   0  0  0  0  0  0  0  0  0  0  0  0
    7.6872  -12.3671   24.6382 C   0  0  0  0  0  0  0  0  0  0  0  0
    6.9686  -13.5414   24.3750 C   0  0  0  0  0  0  0  0  0  0  0  0
    7.0861  -14.2234   23.0786 C   0  0  0  0  0  0  0  0  0  0  0  0
    8.2056  -15.1560   22.8925 C   0  0  2  0  0  0  0  0  0  0  0  0
    8.1121  -15.8195   21.5697 N   0  0  0  0  0  0  0  0  0  0  0  0
    8.5517  -16.1281   23.9219 C   0  0  0  0  0  0  0  0  0  0  0  0
    7.9645  -17.2848   23.9130 O   0  0  0  0  0  0  0  0  0  0  0  0
    6.1252  -13.9751   25.3791 C   0  0  0  0  0  0  0  0  0  0  0  0
    5.9978  -13.2958   26.5662 C   0  0  0  0  0  0  0  0  0  0  0  0
    9.4818  -15.9902   24.9719 N   0  0  0  0  0  0  0  0  0  0  0  0
    9.7324  -17.1074   25.9440 C   0  0  1  0  0  0  0  0  0  0  0  0
   10.4595  -18.1383   25.2006 C   0  0  0  0  0  0  0  0  0  0  0  0
   11.0097  -19.3694   25.7063 C   0  0  0  0  0  0  0  0  0  0  0  0
   11.6848  -20.3033   24.7661 C   0  0  0  0  0  0  0  0  0  0  0  0
   12.1420  -21.5874   25.4539 C   0  0  0  0  0  0  0  0  0  0  0  0
   12.8768  -22.4329   24.5445 N   0  0  0  0  0  0  0  0  0  0  0  0
   10.3124  -16.4749   27.1189 C   0  0  0  0  0  0  0  0  0  0  0  0
   10.4303  -17.0979   28.2313 O   0  0  0  0  0  0  0  0  0  0  0  0
   10.7955  -15.1903   27.1865 O   0  0  0  0  0  0  0  0  0  0  0  0
  2  1  1  1
  2  3  1  0
  4  5  2  0
  4  2  1  0
  7  6  1  0
  8  7  2  0
  9  8  1  0
 10  9  2  0
 10 16  1  0
 12 11  1  1
 11 10  1  0
 12 13  1  0
 13  4  1  0
 14 15  2  0
 14 12  1  0
 16 17  2  0
 17  7  1  0
 18 14  1  0
 19 18  1  0
 19 20  1  6
 21 22  1  0
 21 20  1  0
 22 23  1  0
 23 24  1  0
 25 19  1  0
 26 25  2  0
 27 25  1  0
M  END
$$$$
