AYK.pdb
     RDKit          3D

 27 27  0  0  1  0  0  0  0  0999 V2000
   10.0359  -16.3800   18.5192 C   0  0  0  0  0  0  0  0  0  0  0  0
    9.4838  -17.2006   19.6657 C   0  0  2  0  0  0  0  0  0  0  0  0
    8.1250  -17.5933   19.4229 N   0  0  0  0  0  0  0  0  0  0  0  0
    9.5885  -16.3395   20.8940 C   0  0  0  0  0  0  0  0  0  0  0  0
   10.7158  -16.0776   21.3217 O   0  0  0  0  0  0  0  0  0  0  0  0
    6.4778  -11.6167   27.9043 O   0  0  0  0  0  0  0  0  0  0  0  0
    6.7060  -12.2148   26.6595 C   0  0  0  0  0  0  0  0  0  0  0  0
    6.0112  -13.3320   26.2512 C   0  0  0  0  0  0  0  0  0  0  0  0
    6.2485  -13.9073   25.0232 C   0  0  0  0  0  0  0  0  0  0  0  0
    7.2014  -13.3876   24.1364 C   0  0  0  0  0  0  0  0  0  0  0  0
    7.4734  -14.0449   22.8506 C   0  0  0  0  0  0  0  0  0  0  0  0
    8.4791  -15.1153   22.8260 C   0  0  2  0  0  0  0  0  0  0  0  0
    8.4255  -15.8463   21.5369 N   0  0  0  0  0  0  0  0  0  0  0  0
    8.6034  -16.0538   23.9342 C   0  0  0  0  0  0  0  0  0  0  0  0
    7.7649  -17.0403   24.0158 O   0  0  0  0  0  0  0  0  0  0  0  0
    7.8851  -12.2677   24.5678 C   0  0  0  0  0  0  0  0  0  0  0  0
    7.6454  -11.6965   25.7939 C   0  0  0  0  0  0  0  0  0  0  0  0
    9.5525  -16.0495   24.9761 N   0  0  0  0  0  0  0  0  0  0  0  0
    9.8049  -17.2753   25.8067 C   0  0  1  0  0  0  0  0  0  0  0  0
   10.2086  -18.3257   24.8699 C   0  0  0  0  0  0  0  0  0  0  0  0
   10.4049  -19.7258   25.1441 C   0  0  0  0  0  0  0  0  0  0  0  0
   10.8480  -20.6255   24.0458 C   0  0  0  0  0  0  0  0  0  0  0  0
   11.1579  -22.0358   24.5421 C   0  0  0  0  0  0  0  0  0  0  0  0
   12.5346  -22.1513   24.9584 N   0  0  0  0  0  0  0  0  0  0  0  0
   10.6879  -16.8410   26.8785 C   0  0  0  0  0  0  0  0  0  0  0  0
   11.3632  -15.7561   26.7982 O   0  0  0  0  0  0  0  0  0  0  0  0
   10.8987  -17.5001   28.0656 O   0  0  0  0  0  0  0  0  0  0  0  0
  2  1  1  6
  2  3  1  0
  4  5  2  0
  4  2  1  0
  7  6  1  0
  8  7  2  0
  9  8  1  0
 10  9  2  0
 10 16  1  0
 12 11  1  1
 11 10  1  0
 12 13  1  0
 13  4  1  0
 14 15  2  0
 14 12  1  0
 16 17  2  0
 17  7  1  0
 18 14  1  0
 19 18  1  0
 19 20  1  6
 21 22  1  0
 21 20  1  0
 22 23  1  0
 23 24  1  0
 25 19  1  0
 26 25  2  0
 27 25  1  0
M  END
$$$$
