AYK.pdb
     RDKit          3D

 27 27  0  0  1  0  0  0  0  0999 V2000
    7.6198  -20.1987   21.5625 C   0  0  0  0  0  0  0  0  0  0  0  0
    7.7471  -19.0499   20.5843 C   0  0  2  0  0  0  0  0  0  0  0  0
    8.2885  -19.4874   19.3294 N   0  0  0  0  0  0  0  0  0  0  0  0
    8.6426  -18.0332   21.2367 C   0  0  0  0  0  0  0  0  0  0  0  0
    9.8550  -18.1079   21.0209 O   0  0  0  0  0  0  0  0  0  0  0  0
    7.4619  -12.2205   17.7553 O   0  0  0  0  0  0  0  0  0  0  0  0
    7.6784  -12.8209   19.0011 C   0  0  0  0  0  0  0  0  0  0  0  0
    8.9023  -12.7681   19.6310 C   0  0  0  0  0  0  0  0  0  0  0  0
    9.0976  -13.3643   20.8564 C   0  0  0  0  0  0  0  0  0  0  0  0
    8.0678  -14.0486   21.5167 C   0  0  0  0  0  0  0  0  0  0  0  0
    8.3100  -14.7191   22.8016 C   0  0  0  0  0  0  0  0  0  0  0  0
    8.9605  -16.0359   22.7769 C   0  0  2  0  0  0  0  0  0  0  0  0
    8.1057  -17.0222   22.0728 N   0  0  0  0  0  0  0  0  0  0  0  0
    9.5137  -16.6226   23.9909 C   0  0  0  0  0  0  0  0  0  0  0  0
    8.7007  -17.0995   24.8823 O   0  0  0  0  0  0  0  0  0  0  0  0
    6.8503  -14.0881   20.8656 C   0  0  0  0  0  0  0  0  0  0  0  0
    6.6594  -13.4919   19.6429 C   0  0  0  0  0  0  0  0  0  0  0  0
   10.8693  -16.7605   24.3515 N   0  0  0  0  0  0  0  0  0  0  0  0
   11.2799  -17.5694   25.5486 C   0  0  1  0  0  0  0  0  0  0  0  0
   11.0754  -18.9721   25.1816 C   0  0  0  0  0  0  0  0  0  0  0  0
   11.3828  -20.1430   25.9617 C   0  0  0  0  0  0  0  0  0  0  0  0
   11.1088  -21.4885   25.3904 C   0  0  0  0  0  0  0  0  0  0  0  0
   11.4534  -22.6123   26.3647 C   0  0  0  0  0  0  0  0  0  0  0  0
   10.9586  -23.8825   25.8918 N   0  0  0  0  0  0  0  0  0  0  0  0
   12.5958  -17.0713   25.9190 C   0  0  0  0  0  0  0  0  0  0  0  0
   13.2725  -16.3111   25.1421 O   0  0  0  0  0  0  0  0  0  0  0  0
   13.2528  -17.3302   27.0977 O   0  0  0  0  0  0  0  0  0  0  0  0
  2  1  1  1
  2  3  1  0
  4  5  2  0
  4  2  1  0
  7  6  1  0
  8  7  2  0
  9  8  1  0
 10  9  2  0
 10 16  1  0
 12 11  1  1
 11 10  1  0
 12 13  1  0
 13  4  1  0
 14 15  2  0
 14 12  1  0
 16 17  2  0
 17  7  1  0
 18 14  1  0
 19 18  1  0
 19 20  1  6
 21 22  1  0
 21 20  1  0
 22 23  1  0
 23 24  1  0
 25 19  1  0
 26 25  2  0
 27 25  1  0
M  END
$$$$
