NAQ.pdb
     RDKit          3D

 23 22  0  0  1  0  0  0  0  0999 V2000
   16.8580  -16.0180  -14.7127 N   0  0  0  0  0  0  0  0  0  0  0  0
   17.0094  -15.7130  -16.0927 C   0  0  0  0  0  0  0  0  0  0  0  0
   16.9732  -16.6637  -16.9150 O   0  0  0  0  0  0  0  0  0  0  0  0
   17.2063  -14.3222  -16.5848 C   0  0  0  0  0  0  0  0  0  0  0  0
   17.1528  -13.3561  -15.4302 C   0  0  2  0  0  0  0  0  0  0  0  0
   15.8214  -13.3355  -14.8641 N   0  0  0  0  0  0  0  0  0  0  0  0
   17.5622  -12.0003  -15.7750 C   0  0  0  0  0  0  0  0  0  0  0  0
   18.6832  -11.8311  -16.3184 O   0  0  0  0  0  0  0  0  0  0  0  0
   16.1062   -8.4780  -15.6621 C   0  0  0  0  0  0  0  0  0  0  0  0
   17.1976   -9.4982  -15.8534 C   0  0  2  0  0  0  0  0  0  0  0  0
   16.7884  -10.8330  -15.5452 N   0  0  0  0  0  0  0  0  0  0  0  0
   18.4084   -9.1789  -15.0567 C   0  0  0  0  0  0  0  0  0  0  0  0
   18.4433   -9.5001  -13.8491 O   0  0  0  0  0  0  0  0  0  0  0  0
   23.6977  -11.1959  -15.9696 N   0  0  0  0  0  0  0  0  0  0  0  0
   24.0085  -10.1939  -15.0182 C   0  0  0  0  0  0  0  0  0  0  0  0
   25.1757  -10.1999  -14.5173 O   0  0  0  0  0  0  0  0  0  0  0  0
   23.0511   -9.1612  -14.6008 C   0  0  0  0  0  0  0  0  0  0  0  0
   21.7032   -9.2216  -15.2043 C   0  0  0  0  0  0  0  0  0  0  0  0
   20.6765   -8.2453  -14.7405 C   0  0  2  0  0  0  0  0  0  0  0  0
   19.5106   -8.5262  -15.6295 N   0  0  0  0  0  0  0  0  0  0  0  0
   21.0032   -6.8258  -14.8113 C   0  0  0  0  0  0  0  0  0  0  0  0
   21.5868   -6.2473  -13.8603 O   0  0  0  0  0  0  0  0  0  0  0  0
   20.7016   -6.0207  -15.9101 O   0  0  0  0  0  0  0  0  0  0  0  0
  2  1  1  0
  3  2  2  0
  4  2  1  0
  5  4  1  0
  5  6  1  6
  7 11  1  0
  7  5  1  0
  8  7  2  0
 10  9  1  1
 10 11  1  0
 10 12  1  0
 12 20  1  0
 13 12  2  0
 15 17  1  0
 15 14  1  0
 16 15  2  0
 18 17  1  0
 19 18  1  6
 19 21  1  0
 20 19  1  0
 21 23  1  0
 22 21  2  0
M  END
$$$$
