NAQ.pdb
     RDKit          3D

 23 22  0  0  1  0  0  0  0  0999 V2000
   15.7531  -15.7043  -15.8757 N   0  0  0  0  0  0  0  0  0  0  0  0
   16.6797  -15.2704  -14.8891 C   0  0  0  0  0  0  0  0  0  0  0  0
   16.5532  -15.7205  -13.7217 O   0  0  0  0  0  0  0  0  0  0  0  0
   17.7784  -14.3136  -15.1932 C   0  0  0  0  0  0  0  0  0  0  0  0
   17.6406  -13.8046  -16.6044 C   0  0  2  0  0  0  0  0  0  0  0  0
   18.0037  -14.8445  -17.5427 N   0  0  0  0  0  0  0  0  0  0  0  0
   18.4180  -12.6021  -16.8771 C   0  0  0  0  0  0  0  0  0  0  0  0
   19.6316  -12.7272  -17.1804 O   0  0  0  0  0  0  0  0  0  0  0  0
   17.8057   -8.8610  -17.2487 C   0  0  0  0  0  0  0  0  0  0  0  0
   18.6589  -10.0970  -17.1340 C   0  0  2  0  0  0  0  0  0  0  0  0
   17.9119  -11.2771  -16.8284 N   0  0  0  0  0  0  0  0  0  0  0  0
   19.7344   -9.9431  -16.1230 C   0  0  0  0  0  0  0  0  0  0  0  0
   19.5048  -10.2664  -14.9375 O   0  0  0  0  0  0  0  0  0  0  0  0
   26.9845  -10.1675  -15.1546 N   0  0  0  0  0  0  0  0  0  0  0  0
   25.7238  -10.1849  -15.7994 C   0  0  0  0  0  0  0  0  0  0  0  0
   25.6868  -10.5718  -17.0088 O   0  0  0  0  0  0  0  0  0  0  0  0
   24.4774   -9.7863  -15.1326 C   0  0  0  0  0  0  0  0  0  0  0  0
   23.2417   -9.8486  -15.9411 C   0  0  0  0  0  0  0  0  0  0  0  0
   21.9919   -9.2724  -15.3680 C   0  0  2  0  0  0  0  0  0  0  0  0
   20.9992   -9.4438  -16.4696 N   0  0  0  0  0  0  0  0  0  0  0  0
   22.0124   -7.8743  -14.9535 C   0  0  0  0  0  0  0  0  0  0  0  0
   21.7517   -6.9534  -15.7680 O   0  0  0  0  0  0  0  0  0  0  0  0
   22.3148   -7.4609  -13.6557 O   0  0  0  0  0  0  0  0  0  0  0  0
  2  1  1  0
  3  2  2  0
  4  2  1  0
  5  4  1  0
  5  6  1  6
  7 11  1  0
  7  5  1  0
  8  7  2  0
 10  9  1  1
 10 11  1  0
 10 12  1  0
 12 20  1  0
 13 12  2  0
 15 17  1  0
 15 14  1  0
 16 15  2  0
 18 17  1  0
 19 18  1  6
 19 21  1  0
 20 19  1  0
 21 23  1  0
 22 21  2  0
M  END
$$$$
