NAQ.pdb
     RDKit          3D

 23 22  0  0  1  0  0  0  0  0999 V2000
   23.2104   -4.5717  -16.2400 N   0  0  0  0  0  0  0  0  0  0  0  0
   22.3389   -4.1668  -15.1927 C   0  0  0  0  0  0  0  0  0  0  0  0
   22.5698   -3.0697  -14.6233 O   0  0  0  0  0  0  0  0  0  0  0  0
   21.1788   -4.9914  -14.7573 C   0  0  0  0  0  0  0  0  0  0  0  0
   21.1057   -6.2508  -15.5808 C   0  0  2  0  0  0  0  0  0  0  0  0
   20.6809   -5.9368  -16.9277 N   0  0  0  0  0  0  0  0  0  0  0  0
   20.2361   -7.2757  -15.0166 C   0  0  0  0  0  0  0  0  0  0  0  0
   18.9919   -7.1387  -15.1335 O   0  0  0  0  0  0  0  0  0  0  0  0
   20.5756  -10.7041  -13.3994 C   0  0  0  0  0  0  0  0  0  0  0  0
   19.8352   -9.4525  -13.7917 C   0  0  2  0  0  0  0  0  0  0  0  0
   20.6829   -8.4368  -14.3337 N   0  0  0  0  0  0  0  0  0  0  0  0
   19.0711   -8.8753  -12.6578 C   0  0  0  0  0  0  0  0  0  0  0  0
   19.6523   -8.1052  -11.8629 O   0  0  0  0  0  0  0  0  0  0  0  0
   13.6121   -6.4081  -12.9935 N   0  0  0  0  0  0  0  0  0  0  0  0
   13.7657   -6.5300  -11.5910 C   0  0  0  0  0  0  0  0  0  0  0  0
   12.8491   -6.0491  -10.8547 O   0  0  0  0  0  0  0  0  0  0  0  0
   14.9213   -7.1865  -10.9658 C   0  0  0  0  0  0  0  0  0  0  0  0
   15.8912   -7.8321  -11.8752 C   0  0  0  0  0  0  0  0  0  0  0  0
   17.0441   -8.5629  -11.2759 C   0  0  2  0  0  0  0  0  0  0  0  0
   17.7146   -9.1754  -12.4608 N   0  0  0  0  0  0  0  0  0  0  0  0
   16.7573   -9.6037  -10.2954 C   0  0  0  0  0  0  0  0  0  0  0  0
   16.5181  -10.7840  -10.6549 O   0  0  0  0  0  0  0  0  0  0  0  0
   16.7267   -9.3769   -8.9191 O   0  0  0  0  0  0  0  0  0  0  0  0
  2  1  1  0
  3  2  2  0
  4  2  1  0
  5  4  1  0
  5  6  1  6
  7 11  1  0
  7  5  1  0
  8  7  2  0
 10  9  1  1
 10 11  1  0
 10 12  1  0
 12 20  1  0
 13 12  2  0
 15 17  1  0
 15 14  1  0
 16 15  2  0
 18 17  1  0
 19 18  1  6
 19 21  1  0
 20 19  1  0
 21 23  1  0
 22 21  2  0
M  END
$$$$
