NAQ.pdb
     RDKit          3D

 23 22  0  0  1  0  0  0  0  0999 V2000
   27.8290   -8.8195  -21.6681 N   0  0  0  0  0  0  0  0  0  0  0  0
   28.9450   -9.4240  -21.0283 C   0  0  0  0  0  0  0  0  0  0  0  0
   29.4149  -10.4766  -21.5307 O   0  0  0  0  0  0  0  0  0  0  0  0
   29.5638   -8.8557  -19.7997 C   0  0  0  0  0  0  0  0  0  0  0  0
   29.9092   -9.9634  -18.8388 C   0  0  2  0  0  0  0  0  0  0  0  0
   28.7002  -10.5245  -18.2760 N   0  0  0  0  0  0  0  0  0  0  0  0
   30.8084   -9.5558  -17.7664 C   0  0  0  0  0  0  0  0  0  0  0  0
   30.3443   -8.8677  -16.8222 O   0  0  0  0  0  0  0  0  0  0  0  0
   34.2844  -10.3771  -16.5195 C   0  0  0  0  0  0  0  0  0  0  0  0
   33.0727   -9.4908  -16.6399 C   0  0  2  0  0  0  0  0  0  0  0  0
   32.1893   -9.8759  -17.6961 N   0  0  0  0  0  0  0  0  0  0  0  0
   33.4384   -8.0645  -16.8258 C   0  0  0  0  0  0  0  0  0  0  0  0
   33.5916   -7.6226  -17.9851 O   0  0  0  0  0  0  0  0  0  0  0  0
   31.1476   -3.2995  -13.8834 N   0  0  0  0  0  0  0  0  0  0  0  0
   32.2875   -2.7250  -14.4969 C   0  0  0  0  0  0  0  0  0  0  0  0
   32.4439   -1.4691  -14.3883 O   0  0  0  0  0  0  0  0  0  0  0  0
   33.2825   -3.5134  -15.2354 C   0  0  0  0  0  0  0  0  0  0  0  0
   33.0664   -4.9746  -15.2885 C   0  0  0  0  0  0  0  0  0  0  0  0
   34.0601   -5.8102  -16.0212 C   0  0  2  0  0  0  0  0  0  0  0  0
   33.6151   -7.2051  -15.7307 N   0  0  0  0  0  0  0  0  0  0  0  0
   35.4666   -5.6703  -15.6619 C   0  0  0  0  0  0  0  0  0  0  0  0
   36.0600   -6.5645  -15.0076 O   0  0  0  0  0  0  0  0  0  0  0  0
   36.2425   -4.5633  -16.0069 O   0  0  0  0  0  0  0  0  0  0  0  0
  2  1  1  0
  3  2  2  0
  4  2  1  0
  5  4  1  0
  5  6  1  1
  7 11  1  0
  7  5  1  0
  8  7  2  0
 10  9  1  6
 10 11  1  0
 10 12  1  0
 12 20  1  0
 13 12  2  0
 15 17  1  0
 15 14  1  0
 16 15  2  0
 18 17  1  0
 19 18  1  1
 19 21  1  0
 20 19  1  0
 21 23  1  0
 22 21  2  0
M  END
$$$$
