NAQ.pdb
     RDKit          3D

 23 22  0  0  1  0  0  0  0  0999 V2000
   13.7364  -14.0314  -15.4644 N   0  0  0  0  0  0  0  0  0  0  0  0
   14.3752  -13.2829  -14.4388 C   0  0  0  0  0  0  0  0  0  0  0  0
   14.0970  -13.5609  -13.2443 O   0  0  0  0  0  0  0  0  0  0  0  0
   15.3490  -12.1966  -14.7333 C   0  0  0  0  0  0  0  0  0  0  0  0
   15.4464  -11.9833  -16.2215 C   0  0  2  0  0  0  0  0  0  0  0  0
   15.9882  -13.1655  -16.8558 N   0  0  0  0  0  0  0  0  0  0  0  0
   16.2335  -10.8166  -16.6006 C   0  0  0  0  0  0  0  0  0  0  0  0
   17.4480  -10.9771  -16.8829 O   0  0  0  0  0  0  0  0  0  0  0  0
   15.6717   -7.1344  -17.3679 C   0  0  0  0  0  0  0  0  0  0  0  0
   16.5097   -8.3379  -17.0248 C   0  0  2  0  0  0  0  0  0  0  0  0
   15.7361   -9.4897  -16.6798 N   0  0  0  0  0  0  0  0  0  0  0  0
   17.4627   -8.0606  -15.9214 C   0  0  0  0  0  0  0  0  0  0  0  0
   17.1026   -8.2645  -14.7418 O   0  0  0  0  0  0  0  0  0  0  0  0
   23.1176   -9.9130  -15.6534 N   0  0  0  0  0  0  0  0  0  0  0  0
   23.0862   -9.0045  -14.5675 C   0  0  0  0  0  0  0  0  0  0  0  0
   24.0924   -8.9788  -13.7927 O   0  0  0  0  0  0  0  0  0  0  0  0
   21.9569   -8.1011  -14.3113 C   0  0  0  0  0  0  0  0  0  0  0  0
   20.8199   -8.1750  -15.2529 C   0  0  0  0  0  0  0  0  0  0  0  0
   19.6304   -7.3144  -14.9940 C   0  0  2  0  0  0  0  0  0  0  0  0
   18.7551   -7.5760  -16.1746 N   0  0  0  0  0  0  0  0  0  0  0  0
   19.8431   -5.8775  -14.8630 C   0  0  0  0  0  0  0  0  0  0  0  0
   19.6783   -5.1065  -15.8417 O   0  0  0  0  0  0  0  0  0  0  0  0
   20.2354   -5.2631  -13.6734 O   0  0  0  0  0  0  0  0  0  0  0  0
  2  1  1  0
  3  2  2  0
  4  2  1  0
  5  4  1  0
  5  6  1  6
  7 11  1  0
  7  5  1  0
  8  7  2  0
 10  9  1  1
 10 11  1  0
 10 12  1  0
 12 20  1  0
 13 12  2  0
 15 17  1  0
 15 14  1  0
 16 15  2  0
 18 17  1  0
 19 18  1  6
 19 21  1  0
 20 19  1  0
 21 23  1  0
 22 21  2  0
M  END
$$$$
