NAQ.pdb
     RDKit          3D

 23 22  0  0  1  0  0  0  0  0999 V2000
   42.9958  -17.4812   -9.2898 N   0  0  0  0  0  0  0  0  0  0  0  0
   43.4441  -16.1618   -9.5703 C   0  0  0  0  0  0  0  0  0  0  0  0
   44.2853  -16.0075  -10.4922 O   0  0  0  0  0  0  0  0  0  0  0  0
   42.9540  -14.9761   -8.8160 C   0  0  0  0  0  0  0  0  0  0  0  0
   44.1137  -14.2596   -8.1748 C   0  0  2  0  0  0  0  0  0  0  0  0
   44.6961  -15.0879   -7.1413 N   0  0  0  0  0  0  0  0  0  0  0  0
   43.7701  -12.9544   -7.6243 C   0  0  0  0  0  0  0  0  0  0  0  0
   43.1318  -12.9079   -6.5423 O   0  0  0  0  0  0  0  0  0  0  0  0
   44.8246   -9.3733   -7.9921 C   0  0  0  0  0  0  0  0  0  0  0  0
   43.7976  -10.4251   -7.6641 C   0  0  2  0  0  0  0  0  0  0  0  0
   44.1012  -11.7081   -8.2171 N   0  0  0  0  0  0  0  0  0  0  0  0
   42.4347  -10.0323   -8.1011 C   0  0  0  0  0  0  0  0  0  0  0  0
   42.0750  -10.2861   -9.2711 O   0  0  0  0  0  0  0  0  0  0  0  0
   37.3409  -11.7087   -5.9125 N   0  0  0  0  0  0  0  0  0  0  0  0
   37.1838  -11.3029   -7.2602 C   0  0  0  0  0  0  0  0  0  0  0  0
   36.1834  -11.7563   -7.8982 O   0  0  0  0  0  0  0  0  0  0  0  0
   38.1137  -10.3879   -7.9348 C   0  0  0  0  0  0  0  0  0  0  0  0
   39.2674   -9.9105   -7.1439 C   0  0  0  0  0  0  0  0  0  0  0  0
   40.2249   -8.9670   -7.7887 C   0  0  2  0  0  0  0  0  0  0  0  0
   41.5450   -9.3843   -7.2306 N   0  0  0  0  0  0  0  0  0  0  0  0
   40.0359   -7.5394   -7.5584 C   0  0  0  0  0  0  0  0  0  0  0  0
   40.6549   -6.9439   -6.6409 O   0  0  0  0  0  0  0  0  0  0  0  0
   39.1769   -6.7446   -8.3179 O   0  0  0  0  0  0  0  0  0  0  0  0
  2  1  1  0
  3  2  2  0
  4  2  1  0
  5  4  1  0
  5  6  1  1
  7 11  1  0
  7  5  1  0
  8  7  2  0
 10  9  1  6
 10 11  1  0
 10 12  1  0
 12 20  1  0
 13 12  2  0
 15 17  1  0
 15 14  1  0
 16 15  2  0
 18 17  1  0
 19 18  1  1
 19 21  1  0
 20 19  1  0
 21 23  1  0
 22 21  2  0
M  END
$$$$
