NAQ.pdb
     RDKit          3D

 23 22  0  0  1  0  0  0  0  0999 V2000
   13.0145  -11.8394  -15.8036 N   0  0  0  0  0  0  0  0  0  0  0  0
   13.5852  -10.9811  -14.8248 C   0  0  0  0  0  0  0  0  0  0  0  0
   12.8156  -10.4508  -13.9836 O   0  0  0  0  0  0  0  0  0  0  0  0
   15.0450  -10.6964  -14.7680 C   0  0  0  0  0  0  0  0  0  0  0  0
   15.7403  -11.3416  -15.9383 C   0  0  2  0  0  0  0  0  0  0  0  0
   16.0418  -12.7236  -15.6335 N   0  0  0  0  0  0  0  0  0  0  0  0
   16.9554  -10.6533  -16.3561 C   0  0  0  0  0  0  0  0  0  0  0  0
   18.0053  -10.8284  -15.6872 O   0  0  0  0  0  0  0  0  0  0  0  0
   18.2812   -8.7648  -19.3407 C   0  0  0  0  0  0  0  0  0  0  0  0
   18.2356   -9.0808  -17.8688 C   0  0  2  0  0  0  0  0  0  0  0  0
   17.0558   -9.7859  -17.4749 N   0  0  0  0  0  0  0  0  0  0  0  0
   18.3604   -7.8625  -17.0304 C   0  0  0  0  0  0  0  0  0  0  0  0
   17.3261   -7.3358  -16.5662 O   0  0  0  0  0  0  0  0  0  0  0  0
   22.5759   -6.7124  -12.7858 N   0  0  0  0  0  0  0  0  0  0  0  0
   22.0286   -5.4248  -13.0051 C   0  0  0  0  0  0  0  0  0  0  0  0
   22.4844   -4.4653  -12.3085 O   0  0  0  0  0  0  0  0  0  0  0  0
   20.9769   -5.1595  -13.9953 C   0  0  0  0  0  0  0  0  0  0  0  0
   20.6294   -6.2682  -14.9090 C   0  0  0  0  0  0  0  0  0  0  0  0
   19.6219   -6.0140  -15.9781 C   0  0  2  0  0  0  0  0  0  0  0  0
   19.6112   -7.2921  -16.7493 N   0  0  0  0  0  0  0  0  0  0  0  0
   19.8623   -4.9035  -16.8924 C   0  0  0  0  0  0  0  0  0  0  0  0
   20.3878   -5.0936  -18.0181 O   0  0  0  0  0  0  0  0  0  0  0  0
   19.5366   -3.5794  -16.5971 O   0  0  0  0  0  0  0  0  0  0  0  0
  2  1  1  0
  3  2  2  0
  4  2  1  0
  5  4  1  0
  5  6  1  1
  7 11  1  0
  7  5  1  0
  8  7  2  0
 10  9  1  6
 10 11  1  0
 10 12  1  0
 12 20  1  0
 13 12  2  0
 15 17  1  0
 15 14  1  0
 16 15  2  0
 18 17  1  0
 19 18  1  1
 19 21  1  0
 20 19  1  0
 21 23  1  0
 22 21  2  0
M  END
$$$$
