NAQ.pdb
     RDKit          3D

 23 22  0  0  1  0  0  0  0  0999 V2000
   23.4823  -12.5502  -16.5558 N   0  0  0  0  0  0  0  0  0  0  0  0
   24.3703  -13.0193  -15.5499 C   0  0  0  0  0  0  0  0  0  0  0  0
   25.1016  -12.1776  -14.9685 O   0  0  0  0  0  0  0  0  0  0  0  0
   24.4581  -14.4559  -15.1709 C   0  0  0  0  0  0  0  0  0  0  0  0
   23.4762  -15.2619  -15.9806 C   0  0  2  0  0  0  0  0  0  0  0  0
   22.1227  -14.9008  -15.6184 N   0  0  0  0  0  0  0  0  0  0  0  0
   23.6510  -16.7037  -15.8563 C   0  0  0  0  0  0  0  0  0  0  0  0
   23.1523  -17.2856  -14.8597 O   0  0  0  0  0  0  0  0  0  0  0  0
   24.8968  -19.6137  -17.9438 C   0  0  0  0  0  0  0  0  0  0  0  0
   24.5573  -18.9298  -16.6455 C   0  0  2  0  0  0  0  0  0  0  0  0
   24.3495  -17.5219  -16.7820 N   0  0  0  0  0  0  0  0  0  0  0  0
   25.5920  -19.1565  -15.6059 C   0  0  0  0  0  0  0  0  0  0  0  0
   26.5875  -18.4016  -15.5647 O   0  0  0  0  0  0  0  0  0  0  0  0
   24.4571  -20.9671   -9.8673 N   0  0  0  0  0  0  0  0  0  0  0  0
   25.8720  -20.9234   -9.9099 C   0  0  0  0  0  0  0  0  0  0  0  0
   26.4983  -21.0655   -8.8140 O   0  0  0  0  0  0  0  0  0  0  0  0
   26.6303  -20.7305  -11.1529 C   0  0  0  0  0  0  0  0  0  0  0  0
   25.8439  -20.4816  -12.3793 C   0  0  0  0  0  0  0  0  0  0  0  0
   26.5742  -20.3440  -13.6717 C   0  0  2  0  0  0  0  0  0  0  0  0
   25.4757  -20.1972  -14.6718 N   0  0  0  0  0  0  0  0  0  0  0  0
   27.4519  -21.4350  -14.0793 C   0  0  0  0  0  0  0  0  0  0  0  0
   26.9988  -22.4392  -14.6843 O   0  0  0  0  0  0  0  0  0  0  0  0
   28.8256  -21.4492  -13.8362 O   0  0  0  0  0  0  0  0  0  0  0  0
  2  1  1  0
  3  2  2  0
  4  2  1  0
  5  4  1  0
  5  6  1  1
  7 11  1  0
  7  5  1  0
  8  7  2  0
 10  9  1  6
 10 11  1  0
 10 12  1  0
 12 20  1  0
 13 12  2  0
 15 17  1  0
 15 14  1  0
 16 15  2  0
 18 17  1  0
 19 18  1  1
 19 21  1  0
 20 19  1  0
 21 23  1  0
 22 21  2  0
M  END
$$$$
