NAQ.pdb
     RDKit          3D

 23 22  0  0  1  0  0  0  0  0999 V2000
   25.6655  -13.0842  -18.7687 N   0  0  0  0  0  0  0  0  0  0  0  0
   24.3898  -13.0138  -18.1458 C   0  0  0  0  0  0  0  0  0  0  0  0
   23.6993  -11.9791  -18.3297 O   0  0  0  0  0  0  0  0  0  0  0  0
   23.8561  -14.1125  -17.2955 C   0  0  0  0  0  0  0  0  0  0  0  0
   24.8822  -15.2080  -17.1675 C   0  0  2  0  0  0  0  0  0  0  0  0
   25.2267  -15.7181  -18.4769 N   0  0  0  0  0  0  0  0  0  0  0  0
   24.4682  -16.3072  -16.3043 C   0  0  0  0  0  0  0  0  0  0  0  0
   24.3564  -16.0928  -15.0706 O   0  0  0  0  0  0  0  0  0  0  0  0
   23.0473  -19.8017  -16.6506 C   0  0  0  0  0  0  0  0  0  0  0  0
   23.7582  -18.7023  -15.9059 C   0  0  2  0  0  0  0  0  0  0  0  0
   24.1750  -17.6235  -16.7464 N   0  0  0  0  0  0  0  0  0  0  0  0
   24.9391  -19.2042  -15.1600 C   0  0  0  0  0  0  0  0  0  0  0  0
   26.0658  -19.1507  -15.6988 O   0  0  0  0  0  0  0  0  0  0  0  0
   24.8704  -20.8344   -9.0292 N   0  0  0  0  0  0  0  0  0  0  0  0
   26.1925  -21.1176   -9.4506 C   0  0  0  0  0  0  0  0  0  0  0  0
   26.9972  -21.5876   -8.5874 O   0  0  0  0  0  0  0  0  0  0  0  0
   26.6589  -20.8989  -10.8260 C   0  0  0  0  0  0  0  0  0  0  0  0
   25.6832  -20.3225  -11.7749 C   0  0  0  0  0  0  0  0  0  0  0  0
   26.0613  -20.2395  -13.2146 C   0  0  2  0  0  0  0  0  0  0  0  0
   24.8168  -19.7354  -13.8670 N   0  0  0  0  0  0  0  0  0  0  0  0
   26.4894  -21.4649  -13.8796 C   0  0  0  0  0  0  0  0  0  0  0  0
   27.7091  -21.7312  -14.0240 O   0  0  0  0  0  0  0  0  0  0  0  0
   25.6027  -22.4116  -14.3934 O   0  0  0  0  0  0  0  0  0  0  0  0
  2  1  1  0
  3  2  2  0
  4  2  1  0
  5  4  1  0
  5  6  1  6
  7 11  1  0
  7  5  1  0
  8  7  2  0
 10  9  1  6
 10 11  1  0
 10 12  1  0
 12 20  1  0
 13 12  2  0
 15 17  1  0
 15 14  1  0
 16 15  2  0
 18 17  1  0
 19 18  1  1
 19 21  1  0
 20 19  1  0
 21 23  1  0
 22 21  2  0
M  END
$$$$
