NAQ.pdb
     RDKit          3D

 23 22  0  0  1  0  0  0  0  0999 V2000
   16.3880  -12.4413  -15.9901 N   0  0  0  0  0  0  0  0  0  0  0  0
   17.5584  -13.0267  -15.4353 C   0  0  0  0  0  0  0  0  0  0  0  0
   17.4866  -14.2120  -15.0216 O   0  0  0  0  0  0  0  0  0  0  0  0
   18.8466  -12.2884  -15.3315 C   0  0  0  0  0  0  0  0  0  0  0  0
   18.6727  -10.8784  -15.8328 C   0  0  2  0  0  0  0  0  0  0  0  0
   18.5080  -10.8816  -17.2703 N   0  0  0  0  0  0  0  0  0  0  0  0
   19.7613   -9.9820  -15.4640 C   0  0  0  0  0  0  0  0  0  0  0  0
   20.0201   -9.8214  -14.2443 O   0  0  0  0  0  0  0  0  0  0  0  0
   22.5134   -7.9906  -17.1752 C   0  0  0  0  0  0  0  0  0  0  0  0
   21.6090   -8.3477  -16.0249 C   0  0  2  0  0  0  0  0  0  0  0  0
   20.5690   -9.2615  -16.3819 N   0  0  0  0  0  0  0  0  0  0  0  0
   20.9927   -7.1488  -15.4042 C   0  0  0  0  0  0  0  0  0  0  0  0
   19.9259   -6.7003  -15.8769 O   0  0  0  0  0  0  0  0  0  0  0  0
   19.8652   -5.8445   -9.6265 N   0  0  0  0  0  0  0  0  0  0  0  0
   19.2572   -6.6118  -10.6499 C   0  0  0  0  0  0  0  0  0  0  0  0
   18.3630   -7.4463  -10.3072 O   0  0  0  0  0  0  0  0  0  0  0  0
   19.6100   -6.4766  -12.0692 C   0  0  0  0  0  0  0  0  0  0  0  0
   20.6671   -5.4983  -12.4011 C   0  0  0  0  0  0  0  0  0  0  0  0
   20.9603   -5.2346  -13.8388 C   0  0  2  0  0  0  0  0  0  0  0  0
   21.5809   -6.5110  -14.3014 N   0  0  0  0  0  0  0  0  0  0  0  0
   21.8489   -4.1241  -14.1616 C   0  0  0  0  0  0  0  0  0  0  0  0
   23.0163   -4.3291  -14.5796 O   0  0  0  0  0  0  0  0  0  0  0  0
   21.4826   -2.7838  -14.0351 O   0  0  0  0  0  0  0  0  0  0  0  0
  2  1  1  0
  3  2  2  0
  4  2  1  0
  5  4  1  0
  5  6  1  6
  7 11  1  0
  7  5  1  0
  8  7  2  0
 10  9  1  6
 10 11  1  0
 10 12  1  0
 12 20  1  0
 13 12  2  0
 15 17  1  0
 15 14  1  0
 16 15  2  0
 18 17  1  0
 19 18  1  1
 19 21  1  0
 20 19  1  0
 21 23  1  0
 22 21  2  0
M  END
$$$$
