NAQ.pdb
     RDKit          3D

 23 22  0  0  1  0  0  0  0  0999 V2000
   28.0401  -18.9863   -6.7212 N   0  0  0  0  0  0  0  0  0  0  0  0
   27.1081  -19.8871   -7.3043 C   0  0  0  0  0  0  0  0  0  0  0  0
   26.7464  -20.8830   -6.6270 O   0  0  0  0  0  0  0  0  0  0  0  0
   26.5565  -19.6887   -8.6724 C   0  0  0  0  0  0  0  0  0  0  0  0
   26.8280  -20.9059   -9.5175 C   0  0  2  0  0  0  0  0  0  0  0  0
   28.2522  -21.1508   -9.5885 N   0  0  0  0  0  0  0  0  0  0  0  0
   26.2744  -20.8258  -10.8635 C   0  0  0  0  0  0  0  0  0  0  0  0
   26.6866  -19.9181  -11.6295 O   0  0  0  0  0  0  0  0  0  0  0  0
   24.6164  -23.0066  -13.3595 C   0  0  0  0  0  0  0  0  0  0  0  0
   24.7710  -21.6500  -12.7236 C   0  0  2  0  0  0  0  0  0  0  0  0
   25.2913  -21.7018  -11.3930 N   0  0  0  0  0  0  0  0  0  0  0  0
   23.4949  -20.8926  -12.7033 C   0  0  0  0  0  0  0  0  0  0  0  0
   22.7928  -20.9126  -11.6691 O   0  0  0  0  0  0  0  0  0  0  0  0
   21.7572  -16.7167  -17.1613 N   0  0  0  0  0  0  0  0  0  0  0  0
   20.7125  -16.6725  -16.2062 C   0  0  0  0  0  0  0  0  0  0  0  0
   19.7630  -15.8538  -16.4102 O   0  0  0  0  0  0  0  0  0  0  0  0
   20.6818  -17.5277  -15.0125 C   0  0  0  0  0  0  0  0  0  0  0  0
   21.8248  -18.4456  -14.8230 C   0  0  0  0  0  0  0  0  0  0  0  0
   21.7787  -19.4064  -13.6840 C   0  0  2  0  0  0  0  0  0  0  0  0
   23.0621  -20.1571  -13.8172 N   0  0  0  0  0  0  0  0  0  0  0  0
   20.6711  -20.3539  -13.6347 C   0  0  0  0  0  0  0  0  0  0  0  0
   20.7087  -21.4286  -14.2853 O   0  0  0  0  0  0  0  0  0  0  0  0
   19.5146  -20.1472  -12.8822 O   0  0  0  0  0  0  0  0  0  0  0  0
  2  1  1  0
  3  2  2  0
  4  2  1  0
  5  4  1  0
  5  6  1  6
  7 11  1  0
  7  5  1  0
  8  7  2  0
 10  9  1  1
 10 11  1  0
 10 12  1  0
 12 20  1  0
 13 12  2  0
 15 17  1  0
 15 14  1  0
 16 15  2  0
 18 17  1  0
 19 18  1  6
 19 21  1  0
 20 19  1  0
 21 23  1  0
 22 21  2  0
M  END
$$$$
