NAQ.pdb
     RDKit          3D

 23 22  0  0  1  0  0  0  0  0999 V2000
   18.1133  -12.7552  -19.2699 N   0  0  0  0  0  0  0  0  0  0  0  0
   17.5044  -11.5927  -18.7239 C   0  0  0  0  0  0  0  0  0  0  0  0
   16.3590  -11.2772  -19.1360 O   0  0  0  0  0  0  0  0  0  0  0  0
   18.1731  -10.7512  -17.6945 C   0  0  0  0  0  0  0  0  0  0  0  0
   18.9826  -11.6198  -16.7673 C   0  0  2  0  0  0  0  0  0  0  0  0
   18.1032  -12.4593  -15.9828 N   0  0  0  0  0  0  0  0  0  0  0  0
   19.8695  -10.8739  -15.8831 C   0  0  0  0  0  0  0  0  0  0  0  0
   19.3596  -10.0921  -15.0409 O   0  0  0  0  0  0  0  0  0  0  0  0
   23.6004  -10.6151  -15.1484 C   0  0  0  0  0  0  0  0  0  0  0  0
   22.1640  -10.1664  -15.0865 C   0  0  2  0  0  0  0  0  0  0  0  0
   21.2863  -10.9567  -15.8922 N   0  0  0  0  0  0  0  0  0  0  0  0
   22.0051   -8.7420  -15.4717 C   0  0  0  0  0  0  0  0  0  0  0  0
   21.8034   -8.4559  -16.6718 O   0  0  0  0  0  0  0  0  0  0  0  0
   17.6251   -6.1369  -16.0671 N   0  0  0  0  0  0  0  0  0  0  0  0
   18.4009   -4.9550  -15.9834 C   0  0  0  0  0  0  0  0  0  0  0  0
   17.8173   -3.8506  -16.2139 O   0  0  0  0  0  0  0  0  0  0  0  0
   19.8287   -4.9568  -15.6392 C   0  0  0  0  0  0  0  0  0  0  0  0
   20.4503   -6.2743  -15.3885 C   0  0  0  0  0  0  0  0  0  0  0  0
   21.8912   -6.3154  -15.0084 C   0  0  2  0  0  0  0  0  0  0  0  0
   22.0766   -7.7136  -14.5196 N   0  0  0  0  0  0  0  0  0  0  0  0
   22.3544   -5.3840  -13.9862 C   0  0  0  0  0  0  0  0  0  0  0  0
   22.5187   -5.7566  -12.7972 O   0  0  0  0  0  0  0  0  0  0  0  0
   22.6434   -4.0431  -14.2411 O   0  0  0  0  0  0  0  0  0  0  0  0
  2  1  1  0
  3  2  2  0
  4  2  1  0
  5  4  1  0
  5  6  1  1
  7 11  1  0
  7  5  1  0
  8  7  2  0
 10  9  1  6
 10 11  1  0
 10 12  1  0
 12 20  1  0
 13 12  2  0
 15 17  1  0
 15 14  1  0
 16 15  2  0
 18 17  1  0
 19 18  1  1
 19 21  1  0
 20 19  1  0
 21 23  1  0
 22 21  2  0
M  END
$$$$
