NAQ.pdb
     RDKit          3D

 23 22  0  0  1  0  0  0  0  0999 V2000
   10.0766   -8.6432   -6.9877 N   0  0  0  0  0  0  0  0  0  0  0  0
   10.7855   -9.5228   -7.8504 C   0  0  0  0  0  0  0  0  0  0  0  0
   10.4436  -10.7327   -7.8704 O   0  0  0  0  0  0  0  0  0  0  0  0
   11.9034   -9.0601   -8.7172 C   0  0  0  0  0  0  0  0  0  0  0  0
   12.2132   -7.6144   -8.4283 C   0  0  2  0  0  0  0  0  0  0  0  0
   11.0680   -6.7899   -8.7480 N   0  0  0  0  0  0  0  0  0  0  0  0
   13.3912   -7.1122   -9.1246 C   0  0  0  0  0  0  0  0  0  0  0  0
   13.2733   -6.7559  -10.3244 O   0  0  0  0  0  0  0  0  0  0  0  0
   16.7747   -5.7198   -8.3427 C   0  0  0  0  0  0  0  0  0  0  0  0
   15.8437   -6.5014   -9.2321 C   0  0  2  0  0  0  0  0  0  0  0  0
   14.6842   -6.9890   -8.5526 N   0  0  0  0  0  0  0  0  0  0  0  0
   16.5245   -7.6463   -9.8867 C   0  0  0  0  0  0  0  0  0  0  0  0
   16.7746   -8.6699   -9.2141 O   0  0  0  0  0  0  0  0  0  0  0  0
   13.9858  -10.9595  -13.4606 N   0  0  0  0  0  0  0  0  0  0  0  0
   15.2976  -11.4380  -13.6969 C   0  0  0  0  0  0  0  0  0  0  0  0
   15.4245  -12.4734  -14.4217 O   0  0  0  0  0  0  0  0  0  0  0  0
   16.4972  -10.7896  -13.1512 C   0  0  0  0  0  0  0  0  0  0  0  0
   16.2823   -9.5876  -12.3183 C   0  0  0  0  0  0  0  0  0  0  0  0
   17.4778   -8.8431  -11.8295 C   0  0  2  0  0  0  0  0  0  0  0  0
   16.8917   -7.6030  -11.2404 N   0  0  0  0  0  0  0  0  0  0  0  0
   18.4985   -8.4755  -12.8042 C   0  0  0  0  0  0  0  0  0  0  0  0
   19.4890   -9.2194  -13.0166 O   0  0  0  0  0  0  0  0  0  0  0  0
   18.4565   -7.3014  -13.5567 O   0  0  0  0  0  0  0  0  0  0  0  0
  2  1  1  0
  3  2  2  0
  4  2  1  0
  5  4  1  0
  5  6  1  6
  7 11  1  0
  7  5  1  0
  8  7  2  0
 10  9  1  1
 10 11  1  0
 10 12  1  0
 12 20  1  0
 13 12  2  0
 15 17  1  0
 15 14  1  0
 16 15  2  0
 18 17  1  0
 19 18  1  6
 19 21  1  0
 20 19  1  0
 21 23  1  0
 22 21  2  0
M  END
$$$$
