NAQ.pdb
     RDKit          3D

 23 22  0  0  1  0  0  0  0  0999 V2000
   17.0083  -11.7012  -15.9557 N   0  0  0  0  0  0  0  0  0  0  0  0
   17.2109  -11.5812  -14.5539 C   0  0  0  0  0  0  0  0  0  0  0  0
   16.6921  -12.4487  -13.8059 O   0  0  0  0  0  0  0  0  0  0  0  0
   18.0071  -10.4754  -13.9553 C   0  0  0  0  0  0  0  0  0  0  0  0
   18.5022   -9.5535  -15.0391 C   0  0  2  0  0  0  0  0  0  0  0  0
   19.4808  -10.2346  -15.8586 N   0  0  0  0  0  0  0  0  0  0  0  0
   19.0618   -8.3031  -14.5409 C   0  0  0  0  0  0  0  0  0  0  0  0
   18.3469   -7.5757  -13.8059 O   0  0  0  0  0  0  0  0  0  0  0  0
   22.4209   -6.5159  -14.5111 C   0  0  0  0  0  0  0  0  0  0  0  0
   20.9301   -6.6120  -14.3193 C   0  0  2  0  0  0  0  0  0  0  0  0
   20.3697   -7.8282  -14.8201 N   0  0  0  0  0  0  0  0  0  0  0  0
   20.2113   -5.4703  -14.9377 C   0  0  0  0  0  0  0  0  0  0  0  0
   19.8277   -5.5643  -16.1238 O   0  0  0  0  0  0  0  0  0  0  0  0
   14.7753   -2.2831  -15.9608 N   0  0  0  0  0  0  0  0  0  0  0  0
   15.5124   -2.6259  -14.8011 C   0  0  0  0  0  0  0  0  0  0  0  0
   14.9423   -3.3635  -13.9384 O   0  0  0  0  0  0  0  0  0  0  0  0
   16.8900   -2.1746  -14.5652 C   0  0  0  0  0  0  0  0  0  0  0  0
   17.8781   -3.2143  -14.2086 C   0  0  0  0  0  0  0  0  0  0  0  0
   19.1879   -3.2190  -14.9206 C   0  0  2  0  0  0  0  0  0  0  0  0
   19.9544   -4.2918  -14.2206 N   0  0  0  0  0  0  0  0  0  0  0  0
   19.9712   -1.9888  -14.9169 C   0  0  0  0  0  0  0  0  0  0  0  0
   20.8871   -1.8068  -14.0758 O   0  0  0  0  0  0  0  0  0  0  0  0
   19.7706   -0.9461  -15.8219 O   0  0  0  0  0  0  0  0  0  0  0  0
  2  1  1  0
  3  2  2  0
  4  2  1  0
  5  4  1  0
  5  6  1  1
  7 11  1  0
  7  5  1  0
  8  7  2  0
 10  9  1  6
 10 11  1  0
 10 12  1  0
 12 20  1  0
 13 12  2  0
 15 17  1  0
 15 14  1  0
 16 15  2  0
 18 17  1  0
 19 18  1  1
 19 21  1  0
 20 19  1  0
 21 23  1  0
 22 21  2  0
M  END
$$$$
