QMN.pdb
     RDKit          3D

 26 25  0  0  1  0  0  0  0  0999 V2000
   20.5725  -13.2962  -20.2782 N   0  0  0  0  0  0  0  0  0  0  0  0
   20.2151  -14.6494  -20.1667 C   0  0  0  0  0  0  0  0  0  0  0  0
   19.9936  -15.3103  -21.2160 O   0  0  0  0  0  0  0  0  0  0  0  0
   20.1102  -15.2508  -18.8388 C   0  0  0  0  0  0  0  0  0  0  0  0
   20.4338  -14.3294  -17.6996 C   0  0  0  0  0  0  0  0  0  0  0  0
   21.9362  -14.4954  -17.4334 C   0  0  2  0  0  0  0  0  0  0  0  0
   22.1754  -15.7800  -16.7771 N   0  0  0  0  0  0  0  0  0  0  0  0
   22.4393  -13.4109  -16.5609 C   0  0  0  0  0  0  0  0  0  0  0  0
   21.9364  -13.2537  -15.4111 O   0  0  0  0  0  0  0  0  0  0  0  0
   28.2637  -10.2216  -16.1665 C   0  0  0  0  0  0  0  0  0  0  0  0
   27.9425  -11.9556  -15.7851 S   0  0  0  0  0  0  0  0  0  0  0  0
   26.1708  -12.1457  -15.3739 C   0  0  0  0  0  0  0  0  0  0  0  0
   25.3882  -11.2267  -16.2478 C   0  0  0  0  0  0  0  0  0  0  0  0
   23.9111  -11.3975  -16.0593 C   0  0  2  0  0  0  0  0  0  0  0  0
   23.4646  -12.5167  -16.9246 N   0  0  0  0  0  0  0  0  0  0  0  0
   23.2106  -10.1592  -16.4466 C   0  0  0  0  0  0  0  0  0  0  0  0
   22.8689  -10.1059  -17.6949 O   0  0  0  0  0  0  0  0  0  0  0  0
   19.5844   -6.5641  -16.7814 N   0  0  0  0  0  0  0  0  0  0  0  0
   19.4912   -7.9719  -16.8461 C   0  0  0  0  0  0  0  0  0  0  0  0
   18.4027   -8.4734  -17.2010 O   0  0  0  0  0  0  0  0  0  0  0  0
   20.6282   -8.8282  -16.5112 C   0  0  0  0  0  0  0  0  0  0  0  0
   21.9068   -8.0869  -16.1730 C   0  0  2  0  0  0  0  0  0  0  0  0
   22.8752   -9.0666  -15.6426 N   0  0  0  0  0  0  0  0  0  0  0  0
   21.7349   -7.0349  -15.1613 C   0  0  0  0  0  0  0  0  0  0  0  0
   21.4269   -5.7027  -15.4664 O   0  0  0  0  0  0  0  0  0  0  0  0
   21.8613   -7.2947  -13.9494 O   0  0  0  0  0  0  0  0  0  0  0  0
  1  2  1  0
  2  3  2  0
  4  5  1  0
  4  2  1  0
  6  7  1  1
  6  5  1  0
  8  6  1  0
  9  8  2  0
 11 10  1  0
 12 13  1  0
 12 11  1  0
 14 13  1  6
 14 16  1  0
 14 15  1  0
 15  8  1  0
 16 17  2  0
 18 19  1  0
 19 21  1  0
 20 19  2  0
 22 21  1  1
 23 22  1  0
 23 16  1  0
 24 25  1  0
 24 22  1  0
 26 24  2  0
M  END
$$$$
