QMN.pdb
     RDKit          3D

 26 25  0  0  1  0  0  0  0  0999 V2000
   15.4267   -9.5978  -17.6052 N   0  0  0  0  0  0  0  0  0  0  0  0
   15.7498  -10.7618  -18.3206 C   0  0  0  0  0  0  0  0  0  0  0  0
   14.9472  -11.1825  -19.1957 O   0  0  0  0  0  0  0  0  0  0  0  0
   17.0054  -11.4508  -18.0294 C   0  0  0  0  0  0  0  0  0  0  0  0
   17.8252  -10.8358  -16.9334 C   0  0  0  0  0  0  0  0  0  0  0  0
   19.0894  -11.6980  -16.8146 C   0  0  2  0  0  0  0  0  0  0  0  0
   18.7333  -13.0142  -16.2867 N   0  0  0  0  0  0  0  0  0  0  0  0
   20.0730  -11.0676  -15.9059 C   0  0  0  0  0  0  0  0  0  0  0  0
   19.8502  -11.0539  -14.6610 O   0  0  0  0  0  0  0  0  0  0  0  0
   26.6421   -9.9153  -16.9680 C   0  0  0  0  0  0  0  0  0  0  0  0
   26.2448  -10.2558  -15.2413 S   0  0  0  0  0  0  0  0  0  0  0  0
   24.6044   -9.5397  -14.8663 C   0  0  0  0  0  0  0  0  0  0  0  0
   23.5946  -10.2072  -15.7354 C   0  0  0  0  0  0  0  0  0  0  0  0
   22.1997   -9.7596  -15.4183 C   0  0  2  0  0  0  0  0  0  0  0  0
   21.2717  -10.4658  -16.3352 N   0  0  0  0  0  0  0  0  0  0  0  0
   22.0839   -8.3034  -15.6179 C   0  0  0  0  0  0  0  0  0  0  0  0
   21.8524   -7.9478  -16.8418 O   0  0  0  0  0  0  0  0  0  0  0  0
   20.7955   -3.3673  -15.7340 N   0  0  0  0  0  0  0  0  0  0  0  0
   19.9878   -4.5113  -15.9177 C   0  0  0  0  0  0  0  0  0  0  0  0
   18.8256   -4.3477  -16.3474 O   0  0  0  0  0  0  0  0  0  0  0  0
   20.4859   -5.8531  -15.6183 C   0  0  0  0  0  0  0  0  0  0  0  0
   21.9068   -5.9030  -15.0919 C   0  0  2  0  0  0  0  0  0  0  0  0
   22.1859   -7.2878  -14.6635 N   0  0  0  0  0  0  0  0  0  0  0  0
   22.1462   -5.0216  -13.9406 C   0  0  0  0  0  0  0  0  0  0  0  0
   22.0229   -3.6268  -13.9877 O   0  0  0  0  0  0  0  0  0  0  0  0
   22.4807   -5.4960  -12.8383 O   0  0  0  0  0  0  0  0  0  0  0  0
  1  2  1  0
  2  3  2  0
  4  5  1  0
  4  2  1  0
  6  7  1  1
  6  5  1  0
  8  6  1  0
  9  8  2  0
 11 10  1  0
 12 13  1  0
 12 11  1  0
 14 13  1  6
 14 16  1  0
 14 15  1  0
 15  8  1  0
 16 17  2  0
 18 19  1  0
 19 21  1  0
 20 19  2  0
 22 21  1  1
 23 22  1  0
 23 16  1  0
 24 25  1  0
 24 22  1  0
 26 24  2  0
M  END
$$$$
