QMN.pdb
     RDKit          3D

 26 25  0  0  1  0  0  0  0  0999 V2000
   28.3562  -22.8881  -17.1615 N   0  0  0  0  0  0  0  0  0  0  0  0
   29.1033  -21.7015  -17.2308 C   0  0  0  0  0  0  0  0  0  0  0  0
   29.6621  -21.3949  -18.3174 O   0  0  0  0  0  0  0  0  0  0  0  0
   29.2114  -20.8580  -16.0421 C   0  0  0  0  0  0  0  0  0  0  0  0
   28.5091  -21.3859  -14.8257 C   0  0  0  0  0  0  0  0  0  0  0  0
   27.0788  -20.8328  -14.8883 C   0  0  2  0  0  0  0  0  0  0  0  0
   27.1179  -19.3728  -14.8202 N   0  0  0  0  0  0  0  0  0  0  0  0
   26.2672  -21.3431  -13.7607 C   0  0  0  0  0  0  0  0  0  0  0  0
   26.0388  -22.5838  -13.6700 O   0  0  0  0  0  0  0  0  0  0  0  0
   28.1485  -20.9575   -7.5589 C   0  0  0  0  0  0  0  0  0  0  0  0
   26.6331  -20.2556   -8.2416 S   0  0  0  0  0  0  0  0  0  0  0  0
   26.2811  -21.0682   -9.8416 C   0  0  0  0  0  0  0  0  0  0  0  0
   25.0686  -20.4326  -10.4304 C   0  0  0  0  0  0  0  0  0  0  0  0
   24.7222  -21.0182  -11.7660 C   0  0  2  0  0  0  0  0  0  0  0  0
   25.7154  -20.5286  -12.7531 N   0  0  0  0  0  0  0  0  0  0  0  0
   23.3698  -20.5878  -12.1655 C   0  0  0  0  0  0  0  0  0  0  0  0
   23.3445  -19.5362  -12.9213 O   0  0  0  0  0  0  0  0  0  0  0  0
   20.2903  -23.0543  -15.8818 N   0  0  0  0  0  0  0  0  0  0  0  0
   20.6012  -21.8576  -15.1988 C   0  0  0  0  0  0  0  0  0  0  0  0
   20.0375  -20.8056  -15.5696 O   0  0  0  0  0  0  0  0  0  0  0  0
   21.5523  -21.8379  -14.0883 C   0  0  0  0  0  0  0  0  0  0  0  0
   21.0629  -21.1261  -12.8423 C   0  0  2  0  0  0  0  0  0  0  0  0
   22.1432  -21.1715  -11.8374 N   0  0  0  0  0  0  0  0  0  0  0  0
   19.8669  -21.7329  -12.2413 C   0  0  0  0  0  0  0  0  0  0  0  0
   18.5594  -21.3035  -12.5034 O   0  0  0  0  0  0  0  0  0  0  0  0
   19.9718  -22.6864  -11.4463 O   0  0  0  0  0  0  0  0  0  0  0  0
  1  2  1  0
  2  3  2  0
  4  5  1  0
  4  2  1  0
  6  7  1  1
  6  5  1  0
  8  6  1  0
  9  8  2  0
 11 10  1  0
 12 13  1  0
 12 11  1  0
 14 13  1  1
 14 16  1  0
 14 15  1  0
 15  8  1  0
 16 17  2  0
 18 19  1  0
 19 21  1  0
 20 19  2  0
 22 21  1  6
 23 22  1  0
 23 16  1  0
 24 25  1  0
 24 22  1  0
 26 24  2  0
M  END
$$$$
