QMN.pdb
     RDKit          3D

 26 25  0  0  1  0  0  0  0  0999 V2000
   29.6694  -26.3343  -15.9630 N   0  0  0  0  0  0  0  0  0  0  0  0
   29.8508  -25.0157  -16.4098 C   0  0  0  0  0  0  0  0  0  0  0  0
   30.9965  -24.4977  -16.3326 O   0  0  0  0  0  0  0  0  0  0  0  0
   28.7071  -24.2835  -16.9499 C   0  0  0  0  0  0  0  0  0  0  0  0
   27.4000  -25.0178  -16.8897 C   0  0  0  0  0  0  0  0  0  0  0  0
   26.3403  -24.0414  -17.4182 C   0  0  2  0  0  0  0  0  0  0  0  0
   26.8792  -23.3119  -18.5651 N   0  0  0  0  0  0  0  0  0  0  0  0
   25.9516  -23.0693  -16.3720 C   0  0  0  0  0  0  0  0  0  0  0  0
   25.4706  -23.4894  -15.2803 O   0  0  0  0  0  0  0  0  0  0  0  0
   28.2462  -17.1947  -15.9598 C   0  0  0  0  0  0  0  0  0  0  0  0
   26.6730  -16.7897  -15.1749 S   0  0  0  0  0  0  0  0  0  0  0  0
   25.7983  -18.3464  -14.7801 C   0  0  0  0  0  0  0  0  0  0  0  0
   26.2030  -19.3750  -15.7797 C   0  0  0  0  0  0  0  0  0  0  0  0
   25.5930  -20.7121  -15.4853 C   0  0  2  0  0  0  0  0  0  0  0  0
   26.0812  -21.6733  -16.5043 N   0  0  0  0  0  0  0  0  0  0  0  0
   24.1233  -20.6177  -15.5541 C   0  0  0  0  0  0  0  0  0  0  0  0
   23.6531  -20.4533  -16.7498 O   0  0  0  0  0  0  0  0  0  0  0  0
   18.9699  -20.7313  -15.2775 N   0  0  0  0  0  0  0  0  0  0  0  0
   19.7027  -21.9279  -15.1162 C   0  0  0  0  0  0  0  0  0  0  0  0
   19.0825  -23.0109  -15.1843 O   0  0  0  0  0  0  0  0  0  0  0  0
   21.1452  -21.9130  -14.8770 C   0  0  0  0  0  0  0  0  0  0  0  0
   21.7696  -20.5322  -14.8311 C   0  0  2  0  0  0  0  0  0  0  0  0
   23.2010  -20.6897  -14.5067 N   0  0  0  0  0  0  0  0  0  0  0  0
   21.1770  -19.6443  -13.8210 C   0  0  0  0  0  0  0  0  0  0  0  0
   21.9113  -19.0212  -12.8036 O   0  0  0  0  0  0  0  0  0  0  0  0
   19.9549  -19.4025  -13.8291 O   0  0  0  0  0  0  0  0  0  0  0  0
  1  2  1  0
  2  3  2  0
  4  5  1  0
  4  2  1  0
  6  7  1  6
  6  5  1  0
  8  6  1  0
  9  8  2  0
 11 10  1  0
 12 13  1  0
 12 11  1  0
 14 13  1  6
 14 16  1  0
 14 15  1  0
 15  8  1  0
 16 17  2  0
 18 19  1  0
 19 21  1  0
 20 19  2  0
 22 21  1  1
 23 22  1  0
 23 16  1  0
 24 25  1  0
 24 22  1  0
 26 24  2  0
M  END
$$$$
