QMN.pdb
     RDKit          3D

 26 25  0  0  1  0  0  0  0  0999 V2000
   20.4907  -18.4442  -13.3208 N   0  0  0  0  0  0  0  0  0  0  0  0
   21.1822  -17.9738  -14.4485 C   0  0  0  0  0  0  0  0  0  0  0  0
   20.8031  -16.9034  -14.9940 O   0  0  0  0  0  0  0  0  0  0  0  0
   22.3196  -18.7384  -14.9562 C   0  0  0  0  0  0  0  0  0  0  0  0
   22.6771  -19.9518  -14.1491 C   0  0  0  0  0  0  0  0  0  0  0  0
   23.9381  -19.5783  -13.3578 C   0  0  2  0  0  0  0  0  0  0  0  0
   25.1042  -19.6515  -14.2369 N   0  0  0  0  0  0  0  0  0  0  0  0
   24.1382  -20.5025  -12.2192 C   0  0  0  0  0  0  0  0  0  0  0  0
   24.5795  -21.6681  -12.4342 O   0  0  0  0  0  0  0  0  0  0  0  0
   28.5252  -19.5911   -7.1695 C   0  0  0  0  0  0  0  0  0  0  0  0
   26.7216  -19.5990   -7.1213 S   0  0  0  0  0  0  0  0  0  0  0  0
   26.1008  -20.4807   -8.5983 C   0  0  0  0  0  0  0  0  0  0  0  0
   24.6125  -20.4063   -8.5944 C   0  0  0  0  0  0  0  0  0  0  0  0
   24.0125  -21.1353   -9.7585 C   0  0  2  0  0  0  0  0  0  0  0  0
   23.8670  -20.1722  -10.8773 N   0  0  0  0  0  0  0  0  0  0  0  0
   22.6894  -21.6692   -9.3864 C   0  0  0  0  0  0  0  0  0  0  0  0
   21.8163  -20.7650   -9.0734 O   0  0  0  0  0  0  0  0  0  0  0  0
   18.6325  -23.6906   -7.1571 N   0  0  0  0  0  0  0  0  0  0  0  0
   19.7747  -23.1410   -6.5338 C   0  0  0  0  0  0  0  0  0  0  0  0
   19.7030  -22.8599   -5.3180 O   0  0  0  0  0  0  0  0  0  0  0  0
   21.0107  -22.9041   -7.2783 C   0  0  0  0  0  0  0  0  0  0  0  0
   20.9600  -23.3008   -8.7408 C   0  0  2  0  0  0  0  0  0  0  0  0
   22.2760  -23.0032   -9.3396 N   0  0  0  0  0  0  0  0  0  0  0  0
   19.9416  -22.5805   -9.5178 C   0  0  0  0  0  0  0  0  0  0  0  0
   20.2326  -21.7729  -10.6250 O   0  0  0  0  0  0  0  0  0  0  0  0
   18.7367  -22.6616   -9.2118 O   0  0  0  0  0  0  0  0  0  0  0  0
  1  2  1  0
  2  3  2  0
  4  5  1  0
  4  2  1  0
  6  7  1  6
  6  5  1  0
  8  6  1  0
  9  8  2  0
 11 10  1  0
 12 13  1  0
 12 11  1  0
 14 13  1  1
 14 16  1  0
 14 15  1  0
 15  8  1  0
 16 17  2  0
 18 19  1  0
 19 21  1  0
 20 19  2  0
 22 21  1  1
 23 22  1  0
 23 16  1  0
 24 25  1  0
 24 22  1  0
 26 24  2  0
M  END
$$$$
