QMN.pdb
     RDKit          3D

 26 25  0  0  1  0  0  0  0  0999 V2000
   26.8748  -15.6514  -15.7059 N   0  0  0  0  0  0  0  0  0  0  0  0
   27.0233  -16.6391  -16.6927 C   0  0  0  0  0  0  0  0  0  0  0  0
   26.8749  -16.3200  -17.9023 O   0  0  0  0  0  0  0  0  0  0  0  0
   27.3448  -18.0063  -16.2886 C   0  0  0  0  0  0  0  0  0  0  0  0
   27.6155  -18.1860  -14.8237 C   0  0  0  0  0  0  0  0  0  0  0  0
   28.0311  -19.6528  -14.6460 C   0  0  2  0  0  0  0  0  0  0  0  0
   28.0707  -20.3093  -15.9519 N   0  0  0  0  0  0  0  0  0  0  0  0
   27.0709  -20.3706  -13.7781 C   0  0  0  0  0  0  0  0  0  0  0  0
   26.2549  -21.1869  -14.2952 O   0  0  0  0  0  0  0  0  0  0  0  0
   27.1460  -20.4153   -7.1267 C   0  0  0  0  0  0  0  0  0  0  0  0
   25.3941  -20.3042   -7.5436 S   0  0  0  0  0  0  0  0  0  0  0  0
   25.1438  -21.0110   -9.2115 C   0  0  0  0  0  0  0  0  0  0  0  0
   26.1459  -20.4021  -10.1312 C   0  0  0  0  0  0  0  0  0  0  0  0
   25.9926  -20.9016  -11.5360 C   0  0  2  0  0  0  0  0  0  0  0  0
   26.9959  -20.2089  -12.3812 N   0  0  0  0  0  0  0  0  0  0  0  0
   24.6355  -20.6021  -12.0284 C   0  0  0  0  0  0  0  0  0  0  0  0
   24.4659  -19.3787  -12.4190 O   0  0  0  0  0  0  0  0  0  0  0  0
   20.0217  -20.6211  -14.4485 N   0  0  0  0  0  0  0  0  0  0  0  0
   20.8884  -21.6855  -14.7814 C   0  0  0  0  0  0  0  0  0  0  0  0
   20.5802  -22.4139  -15.7492 O   0  0  0  0  0  0  0  0  0  0  0  0
   22.1137  -21.9372  -14.0242 C   0  0  0  0  0  0  0  0  0  0  0  0
   22.3503  -20.9928  -12.8619 C   0  0  2  0  0  0  0  0  0  0  0  0
   23.5402  -21.4642  -12.1264 N   0  0  0  0  0  0  0  0  0  0  0  0
   21.2323  -20.9286  -11.9102 C   0  0  0  0  0  0  0  0  0  0  0  0
   20.1085  -20.1099  -12.0818 O   0  0  0  0  0  0  0  0  0  0  0  0
   21.2398  -21.6236  -10.8763 O   0  0  0  0  0  0  0  0  0  0  0  0
  1  2  1  0
  2  3  2  0
  4  5  1  0
  4  2  1  0
  6  7  1  6
  6  5  1  0
  8  6  1  0
  9  8  2  0
 11 10  1  0
 12 13  1  0
 12 11  1  0
 14 13  1  1
 14 16  1  0
 14 15  1  0
 15  8  1  0
 16 17  2  0
 18 19  1  0
 19 21  1  0
 20 19  2  0
 22 21  1  6
 23 22  1  0
 23 16  1  0
 24 25  1  0
 24 22  1  0
 26 24  2  0
M  END
$$$$
