QMN.pdb
     RDKit          3D

 26 25  0  0  1  0  0  0  0  0999 V2000
   28.2012  -23.2269  -17.2792 N   0  0  0  0  0  0  0  0  0  0  0  0
   28.9993  -22.1252  -17.6262 C   0  0  0  0  0  0  0  0  0  0  0  0
   29.3513  -21.9811  -18.8271 O   0  0  0  0  0  0  0  0  0  0  0  0
   29.3983  -21.1795  -16.5858 C   0  0  0  0  0  0  0  0  0  0  0  0
   28.9354  -21.5289  -15.2019 C   0  0  0  0  0  0  0  0  0  0  0  0
   27.5962  -20.8046  -15.0072 C   0  0  2  0  0  0  0  0  0  0  0  0
   27.8417  -19.3832  -14.7679 N   0  0  0  0  0  0  0  0  0  0  0  0
   26.8581  -21.3641  -13.8528 C   0  0  0  0  0  0  0  0  0  0  0  0
   26.3094  -22.4989  -13.9560 O   0  0  0  0  0  0  0  0  0  0  0  0
   27.7394  -20.4886   -7.6930 C   0  0  0  0  0  0  0  0  0  0  0  0
   25.9462  -20.3185   -7.5894 S   0  0  0  0  0  0  0  0  0  0  0  0
   25.2146  -20.8607   -9.1753 C   0  0  0  0  0  0  0  0  0  0  0  0
   26.2076  -20.6080  -10.2574 C   0  0  0  0  0  0  0  0  0  0  0  0
   25.7356  -21.1258  -11.5824 C   0  0  2  0  0  0  0  0  0  0  0  0
   26.7175  -20.7099  -12.6137 N   0  0  0  0  0  0  0  0  0  0  0  0
   24.4118  -20.5587  -11.8985 C   0  0  0  0  0  0  0  0  0  0  0  0
   24.4500  -19.3955  -12.4673 O   0  0  0  0  0  0  0  0  0  0  0  0
   21.1636  -19.3306  -15.6888 N   0  0  0  0  0  0  0  0  0  0  0  0
   21.0878  -20.3427  -14.7065 C   0  0  0  0  0  0  0  0  0  0  0  0
   20.0055  -20.9536  -14.5741 O   0  0  0  0  0  0  0  0  0  0  0  0
   22.2355  -20.6758  -13.8639 C   0  0  0  0  0  0  0  0  0  0  0  0
   21.9945  -20.5357  -12.3736 C   0  0  2  0  0  0  0  0  0  0  0  0
   23.1525  -21.1186  -11.6678 N   0  0  0  0  0  0  0  0  0  0  0  0
   20.7870  -21.2258  -11.8987 C   0  0  0  0  0  0  0  0  0  0  0  0
   19.5336  -20.6113  -11.7801 O   0  0  0  0  0  0  0  0  0  0  0  0
   20.8316  -22.4268  -11.5703 O   0  0  0  0  0  0  0  0  0  0  0  0
  1  2  1  0
  2  3  2  0
  4  5  1  0
  4  2  1  0
  6  7  1  1
  6  5  1  0
  8  6  1  0
  9  8  2  0
 11 10  1  0
 12 13  1  0
 12 11  1  0
 14 13  1  1
 14 16  1  0
 14 15  1  0
 15  8  1  0
 16 17  2  0
 18 19  1  0
 19 21  1  0
 20 19  2  0
 22 21  1  6
 23 22  1  0
 23 16  1  0
 24 25  1  0
 24 22  1  0
 26 24  2  0
M  END
$$$$
