QMN.pdb
     RDKit          3D

 26 25  0  0  1  0  0  0  0  0999 V2000
   28.7491  -20.1155  -19.6883 N   0  0  0  0  0  0  0  0  0  0  0  0
   29.2793  -20.8066  -18.5872 C   0  0  0  0  0  0  0  0  0  0  0  0
   29.4340  -22.0543  -18.6670 O   0  0  0  0  0  0  0  0  0  0  0  0
   29.6353  -20.0600  -17.3823 C   0  0  0  0  0  0  0  0  0  0  0  0
   29.1058  -20.6355  -16.1017 C   0  0  0  0  0  0  0  0  0  0  0  0
   27.6079  -20.3018  -16.0742 C   0  0  2  0  0  0  0  0  0  0  0  0
   27.4334  -18.8580  -15.9236 N   0  0  0  0  0  0  0  0  0  0  0  0
   26.9369  -20.9855  -14.9459 C   0  0  0  0  0  0  0  0  0  0  0  0
   26.9715  -22.2478  -14.8741 O   0  0  0  0  0  0  0  0  0  0  0  0
   25.4823  -20.9302   -7.3545 C   0  0  0  0  0  0  0  0  0  0  0  0
   26.1051  -20.0936   -8.8267 S   0  0  0  0  0  0  0  0  0  0  0  0
   25.4016  -20.9091  -10.3047 C   0  0  0  0  0  0  0  0  0  0  0  0
   26.0533  -20.3281  -11.5123 C   0  0  0  0  0  0  0  0  0  0  0  0
   25.6202  -21.0197  -12.7696 C   0  0  2  0  0  0  0  0  0  0  0  0
   26.2441  -20.3176  -13.9177 N   0  0  0  0  0  0  0  0  0  0  0  0
   24.1518  -20.9642  -12.8908 C   0  0  0  0  0  0  0  0  0  0  0  0
   23.6883  -19.8111  -13.2560 O   0  0  0  0  0  0  0  0  0  0  0  0
   19.4890  -23.5151  -15.2333 N   0  0  0  0  0  0  0  0  0  0  0  0
   19.9020  -23.2153  -13.9163 C   0  0  0  0  0  0  0  0  0  0  0  0
   19.0202  -22.9714  -13.0648 O   0  0  0  0  0  0  0  0  0  0  0  0
   21.3167  -23.1891  -13.5476 C   0  0  0  0  0  0  0  0  0  0  0  0
   21.8619  -21.8157  -13.2083 C   0  0  2  0  0  0  0  0  0  0  0  0
   23.2255  -21.9867  -12.6695 N   0  0  0  0  0  0  0  0  0  0  0  0
   21.0706  -21.0932  -12.2024 C   0  0  0  0  0  0  0  0  0  0  0  0
   21.1342  -21.3525  -10.8271 O   0  0  0  0  0  0  0  0  0  0  0  0
   20.2836  -20.1901  -12.5447 O   0  0  0  0  0  0  0  0  0  0  0  0
  1  2  1  0
  2  3  2  0
  4  5  1  0
  4  2  1  0
  6  7  1  1
  6  5  1  0
  8  6  1  0
  9  8  2  0
 11 10  1  0
 12 13  1  0
 12 11  1  0
 14 13  1  1
 14 16  1  0
 14 15  1  0
 15  8  1  0
 16 17  2  0
 18 19  1  0
 19 21  1  0
 20 19  2  0
 22 21  1  1
 23 22  1  0
 23 16  1  0
 24 25  1  0
 24 22  1  0
 26 24  2  0
M  END
$$$$
