RED.pdb
     RDKit          3D

 29 28  0  0  1  0  0  0  0  0999 V2000
   13.1255  -24.8454   -3.9055 N   0  0  0  0  0  0  0  0  0  0  0  0
   14.1806  -24.9470   -2.9681 C   0  0  0  0  0  0  0  0  0  0  0  0
   14.5310  -26.0943   -2.5446 N   0  0  0  0  0  0  0  0  0  0  0  0
   14.8230  -23.7624   -2.5238 N   0  0  0  0  0  0  0  0  0  0  0  0
   14.2345  -22.4753   -2.8356 C   0  0  0  0  0  0  0  0  0  0  0  0
   13.5036  -21.8845   -1.6777 C   0  0  0  0  0  0  0  0  0  0  0  0
   14.3208  -21.6417   -0.4686 C   0  0  0  0  0  0  0  0  0  0  0  0
   13.6355  -21.0814    0.7269 C   0  0  2  0  0  0  0  0  0  0  0  0
   13.1468  -19.7380    0.5912 N   0  0  0  0  0  0  0  0  0  0  0  0
   14.6549  -21.0809    1.8364 C   0  0  0  0  0  0  0  0  0  0  0  0
   15.8117  -20.6314    1.5970 O   0  0  0  0  0  0  0  0  0  0  0  0
   15.2483  -26.2816   -1.8289 N   0  0  0  0  0  0  0  0  0  0  0  0
   14.3078  -21.5763    3.1121 C   0  0  2  0  0  0  0  0  0  0  0  0
   15.2362  -21.4358    4.2014 C   0  0  0  0  0  0  0  0  0  0  0  0
   14.4476  -20.9470    5.4028 C   0  0  0  0  0  0  0  0  0  0  0  0
   15.3670  -20.8166    6.6117 C   0  0  0  0  0  0  0  0  0  0  0  0
   14.5971  -20.4009    7.8119 O   0  0  0  0  0  0  0  0  0  0  0  0
   13.9021  -19.3577    7.8646 C   0  0  0  0  0  0  0  0  0  0  0  0
   15.8061  -22.8025    4.4841 O   0  0  0  0  0  0  0  0  0  0  0  0
   15.1114  -23.8416    4.3436 O   0  0  0  0  0  0  0  0  0  0  0  0
   14.6375  -21.2015    8.9512 N   0  0  0  0  0  0  0  0  0  0  0  0
   17.1452  -22.9599    4.9179 C   0  0  1  0  0  0  0  0  0  0  0  0
   17.6352  -24.3326    5.1945 C   0  0  0  0  0  0  0  0  0  0  0  0
   19.0180  -24.4786    4.5912 C   0  0  0  0  0  0  0  0  0  0  0  0
   19.1972  -25.8284    4.0641 O   0  0  0  0  0  0  0  0  0  0  0  0
   18.2917  -26.6781    4.1246 C   0  0  0  0  0  0  0  0  0  0  0  0
   17.7053  -24.4000    6.6729 O   0  0  0  0  0  0  0  0  0  0  0  0
   17.6065  -23.3423    7.3445 O   0  0  0  0  0  0  0  0  0  0  0  0
   20.4040  -26.1850    3.4780 O   0  0  0  0  0  0  0  0  0  0  0  0
  1  2  1  0
  2  3  2  0
  4  2  1  0
  5  4  1  0
  6  5  1  0
  7  6  1  0
  8  7  1  0
  8  9  1  6
 10  8  1  0
 10 12  1  0
 11 10  2  0
 13 12  1  0
 13 14  1  1
 15 14  1  0
 15 16  1  0
 16 17  2  0
 18 13  1  0
 19 18  2  0
 20 16  1  0
 21 18  1  0
 22 26  1  0
 22 21  1  0
 23 24  1  0
 22 23  1  1
 24 25  2  0
 26 29  1  0
 27 26  2  0
 28 24  1  0
M  END
$$$$
