RED.pdb
     RDKit          3D

 29 28  0  0  1  0  0  0  0  0999 V2000
   16.3058  -16.3337  -17.5208 N   0  0  0  0  0  0  0  0  0  0  0  0
   15.9465  -15.8551  -16.2385 C   0  0  0  0  0  0  0  0  0  0  0  0
   15.0826  -16.4907  -15.5544 N   0  0  0  0  0  0  0  0  0  0  0  0
   16.5620  -14.6748  -15.7470 N   0  0  0  0  0  0  0  0  0  0  0  0
   17.5277  -13.9798  -16.5744 C   0  0  0  0  0  0  0  0  0  0  0  0
   18.1148  -12.7904  -15.8927 C   0  0  0  0  0  0  0  0  0  0  0  0
   19.1551  -12.0694  -16.6587 C   0  0  0  0  0  0  0  0  0  0  0  0
   20.5196  -12.6606  -16.6955 C   0  0  2  0  0  0  0  0  0  0  0  0
   20.6676  -13.9257  -16.0325 N   0  0  0  0  0  0  0  0  0  0  0  0
   21.4246  -11.6776  -15.9994 C   0  0  0  0  0  0  0  0  0  0  0  0
   21.3197  -11.5378  -14.7475 O   0  0  0  0  0  0  0  0  0  0  0  0
   14.7837  -16.2624  -14.5951 N   0  0  0  0  0  0  0  0  0  0  0  0
   22.3657  -10.9357  -16.7459 C   0  0  1  0  0  0  0  0  0  0  0  0
   23.2214   -9.9972  -16.0711 C   0  0  0  0  0  0  0  0  0  0  0  0
   24.6219  -10.1890  -16.6241 C   0  0  0  0  0  0  0  0  0  0  0  0
   25.2992  -11.3658  -15.9312 C   0  0  0  0  0  0  0  0  0  0  0  0
   26.6693  -11.5703  -16.4670 O   0  0  0  0  0  0  0  0  0  0  0  0
   27.7121  -11.4049  -15.7894 C   0  0  0  0  0  0  0  0  0  0  0  0
   22.7230   -8.6145  -16.4064 O   0  0  0  0  0  0  0  0  0  0  0  0
   22.1789   -8.3670  -17.5131 O   0  0  0  0  0  0  0  0  0  0  0  0
   26.8237  -11.9675  -17.7932 N   0  0  0  0  0  0  0  0  0  0  0  0
   22.8520   -7.5479  -15.4834 C   0  0  1  0  0  0  0  0  0  0  0  0
   22.3767   -6.2042  -15.8947 C   0  0  0  0  0  0  0  0  0  0  0  0
   22.1459   -5.3748  -14.6473 C   0  0  0  0  0  0  0  0  0  0  0  0
   20.9520   -5.8400  -13.9473 O   0  0  0  0  0  0  0  0  0  0  0  0
   19.9397   -6.2165  -14.5630 C   0  0  0  0  0  0  0  0  0  0  0  0
   23.5008   -5.6497  -16.6849 O   0  0  0  0  0  0  0  0  0  0  0  0
   23.3718   -4.5295  -17.2399 O   0  0  0  0  0  0  0  0  0  0  0  0
   20.9333   -5.8676  -12.5595 O   0  0  0  0  0  0  0  0  0  0  0  0
  1  2  1  0
  2  3  2  0
  4  2  1  0
  5  4  1  0
  6  5  1  0
  7  6  1  0
  8  7  1  0
  8  9  1  1
 10  8  1  0
 10 12  1  0
 11 10  2  0
 13 12  1  0
 13 14  1  1
 15 14  1  0
 15 16  1  0
 16 17  2  0
 18 13  1  0
 19 18  2  0
 20 16  1  0
 21 18  1  0
 22 26  1  0
 22 21  1  0
 23 24  1  0
 22 23  1  6
 24 25  2  0
 26 29  1  0
 27 26  2  0
 28 24  1  0
M  END
$$$$
