RED.pdb
     RDKit          3D

 29 28  0  0  1  0  0  0  0  0999 V2000
   26.3206  -20.1201   -8.1371 N   0  0  0  0  0  0  0  0  0  0  0  0
   25.1059  -20.6767   -8.6031 C   0  0  0  0  0  0  0  0  0  0  0  0
   24.1582  -20.8844   -7.7803 N   0  0  0  0  0  0  0  0  0  0  0  0
   24.9758  -20.9889   -9.9812 N   0  0  0  0  0  0  0  0  0  0  0  0
   26.1566  -21.3390  -10.7448 C   0  0  0  0  0  0  0  0  0  0  0  0
   27.0601  -20.1738  -10.9684 C   0  0  0  0  0  0  0  0  0  0  0  0
   27.2292  -19.7637  -12.3797 C   0  0  0  0  0  0  0  0  0  0  0  0
   26.2251  -20.2480  -13.3646 C   0  0  2  0  0  0  0  0  0  0  0  0
   26.2588  -21.6557  -13.6463 N   0  0  0  0  0  0  0  0  0  0  0  0
   26.5138  -19.5228  -14.6533 C   0  0  0  0  0  0  0  0  0  0  0  0
   26.5609  -18.2598  -14.6412 O   0  0  0  0  0  0  0  0  0  0  0  0
   23.2389  -21.2908   -8.0067 N   0  0  0  0  0  0  0  0  0  0  0  0
   26.7255  -20.2553  -15.8416 C   0  0  2  0  0  0  0  0  0  0  0  0
   26.9159  -19.5515  -17.0812 C   0  0  0  0  0  0  0  0  0  0  0  0
   28.0251  -20.2623  -17.8350 C   0  0  0  0  0  0  0  0  0  0  0  0
   28.2061  -19.6331  -19.2117 C   0  0  0  0  0  0  0  0  0  0  0  0
   29.2745  -20.3325  -19.9701 O   0  0  0  0  0  0  0  0  0  0  0  0
   29.2638  -21.5639  -20.2101 C   0  0  0  0  0  0  0  0  0  0  0  0
   25.6259  -19.6495  -17.8552 O   0  0  0  0  0  0  0  0  0  0  0  0
   25.0156  -20.7430  -17.9715 O   0  0  0  0  0  0  0  0  0  0  0  0
   30.3557  -19.5962  -20.4489 N   0  0  0  0  0  0  0  0  0  0  0  0
   25.0591  -18.5101  -18.4773 C   0  0  1  0  0  0  0  0  0  0  0  0
   23.5804  -18.4083  -18.5385 C   0  0  0  0  0  0  0  0  0  0  0  0
   23.0490  -18.2908  -17.1240 C   0  0  0  0  0  0  0  0  0  0  0  0
   21.9462  -19.2260  -16.9213 O   0  0  0  0  0  0  0  0  0  0  0  0
   21.5526  -19.9777  -17.8300 C   0  0  0  0  0  0  0  0  0  0  0  0
   23.3355  -17.1549  -19.2897 O   0  0  0  0  0  0  0  0  0  0  0  0
   24.2299  -16.2727  -19.3271 O   0  0  0  0  0  0  0  0  0  0  0  0
   21.3124  -19.2876  -15.6878 O   0  0  0  0  0  0  0  0  0  0  0  0
  1  2  1  0
  2  3  2  0
  4  2  1  0
  5  4  1  0
  6  5  1  0
  7  6  1  0
  8  7  1  0
  8  9  1  6
 10  8  1  0
 10 12  1  0
 11 10  2  0
 13 12  1  0
 13 14  1  1
 15 14  1  0
 15 16  1  0
 16 17  2  0
 18 13  1  0
 19 18  2  0
 20 16  1  0
 21 18  1  0
 22 26  1  0
 22 21  1  0
 23 24  1  0
 22 23  1  6
 24 25  2  0
 26 29  1  0
 27 26  2  0
 28 24  1  0
M  END
$$$$
