RED.pdb
     RDKit          3D

 29 28  0  0  1  0  0  0  0  0999 V2000
   11.3503   -8.3824   -7.7992 N   0  0  0  0  0  0  0  0  0  0  0  0
   12.1597   -7.3042   -7.3694 C   0  0  0  0  0  0  0  0  0  0  0  0
   11.6391   -6.1528   -7.2221 N   0  0  0  0  0  0  0  0  0  0  0  0
   13.5357   -7.5363   -7.1123 N   0  0  0  0  0  0  0  0  0  0  0  0
   14.4855   -7.4580   -8.2041 C   0  0  0  0  0  0  0  0  0  0  0  0
   14.4605   -8.6701   -9.0725 C   0  0  0  0  0  0  0  0  0  0  0  0
   15.4189   -8.6629  -10.1996 C   0  0  0  0  0  0  0  0  0  0  0  0
   15.4153   -9.8343  -11.1165 C   0  0  2  0  0  0  0  0  0  0  0  0
   15.7276  -11.0987  -10.5117 N   0  0  0  0  0  0  0  0  0  0  0  0
   16.4694   -9.5591  -12.1572 C   0  0  0  0  0  0  0  0  0  0  0  0
   17.5916  -10.1308  -12.0499 O   0  0  0  0  0  0  0  0  0  0  0  0
   12.1226   -5.3098   -6.8799 N   0  0  0  0  0  0  0  0  0  0  0  0
   16.1923   -8.6775  -13.2246 C   0  0  2  0  0  0  0  0  0  0  0  0
   17.1534   -8.5257  -14.2836 C   0  0  0  0  0  0  0  0  0  0  0  0
   16.3777   -8.2329  -15.5550 C   0  0  0  0  0  0  0  0  0  0  0  0
   15.6986   -9.5027  -16.0554 C   0  0  0  0  0  0  0  0  0  0  0  0
   14.9122   -9.2257  -17.2845 O   0  0  0  0  0  0  0  0  0  0  0  0
   13.6717   -9.3936  -17.3682 C   0  0  0  0  0  0  0  0  0  0  0  0
   18.0253   -7.3472  -13.9324 O   0  0  0  0  0  0  0  0  0  0  0  0
   17.5819   -6.3864  -13.2525 O   0  0  0  0  0  0  0  0  0  0  0  0
   15.5722   -8.7530  -18.4165 N   0  0  0  0  0  0  0  0  0  0  0  0
   19.3748   -7.2846  -14.3581 C   0  0  2  0  0  0  0  0  0  0  0  0
   20.2054   -6.1485  -13.8888 C   0  0  0  0  0  0  0  0  0  0  0  0
   21.6651   -6.5208  -14.0558 C   0  0  0  0  0  0  0  0  0  0  0  0
   22.5183   -5.4109  -13.6411 O   0  0  0  0  0  0  0  0  0  0  0  0
   22.3243   -4.8017  -12.5749 C   0  0  0  0  0  0  0  0  0  0  0  0
   19.8465   -5.0375  -14.8011 O   0  0  0  0  0  0  0  0  0  0  0  0
   19.5285   -5.2931  -15.9899 O   0  0  0  0  0  0  0  0  0  0  0  0
   23.5762   -5.0155  -14.4483 O   0  0  0  0  0  0  0  0  0  0  0  0
  1  2  1  0
  2  3  2  0
  4  2  1  0
  5  4  1  0
  6  5  1  0
  7  6  1  0
  8  7  1  0
  8  9  1  1
 10  8  1  0
 10 12  1  0
 11 10  2  0
 13 12  1  0
 13 14  1  1
 15 14  1  0
 15 16  1  0
 16 17  2  0
 18 13  1  0
 19 18  2  0
 20 16  1  0
 21 18  1  0
 22 26  1  0
 22 21  1  0
 23 24  1  0
 22 23  1  6
 24 25  2  0
 26 29  1  0
 27 26  2  0
 28 24  1  0
M  END
$$$$
