RED.pdb
     RDKit          3D

 29 28  0  0  1  0  0  0  0  0999 V2000
   24.6781  -25.0669  -14.0477 N   0  0  0  0  0  0  0  0  0  0  0  0
   24.6798  -24.7145  -15.4182 C   0  0  0  0  0  0  0  0  0  0  0  0
   25.4889  -25.2938  -16.2107 N   0  0  0  0  0  0  0  0  0  0  0  0
   23.7752  -23.7210  -15.8745 N   0  0  0  0  0  0  0  0  0  0  0  0
   22.3904  -23.7727  -15.4508 C   0  0  0  0  0  0  0  0  0  0  0  0
   22.0494  -25.0515  -14.7635 C   0  0  0  0  0  0  0  0  0  0  0  0
   20.6455  -25.1750  -14.3132 C   0  0  0  0  0  0  0  0  0  0  0  0
   20.0510  -24.0238  -13.5823 C   0  0  2  0  0  0  0  0  0  0  0  0
   20.9778  -23.2041  -12.8534 N   0  0  0  0  0  0  0  0  0  0  0  0
   19.0858  -24.6100  -12.5849 C   0  0  0  0  0  0  0  0  0  0  0  0
   18.2571  -25.4784  -12.9809 O   0  0  0  0  0  0  0  0  0  0  0  0
   25.6243  -25.0695  -17.2072 N   0  0  0  0  0  0  0  0  0  0  0  0
   19.1202  -24.1864  -11.2385 C   0  0  1  0  0  0  0  0  0  0  0  0
   18.2044  -24.7643  -10.2921 C   0  0  0  0  0  0  0  0  0  0  0  0
   18.8120  -24.5848   -8.9128 C   0  0  0  0  0  0  0  0  0  0  0  0
   17.8970  -25.1944   -7.8569 C   0  0  0  0  0  0  0  0  0  0  0  0
   18.4754  -25.0204   -6.5000 O   0  0  0  0  0  0  0  0  0  0  0  0
   19.6072  -24.5233   -6.2857 C   0  0  0  0  0  0  0  0  0  0  0  0
   16.9136  -23.9916  -10.3879 O   0  0  0  0  0  0  0  0  0  0  0  0
   15.9300  -24.2699   -9.6552 O   0  0  0  0  0  0  0  0  0  0  0  0
   17.7342  -25.4260   -5.3925 N   0  0  0  0  0  0  0  0  0  0  0  0
   16.7675  -22.9250  -11.3084 C   0  0  1  0  0  0  0  0  0  0  0  0
   15.4549  -22.2376  -11.3816 C   0  0  0  0  0  0  0  0  0  0  0  0
   15.3662  -21.2505  -10.2349 C   0  0  0  0  0  0  0  0  0  0  0  0
   14.1960  -20.3927  -10.3984 O   0  0  0  0  0  0  0  0  0  0  0  0
   14.3001  -19.2109  -10.7699 C   0  0  0  0  0  0  0  0  0  0  0  0
   15.4933  -21.5226  -12.6787 O   0  0  0  0  0  0  0  0  0  0  0  0
   14.4417  -21.0006  -13.1273 O   0  0  0  0  0  0  0  0  0  0  0  0
   12.9295  -20.8968  -10.1358 O   0  0  0  0  0  0  0  0  0  0  0  0
  1  2  1  0
  2  3  2  0
  4  2  1  0
  5  4  1  0
  6  5  1  0
  7  6  1  0
  8  7  1  0
  8  9  1  1
 10  8  1  0
 10 12  1  0
 11 10  2  0
 13 12  1  0
 13 14  1  6
 15 14  1  0
 15 16  1  0
 16 17  2  0
 18 13  1  0
 19 18  2  0
 20 16  1  0
 21 18  1  0
 22 26  1  0
 22 21  1  0
 23 24  1  0
 22 23  1  6
 24 25  2  0
 26 29  1  0
 27 26  2  0
 28 24  1  0
M  END
$$$$
