RED.pdb
     RDKit          3D

 29 28  0  0  1  0  0  0  0  0999 V2000
   27.4164  -17.1903  -14.6900 N   0  0  0  0  0  0  0  0  0  0  0  0
   27.2289  -17.0702  -16.0874 C   0  0  0  0  0  0  0  0  0  0  0  0
   27.4850  -18.0639  -16.8393 N   0  0  0  0  0  0  0  0  0  0  0  0
   26.7576  -15.8404  -16.6155 N   0  0  0  0  0  0  0  0  0  0  0  0
   26.2604  -14.8230  -15.7112 C   0  0  0  0  0  0  0  0  0  0  0  0
   25.0021  -15.2334  -15.0240 C   0  0  0  0  0  0  0  0  0  0  0  0
   23.8936  -14.2560  -15.0931 C   0  0  0  0  0  0  0  0  0  0  0  0
   22.7719  -14.5489  -16.0253 C   0  0  2  0  0  0  0  0  0  0  0  0
   23.1223  -15.2822  -17.2092 N   0  0  0  0  0  0  0  0  0  0  0  0
   22.2291  -13.2141  -16.4653 C   0  0  0  0  0  0  0  0  0  0  0  0
   22.6681  -12.7035  -17.5350 O   0  0  0  0  0  0  0  0  0  0  0  0
   27.4103  -18.0799  -17.8668 N   0  0  0  0  0  0  0  0  0  0  0  0
   21.2497  -12.5605  -15.6863 C   0  0  1  0  0  0  0  0  0  0  0  0
   20.5880  -11.3974  -16.2131 C   0  0  0  0  0  0  0  0  0  0  0  0
   19.1075  -11.5500  -15.9155 C   0  0  0  0  0  0  0  0  0  0  0  0
   18.3613  -10.2835  -16.3195 C   0  0  0  0  0  0  0  0  0  0  0  0
   16.9258  -10.3822  -15.9513 O   0  0  0  0  0  0  0  0  0  0  0  0
   16.4316  -11.3582  -15.3372 C   0  0  0  0  0  0  0  0  0  0  0  0
   21.1369  -10.1992  -15.4812 O   0  0  0  0  0  0  0  0  0  0  0  0
   21.4627  -10.2677  -14.2683 O   0  0  0  0  0  0  0  0  0  0  0  0
   16.0662   -9.3427  -16.2992 N   0  0  0  0  0  0  0  0  0  0  0  0
   21.3036   -8.9554  -16.1382 C   0  0  2  0  0  0  0  0  0  0  0  0
   21.8136   -7.8084  -15.3475 C   0  0  0  0  0  0  0  0  0  0  0  0
   22.3528   -6.7666  -16.3073 C   0  0  0  0  0  0  0  0  0  0  0  0
   21.2982   -6.3253  -17.2156 O   0  0  0  0  0  0  0  0  0  0  0  0
   20.1372   -6.7615  -17.1285 C   0  0  0  0  0  0  0  0  0  0  0  0
   20.6157   -7.2938  -14.6437 O   0  0  0  0  0  0  0  0  0  0  0  0
   19.4782   -7.7155  -14.9718 O   0  0  0  0  0  0  0  0  0  0  0  0
   21.5854   -5.3958  -18.2058 O   0  0  0  0  0  0  0  0  0  0  0  0
  1  2  1  0
  2  3  2  0
  4  2  1  0
  5  4  1  0
  6  5  1  0
  7  6  1  0
  8  7  1  0
  8  9  1  6
 10  8  1  0
 10 12  1  0
 11 10  2  0
 13 12  1  0
 13 14  1  6
 15 14  1  0
 15 16  1  0
 16 17  2  0
 18 13  1  0
 19 18  2  0
 20 16  1  0
 21 18  1  0
 22 26  1  0
 22 21  1  0
 23 24  1  0
 22 23  1  6
 24 25  2  0
 26 29  1  0
 27 26  2  0
 28 24  1  0
M  END
$$$$
