RED.pdb
     RDKit          3D

 29 28  0  0  1  0  0  0  0  0999 V2000
   16.3109  -23.5468  -13.1870 N   0  0  0  0  0  0  0  0  0  0  0  0
   17.3784  -22.7551  -12.7012 C   0  0  0  0  0  0  0  0  0  0  0  0
   17.6635  -22.7842  -11.4618 N   0  0  0  0  0  0  0  0  0  0  0  0
   18.1063  -21.9471  -13.6127 N   0  0  0  0  0  0  0  0  0  0  0  0
   17.7046  -21.9077  -15.0045 C   0  0  0  0  0  0  0  0  0  0  0  0
   18.6120  -22.6986  -15.8848 C   0  0  0  0  0  0  0  0  0  0  0  0
   19.8024  -21.9748  -16.3828 C   0  0  0  0  0  0  0  0  0  0  0  0
   20.6599  -22.6630  -17.3848 C   0  0  2  0  0  0  0  0  0  0  0  0
   20.1720  -22.6494  -18.7352 N   0  0  0  0  0  0  0  0  0  0  0  0
   20.7446  -24.1030  -16.9500 C   0  0  0  0  0  0  0  0  0  0  0  0
   19.7309  -24.8429  -17.1007 O   0  0  0  0  0  0  0  0  0  0  0  0
   18.4563  -22.3037  -11.0121 N   0  0  0  0  0  0  0  0  0  0  0  0
   21.9405  -24.5998  -16.3874 C   0  0  2  0  0  0  0  0  0  0  0  0
   21.9936  -25.9621  -15.9295 C   0  0  0  0  0  0  0  0  0  0  0  0
   23.4568  -26.3632  -15.8834 C   0  0  0  0  0  0  0  0  0  0  0  0
   24.3215  -25.1462  -15.5752 C   0  0  0  0  0  0  0  0  0  0  0  0
   25.7553  -25.5275  -15.5052 O   0  0  0  0  0  0  0  0  0  0  0  0
   26.1745  -26.6936  -15.7013 C   0  0  0  0  0  0  0  0  0  0  0  0
   21.4104  -25.9910  -14.5397 O   0  0  0  0  0  0  0  0  0  0  0  0
   21.2856  -24.9389  -13.8618 O   0  0  0  0  0  0  0  0  0  0  0  0
   26.7007  -24.5490  -15.2063 N   0  0  0  0  0  0  0  0  0  0  0  0
   20.9833  -27.2070  -13.9521 C   0  0  1  0  0  0  0  0  0  0  0  0
   20.4446  -27.1661  -12.5704 C   0  0  0  0  0  0  0  0  0  0  0  0
   19.1277  -26.4161  -12.5914 C   0  0  0  0  0  0  0  0  0  0  0  0
   18.4965  -26.4702  -11.2759 O   0  0  0  0  0  0  0  0  0  0  0  0
   19.1315  -26.8048  -10.2608 C   0  0  0  0  0  0  0  0  0  0  0  0
   20.2241  -28.5903  -12.2264 O   0  0  0  0  0  0  0  0  0  0  0  0
   19.7463  -28.8871  -11.1025 O   0  0  0  0  0  0  0  0  0  0  0  0
   17.1544  -26.1424  -11.1412 O   0  0  0  0  0  0  0  0  0  0  0  0
  1  2  1  0
  2  3  2  0
  4  2  1  0
  5  4  1  0
  6  5  1  0
  7  6  1  0
  8  7  1  0
  8  9  1  6
 10  8  1  0
 10 12  1  0
 11 10  2  0
 13 12  1  0
 13 14  1  6
 15 14  1  0
 15 16  1  0
 16 17  2  0
 18 13  1  0
 19 18  2  0
 20 16  1  0
 21 18  1  0
 22 26  1  0
 22 21  1  0
 23 24  1  0
 22 23  1  1
 24 25  2  0
 26 29  1  0
 27 26  2  0
 28 24  1  0
M  END
$$$$
