RED.pdb
     RDKit          3D

 29 28  0  0  1  0  0  0  0  0999 V2000
   13.7799  -13.1980  -14.4473 N   0  0  0  0  0  0  0  0  0  0  0  0
   14.2201  -13.6442  -15.7160 C   0  0  0  0  0  0  0  0  0  0  0  0
   13.4711  -14.4091  -16.4031 N   0  0  0  0  0  0  0  0  0  0  0  0
   15.4898  -13.2246  -16.1907 N   0  0  0  0  0  0  0  0  0  0  0  0
   16.3213  -12.3869  -15.3499 C   0  0  0  0  0  0  0  0  0  0  0  0
   17.5829  -11.9695  -16.0268 C   0  0  0  0  0  0  0  0  0  0  0  0
   18.4743  -11.1005  -15.2274 C   0  0  0  0  0  0  0  0  0  0  0  0
   19.7806  -10.7149  -15.8254 C   0  0  2  0  0  0  0  0  0  0  0  0
   20.7188  -11.7855  -16.0138 N   0  0  0  0  0  0  0  0  0  0  0  0
   20.4061   -9.7289  -14.8733 C   0  0  0  0  0  0  0  0  0  0  0  0
   20.9358  -10.1636  -13.8112 O   0  0  0  0  0  0  0  0  0  0  0  0
   13.6950  -14.8028  -17.3285 N   0  0  0  0  0  0  0  0  0  0  0  0
   20.3923   -8.3502  -15.1773 C   0  0  2  0  0  0  0  0  0  0  0  0
   20.9828   -7.4173  -14.2557 C   0  0  0  0  0  0  0  0  0  0  0  0
   21.7147   -6.3742  -15.0804 C   0  0  0  0  0  0  0  0  0  0  0  0
   23.0097   -6.9600  -15.6315 C   0  0  0  0  0  0  0  0  0  0  0  0
   23.8357   -5.9002  -16.2641 O   0  0  0  0  0  0  0  0  0  0  0  0
   24.0899   -5.8574  -17.4919 C   0  0  0  0  0  0  0  0  0  0  0  0
   19.8570   -6.7686  -13.4913 O   0  0  0  0  0  0  0  0  0  0  0  0
   18.7442   -6.5440  -14.0328 O   0  0  0  0  0  0  0  0  0  0  0  0
   24.3659   -4.8898  -15.4650 N   0  0  0  0  0  0  0  0  0  0  0  0
   20.0174   -6.3908  -12.1356 C   0  0  2  0  0  0  0  0  0  0  0  0
   18.8642   -5.7676  -11.4409 C   0  0  0  0  0  0  0  0  0  0  0  0
   19.0637   -5.9233   -9.9465 C   0  0  0  0  0  0  0  0  0  0  0  0
   18.0101   -5.2183   -9.2220 O   0  0  0  0  0  0  0  0  0  0  0  0
   17.7192   -4.0373   -9.4791 C   0  0  0  0  0  0  0  0  0  0  0  0
   18.9387   -4.3392  -11.8274 O   0  0  0  0  0  0  0  0  0  0  0  0
   20.0580   -3.8244  -12.0760 O   0  0  0  0  0  0  0  0  0  0  0  0
   17.3080   -5.8714   -8.2182 O   0  0  0  0  0  0  0  0  0  0  0  0
  1  2  1  0
  2  3  2  0
  4  2  1  0
  5  4  1  0
  6  5  1  0
  7  6  1  0
  8  7  1  0
  8  9  1  1
 10  8  1  0
 10 12  1  0
 11 10  2  0
 13 12  1  0
 13 14  1  1
 15 14  1  0
 15 16  1  0
 16 17  2  0
 18 13  1  0
 19 18  2  0
 20 16  1  0
 21 18  1  0
 22 26  1  0
 22 21  1  0
 23 24  1  0
 22 23  1  1
 24 25  2  0
 26 29  1  0
 27 26  2  0
 28 24  1  0
M  END
$$$$
