RED.pdb
     RDKit          3D

 29 28  0  0  1  0  0  0  0  0999 V2000
   20.3726  -18.3264  -18.0578 N   0  0  0  0  0  0  0  0  0  0  0  0
   19.2922  -17.5991  -17.5044 C   0  0  0  0  0  0  0  0  0  0  0  0
   18.4067  -18.2139  -16.8291 N   0  0  0  0  0  0  0  0  0  0  0  0
   19.2250  -16.1978  -17.7173 N   0  0  0  0  0  0  0  0  0  0  0  0
   20.4524  -15.4313  -17.7941 C   0  0  0  0  0  0  0  0  0  0  0  0
   20.2084  -13.9859  -18.0687 C   0  0  0  0  0  0  0  0  0  0  0  0
   21.4204  -13.1726  -18.3104 C   0  0  0  0  0  0  0  0  0  0  0  0
   21.9463  -12.3636  -17.1783 C   0  0  2  0  0  0  0  0  0  0  0  0
   21.6649  -12.8737  -15.8657 N   0  0  0  0  0  0  0  0  0  0  0  0
   21.2922  -11.0107  -17.2865 C   0  0  0  0  0  0  0  0  0  0  0  0
   21.4931  -10.3212  -18.3266 O   0  0  0  0  0  0  0  0  0  0  0  0
   17.5587  -17.7949  -16.4203 N   0  0  0  0  0  0  0  0  0  0  0  0
   20.4738  -10.5380  -16.2376 C   0  0  1  0  0  0  0  0  0  0  0  0
   19.8556   -9.2445  -16.3515 C   0  0  0  0  0  0  0  0  0  0  0  0
   18.5362   -9.3103  -15.6039 C   0  0  0  0  0  0  0  0  0  0  0  0
   17.7614   -8.0120  -15.7986 C   0  0  0  0  0  0  0  0  0  0  0  0
   16.4438   -8.0819  -15.1167 O   0  0  0  0  0  0  0  0  0  0  0  0
   15.5221   -8.8589  -15.4640 C   0  0  0  0  0  0  0  0  0  0  0  0
   20.7721   -8.2493  -15.6867 O   0  0  0  0  0  0  0  0  0  0  0  0
   21.6068   -8.6095  -14.8174 O   0  0  0  0  0  0  0  0  0  0  0  0
   16.2007   -7.2456  -14.0295 N   0  0  0  0  0  0  0  0  0  0  0  0
   20.7222   -6.8737  -16.0209 C   0  0  2  0  0  0  0  0  0  0  0  0
   21.7669   -5.9793  -15.4646 C   0  0  0  0  0  0  0  0  0  0  0  0
   21.8408   -4.7346  -16.3263 C   0  0  0  0  0  0  0  0  0  0  0  0
   22.8435   -3.8148  -15.7971 O   0  0  0  0  0  0  0  0  0  0  0  0
   22.7084   -2.5819  -15.8837 C   0  0  0  0  0  0  0  0  0  0  0  0
   21.2702   -5.6427  -14.1099 O   0  0  0  0  0  0  0  0  0  0  0  0
   20.0997   -5.9643  -13.7839 O   0  0  0  0  0  0  0  0  0  0  0  0
   23.9812   -4.3159  -15.1794 O   0  0  0  0  0  0  0  0  0  0  0  0
  1  2  1  0
  2  3  2  0
  4  2  1  0
  5  4  1  0
  6  5  1  0
  7  6  1  0
  8  7  1  0
  8  9  1  1
 10  8  1  0
 10 12  1  0
 11 10  2  0
 13 12  1  0
 13 14  1  6
 15 14  1  0
 15 16  1  0
 16 17  2  0
 18 13  1  0
 19 18  2  0
 20 16  1  0
 21 18  1  0
 22 26  1  0
 22 21  1  0
 23 24  1  0
 22 23  1  6
 24 25  2  0
 26 29  1  0
 27 26  2  0
 28 24  1  0
M  END
$$$$
