RED.pdb
     RDKit          3D

 29 28  0  0  1  0  0  0  0  0999 V2000
   27.3492  -19.7919  -13.5910 N   0  0  0  0  0  0  0  0  0  0  0  0
   28.1682  -20.3885  -12.6033 C   0  0  0  0  0  0  0  0  0  0  0  0
   29.3299  -19.9172  -12.3875 N   0  0  0  0  0  0  0  0  0  0  0  0
   27.6702  -21.5005  -11.8760 N   0  0  0  0  0  0  0  0  0  0  0  0
   26.2402  -21.6456  -11.6910 C   0  0  0  0  0  0  0  0  0  0  0  0
   25.7385  -20.9006  -10.5004 C   0  0  0  0  0  0  0  0  0  0  0  0
   24.4328  -20.2278  -10.6770 C   0  0  0  0  0  0  0  0  0  0  0  0
   23.4697  -20.8304  -11.6373 C   0  0  2  0  0  0  0  0  0  0  0  0
   23.9488  -21.9716  -12.3653 N   0  0  0  0  0  0  0  0  0  0  0  0
   23.1482  -19.7558  -12.6432 C   0  0  0  0  0  0  0  0  0  0  0  0
   22.7269  -18.6399  -12.2250 O   0  0  0  0  0  0  0  0  0  0  0  0
   30.0576  -20.3480  -11.7989 N   0  0  0  0  0  0  0  0  0  0  0  0
   23.3202  -20.0072  -14.0218 C   0  0  1  0  0  0  0  0  0  0  0  0
   22.9959  -18.9790  -14.9736 C   0  0  0  0  0  0  0  0  0  0  0  0
   24.0939  -18.9751  -16.0215 C   0  0  0  0  0  0  0  0  0  0  0  0
   23.8669  -17.8371  -17.0101 C   0  0  0  0  0  0  0  0  0  0  0  0
   24.9999  -17.7405  -17.9656 O   0  0  0  0  0  0  0  0  0  0  0  0
   24.9384  -18.1272  -19.1576 C   0  0  0  0  0  0  0  0  0  0  0  0
   21.6818  -19.3549  -15.6096 O   0  0  0  0  0  0  0  0  0  0  0  0
   21.3334  -20.5578  -15.7264 O   0  0  0  0  0  0  0  0  0  0  0  0
   26.2050  -17.1931  -17.5314 N   0  0  0  0  0  0  0  0  0  0  0  0
   20.7960  -18.3628  -16.0968 C   0  0  1  0  0  0  0  0  0  0  0  0
   19.4694  -18.7948  -16.6010 C   0  0  0  0  0  0  0  0  0  0  0  0
   18.4631  -17.7021  -16.3000 C   0  0  0  0  0  0  0  0  0  0  0  0
   17.3102  -18.2589  -15.5980 O   0  0  0  0  0  0  0  0  0  0  0  0
   17.2175  -19.4752  -15.3578 C   0  0  0  0  0  0  0  0  0  0  0  0
   19.6653  -18.9301  -18.0634 O   0  0  0  0  0  0  0  0  0  0  0  0
   20.4692  -18.1641  -18.6520 O   0  0  0  0  0  0  0  0  0  0  0  0
   16.2847  -17.4204  -15.1831 O   0  0  0  0  0  0  0  0  0  0  0  0
  1  2  1  0
  2  3  2  0
  4  2  1  0
  5  4  1  0
  6  5  1  0
  7  6  1  0
  8  7  1  0
  8  9  1  6
 10  8  1  0
 10 12  1  0
 11 10  2  0
 13 12  1  0
 13 14  1  1
 15 14  1  0
 15 16  1  0
 16 17  2  0
 18 13  1  0
 19 18  2  0
 20 16  1  0
 21 18  1  0
 22 26  1  0
 22 21  1  0
 23 24  1  0
 22 23  1  6
 24 25  2  0
 26 29  1  0
 27 26  2  0
 28 24  1  0
M  END
$$$$
