RED.pdb
     RDKit          3D

 29 28  0  0  1  0  0  0  0  0999 V2000
   31.0928  -21.6797   -9.2235 N   0  0  0  0  0  0  0  0  0  0  0  0
   31.5929  -22.2702  -10.4083 C   0  0  0  0  0  0  0  0  0  0  0  0
   32.8037  -22.6580  -10.4495 N   0  0  0  0  0  0  0  0  0  0  0  0
   30.7272  -22.4157  -11.5232 N   0  0  0  0  0  0  0  0  0  0  0  0
   30.6043  -21.3288  -12.4738 C   0  0  0  0  0  0  0  0  0  0  0  0
   29.5849  -20.3210  -12.0623 C   0  0  0  0  0  0  0  0  0  0  0  0
   28.1773  -20.7657  -12.1609 C   0  0  0  0  0  0  0  0  0  0  0  0
   27.4332  -20.4314  -13.4049 C   0  0  2  0  0  0  0  0  0  0  0  0
   27.3417  -19.0331  -13.7183 N   0  0  0  0  0  0  0  0  0  0  0  0
   26.0297  -20.9425  -13.2075 C   0  0  0  0  0  0  0  0  0  0  0  0
   25.8543  -22.1821  -13.0338 O   0  0  0  0  0  0  0  0  0  0  0  0
   33.2696  -23.1018  -11.2544 N   0  0  0  0  0  0  0  0  0  0  0  0
   24.9435  -20.0406  -13.2189 C   0  0  1  0  0  0  0  0  0  0  0  0
   23.6088  -20.5391  -13.0228 C   0  0  0  0  0  0  0  0  0  0  0  0
   23.0295  -19.8109  -11.8236 C   0  0  0  0  0  0  0  0  0  0  0  0
   22.1601  -20.7604  -11.0072 C   0  0  0  0  0  0  0  0  0  0  0  0
   21.5754  -20.0582   -9.8364 O   0  0  0  0  0  0  0  0  0  0  0  0
   21.7352  -18.8348   -9.6090 C   0  0  0  0  0  0  0  0  0  0  0  0
   22.8171  -20.1997  -14.2599 O   0  0  0  0  0  0  0  0  0  0  0  0
   22.8348  -19.0411  -14.7491 O   0  0  0  0  0  0  0  0  0  0  0  0
   20.8042  -20.7825   -8.9302 N   0  0  0  0  0  0  0  0  0  0  0  0
   22.0264  -21.1773  -14.9120 C   0  0  2  0  0  0  0  0  0  0  0  0
   21.2322  -20.7615  -16.0940 C   0  0  0  0  0  0  0  0  0  0  0  0
   21.0065  -21.9765  -16.9715 C   0  0  0  0  0  0  0  0  0  0  0  0
   20.1492  -21.6294  -18.1012 O   0  0  0  0  0  0  0  0  0  0  0  0
   19.7294  -20.4715  -18.2701 C   0  0  0  0  0  0  0  0  0  0  0  0
   19.9496  -20.2915  -15.5202 O   0  0  0  0  0  0  0  0  0  0  0  0
   19.3441  -19.3338  -16.0641 O   0  0  0  0  0  0  0  0  0  0  0  0
   19.7861  -22.6072  -19.0172 O   0  0  0  0  0  0  0  0  0  0  0  0
  1  2  1  0
  2  3  2  0
  4  2  1  0
  5  4  1  0
  6  5  1  0
  7  6  1  0
  8  7  1  0
  8  9  1  1
 10  8  1  0
 10 12  1  0
 11 10  2  0
 13 12  1  0
 13 14  1  1
 15 14  1  0
 15 16  1  0
 16 17  2  0
 18 13  1  0
 19 18  2  0
 20 16  1  0
 21 18  1  0
 22 26  1  0
 22 21  1  0
 23 24  1  0
 22 23  1  1
 24 25  2  0
 26 29  1  0
 27 26  2  0
 28 24  1  0
M  END
$$$$
