RED.pdb
     RDKit          3D

 29 28  0  0  1  0  0  0  0  0999 V2000
   16.1956   -1.6477  -19.1365 N   0  0  0  0  0  0  0  0  0  0  0  0
   16.0497   -0.4791  -19.9210 C   0  0  0  0  0  0  0  0  0  0  0  0
   14.8995    0.0503  -20.0445 N   0  0  0  0  0  0  0  0  0  0  0  0
   17.1944    0.0744  -20.5510 N   0  0  0  0  0  0  0  0  0  0  0  0
   18.5094   -0.4210  -20.1969 C   0  0  0  0  0  0  0  0  0  0  0  0
   19.1050   -1.2769  -21.2630 C   0  0  0  0  0  0  0  0  0  0  0  0
   19.3678   -2.6806  -20.8767 C   0  0  0  0  0  0  0  0  0  0  0  0
   19.8395   -2.9383  -19.4897 C   0  0  2  0  0  0  0  0  0  0  0  0
   21.0865   -2.3225  -19.1321 N   0  0  0  0  0  0  0  0  0  0  0  0
   20.0237   -4.4294  -19.3766 C   0  0  0  0  0  0  0  0  0  0  0  0
   19.0401   -5.1828  -19.6265 O   0  0  0  0  0  0  0  0  0  0  0  0
   14.6851    0.9181  -20.5569 N   0  0  0  0  0  0  0  0  0  0  0  0
   21.2771   -4.9576  -18.9979 C   0  0  1  0  0  0  0  0  0  0  0  0
   21.4425   -6.3827  -18.8979 C   0  0  0  0  0  0  0  0  0  0  0  0
   22.9221   -6.6757  -19.0675 C   0  0  0  0  0  0  0  0  0  0  0  0
   23.2813   -6.7048  -20.5487 C   0  0  0  0  0  0  0  0  0  0  0  0
   24.7125   -7.0566  -20.7330 O   0  0  0  0  0  0  0  0  0  0  0  0
   25.1431   -7.7321  -21.6985 C   0  0  0  0  0  0  0  0  0  0  0  0
   20.9942   -6.7904  -17.5175 O   0  0  0  0  0  0  0  0  0  0  0  0
   21.2003   -6.0530  -16.5197 O   0  0  0  0  0  0  0  0  0  0  0  0
   25.6419   -6.6208  -19.7914 N   0  0  0  0  0  0  0  0  0  0  0  0
   20.3251   -8.0198  -17.3004 C   0  0  2  0  0  0  0  0  0  0  0  0
   19.9835   -8.3947  -15.9063 C   0  0  0  0  0  0  0  0  0  0  0  0
   18.9118   -9.4657  -15.9468 C   0  0  0  0  0  0  0  0  0  0  0  0
   18.5688   -9.8861  -14.5913 O   0  0  0  0  0  0  0  0  0  0  0  0
   18.7240   -9.1319  -13.6152 C   0  0  0  0  0  0  0  0  0  0  0  0
   21.2461   -8.9457  -15.3607 O   0  0  0  0  0  0  0  0  0  0  0  0
   22.1042   -9.4188  -16.1477 O   0  0  0  0  0  0  0  0  0  0  0  0
   18.0557  -11.1573  -14.3728 O   0  0  0  0  0  0  0  0  0  0  0  0
  1  2  1  0
  2  3  2  0
  4  2  1  0
  5  4  1  0
  6  5  1  0
  7  6  1  0
  8  7  1  0
  8  9  1  6
 10  8  1  0
 10 12  1  0
 11 10  2  0
 13 12  1  0
 13 14  1  6
 15 14  1  0
 15 16  1  0
 16 17  2  0
 18 13  1  0
 19 18  2  0
 20 16  1  0
 21 18  1  0
 22 26  1  0
 22 21  1  0
 23 24  1  0
 22 23  1  6
 24 25  2  0
 26 29  1  0
 27 26  2  0
 28 24  1  0
M  END
$$$$
