RED.pdb
     RDKit          3D

 29 28  0  0  1  0  0  0  0  0999 V2000
   28.7934  -16.6714  -18.0255 N   0  0  0  0  0  0  0  0  0  0  0  0
   29.4876  -17.8519  -18.3819 C   0  0  0  0  0  0  0  0  0  0  0  0
   30.4405  -17.7861  -19.2222 N   0  0  0  0  0  0  0  0  0  0  0  0
   29.1019  -19.0824  -17.7900 N   0  0  0  0  0  0  0  0  0  0  0  0
   28.0628  -19.0901  -16.7799 C   0  0  0  0  0  0  0  0  0  0  0  0
   26.7163  -19.3908  -17.3462 C   0  0  0  0  0  0  0  0  0  0  0  0
   25.6072  -19.4137  -16.3674 C   0  0  0  0  0  0  0  0  0  0  0  0
   25.5618  -20.5443  -15.4016 C   0  0  2  0  0  0  0  0  0  0  0  0
   26.0114  -21.8115  -15.9057 N   0  0  0  0  0  0  0  0  0  0  0  0
   24.1169  -20.7032  -15.0052 C   0  0  0  0  0  0  0  0  0  0  0  0
   23.4684  -21.6888  -15.4585 O   0  0  0  0  0  0  0  0  0  0  0  0
   31.0047  -18.5793  -19.5600 N   0  0  0  0  0  0  0  0  0  0  0  0
   23.5152  -19.7606  -14.1433 C   0  0  2  0  0  0  0  0  0  0  0  0
   22.1635  -19.9706  -13.6995 C   0  0  0  0  0  0  0  0  0  0  0  0
   22.1331  -19.6942  -12.2073 C   0  0  0  0  0  0  0  0  0  0  0  0
   20.7578  -20.0313  -11.6427 C   0  0  0  0  0  0  0  0  0  0  0  0
   20.7154  -19.7745  -10.1804 O   0  0  0  0  0  0  0  0  0  0  0  0
   21.6932  -19.3454   -9.5217 C   0  0  0  0  0  0  0  0  0  0  0  0
   21.2940  -18.9742  -14.4230 O   0  0  0  0  0  0  0  0  0  0  0  0
   21.2594  -17.7653  -14.0773 O   0  0  0  0  0  0  0  0  0  0  0  0
   19.5328  -20.0180   -9.4858 N   0  0  0  0  0  0  0  0  0  0  0  0
   20.4866  -19.3688  -15.5179 C   0  0  2  0  0  0  0  0  0  0  0  0
   19.6813  -18.3295  -16.2050 C   0  0  0  0  0  0  0  0  0  0  0  0
   19.2766  -18.8588  -17.5663 C   0  0  0  0  0  0  0  0  0  0  0  0
   18.4227  -17.8911  -18.2492 O   0  0  0  0  0  0  0  0  0  0  0  0
   17.1848  -17.9199  -18.1373 C   0  0  0  0  0  0  0  0  0  0  0  0
   18.4908  -18.1637  -15.3387 O   0  0  0  0  0  0  0  0  0  0  0  0
   18.0986  -19.1297  -14.6369 O   0  0  0  0  0  0  0  0  0  0  0  0
   18.9944  -16.9091  -19.0466 O   0  0  0  0  0  0  0  0  0  0  0  0
  1  2  1  0
  2  3  2  0
  4  2  1  0
  5  4  1  0
  6  5  1  0
  7  6  1  0
  8  7  1  0
  8  9  1  6
 10  8  1  0
 10 12  1  0
 11 10  2  0
 13 12  1  0
 13 14  1  1
 15 14  1  0
 15 16  1  0
 16 17  2  0
 18 13  1  0
 19 18  2  0
 20 16  1  0
 21 18  1  0
 22 26  1  0
 22 21  1  0
 23 24  1  0
 22 23  1  6
 24 25  2  0
 26 29  1  0
 27 26  2  0
 28 24  1  0
M  END
$$$$
