DSD.pdb
     RDKit          3D

 23 22  0  0  1  0  0  0  0  0999 V2000
   12.3532   -9.5181   -9.8490 N   0  0  0  0  0  0  0  0  0  0  0  0
   13.7661   -9.7021   -9.8822 C   0  0  1  0  0  0  0  0  0  0  0  0
   14.0484  -10.8734  -10.8252 C   0  0  0  0  0  0  0  0  0  0  0  0
   13.4053  -12.0819  -10.2270 C   0  0  0  0  0  0  0  0  0  0  0  0
   12.8726  -12.0636   -9.0962 O   0  0  0  0  0  0  0  0  0  0  0  0
   14.5343   -8.4991  -10.2585 C   0  0  0  0  0  0  0  0  0  0  0  0
   14.2157   -7.9377  -11.3383 O   0  0  0  0  0  0  0  0  0  0  0  0
   13.3706  -13.2962  -10.9109 O   0  0  0  0  0  0  0  0  0  0  0  0
   17.3578   -4.8029   -9.2786 O   0  0  0  0  0  0  0  0  0  0  0  0
   16.7591   -5.9748   -8.8275 C   0  0  0  0  0  0  0  0  0  0  0  0
   16.3040   -6.8121  -10.0317 C   0  0  2  0  0  0  0  0  0  0  0  0
   15.5893   -7.9415   -9.4992 N   0  0  0  0  0  0  0  0  0  0  0  0
   17.5526   -7.2134  -10.7344 C   0  0  0  0  0  0  0  0  0  0  0  0
   18.3457   -7.9957  -10.1506 O   0  0  0  0  0  0  0  0  0  0  0  0
   17.9117   -6.7705  -12.0263 N   0  0  0  0  0  0  0  0  0  0  0  0
   19.1264   -7.1576  -12.6714 C   0  0  1  0  0  0  0  0  0  0  0  0
   18.9489   -8.0897  -13.8257 C   0  0  0  0  0  0  0  0  0  0  0  0
   20.2072   -8.5127  -14.4469 C   0  0  0  0  0  0  0  0  0  0  0  0
   20.4687   -8.2413  -15.6428 O   0  0  0  0  0  0  0  0  0  0  0  0
   19.9250   -5.9969  -13.1416 C   0  0  0  0  0  0  0  0  0  0  0  0
   19.3135   -4.9385  -13.4194 O   0  0  0  0  0  0  0  0  0  0  0  0
   21.1287   -9.2253  -13.7054 O   0  0  0  0  0  0  0  0  0  0  0  0
   21.3009   -6.0496  -13.2793 O   0  0  0  0  0  0  0  0  0  0  0  0
  2  3  1  0
  2  1  1  6
  4  3  1  0
  4  8  1  0
  5  4  2  0
  6  2  1  0
  7  6  2  0
  9 10  1  0
 11 10  1  1
 11 12  1  0
 12  6  1  0
 13 11  1  0
 13 15  1  0
 14 13  2  0
 16 15  1  0
 16 17  1  6
 16 20  1  0
 18 22  1  0
 18 17  1  0
 19 18  2  0
 20 21  2  0
 20 23  1  0
M  END
$$$$
