DSD.pdb
     RDKit          3D

 23 22  0  0  1  0  0  0  0  0999 V2000
   17.7851  -11.7125  -15.0582 N   0  0  0  0  0  0  0  0  0  0  0  0
   18.0604  -10.5267  -15.7991 C   0  0  1  0  0  0  0  0  0  0  0  0
   16.7318  -10.0349  -16.3770 C   0  0  0  0  0  0  0  0  0  0  0  0
   16.2518  -11.0845  -17.3257 C   0  0  0  0  0  0  0  0  0  0  0  0
   15.1583  -11.6711  -17.1743 O   0  0  0  0  0  0  0  0  0  0  0  0
   18.7492   -9.4690  -15.0336 C   0  0  0  0  0  0  0  0  0  0  0  0
   18.2251   -9.1263  -13.9425 O   0  0  0  0  0  0  0  0  0  0  0  0
   17.0104  -11.4599  -18.4334 O   0  0  0  0  0  0  0  0  0  0  0  0
   22.1725   -8.9461  -13.4545 O   0  0  0  0  0  0  0  0  0  0  0  0
   21.9654   -8.0158  -14.4678 C   0  0  0  0  0  0  0  0  0  0  0  0
   20.4598   -7.7561  -14.6229 C   0  0  2  0  0  0  0  0  0  0  0  0
   19.9412   -8.8232  -15.4366 N   0  0  0  0  0  0  0  0  0  0  0  0
   20.3493   -6.4311  -15.2908 C   0  0  0  0  0  0  0  0  0  0  0  0
   20.4929   -6.3736  -16.5389 O   0  0  0  0  0  0  0  0  0  0  0  0
   20.0915   -5.2204  -14.6110 N   0  0  0  0  0  0  0  0  0  0  0  0
   19.9564   -3.9658  -15.2811 C   0  0  1  0  0  0  0  0  0  0  0  0
   19.2246   -2.9203  -14.5040 C   0  0  0  0  0  0  0  0  0  0  0  0
   19.0607   -1.6527  -15.2211 C   0  0  0  0  0  0  0  0  0  0  0  0
   19.7804   -0.6588  -14.9634 O   0  0  0  0  0  0  0  0  0  0  0  0
   21.2607   -3.3925  -15.7004 C   0  0  0  0  0  0  0  0  0  0  0  0
   21.2615   -2.5630  -16.6402 O   0  0  0  0  0  0  0  0  0  0  0  0
   18.0954   -1.5435  -16.2025 O   0  0  0  0  0  0  0  0  0  0  0  0
   22.4544   -3.7417  -15.0938 O   0  0  0  0  0  0  0  0  0  0  0  0
  2  3  1  0
  2  1  1  1
  4  3  1  0
  4  8  1  0
  5  4  2  0
  6  2  1  0
  7  6  2  0
  9 10  1  0
 11 10  1  6
 11 12  1  0
 12  6  1  0
 13 11  1  0
 13 15  1  0
 14 13  2  0
 16 15  1  0
 16 17  1  1
 16 20  1  0
 18 22  1  0
 18 17  1  0
 19 18  2  0
 20 21  2  0
 20 23  1  0
M  END
$$$$
