DSD.pdb
     RDKit          3D

 23 22  0  0  1  0  0  0  0  0999 V2000
   14.9959  -13.2815  -11.3597 N   0  0  0  0  0  0  0  0  0  0  0  0
   14.6451  -12.7325  -12.6272 C   0  0  1  0  0  0  0  0  0  0  0  0
   13.2864  -13.3194  -13.0148 C   0  0  0  0  0  0  0  0  0  0  0  0
   13.4477  -14.8039  -13.0605 C   0  0  0  0  0  0  0  0  0  0  0  0
   13.0630  -15.5460  -12.1309 O   0  0  0  0  0  0  0  0  0  0  0  0
   14.6386  -11.2572  -12.6779 C   0  0  0  0  0  0  0  0  0  0  0  0
   14.1284  -10.7273  -13.6985 O   0  0  0  0  0  0  0  0  0  0  0  0
   14.0407  -15.4337  -14.1538 O   0  0  0  0  0  0  0  0  0  0  0  0
   16.1428   -9.2439   -9.7294 O   0  0  0  0  0  0  0  0  0  0  0  0
   15.2910   -8.3860  -10.4176 C   0  0  0  0  0  0  0  0  0  0  0  0
   14.9561   -8.9904  -11.7890 C   0  0  2  0  0  0  0  0  0  0  0  0
   15.1593  -10.4099  -11.6722 N   0  0  0  0  0  0  0  0  0  0  0  0
   15.9052   -8.3604  -12.7461 C   0  0  0  0  0  0  0  0  0  0  0  0
   17.0867   -8.7893  -12.7909 O   0  0  0  0  0  0  0  0  0  0  0  0
   15.5660   -7.3018  -13.6171 N   0  0  0  0  0  0  0  0  0  0  0  0
   16.5011   -6.7061  -14.5182 C   0  0  1  0  0  0  0  0  0  0  0  0
   15.8836   -6.0222  -15.6945 C   0  0  0  0  0  0  0  0  0  0  0  0
   16.8570   -5.4259  -16.6137 C   0  0  0  0  0  0  0  0  0  0  0  0
   17.9131   -6.0256  -16.9257 O   0  0  0  0  0  0  0  0  0  0  0  0
   17.4073   -5.7366  -13.8513 C   0  0  0  0  0  0  0  0  0  0  0  0
   16.9927   -5.1625  -12.8170 O   0  0  0  0  0  0  0  0  0  0  0  0
   16.6123   -4.1779  -17.1514 O   0  0  0  0  0  0  0  0  0  0  0  0
   18.6742   -5.4538  -14.3308 O   0  0  0  0  0  0  0  0  0  0  0  0
  2  3  1  0
  2  1  1  1
  4  3  1  0
  4  8  1  0
  5  4  2  0
  6  2  1  0
  7  6  2  0
  9 10  1  0
 11 10  1  1
 11 12  1  0
 12  6  1  0
 13 11  1  0
 13 15  1  0
 14 13  2  0
 16 15  1  0
 16 17  1  6
 16 20  1  0
 18 22  1  0
 18 17  1  0
 19 18  2  0
 20 21  2  0
 20 23  1  0
M  END
$$$$
