DSD.pdb
     RDKit          3D

 23 22  0  0  1  0  0  0  0  0999 V2000
   17.6605  -11.9561  -14.8498 N   0  0  0  0  0  0  0  0  0  0  0  0
   17.8695  -10.8490  -15.7226 C   0  0  1  0  0  0  0  0  0  0  0  0
   16.5154  -10.4992  -16.3429 C   0  0  0  0  0  0  0  0  0  0  0  0
   16.1399  -11.6321  -17.2416 C   0  0  0  0  0  0  0  0  0  0  0  0
   16.8558  -11.9868  -18.2031 O   0  0  0  0  0  0  0  0  0  0  0  0
   18.4999   -9.6752  -15.0870 C   0  0  0  0  0  0  0  0  0  0  0  0
   17.9293   -9.2075  -14.0680 O   0  0  0  0  0  0  0  0  0  0  0  0
   14.9618  -12.3513  -17.0452 O   0  0  0  0  0  0  0  0  0  0  0  0
   21.5911   -8.7706  -13.2175 O   0  0  0  0  0  0  0  0  0  0  0  0
   21.5834   -8.1100  -14.4417 C   0  0  0  0  0  0  0  0  0  0  0  0
   20.1323   -7.8534  -14.8744 C   0  0  2  0  0  0  0  0  0  0  0  0
   19.6849   -9.0487  -15.5384 N   0  0  0  0  0  0  0  0  0  0  0  0
   20.1899   -6.6843  -15.7929 C   0  0  0  0  0  0  0  0  0  0  0  0
   20.7388   -6.8285  -16.9153 O   0  0  0  0  0  0  0  0  0  0  0  0
   19.6644   -5.4098  -15.4867 N   0  0  0  0  0  0  0  0  0  0  0  0
   19.6333   -4.3349  -16.4276 C   0  0  1  0  0  0  0  0  0  0  0  0
   18.7409   -3.1988  -16.0460 C   0  0  0  0  0  0  0  0  0  0  0  0
   17.3717   -3.6038  -15.7154 C   0  0  0  0  0  0  0  0  0  0  0  0
   16.7010   -2.9930  -14.8497 O   0  0  0  0  0  0  0  0  0  0  0  0
   20.9809   -3.7797  -16.7136 C   0  0  0  0  0  0  0  0  0  0  0  0
   21.0849   -2.9412  -17.6397 O   0  0  0  0  0  0  0  0  0  0  0  0
   16.8019   -4.6796  -16.3672 O   0  0  0  0  0  0  0  0  0  0  0  0
   22.1051   -4.1549  -15.9996 O   0  0  0  0  0  0  0  0  0  0  0  0
  2  3  1  0
  2  1  1  1
  4  3  1  0
  4  8  1  0
  5  4  2  0
  6  2  1  0
  7  6  2  0
  9 10  1  0
 11 10  1  6
 11 12  1  0
 12  6  1  0
 13 11  1  0
 13 15  1  0
 14 13  2  0
 16 15  1  0
 16 17  1  1
 16 20  1  0
 18 22  1  0
 18 17  1  0
 19 18  2  0
 20 21  2  0
 20 23  1  0
M  END
$$$$
