DSD.pdb
     RDKit          3D

 23 22  0  0  1  0  0  0  0  0999 V2000
   19.8546  -11.7854  -15.9537 N   0  0  0  0  0  0  0  0  0  0  0  0
   19.0069  -10.6494  -16.1020 C   0  0  1  0  0  0  0  0  0  0  0  0
   17.5638  -11.1412  -15.9735 C   0  0  0  0  0  0  0  0  0  0  0  0
   17.2942  -12.0197  -17.1514 C   0  0  0  0  0  0  0  0  0  0  0  0
   16.8904  -11.5658  -18.2440 O   0  0  0  0  0  0  0  0  0  0  0  0
   19.2930   -9.5424  -15.1684 C   0  0  0  0  0  0  0  0  0  0  0  0
   18.9903   -9.7263  -13.9612 O   0  0  0  0  0  0  0  0  0  0  0  0
   17.4832  -13.3993  -17.0833 O   0  0  0  0  0  0  0  0  0  0  0  0
   22.1015   -7.0699  -12.9817 O   0  0  0  0  0  0  0  0  0  0  0  0
   21.5291   -8.0030  -13.8402 C   0  0  0  0  0  0  0  0  0  0  0  0
   20.2776   -7.3971  -14.4920 C   0  0  2  0  0  0  0  0  0  0  0  0
   19.8760   -8.3062  -15.5322 N   0  0  0  0  0  0  0  0  0  0  0  0
   20.7058   -6.0772  -15.0290 C   0  0  0  0  0  0  0  0  0  0  0  0
   21.5941   -6.0501  -15.9189 O   0  0  0  0  0  0  0  0  0  0  0  0
   20.1769   -4.8392  -14.6025 N   0  0  0  0  0  0  0  0  0  0  0  0
   20.6202   -3.5839  -15.1215 C   0  0  1  0  0  0  0  0  0  0  0  0
   19.7244   -2.4296  -14.8092 C   0  0  0  0  0  0  0  0  0  0  0  0
   18.3217   -2.6507  -15.1719 C   0  0  0  0  0  0  0  0  0  0  0  0
   17.4085   -2.5921  -14.3146 O   0  0  0  0  0  0  0  0  0  0  0  0
   21.9925   -3.2288  -14.6781 C   0  0  0  0  0  0  0  0  0  0  0  0
   22.5207   -3.9327  -13.7853 O   0  0  0  0  0  0  0  0  0  0  0  0
   17.9917   -2.9298  -16.4833 O   0  0  0  0  0  0  0  0  0  0  0  0
   22.6926   -2.1618  -15.2130 O   0  0  0  0  0  0  0  0  0  0  0  0
  2  3  1  0
  2  1  1  1
  4  3  1  0
  4  8  1  0
  5  4  2  0
  6  2  1  0
  7  6  2  0
  9 10  1  0
 11 10  1  6
 11 12  1  0
 12  6  1  0
 13 11  1  0
 13 15  1  0
 14 13  2  0
 16 15  1  0
 16 17  1  1
 16 20  1  0
 18 22  1  0
 18 17  1  0
 19 18  2  0
 20 21  2  0
 20 23  1  0
M  END
$$$$
