DSD.pdb
     RDKit          3D

 23 22  0  0  1  0  0  0  0  0999 V2000
   19.5774  -12.2054  -16.0671 N   0  0  0  0  0  0  0  0  0  0  0  0
   18.5500  -11.8212  -15.1572 C   0  0  1  0  0  0  0  0  0  0  0  0
   18.3145  -13.0030  -14.2145 C   0  0  0  0  0  0  0  0  0  0  0  0
   17.4204  -13.9624  -14.9303 C   0  0  0  0  0  0  0  0  0  0  0  0
   16.3838  -13.5931  -15.5235 O   0  0  0  0  0  0  0  0  0  0  0  0
   18.8207  -10.5744  -14.4147 C   0  0  0  0  0  0  0  0  0  0  0  0
   18.2959  -10.4672  -13.2763 O   0  0  0  0  0  0  0  0  0  0  0  0
   17.7060  -15.3264  -14.9685 O   0  0  0  0  0  0  0  0  0  0  0  0
   21.3821   -6.5597  -13.7725 O   0  0  0  0  0  0  0  0  0  0  0  0
   21.0720   -7.6390  -14.5936 C   0  0  0  0  0  0  0  0  0  0  0  0
   19.8562   -8.3829  -14.0218 C   0  0  2  0  0  0  0  0  0  0  0  0
   19.6184   -9.5067  -14.8881 N   0  0  0  0  0  0  0  0  0  0  0  0
   18.7380   -7.4016  -14.0491 C   0  0  0  0  0  0  0  0  0  0  0  0
   18.1587   -7.1812  -15.1434 O   0  0  0  0  0  0  0  0  0  0  0  0
   18.2782   -6.6931  -12.9174 N   0  0  0  0  0  0  0  0  0  0  0  0
   17.2133   -5.7423  -12.9750 C   0  0  1  0  0  0  0  0  0  0  0  0
   16.5756   -5.4408  -11.6578 C   0  0  0  0  0  0  0  0  0  0  0  0
   15.4124   -4.5539  -11.7497 C   0  0  0  0  0  0  0  0  0  0  0  0
   14.8712   -4.2988  -12.8517 O   0  0  0  0  0  0  0  0  0  0  0  0
   17.6235   -4.4533  -13.5883 C   0  0  0  0  0  0  0  0  0  0  0  0
   16.7208   -3.6558  -13.9356 O   0  0  0  0  0  0  0  0  0  0  0  0
   14.8964   -3.9839  -10.6028 O   0  0  0  0  0  0  0  0  0  0  0  0
   18.9505   -4.1134  -13.7838 O   0  0  0  0  0  0  0  0  0  0  0  0
  2  3  1  0
  2  1  1  6
  4  3  1  0
  4  8  1  0
  5  4  2  0
  6  2  1  0
  7  6  2  0
  9 10  1  0
 11 10  1  6
 11 12  1  0
 12  6  1  0
 13 11  1  0
 13 15  1  0
 14 13  2  0
 16 15  1  0
 16 17  1  1
 16 20  1  0
 18 22  1  0
 18 17  1  0
 19 18  2  0
 20 21  2  0
 20 23  1  0
M  END
$$$$
