DSD.pdb
     RDKit          3D

 23 22  0  0  1  0  0  0  0  0999 V2000
   16.4573   -9.4969  -12.4050 N   0  0  0  0  0  0  0  0  0  0  0  0
   17.2213   -9.2093  -13.5732 C   0  0  1  0  0  0  0  0  0  0  0  0
   16.3695   -8.2973  -14.4585 C   0  0  0  0  0  0  0  0  0  0  0  0
   15.1681   -9.0843  -14.8697 C   0  0  0  0  0  0  0  0  0  0  0  0
   15.2584  -10.2192  -15.3861 O   0  0  0  0  0  0  0  0  0  0  0  0
   18.5526   -8.6285  -13.3099 C   0  0  0  0  0  0  0  0  0  0  0  0
   18.6407   -7.8275  -12.3438 O   0  0  0  0  0  0  0  0  0  0  0  0
   13.8795   -8.5822  -14.6938 O   0  0  0  0  0  0  0  0  0  0  0  0
   21.7624   -9.4070  -15.6395 O   0  0  0  0  0  0  0  0  0  0  0  0
   22.0836   -8.9196  -14.3768 C   0  0  0  0  0  0  0  0  0  0  0  0
   20.8983   -8.1152  -13.8232 C   0  0  2  0  0  0  0  0  0  0  0  0
   19.7200   -8.9064  -14.0585 N   0  0  0  0  0  0  0  0  0  0  0  0
   20.8863   -6.8410  -14.5914 C   0  0  0  0  0  0  0  0  0  0  0  0
   20.2083   -6.7835  -15.6492 O   0  0  0  0  0  0  0  0  0  0  0  0
   21.5923   -5.6791  -14.2095 N   0  0  0  0  0  0  0  0  0  0  0  0
   21.6081   -4.4854  -14.9945 C   0  0  1  0  0  0  0  0  0  0  0  0
   20.6461   -3.4331  -14.5474 C   0  0  0  0  0  0  0  0  0  0  0  0
   20.6535   -2.2281  -15.3815 C   0  0  0  0  0  0  0  0  0  0  0  0
   21.3877   -2.1392  -16.3941 O   0  0  0  0  0  0  0  0  0  0  0  0
   22.9556   -3.8662  -15.0756 C   0  0  0  0  0  0  0  0  0  0  0  0
   23.1306   -2.9505  -15.9135 O   0  0  0  0  0  0  0  0  0  0  0  0
   19.8372   -1.1644  -15.0513 O   0  0  0  0  0  0  0  0  0  0  0  0
   24.0053   -4.2643  -14.2666 O   0  0  0  0  0  0  0  0  0  0  0  0
  2  3  1  0
  2  1  1  1
  4  3  1  0
  4  8  1  0
  5  4  2  0
  6  2  1  0
  7  6  2  0
  9 10  1  0
 11 10  1  6
 11 12  1  0
 12  6  1  0
 13 11  1  0
 13 15  1  0
 14 13  2  0
 16 15  1  0
 16 17  1  1
 16 20  1  0
 18 22  1  0
 18 17  1  0
 19 18  2  0
 20 21  2  0
 20 23  1  0
M  END
$$$$
