DSD.pdb
     RDKit          3D

 23 22  0  0  1  0  0  0  0  0999 V2000
   17.1387  -12.9826  -15.3834 N   0  0  0  0  0  0  0  0  0  0  0  0
   18.3609  -12.3689  -15.7843 C   0  0  1  0  0  0  0  0  0  0  0  0
   18.7747  -13.0080  -17.1114 C   0  0  0  0  0  0  0  0  0  0  0  0
   19.1508  -14.4236  -16.8170 C   0  0  0  0  0  0  0  0  0  0  0  0
   19.1871  -14.8761  -15.6522 O   0  0  0  0  0  0  0  0  0  0  0  0
   18.3078  -10.8967  -15.8789 C   0  0  0  0  0  0  0  0  0  0  0  0
   18.1198  -10.4086  -17.0231 O   0  0  0  0  0  0  0  0  0  0  0  0
   19.4813  -15.3119  -17.8394 O   0  0  0  0  0  0  0  0  0  0  0  0
   18.0199   -8.4837  -12.6711 O   0  0  0  0  0  0  0  0  0  0  0  0
   17.5535   -7.9920  -13.8860 C   0  0  0  0  0  0  0  0  0  0  0  0
   18.3808   -8.5932  -15.0317 C   0  0  2  0  0  0  0  0  0  0  0  0
   18.4518  -10.0092  -14.7871 N   0  0  0  0  0  0  0  0  0  0  0  0
   19.7140   -7.9377  -14.9488 C   0  0  0  0  0  0  0  0  0  0  0  0
   20.6504   -8.5509  -14.3753 O   0  0  0  0  0  0  0  0  0  0  0  0
   20.0025   -6.6598  -15.4760 N   0  0  0  0  0  0  0  0  0  0  0  0
   21.2919   -6.0519  -15.3801 C   0  0  1  0  0  0  0  0  0  0  0  0
   21.6619   -5.1893  -16.5426 C   0  0  0  0  0  0  0  0  0  0  0  0
   22.9926   -4.5848  -16.4344 C   0  0  0  0  0  0  0  0  0  0  0  0
   24.0336   -5.2617  -16.6089 O   0  0  0  0  0  0  0  0  0  0  0  0
   21.4593   -5.2465  -14.1434 C   0  0  0  0  0  0  0  0  0  0  0  0
   20.4852   -4.5599  -13.7547 O   0  0  0  0  0  0  0  0  0  0  0  0
   23.1100   -3.2420  -16.1344 O   0  0  0  0  0  0  0  0  0  0  0  0
   22.6392   -5.2326  -13.4207 O   0  0  0  0  0  0  0  0  0  0  0  0
  2  3  1  0
  2  1  1  6
  4  3  1  0
  4  8  1  0
  5  4  2  0
  6  2  1  0
  7  6  2  0
  9 10  1  0
 11 10  1  1
 11 12  1  0
 12  6  1  0
 13 11  1  0
 13 15  1  0
 14 13  2  0
 16 15  1  0
 16 17  1  6
 16 20  1  0
 18 22  1  0
 18 17  1  0
 19 18  2  0
 20 21  2  0
 20 23  1  0
M  END
$$$$
