DSD.pdb
     RDKit          3D

 23 22  0  0  1  0  0  0  0  0999 V2000
   29.1628  -34.0527   -6.2064 N   0  0  0  0  0  0  0  0  0  0  0  0
   29.6783  -34.6363   -5.0127 C   0  0  1  0  0  0  0  0  0  0  0  0
   31.1346  -34.1862   -4.8808 C   0  0  0  0  0  0  0  0  0  0  0  0
   31.9497  -35.4114   -4.6226 C   0  0  0  0  0  0  0  0  0  0  0  0
   31.4411  -36.5520   -4.5676 O   0  0  0  0  0  0  0  0  0  0  0  0
   28.9000  -34.3353   -3.7951 C   0  0  0  0  0  0  0  0  0  0  0  0
   28.8314  -33.1273   -3.4502 O   0  0  0  0  0  0  0  0  0  0  0  0
   33.3284  -35.3356   -4.4297 O   0  0  0  0  0  0  0  0  0  0  0  0
   25.2325  -35.0385   -1.0172 O   0  0  0  0  0  0  0  0  0  0  0  0
   26.0913  -35.5481   -1.9857 C   0  0  0  0  0  0  0  0  0  0  0  0
   27.4547  -34.8495   -1.8778 C   0  0  2  0  0  0  0  0  0  0  0  0
   28.2352  -35.2978   -3.0002 N   0  0  0  0  0  0  0  0  0  0  0  0
   28.0284  -35.2910   -0.5779 C   0  0  0  0  0  0  0  0  0  0  0  0
   28.6826  -36.3646   -0.5435 O   0  0  0  0  0  0  0  0  0  0  0  0
   27.8865  -34.5788    0.6332 N   0  0  0  0  0  0  0  0  0  0  0  0
   28.4714  -35.0114    1.8629 C   0  0  1  0  0  0  0  0  0  0  0  0
   28.7335  -33.9178    2.8467 C   0  0  0  0  0  0  0  0  0  0  0  0
   29.5020  -34.3449    4.0194 C   0  0  0  0  0  0  0  0  0  0  0  0
   29.7304  -33.5613    4.9713 O   0  0  0  0  0  0  0  0  0  0  0  0
   27.6686  -36.0571    2.5470 C   0  0  0  0  0  0  0  0  0  0  0  0
   28.1650  -36.6106    3.5562 O   0  0  0  0  0  0  0  0  0  0  0  0
   29.9876  -35.6359    4.0840 O   0  0  0  0  0  0  0  0  0  0  0  0
   26.4102  -36.4312    2.1098 O   0  0  0  0  0  0  0  0  0  0  0  0
  2  3  1  0
  2  1  1  6
  4  3  1  0
  4  8  1  0
  5  4  2  0
  6  2  1  0
  7  6  2  0
  9 10  1  0
 11 10  1  6
 11 12  1  0
 12  6  1  0
 13 11  1  0
 13 15  1  0
 14 13  2  0
 16 15  1  0
 16 17  1  1
 16 20  1  0
 18 22  1  0
 18 17  1  0
 19 18  2  0
 20 21  2  0
 20 23  1  0
M  END
$$$$
