DSD.pdb
     RDKit          3D

 23 22  0  0  1  0  0  0  0  0999 V2000
   18.0186  -11.9640  -16.9698 N   0  0  0  0  0  0  0  0  0  0  0  0
   19.3250  -11.4084  -17.0949 C   0  0  1  0  0  0  0  0  0  0  0  0
   19.4086  -10.7536  -18.4752 C   0  0  0  0  0  0  0  0  0  0  0  0
   19.2773  -11.8455  -19.4864 C   0  0  0  0  0  0  0  0  0  0  0  0
   20.0192  -12.8517  -19.4822 O   0  0  0  0  0  0  0  0  0  0  0  0
   19.6993  -10.4686  -16.0199 C   0  0  0  0  0  0  0  0  0  0  0  0
   18.7627  -10.0110  -15.3154 O   0  0  0  0  0  0  0  0  0  0  0  0
   18.3111  -11.7899  -20.4898 O   0  0  0  0  0  0  0  0  0  0  0  0
   23.5432   -9.3919  -15.2077 O   0  0  0  0  0  0  0  0  0  0  0  0
   22.6570   -9.3729  -14.1355 C   0  0  0  0  0  0  0  0  0  0  0  0
   21.2332   -9.1230  -14.6541 C   0  0  2  0  0  0  0  0  0  0  0  0
   21.0199  -10.0528  -15.7310 N   0  0  0  0  0  0  0  0  0  0  0  0
   21.2188   -7.7089  -15.1169 C   0  0  0  0  0  0  0  0  0  0  0  0
   21.6254   -7.4530  -16.2792 O   0  0  0  0  0  0  0  0  0  0  0  0
   20.7749   -6.6228  -14.3310 N   0  0  0  0  0  0  0  0  0  0  0  0
   20.8224   -5.2673  -14.7802 C   0  0  1  0  0  0  0  0  0  0  0  0
   19.6526   -4.4336  -14.3692 C   0  0  0  0  0  0  0  0  0  0  0  0
   19.7090   -3.0511  -14.8524 C   0  0  0  0  0  0  0  0  0  0  0  0
   19.5660   -2.7777  -16.0678 O   0  0  0  0  0  0  0  0  0  0  0  0
   22.0575   -4.5613  -14.3536 C   0  0  0  0  0  0  0  0  0  0  0  0
   22.5458   -3.7106  -15.1342 O   0  0  0  0  0  0  0  0  0  0  0  0
   19.9238   -2.0230  -13.9560 O   0  0  0  0  0  0  0  0  0  0  0  0
   22.6739   -4.8114  -13.1403 O   0  0  0  0  0  0  0  0  0  0  0  0
  2  3  1  0
  2  1  1  1
  4  3  1  0
  4  8  1  0
  5  4  2  0
  6  2  1  0
  7  6  2  0
  9 10  1  0
 11 10  1  6
 11 12  1  0
 12  6  1  0
 13 11  1  0
 13 15  1  0
 14 13  2  0
 16 15  1  0
 16 17  1  1
 16 20  1  0
 18 22  1  0
 18 17  1  0
 19 18  2  0
 20 21  2  0
 20 23  1  0
M  END
$$$$
