DSD.pdb
     RDKit          3D

 23 22  0  0  1  0  0  0  0  0999 V2000
   19.5968  -11.8837  -16.4781 N   0  0  0  0  0  0  0  0  0  0  0  0
   18.6821  -10.9380  -15.9303 C   0  0  1  0  0  0  0  0  0  0  0  0
   17.6310  -11.7262  -15.1461 C   0  0  0  0  0  0  0  0  0  0  0  0
   16.9041  -12.5847  -16.1292 C   0  0  0  0  0  0  0  0  0  0  0  0
   16.8667  -12.3167  -17.3497 O   0  0  0  0  0  0  0  0  0  0  0  0
   19.3063   -9.8860  -15.1040 C   0  0  0  0  0  0  0  0  0  0  0  0
   18.6872   -9.5390  -14.0653 O   0  0  0  0  0  0  0  0  0  0  0  0
   16.2285  -13.7350  -15.7244 O   0  0  0  0  0  0  0  0  0  0  0  0
   23.0539   -8.5147  -15.7218 O   0  0  0  0  0  0  0  0  0  0  0  0
   22.5445   -8.3985  -14.4325 C   0  0  0  0  0  0  0  0  0  0  0  0
   21.0190   -8.2339  -14.4991 C   0  0  2  0  0  0  0  0  0  0  0  0
   20.5356   -9.2501  -15.3953 N   0  0  0  0  0  0  0  0  0  0  0  0
   20.7876   -6.8608  -15.0236 C   0  0  0  0  0  0  0  0  0  0  0  0
   20.7431   -6.6932  -16.2693 O   0  0  0  0  0  0  0  0  0  0  0  0
   20.6128   -5.7207  -14.2089 N   0  0  0  0  0  0  0  0  0  0  0  0
   20.4292   -4.4067  -14.7392 C   0  0  1  0  0  0  0  0  0  0  0  0
   19.4293   -3.5732  -14.0059 C   0  0  0  0  0  0  0  0  0  0  0  0
   19.1884   -2.2616  -14.6141 C   0  0  0  0  0  0  0  0  0  0  0  0
   19.0288   -2.1349  -15.8513 O   0  0  0  0  0  0  0  0  0  0  0  0
   21.6956   -3.6347  -14.8184 C   0  0  0  0  0  0  0  0  0  0  0  0
   22.4360   -3.6176  -13.8070 O   0  0  0  0  0  0  0  0  0  0  0  0
   19.1349   -1.1376  -13.8138 O   0  0  0  0  0  0  0  0  0  0  0  0
   22.0749   -2.9458  -15.9569 O   0  0  0  0  0  0  0  0  0  0  0  0
  2  3  1  0
  2  1  1  1
  4  3  1  0
  4  8  1  0
  5  4  2  0
  6  2  1  0
  7  6  2  0
  9 10  1  0
 11 10  1  6
 11 12  1  0
 12  6  1  0
 13 11  1  0
 13 15  1  0
 14 13  2  0
 16 15  1  0
 16 17  1  1
 16 20  1  0
 18 22  1  0
 18 17  1  0
 19 18  2  0
 20 21  2  0
 20 23  1  0
M  END
$$$$
