DSD.pdb
     RDKit          3D

 23 22  0  0  1  0  0  0  0  0999 V2000
   20.5835  -12.8610  -18.1343 N   0  0  0  0  0  0  0  0  0  0  0  0
   19.7597  -12.0751  -17.2772 C   0  0  1  0  0  0  0  0  0  0  0  0
   18.7530  -13.0231  -16.6223 C   0  0  0  0  0  0  0  0  0  0  0  0
   18.0361  -13.7306  -17.7256 C   0  0  0  0  0  0  0  0  0  0  0  0
   17.1648  -13.1682  -18.4238 O   0  0  0  0  0  0  0  0  0  0  0  0
   20.4964  -11.2813  -16.2742 C   0  0  0  0  0  0  0  0  0  0  0  0
   19.8142  -10.7435  -15.3642 O   0  0  0  0  0  0  0  0  0  0  0  0
   18.3103  -15.0636  -18.0286 O   0  0  0  0  0  0  0  0  0  0  0  0
   24.4629  -10.2833  -16.6006 O   0  0  0  0  0  0  0  0  0  0  0  0
   23.9827  -10.4418  -15.3046 C   0  0  0  0  0  0  0  0  0  0  0  0
   22.4666  -10.1972  -15.2882 C   0  0  2  0  0  0  0  0  0  0  0  0
   21.8973  -11.0862  -16.2656 N   0  0  0  0  0  0  0  0  0  0  0  0
   22.2886   -8.7660  -15.6542 C   0  0  0  0  0  0  0  0  0  0  0  0
   22.1134   -8.4727  -16.8647 O   0  0  0  0  0  0  0  0  0  0  0  0
   22.3034   -7.7030  -14.7247 N   0  0  0  0  0  0  0  0  0  0  0  0
   22.0768   -6.3420  -15.0961 C   0  0  1  0  0  0  0  0  0  0  0  0
   20.7533   -6.0842  -15.7399 C   0  0  0  0  0  0  0  0  0  0  0  0
   20.5056   -4.6722  -16.0447 C   0  0  0  0  0  0  0  0  0  0  0  0
   21.4491   -3.8555  -16.1682 O   0  0  0  0  0  0  0  0  0  0  0  0
   22.2197   -5.4015  -13.9556 C   0  0  0  0  0  0  0  0  0  0  0  0
   22.2383   -4.1736  -14.2071 O   0  0  0  0  0  0  0  0  0  0  0  0
   19.2086   -4.2249  -16.2006 O   0  0  0  0  0  0  0  0  0  0  0  0
   22.3309   -5.8344  -12.6460 O   0  0  0  0  0  0  0  0  0  0  0  0
  2  3  1  0
  2  1  1  1
  4  3  1  0
  4  8  1  0
  5  4  2  0
  6  2  1  0
  7  6  2  0
  9 10  1  0
 11 10  1  6
 11 12  1  0
 12  6  1  0
 13 11  1  0
 13 15  1  0
 14 13  2  0
 16 15  1  0
 16 17  1  1
 16 20  1  0
 18 22  1  0
 18 17  1  0
 19 18  2  0
 20 21  2  0
 20 23  1  0
M  END
$$$$
