MAE.pdb
     RDKit          3D

 23 22  0  0  1  0  0  0  0  0999 V2000
    8.3511  -11.9379   28.4032 C   0  0  0  0  0  0  0  0  0  0  0  0
    6.6691  -11.9903   27.7225 S   0  0  0  0  0  0  0  0  0  0  0  0
    6.3483  -13.5755   26.9044 C   0  0  0  0  0  0  0  0  0  0  0  0
    7.0513  -13.5963   25.5601 C   0  0  0  0  0  0  0  0  0  0  0  0
    6.7722  -14.8798   24.8120 C   0  0  2  0  0  0  0  0  0  0  0  0
    7.0919  -15.9843   25.6640 N   0  0  0  0  0  0  0  0  0  0  0  0
    7.6010  -14.8488   23.5777 C   0  0  0  0  0  0  0  0  0  0  0  0
    8.7430  -14.3223   23.5937 O   0  0  0  0  0  0  0  0  0  0  0  0
    7.6665  -13.7084   20.6067 C   0  0  0  0  0  0  0  0  0  0  0  0
    7.8022  -15.1247   21.0763 C   0  0  2  0  0  0  0  0  0  0  0  0
    7.1709  -15.3955   22.3350 N   0  0  0  0  0  0  0  0  0  0  0  0
    9.2021  -15.6267   21.0259 C   0  0  0  0  0  0  0  0  0  0  0  0
    9.9177  -15.3446   20.0314 O   0  0  0  0  0  0  0  0  0  0  0  0
    9.7773  -16.4142   22.0509 N   0  0  0  0  0  0  0  0  0  0  0  0
   11.1694  -16.8577   22.0096 C   0  0  1  0  0  0  0  0  0  0  0  0
   11.5300  -17.3069   23.3926 C   0  0  0  0  0  0  0  0  0  0  0  0
   11.0010  -16.4378   24.4967 C   0  0  0  0  0  0  0  0  0  0  0  0
   11.4006  -16.9603   25.8036 C   0  0  0  0  0  0  0  0  0  0  0  0
   12.2834  -17.8039   25.9981 O   0  0  0  0  0  0  0  0  0  0  0  0
   11.3115  -17.9866   21.0256 C   0  0  0  0  0  0  0  0  0  0  0  0
   12.5580  -18.3847   20.5734 O   0  0  0  0  0  0  0  0  0  0  0  0
   10.7222  -16.4587   26.9258 O   0  0  0  0  0  0  0  0  0  0  0  0
   10.3091  -18.6025   20.5835 O   0  0  0  0  0  0  0  0  0  0  0  0
  1  2  1  0
  3  2  1  0
  4  3  1  0
  5  4  1  0
  5  7  1  0
  5  6  1  1
  7  8  2  0
 10  9  1  1
 11  7  1  0
 11 10  1  0
 12 10  1  0
 12 14  1  0
 13 12  2  0
 15 20  1  0
 15 14  1  0
 15 16  1  1
 17 16  1  0
 17 18  1  0
 18 22  1  0
 19 18  2  0
 20 21  1  0
 23 20  2  0
M  END
$$$$
