MAE.pdb
     RDKit          3D

 23 22  0  0  1  0  0  0  0  0999 V2000
    7.5353  -11.5068   27.8121 C   0  0  0  0  0  0  0  0  0  0  0  0
    6.8039  -11.1964   26.1799 S   0  0  0  0  0  0  0  0  0  0  0  0
    6.0557  -12.7033   25.5058 C   0  0  0  0  0  0  0  0  0  0  0  0
    7.1477  -13.7121   25.2028 C   0  0  0  0  0  0  0  0  0  0  0  0
    6.5893  -14.9413   24.5229 C   0  0  2  0  0  0  0  0  0  0  0  0
    5.6818  -15.5879   25.4211 N   0  0  0  0  0  0  0  0  0  0  0  0
    7.7490  -15.7995   24.1627 C   0  0  0  0  0  0  0  0  0  0  0  0
    8.1629  -16.6756   24.9644 O   0  0  0  0  0  0  0  0  0  0  0  0
   10.0802  -16.2646   21.1710 C   0  0  0  0  0  0  0  0  0  0  0  0
    9.5364  -16.5381   22.5400 C   0  0  2  0  0  0  0  0  0  0  0  0
    8.4462  -15.6903   22.9257 N   0  0  0  0  0  0  0  0  0  0  0  0
   10.5927  -16.6123   23.5855 C   0  0  0  0  0  0  0  0  0  0  0  0
   11.2145  -15.5664   23.9021 O   0  0  0  0  0  0  0  0  0  0  0  0
   10.9380  -17.8124   24.2504 N   0  0  0  0  0  0  0  0  0  0  0  0
   11.9659  -17.8646   25.2883 C   0  0  1  0  0  0  0  0  0  0  0  0
   11.4756  -18.8041   26.3472 C   0  0  0  0  0  0  0  0  0  0  0  0
   12.4380  -19.0421   27.4748 C   0  0  0  0  0  0  0  0  0  0  0  0
   11.8831  -19.9947   28.4368 C   0  0  0  0  0  0  0  0  0  0  0  0
   10.7414  -20.4679   28.3988 O   0  0  0  0  0  0  0  0  0  0  0  0
   13.2589  -18.3536   24.6953 C   0  0  0  0  0  0  0  0  0  0  0  0
   14.4760  -18.0096   25.2584 O   0  0  0  0  0  0  0  0  0  0  0  0
   12.7207  -20.4013   29.4877 O   0  0  0  0  0  0  0  0  0  0  0  0
   13.2776  -19.0865   23.6744 O   0  0  0  0  0  0  0  0  0  0  0  0
  1  2  1  0
  3  2  1  0
  4  3  1  0
  5  4  1  0
  5  7  1  0
  5  6  1  1
  7  8  2  0
 10  9  1  6
 11  7  1  0
 11 10  1  0
 12 10  1  0
 12 14  1  0
 13 12  2  0
 15 20  1  0
 15 14  1  0
 15 16  1  1
 17 16  1  0
 17 18  1  0
 18 22  1  0
 19 18  2  0
 20 21  1  0
 23 20  2  0
M  END
$$$$
