MAE.pdb
     RDKit          3D

 23 22  0  0  1  0  0  0  0  0999 V2000
    6.7409  -10.9926   25.9127 C   0  0  0  0  0  0  0  0  0  0  0  0
    6.8384  -12.3434   27.1214 S   0  0  0  0  0  0  0  0  0  0  0  0
    6.1050  -13.8626   26.4587 C   0  0  0  0  0  0  0  0  0  0  0  0
    7.1386  -14.5943   25.6232 C   0  0  0  0  0  0  0  0  0  0  0  0
    6.5393  -15.8011   24.9379 C   0  0  2  0  0  0  0  0  0  0  0  0
    6.1343  -16.7407   25.9385 N   0  0  0  0  0  0  0  0  0  0  0  0
    7.5839  -16.3446   24.0298 C   0  0  0  0  0  0  0  0  0  0  0  0
    8.3218  -17.2908   24.4063 O   0  0  0  0  0  0  0  0  0  0  0  0
    8.9950  -15.6373   20.5625 C   0  0  0  0  0  0  0  0  0  0  0  0
    8.6500  -16.4889   21.7459 C   0  0  2  0  0  0  0  0  0  0  0  0
    7.8114  -15.8462   22.7152 N   0  0  0  0  0  0  0  0  0  0  0  0
    9.8368  -17.1380   22.3661 C   0  0  0  0  0  0  0  0  0  0  0  0
    9.8323  -18.3832   22.5390 O   0  0  0  0  0  0  0  0  0  0  0  0
   10.9839  -16.4186   22.7762 N   0  0  0  0  0  0  0  0  0  0  0  0
   12.2302  -17.0821   23.1544 C   0  0  1  0  0  0  0  0  0  0  0  0
   13.3500  -16.1530   22.7973 C   0  0  0  0  0  0  0  0  0  0  0  0
   14.7218  -16.6550   23.1440 C   0  0  0  0  0  0  0  0  0  0  0  0
   15.7442  -15.6903   22.7381 C   0  0  0  0  0  0  0  0  0  0  0  0
   16.6437  -15.2519   23.4644 O   0  0  0  0  0  0  0  0  0  0  0  0
   12.2225  -17.3689   24.6310 C   0  0  0  0  0  0  0  0  0  0  0  0
   12.8740  -18.4771   25.1448 O   0  0  0  0  0  0  0  0  0  0  0  0
   15.6948  -15.2277   21.4134 O   0  0  0  0  0  0  0  0  0  0  0  0
   11.6275  -16.6164   25.4431 O   0  0  0  0  0  0  0  0  0  0  0  0
  1  2  1  0
  3  2  1  0
  4  3  1  0
  5  4  1  0
  5  7  1  0
  5  6  1  1
  7  8  2  0
 10  9  1  6
 11  7  1  0
 11 10  1  0
 12 10  1  0
 12 14  1  0
 13 12  2  0
 15 20  1  0
 15 14  1  0
 15 16  1  1
 17 16  1  0
 17 18  1  0
 18 22  1  0
 19 18  2  0
 20 21  1  0
 23 20  2  0
M  END
$$$$
