MAE.pdb
     RDKit          3D

 23 22  0  0  1  0  0  0  0  0999 V2000
    8.3880  -11.2220   19.5285 C   0  0  0  0  0  0  0  0  0  0  0  0
    8.6464  -12.7580   20.4608 S   0  0  0  0  0  0  0  0  0  0  0  0
    8.4254  -14.2088   19.3971 C   0  0  0  0  0  0  0  0  0  0  0  0
    8.8491  -15.4536   20.1539 C   0  0  0  0  0  0  0  0  0  0  0  0
    8.8995  -16.6606   19.2453 C   0  0  2  0  0  0  0  0  0  0  0  0
    7.5966  -16.8706   18.6916 N   0  0  0  0  0  0  0  0  0  0  0  0
    9.3620  -17.8054   20.0740 C   0  0  0  0  0  0  0  0  0  0  0  0
    8.6004  -18.3124   20.9368 O   0  0  0  0  0  0  0  0  0  0  0  0
   11.6080  -20.6538   19.7788 C   0  0  0  0  0  0  0  0  0  0  0  0
   11.0826  -19.5589   20.6560 C   0  0  2  0  0  0  0  0  0  0  0  0
   10.6567  -18.3857   19.9500 N   0  0  0  0  0  0  0  0  0  0  0  0
   11.9845  -19.2375   21.7951 C   0  0  0  0  0  0  0  0  0  0  0  0
   12.4332  -20.1744   22.5032 O   0  0  0  0  0  0  0  0  0  0  0  0
   12.3685  -17.9169   22.1270 N   0  0  0  0  0  0  0  0  0  0  0  0
   13.2398  -17.6167   23.2616 C   0  0  1  0  0  0  0  0  0  0  0  0
   14.0159  -16.3851   22.9074 C   0  0  0  0  0  0  0  0  0  0  0  0
   14.8959  -16.5194   21.6983 C   0  0  0  0  0  0  0  0  0  0  0  0
   15.6137  -15.2711   21.4391 C   0  0  0  0  0  0  0  0  0  0  0  0
   15.6403  -14.2907   22.1921 O   0  0  0  0  0  0  0  0  0  0  0  0
   12.4063  -17.3889   24.4929 C   0  0  0  0  0  0  0  0  0  0  0  0
   12.9916  -17.3131   25.7452 O   0  0  0  0  0  0  0  0  0  0  0  0
   16.3295  -15.1851   20.2343 O   0  0  0  0  0  0  0  0  0  0  0  0
   11.1578  -17.2607   24.4264 O   0  0  0  0  0  0  0  0  0  0  0  0
  1  2  1  0
  3  2  1  0
  4  3  1  0
  5  4  1  0
  5  7  1  0
  5  6  1  1
  7  8  2  0
 10  9  1  6
 11  7  1  0
 11 10  1  0
 12 10  1  0
 12 14  1  0
 13 12  2  0
 15 20  1  0
 15 14  1  0
 15 16  1  6
 17 16  1  0
 17 18  1  0
 18 22  1  0
 19 18  2  0
 20 21  1  0
 23 20  2  0
M  END
$$$$
