MAE.pdb
     RDKit          3D

 23 22  0  0  1  0  0  0  0  0999 V2000
    5.2600  -11.0682   26.3511 C   0  0  0  0  0  0  0  0  0  0  0  0
    6.8248  -11.2731   27.2480 S   0  0  0  0  0  0  0  0  0  0  0  0
    7.7431  -12.7096   26.6332 C   0  0  0  0  0  0  0  0  0  0  0  0
    6.7914  -13.8800   26.4708 C   0  0  0  0  0  0  0  0  0  0  0  0
    7.5095  -15.1072   25.9576 C   0  0  2  0  0  0  0  0  0  0  0  0
    8.9088  -14.9609   26.2196 N   0  0  0  0  0  0  0  0  0  0  0  0
    7.2054  -15.2093   24.5056 C   0  0  0  0  0  0  0  0  0  0  0  0
    6.0734  -15.5991   24.1206 O   0  0  0  0  0  0  0  0  0  0  0  0
    8.2048  -14.7206   21.0271 C   0  0  0  0  0  0  0  0  0  0  0  0
    8.2629  -15.5911   22.2452 C   0  0  2  0  0  0  0  0  0  0  0  0
    8.1453  -14.8831   23.4865 N   0  0  0  0  0  0  0  0  0  0  0  0
    9.4154  -16.5324   22.2377 C   0  0  0  0  0  0  0  0  0  0  0  0
    9.6051  -17.2591   21.2294 O   0  0  0  0  0  0  0  0  0  0  0  0
   10.3200  -16.6540   23.3186 N   0  0  0  0  0  0  0  0  0  0  0  0
   11.4295  -17.6054   23.3077 C   0  0  1  0  0  0  0  0  0  0  0  0
   12.6957  -16.8065   23.3649 C   0  0  0  0  0  0  0  0  0  0  0  0
   13.0911  -16.1567   22.0704 C   0  0  0  0  0  0  0  0  0  0  0  0
   14.3315  -15.3973   22.2301 C   0  0  0  0  0  0  0  0  0  0  0  0
   14.9572  -15.2620   23.2878 O   0  0  0  0  0  0  0  0  0  0  0  0
   11.3209  -18.5227   24.4949 C   0  0  0  0  0  0  0  0  0  0  0  0
   12.2135  -19.5658   24.6732 O   0  0  0  0  0  0  0  0  0  0  0  0
   14.8493  -14.7728   21.0840 O   0  0  0  0  0  0  0  0  0  0  0  0
   10.4211  -18.3738   25.3597 O   0  0  0  0  0  0  0  0  0  0  0  0
  1  2  1  0
  3  2  1  0
  4  3  1  0
  5  4  1  0
  5  7  1  0
  5  6  1  6
  7  8  2  0
 10  9  1  6
 11  7  1  0
 11 10  1  0
 12 10  1  0
 12 14  1  0
 13 12  2  0
 15 20  1  0
 15 14  1  0
 15 16  1  1
 17 16  1  0
 17 18  1  0
 18 22  1  0
 19 18  2  0
 20 21  1  0
 23 20  2  0
M  END
$$$$
