MAE.pdb
     RDKit          3D

 23 22  0  0  1  0  0  0  0  0999 V2000
    7.7441  -11.3244   19.6883 C   0  0  0  0  0  0  0  0  0  0  0  0
    6.7017  -12.4666   18.7375 S   0  0  0  0  0  0  0  0  0  0  0  0
    7.1302  -14.1904   19.0978 C   0  0  0  0  0  0  0  0  0  0  0  0
    8.3732  -14.2261   19.9670 C   0  0  0  0  0  0  0  0  0  0  0  0
    8.6581  -15.6249   20.4641 C   0  0  2  0  0  0  0  0  0  0  0  0
    7.4862  -16.4245   20.2757 N   0  0  0  0  0  0  0  0  0  0  0  0
    9.0459  -15.5037   21.8946 C   0  0  0  0  0  0  0  0  0  0  0  0
   10.1875  -15.0799   22.2085 O   0  0  0  0  0  0  0  0  0  0  0  0
    7.4439  -15.9144   25.3228 C   0  0  0  0  0  0  0  0  0  0  0  0
    8.5798  -15.8850   24.3463 C   0  0  2  0  0  0  0  0  0  0  0  0
    8.1784  -15.8484   22.9702 N   0  0  0  0  0  0  0  0  0  0  0  0
    9.6050  -16.9310   24.6090 C   0  0  0  0  0  0  0  0  0  0  0  0
    9.4310  -18.0875   24.1476 O   0  0  0  0  0  0  0  0  0  0  0  0
   10.7796  -16.6896   25.3597 N   0  0  0  0  0  0  0  0  0  0  0  0
   11.8361  -17.6894   25.5036 C   0  0  1  0  0  0  0  0  0  0  0  0
   13.0879  -17.0924   24.9370 C   0  0  0  0  0  0  0  0  0  0  0  0
   14.3039  -17.9681   25.0316 C   0  0  0  0  0  0  0  0  0  0  0  0
   15.4645  -17.3090   24.4321 C   0  0  0  0  0  0  0  0  0  0  0  0
   16.5713  -17.8305   24.2538 O   0  0  0  0  0  0  0  0  0  0  0  0
   12.0156  -18.0297   26.9578 C   0  0  0  0  0  0  0  0  0  0  0  0
   12.7353  -19.1474   27.3442 O   0  0  0  0  0  0  0  0  0  0  0  0
   15.3021  -15.9742   24.0280 O   0  0  0  0  0  0  0  0  0  0  0  0
   11.5207  -17.3150   27.8655 O   0  0  0  0  0  0  0  0  0  0  0  0
  1  2  1  0
  3  2  1  0
  4  3  1  0
  5  4  1  0
  5  7  1  0
  5  6  1  1
  7  8  2  0
 10  9  1  1
 11  7  1  0
 11 10  1  0
 12 10  1  0
 12 14  1  0
 13 12  2  0
 15 20  1  0
 15 14  1  0
 15 16  1  1
 17 16  1  0
 17 18  1  0
 18 22  1  0
 19 18  2  0
 20 21  1  0
 23 20  2  0
M  END
$$$$
