MAE.pdb
     RDKit          3D

 23 22  0  0  1  0  0  0  0  0999 V2000
    7.5687  -10.8148   26.2685 C   0  0  0  0  0  0  0  0  0  0  0  0
    7.5255  -12.2053   27.4346 S   0  0  0  0  0  0  0  0  0  0  0  0
    6.5359  -13.5741   26.7775 C   0  0  0  0  0  0  0  0  0  0  0  0
    7.3462  -14.3228   25.7360 C   0  0  0  0  0  0  0  0  0  0  0  0
    6.5326  -15.4205   25.0893 C   0  0  2  0  0  0  0  0  0  0  0  0
    6.2503  -16.4205   26.0734 N   0  0  0  0  0  0  0  0  0  0  0  0
    7.3390  -15.9438   23.9547 C   0  0  0  0  0  0  0  0  0  0  0  0
    7.7714  -17.1245   23.9754 O   0  0  0  0  0  0  0  0  0  0  0  0
    8.2874  -14.7570   20.4558 C   0  0  0  0  0  0  0  0  0  0  0  0
    8.2602  -15.7040   21.6165 C   0  0  2  0  0  0  0  0  0  0  0  0
    7.6649  -15.1679   22.8058 N   0  0  0  0  0  0  0  0  0  0  0  0
    9.5776  -16.3430   21.8818 C   0  0  0  0  0  0  0  0  0  0  0  0
   10.0845  -17.0867   21.0040 O   0  0  0  0  0  0  0  0  0  0  0  0
   10.2986  -16.1551   23.0844 N   0  0  0  0  0  0  0  0  0  0  0  0
   11.4356  -16.9955   23.4550 C   0  0  1  0  0  0  0  0  0  0  0  0
   12.6700  -16.1611   23.2982 C   0  0  0  0  0  0  0  0  0  0  0  0
   12.9725  -15.7401   21.8891 C   0  0  0  0  0  0  0  0  0  0  0  0
   14.2515  -15.0324   21.8234 C   0  0  0  0  0  0  0  0  0  0  0  0
   14.9560  -14.7350   22.7950 O   0  0  0  0  0  0  0  0  0  0  0  0
   11.2795  -17.4589   24.8776 C   0  0  0  0  0  0  0  0  0  0  0  0
   10.2264  -17.0161   25.6595 O   0  0  0  0  0  0  0  0  0  0  0  0
   14.7116  -14.6632   20.5494 O   0  0  0  0  0  0  0  0  0  0  0  0
   12.0954  -18.2589   25.4010 O   0  0  0  0  0  0  0  0  0  0  0  0
  1  2  1  0
  3  2  1  0
  4  3  1  0
  5  4  1  0
  5  7  1  0
  5  6  1  1
  7  8  2  0
 10  9  1  6
 11  7  1  0
 11 10  1  0
 12 10  1  0
 12 14  1  0
 13 12  2  0
 15 20  1  0
 15 14  1  0
 15 16  1  1
 17 16  1  0
 17 18  1  0
 18 22  1  0
 19 18  2  0
 20 21  1  0
 23 20  2  0
M  END
$$$$
