MAE.pdb
     RDKit          3D

 23 22  0  0  1  0  0  0  0  0999 V2000
    8.1039  -11.5194   20.1792 C   0  0  0  0  0  0  0  0  0  0  0  0
    6.8106  -12.5993   19.5035 S   0  0  0  0  0  0  0  0  0  0  0  0
    7.4940  -14.2060   19.0172 C   0  0  0  0  0  0  0  0  0  0  0  0
    8.7074  -14.5139   19.8743 C   0  0  0  0  0  0  0  0  0  0  0  0
    8.5997  -15.8806   20.5112 C   0  0  2  0  0  0  0  0  0  0  0  0
    7.2875  -16.3968   20.2666 N   0  0  0  0  0  0  0  0  0  0  0  0
    8.8865  -15.7053   21.9598 C   0  0  0  0  0  0  0  0  0  0  0  0
    9.9990  -15.2557   22.3362 O   0  0  0  0  0  0  0  0  0  0  0  0
    7.0499  -15.5860   25.2375 C   0  0  0  0  0  0  0  0  0  0  0  0
    8.2335  -15.9347   24.3876 C   0  0  2  0  0  0  0  0  0  0  0  0
    7.9507  -16.0246   22.9847 N   0  0  0  0  0  0  0  0  0  0  0  0
    8.9873  -17.1154   24.8896 C   0  0  0  0  0  0  0  0  0  0  0  0
    8.5182  -18.2663   24.7002 O   0  0  0  0  0  0  0  0  0  0  0  0
   10.2193  -17.0096   25.5770 N   0  0  0  0  0  0  0  0  0  0  0  0
   10.9630  -18.1813   26.0359 C   0  0  1  0  0  0  0  0  0  0  0  0
   12.2839  -18.1695   25.3289 C   0  0  0  0  0  0  0  0  0  0  0  0
   12.9546  -16.8277   25.2667 C   0  0  0  0  0  0  0  0  0  0  0  0
   13.9246  -16.7839   24.1722 C   0  0  0  0  0  0  0  0  0  0  0  0
   14.5698  -15.7874   23.8266 O   0  0  0  0  0  0  0  0  0  0  0  0
   11.1524  -18.1083   27.5263 C   0  0  0  0  0  0  0  0  0  0  0  0
   11.7475  -19.1478   28.2205 O   0  0  0  0  0  0  0  0  0  0  0  0
   14.1360  -17.9747   23.4590 O   0  0  0  0  0  0  0  0  0  0  0  0
   10.7788  -17.1069   28.1876 O   0  0  0  0  0  0  0  0  0  0  0  0
  1  2  1  0
  3  2  1  0
  4  3  1  0
  5  4  1  0
  5  7  1  0
  5  6  1  1
  7  8  2  0
 10  9  1  1
 11  7  1  0
 11 10  1  0
 12 10  1  0
 12 14  1  0
 13 12  2  0
 15 20  1  0
 15 14  1  0
 15 16  1  6
 17 16  1  0
 17 18  1  0
 18 22  1  0
 19 18  2  0
 20 21  1  0
 23 20  2  0
M  END
$$$$
