MAE.pdb
     RDKit          3D

 23 22  0  0  1  0  0  0  0  0999 V2000
    7.8458  -11.6902   27.9463 C   0  0  0  0  0  0  0  0  0  0  0  0
    6.3361  -11.8455   26.9503 S   0  0  0  0  0  0  0  0  0  0  0  0
    6.5617  -13.0460   25.6112 C   0  0  0  0  0  0  0  0  0  0  0  0
    6.4930  -14.4504   26.1811 C   0  0  0  0  0  0  0  0  0  0  0  0
    7.5463  -15.3455   25.5692 C   0  0  2  0  0  0  0  0  0  0  0  0
    8.8343  -14.7760   25.8239 N   0  0  0  0  0  0  0  0  0  0  0  0
    7.2391  -15.4432   24.1175 C   0  0  0  0  0  0  0  0  0  0  0  0
    6.2773  -16.1485   23.7189 O   0  0  0  0  0  0  0  0  0  0  0  0
    7.8032  -13.9731   20.7869 C   0  0  0  0  0  0  0  0  0  0  0  0
    7.9832  -15.1266   21.7260 C   0  0  2  0  0  0  0  0  0  0  0  0
    7.9893  -14.7664   23.1139 N   0  0  0  0  0  0  0  0  0  0  0  0
    9.1300  -16.0030   21.3638 C   0  0  0  0  0  0  0  0  0  0  0  0
    8.9924  -16.8370   20.4332 O   0  0  0  0  0  0  0  0  0  0  0  0
   10.3823  -15.9461   22.0196 N   0  0  0  0  0  0  0  0  0  0  0  0
   11.4387  -16.9266   21.7762 C   0  0  1  0  0  0  0  0  0  0  0  0
   12.6363  -16.1715   21.2861 C   0  0  0  0  0  0  0  0  0  0  0  0
   12.4484  -15.4757   19.9690 C   0  0  0  0  0  0  0  0  0  0  0  0
   13.6899  -14.8291   19.5432 C   0  0  0  0  0  0  0  0  0  0  0  0
   13.8077  -14.0761   18.5697 O   0  0  0  0  0  0  0  0  0  0  0  0
   11.7525  -17.6591   23.0519 C   0  0  0  0  0  0  0  0  0  0  0  0
   12.6532  -18.7103   23.0667 O   0  0  0  0  0  0  0  0  0  0  0  0
   14.8390  -15.0887   20.3071 O   0  0  0  0  0  0  0  0  0  0  0  0
   11.2104  -17.3433   24.1410 O   0  0  0  0  0  0  0  0  0  0  0  0
  1  2  1  0
  3  2  1  0
  4  3  1  0
  5  4  1  0
  5  7  1  0
  5  6  1  6
  7  8  2  0
 10  9  1  6
 11  7  1  0
 11 10  1  0
 12 10  1  0
 12 14  1  0
 13 12  2  0
 15 20  1  0
 15 14  1  0
 15 16  1  1
 17 16  1  0
 17 18  1  0
 18 22  1  0
 19 18  2  0
 20 21  1  0
 23 20  2  0
M  END
$$$$
