MAE.pdb
     RDKit          3D

 23 22  0  0  1  0  0  0  0  0999 V2000
    6.9741  -12.1780   26.6860 C   0  0  0  0  0  0  0  0  0  0  0  0
    7.6293  -11.5201   25.1262 S   0  0  0  0  0  0  0  0  0  0  0  0
    7.3797  -12.6954   23.7692 C   0  0  0  0  0  0  0  0  0  0  0  0
    7.2659  -14.0980   24.3364 C   0  0  0  0  0  0  0  0  0  0  0  0
    7.2075  -15.1340   23.2371 C   0  0  2  0  0  0  0  0  0  0  0  0
    6.0746  -14.8571   22.4078 N   0  0  0  0  0  0  0  0  0  0  0  0
    7.1222  -16.4623   23.9002 C   0  0  0  0  0  0  0  0  0  0  0  0
    6.3647  -16.6296   24.8899 O   0  0  0  0  0  0  0  0  0  0  0  0
    7.4195  -20.0090   23.7187 C   0  0  0  0  0  0  0  0  0  0  0  0
    8.0673  -18.7744   24.2670 C   0  0  2  0  0  0  0  0  0  0  0  0
    7.8686  -17.5973   23.4726 N   0  0  0  0  0  0  0  0  0  0  0  0
    9.4956  -18.9757   24.6327 C   0  0  0  0  0  0  0  0  0  0  0  0
   10.2903  -19.4271   23.7693 O   0  0  0  0  0  0  0  0  0  0  0  0
   10.0127  -18.6820   25.9164 N   0  0  0  0  0  0  0  0  0  0  0  0
   11.4060  -18.9382   26.2766 C   0  0  1  0  0  0  0  0  0  0  0  0
   12.1943  -17.7291   25.8751 C   0  0  0  0  0  0  0  0  0  0  0  0
   12.2864  -17.4985   24.3944 C   0  0  0  0  0  0  0  0  0  0  0  0
   13.1237  -16.3346   24.1026 C   0  0  0  0  0  0  0  0  0  0  0  0
   13.6921  -15.6318   24.9463 O   0  0  0  0  0  0  0  0  0  0  0  0
   11.5095  -19.1775   27.7580 C   0  0  0  0  0  0  0  0  0  0  0  0
   12.7073  -19.5633   28.3352 O   0  0  0  0  0  0  0  0  0  0  0  0
   13.2921  -15.9924   22.7514 O   0  0  0  0  0  0  0  0  0  0  0  0
   10.5178  -19.0364   28.5170 O   0  0  0  0  0  0  0  0  0  0  0  0
  1  2  1  0
  3  2  1  0
  4  3  1  0
  5  4  1  0
  5  7  1  0
  5  6  1  6
  7  8  2  0
 10  9  1  6
 11  7  1  0
 11 10  1  0
 12 10  1  0
 12 14  1  0
 13 12  2  0
 15 20  1  0
 15 14  1  0
 15 16  1  1
 17 16  1  0
 17 18  1  0
 18 22  1  0
 19 18  2  0
 20 21  1  0
 23 20  2  0
M  END
$$$$
