MAE.pdb
     RDKit          3D

 23 22  0  0  1  0  0  0  0  0999 V2000
    6.9857  -11.1352   25.2556 C   0  0  0  0  0  0  0  0  0  0  0  0
    6.7617  -12.0488   26.8082 S   0  0  0  0  0  0  0  0  0  0  0  0
    6.5253  -13.8179   26.4930 C   0  0  0  0  0  0  0  0  0  0  0  0
    6.5312  -14.0648   24.9960 C   0  0  0  0  0  0  0  0  0  0  0  0
    6.2911  -15.5228   24.6770 C   0  0  2  0  0  0  0  0  0  0  0  0
    5.7828  -16.1692   25.8483 N   0  0  0  0  0  0  0  0  0  0  0  0
    7.5924  -16.0865   24.2296 C   0  0  0  0  0  0  0  0  0  0  0  0
    8.3800  -16.6028   25.0630 O   0  0  0  0  0  0  0  0  0  0  0  0
    9.3854  -16.6898   20.9110 C   0  0  0  0  0  0  0  0  0  0  0  0
    9.2009  -16.7405   22.3970 C   0  0  2  0  0  0  0  0  0  0  0  0
    8.0200  -16.0796   22.8712 N   0  0  0  0  0  0  0  0  0  0  0  0
   10.4176  -16.3360   23.1522 C   0  0  0  0  0  0  0  0  0  0  0  0
   10.6653  -15.1127   23.3030 O   0  0  0  0  0  0  0  0  0  0  0  0
   11.3211  -17.2670   23.7166 N   0  0  0  0  0  0  0  0  0  0  0  0
   12.5061  -16.8528   24.4653 C   0  0  1  0  0  0  0  0  0  0  0  0
   12.7591  -17.9011   25.5052 C   0  0  0  0  0  0  0  0  0  0  0  0
   11.6482  -18.0864   26.4981 C   0  0  0  0  0  0  0  0  0  0  0  0
   11.9426  -19.1977   27.4032 C   0  0  0  0  0  0  0  0  0  0  0  0
   12.5416  -19.1041   28.4808 O   0  0  0  0  0  0  0  0  0  0  0  0
   13.6783  -16.7319   23.5303 C   0  0  0  0  0  0  0  0  0  0  0  0
   14.7917  -15.9855   23.8767 O   0  0  0  0  0  0  0  0  0  0  0  0
   11.5066  -20.4732   27.0104 O   0  0  0  0  0  0  0  0  0  0  0  0
   13.6860  -17.3011   22.4098 O   0  0  0  0  0  0  0  0  0  0  0  0
  1  2  1  0
  3  2  1  0
  4  3  1  0
  5  4  1  0
  5  7  1  0
  5  6  1  1
  7  8  2  0
 10  9  1  6
 11  7  1  0
 11 10  1  0
 12 10  1  0
 12 14  1  0
 13 12  2  0
 15 20  1  0
 15 14  1  0
 15 16  1  1
 17 16  1  0
 17 18  1  0
 18 22  1  0
 19 18  2  0
 20 21  1  0
 23 20  2  0
M  END
$$$$
