MAE.pdb
     RDKit          3D

 23 22  0  0  1  0  0  0  0  0999 V2000
    7.9452  -11.8078   27.0723 C   0  0  0  0  0  0  0  0  0  0  0  0
    6.2319  -12.4037   27.0020 S   0  0  0  0  0  0  0  0  0  0  0  0
    6.1702  -14.2138   27.0705 C   0  0  0  0  0  0  0  0  0  0  0  0
    5.9264  -14.7595   25.6759 C   0  0  0  0  0  0  0  0  0  0  0  0
    7.1450  -15.4792   25.1449 C   0  0  2  0  0  0  0  0  0  0  0  0
    8.3155  -14.7905   25.5964 N   0  0  0  0  0  0  0  0  0  0  0  0
    7.0248  -15.4953   23.6628 C   0  0  0  0  0  0  0  0  0  0  0  0
    6.2392  -16.2994   23.0989 O   0  0  0  0  0  0  0  0  0  0  0  0
    7.6704  -13.5472   20.5970 C   0  0  0  0  0  0  0  0  0  0  0  0
    7.8788  -14.8005   21.3909 C   0  0  2  0  0  0  0  0  0  0  0  0
    7.7673  -14.6293   22.8102 N   0  0  0  0  0  0  0  0  0  0  0  0
    9.1113  -15.5398   21.0054 C   0  0  0  0  0  0  0  0  0  0  0  0
    9.2861  -15.8509   19.7998 O   0  0  0  0  0  0  0  0  0  0  0  0
   10.1090  -15.9154   21.9354 N   0  0  0  0  0  0  0  0  0  0  0  0
   11.2876  -16.6890   21.5495 C   0  0  1  0  0  0  0  0  0  0  0  0
   12.0985  -16.9053   22.7906 C   0  0  0  0  0  0  0  0  0  0  0  0
   13.3814  -17.6573   22.5834 C   0  0  0  0  0  0  0  0  0  0  0  0
   14.1454  -17.7310   23.8291 C   0  0  0  0  0  0  0  0  0  0  0  0
   15.2431  -18.2835   23.9642 O   0  0  0  0  0  0  0  0  0  0  0  0
   10.8581  -18.0021   20.9546 C   0  0  0  0  0  0  0  0  0  0  0  0
    9.8387  -18.7438   21.5268 O   0  0  0  0  0  0  0  0  0  0  0  0
   13.5803  -17.1221   24.9611 O   0  0  0  0  0  0  0  0  0  0  0  0
   11.4073  -18.4674   19.9243 O   0  0  0  0  0  0  0  0  0  0  0  0
  1  2  1  0
  3  2  1  0
  4  3  1  0
  5  4  1  0
  5  7  1  0
  5  6  1  6
  7  8  2  0
 10  9  1  6
 11  7  1  0
 11 10  1  0
 12 10  1  0
 12 14  1  0
 13 12  2  0
 15 20  1  0
 15 14  1  0
 15 16  1  1
 17 16  1  0
 17 18  1  0
 18 22  1  0
 19 18  2  0
 20 21  1  0
 23 20  2  0
M  END
$$$$
