MAE.pdb
     RDKit          3D

 23 22  0  0  1  0  0  0  0  0999 V2000
    7.1167  -10.7060   25.4792 C   0  0  0  0  0  0  0  0  0  0  0  0
    5.9332  -11.6051   26.5214 S   0  0  0  0  0  0  0  0  0  0  0  0
    5.4923  -13.1983   25.7782 C   0  0  0  0  0  0  0  0  0  0  0  0
    6.7596  -13.9445   25.4052 C   0  0  0  0  0  0  0  0  0  0  0  0
    6.4461  -15.2562   24.7224 C   0  0  2  0  0  0  0  0  0  0  0  0
    5.8130  -16.1239   25.6682 N   0  0  0  0  0  0  0  0  0  0  0  0
    7.7356  -15.7995   24.2191 C   0  0  0  0  0  0  0  0  0  0  0  0
    8.4577  -16.5111   24.9632 O   0  0  0  0  0  0  0  0  0  0  0  0
    9.7005  -15.7845   20.9419 C   0  0  0  0  0  0  0  0  0  0  0  0
    9.3379  -16.2469   22.3201 C   0  0  2  0  0  0  0  0  0  0  0  0
    8.2235  -15.5581   22.9030 N   0  0  0  0  0  0  0  0  0  0  0  0
   10.5050  -16.3156   23.2406 C   0  0  0  0  0  0  0  0  0  0  0  0
   11.0885  -15.2515   23.5690 O   0  0  0  0  0  0  0  0  0  0  0  0
   10.9983  -17.5302   23.7725 N   0  0  0  0  0  0  0  0  0  0  0  0
   12.1225  -17.5769   24.7055 C   0  0  1  0  0  0  0  0  0  0  0  0
   11.6699  -18.3562   25.9023 C   0  0  0  0  0  0  0  0  0  0  0  0
   12.7517  -18.6777   26.8924 C   0  0  0  0  0  0  0  0  0  0  0  0
   12.2243  -19.4874   27.9910 C   0  0  0  0  0  0  0  0  0  0  0  0
   11.0509  -19.8595   28.1071 O   0  0  0  0  0  0  0  0  0  0  0  0
   13.2993  -18.2430   24.0464 C   0  0  0  0  0  0  0  0  0  0  0  0
   14.5903  -18.0070   24.4872 O   0  0  0  0  0  0  0  0  0  0  0  0
   13.1299  -19.8707   28.9931 O   0  0  0  0  0  0  0  0  0  0  0  0
   13.1508  -19.0313   23.0789 O   0  0  0  0  0  0  0  0  0  0  0  0
  1  2  1  0
  3  2  1  0
  4  3  1  0
  5  4  1  0
  5  7  1  0
  5  6  1  1
  7  8  2  0
 10  9  1  6
 11  7  1  0
 11 10  1  0
 12 10  1  0
 12 14  1  0
 13 12  2  0
 15 20  1  0
 15 14  1  0
 15 16  1  1
 17 16  1  0
 17 18  1  0
 18 22  1  0
 19 18  2  0
 20 21  1  0
 23 20  2  0
M  END
$$$$
