MAE.pdb
     RDKit          3D

 23 22  0  0  1  0  0  0  0  0999 V2000
    6.1660  -11.7487   26.4552 C   0  0  0  0  0  0  0  0  0  0  0  0
    7.5353  -12.9365   26.5527 S   0  0  0  0  0  0  0  0  0  0  0  0
    7.0972  -14.5008   25.7491 C   0  0  0  0  0  0  0  0  0  0  0  0
    6.4888  -14.2120   24.3896 C   0  0  0  0  0  0  0  0  0  0  0  0
    6.5033  -15.4394   23.5073 C   0  0  2  0  0  0  0  0  0  0  0  0
    6.3094  -16.5952   24.3289 N   0  0  0  0  0  0  0  0  0  0  0  0
    7.8130  -15.4492   22.8032 C   0  0  0  0  0  0  0  0  0  0  0  0
    8.2287  -14.4140   22.2226 O   0  0  0  0  0  0  0  0  0  0  0  0
   10.1909  -15.5520   21.1167 C   0  0  0  0  0  0  0  0  0  0  0  0
    9.9731  -16.5932   22.1717 C   0  0  2  0  0  0  0  0  0  0  0  0
    8.6572  -16.5946   22.7413 N   0  0  0  0  0  0  0  0  0  0  0  0
   11.0390  -16.6067   23.2100 C   0  0  0  0  0  0  0  0  0  0  0  0
   12.2381  -16.4712   22.8574 O   0  0  0  0  0  0  0  0  0  0  0  0
   10.7706  -16.7656   24.5899 N   0  0  0  0  0  0  0  0  0  0  0  0
   11.8058  -16.6168   25.6110 C   0  0  1  0  0  0  0  0  0  0  0  0
   11.1258  -16.1564   26.8641 C   0  0  0  0  0  0  0  0  0  0  0  0
   12.0056  -16.1115   28.0799 C   0  0  0  0  0  0  0  0  0  0  0  0
   11.2425  -15.6931   29.2561 C   0  0  0  0  0  0  0  0  0  0  0  0
   10.8940  -14.5340   29.5084 O   0  0  0  0  0  0  0  0  0  0  0  0
   12.4945  -17.9362   25.8291 C   0  0  0  0  0  0  0  0  0  0  0  0
   13.7869  -17.9922   26.3223 O   0  0  0  0  0  0  0  0  0  0  0  0
   10.8789  -16.6949   30.1702 O   0  0  0  0  0  0  0  0  0  0  0  0
   11.9230  -19.0257   25.5722 O   0  0  0  0  0  0  0  0  0  0  0  0
  1  2  1  0
  3  2  1  0
  4  3  1  0
  5  4  1  0
  5  7  1  0
  5  6  1  1
  7  8  2  0
 10  9  1  1
 11  7  1  0
 11 10  1  0
 12 10  1  0
 12 14  1  0
 13 12  2  0
 15 20  1  0
 15 14  1  0
 15 16  1  1
 17 16  1  0
 17 18  1  0
 18 22  1  0
 19 18  2  0
 20 21  1  0
 23 20  2  0
M  END
$$$$
