SDM.pdb
     RDKit          3D

 23 22  0  0  1  0  0  0  0  0999 V2000
   15.8859  -11.2224  -11.2197 O   0  0  0  0  0  0  0  0  0  0  0  0
   15.7342  -10.9874   -9.8737 C   0  0  0  0  0  0  0  0  0  0  0  0
   14.7205   -9.9077   -9.5739 C   0  0  2  0  0  0  0  0  0  0  0  0
   13.4365  -10.2848  -10.0869 N   0  0  0  0  0  0  0  0  0  0  0  0
   15.0995   -8.5928  -10.0975 C   0  0  0  0  0  0  0  0  0  0  0  0
   14.6103   -8.1089  -11.1626 O   0  0  0  0  0  0  0  0  0  0  0  0
   16.0525   -7.8080   -9.4013 N   0  0  0  0  0  0  0  0  0  0  0  0
   16.4511   -6.4802  -10.0063 C   0  0  1  0  0  0  0  0  0  0  0  0
   16.1228   -5.5222   -8.9154 C   0  0  0  0  0  0  0  0  0  0  0  0
   16.5889   -4.1505   -9.0049 C   0  0  0  0  0  0  0  0  0  0  0  0
   17.2847   -3.5039   -8.2146 O   0  0  0  0  0  0  0  0  0  0  0  0
   17.8673   -6.6158  -10.3591 C   0  0  0  0  0  0  0  0  0  0  0  0
   18.5657   -7.4736   -9.7138 O   0  0  0  0  0  0  0  0  0  0  0  0
   16.1955   -3.4336  -10.1657 O   0  0  0  0  0  0  0  0  0  0  0  0
   23.1450  -10.0913  -13.9903 C   0  0  0  0  0  0  0  0  0  0  0  0
   21.4680   -9.4864  -13.7168 S   0  0  0  0  0  0  0  0  0  0  0  0
   21.4662   -7.9589  -12.7456 C   0  0  0  0  0  0  0  0  0  0  0  0
   20.0220   -7.5725  -12.4483 C   0  0  0  0  0  0  0  0  0  0  0  0
   19.9580   -6.2885  -11.6881 C   0  0  2  0  0  0  0  0  0  0  0  0
   18.5899   -5.9128  -11.3457 N   0  0  0  0  0  0  0  0  0  0  0  0
   20.4886   -5.2115  -12.5827 C   0  0  0  0  0  0  0  0  0  0  0  0
   19.6632   -4.5015  -13.2086 O   0  0  0  0  0  0  0  0  0  0  0  0
   21.8282   -4.9732  -12.7431 O   0  0  0  0  0  0  0  0  0  0  0  0
  1  2  1  0
  3  2  1  0
  3  4  1  6
  3  5  1  0
  5  6  2  0
  7  5  1  0
  7  8  1  0
  8 12  1  0
  8  9  1  1
 10  9  1  0
 11 10  2  0
 12 20  1  0
 13 12  2  0
 14 10  1  0
 16 17  1  0
 16 15  1  0
 18 17  1  0
 19 18  1  6
 20 19  1  0
 21 19  1  0
 21 23  1  0
 22 21  2  0
M  END
$$$$
