SDM.pdb
     RDKit          3D

 23 22  0  0  1  0  0  0  0  0999 V2000
   14.0400  -10.5508  -16.4356 O   0  0  0  0  0  0  0  0  0  0  0  0
   14.5575  -10.0546  -15.2627 C   0  0  0  0  0  0  0  0  0  0  0  0
   15.9845  -10.4872  -15.0179 C   0  0  2  0  0  0  0  0  0  0  0  0
   16.0586  -11.9169  -14.9506 N   0  0  0  0  0  0  0  0  0  0  0  0
   16.5708   -9.9007  -13.8100 C   0  0  0  0  0  0  0  0  0  0  0  0
   16.5150  -10.4631  -12.6749 O   0  0  0  0  0  0  0  0  0  0  0  0
   17.2348   -8.6509  -13.8875 N   0  0  0  0  0  0  0  0  0  0  0  0
   17.9528   -8.1549  -12.6521 C   0  0  1  0  0  0  0  0  0  0  0  0
   19.0075   -7.2768  -13.2281 C   0  0  0  0  0  0  0  0  0  0  0  0
   20.2406   -7.8670  -13.7161 C   0  0  0  0  0  0  0  0  0  0  0  0
   20.8212   -8.8929  -13.3455 O   0  0  0  0  0  0  0  0  0  0  0  0
   16.9268   -7.5017  -11.8341 C   0  0  0  0  0  0  0  0  0  0  0  0
   16.1157   -6.7008  -12.4180 O   0  0  0  0  0  0  0  0  0  0  0  0
   20.8859   -7.1751  -14.7748 O   0  0  0  0  0  0  0  0  0  0  0  0
   13.0938   -9.5341   -7.0973 C   0  0  0  0  0  0  0  0  0  0  0  0
   12.4023   -7.9533   -7.6229 S   0  0  0  0  0  0  0  0  0  0  0  0
   13.6844   -6.8555   -8.2767 C   0  0  0  0  0  0  0  0  0  0  0  0
   14.7532   -7.7047   -8.9550 C   0  0  0  0  0  0  0  0  0  0  0  0
   15.6707   -6.8560   -9.7726 C   0  0  2  0  0  0  0  0  0  0  0  0
   16.6988   -7.6407  -10.4490 N   0  0  0  0  0  0  0  0  0  0  0  0
   16.3830   -5.9329   -8.8333 C   0  0  0  0  0  0  0  0  0  0  0  0
   17.5769   -6.1907   -8.5413 O   0  0  0  0  0  0  0  0  0  0  0  0
   15.7872   -4.8277   -8.2849 O   0  0  0  0  0  0  0  0  0  0  0  0
  1  2  1  0
  3  2  1  0
  3  4  1  1
  3  5  1  0
  5  6  2  0
  7  5  1  0
  7  8  1  0
  8 12  1  0
  8  9  1  6
 10  9  1  0
 11 10  2  0
 12 20  1  0
 13 12  2  0
 14 10  1  0
 16 17  1  0
 16 15  1  0
 18 17  1  0
 19 18  1  1
 20 19  1  0
 21 19  1  0
 21 23  1  0
 22 21  2  0
M  END
$$$$
