SDM.pdb
     RDKit          3D

 23 22  0  0  1  0  0  0  0  0999 V2000
   15.9391  -11.3345  -16.7321 O   0  0  0  0  0  0  0  0  0  0  0  0
   16.3657  -10.8421  -15.5216 C   0  0  0  0  0  0  0  0  0  0  0  0
   17.8666  -10.9002  -15.3570 C   0  0  2  0  0  0  0  0  0  0  0  0
   18.3043  -12.2647  -15.3298 N   0  0  0  0  0  0  0  0  0  0  0  0
   18.3483  -10.1987  -14.1642 C   0  0  0  0  0  0  0  0  0  0  0  0
   18.4574  -10.7603  -13.0325 O   0  0  0  0  0  0  0  0  0  0  0  0
   18.7146   -8.8324  -14.2532 N   0  0  0  0  0  0  0  0  0  0  0  0
   19.2145   -8.1522  -12.9981 C   0  0  1  0  0  0  0  0  0  0  0  0
   20.2116   -7.1865  -13.5353 C   0  0  0  0  0  0  0  0  0  0  0  0
   20.9237   -6.3122  -12.6213 C   0  0  0  0  0  0  0  0  0  0  0  0
   20.8054   -6.1908  -11.3973 O   0  0  0  0  0  0  0  0  0  0  0  0
   18.0258   -7.5826  -12.3570 C   0  0  0  0  0  0  0  0  0  0  0  0
   17.1494   -7.0263  -13.1071 O   0  0  0  0  0  0  0  0  0  0  0  0
   21.9034   -5.4662  -13.2049 O   0  0  0  0  0  0  0  0  0  0  0  0
   12.4295   -7.3981   -6.8139 C   0  0  0  0  0  0  0  0  0  0  0  0
   14.0252   -8.0162   -7.3838 S   0  0  0  0  0  0  0  0  0  0  0  0
   14.6284   -7.0753   -8.8077 C   0  0  0  0  0  0  0  0  0  0  0  0
   15.9166   -7.7196   -9.3068 C   0  0  0  0  0  0  0  0  0  0  0  0
   16.4325   -7.0140  -10.5178 C   0  0  2  0  0  0  0  0  0  0  0  0
   17.7007   -7.5656  -10.9845 N   0  0  0  0  0  0  0  0  0  0  0  0
   16.6990   -5.5930  -10.1288 C   0  0  0  0  0  0  0  0  0  0  0  0
   15.7187   -4.8671   -9.8299 O   0  0  0  0  0  0  0  0  0  0  0  0
   17.9601   -5.0591  -10.0869 O   0  0  0  0  0  0  0  0  0  0  0  0
  1  2  1  0
  3  2  1  0
  3  4  1  1
  3  5  1  0
  5  6  2  0
  7  5  1  0
  7  8  1  0
  8 12  1  0
  8  9  1  6
 10  9  1  0
 11 10  2  0
 12 20  1  0
 13 12  2  0
 14 10  1  0
 16 17  1  0
 16 15  1  0
 18 17  1  0
 19 18  1  1
 20 19  1  0
 21 19  1  0
 21 23  1  0
 22 21  2  0
M  END
$$$$
