SDM.pdb
     RDKit          3D

 23 22  0  0  1  0  0  0  0  0999 V2000
   14.7646  -15.8177  -16.6049 O   0  0  0  0  0  0  0  0  0  0  0  0
   15.0487  -14.5819  -17.1358 C   0  0  0  0  0  0  0  0  0  0  0  0
   15.7680  -13.6741  -16.1654 C   0  0  2  0  0  0  0  0  0  0  0  0
   15.0091  -13.5496  -14.9560 N   0  0  0  0  0  0  0  0  0  0  0  0
   16.0526  -12.3455  -16.7138 C   0  0  0  0  0  0  0  0  0  0  0  0
   16.7193  -12.1684  -17.7778 O   0  0  0  0  0  0  0  0  0  0  0  0
   15.5728  -11.1921  -16.0443 N   0  0  0  0  0  0  0  0  0  0  0  0
   15.9914   -9.8403  -16.5783 C   0  0  1  0  0  0  0  0  0  0  0  0
   14.7030   -9.0955  -16.6041 C   0  0  0  0  0  0  0  0  0  0  0  0
   14.7040   -7.6766  -16.9098 C   0  0  0  0  0  0  0  0  0  0  0  0
   13.8174   -6.8341  -16.7334 O   0  0  0  0  0  0  0  0  0  0  0  0
   17.0167   -9.3499  -15.6527 C   0  0  0  0  0  0  0  0  0  0  0  0
   16.8265   -9.5288  -14.3990 O   0  0  0  0  0  0  0  0  0  0  0  0
   15.8914   -7.1672  -17.4986 O   0  0  0  0  0  0  0  0  0  0  0  0
   24.2502   -9.7165  -13.1631 C   0  0  0  0  0  0  0  0  0  0  0  0
   22.9308  -10.0583  -14.3443 S   0  0  0  0  0  0  0  0  0  0  0  0
   21.4937   -8.9962  -14.0559 C   0  0  0  0  0  0  0  0  0  0  0  0
   20.4125   -9.3539  -15.0692 C   0  0  0  0  0  0  0  0  0  0  0  0
   19.2336   -8.4469  -14.9353 C   0  0  2  0  0  0  0  0  0  0  0  0
   18.2250   -8.6909  -15.9617 N   0  0  0  0  0  0  0  0  0  0  0  0
   19.7212   -7.0457  -15.1362 C   0  0  0  0  0  0  0  0  0  0  0  0
   19.4865   -6.4891  -16.2372 O   0  0  0  0  0  0  0  0  0  0  0  0
   20.4078   -6.3538  -14.1734 O   0  0  0  0  0  0  0  0  0  0  0  0
  1  2  1  0
  3  2  1  0
  3  4  1  1
  3  5  1  0
  5  6  2  0
  7  5  1  0
  7  8  1  0
  8 12  1  0
  8  9  1  1
 10  9  1  0
 11 10  2  0
 12 20  1  0
 13 12  2  0
 14 10  1  0
 16 17  1  0
 16 15  1  0
 18 17  1  0
 19 18  1  6
 20 19  1  0
 21 19  1  0
 21 23  1  0
 22 21  2  0
M  END
$$$$
