SDM.pdb
     RDKit          3D

 23 22  0  0  1  0  0  0  0  0999 V2000
   17.6981  -13.1213  -14.1095 O   0  0  0  0  0  0  0  0  0  0  0  0
   16.5044  -12.6558  -14.6078 C   0  0  0  0  0  0  0  0  0  0  0  0
   16.5344  -12.4365  -16.1025 C   0  0  2  0  0  0  0  0  0  0  0  0
   17.0175  -13.6143  -16.7611 N   0  0  0  0  0  0  0  0  0  0  0  0
   17.3354  -11.2773  -16.5042 C   0  0  0  0  0  0  0  0  0  0  0  0
   18.2131  -11.3303  -17.4179 O   0  0  0  0  0  0  0  0  0  0  0  0
   17.1395  -10.0309  -15.8584 N   0  0  0  0  0  0  0  0  0  0  0  0
   17.9983   -8.8656  -16.2972 C   0  0  1  0  0  0  0  0  0  0  0  0
   17.1619   -7.6939  -15.9191 C   0  0  0  0  0  0  0  0  0  0  0  0
   17.7314   -6.3602  -15.9800 C   0  0  0  0  0  0  0  0  0  0  0  0
   17.7070   -5.4561  -15.1381 O   0  0  0  0  0  0  0  0  0  0  0  0
   19.2707   -9.0227  -15.5868 C   0  0  0  0  0  0  0  0  0  0  0  0
   19.2291   -9.3445  -14.3479 O   0  0  0  0  0  0  0  0  0  0  0  0
   18.4211   -6.0317  -17.1769 O   0  0  0  0  0  0  0  0  0  0  0  0
   26.9551  -10.7496  -15.1047 C   0  0  0  0  0  0  0  0  0  0  0  0
   25.5037  -10.4116  -16.1208 S   0  0  0  0  0  0  0  0  0  0  0  0
   24.1339   -9.7724  -15.1250 C   0  0  0  0  0  0  0  0  0  0  0  0
   22.9013   -9.6506  -16.0136 C   0  0  0  0  0  0  0  0  0  0  0  0
   21.7460   -9.0902  -15.2508 C   0  0  2  0  0  0  0  0  0  0  0  0
   20.5770   -8.8680  -16.0961 N   0  0  0  0  0  0  0  0  0  0  0  0
   22.1612   -7.7492  -14.7302 C   0  0  0  0  0  0  0  0  0  0  0  0
   22.5904   -7.6784  -13.5520 O   0  0  0  0  0  0  0  0  0  0  0  0
   22.0913   -6.6068  -15.4831 O   0  0  0  0  0  0  0  0  0  0  0  0
  1  2  1  0
  3  2  1  0
  3  4  1  6
  3  5  1  0
  5  6  2  0
  7  5  1  0
  7  8  1  0
  8 12  1  0
  8  9  1  1
 10  9  1  0
 11 10  2  0
 12 20  1  0
 13 12  2  0
 14 10  1  0
 16 17  1  0
 16 15  1  0
 18 17  1  0
 19 18  1  6
 20 19  1  0
 21 19  1  0
 21 23  1  0
 22 21  2  0
M  END
$$$$
