SDM.pdb
     RDKit          3D

 23 22  0  0  1  0  0  0  0  0999 V2000
   21.0394   -5.4094  -14.4364 O   0  0  0  0  0  0  0  0  0  0  0  0
   20.6680   -5.2649  -15.7521 C   0  0  0  0  0  0  0  0  0  0  0  0
   19.7903   -6.3921  -16.2445 C   0  0  2  0  0  0  0  0  0  0  0  0
   18.5061   -6.3257  -15.6116 N   0  0  0  0  0  0  0  0  0  0  0  0
   20.3782   -7.7185  -16.0404 C   0  0  0  0  0  0  0  0  0  0  0  0
   19.6819   -8.7501  -15.7976 O   0  0  0  0  0  0  0  0  0  0  0  0
   21.7842   -7.8819  -16.1124 N   0  0  0  0  0  0  0  0  0  0  0  0
   22.3374   -9.2868  -16.0219 C   0  0  1  0  0  0  0  0  0  0  0  0
   21.7235   -9.9472  -17.2062 C   0  0  0  0  0  0  0  0  0  0  0  0
   21.8396  -11.3857  -17.3621 C   0  0  0  0  0  0  0  0  0  0  0  0
   22.8531  -12.0882  -17.4410 O   0  0  0  0  0  0  0  0  0  0  0  0
   23.7957   -9.1390  -16.0331 C   0  0  0  0  0  0  0  0  0  0  0  0
   24.3211   -8.4565  -16.9808 O   0  0  0  0  0  0  0  0  0  0  0  0
   20.6175  -12.1047  -17.4364 O   0  0  0  0  0  0  0  0  0  0  0  0
   27.3891  -14.0041  -14.5566 C   0  0  0  0  0  0  0  0  0  0  0  0
   28.5827  -13.0682  -15.5325 S   0  0  0  0  0  0  0  0  0  0  0  0
   28.0848  -11.3362  -15.7023 C   0  0  0  0  0  0  0  0  0  0  0  0
   26.6298  -11.2029  -15.2678 C   0  0  0  0  0  0  0  0  0  0  0  0
   26.1369   -9.8079  -15.4715 C   0  0  2  0  0  0  0  0  0  0  0  0
   24.7303   -9.6572  -15.1124 N   0  0  0  0  0  0  0  0  0  0  0  0
   26.2422   -9.5047  -16.9339 C   0  0  0  0  0  0  0  0  0  0  0  0
   27.0404   -8.6055  -17.2964 O   0  0  0  0  0  0  0  0  0  0  0  0
   25.5073  -10.1649  -17.8833 O   0  0  0  0  0  0  0  0  0  0  0  0
  1  2  1  0
  3  2  1  0
  3  4  1  1
  3  5  1  0
  5  6  2  0
  7  5  1  0
  7  8  1  0
  8 12  1  0
  8  9  1  6
 10  9  1  0
 11 10  2  0
 12 20  1  0
 13 12  2  0
 14 10  1  0
 16 17  1  0
 16 15  1  0
 18 17  1  0
 19 18  1  6
 20 19  1  0
 21 19  1  0
 21 23  1  0
 22 21  2  0
M  END
$$$$
