SDM.pdb
     RDKit          3D

 23 22  0  0  1  0  0  0  0  0999 V2000
   19.6070  -13.1129  -17.3316 O   0  0  0  0  0  0  0  0  0  0  0  0
   18.6906  -12.9491  -16.3201 C   0  0  0  0  0  0  0  0  0  0  0  0
   17.5326  -12.0607  -16.7114 C   0  0  2  0  0  0  0  0  0  0  0  0
   16.8825  -12.5871  -17.8752 N   0  0  0  0  0  0  0  0  0  0  0  0
   17.9215  -10.6676  -16.9453 C   0  0  0  0  0  0  0  0  0  0  0  0
   17.4519   -9.9722  -17.8960 O   0  0  0  0  0  0  0  0  0  0  0  0
   18.8621  -10.0475  -16.0853 N   0  0  0  0  0  0  0  0  0  0  0  0
   19.1779   -8.5870  -16.3203 C   0  0  1  0  0  0  0  0  0  0  0  0
   17.8283   -7.9602  -16.2863 C   0  0  0  0  0  0  0  0  0  0  0  0
   17.7134   -6.5166  -16.1875 C   0  0  0  0  0  0  0  0  0  0  0  0
   18.3785   -5.6356  -16.7427 O   0  0  0  0  0  0  0  0  0  0  0  0
   20.1073   -8.2068  -15.2525 C   0  0  0  0  0  0  0  0  0  0  0  0
   20.2229   -8.9957  -14.2502 O   0  0  0  0  0  0  0  0  0  0  0  0
   16.6907   -6.0306  -15.3308 O   0  0  0  0  0  0  0  0  0  0  0  0
   26.6885   -9.5870  -14.4657 C   0  0  0  0  0  0  0  0  0  0  0  0
   24.9123   -9.4157  -14.7279 S   0  0  0  0  0  0  0  0  0  0  0  0
   24.5367   -8.0235  -15.8221 C   0  0  0  0  0  0  0  0  0  0  0  0
   23.0291   -7.9690  -16.0409 C   0  0  0  0  0  0  0  0  0  0  0  0
   22.3625   -7.1681  -14.9710 C   0  0  2  0  0  0  0  0  0  0  0  0
   20.9216   -7.0576  -15.1754 N   0  0  0  0  0  0  0  0  0  0  0  0
   22.9146   -5.7782  -15.0423 C   0  0  0  0  0  0  0  0  0  0  0  0
   23.8074   -5.4527  -14.2211 O   0  0  0  0  0  0  0  0  0  0  0  0
   22.4868   -4.8560  -15.9608 O   0  0  0  0  0  0  0  0  0  0  0  0
  1  2  1  0
  3  2  1  0
  3  4  1  6
  3  5  1  0
  5  6  2  0
  7  5  1  0
  7  8  1  0
  8 12  1  0
  8  9  1  1
 10  9  1  0
 11 10  2  0
 12 20  1  0
 13 12  2  0
 14 10  1  0
 16 17  1  0
 16 15  1  0
 18 17  1  0
 19 18  1  6
 20 19  1  0
 21 19  1  0
 21 23  1  0
 22 21  2  0
M  END
$$$$
