SDM.pdb
     RDKit          3D

 23 22  0  0  1  0  0  0  0  0999 V2000
   28.0410  -17.6064  -17.0055 O   0  0  0  0  0  0  0  0  0  0  0  0
   28.9590  -18.1382  -16.1314 C   0  0  0  0  0  0  0  0  0  0  0  0
   28.4905  -19.4263  -15.4952 C   0  0  2  0  0  0  0  0  0  0  0  0
   28.3072  -20.4312  -16.5007 N   0  0  0  0  0  0  0  0  0  0  0  0
   27.2612  -19.2748  -14.7125 C   0  0  0  0  0  0  0  0  0  0  0  0
   26.2910  -18.5500  -15.0883 O   0  0  0  0  0  0  0  0  0  0  0  0
   27.1264  -19.9577  -13.4780 N   0  0  0  0  0  0  0  0  0  0  0  0
   25.8197  -19.8128  -12.7299 C   0  0  1  0  0  0  0  0  0  0  0  0
   24.8592  -20.5075  -13.6300 C   0  0  0  0  0  0  0  0  0  0  0  0
   23.5321  -19.9522  -13.8239 C   0  0  0  0  0  0  0  0  0  0  0  0
   23.1992  -18.8092  -14.1546 O   0  0  0  0  0  0  0  0  0  0  0  0
   26.0472  -20.4202  -11.4155 C   0  0  0  0  0  0  0  0  0  0  0  0
   27.1951  -20.9401  -11.1866 O   0  0  0  0  0  0  0  0  0  0  0  0
   22.4470  -20.8414  -13.6049 O   0  0  0  0  0  0  0  0  0  0  0  0
   29.8042  -20.1784   -6.2830 C   0  0  0  0  0  0  0  0  0  0  0  0
   28.1650  -19.4260   -6.2807 S   0  0  0  0  0  0  0  0  0  0  0  0
   26.9230  -20.5448   -6.9752 C   0  0  0  0  0  0  0  0  0  0  0  0
   26.5784  -20.0756   -8.3840 C   0  0  0  0  0  0  0  0  0  0  0  0
   25.5911  -20.9937   -9.0265 C   0  0  2  0  0  0  0  0  0  0  0  0
   25.1497  -20.5105  -10.3311 N   0  0  0  0  0  0  0  0  0  0  0  0
   24.3783  -21.0318   -8.1493 C   0  0  0  0  0  0  0  0  0  0  0  0
   23.3186  -20.5141   -8.5810 O   0  0  0  0  0  0  0  0  0  0  0  0
   24.3804  -21.6047   -6.9048 O   0  0  0  0  0  0  0  0  0  0  0  0
  1  2  1  0
  3  2  1  0
  3  4  1  6
  3  5  1  0
  5  6  2  0
  7  5  1  0
  7  8  1  0
  8 12  1  0
  8  9  1  6
 10  9  1  0
 11 10  2  0
 12 20  1  0
 13 12  2  0
 14 10  1  0
 16 17  1  0
 16 15  1  0
 18 17  1  0
 19 18  1  1
 20 19  1  0
 21 19  1  0
 21 23  1  0
 22 21  2  0
M  END
$$$$
