SDM.pdb
     RDKit          3D

 23 22  0  0  1  0  0  0  0  0999 V2000
   21.9171  -12.2858  -16.8554 O   0  0  0  0  0  0  0  0  0  0  0  0
   20.8349  -12.5020  -16.0358 C   0  0  0  0  0  0  0  0  0  0  0  0
   19.5349  -12.0180  -16.6350 C   0  0  2  0  0  0  0  0  0  0  0  0
   19.3081  -12.6589  -17.8967 N   0  0  0  0  0  0  0  0  0  0  0  0
   19.4758  -10.5630  -16.7976 C   0  0  0  0  0  0  0  0  0  0  0  0
   19.6920   -9.9849  -17.9053 O   0  0  0  0  0  0  0  0  0  0  0  0
   19.1653   -9.7441  -15.6833 N   0  0  0  0  0  0  0  0  0  0  0  0
   19.0285   -8.2560  -15.9169 C   0  0  1  0  0  0  0  0  0  0  0  0
   17.7238   -7.9508  -15.2686 C   0  0  0  0  0  0  0  0  0  0  0  0
   17.3133   -6.5681  -15.1054 C   0  0  0  0  0  0  0  0  0  0  0  0
   16.8265   -6.0041  -14.1196 O   0  0  0  0  0  0  0  0  0  0  0  0
   20.2200   -7.6502  -15.3154 C   0  0  0  0  0  0  0  0  0  0  0  0
   20.6852   -8.1786  -14.2456 O   0  0  0  0  0  0  0  0  0  0  0  0
   17.4912   -5.7281  -16.2362 O   0  0  0  0  0  0  0  0  0  0  0  0
   26.3355   -7.3278  -18.3073 C   0  0  0  0  0  0  0  0  0  0  0  0
   25.3231   -6.0190  -17.5893 S   0  0  0  0  0  0  0  0  0  0  0  0
   24.1211   -6.6843  -16.4107 C   0  0  0  0  0  0  0  0  0  0  0  0
   23.1938   -5.5568  -15.9720 C   0  0  0  0  0  0  0  0  0  0  0  0
   22.1334   -6.0648  -15.0512 C   0  0  2  0  0  0  0  0  0  0  0  0
   20.9515   -6.5325  -15.7686 N   0  0  0  0  0  0  0  0  0  0  0  0
   21.6921   -4.9156  -14.1989 C   0  0  0  0  0  0  0  0  0  0  0  0
   20.5628   -4.4131  -14.4208 O   0  0  0  0  0  0  0  0  0  0  0  0
   22.4665   -4.3958  -13.1953 O   0  0  0  0  0  0  0  0  0  0  0  0
  1  2  1  0
  3  2  1  0
  3  4  1  6
  3  5  1  0
  5  6  2  0
  7  5  1  0
  7  8  1  0
  8 12  1  0
  8  9  1  1
 10  9  1  0
 11 10  2  0
 12 20  1  0
 13 12  2  0
 14 10  1  0
 16 17  1  0
 16 15  1  0
 18 17  1  0
 19 18  1  6
 20 19  1  0
 21 19  1  0
 21 23  1  0
 22 21  2  0
M  END
$$$$
