SDM.pdb
     RDKit          3D

 23 22  0  0  1  0  0  0  0  0999 V2000
   24.8795  -19.2723  -17.8320 O   0  0  0  0  0  0  0  0  0  0  0  0
   24.3379  -19.1343  -16.5760 C   0  0  0  0  0  0  0  0  0  0  0  0
   25.3177  -19.4584  -15.4722 C   0  0  2  0  0  0  0  0  0  0  0  0
   25.8035  -20.7980  -15.6258 N   0  0  0  0  0  0  0  0  0  0  0  0
   24.7596  -19.2820  -14.1290 C   0  0  0  0  0  0  0  0  0  0  0  0
   24.1956  -18.2102  -13.7533 O   0  0  0  0  0  0  0  0  0  0  0  0
   24.8411  -20.3407  -13.1903 N   0  0  0  0  0  0  0  0  0  0  0  0
   24.2597  -20.1097  -11.8132 C   0  0  1  0  0  0  0  0  0  0  0  0
   23.1972  -21.1494  -11.7380 C   0  0  0  0  0  0  0  0  0  0  0  0
   21.8053  -20.7444  -11.6630 C   0  0  0  0  0  0  0  0  0  0  0  0
   21.3208  -19.6499  -11.3562 O   0  0  0  0  0  0  0  0  0  0  0  0
   25.3828  -20.2479  -10.8816 C   0  0  0  0  0  0  0  0  0  0  0  0
   26.4362  -20.8455  -11.2980 O   0  0  0  0  0  0  0  0  0  0  0  0
   20.8482  -21.7419  -11.9871 O   0  0  0  0  0  0  0  0  0  0  0  0
   29.0453  -19.3452   -3.8707 C   0  0  0  0  0  0  0  0  0  0  0  0
   27.6187  -19.0037   -4.9203 S   0  0  0  0  0  0  0  0  0  0  0  0
   27.7842  -19.7964   -6.5391 C   0  0  0  0  0  0  0  0  0  0  0  0
   26.5733  -19.4271   -7.3882 C   0  0  0  0  0  0  0  0  0  0  0  0
   26.6506  -20.0662   -8.7359 C   0  0  2  0  0  0  0  0  0  0  0  0
   25.4688  -19.7953   -9.5483 N   0  0  0  0  0  0  0  0  0  0  0  0
   26.6982  -21.5480   -8.5268 C   0  0  0  0  0  0  0  0  0  0  0  0
   25.6132  -22.1803   -8.5205 O   0  0  0  0  0  0  0  0  0  0  0  0
   27.8698  -22.2343   -8.3436 O   0  0  0  0  0  0  0  0  0  0  0  0
  1  2  1  0
  3  2  1  0
  3  4  1  6
  3  5  1  0
  5  6  2  0
  7  5  1  0
  7  8  1  0
  8 12  1  0
  8  9  1  1
 10  9  1  0
 11 10  2  0
 12 20  1  0
 13 12  2  0
 14 10  1  0
 16 17  1  0
 16 15  1  0
 18 17  1  0
 19 18  1  1
 20 19  1  0
 21 19  1  0
 21 23  1  0
 22 21  2  0
M  END
$$$$
