SDM.pdb
     RDKit          3D

 23 22  0  0  1  0  0  0  0  0999 V2000
   14.2454  -10.3205  -20.4239 O   0  0  0  0  0  0  0  0  0  0  0  0
   15.1009   -9.2656  -20.2114 C   0  0  0  0  0  0  0  0  0  0  0  0
   15.7158   -9.2734  -18.8311 C   0  0  2  0  0  0  0  0  0  0  0  0
   14.6925   -9.1301  -17.8378 N   0  0  0  0  0  0  0  0  0  0  0  0
   16.7390   -8.2415  -18.6446 C   0  0  0  0  0  0  0  0  0  0  0  0
   17.7444   -8.1230  -19.4083 O   0  0  0  0  0  0  0  0  0  0  0  0
   16.6228   -7.3236  -17.5709 N   0  0  0  0  0  0  0  0  0  0  0  0
   17.7334   -6.3143  -17.3815 C   0  0  1  0  0  0  0  0  0  0  0  0
   16.9826   -5.0761  -17.0370 C   0  0  0  0  0  0  0  0  0  0  0  0
   17.7051   -3.9139  -16.5529 C   0  0  0  0  0  0  0  0  0  0  0  0
   18.9204   -3.7522  -16.3986 O   0  0  0  0  0  0  0  0  0  0  0  0
   18.5995   -6.8707  -16.3380 C   0  0  0  0  0  0  0  0  0  0  0  0
   18.0415   -7.3543  -15.2916 O   0  0  0  0  0  0  0  0  0  0  0  0
   16.9121   -2.7899  -16.2008 O   0  0  0  0  0  0  0  0  0  0  0  0
   24.3204  -11.4272  -13.7550 C   0  0  0  0  0  0  0  0  0  0  0  0
   23.3821  -10.6642  -15.0931 S   0  0  0  0  0  0  0  0  0  0  0  0
   22.4021   -9.2634  -14.4983 C   0  0  0  0  0  0  0  0  0  0  0  0
   21.6138   -8.6882  -15.6694 C   0  0  0  0  0  0  0  0  0  0  0  0
   20.7170   -7.5825  -15.2182 C   0  0  2  0  0  0  0  0  0  0  0  0
   20.0075   -6.9541  -16.3282 N   0  0  0  0  0  0  0  0  0  0  0  0
   21.5826   -6.5247  -14.6072 C   0  0  0  0  0  0  0  0  0  0  0  0
   21.9940   -5.5963  -15.3462 O   0  0  0  0  0  0  0  0  0  0  0  0
   21.9400   -6.5308  -13.2846 O   0  0  0  0  0  0  0  0  0  0  0  0
  1  2  1  0
  3  2  1  0
  3  4  1  1
  3  5  1  0
  5  6  2  0
  7  5  1  0
  7  8  1  0
  8 12  1  0
  8  9  1  1
 10  9  1  0
 11 10  2  0
 12 20  1  0
 13 12  2  0
 14 10  1  0
 16 17  1  0
 16 15  1  0
 18 17  1  0
 19 18  1  6
 20 19  1  0
 21 19  1  0
 21 23  1  0
 22 21  2  0
M  END
$$$$
