SDM.pdb
     RDKit          3D

 23 22  0  0  1  0  0  0  0  0999 V2000
   29.6628  -23.2835  -15.4449 O   0  0  0  0  0  0  0  0  0  0  0  0
   28.9945  -23.5457  -16.6172 C   0  0  0  0  0  0  0  0  0  0  0  0
   28.4724  -22.2978  -17.2907 C   0  0  2  0  0  0  0  0  0  0  0  0
   29.5451  -21.6091  -17.9457 N   0  0  0  0  0  0  0  0  0  0  0  0
   27.7825  -21.3873  -16.3732 C   0  0  0  0  0  0  0  0  0  0  0  0
   28.3136  -20.3250  -15.9289 O   0  0  0  0  0  0  0  0  0  0  0  0
   26.4632  -21.6846  -15.9491 N   0  0  0  0  0  0  0  0  0  0  0  0
   25.7399  -20.6509  -15.1148 C   0  0  1  0  0  0  0  0  0  0  0  0
   24.4008  -20.5996  -15.7626 C   0  0  0  0  0  0  0  0  0  0  0  0
   24.1014  -19.5331  -16.7006 C   0  0  0  0  0  0  0  0  0  0  0  0
   23.5144  -19.5837  -17.7867 O   0  0  0  0  0  0  0  0  0  0  0  0
   25.7863  -21.1513  -13.7378 C   0  0  0  0  0  0  0  0  0  0  0  0
   26.6090  -22.0959  -13.4714 O   0  0  0  0  0  0  0  0  0  0  0  0
   24.5415  -18.2352  -16.3291 O   0  0  0  0  0  0  0  0  0  0  0  0
   28.1818  -19.5321   -7.4913 C   0  0  0  0  0  0  0  0  0  0  0  0
   26.5808  -20.0936   -8.1033 S   0  0  0  0  0  0  0  0  0  0  0  0
   26.7670  -21.4165   -9.3248 C   0  0  0  0  0  0  0  0  0  0  0  0
   26.5619  -20.8274  -10.7157 C   0  0  0  0  0  0  0  0  0  0  0  0
   25.2606  -21.2724  -11.2979 C   0  0  2  0  0  0  0  0  0  0  0  0
   25.0290  -20.7198  -12.6288 N   0  0  0  0  0  0  0  0  0  0  0  0
   24.1715  -20.7432  -10.4172 C   0  0  0  0  0  0  0  0  0  0  0  0
   23.5862  -19.6888  -10.7677 O   0  0  0  0  0  0  0  0  0  0  0  0
   23.7926  -21.3598   -9.2538 O   0  0  0  0  0  0  0  0  0  0  0  0
  1  2  1  0
  3  2  1  0
  3  4  1  1
  3  5  1  0
  5  6  2  0
  7  5  1  0
  7  8  1  0
  8 12  1  0
  8  9  1  6
 10  9  1  0
 11 10  2  0
 12 20  1  0
 13 12  2  0
 14 10  1  0
 16 17  1  0
 16 15  1  0
 18 17  1  0
 19 18  1  1
 20 19  1  0
 21 19  1  0
 21 23  1  0
 22 21  2  0
M  END
$$$$
