SDM.pdb
     RDKit          3D

 23 22  0  0  1  0  0  0  0  0999 V2000
   19.0467  -13.9034  -18.3993 O   0  0  0  0  0  0  0  0  0  0  0  0
   19.3949  -14.0483  -17.0773 C   0  0  0  0  0  0  0  0  0  0  0  0
   18.3257  -13.5583  -16.1285 C   0  0  2  0  0  0  0  0  0  0  0  0
   17.1598  -14.3851  -16.2348 N   0  0  0  0  0  0  0  0  0  0  0  0
   17.9616  -12.1546  -16.3377 C   0  0  0  0  0  0  0  0  0  0  0  0
   17.5569  -11.7073  -17.4530 O   0  0  0  0  0  0  0  0  0  0  0  0
   18.0573  -11.2368  -15.2619 N   0  0  0  0  0  0  0  0  0  0  0  0
   17.7350   -9.7855  -15.5412 C   0  0  1  0  0  0  0  0  0  0  0  0
   16.7540   -9.4655  -14.4685 C   0  0  0  0  0  0  0  0  0  0  0  0
   16.3099   -8.0948  -14.2922 C   0  0  0  0  0  0  0  0  0  0  0  0
   16.6044   -7.0841  -14.9391 O   0  0  0  0  0  0  0  0  0  0  0  0
   19.0182   -9.0790  -15.4917 C   0  0  0  0  0  0  0  0  0  0  0  0
   19.8793   -9.4614  -14.6243 O   0  0  0  0  0  0  0  0  0  0  0  0
   15.4035   -7.8664  -13.2234 O   0  0  0  0  0  0  0  0  0  0  0  0
   24.6534   -4.2706  -18.3477 C   0  0  0  0  0  0  0  0  0  0  0  0
   22.9808   -4.9320  -18.4828 S   0  0  0  0  0  0  0  0  0  0  0  0
   22.5463   -5.9314  -17.0375 C   0  0  0  0  0  0  0  0  0  0  0  0
   21.1655   -6.5370  -17.2614 C   0  0  0  0  0  0  0  0  0  0  0  0
   20.7781   -7.4203  -16.1212 C   0  0  2  0  0  0  0  0  0  0  0  0
   19.4520   -8.0044  -16.2960 N   0  0  0  0  0  0  0  0  0  0  0  0
   20.7127   -6.5650  -14.8941 C   0  0  0  0  0  0  0  0  0  0  0  0
   19.6581   -5.9180  -14.6787 O   0  0  0  0  0  0  0  0  0  0  0  0
   21.7502   -6.4620  -14.0052 O   0  0  0  0  0  0  0  0  0  0  0  0
  1  2  1  0
  3  2  1  0
  3  4  1  6
  3  5  1  0
  5  6  2  0
  7  5  1  0
  7  8  1  0
  8 12  1  0
  8  9  1  1
 10  9  1  0
 11 10  2  0
 12 20  1  0
 13 12  2  0
 14 10  1  0
 16 17  1  0
 16 15  1  0
 18 17  1  0
 19 18  1  6
 20 19  1  0
 21 19  1  0
 21 23  1  0
 22 21  2  0
M  END
$$$$
