NWY.pdb
     RDKit          3D

 35 37  0  0  1  0  0  0  0  0999 V2000
   14.8620  -15.4285  -22.4134 N   0  0  0  0  0  0  0  0  0  0  0  0
   15.5236  -14.9555  -21.2588 C   0  0  0  0  0  0  0  0  0  0  0  0
   15.7958  -13.7387  -21.1742 O   0  0  0  0  0  0  0  0  0  0  0  0
   15.8832  -15.8683  -20.1832 C   0  0  0  0  0  0  0  0  0  0  0  0
   17.2299  -15.6173  -19.5483 C   0  0  2  0  0  0  0  0  0  0  0  0
   18.1975  -16.2958  -20.4280 N   0  0  0  0  0  0  0  0  0  0  0  0
   17.3387  -16.1186  -18.1636 C   0  0  0  0  0  0  0  0  0  0  0  0
   17.2239  -17.3501  -17.9431 O   0  0  0  0  0  0  0  0  0  0  0  0
   17.5687  -15.2890  -17.0437 N   0  0  0  0  0  0  0  0  0  0  0  0
   17.6928  -15.8176  -15.6636 C   0  0  1  0  0  0  0  0  0  0  0  0
   19.0218  -15.3814  -15.1821 C   0  0  0  0  0  0  0  0  0  0  0  0
   20.1307  -16.3384  -15.2486 C   0  0  0  0  0  0  0  0  0  0  0  0
   21.0446  -16.5606  -16.2419 C   0  0  0  0  0  0  0  0  0  0  0  0
   21.8663  -17.5442  -15.8536 N   0  0  0  0  0  0  0  0  0  0  0  0
   21.5190  -17.9781  -14.6276 C   0  0  0  0  0  0  0  0  0  0  0  0
   22.0571  -18.9574  -13.7883 C   0  0  0  0  0  0  0  0  0  0  0  0
   21.5090  -19.1904  -12.5567 C   0  0  0  0  0  0  0  0  0  0  0  0
   20.4128  -18.4551  -12.1317 C   0  0  0  0  0  0  0  0  0  0  0  0
   19.8996  -17.4974  -12.9734 C   0  0  0  0  0  0  0  0  0  0  0  0
   20.4385  -17.2402  -14.2312 C   0  0  0  0  0  0  0  0  0  0  0  0
   16.5105  -15.4542  -14.9298 C   0  0  0  0  0  0  0  0  0  0  0  0
   16.1921  -14.2427  -14.7997 O   0  0  0  0  0  0  0  0  0  0  0  0
   11.7851  -20.0590  -17.9540 O   0  0  0  0  0  0  0  0  0  0  0  0
   12.2251  -18.9457  -17.2405 C   0  0  0  0  0  0  0  0  0  0  0  0
   13.2999  -18.1868  -17.6486 C   0  0  0  0  0  0  0  0  0  0  0  0
   13.6648  -17.1042  -16.8820 C   0  0  0  0  0  0  0  0  0  0  0  0
   12.9950  -16.7460  -15.7164 C   0  0  0  0  0  0  0  0  0  0  0  0
   13.4135  -15.5874  -14.9119 C   0  0  0  0  0  0  0  0  0  0  0  0
   14.3424  -16.0026  -13.7445 C   0  0  2  0  0  0  0  0  0  0  0  0
   15.6246  -16.4106  -14.3146 N   0  0  0  0  0  0  0  0  0  0  0  0
   13.7562  -17.1477  -13.0383 C   0  0  0  0  0  0  0  0  0  0  0  0
   14.4121  -18.3597  -12.8515 O   0  0  0  0  0  0  0  0  0  0  0  0
   11.9255  -17.5420  -15.3544 C   0  0  0  0  0  0  0  0  0  0  0  0
   11.5174  -18.6339  -16.0811 C   0  0  0  0  0  0  0  0  0  0  0  0
   12.5864  -17.0923  -12.5476 O   0  0  0  0  0  0  0  0  0  0  0  0
  1  2  1  0
  2  4  1  0
  3  2  2  0
  4  5  1  0
  5  7  1  0
  5  6  1  6
  7  8  2  0
  9  7  1  0
  9 10  1  0
 10 11  1  1
 12 11  1  0
 13 12  2  0
 14 13  1  0
 15 14  1  0
 15 20  2  0
 16 15  1  0
 17 16  2  0
 17 18  1  0
 18 19  2  0
 19 20  1  0
 20 12  1  0
 21 22  2  0
 21 10  1  0
 23 24  1  0
 24 25  2  0
 25 26  1  0
 27 26  2  0
 27 28  1  0
 29 28  1  6
 29 30  1  0
 30 21  1  0
 31 32  1  0
 31 29  1  0
 33 27  1  0
 34 24  1  0
 34 33  2  0
 35 31  2  0
M  END
$$$$
