NWY.pdb
     RDKit          3D

 35 37  0  0  1  0  0  0  0  0999 V2000
   24.3105  -16.9862  -20.5963 N   0  0  0  0  0  0  0  0  0  0  0  0
   23.4559  -15.8884  -20.3531 C   0  0  0  0  0  0  0  0  0  0  0  0
   22.3055  -15.8987  -20.8412 O   0  0  0  0  0  0  0  0  0  0  0  0
   23.9052  -14.7625  -19.5470 C   0  0  0  0  0  0  0  0  0  0  0  0
   25.3474  -14.8222  -19.1038 C   0  0  2  0  0  0  0  0  0  0  0  0
   25.3927  -15.8999  -18.1004 N   0  0  0  0  0  0  0  0  0  0  0  0
   25.8492  -13.5550  -18.5355 C   0  0  0  0  0  0  0  0  0  0  0  0
   25.4250  -13.1704  -17.4171 O   0  0  0  0  0  0  0  0  0  0  0  0
   26.7957  -12.7263  -19.1779 N   0  0  0  0  0  0  0  0  0  0  0  0
   27.2658  -11.4444  -18.5991 C   0  0  1  0  0  0  0  0  0  0  0  0
   28.6503  -11.2642  -19.0880 C   0  0  0  0  0  0  0  0  0  0  0  0
   29.3044   -9.9728  -18.8546 C   0  0  0  0  0  0  0  0  0  0  0  0
   29.4180   -9.2371  -17.7070 C   0  0  0  0  0  0  0  0  0  0  0  0
   30.0990   -8.1176  -17.9833 N   0  0  0  0  0  0  0  0  0  0  0  0
   30.4392   -8.0944  -19.2855 C   0  0  0  0  0  0  0  0  0  0  0  0
   31.1539   -7.1727  -20.0553 C   0  0  0  0  0  0  0  0  0  0  0  0
   31.3775   -7.4072  -21.3845 C   0  0  0  0  0  0  0  0  0  0  0  0
   30.8950   -8.5635  -21.9786 C   0  0  0  0  0  0  0  0  0  0  0  0
   30.1944   -9.4560  -21.2028 C   0  0  0  0  0  0  0  0  0  0  0  0
   29.9533   -9.2416  -19.8483 C   0  0  0  0  0  0  0  0  0  0  0  0
   26.2756  -10.4357  -18.8647 C   0  0  0  0  0  0  0  0  0  0  0  0
   25.7144  -10.3787  -19.9907 O   0  0  0  0  0  0  0  0  0  0  0  0
   21.6480   -9.2080  -12.7414 O   0  0  0  0  0  0  0  0  0  0  0  0
   22.0610   -9.1436  -14.0709 C   0  0  0  0  0  0  0  0  0  0  0  0
   21.5449   -8.2257  -14.9591 C   0  0  0  0  0  0  0  0  0  0  0  0
   22.0114   -8.2342  -16.2532 C   0  0  0  0  0  0  0  0  0  0  0  0
   22.9794   -9.1282  -16.6997 C   0  0  0  0  0  0  0  0  0  0  0  0
   23.4531   -9.1192  -18.0927 C   0  0  0  0  0  0  0  0  0  0  0  0
   24.8433   -8.4497  -18.2236 C   0  0  2  0  0  0  0  0  0  0  0  0
   25.8562   -9.4516  -17.8983 N   0  0  0  0  0  0  0  0  0  0  0  0
   24.9464   -7.3471  -17.2606 C   0  0  0  0  0  0  0  0  0  0  0  0
   24.1178   -6.2303  -17.2718 O   0  0  0  0  0  0  0  0  0  0  0  0
   23.4613  -10.0263  -15.7672 C   0  0  0  0  0  0  0  0  0  0  0  0
   23.0322  -10.0632  -14.4628 C   0  0  0  0  0  0  0  0  0  0  0  0
   25.8223   -7.3532  -16.3414 O   0  0  0  0  0  0  0  0  0  0  0  0
  1  2  1  0
  2  4  1  0
  3  2  2  0
  4  5  1  0
  5  7  1  0
  5  6  1  1
  7  8  2  0
  9  7  1  0
  9 10  1  0
 10 11  1  6
 12 11  1  0
 13 12  2  0
 14 13  1  0
 15 14  1  0
 15 20  2  0
 16 15  1  0
 17 16  2  0
 17 18  1  0
 18 19  2  0
 19 20  1  0
 20 12  1  0
 21 22  2  0
 21 10  1  0
 23 24  1  0
 24 25  2  0
 25 26  1  0
 27 26  2  0
 27 28  1  0
 29 28  1  1
 29 30  1  0
 30 21  1  0
 31 32  1  0
 31 29  1  0
 33 27  1  0
 34 24  1  0
 34 33  2  0
 35 31  2  0
M  END
$$$$
