NWY.pdb
     RDKit          3D

 35 37  0  0  1  0  0  0  0  0999 V2000
   28.2973  -20.6480  -19.4192 N   0  0  0  0  0  0  0  0  0  0  0  0
   27.3863  -21.7209  -19.3041 C   0  0  0  0  0  0  0  0  0  0  0  0
   26.7278  -22.0649  -20.3091 O   0  0  0  0  0  0  0  0  0  0  0  0
   27.2156  -22.4168  -18.0368 C   0  0  0  0  0  0  0  0  0  0  0  0
   28.0839  -21.9191  -16.9063 C   0  0  2  0  0  0  0  0  0  0  0  0
   29.2568  -22.8106  -16.9066 N   0  0  0  0  0  0  0  0  0  0  0  0
   27.4147  -21.9332  -15.5901 C   0  0  0  0  0  0  0  0  0  0  0  0
   27.0007  -23.0226  -15.1208 O   0  0  0  0  0  0  0  0  0  0  0  0
   27.2034  -20.7788  -14.8038 N   0  0  0  0  0  0  0  0  0  0  0  0
   26.5904  -20.8265  -13.4543 C   0  0  1  0  0  0  0  0  0  0  0  0
   27.3356  -19.8438  -12.6373 C   0  0  0  0  0  0  0  0  0  0  0  0
   28.0756  -20.3333  -11.4699 C   0  0  0  0  0  0  0  0  0  0  0  0
   29.3421  -20.8420  -11.3791 C   0  0  0  0  0  0  0  0  0  0  0  0
   29.5823  -21.1636  -10.1015 N   0  0  0  0  0  0  0  0  0  0  0  0
   28.5060  -20.8799   -9.3445 C   0  0  0  0  0  0  0  0  0  0  0  0
   28.2572  -21.0110   -7.9755 C   0  0  0  0  0  0  0  0  0  0  0  0
   27.0557  -20.6209   -7.4503 C   0  0  0  0  0  0  0  0  0  0  0  0
   26.0739  -20.0920   -8.2745 C   0  0  0  0  0  0  0  0  0  0  0  0
   26.3399  -19.9726   -9.6177 C   0  0  0  0  0  0  0  0  0  0  0  0
   27.5540  -20.3614  -10.1775 C   0  0  0  0  0  0  0  0  0  0  0  0
   25.1647  -20.7036  -13.5983 C   0  0  0  0  0  0  0  0  0  0  0  0
   24.6770  -19.8202  -14.3518 O   0  0  0  0  0  0  0  0  0  0  0  0
   16.4726  -22.3800  -12.9798 O   0  0  0  0  0  0  0  0  0  0  0  0
   17.8610  -22.4652  -12.8947 C   0  0  0  0  0  0  0  0  0  0  0  0
   18.5412  -22.2544  -11.7154 C   0  0  0  0  0  0  0  0  0  0  0  0
   19.9129  -22.3592  -11.7239 C   0  0  0  0  0  0  0  0  0  0  0  0
   20.6382  -22.6684  -12.8702 C   0  0  0  0  0  0  0  0  0  0  0  0
   22.1062  -22.7652  -12.8509 C   0  0  0  0  0  0  0  0  0  0  0  0
   22.7768  -21.3964  -13.1242 C   0  0  2  0  0  0  0  0  0  0  0  0
   24.2158  -21.5538  -12.9239 N   0  0  0  0  0  0  0  0  0  0  0  0
   22.2741  -20.4064  -12.1646 C   0  0  0  0  0  0  0  0  0  0  0  0
   21.2066  -19.5529  -12.4214 O   0  0  0  0  0  0  0  0  0  0  0  0
   19.9053  -22.8691  -14.0240 C   0  0  0  0  0  0  0  0  0  0  0  0
   18.5356  -22.7774  -14.0736 C   0  0  0  0  0  0  0  0  0  0  0  0
   22.8018  -20.2716  -11.0176 O   0  0  0  0  0  0  0  0  0  0  0  0
  1  2  1  0
  2  4  1  0
  3  2  2  0
  4  5  1  0
  5  7  1  0
  5  6  1  1
  7  8  2  0
  9  7  1  0
  9 10  1  0
 10 11  1  1
 12 11  1  0
 13 12  2  0
 14 13  1  0
 15 14  1  0
 15 20  2  0
 16 15  1  0
 17 16  2  0
 17 18  1  0
 18 19  2  0
 19 20  1  0
 20 12  1  0
 21 22  2  0
 21 10  1  0
 23 24  1  0
 24 25  2  0
 25 26  1  0
 27 26  2  0
 27 28  1  0
 29 28  1  1
 29 30  1  0
 30 21  1  0
 31 32  1  0
 31 29  1  0
 33 27  1  0
 34 24  1  0
 34 33  2  0
 35 31  2  0
M  END
$$$$
