NWY.pdb
     RDKit          3D

 35 37  0  0  1  0  0  0  0  0999 V2000
   27.8300  -24.1512  -19.9440 N   0  0  0  0  0  0  0  0  0  0  0  0
   27.6315  -22.9554  -19.2194 C   0  0  0  0  0  0  0  0  0  0  0  0
   27.9264  -21.8668  -19.7577 O   0  0  0  0  0  0  0  0  0  0  0  0
   27.0919  -22.9877  -17.8677 C   0  0  0  0  0  0  0  0  0  0  0  0
   27.8616  -22.1837  -16.8473 C   0  0  2  0  0  0  0  0  0  0  0  0
   29.1209  -22.9228  -16.6520 N   0  0  0  0  0  0  0  0  0  0  0  0
   27.1503  -22.0113  -15.5648 C   0  0  0  0  0  0  0  0  0  0  0  0
   26.4045  -22.9311  -15.1451 O   0  0  0  0  0  0  0  0  0  0  0  0
   27.2536  -20.8561  -14.7584 N   0  0  0  0  0  0  0  0  0  0  0  0
   26.5553  -20.7190  -13.4572 C   0  0  1  0  0  0  0  0  0  0  0  0
   27.4192  -19.8537  -12.6246 C   0  0  0  0  0  0  0  0  0  0  0  0
   28.2859  -20.4929  -11.6295 C   0  0  0  0  0  0  0  0  0  0  0  0
   29.5450  -21.0111  -11.7604 C   0  0  0  0  0  0  0  0  0  0  0  0
   29.9319  -21.4975  -10.5742 N   0  0  0  0  0  0  0  0  0  0  0  0
   28.9599  -21.3135   -9.6613 C   0  0  0  0  0  0  0  0  0  0  0  0
   28.8757  -21.6222   -8.3008 C   0  0  0  0  0  0  0  0  0  0  0  0
   27.7534  -21.3023   -7.5870 C   0  0  0  0  0  0  0  0  0  0  0  0
   26.6888  -20.6685   -8.2098 C   0  0  0  0  0  0  0  0  0  0  0  0
   26.7929  -20.3748   -9.5485 C   0  0  0  0  0  0  0  0  0  0  0  0
   27.9236  -20.6890  -10.2977 C   0  0  0  0  0  0  0  0  0  0  0  0
   25.1920  -20.3378  -13.7112 C   0  0  0  0  0  0  0  0  0  0  0  0
   24.9317  -19.4311  -14.5455 O   0  0  0  0  0  0  0  0  0  0  0  0
   17.2124  -19.6929  -16.5685 O   0  0  0  0  0  0  0  0  0  0  0  0
   18.4911  -20.0552  -16.1492 C   0  0  0  0  0  0  0  0  0  0  0  0
   18.7980  -21.3350  -15.7423 C   0  0  0  0  0  0  0  0  0  0  0  0
   20.0873  -21.6032  -15.3444 C   0  0  0  0  0  0  0  0  0  0  0  0
   21.0899  -20.6386  -15.3364 C   0  0  0  0  0  0  0  0  0  0  0  0
   22.4584  -20.9528  -14.8972 C   0  0  0  0  0  0  0  0  0  0  0  0
   22.6891  -20.5703  -13.4144 C   0  0  2  0  0  0  0  0  0  0  0  0
   24.0569  -20.9448  -13.0620 N   0  0  0  0  0  0  0  0  0  0  0  0
   21.7610  -21.3264  -12.5655 C   0  0  0  0  0  0  0  0  0  0  0  0
   20.5077  -20.8603  -12.1833 O   0  0  0  0  0  0  0  0  0  0  0  0
   20.7261  -19.3729  -15.7538 C   0  0  0  0  0  0  0  0  0  0  0  0
   19.4550  -19.0487  -16.1614 C   0  0  0  0  0  0  0  0  0  0  0  0
   22.0612  -22.4774  -12.1213 O   0  0  0  0  0  0  0  0  0  0  0  0
  1  2  1  0
  2  4  1  0
  3  2  2  0
  4  5  1  0
  5  7  1  0
  5  6  1  1
  7  8  2  0
  9  7  1  0
  9 10  1  0
 10 11  1  1
 12 11  1  0
 13 12  2  0
 14 13  1  0
 15 14  1  0
 15 20  2  0
 16 15  1  0
 17 16  2  0
 17 18  1  0
 18 19  2  0
 19 20  1  0
 20 12  1  0
 21 22  2  0
 21 10  1  0
 23 24  1  0
 24 25  2  0
 25 26  1  0
 27 26  2  0
 27 28  1  0
 29 28  1  6
 29 30  1  0
 30 21  1  0
 31 32  1  0
 31 29  1  0
 33 27  1  0
 34 24  1  0
 34 33  2  0
 35 31  2  0
M  END
$$$$
