NWY.pdb
     RDKit          3D

 35 37  0  0  1  0  0  0  0  0999 V2000
   28.7392  -22.0395  -19.4504 N   0  0  0  0  0  0  0  0  0  0  0  0
   27.3960  -22.4591  -19.3308 C   0  0  0  0  0  0  0  0  0  0  0  0
   26.7036  -22.5711  -20.3651 O   0  0  0  0  0  0  0  0  0  0  0  0
   26.8252  -22.7574  -18.0252 C   0  0  0  0  0  0  0  0  0  0  0  0
   27.7473  -22.5293  -16.8515 C   0  0  2  0  0  0  0  0  0  0  0  0
   28.5624  -23.7534  -16.7645 N   0  0  0  0  0  0  0  0  0  0  0  0
   27.0415  -22.2777  -15.5791 C   0  0  0  0  0  0  0  0  0  0  0  0
   26.4962  -23.2360  -14.9768 O   0  0  0  0  0  0  0  0  0  0  0  0
   26.9349  -21.0036  -14.9785 N   0  0  0  0  0  0  0  0  0  0  0  0
   26.3331  -20.7940  -13.6394 C   0  0  1  0  0  0  0  0  0  0  0  0
   27.2566  -19.8907  -12.9185 C   0  0  0  0  0  0  0  0  0  0  0  0
   28.1376  -20.4705  -11.9000 C   0  0  0  0  0  0  0  0  0  0  0  0
   29.3851  -21.0184  -12.0222 C   0  0  0  0  0  0  0  0  0  0  0  0
   29.7936  -21.4237  -10.8131 N   0  0  0  0  0  0  0  0  0  0  0  0
   28.8475  -21.1571   -9.8934 C   0  0  0  0  0  0  0  0  0  0  0  0
   28.7922  -21.3645   -8.5124 C   0  0  0  0  0  0  0  0  0  0  0  0
   27.6929  -20.9743   -7.7977 C   0  0  0  0  0  0  0  0  0  0  0  0
   26.6231  -20.3694   -8.4400 C   0  0  0  0  0  0  0  0  0  0  0  0
   26.6986  -20.1757   -9.7987 C   0  0  0  0  0  0  0  0  0  0  0  0
   27.8055  -20.5629  -10.5493 C   0  0  0  0  0  0  0  0  0  0  0  0
   24.9556  -20.4191  -13.8140 C   0  0  0  0  0  0  0  0  0  0  0  0
   24.5879  -19.8242  -14.8614 O   0  0  0  0  0  0  0  0  0  0  0  0
   16.5605  -20.4763  -15.4089 O   0  0  0  0  0  0  0  0  0  0  0  0
   17.9268  -20.6098  -15.1691 C   0  0  0  0  0  0  0  0  0  0  0  0
   18.8562  -19.7428  -15.7002 C   0  0  0  0  0  0  0  0  0  0  0  0
   20.1849  -19.9505  -15.4105 C   0  0  0  0  0  0  0  0  0  0  0  0
   20.6264  -20.9962  -14.6060 C   0  0  0  0  0  0  0  0  0  0  0  0
   22.0555  -21.1987  -14.3204 C   0  0  0  0  0  0  0  0  0  0  0  0
   22.5254  -20.3559  -13.1092 C   0  0  2  0  0  0  0  0  0  0  0  0
   23.9232  -20.6904  -12.8451 N   0  0  0  0  0  0  0  0  0  0  0  0
   21.7265  -20.7088  -11.9299 C   0  0  0  0  0  0  0  0  0  0  0  0
   20.6124  -19.9918  -11.5074 O   0  0  0  0  0  0  0  0  0  0  0  0
   19.6517  -21.8348  -14.1007 C   0  0  0  0  0  0  0  0  0  0  0  0
   18.3117  -21.6750  -14.3570 C   0  0  0  0  0  0  0  0  0  0  0  0
   22.0185  -21.7144  -11.2116 O   0  0  0  0  0  0  0  0  0  0  0  0
  1  2  1  0
  2  4  1  0
  3  2  2  0
  4  5  1  0
  5  7  1  0
  5  6  1  1
  7  8  2  0
  9  7  1  0
  9 10  1  0
 10 11  1  6
 12 11  1  0
 13 12  2  0
 14 13  1  0
 15 14  1  0
 15 20  2  0
 16 15  1  0
 17 16  2  0
 17 18  1  0
 18 19  2  0
 19 20  1  0
 20 12  1  0
 21 22  2  0
 21 10  1  0
 23 24  1  0
 24 25  2  0
 25 26  1  0
 27 26  2  0
 27 28  1  0
 29 28  1  6
 29 30  1  0
 30 21  1  0
 31 32  1  0
 31 29  1  0
 33 27  1  0
 34 24  1  0
 34 33  2  0
 35 31  2  0
M  END
$$$$
