NWY.pdb
     RDKit          3D

 35 37  0  0  1  0  0  0  0  0999 V2000
   31.3345  -24.6397  -15.6983 N   0  0  0  0  0  0  0  0  0  0  0  0
   30.1503  -24.2867  -16.3819 C   0  0  0  0  0  0  0  0  0  0  0  0
   29.7913  -24.9730  -17.3627 O   0  0  0  0  0  0  0  0  0  0  0  0
   29.3587  -23.1427  -15.9527 C   0  0  0  0  0  0  0  0  0  0  0  0
   28.8279  -22.2721  -17.0664 C   0  0  2  0  0  0  0  0  0  0  0  0
   30.0171  -21.6122  -17.6329 N   0  0  0  0  0  0  0  0  0  0  0  0
   27.8360  -21.2732  -16.6208 C   0  0  0  0  0  0  0  0  0  0  0  0
   28.1944  -20.3523  -15.8448 O   0  0  0  0  0  0  0  0  0  0  0  0
   26.4800  -21.2818  -17.0167 N   0  0  0  0  0  0  0  0  0  0  0  0
   25.5306  -20.2009  -16.6568 C   0  0  1  0  0  0  0  0  0  0  0  0
   25.5757  -19.2346  -17.7761 C   0  0  0  0  0  0  0  0  0  0  0  0
   26.6602  -18.2481  -17.7957 C   0  0  0  0  0  0  0  0  0  0  0  0
   27.7245  -18.1250  -18.6462 C   0  0  0  0  0  0  0  0  0  0  0  0
   28.4560  -17.0702  -18.2647 N   0  0  0  0  0  0  0  0  0  0  0  0
   27.9018  -16.4918  -17.1829 C   0  0  0  0  0  0  0  0  0  0  0  0
   28.2617  -15.3742  -16.4249 C   0  0  0  0  0  0  0  0  0  0  0  0
   27.4952  -14.9837  -15.3612 C   0  0  0  0  0  0  0  0  0  0  0  0
   26.3535  -15.6960  -15.0265 C   0  0  0  0  0  0  0  0  0  0  0  0
   26.0186  -16.7920  -15.7853 C   0  0  0  0  0  0  0  0  0  0  0  0
   26.7809  -17.2103  -16.8728 C   0  0  0  0  0  0  0  0  0  0  0  0
   24.2796  -20.8020  -16.2796 C   0  0  0  0  0  0  0  0  0  0  0  0
   23.8551  -21.8189  -16.8893 O   0  0  0  0  0  0  0  0  0  0  0  0
   16.5786  -22.3889  -12.1774 O   0  0  0  0  0  0  0  0  0  0  0  0
   17.7924  -21.8193  -12.5573 C   0  0  0  0  0  0  0  0  0  0  0  0
   17.8626  -20.6524  -13.2861 C   0  0  0  0  0  0  0  0  0  0  0  0
   19.1045  -20.1619  -13.6172 C   0  0  0  0  0  0  0  0  0  0  0  0
   20.2876  -20.7936  -13.2473 C   0  0  0  0  0  0  0  0  0  0  0  0
   21.6020  -20.2499  -13.6234 C   0  0  0  0  0  0  0  0  0  0  0  0
   22.1948  -20.9775  -14.8552 C   0  0  2  0  0  0  0  0  0  0  0  0
   23.4468  -20.3125  -15.2096 N   0  0  0  0  0  0  0  0  0  0  0  0
   21.2648  -20.8617  -15.9845 C   0  0  0  0  0  0  0  0  0  0  0  0
   20.3638  -21.8560  -16.3498 O   0  0  0  0  0  0  0  0  0  0  0  0
   20.1580  -21.9598  -12.5182 C   0  0  0  0  0  0  0  0  0  0  0  0
   18.9447  -22.4950  -12.1599 C   0  0  0  0  0  0  0  0  0  0  0  0
   21.2330  -19.8195  -16.7093 O   0  0  0  0  0  0  0  0  0  0  0  0
  1  2  1  0
  2  4  1  0
  3  2  2  0
  4  5  1  0
  5  7  1  0
  5  6  1  1
  7  8  2  0
  9  7  1  0
  9 10  1  0
 10 11  1  6
 12 11  1  0
 13 12  2  0
 14 13  1  0
 15 14  1  0
 15 20  2  0
 16 15  1  0
 17 16  2  0
 17 18  1  0
 18 19  2  0
 19 20  1  0
 20 12  1  0
 21 22  2  0
 21 10  1  0
 23 24  1  0
 24 25  2  0
 25 26  1  0
 27 26  2  0
 27 28  1  0
 29 28  1  1
 29 30  1  0
 30 21  1  0
 31 32  1  0
 31 29  1  0
 33 27  1  0
 34 24  1  0
 34 33  2  0
 35 31  2  0
M  END
$$$$
