NWY.pdb
     RDKit          3D

 35 37  0  0  1  0  0  0  0  0999 V2000
   30.1880  -20.9330  -16.6013 N   0  0  0  0  0  0  0  0  0  0  0  0
   29.2079  -21.8519  -16.1659 C   0  0  0  0  0  0  0  0  0  0  0  0
   29.5433  -23.0365  -15.9511 O   0  0  0  0  0  0  0  0  0  0  0  0
   27.8290  -21.4285  -15.9693 C   0  0  0  0  0  0  0  0  0  0  0  0
   27.6141  -20.4286  -14.8585 C   0  0  2  0  0  0  0  0  0  0  0  0
   28.9480  -19.8623  -14.5932 N   0  0  0  0  0  0  0  0  0  0  0  0
   27.0398  -21.0153  -13.6312 C   0  0  0  0  0  0  0  0  0  0  0  0
   26.0400  -21.7712  -13.7188 O   0  0  0  0  0  0  0  0  0  0  0  0
   27.5495  -20.7799  -12.3350 N   0  0  0  0  0  0  0  0  0  0  0  0
   26.7664  -21.0424  -11.1033 C   0  0  1  0  0  0  0  0  0  0  0  0
   27.7022  -20.8317   -9.9771 C   0  0  0  0  0  0  0  0  0  0  0  0
   27.1433  -20.7003   -8.6279 C   0  0  0  0  0  0  0  0  0  0  0  0
   25.8462  -20.7759   -8.2000 C   0  0  0  0  0  0  0  0  0  0  0  0
   25.8221  -20.5848   -6.8748 N   0  0  0  0  0  0  0  0  0  0  0  0
   27.0714  -20.3851   -6.4150 C   0  0  0  0  0  0  0  0  0  0  0  0
   27.5772  -20.1594   -5.1319 C   0  0  0  0  0  0  0  0  0  0  0  0
   28.9221  -20.0032   -4.9360 C   0  0  0  0  0  0  0  0  0  0  0  0
   29.7948  -20.0674   -6.0117 C   0  0  0  0  0  0  0  0  0  0  0  0
   29.2756  -20.2899   -7.2648 C   0  0  0  0  0  0  0  0  0  0  0  0
   27.9115  -20.4525   -7.4914 C   0  0  0  0  0  0  0  0  0  0  0  0
   25.5455  -20.2850  -11.1712 C   0  0  0  0  0  0  0  0  0  0  0  0
   25.5598  -19.0939  -11.5799 O   0  0  0  0  0  0  0  0  0  0  0  0
   18.4902  -19.8270  -15.9368 O   0  0  0  0  0  0  0  0  0  0  0  0
   19.6780  -20.0894  -15.2569 C   0  0  0  0  0  0  0  0  0  0  0  0
   20.7882  -20.6079  -15.8863 C   0  0  0  0  0  0  0  0  0  0  0  0
   21.9188  -20.8354  -15.1361 C   0  0  0  0  0  0  0  0  0  0  0  0
   21.9863  -20.5639  -13.7733 C   0  0  0  0  0  0  0  0  0  0  0  0
   23.2070  -20.8256  -12.9947 C   0  0  0  0  0  0  0  0  0  0  0  0
   23.0408  -20.4190  -11.5098 C   0  0  2  0  0  0  0  0  0  0  0  0
   24.2559  -20.8105  -10.7986 N   0  0  0  0  0  0  0  0  0  0  0  0
   21.9030  -21.1424  -10.9303 C   0  0  0  0  0  0  0  0  0  0  0  0
   20.7230  -20.5296  -10.5230 O   0  0  0  0  0  0  0  0  0  0  0  0
   20.8442  -20.0456  -13.1940 C   0  0  0  0  0  0  0  0  0  0  0  0
   19.6883  -19.7986  -13.8939 C   0  0  0  0  0  0  0  0  0  0  0  0
   21.9364  -22.4008  -10.7639 O   0  0  0  0  0  0  0  0  0  0  0  0
  1  2  1  0
  2  4  1  0
  3  2  2  0
  4  5  1  0
  5  7  1  0
  5  6  1  1
  7  8  2  0
  9  7  1  0
  9 10  1  0
 10 11  1  1
 12 11  1  0
 13 12  2  0
 14 13  1  0
 15 14  1  0
 15 20  2  0
 16 15  1  0
 17 16  2  0
 17 18  1  0
 18 19  2  0
 19 20  1  0
 20 12  1  0
 21 22  2  0
 21 10  1  0
 23 24  1  0
 24 25  2  0
 25 26  1  0
 27 26  2  0
 27 28  1  0
 29 28  1  6
 29 30  1  0
 30 21  1  0
 31 32  1  0
 31 29  1  0
 33 27  1  0
 34 24  1  0
 34 33  2  0
 35 31  2  0
M  END
$$$$
