NWY.pdb
     RDKit          3D

 35 37  0  0  1  0  0  0  0  0999 V2000
   19.5491  -14.2496  -22.1227 N   0  0  0  0  0  0  0  0  0  0  0  0
   20.2265  -13.2357  -21.4103 C   0  0  0  0  0  0  0  0  0  0  0  0
   21.2984  -12.7871  -21.8702 O   0  0  0  0  0  0  0  0  0  0  0  0
   19.6867  -12.7195  -20.1607 C   0  0  0  0  0  0  0  0  0  0  0  0
   20.6492  -12.7119  -18.9973 C   0  0  2  0  0  0  0  0  0  0  0  0
   20.7787  -14.1250  -18.6016 N   0  0  0  0  0  0  0  0  0  0  0  0
   20.2003  -11.8871  -17.8578 C   0  0  0  0  0  0  0  0  0  0  0  0
   19.0598  -12.0812  -17.3679 O   0  0  0  0  0  0  0  0  0  0  0  0
   20.9837  -10.8711  -17.2666 N   0  0  0  0  0  0  0  0  0  0  0  0
   20.4910  -10.0188  -16.1575 C   0  0  1  0  0  0  0  0  0  0  0  0
   21.6595   -9.7791  -15.2826 C   0  0  0  0  0  0  0  0  0  0  0  0
   21.5335   -8.7790  -14.2178 C   0  0  0  0  0  0  0  0  0  0  0  0
   21.0084   -8.8924  -12.9599 C   0  0  0  0  0  0  0  0  0  0  0  0
   21.1061   -7.7053  -12.3479 N   0  0  0  0  0  0  0  0  0  0  0  0
   21.6835   -6.8091  -13.1697 C   0  0  0  0  0  0  0  0  0  0  0  0
   22.0196   -5.4624  -13.0067 C   0  0  0  0  0  0  0  0  0  0  0  0
   22.6293   -4.7739  -14.0196 C   0  0  0  0  0  0  0  0  0  0  0  0
   22.9182   -5.4089  -15.2181 C   0  0  0  0  0  0  0  0  0  0  0  0
   22.5786   -6.7335  -15.3567 C   0  0  0  0  0  0  0  0  0  0  0  0
   21.9580   -7.4570  -14.3418 C   0  0  0  0  0  0  0  0  0  0  0  0
   19.7789   -8.9043  -16.7227 C   0  0  0  0  0  0  0  0  0  0  0  0
   20.2548   -8.2816  -17.7085 O   0  0  0  0  0  0  0  0  0  0  0  0
   13.3815   -3.3203  -19.1347 O   0  0  0  0  0  0  0  0  0  0  0  0
   14.1270   -4.3972  -18.6585 C   0  0  0  0  0  0  0  0  0  0  0  0
   14.7845   -5.2676  -19.4998 C   0  0  0  0  0  0  0  0  0  0  0  0
   15.4973   -6.3035  -18.9419 C   0  0  0  0  0  0  0  0  0  0  0  0
   15.5810   -6.5070  -17.5681 C   0  0  0  0  0  0  0  0  0  0  0  0
   16.3442   -7.6294  -17.0002 C   0  0  0  0  0  0  0  0  0  0  0  0
   17.8424   -7.2778  -16.8277 C   0  0  2  0  0  0  0  0  0  0  0  0
   18.5085   -8.4333  -16.2304 N   0  0  0  0  0  0  0  0  0  0  0  0
   17.9736   -6.1359  -15.9153 C   0  0  0  0  0  0  0  0  0  0  0  0
   18.1536   -4.8237  -16.3392 O   0  0  0  0  0  0  0  0  0  0  0  0
   14.9023   -5.6046  -16.7721 C   0  0  0  0  0  0  0  0  0  0  0  0
   14.1756   -4.5527  -17.2744 C   0  0  0  0  0  0  0  0  0  0  0  0
   17.9300   -6.2890  -14.6555 O   0  0  0  0  0  0  0  0  0  0  0  0
  1  2  1  0
  2  4  1  0
  3  2  2  0
  4  5  1  0
  5  7  1  0
  5  6  1  1
  7  8  2  0
  9  7  1  0
  9 10  1  0
 10 11  1  6
 12 11  1  0
 13 12  2  0
 14 13  1  0
 15 14  1  0
 15 20  2  0
 16 15  1  0
 17 16  2  0
 17 18  1  0
 18 19  2  0
 19 20  1  0
 20 12  1  0
 21 22  2  0
 21 10  1  0
 23 24  1  0
 24 25  2  0
 25 26  1  0
 27 26  2  0
 27 28  1  0
 29 28  1  1
 29 30  1  0
 30 21  1  0
 31 32  1  0
 31 29  1  0
 33 27  1  0
 34 24  1  0
 34 33  2  0
 35 31  2  0
M  END
$$$$
