NWY.pdb
     RDKit          3D

 35 37  0  0  1  0  0  0  0  0999 V2000
   28.4432  -23.5258  -17.5919 N   0  0  0  0  0  0  0  0  0  0  0  0
   28.3874  -22.9222  -16.3163 C   0  0  0  0  0  0  0  0  0  0  0  0
   29.2924  -23.1696  -15.4907 O   0  0  0  0  0  0  0  0  0  0  0  0
   27.2949  -22.0258  -15.9667 C   0  0  0  0  0  0  0  0  0  0  0  0
   26.2946  -21.7688  -17.0681 C   0  0  2  0  0  0  0  0  0  0  0  0
   27.0435  -21.0259  -18.0965 N   0  0  0  0  0  0  0  0  0  0  0  0
   25.1083  -21.0065  -16.6300 C   0  0  0  0  0  0  0  0  0  0  0  0
   25.2492  -20.0641  -15.8110 O   0  0  0  0  0  0  0  0  0  0  0  0
   23.7952  -21.2701  -17.0791 N   0  0  0  0  0  0  0  0  0  0  0  0
   22.6193  -20.4861  -16.6296 C   0  0  1  0  0  0  0  0  0  0  0  0
   21.6642  -20.5072  -17.7591 C   0  0  0  0  0  0  0  0  0  0  0  0
   20.3680  -19.8451  -17.5820 C   0  0  0  0  0  0  0  0  0  0  0  0
   20.0715  -18.6089  -17.0769 C   0  0  0  0  0  0  0  0  0  0  0  0
   18.7431  -18.4427  -17.1074 N   0  0  0  0  0  0  0  0  0  0  0  0
   18.1530  -19.5383  -17.6206 C   0  0  0  0  0  0  0  0  0  0  0  0
   16.8159  -19.8556  -17.8747 C   0  0  0  0  0  0  0  0  0  0  0  0
   16.4844  -21.0606  -18.4311 C   0  0  0  0  0  0  0  0  0  0  0  0
   17.4751  -21.9781  -18.7471 C   0  0  0  0  0  0  0  0  0  0  0  0
   18.7834  -21.6454  -18.4882 C   0  0  0  0  0  0  0  0  0  0  0  0
   19.1477  -20.4261  -17.9232 C   0  0  0  0  0  0  0  0  0  0  0  0
   22.2135  -20.9752  -15.3393 C   0  0  0  0  0  0  0  0  0  0  0  0
   22.3323  -22.1970  -15.0580 O   0  0  0  0  0  0  0  0  0  0  0  0
   27.5014  -20.9996  -11.0564 O   0  0  0  0  0  0  0  0  0  0  0  0
   26.1766  -20.6587  -11.3226 C   0  0  0  0  0  0  0  0  0  0  0  0
   25.8048  -19.9829  -12.4640 C   0  0  0  0  0  0  0  0  0  0  0  0
   24.4734  -19.6875  -12.6447 C   0  0  0  0  0  0  0  0  0  0  0  0
   23.4911  -20.0422  -11.7256 C   0  0  0  0  0  0  0  0  0  0  0  0
   22.0754  -19.7050  -11.9417 C   0  0  0  0  0  0  0  0  0  0  0  0
   21.4058  -20.6588  -12.9615 C   0  0  2  0  0  0  0  0  0  0  0  0
   21.6664  -20.1374  -14.3016 N   0  0  0  0  0  0  0  0  0  0  0  0
   19.9557  -20.6735  -12.7365 C   0  0  0  0  0  0  0  0  0  0  0  0
   19.0311  -20.1164  -13.6134 O   0  0  0  0  0  0  0  0  0  0  0  0
   23.9203  -20.7177  -10.5995 C   0  0  0  0  0  0  0  0  0  0  0  0
   25.2356  -21.0386  -10.3674 C   0  0  0  0  0  0  0  0  0  0  0  0
   19.4537  -21.2091  -11.7005 O   0  0  0  0  0  0  0  0  0  0  0  0
  1  2  1  0
  2  4  1  0
  3  2  2  0
  4  5  1  0
  5  7  1  0
  5  6  1  6
  7  8  2  0
  9  7  1  0
  9 10  1  0
 10 11  1  6
 12 11  1  0
 13 12  2  0
 14 13  1  0
 15 14  1  0
 15 20  2  0
 16 15  1  0
 17 16  2  0
 17 18  1  0
 18 19  2  0
 19 20  1  0
 20 12  1  0
 21 22  2  0
 21 10  1  0
 23 24  1  0
 24 25  2  0
 25 26  1  0
 27 26  2  0
 27 28  1  0
 29 28  1  1
 29 30  1  0
 30 21  1  0
 31 32  1  0
 31 29  1  0
 33 27  1  0
 34 24  1  0
 34 33  2  0
 35 31  2  0
M  END
$$$$
