NWY.pdb
     RDKit          3D

 35 37  0  0  1  0  0  0  0  0999 V2000
   28.7332  -15.9730  -15.2419 N   0  0  0  0  0  0  0  0  0  0  0  0
   28.0937  -16.7712  -16.2157 C   0  0  0  0  0  0  0  0  0  0  0  0
   28.3009  -16.5315  -17.4245 O   0  0  0  0  0  0  0  0  0  0  0  0
   27.2074  -17.8564  -15.8202 C   0  0  0  0  0  0  0  0  0  0  0  0
   27.8985  -19.1126  -15.3465 C   0  0  2  0  0  0  0  0  0  0  0  0
   28.4849  -19.7052  -16.5612 N   0  0  0  0  0  0  0  0  0  0  0  0
   26.9976  -20.0721  -14.6771 C   0  0  0  0  0  0  0  0  0  0  0  0
   25.9737  -20.4800  -15.2802 O   0  0  0  0  0  0  0  0  0  0  0  0
   27.2132  -20.5749  -13.3748 N   0  0  0  0  0  0  0  0  0  0  0  0
   26.2500  -21.4700  -12.6890 C   0  0  1  0  0  0  0  0  0  0  0  0
   26.9323  -21.9318  -11.4603 C   0  0  0  0  0  0  0  0  0  0  0  0
   26.5623  -21.3069  -10.1865 C   0  0  0  0  0  0  0  0  0  0  0  0
   25.3652  -20.7898   -9.7734 C   0  0  0  0  0  0  0  0  0  0  0  0
   25.5104  -20.3192   -8.5282 N   0  0  0  0  0  0  0  0  0  0  0  0
   26.7741  -20.5125   -8.1067 C   0  0  0  0  0  0  0  0  0  0  0  0
   27.4195  -20.2207   -6.9020 C   0  0  0  0  0  0  0  0  0  0  0  0
   28.7364  -20.5470   -6.7258 C   0  0  0  0  0  0  0  0  0  0  0  0
   29.4417  -21.1706   -7.7439 C   0  0  0  0  0  0  0  0  0  0  0  0
   28.7873  -21.4478   -8.9204 C   0  0  0  0  0  0  0  0  0  0  0  0
   27.4480  -21.1267   -9.1252 C   0  0  0  0  0  0  0  0  0  0  0  0
   24.9863  -20.7900  -12.5938 C   0  0  0  0  0  0  0  0  0  0  0  0
   24.9481  -19.5486  -12.3855 O   0  0  0  0  0  0  0  0  0  0  0  0
   17.7221  -16.5939  -13.9226 O   0  0  0  0  0  0  0  0  0  0  0  0
   18.9222  -17.2979  -13.8423 C   0  0  0  0  0  0  0  0  0  0  0  0
   19.9739  -16.8745  -13.0598 C   0  0  0  0  0  0  0  0  0  0  0  0
   21.1217  -17.6326  -13.0409 C   0  0  0  0  0  0  0  0  0  0  0  0
   21.2629  -18.8049  -13.7767 C   0  0  0  0  0  0  0  0  0  0  0  0
   22.5063  -19.5908  -13.7434 C   0  0  0  0  0  0  0  0  0  0  0  0
   22.4577  -20.6993  -12.6632 C   0  0  2  0  0  0  0  0  0  0  0  0
   23.7110  -21.4478  -12.7317 N   0  0  0  0  0  0  0  0  0  0  0  0
   21.3473  -21.6141  -12.9524 C   0  0  0  0  0  0  0  0  0  0  0  0
   20.0977  -21.5292  -12.3481 O   0  0  0  0  0  0  0  0  0  0  0  0
   20.1775  -19.1819  -14.5437 C   0  0  0  0  0  0  0  0  0  0  0  0
   19.0077  -18.4641  -14.6005 C   0  0  0  0  0  0  0  0  0  0  0  0
   21.4717  -22.5587  -13.7918 O   0  0  0  0  0  0  0  0  0  0  0  0
  1  2  1  0
  2  4  1  0
  3  2  2  0
  4  5  1  0
  5  7  1  0
  5  6  1  6
  7  8  2  0
  9  7  1  0
  9 10  1  0
 10 11  1  1
 12 11  1  0
 13 12  2  0
 14 13  1  0
 15 14  1  0
 15 20  2  0
 16 15  1  0
 17 16  2  0
 17 18  1  0
 18 19  2  0
 19 20  1  0
 20 12  1  0
 21 22  2  0
 21 10  1  0
 23 24  1  0
 24 25  2  0
 25 26  1  0
 27 26  2  0
 27 28  1  0
 29 28  1  6
 29 30  1  0
 30 21  1  0
 31 32  1  0
 31 29  1  0
 33 27  1  0
 34 24  1  0
 34 33  2  0
 35 31  2  0
M  END
$$$$
