NWY.pdb
     RDKit          3D

 35 37  0  0  1  0  0  0  0  0999 V2000
   18.6379  -23.1887  -16.9734 N   0  0  0  0  0  0  0  0  0  0  0  0
   19.4795  -23.0762  -18.1019 C   0  0  0  0  0  0  0  0  0  0  0  0
   19.4224  -23.9555  -18.9882 O   0  0  0  0  0  0  0  0  0  0  0  0
   20.3990  -21.9552  -18.2332 C   0  0  0  0  0  0  0  0  0  0  0  0
   21.8356  -22.3290  -18.5093 C   0  0  2  0  0  0  0  0  0  0  0  0
   22.2769  -23.0574  -17.3072 N   0  0  0  0  0  0  0  0  0  0  0  0
   22.7128  -21.1708  -18.7723 C   0  0  0  0  0  0  0  0  0  0  0  0
   22.9308  -20.3415  -17.8539 O   0  0  0  0  0  0  0  0  0  0  0  0
   23.3386  -20.9254  -20.0147 N   0  0  0  0  0  0  0  0  0  0  0  0
   24.2364  -19.7682  -20.2480 C   0  0  1  0  0  0  0  0  0  0  0  0
   25.1888  -20.2005  -21.2941 C   0  0  0  0  0  0  0  0  0  0  0  0
   26.1986  -19.2403  -21.7505 C   0  0  0  0  0  0  0  0  0  0  0  0
   27.3175  -18.7710  -21.1189 C   0  0  0  0  0  0  0  0  0  0  0  0
   27.9313  -17.8994  -21.9293 N   0  0  0  0  0  0  0  0  0  0  0  0
   27.2463  -17.7805  -23.0820 C   0  0  0  0  0  0  0  0  0  0  0  0
   27.4709  -17.0263  -24.2369 C   0  0  0  0  0  0  0  0  0  0  0  0
   26.6070  -17.1065  -25.2946 C   0  0  0  0  0  0  0  0  0  0  0  0
   25.4995  -17.9384  -25.2278 C   0  0  0  0  0  0  0  0  0  0  0  0
   25.2978  -18.6707  -24.0823 C   0  0  0  0  0  0  0  0  0  0  0  0
   26.1616  -18.6077  -22.9921 C   0  0  0  0  0  0  0  0  0  0  0  0
   23.4254  -18.5989  -20.4569 C   0  0  0  0  0  0  0  0  0  0  0  0
   22.3331  -18.6871  -21.0776 O   0  0  0  0  0  0  0  0  0  0  0  0
   18.8116  -11.2834  -20.0279 O   0  0  0  0  0  0  0  0  0  0  0  0
   19.6273  -12.3841  -19.7726 C   0  0  0  0  0  0  0  0  0  0  0  0
   20.7103  -12.3176  -18.9239 C   0  0  0  0  0  0  0  0  0  0  0  0
   21.4606  -13.4544  -18.7306 C   0  0  0  0  0  0  0  0  0  0  0  0
   21.1712  -14.6637  -19.3547 C   0  0  0  0  0  0  0  0  0  0  0  0
   21.9971  -15.8613  -19.1353 C   0  0  0  0  0  0  0  0  0  0  0  0
   22.9698  -16.1133  -20.3137 C   0  0  2  0  0  0  0  0  0  0  0  0
   23.7800  -17.2840  -19.9842 N   0  0  0  0  0  0  0  0  0  0  0  0
   23.8581  -14.9555  -20.4691 C   0  0  0  0  0  0  0  0  0  0  0  0
   23.5301  -13.8222  -21.2053 O   0  0  0  0  0  0  0  0  0  0  0  0
   20.0748  -14.6730  -20.1951 C   0  0  0  0  0  0  0  0  0  0  0  0
   19.2907  -13.5687  -20.4251 C   0  0  0  0  0  0  0  0  0  0  0  0
   25.0055  -14.9262  -19.9261 O   0  0  0  0  0  0  0  0  0  0  0  0
  1  2  1  0
  2  4  1  0
  3  2  2  0
  4  5  1  0
  5  7  1  0
  5  6  1  1
  7  8  2  0
  9  7  1  0
  9 10  1  0
 10 11  1  6
 12 11  1  0
 13 12  2  0
 14 13  1  0
 15 14  1  0
 15 20  2  0
 16 15  1  0
 17 16  2  0
 17 18  1  0
 18 19  2  0
 19 20  1  0
 20 12  1  0
 21 22  2  0
 21 10  1  0
 23 24  1  0
 24 25  2  0
 25 26  1  0
 27 26  2  0
 27 28  1  0
 29 28  1  1
 29 30  1  0
 30 21  1  0
 31 32  1  0
 31 29  1  0
 33 27  1  0
 34 24  1  0
 34 33  2  0
 35 31  2  0
M  END
$$$$
