NWY.pdb
     RDKit          3D

 35 37  0  0  1  0  0  0  0  0999 V2000
   28.2233  -24.2042  -20.3310 N   0  0  0  0  0  0  0  0  0  0  0  0
   28.2692  -23.1357  -19.4087 C   0  0  0  0  0  0  0  0  0  0  0  0
   28.7848  -22.0537  -19.7627 O   0  0  0  0  0  0  0  0  0  0  0  0
   27.7251  -23.2894  -18.0672 C   0  0  0  0  0  0  0  0  0  0  0  0
   28.3689  -22.4272  -17.0080 C   0  0  2  0  0  0  0  0  0  0  0  0
   29.6966  -23.0256  -16.7856 N   0  0  0  0  0  0  0  0  0  0  0  0
   27.6046  -22.3628  -15.7462 C   0  0  0  0  0  0  0  0  0  0  0  0
   27.0768  -23.4083  -15.2912 O   0  0  0  0  0  0  0  0  0  0  0  0
   27.4220  -21.1787  -14.9979 N   0  0  0  0  0  0  0  0  0  0  0  0
   26.6513  -21.1388  -13.7315 C   0  0  1  0  0  0  0  0  0  0  0  0
   27.2812  -20.0833  -12.9084 C   0  0  0  0  0  0  0  0  0  0  0  0
   28.0556  -20.4923  -11.7324 C   0  0  0  0  0  0  0  0  0  0  0  0
   29.3850  -20.7921  -11.6132 C   0  0  0  0  0  0  0  0  0  0  0  0
   29.6358  -21.1210  -10.3396 N   0  0  0  0  0  0  0  0  0  0  0  0
   28.5053  -21.0458   -9.6128 C   0  0  0  0  0  0  0  0  0  0  0  0
   28.2400  -21.2698   -8.2590 C   0  0  0  0  0  0  0  0  0  0  0  0
   26.9756  -21.1009   -7.7646 C   0  0  0  0  0  0  0  0  0  0  0  0
   25.9460  -20.7059   -8.6053 C   0  0  0  0  0  0  0  0  0  0  0  0
   26.2293  -20.4916   -9.9330 C   0  0  0  0  0  0  0  0  0  0  0  0
   27.5070  -20.6559  -10.4615 C   0  0  0  0  0  0  0  0  0  0  0  0
   25.2520  -21.0561  -14.0537 C   0  0  0  0  0  0  0  0  0  0  0  0
   24.8534  -20.2691  -14.9524 O   0  0  0  0  0  0  0  0  0  0  0  0
   16.5300  -22.4802  -14.3803 O   0  0  0  0  0  0  0  0  0  0  0  0
   17.8915  -22.6056  -14.1104 C   0  0  0  0  0  0  0  0  0  0  0  0
   18.3876  -22.6429  -12.8258 C   0  0  0  0  0  0  0  0  0  0  0  0
   19.7466  -22.7688  -12.6530 C   0  0  0  0  0  0  0  0  0  0  0  0
   20.6367  -22.8600  -13.7184 C   0  0  0  0  0  0  0  0  0  0  0  0
   22.0867  -22.9854  -13.5028 C   0  0  0  0  0  0  0  0  0  0  0  0
   22.8148  -21.6308  -13.6846 C   0  0  2  0  0  0  0  0  0  0  0  0
   24.2333  -21.8427  -13.4043 N   0  0  0  0  0  0  0  0  0  0  0  0
   22.2851  -20.6591  -12.7208 C   0  0  0  0  0  0  0  0  0  0  0  0
   21.2090  -19.8180  -12.9823 O   0  0  0  0  0  0  0  0  0  0  0  0
   20.0846  -22.8170  -14.9840 C   0  0  0  0  0  0  0  0  0  0  0  0
   18.7363  -22.6924  -15.2155 C   0  0  0  0  0  0  0  0  0  0  0  0
   22.7957  -20.5298  -11.5654 O   0  0  0  0  0  0  0  0  0  0  0  0
  1  2  1  0
  2  4  1  0
  3  2  2  0
  4  5  1  0
  5  7  1  0
  5  6  1  1
  7  8  2  0
  9  7  1  0
  9 10  1  0
 10 11  1  1
 12 11  1  0
 13 12  2  0
 14 13  1  0
 15 14  1  0
 15 20  2  0
 16 15  1  0
 17 16  2  0
 17 18  1  0
 18 19  2  0
 19 20  1  0
 20 12  1  0
 21 22  2  0
 21 10  1  0
 23 24  1  0
 24 25  2  0
 25 26  1  0
 27 26  2  0
 27 28  1  0
 29 28  1  1
 29 30  1  0
 30 21  1  0
 31 32  1  0
 31 29  1  0
 33 27  1  0
 34 24  1  0
 34 33  2  0
 35 31  2  0
M  END
$$$$
