NWY.pdb
     RDKit          3D

 35 37  0  0  1  0  0  0  0  0999 V2000
   28.0793  -21.6510  -17.6559 N   0  0  0  0  0  0  0  0  0  0  0  0
   28.3537  -22.7227  -16.7780 C   0  0  0  0  0  0  0  0  0  0  0  0
   29.0448  -23.6791  -17.1896 O   0  0  0  0  0  0  0  0  0  0  0  0
   27.8415  -22.7154  -15.4153 C   0  0  0  0  0  0  0  0  0  0  0  0
   27.0496  -21.4885  -15.0311 C   0  0  2  0  0  0  0  0  0  0  0  0
   28.0528  -20.4203  -14.8802 N   0  0  0  0  0  0  0  0  0  0  0  0
   26.2648  -21.6500  -13.7908 C   0  0  0  0  0  0  0  0  0  0  0  0
   25.7689  -22.7715  -13.5168 O   0  0  0  0  0  0  0  0  0  0  0  0
   26.0279  -20.6058  -12.8694 N   0  0  0  0  0  0  0  0  0  0  0  0
   25.2000  -20.7807  -11.6516 C   0  0  1  0  0  0  0  0  0  0  0  0
   25.8675  -19.9921  -10.5928 C   0  0  0  0  0  0  0  0  0  0  0  0
   27.1289  -20.4988  -10.0434 C   0  0  0  0  0  0  0  0  0  0  0  0
   28.1178  -21.2328  -10.6389 C   0  0  0  0  0  0  0  0  0  0  0  0
   29.0780  -21.4675   -9.7355 N   0  0  0  0  0  0  0  0  0  0  0  0
   28.7492  -20.9066   -8.5568 C   0  0  0  0  0  0  0  0  0  0  0  0
   29.4066  -20.8512   -7.3248 C   0  0  0  0  0  0  0  0  0  0  0  0
   28.8449  -20.1850   -6.2702 C   0  0  0  0  0  0  0  0  0  0  0  0
   27.6162  -19.5590   -6.4165 C   0  0  0  0  0  0  0  0  0  0  0  0
   26.9872  -19.6265   -7.6367 C   0  0  0  0  0  0  0  0  0  0  0  0
   27.5371  -20.2974   -8.7258 C   0  0  0  0  0  0  0  0  0  0  0  0
   23.8292  -20.5080  -11.9911 C   0  0  0  0  0  0  0  0  0  0  0  0
   23.4819  -19.3509  -12.3466 O   0  0  0  0  0  0  0  0  0  0  0  0
   22.8167  -20.7567  -18.4623 O   0  0  0  0  0  0  0  0  0  0  0  0
   22.3773  -21.1286  -17.1931 C   0  0  0  0  0  0  0  0  0  0  0  0
   22.9839  -22.1303  -16.4676 C   0  0  0  0  0  0  0  0  0  0  0  0
   22.4829  -22.4310  -15.2222 C   0  0  0  0  0  0  0  0  0  0  0  0
   21.3931  -21.7673  -14.6677 C   0  0  0  0  0  0  0  0  0  0  0  0
   20.8736  -22.1167  -13.3362 C   0  0  0  0  0  0  0  0  0  0  0  0
   21.3941  -21.1506  -12.2437 C   0  0  2  0  0  0  0  0  0  0  0  0
   22.7843  -21.5007  -11.9604 N   0  0  0  0  0  0  0  0  0  0  0  0
   20.6055  -21.3287  -11.0189 C   0  0  0  0  0  0  0  0  0  0  0  0
   21.1158  -21.8642   -9.8413 O   0  0  0  0  0  0  0  0  0  0  0  0
   20.8237  -20.7726  -15.4390 C   0  0  0  0  0  0  0  0  0  0  0  0
   21.2820  -20.4305  -16.6879 C   0  0  0  0  0  0  0  0  0  0  0  0
   19.3812  -20.9956  -10.9677 O   0  0  0  0  0  0  0  0  0  0  0  0
  1  2  1  0
  2  4  1  0
  3  2  2  0
  4  5  1  0
  5  7  1  0
  5  6  1  1
  7  8  2  0
  9  7  1  0
  9 10  1  0
 10 11  1  1
 12 11  1  0
 13 12  2  0
 14 13  1  0
 15 14  1  0
 15 20  2  0
 16 15  1  0
 17 16  2  0
 17 18  1  0
 18 19  2  0
 19 20  1  0
 20 12  1  0
 21 22  2  0
 21 10  1  0
 23 24  1  0
 24 25  2  0
 25 26  1  0
 27 26  2  0
 27 28  1  0
 29 28  1  6
 29 30  1  0
 30 21  1  0
 31 32  1  0
 31 29  1  0
 33 27  1  0
 34 24  1  0
 34 33  2  0
 35 31  2  0
M  END
$$$$
