NWY.pdb
     RDKit          3D

 35 37  0  0  1  0  0  0  0  0999 V2000
   29.3746  -18.8002  -15.5321 N   0  0  0  0  0  0  0  0  0  0  0  0
   28.2638  -19.5955  -15.8898 C   0  0  0  0  0  0  0  0  0  0  0  0
   27.7903  -19.4890  -17.0415 O   0  0  0  0  0  0  0  0  0  0  0  0
   27.6785  -20.5253  -14.9347 C   0  0  0  0  0  0  0  0  0  0  0  0
   28.2624  -20.4725  -13.5433 C   0  0  2  0  0  0  0  0  0  0  0  0
   29.4254  -21.3758  -13.5842 N   0  0  0  0  0  0  0  0  0  0  0  0
   27.3177  -20.8813  -12.4846 C   0  0  0  0  0  0  0  0  0  0  0  0
   26.8395  -22.0431  -12.5003 O   0  0  0  0  0  0  0  0  0  0  0  0
   26.9052  -20.0362  -11.4305 N   0  0  0  0  0  0  0  0  0  0  0  0
   25.8535  -20.4193  -10.4576 C   0  0  1  0  0  0  0  0  0  0  0  0
   26.2595  -19.8203   -9.1674 C   0  0  0  0  0  0  0  0  0  0  0  0
   27.4804  -20.3187   -8.5265 C   0  0  0  0  0  0  0  0  0  0  0  0
   28.5085  -21.0581   -9.0437 C   0  0  0  0  0  0  0  0  0  0  0  0
   29.4043  -21.2809   -8.0735 N   0  0  0  0  0  0  0  0  0  0  0  0
   28.9947  -20.7066   -6.9271 C   0  0  0  0  0  0  0  0  0  0  0  0
   29.5656  -20.6359   -5.6534 C   0  0  0  0  0  0  0  0  0  0  0  0
   28.9321  -19.9581   -4.6479 C   0  0  0  0  0  0  0  0  0  0  0  0
   27.7160  -19.3357   -4.8859 C   0  0  0  0  0  0  0  0  0  0  0  0
   27.1727  -19.4184   -6.1457 C   0  0  0  0  0  0  0  0  0  0  0  0
   27.7967  -20.1012   -7.1863 C   0  0  0  0  0  0  0  0  0  0  0  0
   24.5714  -20.0978  -11.0245 C   0  0  0  0  0  0  0  0  0  0  0  0
   24.4120  -19.0253  -11.6652 O   0  0  0  0  0  0  0  0  0  0  0  0
   23.3620  -25.7167  -15.0750 O   0  0  0  0  0  0  0  0  0  0  0  0
   23.0455  -24.4609  -14.5604 C   0  0  0  0  0  0  0  0  0  0  0  0
   21.7894  -24.1548  -14.0848 C   0  0  0  0  0  0  0  0  0  0  0  0
   21.5663  -22.8889  -13.5945 C   0  0  0  0  0  0  0  0  0  0  0  0
   22.5536  -21.9093  -13.5593 C   0  0  0  0  0  0  0  0  0  0  0  0
   22.2832  -20.5608  -13.0369 C   0  0  0  0  0  0  0  0  0  0  0  0
   22.1281  -20.5609  -11.4961 C   0  0  2  0  0  0  0  0  0  0  0  0
   23.4123  -20.9479  -10.9159 N   0  0  0  0  0  0  0  0  0  0  0  0
   21.1186  -21.5526  -11.1075 C   0  0  0  0  0  0  0  0  0  0  0  0
   21.4021  -22.6967  -10.3695 O   0  0  0  0  0  0  0  0  0  0  0  0
   23.7937  -22.2709  -14.0491 C   0  0  0  0  0  0  0  0  0  0  0  0
   24.0727  -23.5191  -14.5502 C   0  0  0  0  0  0  0  0  0  0  0  0
   19.8991  -21.4162  -11.4341 O   0  0  0  0  0  0  0  0  0  0  0  0
  1  2  1  0
  2  4  1  0
  3  2  2  0
  4  5  1  0
  5  7  1  0
  5  6  1  6
  7  8  2  0
  9  7  1  0
  9 10  1  0
 10 11  1  1
 12 11  1  0
 13 12  2  0
 14 13  1  0
 15 14  1  0
 15 20  2  0
 16 15  1  0
 17 16  2  0
 17 18  1  0
 18 19  2  0
 19 20  1  0
 20 12  1  0
 21 22  2  0
 21 10  1  0
 23 24  1  0
 24 25  2  0
 25 26  1  0
 27 26  2  0
 27 28  1  0
 29 28  1  6
 29 30  1  0
 30 21  1  0
 31 32  1  0
 31 29  1  0
 33 27  1  0
 34 24  1  0
 34 33  2  0
 35 31  2  0
M  END
$$$$
