DQI.pdb
     RDKit          3D

 26 25  0  0  1  0  0  0  0  0999 V2000
   22.7102  -12.6487  -20.0510 N   0  0  0  0  0  0  0  0  0  0  0  0
   23.3490  -11.8479  -19.0220 C   0  0  1  0  0  0  0  0  0  0  0  0
   24.6033  -11.1805  -19.5346 C   0  0  0  0  0  0  0  0  0  0  0  0
   25.6989  -12.1603  -19.6251 C   0  0  0  0  0  0  0  0  0  0  0  0
   25.4477  -13.3811  -19.6737 O   0  0  0  0  0  0  0  0  0  0  0  0
   22.3797  -10.7814  -18.5926 C   0  0  0  0  0  0  0  0  0  0  0  0
   21.8501  -10.0212  -19.4306 O   0  0  0  0  0  0  0  0  0  0  0  0
   27.0133  -11.7190  -19.6561 O   0  0  0  0  0  0  0  0  0  0  0  0
   18.8002  -12.5780  -15.2614 N   0  0  0  0  0  0  0  0  0  0  0  0
   18.1358  -11.7597  -16.2352 C   0  0  0  0  0  0  0  0  0  0  0  0
   17.0890  -12.2008  -16.7604 O   0  0  0  0  0  0  0  0  0  0  0  0
   18.7530  -10.4498  -16.5355 C   0  0  0  0  0  0  0  0  0  0  0  0
   20.0581  -10.2698  -15.8109 C   0  0  0  0  0  0  0  0  0  0  0  0
   21.0676   -9.6865  -16.7411 C   0  0  2  0  0  0  0  0  0  0  0  0
   22.0389  -10.6076  -17.2276 N   0  0  0  0  0  0  0  0  0  0  0  0
   21.8198   -8.6376  -15.9597 C   0  0  0  0  0  0  0  0  0  0  0  0
   22.7872   -9.0052  -15.2658 O   0  0  0  0  0  0  0  0  0  0  0  0
   24.4202   -5.4242  -17.1669 C   0  0  0  0  0  0  0  0  0  0  0  0
   22.9307   -5.2100  -17.3425 C   0  0  0  0  0  0  0  0  0  0  0  0
   22.2868   -4.9770  -16.0140 C   0  0  2  0  0  0  0  0  0  0  0  0
   22.9269   -3.8973  -15.2100 C   0  0  0  0  0  0  0  0  0  0  0  0
   22.2100   -6.2950  -15.2690 C   0  0  2  0  0  0  0  0  0  0  0  0
   21.4552   -7.2797  -16.0003 N   0  0  0  0  0  0  0  0  0  0  0  0
   21.5565   -6.1067  -13.9496 C   0  0  0  0  0  0  0  0  0  0  0  0
   22.2942   -5.9003  -12.7839 O   0  0  0  0  0  0  0  0  0  0  0  0
   20.3065   -6.1276  -13.8396 O   0  0  0  0  0  0  0  0  0  0  0  0
  2  1  1  6
  2  3  1  0
  4  3  1  0
  4  8  1  0
  5  4  2  0
  6  2  1  0
  7  6  2  0
  9 10  1  0
 10 12  1  0
 11 10  2  0
 12 13  1  0
 14 13  1  1
 14 15  1  0
 15  6  1  0
 16 17  2  0
 16 14  1  0
 18 19  1  0
 19 20  1  0
 20 22  1  0
 20 21  1  1
 22 23  1  6
 23 16  1  0
 24 22  1  0
 25 24  1  0
 26 24  2  0
M  END
$$$$
