DQI.pdb
     RDKit          3D

 26 25  0  0  1  0  0  0  0  0999 V2000
   18.1414  -14.0185  -17.7093 N   0  0  0  0  0  0  0  0  0  0  0  0
   19.1984  -13.3847  -18.4771 C   0  0  1  0  0  0  0  0  0  0  0  0
   19.0736  -13.6875  -19.9515 C   0  0  0  0  0  0  0  0  0  0  0  0
   18.4036  -14.9839  -20.1487 C   0  0  0  0  0  0  0  0  0  0  0  0
   17.9089  -15.5897  -19.1769 O   0  0  0  0  0  0  0  0  0  0  0  0
   19.0887  -11.8978  -18.2819 C   0  0  0  0  0  0  0  0  0  0  0  0
   19.8408  -11.1130  -18.8976 O   0  0  0  0  0  0  0  0  0  0  0  0
   18.3249  -15.5292  -21.4214 O   0  0  0  0  0  0  0  0  0  0  0  0
   13.9233   -9.2170  -16.3844 N   0  0  0  0  0  0  0  0  0  0  0  0
   14.2767   -9.3537  -17.7685 C   0  0  0  0  0  0  0  0  0  0  0  0
   13.3638   -9.2726  -18.6207 O   0  0  0  0  0  0  0  0  0  0  0  0
   15.7066   -9.5795  -18.0706 C   0  0  0  0  0  0  0  0  0  0  0  0
   16.5504   -9.5486  -16.8264 C   0  0  0  0  0  0  0  0  0  0  0  0
   17.9469   -9.9508  -17.1620 C   0  0  2  0  0  0  0  0  0  0  0  0
   18.1310  -11.3436  -17.3957 N   0  0  0  0  0  0  0  0  0  0  0  0
   18.7973   -9.5969  -15.9670 C   0  0  0  0  0  0  0  0  0  0  0  0
   18.4326  -10.0033  -14.8470 O   0  0  0  0  0  0  0  0  0  0  0  0
   23.8566  -10.5517  -13.6386 C   0  0  0  0  0  0  0  0  0  0  0  0
   22.7982   -9.4717  -13.7309 C   0  0  0  0  0  0  0  0  0  0  0  0
   21.9839   -9.6574  -14.9704 C   0  0  2  0  0  0  0  0  0  0  0  0
   22.7801   -9.6273  -16.2301 C   0  0  0  0  0  0  0  0  0  0  0  0
   20.8521   -8.6490  -14.9685 C   0  0  2  0  0  0  0  0  0  0  0  0
   19.9709   -8.8318  -16.0930 N   0  0  0  0  0  0  0  0  0  0  0  0
   21.3897   -7.2668  -15.0302 C   0  0  0  0  0  0  0  0  0  0  0  0
   21.8209   -6.5916  -13.8884 O   0  0  0  0  0  0  0  0  0  0  0  0
   21.4742   -6.6553  -16.1228 O   0  0  0  0  0  0  0  0  0  0  0  0
  2  1  1  1
  2  3  1  0
  4  3  1  0
  4  8  1  0
  5  4  2  0
  6  2  1  0
  7  6  2  0
  9 10  1  0
 10 12  1  0
 11 10  2  0
 12 13  1  0
 14 13  1  1
 14 15  1  0
 15  6  1  0
 16 17  2  0
 16 14  1  0
 18 19  1  0
 19 20  1  0
 20 22  1  0
 20 21  1  6
 22 23  1  6
 23 16  1  0
 24 22  1  0
 25 24  1  0
 26 24  2  0
M  END
$$$$
