DQI.pdb
     RDKit          3D

 26 25  0  0  1  0  0  0  0  0999 V2000
   17.2681  -11.4202  -11.9249 N   0  0  0  0  0  0  0  0  0  0  0  0
   16.2576  -10.5206  -11.3978 C   0  0  1  0  0  0  0  0  0  0  0  0
   15.2092  -11.2646  -10.6048 C   0  0  0  0  0  0  0  0  0  0  0  0
   14.3584  -12.0583  -11.5074 C   0  0  0  0  0  0  0  0  0  0  0  0
   14.2906  -11.7728  -12.7198 O   0  0  0  0  0  0  0  0  0  0  0  0
   16.9388   -9.5366  -10.4874 C   0  0  0  0  0  0  0  0  0  0  0  0
   17.7349   -9.9234   -9.6059 O   0  0  0  0  0  0  0  0  0  0  0  0
   13.6318  -13.1263  -11.0028 O   0  0  0  0  0  0  0  0  0  0  0  0
   21.1991   -6.5296  -11.2186 N   0  0  0  0  0  0  0  0  0  0  0  0
   20.1522   -6.3868  -12.1896 C   0  0  0  0  0  0  0  0  0  0  0  0
   20.4749   -6.1271  -13.3705 O   0  0  0  0  0  0  0  0  0  0  0  0
   18.7665   -6.5629  -11.7041 C   0  0  0  0  0  0  0  0  0  0  0  0
   18.7223   -6.8018  -10.2202 C   0  0  0  0  0  0  0  0  0  0  0  0
   17.3284   -7.1407   -9.8120 C   0  0  2  0  0  0  0  0  0  0  0  0
   16.6983   -8.1443  -10.6021 N   0  0  0  0  0  0  0  0  0  0  0  0
   16.5116   -5.8830   -9.9790 C   0  0  0  0  0  0  0  0  0  0  0  0
   16.0132   -5.6519  -11.0974 O   0  0  0  0  0  0  0  0  0  0  0  0
   12.7318   -5.0950   -6.5834 C   0  0  0  0  0  0  0  0  0  0  0  0
   13.6266   -5.0966   -7.8059 C   0  0  0  0  0  0  0  0  0  0  0  0
   14.4230   -3.8330   -7.8591 C   0  0  2  0  0  0  0  0  0  0  0  0
   13.5956   -2.5931   -7.8526 C   0  0  0  0  0  0  0  0  0  0  0  0
   15.3692   -3.8997   -9.0415 C   0  0  2  0  0  0  0  0  0  0  0  0
   16.3072   -4.9853   -8.9155 N   0  0  0  0  0  0  0  0  0  0  0  0
   16.1438   -2.6387   -9.1568 C   0  0  0  0  0  0  0  0  0  0  0  0
   15.6626   -1.5401   -9.8688 O   0  0  0  0  0  0  0  0  0  0  0  0
   17.2679   -2.5196   -8.6118 O   0  0  0  0  0  0  0  0  0  0  0  0
  2  1  1  1
  2  3  1  0
  4  3  1  0
  4  8  1  0
  5  4  2  0
  6  2  1  0
  7  6  2  0
  9 10  1  0
 10 12  1  0
 11 10  2  0
 12 13  1  0
 14 13  1  6
 14 15  1  0
 15  6  1  0
 16 17  2  0
 16 14  1  0
 18 19  1  0
 19 20  1  0
 20 22  1  0
 20 21  1  6
 22 23  1  1
 23 16  1  0
 24 22  1  0
 25 24  1  0
 26 24  2  0
M  END
$$$$
