DQI.pdb
     RDKit          3D

 26 25  0  0  1  0  0  0  0  0999 V2000
   26.4901  -19.9902  -16.7181 N   0  0  0  0  0  0  0  0  0  0  0  0
   27.3616  -19.2452  -15.8273 C   0  0  1  0  0  0  0  0  0  0  0  0
   27.6263  -17.8511  -16.3449 C   0  0  0  0  0  0  0  0  0  0  0  0
   28.3303  -17.9143  -17.6367 C   0  0  0  0  0  0  0  0  0  0  0  0
   29.4040  -18.5415  -17.7372 O   0  0  0  0  0  0  0  0  0  0  0  0
   26.6813  -19.1393  -14.4905 C   0  0  0  0  0  0  0  0  0  0  0  0
   26.8767  -18.1540  -13.7478 O   0  0  0  0  0  0  0  0  0  0  0  0
   27.7937  -17.2726  -18.7428 O   0  0  0  0  0  0  0  0  0  0  0  0
   21.0433  -21.5935  -13.5733 N   0  0  0  0  0  0  0  0  0  0  0  0
   21.1440  -20.5608  -12.5820 C   0  0  0  0  0  0  0  0  0  0  0  0
   20.1031  -20.2231  -11.9748 O   0  0  0  0  0  0  0  0  0  0  0  0
   22.4859  -19.9801  -12.3607 C   0  0  0  0  0  0  0  0  0  0  0  0
   23.5237  -20.6263  -13.2361 C   0  0  0  0  0  0  0  0  0  0  0  0
   24.8508  -19.9937  -12.9846 C   0  0  2  0  0  0  0  0  0  0  0  0
   25.8001  -20.1518  -14.0345 N   0  0  0  0  0  0  0  0  0  0  0  0
   25.4314  -20.6760  -11.7705 C   0  0  0  0  0  0  0  0  0  0  0  0
   25.9033  -21.8206  -11.9109 O   0  0  0  0  0  0  0  0  0  0  0  0
   28.3841  -19.6953   -6.5859 C   0  0  0  0  0  0  0  0  0  0  0  0
   27.5155  -20.5967   -7.4393 C   0  0  0  0  0  0  0  0  0  0  0  0
   26.9034  -19.8117   -8.5542 C   0  0  2  0  0  0  0  0  0  0  0  0
   26.2048  -18.5716   -8.1116 C   0  0  0  0  0  0  0  0  0  0  0  0
   26.0106  -20.7288   -9.3665 C   0  0  2  0  0  0  0  0  0  0  0  0
   25.4489  -20.0548  -10.5086 N   0  0  0  0  0  0  0  0  0  0  0  0
   24.8879  -21.2291   -8.5342 C   0  0  0  0  0  0  0  0  0  0  0  0
   25.0509  -22.2781   -7.6295 O   0  0  0  0  0  0  0  0  0  0  0  0
   23.7445  -20.7189   -8.6190 O   0  0  0  0  0  0  0  0  0  0  0  0
  2  1  1  6
  2  3  1  0
  4  3  1  0
  4  8  1  0
  5  4  2  0
  6  2  1  0
  7  6  2  0
  9 10  1  0
 10 12  1  0
 11 10  2  0
 12 13  1  0
 14 13  1  6
 14 15  1  0
 15  6  1  0
 16 17  2  0
 16 14  1  0
 18 19  1  0
 19 20  1  0
 20 22  1  0
 20 21  1  1
 22 23  1  6
 23 16  1  0
 24 22  1  0
 25 24  1  0
 26 24  2  0
M  END
$$$$
