DQI.pdb
     RDKit          3D

 26 25  0  0  1  0  0  0  0  0999 V2000
   26.8934  -19.8552  -16.3848 N   0  0  0  0  0  0  0  0  0  0  0  0
   27.3905  -18.8814  -15.4294 C   0  0  1  0  0  0  0  0  0  0  0  0
   27.5251  -17.5111  -16.0502 C   0  0  0  0  0  0  0  0  0  0  0  0
   28.2186  -17.6066  -17.3458 C   0  0  0  0  0  0  0  0  0  0  0  0
   29.1567  -18.4145  -17.4983 O   0  0  0  0  0  0  0  0  0  0  0  0
   26.4082  -18.7990  -14.2939 C   0  0  0  0  0  0  0  0  0  0  0  0
   25.9284  -17.7014  -13.9395 O   0  0  0  0  0  0  0  0  0  0  0  0
   27.8235  -16.7931  -18.3972 O   0  0  0  0  0  0  0  0  0  0  0  0
   24.4389  -23.4436  -12.7640 N   0  0  0  0  0  0  0  0  0  0  0  0
   24.3074  -22.9163  -14.0922 C   0  0  0  0  0  0  0  0  0  0  0  0
   24.4730  -23.6976  -15.0557 O   0  0  0  0  0  0  0  0  0  0  0  0
   23.9821  -21.4783  -14.2075 C   0  0  0  0  0  0  0  0  0  0  0  0
   23.8205  -20.8338  -12.8587 C   0  0  0  0  0  0  0  0  0  0  0  0
   25.0137  -19.9885  -12.5650 C   0  0  2  0  0  0  0  0  0  0  0  0
   25.9985  -19.9614  -13.5936 N   0  0  0  0  0  0  0  0  0  0  0  0
   25.6765  -20.5848  -11.3476 C   0  0  0  0  0  0  0  0  0  0  0  0
   26.4596  -21.5394  -11.5150 O   0  0  0  0  0  0  0  0  0  0  0  0
   27.2719  -17.6638   -7.1726 C   0  0  0  0  0  0  0  0  0  0  0  0
   27.1411  -18.7412   -8.2297 C   0  0  0  0  0  0  0  0  0  0  0  0
   26.2205  -19.8176   -7.7524 C   0  0  2  0  0  0  0  0  0  0  0  0
   26.6865  -20.5123   -6.5186 C   0  0  0  0  0  0  0  0  0  0  0  0
   25.9505  -20.7743   -8.8969 C   0  0  2  0  0  0  0  0  0  0  0  0
   25.4305  -20.0916  -10.0535 N   0  0  0  0  0  0  0  0  0  0  0  0
   24.9597  -21.8020   -8.4900 C   0  0  0  0  0  0  0  0  0  0  0  0
   23.6028  -21.6768   -8.7875 O   0  0  0  0  0  0  0  0  0  0  0  0
   25.3150  -22.8269   -7.8589 O   0  0  0  0  0  0  0  0  0  0  0  0
  2  1  1  6
  2  3  1  0
  4  3  1  0
  4  8  1  0
  5  4  2  0
  6  2  1  0
  7  6  2  0
  9 10  1  0
 10 12  1  0
 11 10  2  0
 12 13  1  0
 14 13  1  6
 14 15  1  0
 15  6  1  0
 16 17  2  0
 16 14  1  0
 18 19  1  0
 19 20  1  0
 20 22  1  0
 20 21  1  1
 22 23  1  6
 23 16  1  0
 24 22  1  0
 25 24  1  0
 26 24  2  0
M  END
$$$$
