DQI.pdb
     RDKit          3D

 26 25  0  0  1  0  0  0  0  0999 V2000
   22.5094  -12.7210  -19.5826 N   0  0  0  0  0  0  0  0  0  0  0  0
   23.2233  -11.5896  -19.0185 C   0  0  1  0  0  0  0  0  0  0  0  0
   23.9391  -10.7951  -20.0852 C   0  0  0  0  0  0  0  0  0  0  0  0
   25.0659  -11.5728  -20.6273 C   0  0  0  0  0  0  0  0  0  0  0  0
   25.6579  -12.4044  -19.9104 O   0  0  0  0  0  0  0  0  0  0  0  0
   22.2202  -10.6940  -18.3456 C   0  0  0  0  0  0  0  0  0  0  0  0
   21.2580  -10.2162  -18.9830 O   0  0  0  0  0  0  0  0  0  0  0  0
   25.4667  -11.3763  -21.9403 O   0  0  0  0  0  0  0  0  0  0  0  0
   18.5520   -9.8861  -13.8604 N   0  0  0  0  0  0  0  0  0  0  0  0
   18.7385  -11.1301  -14.5511 C   0  0  0  0  0  0  0  0  0  0  0  0
   17.7704  -11.9206  -14.6133 O   0  0  0  0  0  0  0  0  0  0  0  0
   20.0745  -11.3712  -15.1374 C   0  0  0  0  0  0  0  0  0  0  0  0
   20.9992  -10.2068  -14.9143 C   0  0  0  0  0  0  0  0  0  0  0  0
   21.3806   -9.6150  -16.2291 C   0  0  2  0  0  0  0  0  0  0  0  0
   22.3363  -10.3661  -16.9713 N   0  0  0  0  0  0  0  0  0  0  0  0
   22.0162   -8.2789  -15.9334 C   0  0  0  0  0  0  0  0  0  0  0  0
   23.2540   -8.2361  -15.7964 O   0  0  0  0  0  0  0  0  0  0  0  0
   22.8624   -2.9346  -17.8469 C   0  0  0  0  0  0  0  0  0  0  0  0
   22.5466   -3.6806  -16.5667 C   0  0  0  0  0  0  0  0  0  0  0  0
   22.0095   -5.0387  -16.8847 C   0  0  2  0  0  0  0  0  0  0  0  0
   20.7434   -5.0221  -17.6712 C   0  0  0  0  0  0  0  0  0  0  0  0
   21.8897   -5.8316  -15.5983 C   0  0  2  0  0  0  0  0  0  0  0  0
   21.2512   -7.1047  -15.8120 N   0  0  0  0  0  0  0  0  0  0  0  0
   21.0877   -5.0809  -14.5999 C   0  0  0  0  0  0  0  0  0  0  0  0
   19.7954   -5.4707  -14.2484 O   0  0  0  0  0  0  0  0  0  0  0  0
   21.5516   -4.0611  -14.0345 O   0  0  0  0  0  0  0  0  0  0  0  0
  2  1  1  6
  2  3  1  0
  4  3  1  0
  4  8  1  0
  5  4  2  0
  6  2  1  0
  7  6  2  0
  9 10  1  0
 10 12  1  0
 11 10  2  0
 12 13  1  0
 14 13  1  1
 14 15  1  0
 15  6  1  0
 16 17  2  0
 16 14  1  0
 18 19  1  0
 19 20  1  0
 20 22  1  0
 20 21  1  1
 22 23  1  6
 23 16  1  0
 24 22  1  0
 25 24  1  0
 26 24  2  0
M  END
$$$$
