DQI.pdb
     RDKit          3D

 26 25  0  0  1  0  0  0  0  0999 V2000
   19.7403  -12.3946  -18.5797 N   0  0  0  0  0  0  0  0  0  0  0  0
   20.8381  -11.5490  -18.1462 C   0  0  1  0  0  0  0  0  0  0  0  0
   21.4888  -10.8409  -19.3109 C   0  0  0  0  0  0  0  0  0  0  0  0
   22.4069  -11.7544  -20.0117 C   0  0  0  0  0  0  0  0  0  0  0  0
   22.6910  -12.8628  -19.5150 O   0  0  0  0  0  0  0  0  0  0  0  0
   20.2862  -10.5151  -17.2041 C   0  0  0  0  0  0  0  0  0  0  0  0
   19.1569  -10.0148  -17.3912 O   0  0  0  0  0  0  0  0  0  0  0  0
   22.9551  -11.3763  -21.2282 O   0  0  0  0  0  0  0  0  0  0  0  0
   17.9807  -10.1178  -12.8904 N   0  0  0  0  0  0  0  0  0  0  0  0
   18.5581   -8.8984  -12.4016 C   0  0  0  0  0  0  0  0  0  0  0  0
   17.8503   -8.1578  -11.6827 O   0  0  0  0  0  0  0  0  0  0  0  0
   19.9567   -8.6210  -12.7936 C   0  0  0  0  0  0  0  0  0  0  0  0
   20.4991   -9.6819  -13.7106 C   0  0  0  0  0  0  0  0  0  0  0  0
   20.5616   -9.1516  -15.1032 C   0  0  2  0  0  0  0  0  0  0  0  0
   21.0290  -10.0784  -16.0784 N   0  0  0  0  0  0  0  0  0  0  0  0
   21.5464   -8.0085  -15.0863 C   0  0  0  0  0  0  0  0  0  0  0  0
   22.7601   -8.2815  -15.0155 O   0  0  0  0  0  0  0  0  0  0  0  0
   23.3736   -3.7364  -18.3859 C   0  0  0  0  0  0  0  0  0  0  0  0
   23.1851   -4.1010  -16.9276 C   0  0  0  0  0  0  0  0  0  0  0  0
   22.1808   -5.2006  -16.8005 C   0  0  2  0  0  0  0  0  0  0  0  0
   20.8541   -4.8837  -17.4014 C   0  0  0  0  0  0  0  0  0  0  0  0
   22.0819   -5.6076  -15.3436 C   0  0  2  0  0  0  0  0  0  0  0  0
   21.1266   -6.6675  -15.1479 N   0  0  0  0  0  0  0  0  0  0  0  0
   21.6598   -4.4535  -14.5109 C   0  0  0  0  0  0  0  0  0  0  0  0
   22.5695   -3.4967  -14.0612 O   0  0  0  0  0  0  0  0  0  0  0  0
   20.4585   -4.3004  -14.1816 O   0  0  0  0  0  0  0  0  0  0  0  0
  2  1  1  6
  2  3  1  0
  4  3  1  0
  4  8  1  0
  5  4  2  0
  6  2  1  0
  7  6  2  0
  9 10  1  0
 10 12  1  0
 11 10  2  0
 12 13  1  0
 14 13  1  1
 14 15  1  0
 15  6  1  0
 16 17  2  0
 16 14  1  0
 18 19  1  0
 19 20  1  0
 20 22  1  0
 20 21  1  1
 22 23  1  6
 23 16  1  0
 24 22  1  0
 25 24  1  0
 26 24  2  0
M  END
$$$$
