DQI.pdb
     RDKit          3D

 26 25  0  0  1  0  0  0  0  0999 V2000
   15.6579  -13.6802  -16.0433 N   0  0  0  0  0  0  0  0  0  0  0  0
   17.0550  -13.9962  -15.8058 C   0  0  1  0  0  0  0  0  0  0  0  0
   17.5360  -15.1070  -16.7092 C   0  0  0  0  0  0  0  0  0  0  0  0
   16.7934  -16.3472  -16.4282 C   0  0  0  0  0  0  0  0  0  0  0  0
   16.4658  -16.6323  -15.2588 O   0  0  0  0  0  0  0  0  0  0  0  0
   17.8666  -12.7623  -16.0892 C   0  0  0  0  0  0  0  0  0  0  0  0
   19.0596  -12.8483  -16.4497 O   0  0  0  0  0  0  0  0  0  0  0  0
   16.4593  -17.1982  -17.4710 O   0  0  0  0  0  0  0  0  0  0  0  0
   16.1322   -8.1744  -18.7911 N   0  0  0  0  0  0  0  0  0  0  0  0
   17.2637   -7.4528  -18.2828 C   0  0  0  0  0  0  0  0  0  0  0  0
   17.7122   -6.5038  -18.9644 O   0  0  0  0  0  0  0  0  0  0  0  0
   17.8064   -7.8982  -16.9813 C   0  0  0  0  0  0  0  0  0  0  0  0
   17.0421   -9.0701  -16.4307 C   0  0  0  0  0  0  0  0  0  0  0  0
   17.9412  -10.2574  -16.3506 C   0  0  2  0  0  0  0  0  0  0  0  0
   17.3034  -11.4683  -15.9562 N   0  0  0  0  0  0  0  0  0  0  0  0
   18.9724   -9.9478  -15.2935 C   0  0  0  0  0  0  0  0  0  0  0  0
   18.6495  -10.0941  -14.0989 O   0  0  0  0  0  0  0  0  0  0  0  0
   23.4206  -12.3120  -15.1586 C   0  0  0  0  0  0  0  0  0  0  0  0
   22.1676  -11.4945  -14.9200 C   0  0  0  0  0  0  0  0  0  0  0  0
   22.5139  -10.0440  -14.8204 C   0  0  2  0  0  0  0  0  0  0  0  0
   23.5666   -9.7390  -13.8101 C   0  0  0  0  0  0  0  0  0  0  0  0
   21.2414   -9.2507  -14.5984 C   0  0  2  0  0  0  0  0  0  0  0  0
   20.2656   -9.5058  -15.6265 N   0  0  0  0  0  0  0  0  0  0  0  0
   21.5321   -7.7951  -14.5965 C   0  0  0  0  0  0  0  0  0  0  0  0
   21.8033   -7.0986  -13.4189 O   0  0  0  0  0  0  0  0  0  0  0  0
   21.5433   -7.1378  -15.6656 O   0  0  0  0  0  0  0  0  0  0  0  0
  2  1  1  6
  2  3  1  0
  4  3  1  0
  4  8  1  0
  5  4  2  0
  6  2  1  0
  7  6  2  0
  9 10  1  0
 10 12  1  0
 11 10  2  0
 12 13  1  0
 14 13  1  1
 14 15  1  0
 15  6  1  0
 16 17  2  0
 16 14  1  0
 18 19  1  0
 19 20  1  0
 20 22  1  0
 20 21  1  1
 22 23  1  6
 23 16  1  0
 24 22  1  0
 25 24  1  0
 26 24  2  0
M  END
$$$$
