RTN.pdb
     RDKit          3D

 27 26  0  0  1  0  0  0  0  0999 V2000
   27.1529  -22.2967  -12.7136 N   0  0  0  0  0  0  0  0  0  0  0  0
   26.5959  -21.2885  -11.8483 C   0  0  0  0  0  0  0  0  0  0  0  0
   25.5819  -21.6128  -11.1273 N   0  0  0  0  0  0  0  0  0  0  0  0
   27.1571  -20.0025  -11.8083 N   0  0  0  0  0  0  0  0  0  0  0  0
   26.5361  -18.8976  -12.5390 C   0  0  0  0  0  0  0  0  0  0  0  0
   27.1511  -18.7476  -13.9017 C   0  0  0  0  0  0  0  0  0  0  0  0
   26.2066  -18.2795  -14.9490 C   0  0  0  0  0  0  0  0  0  0  0  0
   24.8743  -18.9527  -14.9844 C   0  0  2  0  0  0  0  0  0  0  0  0
   24.8987  -20.3814  -14.9198 N   0  0  0  0  0  0  0  0  0  0  0  0
   24.1186  -18.4518  -16.1678 C   0  0  0  0  0  0  0  0  0  0  0  0
   24.0320  -19.0936  -17.2358 O   0  0  0  0  0  0  0  0  0  0  0  0
   25.1566  -20.9633  -10.4404 C   0  0  0  0  0  0  0  0  0  0  0  0
   21.5366  -19.2240  -16.4898 C   0  0  2  0  0  0  0  0  0  0  0  0
   21.1746  -17.7569  -16.4023 O   0  0  0  0  0  0  0  0  0  0  0  0
   20.6484  -17.4399  -15.1421 C   0  0  2  0  0  0  0  0  0  0  0  0
   22.2800  -16.8472  -16.8015 N   0  0  0  0  0  0  0  0  0  0  0  0
   23.4783  -17.2029  -16.0736 C   0  0  0  0  0  0  0  0  0  0  0  0
   21.9749  -15.4019  -16.7006 O   0  0  0  0  0  0  0  0  0  0  0  0
   22.0852  -14.7991  -15.6023 N   0  0  0  0  0  0  0  0  0  0  0  0
   21.6031  -10.7892  -20.7332 C   0  0  0  0  0  0  0  0  0  0  0  0
   21.3625  -11.3042  -19.4197 O   0  0  0  0  0  0  0  0  0  0  0  0
   20.9741  -10.4885  -18.5651 C   0  0  0  0  0  0  0  0  0  0  0  0
   21.5790  -12.7113  -19.1640 C   0  0  2  0  0  0  0  0  0  0  0  0
   21.2521  -13.2312  -17.8038 N   0  0  0  0  0  0  0  0  0  0  0  0
   21.5517  -14.6747  -17.8474 C   0  0  0  0  0  0  0  0  0  0  0  0
   19.8367  -13.0663  -17.4903 O   0  0  0  0  0  0  0  0  0  0  0  0
   18.9791  -13.8593  -18.0240 O   0  0  0  0  0  0  0  0  0  0  0  0
  2  1  1  0
  3  2  2  0
  4  2  1  0
  5  4  1  0
  6  5  1  0
  7  6  1  0
  8  9  1  6
  8 10  1  0
  8  7  1  0
 10 16  1  0
 10 11  2  0
 13 12  1  6
 14 13  1  0
 15 13  1  0
 15 16  1  6
 17 24  1  0
 17 15  1  0
 18 17  2  0
 19 20  1  0
 20 21  2  0
 20 22  1  0
 23 22  1  1
 23 25  1  0
 23 24  1  0
 25 27  1  0
 26 25  2  0
M  END
$$$$
