RTN.pdb
     RDKit          3D

 27 26  0  0  1  0  0  0  0  0999 V2000
   14.5158  -14.7368  -12.5031 N   0  0  0  0  0  0  0  0  0  0  0  0
   13.3094  -14.4870  -11.7568 C   0  0  0  0  0  0  0  0  0  0  0  0
   12.4894  -15.4650  -11.6002 N   0  0  0  0  0  0  0  0  0  0  0  0
   13.0574  -13.2121  -11.2261 N   0  0  0  0  0  0  0  0  0  0  0  0
   13.9999  -12.1153  -11.4479 C   0  0  0  0  0  0  0  0  0  0  0  0
   13.5416  -10.8687  -10.7454 C   0  0  0  0  0  0  0  0  0  0  0  0
   14.5577  -10.2688   -9.8422 C   0  0  0  0  0  0  0  0  0  0  0  0
   14.1326   -9.0536   -9.0857 C   0  0  2  0  0  0  0  0  0  0  0  0
   12.7218   -8.8905   -8.9151 N   0  0  0  0  0  0  0  0  0  0  0  0
   14.7702   -7.8581   -9.7074 C   0  0  0  0  0  0  0  0  0  0  0  0
   14.3440   -7.3341  -10.7580 O   0  0  0  0  0  0  0  0  0  0  0  0
   11.5826  -15.3583  -11.1095 C   0  0  0  0  0  0  0  0  0  0  0  0
   17.0828   -3.7271   -8.9794 C   0  0  2  0  0  0  0  0  0  0  0  0
   16.3816   -5.0099   -8.5876 O   0  0  0  0  0  0  0  0  0  0  0  0
   15.0248   -4.7827   -8.3174 C   0  0  1  0  0  0  0  0  0  0  0  0
   16.5902   -6.1201   -9.5534 N   0  0  0  0  0  0  0  0  0  0  0  0
   15.8998   -7.3003   -9.0816 C   0  0  0  0  0  0  0  0  0  0  0  0
   18.0030   -6.4006   -9.8963 O   0  0  0  0  0  0  0  0  0  0  0  0
   18.7832   -6.8953   -9.0429 N   0  0  0  0  0  0  0  0  0  0  0  0
   22.3818   -6.9725  -12.7937 C   0  0  0  0  0  0  0  0  0  0  0  0
   21.2358   -7.7757  -13.0938 O   0  0  0  0  0  0  0  0  0  0  0  0
   21.4123   -8.7259  -13.8764 C   0  0  0  0  0  0  0  0  0  0  0  0
   19.9657   -7.4466  -12.4852 C   0  0  1  0  0  0  0  0  0  0  0  0
   19.9180   -6.2763  -11.5602 N   0  0  0  0  0  0  0  0  0  0  0  0
   18.4975   -6.1131  -11.1986 C   0  0  0  0  0  0  0  0  0  0  0  0
   20.3671   -5.0530  -12.2164 O   0  0  0  0  0  0  0  0  0  0  0  0
   19.5025   -4.2898  -12.7813 O   0  0  0  0  0  0  0  0  0  0  0  0
  2  1  1  0
  3  2  2  0
  4  2  1  0
  5  4  1  0
  6  5  1  0
  7  6  1  0
  8  9  1  6
  8 10  1  0
  8  7  1  0
 10 16  1  0
 10 11  2  0
 13 12  1  1
 14 13  1  0
 15 13  1  0
 15 16  1  1
 17 24  1  0
 17 15  1  0
 18 17  2  0
 19 20  1  0
 20 21  2  0
 20 22  1  0
 23 22  1  1
 23 25  1  0
 23 24  1  0
 25 27  1  0
 26 25  2  0
M  END
$$$$
