RTN.pdb
     RDKit          3D

 27 26  0  0  1  0  0  0  0  0999 V2000
   33.6541   -5.8914  -15.5767 N   0  0  0  0  0  0  0  0  0  0  0  0
   34.1985   -7.1774  -15.2234 C   0  0  0  0  0  0  0  0  0  0  0  0
   35.1149   -7.2119  -14.3221 N   0  0  0  0  0  0  0  0  0  0  0  0
   33.7296   -8.3410  -15.8532 N   0  0  0  0  0  0  0  0  0  0  0  0
   32.7340   -8.2577  -16.9220 C   0  0  0  0  0  0  0  0  0  0  0  0
   33.1737   -9.0471  -18.1225 C   0  0  0  0  0  0  0  0  0  0  0  0
   33.2475  -10.5136  -17.8948 C   0  0  0  0  0  0  0  0  0  0  0  0
   33.8530  -11.3223  -18.9944 C   0  0  2  0  0  0  0  0  0  0  0  0
   34.7896  -10.6339  -19.8280 N   0  0  0  0  0  0  0  0  0  0  0  0
   32.7557  -11.9569  -19.7788 C   0  0  0  0  0  0  0  0  0  0  0  0
   32.3893  -11.5321  -20.8949 O   0  0  0  0  0  0  0  0  0  0  0  0
   35.5956   -8.0891  -14.0502 C   0  0  0  0  0  0  0  0  0  0  0  0
   31.8230  -15.9252  -18.6950 C   0  0  2  0  0  0  0  0  0  0  0  0
   31.5763  -15.2710  -20.0374 O   0  0  0  0  0  0  0  0  0  0  0  0
   30.7331  -16.0565  -20.8358 C   0  0  1  0  0  0  0  0  0  0  0  0
   31.1124  -13.8626  -19.9358 N   0  0  0  0  0  0  0  0  0  0  0  0
   32.1075  -13.0809  -19.2353 C   0  0  0  0  0  0  0  0  0  0  0  0
   29.7588  -13.6843  -19.3627 O   0  0  0  0  0  0  0  0  0  0  0  0
   29.6120  -13.3120  -18.1704 N   0  0  0  0  0  0  0  0  0  0  0  0
   26.6415  -12.1889  -22.9897 C   0  0  0  0  0  0  0  0  0  0  0  0
   26.5617  -12.1961  -21.5607 O   0  0  0  0  0  0  0  0  0  0  0  0
   26.6372  -11.0917  -20.9940 C   0  0  0  0  0  0  0  0  0  0  0  0
   26.4015  -13.4569  -20.8702 C   0  0  2  0  0  0  0  0  0  0  0  0
   27.2360  -13.6984  -19.6567 N   0  0  0  0  0  0  0  0  0  0  0  0
   28.6042  -13.9327  -20.1552 C   0  0  0  0  0  0  0  0  0  0  0  0
   26.8020  -14.8888  -18.9331 O   0  0  0  0  0  0  0  0  0  0  0  0
   27.4814  -15.9730  -19.0434 O   0  0  0  0  0  0  0  0  0  0  0  0
  2  1  1  0
  3  2  2  0
  4  2  1  0
  5  4  1  0
  6  5  1  0
  7  6  1  0
  8  9  1  6
  8 10  1  0
  8  7  1  0
 10 16  1  0
 10 11  2  0
 13 12  1  6
 14 13  1  0
 15 13  1  0
 15 16  1  6
 17 24  1  0
 17 15  1  0
 18 17  2  0
 19 20  1  0
 20 21  2  0
 20 22  1  0
 23 22  1  1
 23 25  1  0
 23 24  1  0
 25 27  1  0
 26 25  2  0
M  END
$$$$
