RTN.pdb
     RDKit          3D

 27 26  0  0  1  0  0  0  0  0999 V2000
   29.3664  -21.8957   -9.3083 N   0  0  0  0  0  0  0  0  0  0  0  0
   29.8523  -22.1503  -10.6403 C   0  0  0  0  0  0  0  0  0  0  0  0
   31.0852  -22.4907  -10.7724 N   0  0  0  0  0  0  0  0  0  0  0  0
   28.9921  -22.0262  -11.7426 N   0  0  0  0  0  0  0  0  0  0  0  0
   27.5611  -21.7937  -11.5459 C   0  0  0  0  0  0  0  0  0  0  0  0
   27.2310  -20.3366  -11.7060 C   0  0  0  0  0  0  0  0  0  0  0  0
   26.1250  -20.0629  -12.6598 C   0  0  0  0  0  0  0  0  0  0  0  0
   26.4131  -20.3345  -14.0996 C   0  0  2  0  0  0  0  0  0  0  0  0
   27.6397  -19.7949  -14.5998 N   0  0  0  0  0  0  0  0  0  0  0  0
   25.2355  -19.9105  -14.9093 C   0  0  0  0  0  0  0  0  0  0  0  0
   24.9654  -18.7118  -15.1335 O   0  0  0  0  0  0  0  0  0  0  0  0
   31.5051  -22.7159  -11.6930 C   0  0  0  0  0  0  0  0  0  0  0  0
   24.7068  -20.1934  -18.2699 C   0  0  2  0  0  0  0  0  0  0  0  0
   23.5672  -20.9983  -17.6832 O   0  0  0  0  0  0  0  0  0  0  0  0
   23.7826  -22.3739  -17.8470 C   0  0  2  0  0  0  0  0  0  0  0  0
   23.2464  -20.6370  -16.2777 N   0  0  0  0  0  0  0  0  0  0  0  0
   24.3951  -20.9055  -15.4409 C   0  0  0  0  0  0  0  0  0  0  0  0
   22.0089  -21.2443  -15.7372 O   0  0  0  0  0  0  0  0  0  0  0  0
   22.0141  -21.8225  -14.6203 N   0  0  0  0  0  0  0  0  0  0  0  0
   19.2170  -25.1230  -14.1523 C   0  0  0  0  0  0  0  0  0  0  0  0
   18.8739  -23.8872  -14.7876 O   0  0  0  0  0  0  0  0  0  0  0  0
   17.6627  -23.6124  -14.8517 C   0  0  0  0  0  0  0  0  0  0  0  0
   19.9289  -23.0457  -15.3080 C   0  0  2  0  0  0  0  0  0  0  0  0
   19.5373  -21.7744  -15.9847 N   0  0  0  0  0  0  0  0  0  0  0  0
   20.7953  -21.1818  -16.4762 C   0  0  0  0  0  0  0  0  0  0  0  0
   18.9223  -20.8357  -15.0522 O   0  0  0  0  0  0  0  0  0  0  0  0
   18.0051  -20.0419  -15.4741 O   0  0  0  0  0  0  0  0  0  0  0  0
  2  1  1  0
  3  2  2  0
  4  2  1  0
  5  4  1  0
  6  5  1  0
  7  6  1  0
  8  9  1  6
  8 10  1  0
  8  7  1  0
 10 16  1  0
 10 11  2  0
 13 12  1  6
 14 13  1  0
 15 13  1  0
 15 16  1  6
 17 24  1  0
 17 15  1  0
 18 17  2  0
 19 20  1  0
 20 21  2  0
 20 22  1  0
 23 22  1  6
 23 25  1  0
 23 24  1  0
 25 27  1  0
 26 25  2  0
M  END
$$$$
