RTN.pdb
     RDKit          3D

 27 26  0  0  1  0  0  0  0  0999 V2000
   22.9698  -17.9487  -20.6313 N   0  0  0  0  0  0  0  0  0  0  0  0
   24.0828  -17.0665  -20.8721 C   0  0  0  0  0  0  0  0  0  0  0  0
   23.9040  -16.0857  -21.6842 N   0  0  0  0  0  0  0  0  0  0  0  0
   25.3117  -17.2874  -20.2309 N   0  0  0  0  0  0  0  0  0  0  0  0
   25.3727  -18.0500  -18.9838 C   0  0  0  0  0  0  0  0  0  0  0  0
   24.6534  -17.3263  -17.8809 C   0  0  0  0  0  0  0  0  0  0  0  0
   24.3909  -18.1560  -16.6765 C   0  0  0  0  0  0  0  0  0  0  0  0
   25.3853  -19.2318  -16.3871 C   0  0  2  0  0  0  0  0  0  0  0  0
   25.9949  -19.8376  -17.5304 N   0  0  0  0  0  0  0  0  0  0  0  0
   24.7527  -20.2349  -15.4839 C   0  0  0  0  0  0  0  0  0  0  0  0
   24.2349  -21.2912  -15.9038 O   0  0  0  0  0  0  0  0  0  0  0  0
   24.6738  -15.4545  -21.9730 C   0  0  0  0  0  0  0  0  0  0  0  0
   24.3724  -21.7354  -10.7923 C   0  0  2  0  0  0  0  0  0  0  0  0
   24.9634  -20.8947  -11.9036 O   0  0  0  0  0  0  0  0  0  0  0  0
   26.2790  -21.2860  -12.1890 C   0  0  1  0  0  0  0  0  0  0  0  0
   24.1120  -20.8346  -13.1203 N   0  0  0  0  0  0  0  0  0  0  0  0
   24.7397  -19.9768  -14.1012 C   0  0  0  0  0  0  0  0  0  0  0  0
   22.6974  -20.4675  -12.8827 O   0  0  0  0  0  0  0  0  0  0  0  0
   22.3862  -19.2927  -12.5590 N   0  0  0  0  0  0  0  0  0  0  0  0
   17.4231  -20.8361  -13.0161 C   0  0  0  0  0  0  0  0  0  0  0  0
   18.1082  -21.4612  -14.1062 O   0  0  0  0  0  0  0  0  0  0  0  0
   17.4079  -21.8275  -15.0663 C   0  0  0  0  0  0  0  0  0  0  0  0
   19.5430  -21.6289  -14.0334 C   0  0  1  0  0  0  0  0  0  0  0  0
   20.2438  -21.1209  -12.8176 N   0  0  0  0  0  0  0  0  0  0  0  0
   21.6695  -21.4413  -13.0175 C   0  0  0  0  0  0  0  0  0  0  0  0
   19.7866  -21.7998  -11.6097 O   0  0  0  0  0  0  0  0  0  0  0  0
   18.6131  -21.5468  -11.1535 O   0  0  0  0  0  0  0  0  0  0  0  0
  2  1  1  0
  3  2  2  0
  4  2  1  0
  5  4  1  0
  6  5  1  0
  7  6  1  0
  8  9  1  6
  8 10  1  0
  8  7  1  0
 10 16  1  0
 10 11  2  0
 13 12  1  1
 14 13  1  0
 15 13  1  0
 15 16  1  1
 17 24  1  0
 17 15  1  0
 18 17  2  0
 19 20  1  0
 20 21  2  0
 20 22  1  0
 23 22  1  6
 23 25  1  0
 23 24  1  0
 25 27  1  0
 26 25  2  0
M  END
$$$$
