RTN.pdb
     RDKit          3D

 27 26  0  0  1  0  0  0  0  0999 V2000
   29.5851  -23.6976  -16.5426 N   0  0  0  0  0  0  0  0  0  0  0  0
   28.8112  -22.5803  -17.0198 C   0  0  0  0  0  0  0  0  0  0  0  0
   29.2953  -21.8876  -17.9888 N   0  0  0  0  0  0  0  0  0  0  0  0
   27.5726  -22.2762  -16.4335 N   0  0  0  0  0  0  0  0  0  0  0  0
   27.0169  -23.1314  -15.3846 C   0  0  0  0  0  0  0  0  0  0  0  0
   26.5736  -24.4504  -15.9515 C   0  0  0  0  0  0  0  0  0  0  0  0
   25.1546  -24.4794  -16.3913 C   0  0  0  0  0  0  0  0  0  0  0  0
   24.2562  -25.4210  -15.6592 C   0  0  2  0  0  0  0  0  0  0  0  0
   24.3831  -26.8012  -16.0126 N   0  0  0  0  0  0  0  0  0  0  0  0
   22.8532  -24.9318  -15.7798 C   0  0  0  0  0  0  0  0  0  0  0  0
   22.2666  -24.8245  -16.8773 O   0  0  0  0  0  0  0  0  0  0  0  0
   28.7682  -21.1180  -18.4410 C   0  0  0  0  0  0  0  0  0  0  0  0
   20.3693  -25.7887  -12.7355 C   0  0  2  0  0  0  0  0  0  0  0  0
   19.9278  -25.2354  -14.0734 O   0  0  0  0  0  0  0  0  0  0  0  0
   18.5695  -24.8885  -14.0540 C   0  0  1  0  0  0  0  0  0  0  0  0
   20.7887  -24.1320  -14.5735 N   0  0  0  0  0  0  0  0  0  0  0  0
   22.1648  -24.5764  -14.6057 C   0  0  0  0  0  0  0  0  0  0  0  0
   20.6361  -22.8417  -13.8636 O   0  0  0  0  0  0  0  0  0  0  0  0
   21.4846  -22.4758  -13.0103 N   0  0  0  0  0  0  0  0  0  0  0  0
   20.9314  -17.4214  -14.2409 C   0  0  0  0  0  0  0  0  0  0  0  0
   20.3908  -18.4512  -13.4068 O   0  0  0  0  0  0  0  0  0  0  0  0
   19.9329  -18.0931  -12.3074 C   0  0  0  0  0  0  0  0  0  0  0  0
   20.4063  -19.8191  -13.8765 C   0  0  2  0  0  0  0  0  0  0  0  0
   19.3053  -20.7223  -13.4298 N   0  0  0  0  0  0  0  0  0  0  0  0
   19.5250  -21.9972  -14.1380 C   0  0  0  0  0  0  0  0  0  0  0  0
   17.9959  -20.2051  -13.8129 O   0  0  0  0  0  0  0  0  0  0  0  0
   17.2813  -19.5950  -12.9375 O   0  0  0  0  0  0  0  0  0  0  0  0
  2  1  1  0
  3  2  2  0
  4  2  1  0
  5  4  1  0
  6  5  1  0
  7  6  1  0
  8  9  1  6
  8 10  1  0
  8  7  1  0
 10 16  1  0
 10 11  2  0
 13 12  1  6
 14 13  1  0
 15 13  1  0
 15 16  1  6
 17 24  1  0
 17 15  1  0
 18 17  2  0
 19 20  1  0
 20 21  2  0
 20 22  1  0
 23 22  1  1
 23 25  1  0
 23 24  1  0
 25 27  1  0
 26 25  2  0
M  END
$$$$
