RTN.pdb
     RDKit          3D

 27 26  0  0  1  0  0  0  0  0999 V2000
   28.6530  -18.0444   -5.6819 N   0  0  0  0  0  0  0  0  0  0  0  0
   28.5871  -19.4411   -5.3352 C   0  0  0  0  0  0  0  0  0  0  0  0
   29.1703  -19.8168   -4.2527 N   0  0  0  0  0  0  0  0  0  0  0  0
   27.9034  -20.3440   -6.1644 N   0  0  0  0  0  0  0  0  0  0  0  0
   27.2642  -19.8831   -7.3972 C   0  0  0  0  0  0  0  0  0  0  0  0
   26.5798  -21.0211   -8.1002 C   0  0  0  0  0  0  0  0  0  0  0  0
   25.8672  -20.6296   -9.3439 C   0  0  0  0  0  0  0  0  0  0  0  0
   26.4323  -21.1565  -10.6217 C   0  0  2  0  0  0  0  0  0  0  0  0
   27.8493  -21.3499  -10.6407 N   0  0  0  0  0  0  0  0  0  0  0  0
   25.9631  -20.2924  -11.7422 C   0  0  0  0  0  0  0  0  0  0  0  0
   26.2172  -19.0712  -11.8064 O   0  0  0  0  0  0  0  0  0  0  0  0
   29.1742  -20.8038   -3.9360 C   0  0  0  0  0  0  0  0  0  0  0  0
   26.7945  -19.8207  -14.9247 C   0  0  2  0  0  0  0  0  0  0  0  0
   25.3580  -20.2727  -15.0762 O   0  0  0  0  0  0  0  0  0  0  0  0
   25.2882  -21.5620  -15.6224 C   0  0  2  0  0  0  0  0  0  0  0  0
   24.5585  -20.1395  -13.8304 N   0  0  0  0  0  0  0  0  0  0  0  0
   25.2017  -20.8811  -12.7681 C   0  0  0  0  0  0  0  0  0  0  0  0
   23.1245  -20.4839  -13.9615 O   0  0  0  0  0  0  0  0  0  0  0  0
   22.5104  -21.0408  -13.0157 N   0  0  0  0  0  0  0  0  0  0  0  0
   18.4897  -19.9792  -13.7957 C   0  0  0  0  0  0  0  0  0  0  0  0
   19.4484  -18.9836  -13.4240 O   0  0  0  0  0  0  0  0  0  0  0  0
   19.1232  -18.2155  -12.5017 C   0  0  0  0  0  0  0  0  0  0  0  0
   20.7126  -18.9265  -14.1244 C   0  0  2  0  0  0  0  0  0  0  0  0
   20.9673  -19.9421  -15.1879 N   0  0  0  0  0  0  0  0  0  0  0  0
   22.4211  -20.1889  -15.1620 C   0  0  0  0  0  0  0  0  0  0  0  0
   20.6116  -19.4378  -16.5100 O   0  0  0  0  0  0  0  0  0  0  0  0
   19.7284  -20.0614  -17.2030 O   0  0  0  0  0  0  0  0  0  0  0  0
  2  1  1  0
  3  2  2  0
  4  2  1  0
  5  4  1  0
  6  5  1  0
  7  6  1  0
  8  9  1  1
  8 10  1  0
  8  7  1  0
 10 16  1  0
 10 11  2  0
 13 12  1  6
 14 13  1  0
 15 13  1  0
 15 16  1  6
 17 24  1  0
 17 15  1  0
 18 17  2  0
 19 20  1  0
 20 21  2  0
 20 22  1  0
 23 22  1  1
 23 25  1  0
 23 24  1  0
 25 27  1  0
 26 25  2  0
M  END
$$$$
