RTN.pdb
     RDKit          3D

 27 26  0  0  1  0  0  0  0  0999 V2000
   28.0177  -27.0644  -16.5328 N   0  0  0  0  0  0  0  0  0  0  0  0
   27.8354  -26.3453  -17.7676 C   0  0  0  0  0  0  0  0  0  0  0  0
   27.8388  -27.0227  -18.8605 N   0  0  0  0  0  0  0  0  0  0  0  0
   27.6605  -24.9526  -17.7556 N   0  0  0  0  0  0  0  0  0  0  0  0
   27.3174  -24.2574  -16.5149 C   0  0  0  0  0  0  0  0  0  0  0  0
   25.9178  -24.5946  -16.0847 C   0  0  0  0  0  0  0  0  0  0  0  0
   25.4318  -23.8098  -14.9203 C   0  0  0  0  0  0  0  0  0  0  0  0
   25.3616  -22.3297  -15.1052 C   0  0  2  0  0  0  0  0  0  0  0  0
   26.5933  -21.6234  -14.9323 N   0  0  0  0  0  0  0  0  0  0  0  0
   24.2738  -21.7924  -14.2391 C   0  0  0  0  0  0  0  0  0  0  0  0
   24.4946  -21.2402  -13.1407 O   0  0  0  0  0  0  0  0  0  0  0  0
   27.7776  -26.5749  -19.7933 C   0  0  0  0  0  0  0  0  0  0  0  0
   19.8664  -19.7948  -14.2399 C   0  0  1  0  0  0  0  0  0  0  0  0
   21.1515  -20.3379  -14.8268 O   0  0  0  0  0  0  0  0  0  0  0  0
   22.0281  -19.2999  -15.1726 C   0  0  1  0  0  0  0  0  0  0  0  0
   21.8015  -21.3717  -13.9797 N   0  0  0  0  0  0  0  0  0  0  0  0
   22.9439  -21.9152  -14.6808 C   0  0  0  0  0  0  0  0  0  0  0  0
   20.8998  -22.4329  -13.4766 O   0  0  0  0  0  0  0  0  0  0  0  0
   20.6082  -23.4210  -14.1981 N   0  0  0  0  0  0  0  0  0  0  0  0
   19.2245  -24.8734   -8.4266 C   0  0  0  0  0  0  0  0  0  0  0  0
   18.5695  -23.9802   -9.3331 O   0  0  0  0  0  0  0  0  0  0  0  0
   17.3270  -24.0266   -9.3589 C   0  0  0  0  0  0  0  0  0  0  0  0
   19.3688  -23.0939  -10.1500 C   0  0  1  0  0  0  0  0  0  0  0  0
   19.4708  -23.3922  -11.6087 N   0  0  0  0  0  0  0  0  0  0  0  0
   20.3501  -22.3483  -12.1675 C   0  0  0  0  0  0  0  0  0  0  0  0
   18.1730  -23.2998  -12.2690 O   0  0  0  0  0  0  0  0  0  0  0  0
   17.6920  -22.1423  -12.5487 O   0  0  0  0  0  0  0  0  0  0  0  0
  2  1  1  0
  3  2  2  0
  4  2  1  0
  5  4  1  0
  6  5  1  0
  7  6  1  0
  8  9  1  1
  8 10  1  0
  8  7  1  0
 10 16  1  0
 10 11  2  0
 13 12  1  6
 14 13  1  0
 15 13  1  0
 15 16  1  6
 17 24  1  0
 17 15  1  0
 18 17  2  0
 19 20  1  0
 20 21  2  0
 20 22  1  0
 23 22  1  1
 23 25  1  0
 23 24  1  0
 25 27  1  0
 26 25  2  0
M  END
$$$$
