RTN.pdb
     RDKit          3D

 27 26  0  0  1  0  0  0  0  0999 V2000
   28.8309  -20.7655  -12.9386 N   0  0  0  0  0  0  0  0  0  0  0  0
   28.6204  -20.6176  -11.5212 C   0  0  0  0  0  0  0  0  0  0  0  0
   29.3618  -21.3097  -10.7309 N   0  0  0  0  0  0  0  0  0  0  0  0
   27.6348  -19.7414  -11.0404 N   0  0  0  0  0  0  0  0  0  0  0  0
   26.2253  -19.9564  -11.3684 C   0  0  0  0  0  0  0  0  0  0  0  0
   25.7572  -21.2904  -10.8595 C   0  0  0  0  0  0  0  0  0  0  0  0
   24.3105  -21.5521  -11.0751 C   0  0  0  0  0  0  0  0  0  0  0  0
   23.3686  -20.5124  -10.5637 C   0  0  2  0  0  0  0  0  0  0  0  0
   23.1331  -20.5281   -9.1529 N   0  0  0  0  0  0  0  0  0  0  0  0
   22.1044  -20.5866  -11.3501 C   0  0  0  0  0  0  0  0  0  0  0  0
   21.0455  -21.0584  -10.8850 O   0  0  0  0  0  0  0  0  0  0  0  0
   29.2767  -21.2571   -9.6991 C   0  0  0  0  0  0  0  0  0  0  0  0
   19.5773  -19.6840  -11.3420 C   0  0  2  0  0  0  0  0  0  0  0  0
   19.9578  -19.0578  -12.6664 O   0  0  0  0  0  0  0  0  0  0  0  0
   20.3947  -17.7368  -12.4945 C   0  0  2  0  0  0  0  0  0  0  0  0
   20.9158  -19.8745  -13.4565 N   0  0  0  0  0  0  0  0  0  0  0  0
   22.1087  -20.1046  -12.6717 C   0  0  0  0  0  0  0  0  0  0  0  0
   21.2286  -19.3503  -14.8055 O   0  0  0  0  0  0  0  0  0  0  0  0
   22.1474  -18.5070  -14.9678 N   0  0  0  0  0  0  0  0  0  0  0  0
   21.8487  -22.7468  -17.6224 C   0  0  0  0  0  0  0  0  0  0  0  0
   21.9952  -21.3933  -18.0642 O   0  0  0  0  0  0  0  0  0  0  0  0
   23.1477  -21.0229  -18.3487 C   0  0  0  0  0  0  0  0  0  0  0  0
   20.8231  -20.5505  -18.1534 C   0  0  2  0  0  0  0  0  0  0  0  0
   20.7805  -19.3231  -17.3054 N   0  0  0  0  0  0  0  0  0  0  0  0
   20.4917  -19.7945  -15.9380 C   0  0  0  0  0  0  0  0  0  0  0  0
   19.7084  -18.4225  -17.7155 O   0  0  0  0  0  0  0  0  0  0  0  0
   18.6524  -18.3323  -16.9903 O   0  0  0  0  0  0  0  0  0  0  0  0
  2  1  1  0
  3  2  2  0
  4  2  1  0
  5  4  1  0
  6  5  1  0
  7  6  1  0
  8  9  1  1
  8 10  1  0
  8  7  1  0
 10 16  1  0
 10 11  2  0
 13 12  1  6
 14 13  1  0
 15 13  1  0
 15 16  1  6
 17 24  1  0
 17 15  1  0
 18 17  2  0
 19 20  1  0
 20 21  2  0
 20 22  1  0
 23 22  1  1
 23 25  1  0
 23 24  1  0
 25 27  1  0
 26 25  2  0
M  END
$$$$
