RTN.pdb
     RDKit          3D

 27 26  0  0  1  0  0  0  0  0999 V2000
   27.0493  -13.9772  -16.2163 N   0  0  0  0  0  0  0  0  0  0  0  0
   26.0574  -15.0035  -16.0216 C   0  0  0  0  0  0  0  0  0  0  0  0
   26.1844  -16.0931  -16.6924 N   0  0  0  0  0  0  0  0  0  0  0  0
   24.9971  -14.8010  -15.1244 N   0  0  0  0  0  0  0  0  0  0  0  0
   23.8058  -14.0587  -15.5373 C   0  0  0  0  0  0  0  0  0  0  0  0
   24.1664  -12.6603  -15.9519 C   0  0  0  0  0  0  0  0  0  0  0  0
   23.0226  -11.8618  -16.4638 C   0  0  0  0  0  0  0  0  0  0  0  0
   21.8362  -12.6360  -16.9356 C   0  0  2  0  0  0  0  0  0  0  0  0
   22.0967  -13.6210  -17.9395 N   0  0  0  0  0  0  0  0  0  0  0  0
   20.7730  -11.6753  -17.3467 C   0  0  0  0  0  0  0  0  0  0  0  0
   20.6822  -11.2235  -18.5076 O   0  0  0  0  0  0  0  0  0  0  0  0
   25.5201  -16.8836  -16.6015 C   0  0  0  0  0  0  0  0  0  0  0  0
   17.4451  -11.4435  -14.7465 C   0  0  1  0  0  0  0  0  0  0  0  0
   17.4533  -11.1088  -16.2226 O   0  0  0  0  0  0  0  0  0  0  0  0
   16.2930  -10.4130  -16.5901 C   0  0  1  0  0  0  0  0  0  0  0  0
   18.6932  -10.4216  -16.6692 N   0  0  0  0  0  0  0  0  0  0  0  0
   19.8351  -11.2620  -16.3833 C   0  0  0  0  0  0  0  0  0  0  0  0
   18.8715   -9.0448  -16.1542 O   0  0  0  0  0  0  0  0  0  0  0  0
   19.5950   -8.8256  -15.1491 N   0  0  0  0  0  0  0  0  0  0  0  0
   18.3999   -3.7398  -15.9876 C   0  0  0  0  0  0  0  0  0  0  0  0
   18.2461   -4.2632  -17.3108 O   0  0  0  0  0  0  0  0  0  0  0  0
   18.1188   -3.4315  -18.2265 C   0  0  0  0  0  0  0  0  0  0  0  0
   18.2471   -5.6963  -17.5062 C   0  0  1  0  0  0  0  0  0  0  0  0
   18.3406   -6.5651  -16.2963 N   0  0  0  0  0  0  0  0  0  0  0  0
   18.2250   -7.9497  -16.7911 C   0  0  0  0  0  0  0  0  0  0  0  0
   17.2417   -6.3168  -15.3691 O   0  0  0  0  0  0  0  0  0  0  0  0
   16.1136   -6.8991  -15.5623 O   0  0  0  0  0  0  0  0  0  0  0  0
  2  1  1  0
  3  2  2  0
  4  2  1  0
  5  4  1  0
  6  5  1  0
  7  6  1  0
  8  9  1  6
  8 10  1  0
  8  7  1  0
 10 16  1  0
 10 11  2  0
 13 12  1  6
 14 13  1  0
 15 13  1  0
 15 16  1  6
 17 24  1  0
 17 15  1  0
 18 17  2  0
 19 20  1  0
 20 21  2  0
 20 22  1  0
 23 22  1  6
 23 25  1  0
 23 24  1  0
 25 27  1  0
 26 25  2  0
M  END
$$$$
