RTN.pdb
     RDKit          3D

 27 26  0  0  1  0  0  0  0  0999 V2000
   25.5433  -22.4663  -11.3546 N   0  0  0  0  0  0  0  0  0  0  0  0
   24.7678  -21.4729  -12.0524 C   0  0  0  0  0  0  0  0  0  0  0  0
   23.7383  -20.9884  -11.4534 N   0  0  0  0  0  0  0  0  0  0  0  0
   25.1413  -21.0612  -13.3413 N   0  0  0  0  0  0  0  0  0  0  0  0
   26.3649  -21.5725  -13.9593 C   0  0  0  0  0  0  0  0  0  0  0  0
   27.5649  -20.8070  -13.4782 C   0  0  0  0  0  0  0  0  0  0  0  0
   28.1267  -19.8620  -14.4778 C   0  0  0  0  0  0  0  0  0  0  0  0
   27.3651  -18.5950  -14.6885 C   0  0  2  0  0  0  0  0  0  0  0  0
   26.0000  -18.6128  -14.2616 N   0  0  0  0  0  0  0  0  0  0  0  0
   27.5075  -18.1850  -16.1147 C   0  0  0  0  0  0  0  0  0  0  0  0
   28.6105  -18.1443  -16.6995 O   0  0  0  0  0  0  0  0  0  0  0  0
   23.0916  -20.3196  -11.9105 C   0  0  0  0  0  0  0  0  0  0  0  0
   28.4475  -18.9165  -18.4789 C   0  0  2  0  0  0  0  0  0  0  0  0
   27.0144  -18.7452  -18.9349 O   0  0  0  0  0  0  0  0  0  0  0  0
   26.3093  -19.9541  -18.8524 C   0  0  2  0  0  0  0  0  0  0  0  0
   26.3055  -17.6270  -18.2595 N   0  0  0  0  0  0  0  0  0  0  0  0
   26.3486  -17.8289  -16.8280 C   0  0  0  0  0  0  0  0  0  0  0  0
   24.9310  -17.3672  -18.7447 O   0  0  0  0  0  0  0  0  0  0  0  0
   24.7205  -17.0849  -19.9521 N   0  0  0  0  0  0  0  0  0  0  0  0
   19.6264  -16.9111  -18.5395 C   0  0  0  0  0  0  0  0  0  0  0  0
   20.1346  -17.6606  -17.4312 O   0  0  0  0  0  0  0  0  0  0  0  0
   19.2927  -18.1423  -16.6529 C   0  0  0  0  0  0  0  0  0  0  0  0
   21.5649  -17.8132  -17.2802 C   0  0  1  0  0  0  0  0  0  0  0  0
   22.4477  -17.1267  -18.2686 N   0  0  0  0  0  0  0  0  0  0  0  0
   23.8280  -17.4334  -17.8491 C   0  0  0  0  0  0  0  0  0  0  0  0
   22.2696  -15.6790  -18.2350 O   0  0  0  0  0  0  0  0  0  0  0  0
   22.7194  -15.0143  -17.2324 O   0  0  0  0  0  0  0  0  0  0  0  0
  2  1  1  0
  3  2  2  0
  4  2  1  0
  5  4  1  0
  6  5  1  0
  7  6  1  0
  8  9  1  6
  8 10  1  0
  8  7  1  0
 10 16  1  0
 10 11  2  0
 13 12  1  6
 14 13  1  0
 15 13  1  0
 15 16  1  6
 17 24  1  0
 17 15  1  0
 18 17  2  0
 19 20  1  0
 20 21  2  0
 20 22  1  0
 23 22  1  6
 23 25  1  0
 23 24  1  0
 25 27  1  0
 26 25  2  0
M  END
$$$$
