RTN.pdb
     RDKit          3D

 27 26  0  0  1  0  0  0  0  0999 V2000
    8.7910  -13.4445  -10.3892 N   0  0  0  0  0  0  0  0  0  0  0  0
    9.8898  -14.2630   -9.9443 C   0  0  0  0  0  0  0  0  0  0  0  0
    9.7239  -14.9573   -8.8749 N   0  0  0  0  0  0  0  0  0  0  0  0
   11.0916  -14.2880  -10.6691 N   0  0  0  0  0  0  0  0  0  0  0  0
   11.3776  -13.2594  -11.6695 C   0  0  0  0  0  0  0  0  0  0  0  0
   12.6901  -13.5280  -12.3497 C   0  0  0  0  0  0  0  0  0  0  0  0
   13.0887  -12.4918  -13.3373 C   0  0  0  0  0  0  0  0  0  0  0  0
   13.8710  -11.3375  -12.8030 C   0  0  2  0  0  0  0  0  0  0  0  0
   13.1551  -10.1052  -12.6820 N   0  0  0  0  0  0  0  0  0  0  0  0
   15.1168  -11.1925  -13.6088 C   0  0  0  0  0  0  0  0  0  0  0  0
   15.8912  -12.1463  -13.8339 O   0  0  0  0  0  0  0  0  0  0  0  0
   10.4788  -15.5374   -8.4649 C   0  0  0  0  0  0  0  0  0  0  0  0
   15.7361  -10.7973  -16.9618 C   0  0  2  0  0  0  0  0  0  0  0  0
   16.2399   -9.5092  -16.3471 O   0  0  0  0  0  0  0  0  0  0  0  0
   15.3417   -8.4564  -16.5714 C   0  0  2  0  0  0  0  0  0  0  0  0
   16.6144   -9.6409  -14.9149 N   0  0  0  0  0  0  0  0  0  0  0  0
   15.4301   -9.9263  -14.1353 C   0  0  0  0  0  0  0  0  0  0  0  0
   17.3882   -8.5076  -14.3586 O   0  0  0  0  0  0  0  0  0  0  0  0
   16.8327   -7.6534  -13.6214 N   0  0  0  0  0  0  0  0  0  0  0  0
   22.1175   -6.3431  -12.4505 C   0  0  0  0  0  0  0  0  0  0  0  0
   22.0209   -6.7498  -13.8193 O   0  0  0  0  0  0  0  0  0  0  0  0
   22.8464   -6.2541  -14.6063 C   0  0  0  0  0  0  0  0  0  0  0  0
   20.9932   -7.6923  -14.2035 C   0  0  1  0  0  0  0  0  0  0  0  0
   19.5748   -7.2291  -14.1712 N   0  0  0  0  0  0  0  0  0  0  0  0
   18.7731   -8.3699  -14.6519 C   0  0  0  0  0  0  0  0  0  0  0  0
   19.3557   -6.1030  -15.0726 O   0  0  0  0  0  0  0  0  0  0  0  0
   19.1535   -6.3281  -16.3207 O   0  0  0  0  0  0  0  0  0  0  0  0
  2  1  1  0
  3  2  2  0
  4  2  1  0
  5  4  1  0
  6  5  1  0
  7  6  1  0
  8  9  1  6
  8 10  1  0
  8  7  1  0
 10 16  1  0
 10 11  2  0
 13 12  1  6
 14 13  1  0
 15 13  1  0
 15 16  1  1
 17 24  1  0
 17 15  1  0
 18 17  2  0
 19 20  1  0
 20 21  2  0
 20 22  1  0
 23 22  1  1
 23 25  1  0
 23 24  1  0
 25 27  1  0
 26 25  2  0
M  END
$$$$
