RTN.pdb
     RDKit          3D

 27 26  0  0  1  0  0  0  0  0999 V2000
   23.7085  -25.9391  -13.1827 N   0  0  0  0  0  0  0  0  0  0  0  0
   22.3024  -25.6521  -13.0579 C   0  0  0  0  0  0  0  0  0  0  0  0
   21.5550  -26.5469  -12.5156 N   0  0  0  0  0  0  0  0  0  0  0  0
   21.7865  -24.4305  -13.5183 N   0  0  0  0  0  0  0  0  0  0  0  0
   22.6481  -23.4756  -14.2157 C   0  0  0  0  0  0  0  0  0  0  0  0
   23.5934  -22.8108  -13.2554 C   0  0  0  0  0  0  0  0  0  0  0  0
   23.6294  -21.3292  -13.3621 C   0  0  0  0  0  0  0  0  0  0  0  0
   24.0262  -20.7728  -14.6897 C   0  0  2  0  0  0  0  0  0  0  0  0
   25.1571  -21.3917  -15.3094 N   0  0  0  0  0  0  0  0  0  0  0  0
   24.1892  -19.2968  -14.5583 C   0  0  0  0  0  0  0  0  0  0  0  0
   23.3993  -18.5851  -13.9029 O   0  0  0  0  0  0  0  0  0  0  0  0
   20.5403  -26.4046  -12.3591 C   0  0  0  0  0  0  0  0  0  0  0  0
   27.1962  -15.4897  -15.7421 C   0  0  2  0  0  0  0  0  0  0  0  0
   26.8646  -16.9662  -15.7116 O   0  0  0  0  0  0  0  0  0  0  0  0
   27.8037  -17.6801  -14.9541 C   0  0  1  0  0  0  0  0  0  0  0  0
   25.4658  -17.2526  -15.2987 N   0  0  0  0  0  0  0  0  0  0  0  0
   25.2796  -18.6837  -15.2017 C   0  0  0  0  0  0  0  0  0  0  0  0
   24.4198  -16.6092  -16.1259 O   0  0  0  0  0  0  0  0  0  0  0  0
   24.2121  -16.9904  -17.3063 N   0  0  0  0  0  0  0  0  0  0  0  0
   20.1261  -15.7202  -17.5344 C   0  0  0  0  0  0  0  0  0  0  0  0
   20.1204  -15.3594  -16.1493 O   0  0  0  0  0  0  0  0  0  0  0  0
   19.0295  -15.4411  -15.5580 C   0  0  0  0  0  0  0  0  0  0  0  0
   21.3538  -14.9298  -15.5279 C   0  0  2  0  0  0  0  0  0  0  0  0
   22.5804  -14.8758  -16.3765 N   0  0  0  0  0  0  0  0  0  0  0  0
   23.6346  -15.5488  -15.5949 C   0  0  0  0  0  0  0  0  0  0  0  0
   23.0019  -13.5015  -16.6262 O   0  0  0  0  0  0  0  0  0  0  0  0
   23.8864  -12.9678  -15.8633 O   0  0  0  0  0  0  0  0  0  0  0  0
  2  1  1  0
  3  2  2  0
  4  2  1  0
  5  4  1  0
  6  5  1  0
  7  6  1  0
  8  9  1  1
  8 10  1  0
  8  7  1  0
 10 16  1  0
 10 11  2  0
 13 12  1  6
 14 13  1  0
 15 13  1  0
 15 16  1  6
 17 24  1  0
 17 15  1  0
 18 17  2  0
 19 20  1  0
 20 21  2  0
 20 22  1  0
 23 22  1  6
 23 25  1  0
 23 24  1  0
 25 27  1  0
 26 25  2  0
M  END
$$$$
