RTN.pdb
     RDKit          3D

 27 26  0  0  1  0  0  0  0  0999 V2000
   28.1175  -27.8372  -16.9825 N   0  0  0  0  0  0  0  0  0  0  0  0
   27.7250  -27.0019  -18.0886 C   0  0  0  0  0  0  0  0  0  0  0  0
   27.5887  -27.5585  -19.2396 N   0  0  0  0  0  0  0  0  0  0  0  0
   27.5030  -25.6296  -17.8944 N   0  0  0  0  0  0  0  0  0  0  0  0
   27.4311  -25.0723  -16.5435 C   0  0  0  0  0  0  0  0  0  0  0  0
   26.0071  -25.0083  -16.0686 C   0  0  0  0  0  0  0  0  0  0  0  0
   25.7437  -23.9372  -15.0728 C   0  0  0  0  0  0  0  0  0  0  0  0
   25.5542  -22.5606  -15.6192 C   0  0  2  0  0  0  0  0  0  0  0  0
   26.7536  -21.8379  -15.9110 N   0  0  0  0  0  0  0  0  0  0  0  0
   24.6461  -21.8072  -14.7082 C   0  0  0  0  0  0  0  0  0  0  0  0
   25.0521  -21.2184  -13.6841 O   0  0  0  0  0  0  0  0  0  0  0  0
   27.3189  -27.0261  -20.0872 C   0  0  0  0  0  0  0  0  0  0  0  0
   23.2645  -18.8349  -14.8637 C   0  0  2  0  0  0  0  0  0  0  0  0
   22.0382  -19.7215  -14.8306 O   0  0  0  0  0  0  0  0  0  0  0  0
   21.4408  -19.8063  -16.0960 C   0  0  2  0  0  0  0  0  0  0  0  0
   22.2870  -21.0577  -14.2292 N   0  0  0  0  0  0  0  0  0  0  0  0
   23.2748  -21.7605  -15.0181 C   0  0  0  0  0  0  0  0  0  0  0  0
   21.0771  -21.8776  -13.9918 O   0  0  0  0  0  0  0  0  0  0  0  0
   20.8062  -22.8513  -14.7403 N   0  0  0  0  0  0  0  0  0  0  0  0
   18.0105  -24.3720  -10.9617 C   0  0  0  0  0  0  0  0  0  0  0  0
   18.0169  -23.0334  -10.4551 O   0  0  0  0  0  0  0  0  0  0  0  0
   17.5684  -22.8714   -9.3066 C   0  0  0  0  0  0  0  0  0  0  0  0
   18.5320  -21.9678  -11.2865 C   0  0  2  0  0  0  0  0  0  0  0  0
   18.9454  -22.3079  -12.6796 N   0  0  0  0  0  0  0  0  0  0  0  0
   20.2033  -21.5736  -12.9115 C   0  0  0  0  0  0  0  0  0  0  0  0
   17.9630  -21.8544  -13.6584 O   0  0  0  0  0  0  0  0  0  0  0  0
   17.9208  -20.6107  -13.9755 O   0  0  0  0  0  0  0  0  0  0  0  0
  2  1  1  0
  3  2  2  0
  4  2  1  0
  5  4  1  0
  6  5  1  0
  7  6  1  0
  8  9  1  1
  8 10  1  0
  8  7  1  0
 10 16  1  0
 10 11  2  0
 13 12  1  1
 14 13  1  0
 15 13  1  0
 15 16  1  1
 17 24  1  0
 17 15  1  0
 18 17  2  0
 19 20  1  0
 20 21  2  0
 20 22  1  0
 23 22  1  1
 23 25  1  0
 23 24  1  0
 25 27  1  0
 26 25  2  0
M  END
$$$$
