WST.pdb
     RDKit          3D

 28 29  0  0  1  0  0  0  0  0999 V2000
    6.5175  -17.7422   24.1680 N   0  0  0  0  0  0  0  0  0  0  0  0
    7.4950  -16.7692   23.7524 C   0  0  1  0  0  0  0  0  0  0  0  0
    8.1254  -16.1440   24.9573 C   0  0  0  0  0  0  0  0  0  0  0  0
    7.1647  -15.1628   25.5434 C   0  0  0  0  0  0  0  0  0  0  0  0
    5.9882  -15.4799   26.1880 C   0  0  0  0  0  0  0  0  0  0  0  0
    5.4089  -14.3632   26.6122 N   0  0  0  0  0  0  0  0  0  0  0  0
    6.1607  -13.3072   26.2710 C   0  0  0  0  0  0  0  0  0  0  0  0
    6.0083  -11.9493   26.4623 C   0  0  0  0  0  0  0  0  0  0  0  0
    6.9240  -11.0460   26.0038 C   0  0  0  0  0  0  0  0  0  0  0  0
    8.0232  -11.5346   25.3333 C   0  0  0  0  0  0  0  0  0  0  0  0
    8.2188  -12.8918   25.1176 C   0  0  0  0  0  0  0  0  0  0  0  0
    7.2681  -13.7764   25.5990 C   0  0  0  0  0  0  0  0  0  0  0  0
    8.4961  -17.4599   22.8916 C   0  0  0  0  0  0  0  0  0  0  0  0
    8.8197  -18.6314   23.1694 O   0  0  0  0  0  0  0  0  0  0  0  0
    9.7928  -15.4543   19.9414 O   0  0  0  0  0  0  0  0  0  0  0  0
   10.4157  -16.7132   19.7819 C   0  0  0  0  0  0  0  0  0  0  0  0
   10.2529  -17.3943   21.1492 C   0  0  2  0  0  0  0  0  0  0  0  0
    9.0932  -16.8059   21.7534 N   0  0  0  0  0  0  0  0  0  0  0  0
   11.5008  -17.0609   21.8954 C   0  0  0  0  0  0  0  0  0  0  0  0
   11.6316  -15.8966   22.3320 O   0  0  0  0  0  0  0  0  0  0  0  0
   13.0505  -18.8052   25.0292 C   0  0  0  0  0  0  0  0  0  0  0  0
   14.0109  -18.8976   23.8563 C   0  0  1  0  0  0  0  0  0  0  0  0
   13.8041  -20.1069   23.2028 O   0  0  0  0  0  0  0  0  0  0  0  0
   13.7070  -17.7557   22.9018 C   0  0  2  0  0  0  0  0  0  0  0  0
   12.5260  -18.0063   22.1214 N   0  0  0  0  0  0  0  0  0  0  0  0
   14.8527  -17.5811   21.9911 C   0  0  0  0  0  0  0  0  0  0  0  0
   16.0397  -17.0859   22.4682 O   0  0  0  0  0  0  0  0  0  0  0  0
   14.7474  -17.8824   20.7844 O   0  0  0  0  0  0  0  0  0  0  0  0
  2  1  1  1
  2  3  1  0
  3  4  1  0
  4 12  1  0
  4  5  2  0
  5  6  1  0
  7  8  2  0
  7  6  1  0
  9  8  1  0
 10  9  2  0
 11 10  1  0
 11 12  2  0
 12  7  1  0
 13 18  1  0
 13  2  1  0
 14 13  2  0
 15 16  1  0
 17 16  1  6
 17 18  1  0
 19 17  1  0
 19 25  1  0
 20 19  2  0
 22 24  1  0
 22 21  1  1
 23 22  1  0
 24 25  1  6
 24 26  1  0
 26 28  2  0
 26 27  1  0
M  END
$$$$
