WST.pdb
     RDKit          3D

 28 29  0  0  1  0  0  0  0  0999 V2000
    6.2327  -17.6230   24.7683 N   0  0  0  0  0  0  0  0  0  0  0  0
    6.9488  -16.5577   24.1147 C   0  0  1  0  0  0  0  0  0  0  0  0
    8.0426  -16.0648   25.0095 C   0  0  0  0  0  0  0  0  0  0  0  0
    7.4527  -15.1317   26.0147 C   0  0  0  0  0  0  0  0  0  0  0  0
    6.8962  -15.5001   27.2209 C   0  0  0  0  0  0  0  0  0  0  0  0
    6.5086  -14.4107   27.8730 N   0  0  0  0  0  0  0  0  0  0  0  0
    6.7876  -13.3232   27.1407 C   0  0  0  0  0  0  0  0  0  0  0  0
    6.5853  -11.9751   27.3532 C   0  0  0  0  0  0  0  0  0  0  0  0
    6.9532  -11.0338   26.4348 C   0  0  0  0  0  0  0  0  0  0  0  0
    7.5419  -11.4735   25.2700 C   0  0  0  0  0  0  0  0  0  0  0  0
    7.7657  -12.8190   25.0129 C   0  0  0  0  0  0  0  0  0  0  0  0
    7.3794  -13.7429   25.9696 C   0  0  0  0  0  0  0  0  0  0  0  0
    7.4753  -17.0806   22.8227 C   0  0  0  0  0  0  0  0  0  0  0  0
    7.7730  -18.2885   22.7410 O   0  0  0  0  0  0  0  0  0  0  0  0
    8.4628  -14.5091   19.9357 O   0  0  0  0  0  0  0  0  0  0  0  0
    8.0298  -15.7355   19.3816 C   0  0  0  0  0  0  0  0  0  0  0  0
    8.2667  -16.7626   20.4991 C   0  0  2  0  0  0  0  0  0  0  0  0
    7.6460  -16.2249   21.6746 N   0  0  0  0  0  0  0  0  0  0  0  0
    9.7497  -16.8435   20.6384 C   0  0  0  0  0  0  0  0  0  0  0  0
   10.3427  -15.8844   21.1788 O   0  0  0  0  0  0  0  0  0  0  0  0
   12.0495  -19.9421   21.8531 C   0  0  0  0  0  0  0  0  0  0  0  0
   12.3790  -19.5030   20.4369 C   0  0  1  0  0  0  0  0  0  0  0  0
   11.6812  -20.3088   19.5447 O   0  0  0  0  0  0  0  0  0  0  0  0
   11.9266  -18.0628   20.2683 C   0  0  2  0  0  0  0  0  0  0  0  0
   10.4956  -17.9544   20.1852 N   0  0  0  0  0  0  0  0  0  0  0  0
   12.5189  -17.5213   19.0320 C   0  0  0  0  0  0  0  0  0  0  0  0
   13.8498  -17.1908   18.9958 O   0  0  0  0  0  0  0  0  0  0  0  0
   11.8130  -17.3615   18.0150 O   0  0  0  0  0  0  0  0  0  0  0  0
  2  1  1  1
  2  3  1  0
  3  4  1  0
  4 12  1  0
  4  5  2  0
  5  6  1  0
  7  8  2  0
  7  6  1  0
  9  8  1  0
 10  9  2  0
 11 10  1  0
 11 12  2  0
 12  7  1  0
 13 18  1  0
 13  2  1  0
 14 13  2  0
 15 16  1  0
 17 16  1  6
 17 18  1  0
 19 17  1  0
 19 25  1  0
 20 19  2  0
 22 24  1  0
 22 21  1  1
 23 22  1  0
 24 25  1  6
 24 26  1  0
 26 28  2  0
 26 27  1  0
M  END
$$$$
