WST.pdb
     RDKit          3D

 28 29  0  0  1  0  0  0  0  0999 V2000
    6.7908  -17.6082   24.0597 N   0  0  0  0  0  0  0  0  0  0  0  0
    7.8063  -16.6707   23.6539 C   0  0  1  0  0  0  0  0  0  0  0  0
    8.3529  -15.9697   24.8581 C   0  0  0  0  0  0  0  0  0  0  0  0
    7.3298  -15.0007   25.3515 C   0  0  0  0  0  0  0  0  0  0  0  0
    6.0669  -15.3262   25.7979 C   0  0  0  0  0  0  0  0  0  0  0  0
    5.4467  -14.2216   26.1949 N   0  0  0  0  0  0  0  0  0  0  0  0
    6.2549  -13.1654   26.0275 C   0  0  0  0  0  0  0  0  0  0  0  0
    6.0945  -11.8168   26.2707 C   0  0  0  0  0  0  0  0  0  0  0  0
    7.0800  -10.9103   26.0029 C   0  0  0  0  0  0  0  0  0  0  0  0
    8.2593  -11.3860   25.4742 C   0  0  0  0  0  0  0  0  0  0  0  0
    8.4660  -12.7336   25.2133 C   0  0  0  0  0  0  0  0  0  0  0  0
    7.4428  -13.6218   25.4997 C   0  0  0  0  0  0  0  0  0  0  0  0
    8.8607  -17.4229   22.9173 C   0  0  0  0  0  0  0  0  0  0  0  0
    9.2164  -18.5366   23.3502 O   0  0  0  0  0  0  0  0  0  0  0  0
   10.8964  -15.5400   20.0374 O   0  0  0  0  0  0  0  0  0  0  0  0
   10.8764  -16.9347   19.8075 C   0  0  0  0  0  0  0  0  0  0  0  0
   10.6352  -17.5458   21.1961 C   0  0  2  0  0  0  0  0  0  0  0  0
    9.4727  -16.8930   21.7239 N   0  0  0  0  0  0  0  0  0  0  0  0
   11.8625  -17.2185   21.9783 C   0  0  0  0  0  0  0  0  0  0  0  0
   11.8046  -16.2735   22.7950 O   0  0  0  0  0  0  0  0  0  0  0  0
   15.9509  -18.8245   24.0571 C   0  0  0  0  0  0  0  0  0  0  0  0
   14.5872  -19.0206   23.4179 C   0  0  1  0  0  0  0  0  0  0  0  0
   13.6485  -19.2302   24.4214 O   0  0  0  0  0  0  0  0  0  0  0  0
   14.2318  -17.7543   22.6580 C   0  0  2  0  0  0  0  0  0  0  0  0
   13.0721  -17.9326   21.8274 N   0  0  0  0  0  0  0  0  0  0  0  0
   15.3743  -17.3751   21.8076 C   0  0  0  0  0  0  0  0  0  0  0  0
   16.2498  -16.4055   22.2263 O   0  0  0  0  0  0  0  0  0  0  0  0
   15.5492  -17.9334   20.7051 O   0  0  0  0  0  0  0  0  0  0  0  0
  2  1  1  1
  2  3  1  0
  3  4  1  0
  4 12  1  0
  4  5  2  0
  5  6  1  0
  7  8  2  0
  7  6  1  0
  9  8  1  0
 10  9  2  0
 11 10  1  0
 11 12  2  0
 12  7  1  0
 13 18  1  0
 13  2  1  0
 14 13  2  0
 15 16  1  0
 17 16  1  6
 17 18  1  0
 19 17  1  0
 19 25  1  0
 20 19  2  0
 22 24  1  0
 22 21  1  1
 23 22  1  0
 24 25  1  6
 24 26  1  0
 26 28  2  0
 26 27  1  0
M  END
$$$$
