WST.pdb
     RDKit          3D

 28 29  0  0  1  0  0  0  0  0999 V2000
    6.5555  -17.3978   24.5365 N   0  0  0  0  0  0  0  0  0  0  0  0
    7.7242  -16.5827   24.3252 C   0  0  1  0  0  0  0  0  0  0  0  0
    8.0091  -15.7838   25.5584 C   0  0  0  0  0  0  0  0  0  0  0  0
    6.9506  -14.7413   25.7067 C   0  0  0  0  0  0  0  0  0  0  0  0
    5.6469  -14.9717   26.0908 C   0  0  0  0  0  0  0  0  0  0  0  0
    5.0000  -13.8141   26.1536 N   0  0  0  0  0  0  0  0  0  0  0  0
    5.8300  -12.8149   25.8227 C   0  0  0  0  0  0  0  0  0  0  0  0
    5.6579  -11.4494   25.7245 C   0  0  0  0  0  0  0  0  0  0  0  0
    6.6729  -10.6166   25.3492 C   0  0  0  0  0  0  0  0  0  0  0  0
    7.8947  -11.1856   25.0659 C   0  0  0  0  0  0  0  0  0  0  0  0
    8.1145  -12.5535   25.1512 C   0  0  0  0  0  0  0  0  0  0  0  0
    7.0602  -13.3648   25.5365 C   0  0  0  0  0  0  0  0  0  0  0  0
    8.8561  -17.4832   23.9675 C   0  0  0  0  0  0  0  0  0  0  0  0
    8.8541  -18.6514   24.4030 O   0  0  0  0  0  0  0  0  0  0  0  0
   11.6366  -15.6106   22.0715 O   0  0  0  0  0  0  0  0  0  0  0  0
   12.1837  -16.8829   22.3552 C   0  0  0  0  0  0  0  0  0  0  0  0
   11.2784  -17.4488   23.4597 C   0  0  2  0  0  0  0  0  0  0  0  0
    9.9446  -17.0344   23.1348 N   0  0  0  0  0  0  0  0  0  0  0  0
   11.7680  -16.8167   24.7191 C   0  0  0  0  0  0  0  0  0  0  0  0
   12.4941  -15.8032   24.6246 O   0  0  0  0  0  0  0  0  0  0  0  0
   10.8584  -14.5634   27.0299 C   0  0  0  0  0  0  0  0  0  0  0  0
   10.9190  -15.8269   27.8705 C   0  0  1  0  0  0  0  0  0  0  0  0
    9.6647  -16.4259   27.8692 O   0  0  0  0  0  0  0  0  0  0  0  0
   11.9247  -16.7722   27.2362 C   0  0  2  0  0  0  0  0  0  0  0  0
   11.4417  -17.3201   25.9981 N   0  0  0  0  0  0  0  0  0  0  0  0
   12.1943  -17.8768   28.1741 C   0  0  0  0  0  0  0  0  0  0  0  0
   11.8323  -19.1589   27.8471 O   0  0  0  0  0  0  0  0  0  0  0  0
   12.7517  -17.6502   29.2677 O   0  0  0  0  0  0  0  0  0  0  0  0
  2  1  1  1
  2  3  1  0
  3  4  1  0
  4 12  1  0
  4  5  2  0
  5  6  1  0
  7  8  2  0
  7  6  1  0
  9  8  1  0
 10  9  2  0
 11 10  1  0
 11 12  2  0
 12  7  1  0
 13 18  1  0
 13  2  1  0
 14 13  2  0
 15 16  1  0
 17 16  1  6
 17 18  1  0
 19 17  1  0
 19 25  1  0
 20 19  2  0
 22 24  1  0
 22 21  1  6
 23 22  1  0
 24 25  1  6
 24 26  1  0
 26 28  2  0
 26 27  1  0
M  END
$$$$
