WST.pdb
     RDKit          3D

 28 29  0  0  1  0  0  0  0  0999 V2000
    6.7420  -18.0990   24.7000 N   0  0  0  0  0  0  0  0  0  0  0  0
    7.3976  -16.9701   24.0911 C   0  0  1  0  0  0  0  0  0  0  0  0
    8.1274  -16.1882   25.1380 C   0  0  0  0  0  0  0  0  0  0  0  0
    7.2014  -15.1589   25.6969 C   0  0  0  0  0  0  0  0  0  0  0  0
    5.9653  -15.4101   26.2530 C   0  0  0  0  0  0  0  0  0  0  0  0
    5.4392  -14.2683   26.6796 N   0  0  0  0  0  0  0  0  0  0  0  0
    6.2844  -13.2594   26.4259 C   0  0  0  0  0  0  0  0  0  0  0  0
    6.2155  -11.9008   26.6564 C   0  0  0  0  0  0  0  0  0  0  0  0
    7.2208  -11.0522   26.2906 C   0  0  0  0  0  0  0  0  0  0  0  0
    8.3251  -11.5978   25.6743 C   0  0  0  0  0  0  0  0  0  0  0  0
    8.4385  -12.9580   25.4223 C   0  0  0  0  0  0  0  0  0  0  0  0
    7.3981  -13.7861   25.8094 C   0  0  0  0  0  0  0  0  0  0  0  0
    8.3147  -17.4838   23.0351 C   0  0  0  0  0  0  0  0  0  0  0  0
    8.7562  -18.6453   23.1370 O   0  0  0  0  0  0  0  0  0  0  0  0
    8.6613  -16.1509   19.3063 O   0  0  0  0  0  0  0  0  0  0  0  0
    9.9143  -16.0716   19.9560 C   0  0  0  0  0  0  0  0  0  0  0  0
    9.8122  -17.0865   21.1047 C   0  0  2  0  0  0  0  0  0  0  0  0
    8.6987  -16.6713   21.9072 N   0  0  0  0  0  0  0  0  0  0  0  0
   11.1049  -16.9666   21.8393 C   0  0  0  0  0  0  0  0  0  0  0  0
   11.3066  -15.9304   22.5094 O   0  0  0  0  0  0  0  0  0  0  0  0
   12.4842  -19.2624   24.5426 C   0  0  0  0  0  0  0  0  0  0  0  0
   13.4554  -19.2718   23.3750 C   0  0  1  0  0  0  0  0  0  0  0  0
   13.1432  -20.3396   22.5417 O   0  0  0  0  0  0  0  0  0  0  0  0
   13.2873  -17.9725   22.6062 C   0  0  2  0  0  0  0  0  0  0  0  0
   12.0956  -17.9731   21.8023 N   0  0  0  0  0  0  0  0  0  0  0  0
   14.4559  -17.7868   21.7274 C   0  0  0  0  0  0  0  0  0  0  0  0
   15.6679  -17.4312   22.2627 O   0  0  0  0  0  0  0  0  0  0  0  0
   14.3474  -17.9518   20.4949 O   0  0  0  0  0  0  0  0  0  0  0  0
  2  1  1  1
  2  3  1  0
  3  4  1  0
  4 12  1  0
  4  5  2  0
  5  6  1  0
  7  8  2  0
  7  6  1  0
  9  8  1  0
 10  9  2  0
 11 10  1  0
 11 12  2  0
 12  7  1  0
 13 18  1  0
 13  2  1  0
 14 13  2  0
 15 16  1  0
 17 16  1  6
 17 18  1  0
 19 17  1  0
 19 25  1  0
 20 19  2  0
 22 24  1  0
 22 21  1  1
 23 22  1  0
 24 25  1  6
 24 26  1  0
 26 28  2  0
 26 27  1  0
M  END
$$$$
