WST.pdb
     RDKit          3D

 28 29  0  0  1  0  0  0  0  0999 V2000
    6.4506  -17.5935   24.4637 N   0  0  0  0  0  0  0  0  0  0  0  0
    7.4890  -16.6983   24.0218 C   0  0  1  0  0  0  0  0  0  0  0  0
    8.0973  -16.0118   25.2044 C   0  0  0  0  0  0  0  0  0  0  0  0
    7.1565  -14.9537   25.6780 C   0  0  0  0  0  0  0  0  0  0  0  0
    5.9181  -15.1758   26.2412 C   0  0  0  0  0  0  0  0  0  0  0  0
    5.3771  -14.0111   26.5779 N   0  0  0  0  0  0  0  0  0  0  0  0
    6.2146  -13.0150   26.2568 C   0  0  0  0  0  0  0  0  0  0  0  0
    6.1305  -11.6439   26.3855 C   0  0  0  0  0  0  0  0  0  0  0  0
    7.1307  -10.8143   25.9658 C   0  0  0  0  0  0  0  0  0  0  0  0
    8.2455  -11.3925   25.4006 C   0  0  0  0  0  0  0  0  0  0  0  0
    8.3745  -12.7664   25.2510 C   0  0  0  0  0  0  0  0  0  0  0  0
    7.3388  -13.5743   25.6901 C   0  0  0  0  0  0  0  0  0  0  0  0
    8.4915  -17.4951   23.2600 C   0  0  0  0  0  0  0  0  0  0  0  0
    8.7597  -18.6495   23.6469 O   0  0  0  0  0  0  0  0  0  0  0  0
   10.1532  -15.6587   20.3646 O   0  0  0  0  0  0  0  0  0  0  0  0
   10.6378  -16.9809   20.2403 C   0  0  0  0  0  0  0  0  0  0  0  0
   10.3166  -17.6327   21.5937 C   0  0  2  0  0  0  0  0  0  0  0  0
    9.1521  -16.9621   22.0942 N   0  0  0  0  0  0  0  0  0  0  0  0
   11.5173  -17.3725   22.4399 C   0  0  0  0  0  0  0  0  0  0  0  0
   11.6604  -16.2274   22.9213 O   0  0  0  0  0  0  0  0  0  0  0  0
   12.6654  -19.1049   25.6641 C   0  0  0  0  0  0  0  0  0  0  0  0
   13.7285  -19.3120   24.5995 C   0  0  1  0  0  0  0  0  0  0  0  0
   13.4950  -20.5260   23.9639 O   0  0  0  0  0  0  0  0  0  0  0  0
   13.6117  -18.1868   23.5857 C   0  0  2  0  0  0  0  0  0  0  0  0
   12.4850  -18.3654   22.7110 N   0  0  0  0  0  0  0  0  0  0  0  0
   14.8429  -18.1480   22.7763 C   0  0  0  0  0  0  0  0  0  0  0  0
   16.0375  -17.8094   23.3595 O   0  0  0  0  0  0  0  0  0  0  0  0
   14.8034  -18.4223   21.5593 O   0  0  0  0  0  0  0  0  0  0  0  0
  2  1  1  1
  2  3  1  0
  3  4  1  0
  4 12  1  0
  4  5  2  0
  5  6  1  0
  7  8  2  0
  7  6  1  0
  9  8  1  0
 10  9  2  0
 11 10  1  0
 11 12  2  0
 12  7  1  0
 13 18  1  0
 13  2  1  0
 14 13  2  0
 15 16  1  0
 17 16  1  6
 17 18  1  0
 19 17  1  0
 19 25  1  0
 20 19  2  0
 22 24  1  0
 22 21  1  1
 23 22  1  0
 24 25  1  6
 24 26  1  0
 26 28  2  0
 26 27  1  0
M  END
$$$$
