WST.pdb
     RDKit          3D

 28 29  0  0  1  0  0  0  0  0999 V2000
    6.4988  -17.4404   24.5428 N   0  0  0  0  0  0  0  0  0  0  0  0
    7.6844  -16.6297   24.4322 C   0  0  1  0  0  0  0  0  0  0  0  0
    7.8891  -15.8633   25.7014 C   0  0  0  0  0  0  0  0  0  0  0  0
    6.9366  -14.7138   25.7236 C   0  0  0  0  0  0  0  0  0  0  0  0
    5.6652  -14.7363   26.2559 C   0  0  0  0  0  0  0  0  0  0  0  0
    5.1212  -13.5313   26.1362 N   0  0  0  0  0  0  0  0  0  0  0  0
    5.9886  -12.7019   25.5392 C   0  0  0  0  0  0  0  0  0  0  0  0
    5.9151  -11.3718   25.1798 C   0  0  0  0  0  0  0  0  0  0  0  0
    6.9483  -10.7315   24.5577 C   0  0  0  0  0  0  0  0  0  0  0  0
    8.0860  -11.4613   24.2936 C   0  0  0  0  0  0  0  0  0  0  0  0
    8.2054  -12.8009   24.6369 C   0  0  0  0  0  0  0  0  0  0  0  0
    7.1359  -13.4144   25.2677 C   0  0  0  0  0  0  0  0  0  0  0  0
    8.8325  -17.5303   24.1306 C   0  0  0  0  0  0  0  0  0  0  0  0
    8.7825  -18.7153   24.5148 O   0  0  0  0  0  0  0  0  0  0  0  0
   11.4659  -16.2419   21.8643 O   0  0  0  0  0  0  0  0  0  0  0  0
   12.2526  -17.0834   22.6837 C   0  0  0  0  0  0  0  0  0  0  0  0
   11.2798  -17.5804   23.7638 C   0  0  2  0  0  0  0  0  0  0  0  0
    9.9904  -17.0626   23.4094 N   0  0  0  0  0  0  0  0  0  0  0  0
   11.7866  -16.9919   25.0374 C   0  0  0  0  0  0  0  0  0  0  0  0
   12.5753  -16.0243   24.9652 O   0  0  0  0  0  0  0  0  0  0  0  0
   10.4347  -14.8895   27.5149 C   0  0  0  0  0  0  0  0  0  0  0  0
   10.6937  -16.1884   28.2581 C   0  0  1  0  0  0  0  0  0  0  0  0
    9.5455  -16.9701   28.2066 O   0  0  0  0  0  0  0  0  0  0  0  0
   11.8270  -16.9188   27.5584 C   0  0  2  0  0  0  0  0  0  0  0  0
   11.4090  -17.4866   26.3057 N   0  0  0  0  0  0  0  0  0  0  0  0
   12.3073  -18.0009   28.4364 C   0  0  0  0  0  0  0  0  0  0  0  0
   12.8817  -17.7003   29.6453 O   0  0  0  0  0  0  0  0  0  0  0  0
   12.1936  -19.1929   28.0838 O   0  0  0  0  0  0  0  0  0  0  0  0
  2  1  1  1
  2  3  1  0
  3  4  1  0
  4 12  1  0
  4  5  2  0
  5  6  1  0
  7  8  2  0
  7  6  1  0
  9  8  1  0
 10  9  2  0
 11 10  1  0
 11 12  2  0
 12  7  1  0
 13 18  1  0
 13  2  1  0
 14 13  2  0
 15 16  1  0
 17 16  1  6
 17 18  1  0
 19 17  1  0
 19 25  1  0
 20 19  2  0
 22 24  1  0
 22 21  1  6
 23 22  1  0
 24 25  1  6
 24 26  1  0
 26 28  2  0
 26 27  1  0
M  END
$$$$
