WST.pdb
     RDKit          3D

 28 29  0  0  1  0  0  0  0  0999 V2000
    9.2850  -15.3484   21.5088 N   0  0  0  0  0  0  0  0  0  0  0  0
    9.4990  -15.3511   22.9333 C   0  0  1  0  0  0  0  0  0  0  0  0
    8.2247  -15.7091   23.6320 C   0  0  0  0  0  0  0  0  0  0  0  0
    7.3681  -14.4892   23.7169 C   0  0  0  0  0  0  0  0  0  0  0  0
    6.3682  -14.1486   22.8312 C   0  0  0  0  0  0  0  0  0  0  0  0
    5.7918  -13.0234   23.2363 N   0  0  0  0  0  0  0  0  0  0  0  0
    6.3751  -12.5989   24.3660 C   0  0  0  0  0  0  0  0  0  0  0  0
    6.1621  -11.5005   25.1733 C   0  0  0  0  0  0  0  0  0  0  0  0
    6.9081  -11.2693   26.2935 C   0  0  0  0  0  0  0  0  0  0  0  0
    7.8965  -12.1775   26.6016 C   0  0  0  0  0  0  0  0  0  0  0  0
    8.1468  -13.2966   25.8196 C   0  0  0  0  0  0  0  0  0  0  0  0
    7.3678  -13.4968   24.6921 C   0  0  0  0  0  0  0  0  0  0  0  0
   10.5928  -16.3174   23.2336 C   0  0  0  0  0  0  0  0  0  0  0  0
   11.5245  -16.4424   22.4147 O   0  0  0  0  0  0  0  0  0  0  0  0
   12.8950  -17.2302   26.4374 O   0  0  0  0  0  0  0  0  0  0  0  0
   12.8950  -17.2348   25.0238 C   0  0  0  0  0  0  0  0  0  0  0  0
   11.6509  -18.0529   24.6459 C   0  0  2  0  0  0  0  0  0  0  0  0
   10.5952  -17.1042   24.4421 N   0  0  0  0  0  0  0  0  0  0  0  0
   11.3941  -18.9286   25.8259 C   0  0  0  0  0  0  0  0  0  0  0  0
   10.9988  -18.3901   26.8829 O   0  0  0  0  0  0  0  0  0  0  0  0
   10.3910  -23.0295   25.3428 C   0  0  0  0  0  0  0  0  0  0  0  0
   11.3869  -22.6844   26.4363 C   0  0  1  0  0  0  0  0  0  0  0  0
   12.6739  -22.8405   25.9350 O   0  0  0  0  0  0  0  0  0  0  0  0
   11.1768  -21.2324   26.8299 C   0  0  2  0  0  0  0  0  0  0  0  0
   11.5809  -20.3284   25.7878 N   0  0  0  0  0  0  0  0  0  0  0  0
   11.9685  -20.9498   28.0406 C   0  0  0  0  0  0  0  0  0  0  0  0
   11.4675  -21.2661   29.2778 O   0  0  0  0  0  0  0  0  0  0  0  0
   13.0958  -20.4225   27.9449 O   0  0  0  0  0  0  0  0  0  0  0  0
  2  1  1  6
  2  3  1  0
  3  4  1  0
  4 12  1  0
  4  5  2  0
  5  6  1  0
  7  8  2  0
  7  6  1  0
  9  8  1  0
 10  9  2  0
 11 10  1  0
 11 12  2  0
 12  7  1  0
 13 18  1  0
 13  2  1  0
 14 13  2  0
 15 16  1  0
 17 16  1  1
 17 18  1  0
 19 17  1  0
 19 25  1  0
 20 19  2  0
 22 24  1  0
 22 21  1  6
 23 22  1  0
 24 25  1  6
 24 26  1  0
 26 28  2  0
 26 27  1  0
M  END
$$$$
