WST.pdb
     RDKit          3D

 28 29  0  0  1  0  0  0  0  0999 V2000
    6.3542  -17.8878   24.4657 N   0  0  0  0  0  0  0  0  0  0  0  0
    6.9117  -16.7398   23.7976 C   0  0  1  0  0  0  0  0  0  0  0  0
    7.8413  -16.0213   24.7247 C   0  0  0  0  0  0  0  0  0  0  0  0
    7.0510  -15.0431   25.5294 C   0  0  0  0  0  0  0  0  0  0  0  0
    6.0050  -15.3568   26.3707 C   0  0  0  0  0  0  0  0  0  0  0  0
    5.5639  -14.2469   26.9504 N   0  0  0  0  0  0  0  0  0  0  0  0
    6.2818  -13.1987   26.5230 C   0  0  0  0  0  0  0  0  0  0  0  0
    6.2258  -11.8492   26.8046 C   0  0  0  0  0  0  0  0  0  0  0  0
    7.0758  -10.9522   26.2236 C   0  0  0  0  0  0  0  0  0  0  0  0
    8.0071  -11.4386   25.3331 C   0  0  0  0  0  0  0  0  0  0  0  0
    8.1008  -12.7875   25.0195 C   0  0  0  0  0  0  0  0  0  0  0  0
    7.2216  -13.6659   25.6305 C   0  0  0  0  0  0  0  0  0  0  0  0
    7.6043  -17.2139   22.5665 C   0  0  0  0  0  0  0  0  0  0  0  0
    7.9371  -18.4129   22.4893 O   0  0  0  0  0  0  0  0  0  0  0  0
    8.9959  -14.4798   19.9539 O   0  0  0  0  0  0  0  0  0  0  0  0
    8.7159  -15.7151   19.3262 C   0  0  0  0  0  0  0  0  0  0  0  0
    8.8154  -16.7485   20.4586 C   0  0  2  0  0  0  0  0  0  0  0  0
    7.8952  -16.3212   21.4718 N   0  0  0  0  0  0  0  0  0  0  0  0
   10.2310  -16.6741   20.9231 C   0  0  0  0  0  0  0  0  0  0  0  0
   10.5313  -15.7899   21.7547 O   0  0  0  0  0  0  0  0  0  0  0  0
   12.3139  -19.2436   22.7768 C   0  0  0  0  0  0  0  0  0  0  0  0
   12.9652  -18.9945   21.4275 C   0  0  1  0  0  0  0  0  0  0  0  0
   12.4855  -19.9311   20.5193 O   0  0  0  0  0  0  0  0  0  0  0  0
   12.5762  -17.6021   20.9616 C   0  0  2  0  0  0  0  0  0  0  0  0
   11.2299  -17.5590   20.4595 N   0  0  0  0  0  0  0  0  0  0  0  0
   13.4988  -17.1855   19.8902 C   0  0  0  0  0  0  0  0  0  0  0  0
   14.6881  -16.5791   20.2056 O   0  0  0  0  0  0  0  0  0  0  0  0
   13.2018  -17.3824   18.6939 O   0  0  0  0  0  0  0  0  0  0  0  0
  2  1  1  1
  2  3  1  0
  3  4  1  0
  4 12  1  0
  4  5  2  0
  5  6  1  0
  7  8  2  0
  7  6  1  0
  9  8  1  0
 10  9  2  0
 11 10  1  0
 11 12  2  0
 12  7  1  0
 13 18  1  0
 13  2  1  0
 14 13  2  0
 15 16  1  0
 17 16  1  6
 17 18  1  0
 19 17  1  0
 19 25  1  0
 20 19  2  0
 22 24  1  0
 22 21  1  1
 23 22  1  0
 24 25  1  6
 24 26  1  0
 26 28  2  0
 26 27  1  0
M  END
$$$$
