WST.pdb
     RDKit          3D

 28 29  0  0  1  0  0  0  0  0999 V2000
    8.1884  -17.5857   25.6519 N   0  0  0  0  0  0  0  0  0  0  0  0
    7.3935  -17.5402   24.4514 C   0  0  1  0  0  0  0  0  0  0  0  0
    6.4187  -16.4077   24.5370 C   0  0  0  0  0  0  0  0  0  0  0  0
    6.7783  -15.5562   25.7095 C   0  0  0  0  0  0  0  0  0  0  0  0
    7.0682  -16.0170   26.9760 C   0  0  0  0  0  0  0  0  0  0  0  0
    7.3807  -14.9873   27.7535 N   0  0  0  0  0  0  0  0  0  0  0  0
    7.3083  -13.8504   27.0473 C   0  0  0  0  0  0  0  0  0  0  0  0
    7.5232  -12.5282   27.3781 C   0  0  0  0  0  0  0  0  0  0  0  0
    7.3736  -11.5205   26.4689 C   0  0  0  0  0  0  0  0  0  0  0  0
    6.9957  -11.8647   25.1900 C   0  0  0  0  0  0  0  0  0  0  0  0
    6.7689  -13.1807   24.8114 C   0  0  0  0  0  0  0  0  0  0  0  0
    6.9322  -14.1744   25.7622 C   0  0  0  0  0  0  0  0  0  0  0  0
    8.3177  -17.3971   23.2915 C   0  0  0  0  0  0  0  0  0  0  0  0
    7.8502  -17.4774   22.1385 O   0  0  0  0  0  0  0  0  0  0  0  0
   10.1452  -14.9513   21.9099 O   0  0  0  0  0  0  0  0  0  0  0  0
   11.2246  -15.8069   22.2278 C   0  0  0  0  0  0  0  0  0  0  0  0
   10.5884  -17.2017   22.3261 C   0  0  2  0  0  0  0  0  0  0  0  0
    9.7300  -17.1696   23.4741 N   0  0  0  0  0  0  0  0  0  0  0  0
   11.7367  -18.1352   22.5138 C   0  0  0  0  0  0  0  0  0  0  0  0
   11.7372  -18.8708   23.5249 O   0  0  0  0  0  0  0  0  0  0  0  0
   16.1415  -19.8073   20.9174 C   0  0  0  0  0  0  0  0  0  0  0  0
   14.9333  -18.9391   20.6122 C   0  0  1  0  0  0  0  0  0  0  0  0
   14.2454  -19.4911   19.5379 O   0  0  0  0  0  0  0  0  0  0  0  0
   14.0307  -18.9340   21.8339 C   0  0  2  0  0  0  0  0  0  0  0  0
   12.8093  -18.2136   21.5977 N   0  0  0  0  0  0  0  0  0  0  0  0
   14.7504  -18.2994   22.9527 C   0  0  0  0  0  0  0  0  0  0  0  0
   15.2467  -19.0688   23.9743 O   0  0  0  0  0  0  0  0  0  0  0  0
   14.9107  -17.0618   22.9750 O   0  0  0  0  0  0  0  0  0  0  0  0
  2  1  1  1
  2  3  1  0
  3  4  1  0
  4 12  1  0
  4  5  2  0
  5  6  1  0
  7  8  2  0
  7  6  1  0
  9  8  1  0
 10  9  2  0
 11 10  1  0
 11 12  2  0
 12  7  1  0
 13 18  1  0
 13  2  1  0
 14 13  2  0
 15 16  1  0
 17 16  1  1
 17 18  1  0
 19 17  1  0
 19 25  1  0
 20 19  2  0
 22 24  1  0
 22 21  1  1
 23 22  1  0
 24 25  1  6
 24 26  1  0
 26 28  2  0
 26 27  1  0
M  END
$$$$
