WST.pdb
     RDKit          3D

 28 29  0  0  1  0  0  0  0  0999 V2000
    6.5067  -18.5208   23.6573 N   0  0  0  0  0  0  0  0  0  0  0  0
    7.3532  -17.4548   24.1288 C   0  0  1  0  0  0  0  0  0  0  0  0
    7.0190  -17.1408   25.5535 C   0  0  0  0  0  0  0  0  0  0  0  0
    6.4400  -15.7661   25.6160 C   0  0  0  0  0  0  0  0  0  0  0  0
    5.0958  -15.4608   25.5980 C   0  0  0  0  0  0  0  0  0  0  0  0
    4.9459  -14.1463   25.7080 N   0  0  0  0  0  0  0  0  0  0  0  0
    6.1484  -13.5610   25.7984 C   0  0  0  0  0  0  0  0  0  0  0  0
    6.5411  -12.2438   25.9184 C   0  0  0  0  0  0  0  0  0  0  0  0
    7.8566  -11.8832   25.9833 C   0  0  0  0  0  0  0  0  0  0  0  0
    8.7979  -12.8868   25.9247 C   0  0  0  0  0  0  0  0  0  0  0  0
    8.4500  -14.2252   25.8045 C   0  0  0  0  0  0  0  0  0  0  0  0
    7.1052  -14.5506   25.7429 C   0  0  0  0  0  0  0  0  0  0  0  0
    8.7704  -17.8857   23.9679 C   0  0  0  0  0  0  0  0  0  0  0  0
    9.0601  -19.0819   24.1669 O   0  0  0  0  0  0  0  0  0  0  0  0
   11.3204  -15.3445   22.5815 O   0  0  0  0  0  0  0  0  0  0  0  0
   11.9962  -16.5740   22.7548 C   0  0  0  0  0  0  0  0  0  0  0  0
   11.1740  -17.3131   23.8214 C   0  0  2  0  0  0  0  0  0  0  0  0
    9.8049  -16.9548   23.5901 N   0  0  0  0  0  0  0  0  0  0  0  0
   11.6755  -16.7887   25.1247 C   0  0  0  0  0  0  0  0  0  0  0  0
   12.0842  -15.6077   25.1653 O   0  0  0  0  0  0  0  0  0  0  0  0
   10.7397  -15.2238   27.9305 C   0  0  0  0  0  0  0  0  0  0  0  0
   11.1684  -16.5760   28.4733 C   0  0  1  0  0  0  0  0  0  0  0  0
   10.0712  -17.4293   28.4666 O   0  0  0  0  0  0  0  0  0  0  0  0
   12.2429  -17.1368   27.5577 C   0  0  2  0  0  0  0  0  0  0  0  0
   11.7032  -17.5737   26.2990 N   0  0  0  0  0  0  0  0  0  0  0  0
   12.8842  -18.2835   28.2259 C   0  0  0  0  0  0  0  0  0  0  0  0
   13.5517  -18.1024   29.4105 O   0  0  0  0  0  0  0  0  0  0  0  0
   12.8226  -19.4216   27.7172 O   0  0  0  0  0  0  0  0  0  0  0  0
  2  1  1  1
  2  3  1  0
  3  4  1  0
  4 12  1  0
  4  5  2  0
  5  6  1  0
  7  8  2  0
  7  6  1  0
  9  8  1  0
 10  9  2  0
 11 10  1  0
 11 12  2  0
 12  7  1  0
 13 18  1  0
 13  2  1  0
 14 13  2  0
 15 16  1  0
 17 16  1  6
 17 18  1  0
 19 17  1  0
 19 25  1  0
 20 19  2  0
 22 24  1  0
 22 21  1  6
 23 22  1  0
 24 25  1  6
 24 26  1  0
 26 28  2  0
 26 27  1  0
M  END
$$$$
