WST.pdb
     RDKit          3D

 28 29  0  0  1  0  0  0  0  0999 V2000
    6.7900  -17.8698   24.3207 N   0  0  0  0  0  0  0  0  0  0  0  0
    7.6488  -16.8056   23.8680 C   0  0  1  0  0  0  0  0  0  0  0  0
    8.2700  -16.1251   25.0474 C   0  0  0  0  0  0  0  0  0  0  0  0
    7.2616  -15.2061   25.6537 C   0  0  0  0  0  0  0  0  0  0  0  0
    6.0589  -15.5890   26.2081 C   0  0  0  0  0  0  0  0  0  0  0  0
    5.4373  -14.5169   26.6840 N   0  0  0  0  0  0  0  0  0  0  0  0
    6.1861  -13.4268   26.4650 C   0  0  0  0  0  0  0  0  0  0  0  0
    5.9983  -12.0901   26.7505 C   0  0  0  0  0  0  0  0  0  0  0  0
    6.9197  -11.1408   26.4119 C   0  0  0  0  0  0  0  0  0  0  0  0
    8.0616  -11.5602   25.7664 C   0  0  0  0  0  0  0  0  0  0  0  0
    8.2937  -12.8938   25.4591 C   0  0  0  0  0  0  0  0  0  0  0  0
    7.3358  -13.8266   25.8200 C   0  0  0  0  0  0  0  0  0  0  0  0
    8.6717  -17.3939   22.9581 C   0  0  0  0  0  0  0  0  0  0  0  0
    9.1290  -18.5237   23.2202 O   0  0  0  0  0  0  0  0  0  0  0  0
    9.8088  -15.1106   20.1232 O   0  0  0  0  0  0  0  0  0  0  0  0
   10.4538  -16.3370   19.8429 C   0  0  0  0  0  0  0  0  0  0  0  0
   10.3443  -17.1326   21.1525 C   0  0  2  0  0  0  0  0  0  0  0  0
    9.1394  -16.6885   21.7905 N   0  0  0  0  0  0  0  0  0  0  0  0
   11.5595  -16.7578   21.9323 C   0  0  0  0  0  0  0  0  0  0  0  0
   11.6617  -15.5769   22.3303 O   0  0  0  0  0  0  0  0  0  0  0  0
   13.1214  -18.4627   25.1358 C   0  0  0  0  0  0  0  0  0  0  0  0
   14.0990  -18.5064   23.9742 C   0  0  1  0  0  0  0  0  0  0  0  0
   13.9600  -19.7237   23.3178 O   0  0  0  0  0  0  0  0  0  0  0  0
   13.7503  -17.3799   23.0167 C   0  0  2  0  0  0  0  0  0  0  0  0
   12.5849  -17.6825   22.2314 N   0  0  0  0  0  0  0  0  0  0  0  0
   14.8916  -17.1571   22.1109 C   0  0  0  0  0  0  0  0  0  0  0  0
   16.0383  -16.5706   22.5830 O   0  0  0  0  0  0  0  0  0  0  0  0
   14.8191  -17.5003   20.9131 O   0  0  0  0  0  0  0  0  0  0  0  0
  2  1  1  1
  2  3  1  0
  3  4  1  0
  4 12  1  0
  4  5  2  0
  5  6  1  0
  7  8  2  0
  7  6  1  0
  9  8  1  0
 10  9  2  0
 11 10  1  0
 11 12  2  0
 12  7  1  0
 13 18  1  0
 13  2  1  0
 14 13  2  0
 15 16  1  0
 17 16  1  6
 17 18  1  0
 19 17  1  0
 19 25  1  0
 20 19  2  0
 22 24  1  0
 22 21  1  1
 23 22  1  0
 24 25  1  6
 24 26  1  0
 26 28  2  0
 26 27  1  0
M  END
$$$$
