WST.pdb
     RDKit          3D

 28 29  0  0  1  0  0  0  0  0999 V2000
    7.1195  -17.7872   24.9394 N   0  0  0  0  0  0  0  0  0  0  0  0
    7.5707  -16.8983   23.8995 C   0  0  1  0  0  0  0  0  0  0  0  0
    8.2338  -15.7045   24.5119 C   0  0  0  0  0  0  0  0  0  0  0  0
    7.1881  -14.8566   25.1575 C   0  0  0  0  0  0  0  0  0  0  0  0
    5.9475  -15.2911   25.5727 C   0  0  0  0  0  0  0  0  0  0  0  0
    5.2975  -14.2799   26.1359 N   0  0  0  0  0  0  0  0  0  0  0  0
    6.0640  -13.1805   26.1103 C   0  0  0  0  0  0  0  0  0  0  0  0
    5.8613  -11.8883   26.5491 C   0  0  0  0  0  0  0  0  0  0  0  0
    6.8081  -10.9156   26.3995 C   0  0  0  0  0  0  0  0  0  0  0  0
    7.9917  -11.2647   25.7880 C   0  0  0  0  0  0  0  0  0  0  0  0
    8.2402  -12.5516   25.3310 C   0  0  0  0  0  0  0  0  0  0  0  0
    7.2555  -13.5103   25.5023 C   0  0  0  0  0  0  0  0  0  0  0  0
    8.4951  -17.6584   23.0119 C   0  0  0  0  0  0  0  0  0  0  0  0
    9.1929  -18.5648   23.5077 O   0  0  0  0  0  0  0  0  0  0  0  0
   10.1520  -16.6517   19.0481 O   0  0  0  0  0  0  0  0  0  0  0  0
    9.2904  -17.7285   19.3589 C   0  0  0  0  0  0  0  0  0  0  0  0
    9.5964  -18.0484   20.8299 C   0  0  2  0  0  0  0  0  0  0  0  0
    8.5980  -17.3691   21.6029 N   0  0  0  0  0  0  0  0  0  0  0  0
   10.9602  -17.4929   21.0681 C   0  0  0  0  0  0  0  0  0  0  0  0
   11.0709  -16.2595   21.2405 O   0  0  0  0  0  0  0  0  0  0  0  0
   13.8176  -20.1017   22.5476 C   0  0  0  0  0  0  0  0  0  0  0  0
   13.8091  -18.6133   22.8496 C   0  0  1  0  0  0  0  0  0  0  0  0
   15.0932  -18.2226   23.2111 O   0  0  0  0  0  0  0  0  0  0  0  0
   13.3990  -17.8744   21.5874 C   0  0  2  0  0  0  0  0  0  0  0  0
   12.1154  -18.3054   21.1045 N   0  0  0  0  0  0  0  0  0  0  0  0
   14.4095  -18.1219   20.5434 C   0  0  0  0  0  0  0  0  0  0  0  0
   15.6885  -17.6515   20.7006 O   0  0  0  0  0  0  0  0  0  0  0  0
   14.1059  -18.7592   19.5140 O   0  0  0  0  0  0  0  0  0  0  0  0
  2  1  1  1
  2  3  1  0
  3  4  1  0
  4 12  1  0
  4  5  2  0
  5  6  1  0
  7  8  2  0
  7  6  1  0
  9  8  1  0
 10  9  2  0
 11 10  1  0
 11 12  2  0
 12  7  1  0
 13 18  1  0
 13  2  1  0
 14 13  2  0
 15 16  1  0
 17 16  1  6
 17 18  1  0
 19 17  1  0
 19 25  1  0
 20 19  2  0
 22 24  1  0
 22 21  1  6
 23 22  1  0
 24 25  1  6
 24 26  1  0
 26 28  2  0
 26 27  1  0
M  END
$$$$
