WST.pdb
     RDKit          3D

 28 29  0  0  1  0  0  0  0  0999 V2000
    6.6002  -17.7443   24.8257 N   0  0  0  0  0  0  0  0  0  0  0  0
    7.1528  -16.6563   24.0603 C   0  0  1  0  0  0  0  0  0  0  0  0
    8.0147  -15.8084   24.9425 C   0  0  0  0  0  0  0  0  0  0  0  0
    7.1351  -14.9110   25.7488 C   0  0  0  0  0  0  0  0  0  0  0  0
    6.0505  -15.3138   26.4982 C   0  0  0  0  0  0  0  0  0  0  0  0
    5.5284  -14.2585   27.1116 N   0  0  0  0  0  0  0  0  0  0  0  0
    6.2294  -13.1605   26.7957 C   0  0  0  0  0  0  0  0  0  0  0  0
    6.1008  -11.8338   27.1521 C   0  0  0  0  0  0  0  0  0  0  0  0
    6.9496  -10.8724   26.6833 C   0  0  0  0  0  0  0  0  0  0  0  0
    7.9554  -11.2688   25.8300 C   0  0  0  0  0  0  0  0  0  0  0  0
    8.1236  -12.5915   25.4443 C   0  0  0  0  0  0  0  0  0  0  0  0
    7.2430  -13.5373   25.9422 C   0  0  0  0  0  0  0  0  0  0  0  0
    7.9175  -17.2359   22.9204 C   0  0  0  0  0  0  0  0  0  0  0  0
    8.5160  -18.3168   23.0872 O   0  0  0  0  0  0  0  0  0  0  0  0
    8.1313  -14.9469   19.8749 O   0  0  0  0  0  0  0  0  0  0  0  0
    8.7804  -16.1280   19.4481 C   0  0  0  0  0  0  0  0  0  0  0  0
    9.0526  -16.9030   20.7462 C   0  0  2  0  0  0  0  0  0  0  0  0
    7.9789  -16.5773   21.6390 N   0  0  0  0  0  0  0  0  0  0  0  0
   10.3625  -16.3839   21.2360 C   0  0  0  0  0  0  0  0  0  0  0  0
   10.3690  -15.3023   21.8633 O   0  0  0  0  0  0  0  0  0  0  0  0
   12.6766  -19.1293   22.6834 C   0  0  0  0  0  0  0  0  0  0  0  0
   12.8101  -17.6618   23.0513 C   0  0  1  0  0  0  0  0  0  0  0  0
   14.0294  -17.4698   23.6906 O   0  0  0  0  0  0  0  0  0  0  0  0
   12.7840  -16.8462   21.7701 C   0  0  2  0  0  0  0  0  0  0  0  0
   11.5799  -17.0663   21.0164 N   0  0  0  0  0  0  0  0  0  0  0  0
   13.9421  -17.2272   20.9417 C   0  0  0  0  0  0  0  0  0  0  0  0
   15.2070  -16.8499   21.3149 O   0  0  0  0  0  0  0  0  0  0  0  0
   13.7765  -17.8933   19.8992 O   0  0  0  0  0  0  0  0  0  0  0  0
  2  1  1  1
  2  3  1  0
  3  4  1  0
  4 12  1  0
  4  5  2  0
  5  6  1  0
  7  8  2  0
  7  6  1  0
  9  8  1  0
 10  9  2  0
 11 10  1  0
 11 12  2  0
 12  7  1  0
 13 18  1  0
 13  2  1  0
 14 13  2  0
 15 16  1  0
 17 16  1  6
 17 18  1  0
 19 17  1  0
 19 25  1  0
 20 19  2  0
 22 24  1  0
 22 21  1  6
 23 22  1  0
 24 25  1  6
 24 26  1  0
 26 28  2  0
 26 27  1  0
M  END
$$$$
