WST.pdb
     RDKit          3D

 28 29  0  0  1  0  0  0  0  0999 V2000
    6.5924  -17.7904   24.5004 N   0  0  0  0  0  0  0  0  0  0  0  0
    7.5009  -16.7758   24.0314 C   0  0  1  0  0  0  0  0  0  0  0  0
    8.1522  -16.1055   25.2004 C   0  0  0  0  0  0  0  0  0  0  0  0
    7.2200  -15.0699   25.7369 C   0  0  0  0  0  0  0  0  0  0  0  0
    6.0259  -15.3213   26.3781 C   0  0  0  0  0  0  0  0  0  0  0  0
    5.4814  -14.1698   26.7525 N   0  0  0  0  0  0  0  0  0  0  0  0
    6.2735  -13.1543   26.3811 C   0  0  0  0  0  0  0  0  0  0  0  0
    6.1667  -11.7856   26.5191 C   0  0  0  0  0  0  0  0  0  0  0  0
    7.1185  -10.9327   26.0384 C   0  0  0  0  0  0  0  0  0  0  0  0
    8.2075  -11.4843   25.4007 C   0  0  0  0  0  0  0  0  0  0  0  0
    8.3577  -12.8546   25.2389 C   0  0  0  0  0  0  0  0  0  0  0  0
    7.3713  -13.6868   25.7414 C   0  0  0  0  0  0  0  0  0  0  0  0
    8.4959  -17.4269   23.1336 C   0  0  0  0  0  0  0  0  0  0  0  0
    8.9420  -18.5485   23.4456 O   0  0  0  0  0  0  0  0  0  0  0  0
   10.8723  -15.3605   20.2751 O   0  0  0  0  0  0  0  0  0  0  0  0
   10.2114  -16.5592   19.9217 C   0  0  0  0  0  0  0  0  0  0  0  0
   10.0918  -17.3319   21.2440 C   0  0  2  0  0  0  0  0  0  0  0  0
    8.9495  -16.7911   21.9213 N   0  0  0  0  0  0  0  0  0  0  0  0
   11.3609  -17.0441   21.9731 C   0  0  0  0  0  0  0  0  0  0  0  0
   11.4464  -15.9669   22.6022 O   0  0  0  0  0  0  0  0  0  0  0  0
   13.4130  -19.1180   24.6153 C   0  0  0  0  0  0  0  0  0  0  0  0
   14.2300  -18.9224   23.3499 C   0  0  1  0  0  0  0  0  0  0  0  0
   14.0598  -20.0328   22.5313 O   0  0  0  0  0  0  0  0  0  0  0  0
   13.7086  -17.6888   22.6332 C   0  0  2  0  0  0  0  0  0  0  0  0
   12.4549  -17.9381   21.9755 N   0  0  0  0  0  0  0  0  0  0  0  0
   14.7007  -17.2702   21.6268 C   0  0  0  0  0  0  0  0  0  0  0  0
   15.8718  -16.6758   22.0231 O   0  0  0  0  0  0  0  0  0  0  0  0
   14.4795  -17.4544   20.4123 O   0  0  0  0  0  0  0  0  0  0  0  0
  2  1  1  1
  2  3  1  0
  3  4  1  0
  4 12  1  0
  4  5  2  0
  5  6  1  0
  7  8  2  0
  7  6  1  0
  9  8  1  0
 10  9  2  0
 11 10  1  0
 11 12  2  0
 12  7  1  0
 13 18  1  0
 13  2  1  0
 14 13  2  0
 15 16  1  0
 17 16  1  6
 17 18  1  0
 19 17  1  0
 19 25  1  0
 20 19  2  0
 22 24  1  0
 22 21  1  1
 23 22  1  0
 24 25  1  6
 24 26  1  0
 26 28  2  0
 26 27  1  0
M  END
$$$$
