FYK.pdb
     RDKit          3D

 33 34  0  0  1  0  0  0  0  0999 V2000
    5.4977  -17.6329   24.5732 N   0  0  0  0  0  0  0  0  0  0  0  0
    6.0889  -16.2902   24.7056 C   0  0  1  0  0  0  0  0  0  0  0  0
    6.3727  -16.1229   26.1770 C   0  0  0  0  0  0  0  0  0  0  0  0
    6.8838  -14.8207   26.5727 C   0  0  0  0  0  0  0  0  0  0  0  0
    8.2093  -14.6745   26.9133 C   0  0  0  0  0  0  0  0  0  0  0  0
    8.7325  -13.4453   27.2917 C   0  0  0  0  0  0  0  0  0  0  0  0
    7.9185  -12.3368   27.3320 C   0  0  0  0  0  0  0  0  0  0  0  0
    6.5948  -12.4792   26.9927 C   0  0  0  0  0  0  0  0  0  0  0  0
    6.0826  -13.7157   26.6154 C   0  0  0  0  0  0  0  0  0  0  0  0
    7.3611  -16.2844   23.9475 C   0  0  0  0  0  0  0  0  0  0  0  0
    8.0455  -17.3379   23.8098 O   0  0  0  0  0  0  0  0  0  0  0  0
    6.9217  -13.8878   16.6993 O   0  0  0  0  0  0  0  0  0  0  0  0
    7.5284  -13.8855   17.9647 C   0  0  0  0  0  0  0  0  0  0  0  0
    7.1594  -12.9561   18.8947 C   0  0  0  0  0  0  0  0  0  0  0  0
    7.7373  -12.9152   20.1706 C   0  0  0  0  0  0  0  0  0  0  0  0
    8.7022  -13.8382   20.4908 C   0  0  0  0  0  0  0  0  0  0  0  0
    9.3312  -13.8277   21.8222 C   0  0  0  0  0  0  0  0  0  0  0  0
    9.1362  -15.1051   22.5855 C   0  0  2  0  0  0  0  0  0  0  0  0
    7.8845  -15.0907   23.3307 N   0  0  0  0  0  0  0  0  0  0  0  0
   10.2744  -15.5077   23.4248 C   0  0  0  0  0  0  0  0  0  0  0  0
   10.5640  -14.8493   24.4833 O   0  0  0  0  0  0  0  0  0  0  0  0
    9.0719  -14.7687   19.5606 C   0  0  0  0  0  0  0  0  0  0  0  0
    8.5076  -14.8190   18.2957 C   0  0  0  0  0  0  0  0  0  0  0  0
   11.1117  -16.6077   23.1535 N   0  0  0  0  0  0  0  0  0  0  0  0
   12.2767  -16.9487   23.9290 C   0  0  1  0  0  0  0  0  0  0  0  0
   12.4084  -18.4556   23.9554 C   0  0  0  0  0  0  0  0  0  0  0  0
   11.4503  -19.1198   24.8964 C   0  0  0  0  0  0  0  0  0  0  0  0
   11.7428  -20.6054   24.8641 C   0  0  0  0  0  0  0  0  0  0  0  0
   10.8546  -21.3726   25.8175 C   0  0  0  0  0  0  0  0  0  0  0  0
   11.1014  -22.7923   25.6074 N   0  0  0  0  0  0  0  0  0  0  0  0
   13.5045  -16.2718   23.5165 C   0  0  0  0  0  0  0  0  0  0  0  0
   13.5971  -15.7566   22.3713 O   0  0  0  0  0  0  0  0  0  0  0  0
   14.6287  -16.1436   24.3190 O   0  0  0  0  0  0  0  0  0  0  0  0
  2  1  1  1
  2  3  1  0
  4  3  1  0
  5  4  2  0
  6  5  1  0
  7  6  2  0
  7  8  1  0
  8  9  2  0
  9  4  1  0
 10 19  1  0
 10  2  1  0
 11 10  2  0
 13 12  1  0
 14 13  2  0
 15 14  1  0
 16 22  1  0
 16 15  2  0
 17 16  1  0
 18 19  1  0
 18 17  1  1
 20 21  2  0
 20 18  1  0
 22 23  2  0
 23 13  1  0
 24 20  1  0
 25 24  1  0
 25 31  1  0
 25 26  1  6
 27 26  1  0
 28 27  1  0
 28 29  1  0
 29 30  1  0
 31 33  1  0
 32 31  2  0
M  END
$$$$
