FYK.pdb
     RDKit          3D

 33 34  0  0  1  0  0  0  0  0999 V2000
    5.8289  -16.5730   25.0485 N   0  0  0  0  0  0  0  0  0  0  0  0
    6.9161  -15.6922   24.5880 C   0  0  1  0  0  0  0  0  0  0  0  0
    7.2923  -14.8618   25.7891 C   0  0  0  0  0  0  0  0  0  0  0  0
    6.7968  -13.4950   25.7861 C   0  0  0  0  0  0  0  0  0  0  0  0
    7.4842  -12.5137   25.1087 C   0  0  0  0  0  0  0  0  0  0  0  0
    7.0380  -11.1993   25.0809 C   0  0  0  0  0  0  0  0  0  0  0  0
    5.8820  -10.8534   25.7419 C   0  0  0  0  0  0  0  0  0  0  0  0
    5.1934  -11.8305   26.4193 C   0  0  0  0  0  0  0  0  0  0  0  0
    5.6505  -13.1436   26.4397 C   0  0  0  0  0  0  0  0  0  0  0  0
    8.0562  -16.5538   24.1992 C   0  0  0  0  0  0  0  0  0  0  0  0
    8.3154  -17.6190   24.8280 O   0  0  0  0  0  0  0  0  0  0  0  0
   14.8413  -20.0970   19.7402 O   0  0  0  0  0  0  0  0  0  0  0  0
   13.8134  -19.2396   20.1614 C   0  0  0  0  0  0  0  0  0  0  0  0
   12.5154  -19.6622   20.1213 C   0  0  0  0  0  0  0  0  0  0  0  0
   11.4563  -18.8414   20.5315 C   0  0  0  0  0  0  0  0  0  0  0  0
   11.7362  -17.5764   20.9863 C   0  0  0  0  0  0  0  0  0  0  0  0
   10.6498  -16.6855   21.4273 C   0  0  0  0  0  0  0  0  0  0  0  0
   10.0755  -17.0591   22.7627 C   0  0  2  0  0  0  0  0  0  0  0  0
    8.9244  -16.2300   23.0944 N   0  0  0  0  0  0  0  0  0  0  0  0
   11.0487  -17.1193   23.8632 C   0  0  0  0  0  0  0  0  0  0  0  0
   11.6169  -16.0530   24.2849 O   0  0  0  0  0  0  0  0  0  0  0  0
   13.0349  -17.1528   21.0268 C   0  0  0  0  0  0  0  0  0  0  0  0
   14.0905  -17.9555   20.6238 C   0  0  0  0  0  0  0  0  0  0  0  0
   11.4262  -18.3037   24.5259 N   0  0  0  0  0  0  0  0  0  0  0  0
   12.4787  -18.3823   25.5062 C   0  0  1  0  0  0  0  0  0  0  0  0
   12.0511  -19.3477   26.5897 C   0  0  0  0  0  0  0  0  0  0  0  0
   13.1026  -19.5751   27.6323 C   0  0  0  0  0  0  0  0  0  0  0  0
   12.5269  -20.5355   28.6520 C   0  0  0  0  0  0  0  0  0  0  0  0
   13.5477  -20.9198   29.6992 C   0  0  0  0  0  0  0  0  0  0  0  0
   12.8544  -21.6640   30.7415 N   0  0  0  0  0  0  0  0  0  0  0  0
   13.8011  -18.6807   24.9600 C   0  0  0  0  0  0  0  0  0  0  0  0
   14.7755  -17.9173   25.1902 O   0  0  0  0  0  0  0  0  0  0  0  0
   14.0851  -19.7867   24.1723 O   0  0  0  0  0  0  0  0  0  0  0  0
  2  1  1  1
  2  3  1  0
  4  3  1  0
  5  4  2  0
  6  5  1  0
  7  6  2  0
  7  8  1  0
  8  9  2  0
  9  4  1  0
 10 19  1  0
 10  2  1  0
 11 10  2  0
 13 12  1  0
 14 13  2  0
 15 14  1  0
 16 22  1  0
 16 15  2  0
 17 16  1  0
 18 19  1  0
 18 17  1  6
 20 21  2  0
 20 18  1  0
 22 23  2  0
 23 13  1  0
 24 20  1  0
 25 24  1  0
 25 31  1  0
 25 26  1  1
 27 26  1  0
 28 27  1  0
 28 29  1  0
 29 30  1  0
 31 33  1  0
 32 31  2  0
M  END
$$$$
