FYK.pdb
     RDKit          3D

 33 34  0  0  1  0  0  0  0  0999 V2000
    6.4701  -18.1877   26.2577 N   0  0  0  0  0  0  0  0  0  0  0  0
    6.4029  -16.7566   25.9153 C   0  0  1  0  0  0  0  0  0  0  0  0
    7.0265  -16.0373   27.0847 C   0  0  0  0  0  0  0  0  0  0  0  0
    6.9321  -14.5869   27.0512 C   0  0  0  0  0  0  0  0  0  0  0  0
    5.7009  -13.9777   26.9670 C   0  0  0  0  0  0  0  0  0  0  0  0
    5.5730  -12.5955   26.9373 C   0  0  0  0  0  0  0  0  0  0  0  0
    6.6954  -11.8018   26.9923 C   0  0  0  0  0  0  0  0  0  0  0  0
    7.9261  -12.4066   27.0762 C   0  0  0  0  0  0  0  0  0  0  0  0
    8.0412  -13.7921   27.1053 C   0  0  0  0  0  0  0  0  0  0  0  0
    7.2267  -16.5470   24.7027 C   0  0  0  0  0  0  0  0  0  0  0  0
    8.2524  -17.2506   24.4790 O   0  0  0  0  0  0  0  0  0  0  0  0
    9.1773  -13.9106   16.4572 O   0  0  0  0  0  0  0  0  0  0  0  0
    8.7189  -13.9382   17.7831 C   0  0  0  0  0  0  0  0  0  0  0  0
    9.0465  -14.9865   18.5948 C   0  0  0  0  0  0  0  0  0  0  0  0
    8.6119  -15.0572   19.9251 C   0  0  0  0  0  0  0  0  0  0  0  0
    7.8344  -14.0408   20.4229 C   0  0  0  0  0  0  0  0  0  0  0  0
    7.3600  -14.0792   21.8164 C   0  0  0  0  0  0  0  0  0  0  0  0
    7.7430  -15.3349   22.5438 C   0  0  2  0  0  0  0  0  0  0  0  0
    6.9088  -15.5405   23.7203 N   0  0  0  0  0  0  0  0  0  0  0  0
    9.1749  -15.4624   22.8525 C   0  0  0  0  0  0  0  0  0  0  0  0
    9.7472  -14.6236   23.6314 O   0  0  0  0  0  0  0  0  0  0  0  0
    7.5062  -12.9913   19.6113 C   0  0  0  0  0  0  0  0  0  0  0  0
    7.9301  -12.9105   18.2942 C   0  0  0  0  0  0  0  0  0  0  0  0
   10.0102  -16.4761   22.3433 N   0  0  0  0  0  0  0  0  0  0  0  0
   11.4198  -16.5789   22.6211 C   0  0  1  0  0  0  0  0  0  0  0  0
   11.7132  -17.9880   23.0870 C   0  0  0  0  0  0  0  0  0  0  0  0
   13.1572  -18.2177   23.4136 C   0  0  0  0  0  0  0  0  0  0  0  0
   13.3018  -19.6680   23.8249 C   0  0  0  0  0  0  0  0  0  0  0  0
   14.7194  -19.9955   24.2368 C   0  0  0  0  0  0  0  0  0  0  0  0
   14.7799  -21.4226   24.5201 N   0  0  0  0  0  0  0  0  0  0  0  0
   12.2905  -16.1408   21.5320 C   0  0  0  0  0  0  0  0  0  0  0  0
   13.4386  -15.6847   21.7750 O   0  0  0  0  0  0  0  0  0  0  0  0
   11.9408  -16.1881   20.1905 O   0  0  0  0  0  0  0  0  0  0  0  0
  2  1  1  1
  2  3  1  0
  4  3  1  0
  5  4  2  0
  6  5  1  0
  7  6  2  0
  7  8  1  0
  8  9  2  0
  9  4  1  0
 10 19  1  0
 10  2  1  0
 11 10  2  0
 13 12  1  0
 14 13  2  0
 15 14  1  0
 16 22  1  0
 16 15  2  0
 17 16  1  0
 18 19  1  0
 18 17  1  1
 20 21  2  0
 20 18  1  0
 22 23  2  0
 23 13  1  0
 24 20  1  0
 25 24  1  0
 25 31  1  0
 25 26  1  6
 27 26  1  0
 28 27  1  0
 28 29  1  0
 29 30  1  0
 31 33  1  0
 32 31  2  0
M  END
$$$$
