FYK.pdb
     RDKit          3D

 33 34  0  0  1  0  0  0  0  0999 V2000
    6.1325  -18.1726   24.5134 N   0  0  0  0  0  0  0  0  0  0  0  0
    6.4208  -16.7283   24.5398 C   0  0  1  0  0  0  0  0  0  0  0  0
    6.6471  -16.3934   25.9926 C   0  0  0  0  0  0  0  0  0  0  0  0
    6.9342  -14.9969   26.2765 C   0  0  0  0  0  0  0  0  0  0  0  0
    8.1850  -14.6251   26.7143 C   0  0  0  0  0  0  0  0  0  0  0  0
    8.4957  -13.3004   26.9907 C   0  0  0  0  0  0  0  0  0  0  0  0
    7.5403  -12.3238   26.8281 C   0  0  0  0  0  0  0  0  0  0  0  0
    6.2906  -12.6914   26.3914 C   0  0  0  0  0  0  0  0  0  0  0  0
    5.9917  -14.0216   26.1177 C   0  0  0  0  0  0  0  0  0  0  0  0
    7.6697  -16.5068   23.7755 C   0  0  0  0  0  0  0  0  0  0  0  0
    8.4754  -17.4540   23.5500 O   0  0  0  0  0  0  0  0  0  0  0  0
    6.9106  -13.8609   16.4531 O   0  0  0  0  0  0  0  0  0  0  0  0
    7.4616  -13.8388   17.7435 C   0  0  0  0  0  0  0  0  0  0  0  0
    7.4758  -12.6749   18.4576 C   0  0  0  0  0  0  0  0  0  0  0  0
    8.0153  -12.6049   19.7490 C   0  0  0  0  0  0  0  0  0  0  0  0
    8.5438  -13.7419   20.3088 C   0  0  0  0  0  0  0  0  0  0  0  0
    9.1181  -13.7079   21.6643 C   0  0  0  0  0  0  0  0  0  0  0  0
    9.1519  -15.0511   22.3330 C   0  0  2  0  0  0  0  0  0  0  0  0
    8.0328  -15.2134   23.2515 N   0  0  0  0  0  0  0  0  0  0  0  0
   10.4355  -15.4020   22.9585 C   0  0  0  0  0  0  0  0  0  0  0  0
   11.5102  -15.4241   22.2640 O   0  0  0  0  0  0  0  0  0  0  0  0
    8.5298  -14.9072   19.5947 C   0  0  0  0  0  0  0  0  0  0  0  0
    7.9992  -14.9885   18.3169 C   0  0  0  0  0  0  0  0  0  0  0  0
   10.5928  -15.7291   24.3197 N   0  0  0  0  0  0  0  0  0  0  0  0
   11.8470  -16.1006   24.9230 C   0  0  1  0  0  0  0  0  0  0  0  0
   11.6150  -16.3383   26.3989 C   0  0  0  0  0  0  0  0  0  0  0  0
   11.0590  -17.6960   26.7024 C   0  0  0  0  0  0  0  0  0  0  0  0
   10.8480  -17.7729   28.2001 C   0  0  0  0  0  0  0  0  0  0  0  0
   10.1208  -19.0369   28.5998 C   0  0  0  0  0  0  0  0  0  0  0  0
    9.9381  -19.0050   30.0441 N   0  0  0  0  0  0  0  0  0  0  0  0
   12.5373  -17.2078   24.2643 C   0  0  0  0  0  0  0  0  0  0  0  0
   11.9202  -17.9634   23.4683 O   0  0  0  0  0  0  0  0  0  0  0  0
   13.8782  -17.5093   24.4519 O   0  0  0  0  0  0  0  0  0  0  0  0
  2  1  1  1
  2  3  1  0
  4  3  1  0
  5  4  2  0
  6  5  1  0
  7  6  2  0
  7  8  1  0
  8  9  2  0
  9  4  1  0
 10 19  1  0
 10  2  1  0
 11 10  2  0
 13 12  1  0
 14 13  2  0
 15 14  1  0
 16 22  1  0
 16 15  2  0
 17 16  1  0
 18 19  1  0
 18 17  1  1
 20 21  2  0
 20 18  1  0
 22 23  2  0
 23 13  1  0
 24 20  1  0
 25 24  1  0
 25 31  1  0
 25 26  1  1
 27 26  1  0
 28 27  1  0
 28 29  1  0
 29 30  1  0
 31 33  1  0
 32 31  2  0
M  END
$$$$
