FYK.pdb
     RDKit          3D

 33 34  0  0  1  0  0  0  0  0999 V2000
    6.9661  -18.0074   21.0545 N   0  0  0  0  0  0  0  0  0  0  0  0
    7.6317  -16.7403   20.7061 C   0  0  1  0  0  0  0  0  0  0  0  0
    6.5159  -15.7458   20.5064 C   0  0  0  0  0  0  0  0  0  0  0  0
    6.9337  -14.3701   20.2909 C   0  0  0  0  0  0  0  0  0  0  0  0
    6.8486  -13.4550   21.3154 C   0  0  0  0  0  0  0  0  0  0  0  0
    7.2426  -12.1344   21.1466 C   0  0  0  0  0  0  0  0  0  0  0  0
    7.7321  -11.7149   19.9311 C   0  0  0  0  0  0  0  0  0  0  0  0
    7.8183  -12.6258   18.9061 C   0  0  0  0  0  0  0  0  0  0  0  0
    7.4206  -13.9459   19.0877 C   0  0  0  0  0  0  0  0  0  0  0  0
    8.4600  -16.3360   21.8652 C   0  0  0  0  0  0  0  0  0  0  0  0
    9.6388  -15.9077   21.7092 O   0  0  0  0  0  0  0  0  0  0  0  0
   11.2016  -14.6250   30.1261 O   0  0  0  0  0  0  0  0  0  0  0  0
   10.4201  -14.8638   28.9853 C   0  0  0  0  0  0  0  0  0  0  0  0
    9.9268  -16.1149   28.7480 C   0  0  0  0  0  0  0  0  0  0  0  0
    9.1422  -16.4005   27.6226 C   0  0  0  0  0  0  0  0  0  0  0  0
    8.8637  -15.3901   26.7354 C   0  0  0  0  0  0  0  0  0  0  0  0
    8.0413  -15.6514   25.5423 C   0  0  0  0  0  0  0  0  0  0  0  0
    8.8381  -16.1089   24.3556 C   0  0  2  0  0  0  0  0  0  0  0  0
    7.9743  -16.4070   23.2210 N   0  0  0  0  0  0  0  0  0  0  0  0
    9.7888  -17.1972   24.6272 C   0  0  0  0  0  0  0  0  0  0  0  0
    9.3761  -18.4023   24.7516 O   0  0  0  0  0  0  0  0  0  0  0  0
    9.3570  -14.1377   26.9723 C   0  0  0  0  0  0  0  0  0  0  0  0
   10.1340  -13.8435   28.0816 C   0  0  0  0  0  0  0  0  0  0  0  0
   11.1794  -17.0209   24.7671 N   0  0  0  0  0  0  0  0  0  0  0  0
   12.1109  -18.0929   25.0081 C   0  0  1  0  0  0  0  0  0  0  0  0
   13.2467  -17.9706   24.0162 C   0  0  0  0  0  0  0  0  0  0  0  0
   14.2750  -19.0514   24.1535 C   0  0  0  0  0  0  0  0  0  0  0  0
   15.3191  -18.8200   23.0812 C   0  0  0  0  0  0  0  0  0  0  0  0
   16.3575  -19.9190   23.0631 C   0  0  0  0  0  0  0  0  0  0  0  0
   17.3751  -19.5508   22.0886 N   0  0  0  0  0  0  0  0  0  0  0  0
   12.5666  -18.2064   26.3921 C   0  0  0  0  0  0  0  0  0  0  0  0
   12.5569  -19.3201   26.9794 O   0  0  0  0  0  0  0  0  0  0  0  0
   13.0305  -17.1395   27.1476 O   0  0  0  0  0  0  0  0  0  0  0  0
  2  1  1  1
  2  3  1  0
  4  3  1  0
  5  4  2  0
  6  5  1  0
  7  6  2  0
  7  8  1  0
  8  9  2  0
  9  4  1  0
 10 19  1  0
 10  2  1  0
 11 10  2  0
 13 12  1  0
 14 13  2  0
 15 14  1  0
 16 22  1  0
 16 15  2  0
 17 16  1  0
 18 19  1  0
 18 17  1  1
 20 21  2  0
 20 18  1  0
 22 23  2  0
 23 13  1  0
 24 20  1  0
 25 24  1  0
 25 31  1  0
 25 26  1  6
 27 26  1  0
 28 27  1  0
 28 29  1  0
 29 30  1  0
 31 33  1  0
 32 31  2  0
M  END
$$$$
