FYK.pdb
     RDKit          3D

 33 34  0  0  1  0  0  0  0  0999 V2000
    6.3270  -18.2515   26.0505 N   0  0  0  0  0  0  0  0  0  0  0  0
    6.4317  -16.8008   25.8178 C   0  0  1  0  0  0  0  0  0  0  0  0
    7.3563  -16.2902   26.8941 C   0  0  0  0  0  0  0  0  0  0  0  0
    7.5091  -14.8458   26.9557 C   0  0  0  0  0  0  0  0  0  0  0  0
    8.7660  -14.2851   26.9661 C   0  0  0  0  0  0  0  0  0  0  0  0
    8.9493  -12.9099   27.0198 C   0  0  0  0  0  0  0  0  0  0  0  0
    7.8576  -12.0739   27.0644 C   0  0  0  0  0  0  0  0  0  0  0  0
    6.6014  -12.6302   27.0543 C   0  0  0  0  0  0  0  0  0  0  0  0
    6.4307  -14.0092   27.0001 C   0  0  0  0  0  0  0  0  0  0  0  0
    7.0551  -16.6042   24.4890 C   0  0  0  0  0  0  0  0  0  0  0  0
    7.9146  -17.4163   24.0429 O   0  0  0  0  0  0  0  0  0  0  0  0
    8.8201  -13.4274   16.3978 O   0  0  0  0  0  0  0  0  0  0  0  0
    8.3384  -13.5919   17.7055 C   0  0  0  0  0  0  0  0  0  0  0  0
    8.4808  -12.5833   18.6152 C   0  0  0  0  0  0  0  0  0  0  0  0
    8.0156  -12.7023   19.9317 C   0  0  0  0  0  0  0  0  0  0  0  0
    7.3995  -13.8684   20.3138 C   0  0  0  0  0  0  0  0  0  0  0  0
    6.8963  -14.0298   21.6883 C   0  0  0  0  0  0  0  0  0  0  0  0
    7.3925  -15.2746   22.3641 C   0  0  2  0  0  0  0  0  0  0  0  0
    6.7206  -15.4885   23.6389 N   0  0  0  0  0  0  0  0  0  0  0  0
    8.8543  -15.3751   22.4861 C   0  0  0  0  0  0  0  0  0  0  0  0
    9.4729  -14.7395   23.4088 O   0  0  0  0  0  0  0  0  0  0  0  0
    7.2565  -14.8781   19.4040 C   0  0  0  0  0  0  0  0  0  0  0  0
    7.7124  -14.7720   18.0994 C   0  0  0  0  0  0  0  0  0  0  0  0
    9.6711  -16.1479   21.6375 N   0  0  0  0  0  0  0  0  0  0  0  0
   11.1040  -16.2372   21.7545 C   0  0  1  0  0  0  0  0  0  0  0  0
   11.4889  -17.6994   21.8039 C   0  0  0  0  0  0  0  0  0  0  0  0
   12.9701  -17.9245   21.8102 C   0  0  0  0  0  0  0  0  0  0  0  0
   13.1991  -19.4214   21.8219 C   0  0  0  0  0  0  0  0  0  0  0  0
   14.6667  -19.7632   21.9472 C   0  0  0  0  0  0  0  0  0  0  0  0
   14.7984  -21.2072   21.8124 N   0  0  0  0  0  0  0  0  0  0  0  0
   11.8472  -15.4812   20.7484 C   0  0  0  0  0  0  0  0  0  0  0  0
   11.4400  -15.4285   19.5581 O   0  0  0  0  0  0  0  0  0  0  0  0
   13.0182  -14.7844   21.0079 O   0  0  0  0  0  0  0  0  0  0  0  0
  2  1  1  1
  2  3  1  0
  4  3  1  0
  5  4  2  0
  6  5  1  0
  7  6  2  0
  7  8  1  0
  8  9  2  0
  9  4  1  0
 10 19  1  0
 10  2  1  0
 11 10  2  0
 13 12  1  0
 14 13  2  0
 15 14  1  0
 16 22  1  0
 16 15  2  0
 17 16  1  0
 18 19  1  0
 18 17  1  1
 20 21  2  0
 20 18  1  0
 22 23  2  0
 23 13  1  0
 24 20  1  0
 25 24  1  0
 25 31  1  0
 25 26  1  6
 27 26  1  0
 28 27  1  0
 28 29  1  0
 29 30  1  0
 31 33  1  0
 32 31  2  0
M  END
$$$$
