FYK.pdb
     RDKit          3D

 33 34  0  0  1  0  0  0  0  0999 V2000
    6.4360  -18.3605   26.1855 N   0  0  0  0  0  0  0  0  0  0  0  0
    6.3816  -16.9029   25.9799 C   0  0  1  0  0  0  0  0  0  0  0  0
    7.1082  -16.3066   27.1590 C   0  0  0  0  0  0  0  0  0  0  0  0
    7.1273  -14.8540   27.2142 C   0  0  0  0  0  0  0  0  0  0  0  0
    8.3267  -14.1790   27.2013 C   0  0  0  0  0  0  0  0  0  0  0  0
    8.3824  -12.7925   27.2483 C   0  0  0  0  0  0  0  0  0  0  0  0
    7.2186  -12.0613   27.3097 C   0  0  0  0  0  0  0  0  0  0  0  0
    6.0195  -12.7318   27.3229 C   0  0  0  0  0  0  0  0  0  0  0  0
    5.9768  -14.1209   27.2753 C   0  0  0  0  0  0  0  0  0  0  0  0
    7.1194  -16.5987   24.7324 C   0  0  0  0  0  0  0  0  0  0  0  0
    8.0944  -17.3108   24.3588 O   0  0  0  0  0  0  0  0  0  0  0  0
    8.9932  -13.3355   16.7019 O   0  0  0  0  0  0  0  0  0  0  0  0
    8.4789  -13.4971   17.9975 C   0  0  0  0  0  0  0  0  0  0  0  0
    7.8708  -14.6687   18.3472 C   0  0  0  0  0  0  0  0  0  0  0  0
    7.3426  -14.8754   19.6286 C   0  0  0  0  0  0  0  0  0  0  0  0
    7.4416  -13.8680   20.5564 C   0  0  0  0  0  0  0  0  0  0  0  0
    6.8998  -14.0487   21.9136 C   0  0  0  0  0  0  0  0  0  0  0  0
    7.4775  -15.2312   22.6352 C   0  0  2  0  0  0  0  0  0  0  0  0
    6.7712  -15.4863   23.8835 N   0  0  0  0  0  0  0  0  0  0  0  0
    8.9354  -15.1935   22.8228 C   0  0  0  0  0  0  0  0  0  0  0  0
    9.4482  -14.5181   23.7813 O   0  0  0  0  0  0  0  0  0  0  0  0
    8.0502  -12.6951   20.2072 C   0  0  0  0  0  0  0  0  0  0  0  0
    8.5762  -12.4793   18.9432 C   0  0  0  0  0  0  0  0  0  0  0  0
    9.8597  -15.8693   22.0022 N   0  0  0  0  0  0  0  0  0  0  0  0
   11.2870  -15.8362   22.1934 C   0  0  1  0  0  0  0  0  0  0  0  0
   11.6657  -16.9411   23.1550 C   0  0  0  0  0  0  0  0  0  0  0  0
   11.7412  -18.2910   22.5097 C   0  0  0  0  0  0  0  0  0  0  0  0
   12.2459  -19.2635   23.5551 C   0  0  0  0  0  0  0  0  0  0  0  0
   12.2034  -20.6915   23.0597 C   0  0  0  0  0  0  0  0  0  0  0  0
   12.6630  -21.5499   24.1425 N   0  0  0  0  0  0  0  0  0  0  0  0
   12.0692  -15.8559   20.9589 C   0  0  0  0  0  0  0  0  0  0  0  0
   13.3150  -15.6757   20.9881 O   0  0  0  0  0  0  0  0  0  0  0  0
   11.5279  -16.0664   19.6992 O   0  0  0  0  0  0  0  0  0  0  0  0
  2  1  1  1
  2  3  1  0
  4  3  1  0
  5  4  2  0
  6  5  1  0
  7  6  2  0
  7  8  1  0
  8  9  2  0
  9  4  1  0
 10 19  1  0
 10  2  1  0
 11 10  2  0
 13 12  1  0
 14 13  2  0
 15 14  1  0
 16 22  1  0
 16 15  2  0
 17 16  1  0
 18 19  1  0
 18 17  1  1
 20 21  2  0
 20 18  1  0
 22 23  2  0
 23 13  1  0
 24 20  1  0
 25 24  1  0
 25 31  1  0
 25 26  1  1
 27 26  1  0
 28 27  1  0
 28 29  1  0
 29 30  1  0
 31 33  1  0
 32 31  2  0
M  END
$$$$
