FYK.pdb
     RDKit          3D

 33 34  0  0  1  0  0  0  0  0999 V2000
   10.5329  -16.9837   20.1358 N   0  0  0  0  0  0  0  0  0  0  0  0
   10.0336  -15.8556   20.9408 C   0  0  1  0  0  0  0  0  0  0  0  0
    8.5454  -15.8219   20.6998 C   0  0  0  0  0  0  0  0  0  0  0  0
    7.9865  -14.5108   20.4130 C   0  0  0  0  0  0  0  0  0  0  0  0
    8.8068  -13.4066   20.3662 C   0  0  0  0  0  0  0  0  0  0  0  0
    8.3082  -12.1404   20.0908 C   0  0  0  0  0  0  0  0  0  0  0  0
    6.9633  -11.9690   19.8569 C   0  0  0  0  0  0  0  0  0  0  0  0
    6.1415  -13.0691   19.9029 C   0  0  0  0  0  0  0  0  0  0  0  0
    6.6529  -14.3323   20.1797 C   0  0  0  0  0  0  0  0  0  0  0  0
   10.3025  -16.1669   22.3634 C   0  0  0  0  0  0  0  0  0  0  0  0
   11.1179  -17.0750   22.6916 O   0  0  0  0  0  0  0  0  0  0  0  0
   10.6383  -15.4284   31.2083 O   0  0  0  0  0  0  0  0  0  0  0  0
   10.3087  -15.2538   29.8555 C   0  0  0  0  0  0  0  0  0  0  0  0
    9.4540  -16.1265   29.2451 C   0  0  0  0  0  0  0  0  0  0  0  0
    9.0962  -15.9920   27.8969 C   0  0  0  0  0  0  0  0  0  0  0  0
    9.6226  -14.9511   27.1724 C   0  0  0  0  0  0  0  0  0  0  0  0
    9.2688  -14.7762   25.7538 C   0  0  0  0  0  0  0  0  0  0  0  0
   10.0703  -15.6426   24.8267 C   0  0  2  0  0  0  0  0  0  0  0  0
    9.6571  -15.4598   23.4417 N   0  0  0  0  0  0  0  0  0  0  0  0
   10.1329  -17.0630   25.2018 C   0  0  0  0  0  0  0  0  0  0  0  0
    9.0969  -17.8071   25.0976 O   0  0  0  0  0  0  0  0  0  0  0  0
   10.4781  -14.0772   27.7827 C   0  0  0  0  0  0  0  0  0  0  0  0
   10.8392  -14.2001   29.1151 C   0  0  0  0  0  0  0  0  0  0  0  0
   11.2885  -17.7064   25.6867 N   0  0  0  0  0  0  0  0  0  0  0  0
   11.3186  -19.0657   26.1625 C   0  0  1  0  0  0  0  0  0  0  0  0
   12.2918  -19.8489   25.3090 C   0  0  0  0  0  0  0  0  0  0  0  0
   12.1736  -19.5498   23.8458 C   0  0  0  0  0  0  0  0  0  0  0  0
   13.2253  -20.3720   23.1307 C   0  0  0  0  0  0  0  0  0  0  0  0
   13.3141  -20.0156   21.6639 C   0  0  0  0  0  0  0  0  0  0  0  0
   14.3852  -20.8101   21.0790 N   0  0  0  0  0  0  0  0  0  0  0  0
   11.5696  -19.2057   27.5955 C   0  0  0  0  0  0  0  0  0  0  0  0
   12.1319  -18.2815   28.2397 O   0  0  0  0  0  0  0  0  0  0  0  0
   11.2236  -20.3241   28.3395 O   0  0  0  0  0  0  0  0  0  0  0  0
  2  1  1  6
  2  3  1  0
  4  3  1  0
  5  4  2  0
  6  5  1  0
  7  6  2  0
  7  8  1  0
  8  9  2  0
  9  4  1  0
 10 19  1  0
 10  2  1  0
 11 10  2  0
 13 12  1  0
 14 13  2  0
 15 14  1  0
 16 22  1  0
 16 15  2  0
 17 16  1  0
 18 19  1  0
 18 17  1  1
 20 21  2  0
 20 18  1  0
 22 23  2  0
 23 13  1  0
 24 20  1  0
 25 24  1  0
 25 31  1  0
 25 26  1  6
 27 26  1  0
 28 27  1  0
 28 29  1  0
 29 30  1  0
 31 33  1  0
 32 31  2  0
M  END
$$$$
