FYK.pdb
     RDKit          3D

 33 34  0  0  1  0  0  0  0  0999 V2000
    6.2682  -17.0905   26.1236 N   0  0  0  0  0  0  0  0  0  0  0  0
    7.1396  -16.0512   25.5489 C   0  0  1  0  0  0  0  0  0  0  0  0
    7.2761  -15.0049   26.6262 C   0  0  0  0  0  0  0  0  0  0  0  0
    7.0013  -13.6389   26.2115 C   0  0  0  0  0  0  0  0  0  0  0  0
    7.0615  -12.6144   27.1286 C   0  0  0  0  0  0  0  0  0  0  0  0
    6.8096  -11.2978   26.7671 C   0  0  0  0  0  0  0  0  0  0  0  0
    6.4904  -10.9938   25.4638 C   0  0  0  0  0  0  0  0  0  0  0  0
    6.4293  -12.0141   24.5456 C   0  0  0  0  0  0  0  0  0  0  0  0
    6.6838  -13.3288   24.9200 C   0  0  0  0  0  0  0  0  0  0  0  0
    8.4587  -16.6696   25.2829 C   0  0  0  0  0  0  0  0  0  0  0  0
    9.3269  -16.7766   26.1950 O   0  0  0  0  0  0  0  0  0  0  0  0
    8.7173  -22.2643   28.2293 O   0  0  0  0  0  0  0  0  0  0  0  0
    8.9861  -21.5376   27.0594 C   0  0  0  0  0  0  0  0  0  0  0  0
   10.2766  -21.2486   26.7191 C   0  0  0  0  0  0  0  0  0  0  0  0
   10.5931  -20.5259   25.5609 C   0  0  0  0  0  0  0  0  0  0  0  0
    9.5730  -20.0980   24.7475 C   0  0  0  0  0  0  0  0  0  0  0  0
    9.8664  -19.3374   23.5213 C   0  0  0  0  0  0  0  0  0  0  0  0
   10.0846  -17.8726   23.7644 C   0  0  2  0  0  0  0  0  0  0  0  0
    8.8226  -17.1787   23.9838 N   0  0  0  0  0  0  0  0  0  0  0  0
   10.9215  -17.1942   22.7637 C   0  0  0  0  0  0  0  0  0  0  0  0
   10.4152  -16.7962   21.6577 O   0  0  0  0  0  0  0  0  0  0  0  0
    8.2811  -20.3870   25.0874 C   0  0  0  0  0  0  0  0  0  0  0  0
    7.9560  -21.1008   26.2301 C   0  0  0  0  0  0  0  0  0  0  0  0
   12.2959  -16.9302   22.9248 N   0  0  0  0  0  0  0  0  0  0  0  0
   13.1536  -16.4379   21.8775 C   0  0  1  0  0  0  0  0  0  0  0  0
   14.5239  -16.1797   22.4643 C   0  0  0  0  0  0  0  0  0  0  0  0
   15.5582  -15.8431   21.4340 C   0  0  0  0  0  0  0  0  0  0  0  0
   16.8430  -15.5270   22.1707 C   0  0  0  0  0  0  0  0  0  0  0  0
   17.9576  -15.1539   21.2195 C   0  0  0  0  0  0  0  0  0  0  0  0
   19.1669  -14.9613   22.0078 N   0  0  0  0  0  0  0  0  0  0  0  0
   13.1905  -17.2700   20.6765 C   0  0  0  0  0  0  0  0  0  0  0  0
   13.2131  -16.7426   19.5334 O   0  0  0  0  0  0  0  0  0  0  0  0
   13.2033  -18.6570   20.6921 O   0  0  0  0  0  0  0  0  0  0  0  0
  2  1  1  1
  2  3  1  0
  4  3  1  0
  5  4  2  0
  6  5  1  0
  7  6  2  0
  7  8  1  0
  8  9  2  0
  9  4  1  0
 10 19  1  0
 10  2  1  0
 11 10  2  0
 13 12  1  0
 14 13  2  0
 15 14  1  0
 16 22  1  0
 16 15  2  0
 17 16  1  0
 18 19  1  0
 18 17  1  6
 20 21  2  0
 20 18  1  0
 22 23  2  0
 23 13  1  0
 24 20  1  0
 25 24  1  0
 25 31  1  0
 25 26  1  1
 27 26  1  0
 28 27  1  0
 28 29  1  0
 29 30  1  0
 31 33  1  0
 32 31  2  0
M  END
$$$$
