FYK.pdb
     RDKit          3D

 33 34  0  0  1  0  0  0  0  0999 V2000
    6.4217  -18.1764   26.2947 N   0  0  0  0  0  0  0  0  0  0  0  0
    6.3509  -16.7348   26.0007 C   0  0  1  0  0  0  0  0  0  0  0  0
    7.0378  -16.0574   27.1596 C   0  0  0  0  0  0  0  0  0  0  0  0
    7.1195  -14.6081   27.0796 C   0  0  0  0  0  0  0  0  0  0  0  0
    8.3362  -13.9777   27.2084 C   0  0  0  0  0  0  0  0  0  0  0  0
    8.4520  -12.5962   27.1329 C   0  0  0  0  0  0  0  0  0  0  0  0
    7.3321  -11.8246   26.9247 C   0  0  0  0  0  0  0  0  0  0  0  0
    6.1158  -12.4506   26.7958 C   0  0  0  0  0  0  0  0  0  0  0  0
    6.0128  -13.8352   26.8732 C   0  0  0  0  0  0  0  0  0  0  0  0
    7.1161  -16.4934   24.7559 C   0  0  0  0  0  0  0  0  0  0  0  0
    8.1346  -17.1847   24.4697 O   0  0  0  0  0  0  0  0  0  0  0  0
    9.2815  -13.6486   16.6393 O   0  0  0  0  0  0  0  0  0  0  0  0
    8.6918  -13.7691   17.9069 C   0  0  0  0  0  0  0  0  0  0  0  0
    7.8565  -14.8163   18.1722 C   0  0  0  0  0  0  0  0  0  0  0  0
    7.2451  -14.9776   19.4227 C   0  0  0  0  0  0  0  0  0  0  0  0
    7.4960  -14.0537   20.4069 C   0  0  0  0  0  0  0  0  0  0  0  0
    6.8730  -14.1905   21.7342 C   0  0  0  0  0  0  0  0  0  0  0  0
    7.4962  -15.2630   22.5792 C   0  0  2  0  0  0  0  0  0  0  0  0
    6.7466  -15.4685   23.8113 N   0  0  0  0  0  0  0  0  0  0  0  0
    8.9359  -15.0995   22.8290 C   0  0  0  0  0  0  0  0  0  0  0  0
    9.3563  -14.7326   23.9807 O   0  0  0  0  0  0  0  0  0  0  0  0
    8.3319  -13.0054   20.1422 C   0  0  0  0  0  0  0  0  0  0  0  0
    8.9422  -12.8354   18.9095 C   0  0  0  0  0  0  0  0  0  0  0  0
    9.9398  -15.3241   21.8665 N   0  0  0  0  0  0  0  0  0  0  0  0
   11.2940  -15.7003   22.1821 C   0  0  1  0  0  0  0  0  0  0  0  0
   11.2567  -16.9571   23.0234 C   0  0  0  0  0  0  0  0  0  0  0  0
   12.6161  -17.5033   23.3367 C   0  0  0  0  0  0  0  0  0  0  0  0
   12.4180  -18.8030   24.0885 C   0  0  0  0  0  0  0  0  0  0  0  0
   13.7351  -19.4780   24.3984 C   0  0  0  0  0  0  0  0  0  0  0  0
   13.4543  -20.6300   25.2437 N   0  0  0  0  0  0  0  0  0  0  0  0
   12.1828  -15.8084   21.0269 C   0  0  0  0  0  0  0  0  0  0  0  0
   11.7992  -16.3873   19.9767 O   0  0  0  0  0  0  0  0  0  0  0  0
   13.4739  -15.3025   20.9897 O   0  0  0  0  0  0  0  0  0  0  0  0
  2  1  1  1
  2  3  1  0
  4  3  1  0
  5  4  2  0
  6  5  1  0
  7  6  2  0
  7  8  1  0
  8  9  2  0
  9  4  1  0
 10 19  1  0
 10  2  1  0
 11 10  2  0
 13 12  1  0
 14 13  2  0
 15 14  1  0
 16 22  1  0
 16 15  2  0
 17 16  1  0
 18 19  1  0
 18 17  1  1
 20 21  2  0
 20 18  1  0
 22 23  2  0
 23 13  1  0
 24 20  1  0
 25 24  1  0
 25 31  1  0
 25 26  1  6
 27 26  1  0
 28 27  1  0
 28 29  1  0
 29 30  1  0
 31 33  1  0
 32 31  2  0
M  END
$$$$
