FYK.pdb
     RDKit          3D

 33 34  0  0  1  0  0  0  0  0999 V2000
    7.4090  -16.5670   26.6243 N   0  0  0  0  0  0  0  0  0  0  0  0
    6.5341  -16.6827   25.4449 C   0  0  1  0  0  0  0  0  0  0  0  0
    5.5754  -15.5230   25.5446 C   0  0  0  0  0  0  0  0  0  0  0  0
    6.1593  -14.2620   25.9715 C   0  0  0  0  0  0  0  0  0  0  0  0
    6.4391  -13.2829   25.0455 C   0  0  0  0  0  0  0  0  0  0  0  0
    6.9926  -12.0653   25.4181 C   0  0  0  0  0  0  0  0  0  0  0  0
    7.2740  -11.8163   26.7416 C   0  0  0  0  0  0  0  0  0  0  0  0
    6.9960  -12.7915   27.6686 C   0  0  0  0  0  0  0  0  0  0  0  0
    6.4416  -14.0071   27.2831 C   0  0  0  0  0  0  0  0  0  0  0  0
    7.3823  -16.5277   24.2410 C   0  0  0  0  0  0  0  0  0  0  0  0
    6.9592  -16.8553   23.0960 O   0  0  0  0  0  0  0  0  0  0  0  0
    7.1665  -13.3667   17.7510 O   0  0  0  0  0  0  0  0  0  0  0  0
    7.7957  -13.6341   18.9764 C   0  0  0  0  0  0  0  0  0  0  0  0
    8.6103  -14.7232   19.0999 C   0  0  0  0  0  0  0  0  0  0  0  0
    9.2594  -15.0300   20.3033 C   0  0  0  0  0  0  0  0  0  0  0  0
    9.0681  -14.2091   21.3872 C   0  0  0  0  0  0  0  0  0  0  0  0
    9.7346  -14.4982   22.6680 C   0  0  0  0  0  0  0  0  0  0  0  0
    9.5671  -15.9190   23.1216 C   0  0  2  0  0  0  0  0  0  0  0  0
    8.7229  -16.0005   24.3061 N   0  0  0  0  0  0  0  0  0  0  0  0
   10.8198  -16.6718   23.2830 C   0  0  0  0  0  0  0  0  0  0  0  0
   11.3447  -16.8160   24.4413 O   0  0  0  0  0  0  0  0  0  0  0  0
    8.2531  -13.1189   21.2644 C   0  0  0  0  0  0  0  0  0  0  0  0
    7.6059  -12.8054   20.0796 C   0  0  0  0  0  0  0  0  0  0  0  0
   11.5243  -17.2782   22.2244 N   0  0  0  0  0  0  0  0  0  0  0  0
   12.7696  -17.9849   22.3810 C   0  0  1  0  0  0  0  0  0  0  0  0
   13.0386  -18.7653   21.1132 C   0  0  0  0  0  0  0  0  0  0  0  0
   14.3598  -19.4715   21.1185 C   0  0  0  0  0  0  0  0  0  0  0  0
   14.5025  -20.1723   19.7837 C   0  0  0  0  0  0  0  0  0  0  0  0
   15.8072  -20.9301   19.6847 C   0  0  0  0  0  0  0  0  0  0  0  0
   15.4980  -22.2932   19.2760 N   0  0  0  0  0  0  0  0  0  0  0  0
   13.8974  -17.1513   22.7926 C   0  0  0  0  0  0  0  0  0  0  0  0
   15.0137  -17.6704   23.0565 O   0  0  0  0  0  0  0  0  0  0  0  0
   13.8373  -15.7715   22.9226 O   0  0  0  0  0  0  0  0  0  0  0  0
  2  1  1  1
  2  3  1  0
  4  3  1  0
  5  4  2  0
  6  5  1  0
  7  6  2  0
  7  8  1  0
  8  9  2  0
  9  4  1  0
 10 19  1  0
 10  2  1  0
 11 10  2  0
 13 12  1  0
 14 13  2  0
 15 14  1  0
 16 22  1  0
 16 15  2  0
 17 16  1  0
 18 19  1  0
 18 17  1  1
 20 21  2  0
 20 18  1  0
 22 23  2  0
 23 13  1  0
 24 20  1  0
 25 24  1  0
 25 31  1  0
 25 26  1  6
 27 26  1  0
 28 27  1  0
 28 29  1  0
 29 30  1  0
 31 33  1  0
 32 31  2  0
M  END
$$$$
