FYK.pdb
     RDKit          3D

 33 34  0  0  1  0  0  0  0  0999 V2000
    6.4083  -18.2598   26.1055 N   0  0  0  0  0  0  0  0  0  0  0  0
    6.2850  -16.8163   25.8393 C   0  0  1  0  0  0  0  0  0  0  0  0
    6.9004  -16.1362   27.0362 C   0  0  0  0  0  0  0  0  0  0  0  0
    6.9414  -14.6841   26.9797 C   0  0  0  0  0  0  0  0  0  0  0  0
    8.1492  -14.0260   27.0270 C   0  0  0  0  0  0  0  0  0  0  0  0
    8.2262  -12.6408   26.9709 C   0  0  0  0  0  0  0  0  0  0  0  0
    7.0756  -11.8939   26.8655 C   0  0  0  0  0  0  0  0  0  0  0  0
    5.8682  -12.5476   26.8182 C   0  0  0  0  0  0  0  0  0  0  0  0
    5.8041  -13.9356   26.8752 C   0  0  0  0  0  0  0  0  0  0  0  0
    7.0824  -16.5146   24.6284 C   0  0  0  0  0  0  0  0  0  0  0  0
    8.1585  -17.1304   24.3835 O   0  0  0  0  0  0  0  0  0  0  0  0
    9.2844  -13.4968   16.5821 O   0  0  0  0  0  0  0  0  0  0  0  0
    8.6878  -13.6441   17.8436 C   0  0  0  0  0  0  0  0  0  0  0  0
    7.9397  -14.7533   18.1174 C   0  0  0  0  0  0  0  0  0  0  0  0
    7.3252  -14.9433   19.3624 C   0  0  0  0  0  0  0  0  0  0  0  0
    7.4825  -13.9841   20.3322 C   0  0  0  0  0  0  0  0  0  0  0  0
    6.8534  -14.1495   21.6532 C   0  0  0  0  0  0  0  0  0  0  0  0
    7.4660  -15.2466   22.4739 C   0  0  2  0  0  0  0  0  0  0  0  0
    6.6807  -15.5133   23.6717 N   0  0  0  0  0  0  0  0  0  0  0  0
    8.8943  -15.0729   22.7768 C   0  0  0  0  0  0  0  0  0  0  0  0
    9.2674  -14.6728   23.9338 O   0  0  0  0  0  0  0  0  0  0  0  0
    8.2312  -12.8738   20.0590 C   0  0  0  0  0  0  0  0  0  0  0  0
    8.8436  -12.6749   18.8316 C   0  0  0  0  0  0  0  0  0  0  0  0
    9.9364  -15.3221   21.8623 N   0  0  0  0  0  0  0  0  0  0  0  0
   11.2260  -15.8491   22.2287 C   0  0  1  0  0  0  0  0  0  0  0  0
   11.0150  -17.1265   23.0114 C   0  0  0  0  0  0  0  0  0  0  0  0
   12.2504  -17.6070   23.7095 C   0  0  0  0  0  0  0  0  0  0  0  0
   11.9100  -18.9249   24.3733 C   0  0  0  0  0  0  0  0  0  0  0  0
   13.1211  -19.5545   25.0239 C   0  0  0  0  0  0  0  0  0  0  0  0
   12.7434  -19.9508   26.3733 N   0  0  0  0  0  0  0  0  0  0  0  0
   12.1606  -16.0049   21.1159 C   0  0  0  0  0  0  0  0  0  0  0  0
   13.4023  -15.9207   21.3070 O   0  0  0  0  0  0  0  0  0  0  0  0
   11.7756  -16.2492   19.8059 O   0  0  0  0  0  0  0  0  0  0  0  0
  2  1  1  1
  2  3  1  0
  4  3  1  0
  5  4  2  0
  6  5  1  0
  7  6  2  0
  7  8  1  0
  8  9  2  0
  9  4  1  0
 10 19  1  0
 10  2  1  0
 11 10  2  0
 13 12  1  0
 14 13  2  0
 15 14  1  0
 16 22  1  0
 16 15  2  0
 17 16  1  0
 18 19  1  0
 18 17  1  1
 20 21  2  0
 20 18  1  0
 22 23  2  0
 23 13  1  0
 24 20  1  0
 25 24  1  0
 25 31  1  0
 25 26  1  6
 27 26  1  0
 28 27  1  0
 28 29  1  0
 29 30  1  0
 31 33  1  0
 32 31  2  0
M  END
$$$$
