FYK.pdb
     RDKit          3D

 33 34  0  0  1  0  0  0  0  0999 V2000
    4.6869  -18.8623   23.1947 N   0  0  0  0  0  0  0  0  0  0  0  0
    5.2366  -18.0321   22.1092 C   0  0  1  0  0  0  0  0  0  0  0  0
    4.0363  -17.4595   21.3984 C   0  0  0  0  0  0  0  0  0  0  0  0
    3.0952  -18.4348   20.8724 C   0  0  0  0  0  0  0  0  0  0  0  0
    1.8720  -18.6095   21.4786 C   0  0  0  0  0  0  0  0  0  0  0  0
    0.9472  -19.5284   21.0008 C   0  0  0  0  0  0  0  0  0  0  0  0
    1.2464  -20.2905   19.8952 C   0  0  0  0  0  0  0  0  0  0  0  0
    2.4666  -20.1188   19.2876 C   0  0  0  0  0  0  0  0  0  0  0  0
    3.3844  -19.1951   19.7755 C   0  0  0  0  0  0  0  0  0  0  0  0
    6.0166  -16.9386   22.7328 C   0  0  0  0  0  0  0  0  0  0  0  0
    6.6630  -16.1120   22.0284 O   0  0  0  0  0  0  0  0  0  0  0  0
   11.3761  -13.5722   28.9630 O   0  0  0  0  0  0  0  0  0  0  0  0
   10.2756  -14.1182   28.2848 C   0  0  0  0  0  0  0  0  0  0  0  0
    9.4349  -13.3018   27.5836 C   0  0  0  0  0  0  0  0  0  0  0  0
    8.3238  -13.8018   26.8913 C   0  0  0  0  0  0  0  0  0  0  0  0
    8.0770  -15.1522   26.9215 C   0  0  0  0  0  0  0  0  0  0  0  0
    6.9202  -15.7147   26.2049 C   0  0  0  0  0  0  0  0  0  0  0  0
    7.2339  -16.1323   24.7979 C   0  0  2  0  0  0  0  0  0  0  0  0
    6.0819  -16.7571   24.1618 N   0  0  0  0  0  0  0  0  0  0  0  0
    8.4540  -16.9388   24.6463 C   0  0  0  0  0  0  0  0  0  0  0  0
    8.4456  -18.1866   24.9309 O   0  0  0  0  0  0  0  0  0  0  0  0
    8.9180  -15.9698   27.6230 C   0  0  0  0  0  0  0  0  0  0  0  0
   10.0198  -15.4869   28.3114 C   0  0  0  0  0  0  0  0  0  0  0  0
    9.6883  -16.4345   24.1918 N   0  0  0  0  0  0  0  0  0  0  0  0
   10.8456  -17.2489   23.9227 C   0  0  1  0  0  0  0  0  0  0  0  0
   11.5339  -16.7078   22.6889 C   0  0  0  0  0  0  0  0  0  0  0  0
   12.7811  -17.4552   22.3279 C   0  0  0  0  0  0  0  0  0  0  0  0
   13.3411  -16.8191   21.0728 C   0  0  0  0  0  0  0  0  0  0  0  0
   14.5097  -17.6035   20.5200 C   0  0  0  0  0  0  0  0  0  0  0  0
   14.9642  -16.9291   19.3120 N   0  0  0  0  0  0  0  0  0  0  0  0
   11.7506  -17.4181   25.0578 C   0  0  0  0  0  0  0  0  0  0  0  0
   11.8387  -16.5278   25.9438 O   0  0  0  0  0  0  0  0  0  0  0  0
   12.5581  -18.5296   25.2491 O   0  0  0  0  0  0  0  0  0  0  0  0
  2  1  1  1
  2  3  1  0
  4  3  1  0
  5  4  2  0
  6  5  1  0
  7  6  2  0
  7  8  1  0
  8  9  2  0
  9  4  1  0
 10 19  1  0
 10  2  1  0
 11 10  2  0
 13 12  1  0
 14 13  2  0
 15 14  1  0
 16 22  1  0
 16 15  2  0
 17 16  1  0
 18 19  1  0
 18 17  1  1
 20 21  2  0
 20 18  1  0
 22 23  2  0
 23 13  1  0
 24 20  1  0
 25 24  1  0
 25 31  1  0
 25 26  1  6
 27 26  1  0
 28 27  1  0
 28 29  1  0
 29 30  1  0
 31 33  1  0
 32 31  2  0
M  END
$$$$
