FYK.pdb
     RDKit          3D

 33 34  0  0  1  0  0  0  0  0999 V2000
    6.2752  -18.3270   26.3548 N   0  0  0  0  0  0  0  0  0  0  0  0
    6.2943  -16.8765   26.0994 C   0  0  1  0  0  0  0  0  0  0  0  0
    7.1214  -16.2864   27.2137 C   0  0  0  0  0  0  0  0  0  0  0  0
    7.2867  -14.8425   27.1746 C   0  0  0  0  0  0  0  0  0  0  0  0
    6.1848  -14.0249   27.0672 C   0  0  0  0  0  0  0  0  0  0  0  0
    6.3050  -12.6421   27.0315 C   0  0  0  0  0  0  0  0  0  0  0  0
    7.5494  -12.0600   27.1042 C   0  0  0  0  0  0  0  0  0  0  0  0
    8.6516  -12.8732   27.2114 C   0  0  0  0  0  0  0  0  0  0  0  0
    8.5182  -14.2570   27.2463 C   0  0  0  0  0  0  0  0  0  0  0  0
    6.9754  -16.6589   24.8025 C   0  0  0  0  0  0  0  0  0  0  0  0
    7.8644  -17.4562   24.3887 O   0  0  0  0  0  0  0  0  0  0  0  0
    9.2089  -13.3127   16.8906 O   0  0  0  0  0  0  0  0  0  0  0  0
    8.6286  -13.4991   18.1545 C   0  0  0  0  0  0  0  0  0  0  0  0
    7.8175  -14.5745   18.3792 C   0  0  0  0  0  0  0  0  0  0  0  0
    7.2163  -14.8013   19.6245 C   0  0  0  0  0  0  0  0  0  0  0  0
    7.4522  -13.9142   20.6456 C   0  0  0  0  0  0  0  0  0  0  0  0
    6.8393  -14.1201   21.9685 C   0  0  0  0  0  0  0  0  0  0  0  0
    7.3776  -15.3169   22.6968 C   0  0  2  0  0  0  0  0  0  0  0  0
    6.6663  -15.5388   23.9487 N   0  0  0  0  0  0  0  0  0  0  0  0
    8.8364  -15.3287   22.8804 C   0  0  0  0  0  0  0  0  0  0  0  0
    9.3915  -14.5289   23.7111 O   0  0  0  0  0  0  0  0  0  0  0  0
    8.2639  -12.8376   20.4215 C   0  0  0  0  0  0  0  0  0  0  0  0
    8.8639  -12.6029   19.1944 C   0  0  0  0  0  0  0  0  0  0  0  0
    9.7170  -16.1851   22.1908 N   0  0  0  0  0  0  0  0  0  0  0  0
   11.1530  -16.1049   22.2717 C   0  0  1  0  0  0  0  0  0  0  0  0
   11.6864  -17.4673   22.6567 C   0  0  0  0  0  0  0  0  0  0  0  0
   11.1669  -17.9589   23.9731 C   0  0  0  0  0  0  0  0  0  0  0  0
   11.8108  -19.3037   24.2387 C   0  0  0  0  0  0  0  0  0  0  0  0
   11.3113  -19.9202   25.5259 C   0  0  0  0  0  0  0  0  0  0  0  0
   11.8495  -21.2708   25.6082 N   0  0  0  0  0  0  0  0  0  0  0  0
   11.8013  -15.5482   21.0860 C   0  0  0  0  0  0  0  0  0  0  0  0
   11.1837  -15.4826   19.9907 O   0  0  0  0  0  0  0  0  0  0  0  0
   13.1009  -15.0636   21.0661 O   0  0  0  0  0  0  0  0  0  0  0  0
  2  1  1  1
  2  3  1  0
  4  3  1  0
  5  4  2  0
  6  5  1  0
  7  6  2  0
  7  8  1  0
  8  9  2  0
  9  4  1  0
 10 19  1  0
 10  2  1  0
 11 10  2  0
 13 12  1  0
 14 13  2  0
 15 14  1  0
 16 22  1  0
 16 15  2  0
 17 16  1  0
 18 19  1  0
 18 17  1  1
 20 21  2  0
 20 18  1  0
 22 23  2  0
 23 13  1  0
 24 20  1  0
 25 24  1  0
 25 31  1  0
 25 26  1  6
 27 26  1  0
 28 27  1  0
 28 29  1  0
 29 30  1  0
 31 33  1  0
 32 31  2  0
M  END
$$$$
