FYK.pdb
     RDKit          3D

 33 34  0  0  1  0  0  0  0  0999 V2000
    6.6177  -18.4085   26.0182 N   0  0  0  0  0  0  0  0  0  0  0  0
    6.5690  -16.9477   25.8357 C   0  0  1  0  0  0  0  0  0  0  0  0
    7.3749  -16.3765   26.9750 C   0  0  0  0  0  0  0  0  0  0  0  0
    7.3969  -14.9255   27.0616 C   0  0  0  0  0  0  0  0  0  0  0  0
    8.5934  -14.2614   27.2088 C   0  0  0  0  0  0  0  0  0  0  0  0
    8.6522  -12.8766   27.2904 C   0  0  0  0  0  0  0  0  0  0  0  0
    7.4946  -12.1361   27.2241 C   0  0  0  0  0  0  0  0  0  0  0  0
    6.2984  -12.7957   27.0772 C   0  0  0  0  0  0  0  0  0  0  0  0
    6.2525  -14.1832   26.9966 C   0  0  0  0  0  0  0  0  0  0  0  0
    7.2316  -16.6348   24.5488 C   0  0  0  0  0  0  0  0  0  0  0  0
    8.1761  -17.3499   24.1084 O   0  0  0  0  0  0  0  0  0  0  0  0
    8.8424  -13.1005   16.5711 O   0  0  0  0  0  0  0  0  0  0  0  0
    8.3766  -13.3073   17.8785 C   0  0  0  0  0  0  0  0  0  0  0  0
    7.5847  -14.3845   18.1566 C   0  0  0  0  0  0  0  0  0  0  0  0
    7.0963  -14.6314   19.4466 C   0  0  0  0  0  0  0  0  0  0  0  0
    7.4260  -13.7625   20.4574 C   0  0  0  0  0  0  0  0  0  0  0  0
    6.9330  -13.9898   21.8262 C   0  0  0  0  0  0  0  0  0  0  0  0
    7.5036  -15.2194   22.4705 C   0  0  2  0  0  0  0  0  0  0  0  0
    6.8413  -15.5102   23.7350 N   0  0  0  0  0  0  0  0  0  0  0  0
    8.9684  -15.2317   22.5981 C   0  0  0  0  0  0  0  0  0  0  0  0
    9.5390  -14.6303   23.5732 O   0  0  0  0  0  0  0  0  0  0  0  0
    8.2186  -12.6843   20.1800 C   0  0  0  0  0  0  0  0  0  0  0  0
    8.7075  -12.4298   18.9082 C   0  0  0  0  0  0  0  0  0  0  0  0
    9.8387  -15.8796   21.6998 N   0  0  0  0  0  0  0  0  0  0  0  0
   11.2726  -15.9020   21.8360 C   0  0  1  0  0  0  0  0  0  0  0  0
   11.6902  -17.2927   22.2608 C   0  0  0  0  0  0  0  0  0  0  0  0
   13.1711  -17.4428   22.4310 C   0  0  0  0  0  0  0  0  0  0  0  0
   13.4364  -18.8799   22.8281 C   0  0  0  0  0  0  0  0  0  0  0  0
   14.9107  -19.1400   23.0406 C   0  0  0  0  0  0  0  0  0  0  0  0
   15.0505  -20.4879   23.5738 N   0  0  0  0  0  0  0  0  0  0  0  0
   12.0046  -15.4137   20.6691 C   0  0  0  0  0  0  0  0  0  0  0  0
   11.5716  -15.6285   19.5065 O   0  0  0  0  0  0  0  0  0  0  0  0
   13.1919  -14.6999   20.7393 O   0  0  0  0  0  0  0  0  0  0  0  0
  2  1  1  1
  2  3  1  0
  4  3  1  0
  5  4  2  0
  6  5  1  0
  7  6  2  0
  7  8  1  0
  8  9  2  0
  9  4  1  0
 10 19  1  0
 10  2  1  0
 11 10  2  0
 13 12  1  0
 14 13  2  0
 15 14  1  0
 16 22  1  0
 16 15  2  0
 17 16  1  0
 18 19  1  0
 18 17  1  1
 20 21  2  0
 20 18  1  0
 22 23  2  0
 23 13  1  0
 24 20  1  0
 25 24  1  0
 25 31  1  0
 25 26  1  6
 27 26  1  0
 28 27  1  0
 28 29  1  0
 29 30  1  0
 31 33  1  0
 32 31  2  0
M  END
$$$$
