CRY.pdb
     RDKit          3D

 30 30  0  0  1  0  0  0  0  0999 V2000
    6.8630  -19.9134   20.7622 N   0  0  0  0  0  0  0  0  0  0  0  0
    6.5614  -18.8584   21.7133 C   0  0  1  0  0  0  0  0  0  0  0  0
    6.4402  -19.4853   23.0775 C   0  0  0  0  0  0  0  0  0  0  0  0
    6.0808  -18.1671   24.2706 S   0  0  0  0  0  0  0  0  0  0  0  0
    7.6697  -17.8596   21.6569 C   0  0  0  0  0  0  0  0  0  0  0  0
    8.8686  -18.2198   21.4776 O   0  0  0  0  0  0  0  0  0  0  0  0
    8.7695  -15.0723   17.2798 N   0  0  0  0  0  0  0  0  0  0  0  0
    8.0547  -13.9457   16.7629 C   0  0  0  0  0  0  0  0  0  0  0  0
    8.2684  -13.5553   15.5736 N   0  0  0  0  0  0  0  0  0  0  0  0
    7.1285  -13.3145   17.6209 N   0  0  0  0  0  0  0  0  0  0  0  0
    7.3645  -13.1883   19.0219 C   0  0  0  0  0  0  0  0  0  0  0  0
    7.9197  -14.4467   19.6723 C   0  0  0  0  0  0  0  0  0  0  0  0
    7.9964  -14.2833   21.1477 C   0  0  0  0  0  0  0  0  0  0  0  0
    8.5151  -15.4778   21.9135 C   0  0  2  0  0  0  0  0  0  0  0  0
    7.4356  -16.4762   21.8003 N   0  0  0  0  0  0  0  0  0  0  0  0
    8.6712  -15.1652   23.3737 C   0  0  0  0  0  0  0  0  0  0  0  0
    7.6426  -14.7442   24.0154 O   0  0  0  0  0  0  0  0  0  0  0  0
    7.8493  -12.6680   15.2231 O   0  0  0  0  0  0  0  0  0  0  0  0
    6.1222  -10.5825   27.1191 C   0  0  0  0  0  0  0  0  0  0  0  0
    6.6739  -11.8314   26.8469 C   0  0  0  0  0  0  0  0  0  0  0  0
    5.8966  -12.9587   26.7888 C   0  0  0  0  0  0  0  0  0  0  0  0
    6.4421  -14.1956   26.5194 C   0  0  0  0  0  0  0  0  0  0  0  0
    7.8137  -14.3570   26.2931 C   0  0  0  0  0  0  0  0  0  0  0  0
    8.4033  -15.6765   26.0263 C   0  0  2  0  0  0  0  0  0  0  0  0
    9.8118  -15.5358   25.5566 N   0  0  0  0  0  0  0  0  0  0  0  0
    9.8509  -15.2959   24.1026 C   0  0  0  0  0  0  0  0  0  0  0  0
   10.6052  -16.7438   25.8605 O   0  0  0  0  0  0  0  0  0  0  0  0
   11.1831  -17.5786   24.9301 C   0  0  0  0  0  0  0  0  0  0  0  0
    8.5719  -13.1951   26.3597 C   0  0  0  0  0  0  0  0  0  0  0  0
    8.0318  -11.9730   26.6258 O   0  0  0  0  0  0  0  0  0  0  0  0
  2  1  1  6
  2  3  1  0
  4  3  1  0
  5  2  1  0
  6  5  2  0
  8  7  1  0
  9  8  2  0
 10  8  1  0
 11 12  1  0
 11 10  1  0
 12 13  1  0
 14 13  1  6
 14 15  1  0
 15  5  1  0
 16 14  1  0
 16 17  2  0
 18 19  1  0
 19 29  2  0
 20 21  2  0
 20 19  1  0
 21 22  1  0
 22 23  1  0
 22 28  2  0
 24 23  1  1
 24 25  1  0
 25 16  1  0
 26 24  1  0
 27 26  1  0
 29 28  1  0
 30 26  2  0
M  END
$$$$
