CRY.pdb
     RDKit          3D

 30 30  0  0  1  0  0  0  0  0999 V2000
    6.3701  -13.5013   18.6381 N   0  0  0  0  0  0  0  0  0  0  0  0
    7.6977  -13.7675   19.1626 C   0  0  1  0  0  0  0  0  0  0  0  0
    8.3188  -12.4488   19.5422 C   0  0  0  0  0  0  0  0  0  0  0  0
    9.9915  -12.7748   20.1637 S   0  0  0  0  0  0  0  0  0  0  0  0
    7.5524  -14.6731   20.3406 C   0  0  0  0  0  0  0  0  0  0  0  0
    6.7282  -14.4189   21.2655 O   0  0  0  0  0  0  0  0  0  0  0  0
    7.1428  -22.1728   21.6778 N   0  0  0  0  0  0  0  0  0  0  0  0
    6.0534  -21.6231   22.4253 C   0  0  0  0  0  0  0  0  0  0  0  0
    5.5934  -22.2551   23.4260 N   0  0  0  0  0  0  0  0  0  0  0  0
    5.5371  -20.3796   22.0019 N   0  0  0  0  0  0  0  0  0  0  0  0
    6.3323  -19.4395   21.2819 C   0  0  0  0  0  0  0  0  0  0  0  0
    7.6728  -19.1345   21.9338 C   0  0  0  0  0  0  0  0  0  0  0  0
    8.4083  -18.1006   21.1596 C   0  0  0  0  0  0  0  0  0  0  0  0
    8.3069  -16.6894   21.6893 C   0  0  2  0  0  0  0  0  0  0  0  0
    8.3217  -15.8471   20.4788 N   0  0  0  0  0  0  0  0  0  0  0  0
    9.5186  -16.3195   22.4951 C   0  0  0  0  0  0  0  0  0  0  0  0
   10.0844  -15.1931   22.2542 O   0  0  0  0  0  0  0  0  0  0  0  0
    4.8162  -21.8560   23.9939 O   0  0  0  0  0  0  0  0  0  0  0  0
   10.5768  -13.7776   30.5344 C   0  0  0  0  0  0  0  0  0  0  0  0
   10.2460  -14.2857   29.2811 C   0  0  0  0  0  0  0  0  0  0  0  0
    9.9395  -15.6098   29.1050 C   0  0  0  0  0  0  0  0  0  0  0  0
    9.6119  -16.1136   27.8644 C   0  0  0  0  0  0  0  0  0  0  0  0
    9.5774  -15.2967   26.7286 C   0  0  0  0  0  0  0  0  0  0  0  0
    9.2493  -15.8331   25.4002 C   0  0  1  0  0  0  0  0  0  0  0  0
   10.4339  -16.5146   24.8032 N   0  0  0  0  0  0  0  0  0  0  0  0
   10.0884  -17.1025   23.4962 C   0  0  0  0  0  0  0  0  0  0  0  0
   10.9429  -17.5838   25.6856 O   0  0  0  0  0  0  0  0  0  0  0  0
   10.8659  -18.9356   25.4341 C   0  0  0  0  0  0  0  0  0  0  0  0
    9.8934  -13.9611   26.9424 C   0  0  0  0  0  0  0  0  0  0  0  0
   10.2168  -13.4641   28.1689 O   0  0  0  0  0  0  0  0  0  0  0  0
  2  1  1  1
  2  3  1  0
  4  3  1  0
  5  2  1  0
  6  5  2  0
  8  7  1  0
  9  8  2  0
 10  8  1  0
 11 12  1  0
 11 10  1  0
 12 13  1  0
 14 13  1  6
 14 15  1  0
 15  5  1  0
 16 14  1  0
 16 17  2  0
 18 19  1  0
 19 29  2  0
 20 21  2  0
 20 19  1  0
 21 22  1  0
 22 23  1  0
 22 28  2  0
 24 23  1  6
 24 25  1  0
 25 16  1  0
 26 24  1  0
 27 26  1  0
 29 28  1  0
 30 26  2  0
M  END
$$$$
