CRY.pdb
     RDKit          3D

 30 30  0  0  1  0  0  0  0  0999 V2000
    7.6080  -14.5561   17.9067 N   0  0  0  0  0  0  0  0  0  0  0  0
    8.6362  -14.2505   18.8854 C   0  0  1  0  0  0  0  0  0  0  0  0
    8.3165  -12.9082   19.4895 C   0  0  0  0  0  0  0  0  0  0  0  0
    8.8484  -11.6264   18.3214 S   0  0  0  0  0  0  0  0  0  0  0  0
    8.6313  -15.3365   19.9100 C   0  0  0  0  0  0  0  0  0  0  0  0
    7.5810  -15.9932   20.1646 O   0  0  0  0  0  0  0  0  0  0  0  0
   13.4518  -21.8658   22.2229 N   0  0  0  0  0  0  0  0  0  0  0  0
   13.8650  -20.6293   21.6328 C   0  0  0  0  0  0  0  0  0  0  0  0
   15.0242  -20.1713   21.8760 N   0  0  0  0  0  0  0  0  0  0  0  0
   12.9423  -19.9702   20.7924 N   0  0  0  0  0  0  0  0  0  0  0  0
   11.5347  -20.1601   20.9236 C   0  0  0  0  0  0  0  0  0  0  0  0
   10.8408  -19.0926   21.7567 C   0  0  0  0  0  0  0  0  0  0  0  0
   10.6072  -17.8675   20.9482 C   0  0  0  0  0  0  0  0  0  0  0  0
    9.8288  -16.7686   21.6329 C   0  0  2  0  0  0  0  0  0  0  0  0
    9.7890  -15.6802   20.6386 N   0  0  0  0  0  0  0  0  0  0  0  0
   10.5655  -16.2413   22.8303 C   0  0  0  0  0  0  0  0  0  0  0  0
   11.5555  -15.4495   22.6308 O   0  0  0  0  0  0  0  0  0  0  0  0
   15.3473  -19.2843   21.4348 O   0  0  0  0  0  0  0  0  0  0  0  0
    5.6236  -11.2757   27.6091 C   0  0  0  0  0  0  0  0  0  0  0  0
    6.2928  -12.2028   26.8147 C   0  0  0  0  0  0  0  0  0  0  0  0
    7.5863  -11.9966   26.4113 C   0  0  0  0  0  0  0  0  0  0  0  0
    8.2495  -12.9140   25.6247 C   0  0  0  0  0  0  0  0  0  0  0  0
    7.6328  -14.0971   25.2022 C   0  0  0  0  0  0  0  0  0  0  0  0
    8.3284  -15.0684   24.3462 C   0  0  1  0  0  0  0  0  0  0  0  0
    9.5733  -15.5535   25.0088 N   0  0  0  0  0  0  0  0  0  0  0  0
   10.2624  -16.5395   24.1567 C   0  0  0  0  0  0  0  0  0  0  0  0
    9.2815  -16.1764   26.3156 O   0  0  0  0  0  0  0  0  0  0  0  0
    8.5105  -17.3001   26.5141 C   0  0  0  0  0  0  0  0  0  0  0  0
    6.3227  -14.2741   25.6283 C   0  0  0  0  0  0  0  0  0  0  0  0
    5.6681  -13.3670   26.4058 O   0  0  0  0  0  0  0  0  0  0  0  0
  2  1  1  6
  2  3  1  0
  4  3  1  0
  5  2  1  0
  6  5  2  0
  8  7  1  0
  9  8  2  0
 10  8  1  0
 11 12  1  0
 11 10  1  0
 12 13  1  0
 14 13  1  6
 14 15  1  0
 15  5  1  0
 16 14  1  0
 16 17  2  0
 18 19  1  0
 19 29  2  0
 20 21  2  0
 20 19  1  0
 21 22  1  0
 22 23  1  0
 22 28  2  0
 24 23  1  6
 24 25  1  0
 25 16  1  0
 26 24  1  0
 27 26  1  0
 29 28  1  0
 30 26  2  0
M  END
$$$$
