CRY.pdb
     RDKit          3D

 30 30  0  0  1  0  0  0  0  0999 V2000
    7.6632  -14.3131   17.9754 N   0  0  0  0  0  0  0  0  0  0  0  0
    8.5743  -14.0938   19.0844 C   0  0  1  0  0  0  0  0  0  0  0  0
    8.2466  -12.7568   19.6958 C   0  0  0  0  0  0  0  0  0  0  0  0
    9.0974  -11.4761   18.7333 S   0  0  0  0  0  0  0  0  0  0  0  0
    8.3891  -15.2106   20.0579 C   0  0  0  0  0  0  0  0  0  0  0  0
    7.2605  -15.4477   20.5769 O   0  0  0  0  0  0  0  0  0  0  0  0
   14.4675  -21.6576   21.7809 N   0  0  0  0  0  0  0  0  0  0  0  0
   13.3463  -21.1157   21.0759 C   0  0  0  0  0  0  0  0  0  0  0  0
   13.4844  -20.7296   19.8741 N   0  0  0  0  0  0  0  0  0  0  0  0
   12.1189  -21.0384   21.7685 N   0  0  0  0  0  0  0  0  0  0  0  0
   10.9241  -20.5840   21.1356 C   0  0  0  0  0  0  0  0  0  0  0  0
   10.2475  -19.4237   21.8504 C   0  0  0  0  0  0  0  0  0  0  0  0
   10.1269  -18.2503   20.9460 C   0  0  0  0  0  0  0  0  0  0  0  0
    9.3387  -17.0818   21.4897 C   0  0  2  0  0  0  0  0  0  0  0  0
    9.4557  -16.0490   20.4435 N   0  0  0  0  0  0  0  0  0  0  0  0
    9.9746  -16.5231   22.7298 C   0  0  0  0  0  0  0  0  0  0  0  0
   10.9549  -15.7065   22.5915 O   0  0  0  0  0  0  0  0  0  0  0  0
   12.6829  -20.3113   19.3559 O   0  0  0  0  0  0  0  0  0  0  0  0
    5.8278  -11.1132   27.8351 C   0  0  0  0  0  0  0  0  0  0  0  0
    6.3524  -12.0746   26.9754 C   0  0  0  0  0  0  0  0  0  0  0  0
    7.7033  -12.1980   26.7805 C   0  0  0  0  0  0  0  0  0  0  0  0
    8.2235  -13.1495   25.9295 C   0  0  0  0  0  0  0  0  0  0  0  0
    7.3965  -14.0326   25.2259 C   0  0  0  0  0  0  0  0  0  0  0  0
    7.9449  -15.0348   24.3015 C   0  0  1  0  0  0  0  0  0  0  0  0
    9.0922  -15.7530   24.9279 N   0  0  0  0  0  0  0  0  0  0  0  0
    9.5865  -16.8167   24.0349 C   0  0  0  0  0  0  0  0  0  0  0  0
    8.7100  -16.3570   26.2202 O   0  0  0  0  0  0  0  0  0  0  0  0
    7.7512  -17.3294   26.3986 C   0  0  0  0  0  0  0  0  0  0  0  0
    6.0336  -13.8799   25.4462 C   0  0  0  0  0  0  0  0  0  0  0  0
    5.5205  -12.9393   26.2876 O   0  0  0  0  0  0  0  0  0  0  0  0
  2  1  1  6
  2  3  1  0
  4  3  1  0
  5  2  1  0
  6  5  2  0
  8  7  1  0
  9  8  2  0
 10  8  1  0
 11 12  1  0
 11 10  1  0
 12 13  1  0
 14 13  1  6
 14 15  1  0
 15  5  1  0
 16 14  1  0
 16 17  2  0
 18 19  1  0
 19 29  2  0
 20 21  2  0
 20 19  1  0
 21 22  1  0
 22 23  1  0
 22 28  2  0
 24 23  1  6
 24 25  1  0
 25 16  1  0
 26 24  1  0
 27 26  1  0
 29 28  1  0
 30 26  2  0
M  END
$$$$
