CRY.pdb
     RDKit          3D

 30 30  0  0  1  0  0  0  0  0999 V2000
    7.7677  -13.7084   18.2636 N   0  0  0  0  0  0  0  0  0  0  0  0
    8.3118  -13.5203   19.5966 C   0  0  1  0  0  0  0  0  0  0  0  0
    7.6062  -12.3465   20.2235 C   0  0  0  0  0  0  0  0  0  0  0  0
    8.2879  -12.1055   21.8871 S   0  0  0  0  0  0  0  0  0  0  0  0
    8.0865  -14.7799   20.3658 C   0  0  0  0  0  0  0  0  0  0  0  0
    7.0324  -15.4618   20.2134 O   0  0  0  0  0  0  0  0  0  0  0  0
   10.1586  -21.2594   18.4183 N   0  0  0  0  0  0  0  0  0  0  0  0
   10.4159  -20.1766   17.5189 C   0  0  0  0  0  0  0  0  0  0  0  0
   10.3450  -20.3679   16.2656 N   0  0  0  0  0  0  0  0  0  0  0  0
   10.7412  -18.9252   18.0850 N   0  0  0  0  0  0  0  0  0  0  0  0
   10.7481  -18.7155   19.4959 C   0  0  0  0  0  0  0  0  0  0  0  0
    9.7240  -17.6978   19.9757 C   0  0  0  0  0  0  0  0  0  0  0  0
    9.8608  -17.4668   21.4377 C   0  0  0  0  0  0  0  0  0  0  0  0
    8.8539  -16.5209   22.0491 C   0  0  2  0  0  0  0  0  0  0  0  0
    9.0308  -15.2670   21.2934 N   0  0  0  0  0  0  0  0  0  0  0  0
    9.1868  -16.2196   23.4818 C   0  0  0  0  0  0  0  0  0  0  0  0
   10.2163  -15.4925   23.7235 O   0  0  0  0  0  0  0  0  0  0  0  0
   10.5534  -19.5951   15.5984 O   0  0  0  0  0  0  0  0  0  0  0  0
    6.6484  -10.3898   26.2617 C   0  0  0  0  0  0  0  0  0  0  0  0
    6.9151  -11.7505   26.3869 C   0  0  0  0  0  0  0  0  0  0  0  0
    5.9921  -12.6960   26.0233 C   0  0  0  0  0  0  0  0  0  0  0  0
    6.2554  -14.0434   26.1470 C   0  0  0  0  0  0  0  0  0  0  0  0
    7.4764  -14.5074   26.6494 C   0  0  0  0  0  0  0  0  0  0  0  0
    7.7540  -15.9424   26.8029 C   0  0  2  0  0  0  0  0  0  0  0  0
    8.9120  -16.3458   25.9540 N   0  0  0  0  0  0  0  0  0  0  0  0
    8.4645  -16.6651   24.5862 C   0  0  0  0  0  0  0  0  0  0  0  0
    9.6072  -17.5225   26.5135 O   0  0  0  0  0  0  0  0  0  0  0  0
   10.3695  -17.5333   27.6603 C   0  0  0  0  0  0  0  0  0  0  0  0
    8.3884  -13.5231   27.0085 C   0  0  0  0  0  0  0  0  0  0  0  0
    8.1273  -12.1917   26.8857 O   0  0  0  0  0  0  0  0  0  0  0  0
  2  1  1  6
  2  3  1  0
  4  3  1  0
  5  2  1  0
  6  5  2  0
  8  7  1  0
  9  8  2  0
 10  8  1  0
 11 12  1  0
 11 10  1  0
 12 13  1  0
 14 13  1  6
 14 15  1  0
 15  5  1  0
 16 14  1  0
 16 17  2  0
 18 19  1  0
 19 29  2  0
 20 21  2  0
 20 19  1  0
 21 22  1  0
 22 23  1  0
 22 28  2  0
 24 23  1  6
 24 25  1  0
 25 16  1  0
 26 24  1  0
 27 26  1  0
 29 28  1  0
 30 26  2  0
M  END
$$$$
