CRY.pdb
     RDKit          3D

 30 30  0  0  1  0  0  0  0  0999 V2000
    7.0362  -13.4788   18.2210 N   0  0  0  0  0  0  0  0  0  0  0  0
    8.1033  -13.4846   19.2057 C   0  0  1  0  0  0  0  0  0  0  0  0
    7.8847  -12.3174   20.1324 C   0  0  0  0  0  0  0  0  0  0  0  0
    9.3278  -12.1901   21.2240 S   0  0  0  0  0  0  0  0  0  0  0  0
    8.0504  -14.7882   19.9316 C   0  0  0  0  0  0  0  0  0  0  0  0
    6.9585  -15.4057   20.0920 O   0  0  0  0  0  0  0  0  0  0  0  0
   13.3540  -19.9296   22.6877 N   0  0  0  0  0  0  0  0  0  0  0  0
   13.0872  -20.9676   21.7395 C   0  0  0  0  0  0  0  0  0  0  0  0
   13.4796  -22.1521   21.9746 N   0  0  0  0  0  0  0  0  0  0  0  0
   12.3856  -20.6121   20.5674 N   0  0  0  0  0  0  0  0  0  0  0  0
   12.0722  -19.2551   20.2593 C   0  0  0  0  0  0  0  0  0  0  0  0
   10.7745  -18.7624   20.8826 C   0  0  0  0  0  0  0  0  0  0  0  0
   10.5080  -17.3534   20.4916 C   0  0  0  0  0  0  0  0  0  0  0  0
    9.2272  -16.7559   21.0254 C   0  0  2  0  0  0  0  0  0  0  0  0
    9.2068  -15.3899   20.4702 N   0  0  0  0  0  0  0  0  0  0  0  0
    9.2685  -16.6207   22.5202 C   0  0  0  0  0  0  0  0  0  0  0  0
    9.3031  -17.6934   23.2238 O   0  0  0  0  0  0  0  0  0  0  0  0
   13.3487  -22.9048   21.2660 O   0  0  0  0  0  0  0  0  0  0  0  0
    5.5402  -10.7491   26.7304 C   0  0  0  0  0  0  0  0  0  0  0  0
    6.1614  -11.9459   26.3834 C   0  0  0  0  0  0  0  0  0  0  0  0
    7.2409  -11.9721   25.5395 C   0  0  0  0  0  0  0  0  0  0  0  0
    7.8565  -13.1566   25.1955 C   0  0  0  0  0  0  0  0  0  0  0  0
    7.4075  -14.3858   25.6917 C   0  0  0  0  0  0  0  0  0  0  0  0
    8.0471  -15.6531   25.3113 C   0  0  2  0  0  0  0  0  0  0  0  0
    9.3792  -15.4017   24.6894 N   0  0  0  0  0  0  0  0  0  0  0  0
    9.2745  -15.4158   23.2190 C   0  0  0  0  0  0  0  0  0  0  0  0
   10.3688  -16.4159   25.1051 O   0  0  0  0  0  0  0  0  0  0  0  0
   11.0668  -17.2492   24.2595 C   0  0  0  0  0  0  0  0  0  0  0  0
    6.3120  -14.3230   26.5433 C   0  0  0  0  0  0  0  0  0  0  0  0
    5.7045  -13.1519   26.8828 O   0  0  0  0  0  0  0  0  0  0  0  0
  2  1  1  6
  2  3  1  0
  4  3  1  0
  5  2  1  0
  6  5  2  0
  8  7  1  0
  9  8  2  0
 10  8  1  0
 11 12  1  0
 11 10  1  0
 12 13  1  0
 14 13  1  6
 14 15  1  0
 15  5  1  0
 16 14  1  0
 16 17  2  0
 18 19  1  0
 19 29  2  0
 20 21  2  0
 20 19  1  0
 21 22  1  0
 22 23  1  0
 22 28  2  0
 24 23  1  1
 24 25  1  0
 25 16  1  0
 26 24  1  0
 27 26  1  0
 29 28  1  0
 30 26  2  0
M  END
$$$$
