CRY.pdb
     RDKit          3D

 30 30  0  0  1  0  0  0  0  0999 V2000
    7.4446  -13.1384   18.3791 N   0  0  0  0  0  0  0  0  0  0  0  0
    8.2429  -14.1673   19.0214 C   0  0  1  0  0  0  0  0  0  0  0  0
    9.5471  -13.5445   19.4455 C   0  0  0  0  0  0  0  0  0  0  0  0
    9.1742  -12.1830   20.5847 S   0  0  0  0  0  0  0  0  0  0  0  0
    7.4694  -14.6864   20.1881 C   0  0  0  0  0  0  0  0  0  0  0  0
    6.4412  -14.0851   20.6132 O   0  0  0  0  0  0  0  0  0  0  0  0
    1.6555  -18.4982   19.7828 N   0  0  0  0  0  0  0  0  0  0  0  0
    2.5313  -19.4897   20.3282 C   0  0  0  0  0  0  0  0  0  0  0  0
    2.3265  -20.7177   20.0783 N   0  0  0  0  0  0  0  0  0  0  0  0
    3.6009  -19.0402   21.1321 N   0  0  0  0  0  0  0  0  0  0  0  0
    3.7780  -17.6605   21.4477 C   0  0  0  0  0  0  0  0  0  0  0  0
    5.0006  -17.0288   20.7986 C   0  0  0  0  0  0  0  0  0  0  0  0
    6.2449  -17.4832   21.4729 C   0  0  0  0  0  0  0  0  0  0  0  0
    7.1201  -16.3901   22.0398 C   0  0  2  0  0  0  0  0  0  0  0  0
    7.8449  -15.8635   20.8684 N   0  0  0  0  0  0  0  0  0  0  0  0
    8.1510  -16.9470   22.9787 C   0  0  0  0  0  0  0  0  0  0  0  0
    9.3856  -16.6855   22.7454 O   0  0  0  0  0  0  0  0  0  0  0  0
    2.9781  -21.4478   20.4364 O   0  0  0  0  0  0  0  0  0  0  0  0
   10.5365  -13.6447   30.1532 C   0  0  0  0  0  0  0  0  0  0  0  0
    9.8707  -14.2017   29.0647 C   0  0  0  0  0  0  0  0  0  0  0  0
   10.1911  -15.4477   28.5924 C   0  0  0  0  0  0  0  0  0  0  0  0
    9.5324  -15.9999   27.5148 C   0  0  0  0  0  0  0  0  0  0  0  0
    8.5069  -15.3141   26.8540 C   0  0  0  0  0  0  0  0  0  0  0  0
    7.8159  -15.8897   25.6917 C   0  0  2  0  0  0  0  0  0  0  0  0
    8.2819  -17.2844   25.4429 N   0  0  0  0  0  0  0  0  0  0  0  0
    7.8800  -17.7319   24.0970 C   0  0  0  0  0  0  0  0  0  0  0  0
    7.7304  -18.2236   26.4403 O   0  0  0  0  0  0  0  0  0  0  0  0
    8.4396  -18.8176   27.4604 C   0  0  0  0  0  0  0  0  0  0  0  0
    8.2081  -14.0547   27.3579 C   0  0  0  0  0  0  0  0  0  0  0  0
    8.8596  -13.5099   28.4231 O   0  0  0  0  0  0  0  0  0  0  0  0
  2  1  1  1
  2  3  1  0
  4  3  1  0
  5  2  1  0
  6  5  2  0
  8  7  1  0
  9  8  2  0
 10  8  1  0
 11 12  1  0
 11 10  1  0
 12 13  1  0
 14 13  1  6
 14 15  1  0
 15  5  1  0
 16 14  1  0
 16 17  2  0
 18 19  1  0
 19 29  2  0
 20 21  2  0
 20 19  1  0
 21 22  1  0
 22 23  1  0
 22 28  2  0
 24 23  1  6
 24 25  1  0
 25 16  1  0
 26 24  1  0
 27 26  1  0
 29 28  1  0
 30 26  2  0
M  END
$$$$
