CRY.pdb
     RDKit          3D

 30 30  0  0  1  0  0  0  0  0999 V2000
    7.4831  -14.3284   17.7236 N   0  0  0  0  0  0  0  0  0  0  0  0
    8.2312  -13.9803   18.9185 C   0  0  1  0  0  0  0  0  0  0  0  0
    7.4072  -13.0002   19.7118 C   0  0  0  0  0  0  0  0  0  0  0  0
    8.0329  -11.3329   19.3668 S   0  0  0  0  0  0  0  0  0  0  0  0
    8.4869  -15.2376   19.6819 C   0  0  0  0  0  0  0  0  0  0  0  0
    7.9180  -16.3226   19.3682 O   0  0  0  0  0  0  0  0  0  0  0  0
    9.6502  -21.4873   21.0025 N   0  0  0  0  0  0  0  0  0  0  0  0
   11.0624  -21.7077   20.9346 C   0  0  0  0  0  0  0  0  0  0  0  0
   11.5847  -22.6571   21.5968 N   0  0  0  0  0  0  0  0  0  0  0  0
   11.8168  -20.8395   20.1164 N   0  0  0  0  0  0  0  0  0  0  0  0
   11.3389  -19.5473   19.7473 C   0  0  0  0  0  0  0  0  0  0  0  0
   10.7981  -18.7311   20.9120 C   0  0  0  0  0  0  0  0  0  0  0  0
   10.2878  -17.4178   20.4386 C   0  0  0  0  0  0  0  0  0  0  0  0
    9.7111  -16.5157   21.5043 C   0  0  2  0  0  0  0  0  0  0  0  0
    9.3685  -15.2764   20.7822 N   0  0  0  0  0  0  0  0  0  0  0  0
   10.7446  -16.1528   22.5313 C   0  0  0  0  0  0  0  0  0  0  0  0
   11.2499  -14.9738   22.4904 O   0  0  0  0  0  0  0  0  0  0  0  0
   12.6116  -22.8293   21.5571 O   0  0  0  0  0  0  0  0  0  0  0  0
   10.1792  -14.6773   30.9345 C   0  0  0  0  0  0  0  0  0  0  0  0
   10.1296  -15.0163   29.5850 C   0  0  0  0  0  0  0  0  0  0  0  0
    9.7948  -14.0937   28.6284 C   0  0  0  0  0  0  0  0  0  0  0  0
    9.7454  -14.4285   27.2921 C   0  0  0  0  0  0  0  0  0  0  0  0
   10.0344  -15.7249   26.8513 C   0  0  0  0  0  0  0  0  0  0  0  0
    9.9627  -16.0922   25.4301 C   0  0  1  0  0  0  0  0  0  0  0  0
   11.3018  -16.5189   24.9310 N   0  0  0  0  0  0  0  0  0  0  0  0
   11.2074  -16.9954   23.5392 C   0  0  0  0  0  0  0  0  0  0  0  0
   11.8700  -17.5971   25.7650 O   0  0  0  0  0  0  0  0  0  0  0  0
   12.8308  -17.4362   26.7384 C   0  0  0  0  0  0  0  0  0  0  0  0
   10.3692  -16.6344   27.8463 C   0  0  0  0  0  0  0  0  0  0  0  0
   10.4180  -16.3025   29.1667 O   0  0  0  0  0  0  0  0  0  0  0  0
  2  1  1  6
  2  3  1  0
  4  3  1  0
  5  2  1  0
  6  5  2  0
  8  7  1  0
  9  8  2  0
 10  8  1  0
 11 12  1  0
 11 10  1  0
 12 13  1  0
 14 13  1  6
 14 15  1  0
 15  5  1  0
 16 14  1  0
 16 17  2  0
 18 19  1  0
 19 29  2  0
 20 21  2  0
 20 19  1  0
 21 22  1  0
 22 23  1  0
 22 28  2  0
 24 23  1  6
 24 25  1  0
 25 16  1  0
 26 24  1  0
 27 26  1  0
 29 28  1  0
 30 26  2  0
M  END
$$$$
