CRY.pdb
     RDKit          3D

 30 30  0  0  1  0  0  0  0  0999 V2000
    6.5364  -20.4166   21.7511 N   0  0  0  0  0  0  0  0  0  0  0  0
    6.4418  -19.2635   22.6286 C   0  0  1  0  0  0  0  0  0  0  0  0
    6.4214  -19.7631   24.0494 C   0  0  0  0  0  0  0  0  0  0  0  0
    6.1125  -18.3455   25.1381 S   0  0  0  0  0  0  0  0  0  0  0  0
    7.6218  -18.3879   22.3641 C   0  0  0  0  0  0  0  0  0  0  0  0
    8.7309  -18.8744   22.0003 O   0  0  0  0  0  0  0  0  0  0  0  0
    7.3827  -14.5064   17.0706 N   0  0  0  0  0  0  0  0  0  0  0  0
    8.0743  -13.5894   17.9240 C   0  0  0  0  0  0  0  0  0  0  0  0
    8.4702  -12.4747   17.4621 N   0  0  0  0  0  0  0  0  0  0  0  0
    8.2836  -13.9804   19.2640 N   0  0  0  0  0  0  0  0  0  0  0  0
    9.2562  -13.3445   20.0912 C   0  0  0  0  0  0  0  0  0  0  0  0
    9.1893  -13.7563   21.5543 C   0  0  0  0  0  0  0  0  0  0  0  0
    8.2040  -14.8527   21.7450 C   0  0  0  0  0  0  0  0  0  0  0  0
    8.7357  -16.1051   22.4016 C   0  0  2  0  0  0  0  0  0  0  0  0
    7.5577  -16.9862   22.5065 N   0  0  0  0  0  0  0  0  0  0  0  0
    9.2042  -15.8316   23.8017 C   0  0  0  0  0  0  0  0  0  0  0  0
    9.8546  -14.7472   24.0207 O   0  0  0  0  0  0  0  0  0  0  0  0
    9.0325  -11.8256   18.0522 O   0  0  0  0  0  0  0  0  0  0  0  0
    5.8203  -11.1332   25.7418 C   0  0  0  0  0  0  0  0  0  0  0  0
    6.4456  -12.3253   26.0972 C   0  0  0  0  0  0  0  0  0  0  0  0
    7.6461  -12.3330   26.7584 C   0  0  0  0  0  0  0  0  0  0  0  0
    8.2658  -13.5128   27.1106 C   0  0  0  0  0  0  0  0  0  0  0  0
    7.6981  -14.7560   26.8094 C   0  0  0  0  0  0  0  0  0  0  0  0
    8.3649  -16.0167   27.1641 C   0  0  2  0  0  0  0  0  0  0  0  0
    9.4963  -16.2913   26.2320 N   0  0  0  0  0  0  0  0  0  0  0  0
    8.9896  -16.6628   24.8985 C   0  0  0  0  0  0  0  0  0  0  0  0
   10.3567  -17.3815   26.7341 O   0  0  0  0  0  0  0  0  0  0  0  0
   11.0042  -17.3969   27.9494 C   0  0  0  0  0  0  0  0  0  0  0  0
    6.4823  -14.7119   26.1391 C   0  0  0  0  0  0  0  0  0  0  0  0
    5.8706  -13.5453   25.7915 O   0  0  0  0  0  0  0  0  0  0  0  0
  2  1  1  6
  2  3  1  0
  4  3  1  0
  5  2  1  0
  6  5  2  0
  8  7  1  0
  9  8  2  0
 10  8  1  0
 11 12  1  0
 11 10  1  0
 12 13  1  0
 14 13  1  1
 14 15  1  0
 15  5  1  0
 16 14  1  0
 16 17  2  0
 18 19  1  0
 19 29  2  0
 20 21  2  0
 20 19  1  0
 21 22  1  0
 22 23  1  0
 22 28  2  0
 24 23  1  6
 24 25  1  0
 25 16  1  0
 26 24  1  0
 27 26  1  0
 29 28  1  0
 30 26  2  0
M  END
$$$$
