CRY.pdb
     RDKit          3D

 30 30  0  0  1  0  0  0  0  0999 V2000
    7.1115  -14.6891   18.5919 N   0  0  0  0  0  0  0  0  0  0  0  0
    7.9522  -14.4114   19.7428 C   0  0  1  0  0  0  0  0  0  0  0  0
    7.9240  -12.9257   19.9893 C   0  0  0  0  0  0  0  0  0  0  0  0
    8.9429  -12.1270   18.7188 S   0  0  0  0  0  0  0  0  0  0  0  0
    7.4089  -15.1778   20.9032 C   0  0  0  0  0  0  0  0  0  0  0  0
    6.1898  -15.0969   21.2296 O   0  0  0  0  0  0  0  0  0  0  0  0
    7.2866  -22.9550   24.5176 N   0  0  0  0  0  0  0  0  0  0  0  0
    8.5561  -22.3044   24.4043 C   0  0  0  0  0  0  0  0  0  0  0  0
    9.4509  -22.5114   25.2812 N   0  0  0  0  0  0  0  0  0  0  0  0
    8.7513  -21.4488   23.2988 N   0  0  0  0  0  0  0  0  0  0  0  0
    7.6821  -20.6926   22.7334 C   0  0  0  0  0  0  0  0  0  0  0  0
    7.5185  -19.3052   23.3361 C   0  0  0  0  0  0  0  0  0  0  0  0
    7.8713  -18.2578   22.3422 C   0  0  0  0  0  0  0  0  0  0  0  0
    7.7105  -16.8300   22.8091 C   0  0  2  0  0  0  0  0  0  0  0  0
    8.2226  -16.0227   21.6863 N   0  0  0  0  0  0  0  0  0  0  0  0
    8.5872  -16.5400   23.9930 C   0  0  0  0  0  0  0  0  0  0  0  0
    9.8591  -16.5565   23.8221 O   0  0  0  0  0  0  0  0  0  0  0  0
   10.3964  -22.0839   25.1856 O   0  0  0  0  0  0  0  0  0  0  0  0
    6.1647  -10.4879   24.7767 C   0  0  0  0  0  0  0  0  0  0  0  0
    6.7309  -11.5932   25.4062 C   0  0  0  0  0  0  0  0  0  0  0  0
    7.8306  -12.2254   24.8874 C   0  0  0  0  0  0  0  0  0  0  0  0
    8.3917  -13.3198   25.5099 C   0  0  0  0  0  0  0  0  0  0  0  0
    7.8645  -13.8353   26.6995 C   0  0  0  0  0  0  0  0  0  0  0  0
    8.4463  -15.0145   27.3558 C   0  0  2  0  0  0  0  0  0  0  0  0
    9.0866  -15.9111   26.3506 N   0  0  0  0  0  0  0  0  0  0  0  0
    8.1340  -16.2488   25.2774 C   0  0  0  0  0  0  0  0  0  0  0  0
    9.5661  -17.1623   26.9715 O   0  0  0  0  0  0  0  0  0  0  0  0
    9.1177  -18.4294   26.6716 C   0  0  0  0  0  0  0  0  0  0  0  0
    6.7506  -13.1714   27.1973 C   0  0  0  0  0  0  0  0  0  0  0  0
    6.1969  -12.0898   26.5813 O   0  0  0  0  0  0  0  0  0  0  0  0
  2  1  1  6
  2  3  1  0
  4  3  1  0
  5  2  1  0
  6  5  2  0
  8  7  1  0
  9  8  2  0
 10  8  1  0
 11 12  1  0
 11 10  1  0
 12 13  1  0
 14 13  1  6
 14 15  1  0
 15  5  1  0
 16 14  1  0
 16 17  2  0
 18 19  1  0
 19 29  2  0
 20 21  2  0
 20 19  1  0
 21 22  1  0
 22 23  1  0
 22 28  2  0
 24 23  1  6
 24 25  1  0
 25 16  1  0
 26 24  1  0
 27 26  1  0
 29 28  1  0
 30 26  2  0
M  END
$$$$
