CTT.pdb
     RDKit          3D

 21 20  0  0  1  0  0  0  0  0999 V2000
   20.0368  -14.6986  -16.4650 N   0  0  0  0  0  0  0  0  0  0  0  0
   19.5032  -13.4577  -16.9814 C   0  0  1  0  0  0  0  0  0  0  0  0
   17.9889  -13.5124  -17.0734 C   0  0  0  0  0  0  0  0  0  0  0  0
   17.4878  -14.8043  -18.2446 S   0  0  0  0  0  0  0  0  0  0  0  0
   19.8464  -12.3678  -16.0419 C   0  0  0  0  0  0  0  0  0  0  0  0
   19.8049  -12.5613  -14.7885 O   0  0  0  0  0  0  0  0  0  0  0  0
   22.7603  -10.8289  -14.9721 C   0  0  0  0  0  0  0  0  0  0  0  0
   22.0560   -9.6919  -15.6438 C   0  0  1  0  0  0  0  0  0  0  0  0
   22.4611   -9.5450  -16.9834 O   0  0  0  0  0  0  0  0  0  0  0  0
   20.5706   -9.9824  -15.6800 C   0  0  2  0  0  0  0  0  0  0  0  0
   20.2279  -11.0878  -16.5190 N   0  0  0  0  0  0  0  0  0  0  0  0
   19.8970   -8.7420  -16.1956 C   0  0  0  0  0  0  0  0  0  0  0  0
   19.7923   -8.4907  -17.4191 O   0  0  0  0  0  0  0  0  0  0  0  0
   16.3270   -7.7921  -15.5608 C   0  0  0  0  0  0  0  0  0  0  0  0
   17.2280   -6.7005  -15.0852 C   0  0  1  0  0  0  0  0  0  0  0  0
   17.4651   -6.7249  -13.7252 O   0  0  0  0  0  0  0  0  0  0  0  0
   18.5710   -6.6861  -15.7839 C   0  0  2  0  0  0  0  0  0  0  0  0
   19.3423   -7.7887  -15.2847 N   0  0  0  0  0  0  0  0  0  0  0  0
   19.3042   -5.4297  -15.5701 C   0  0  0  0  0  0  0  0  0  0  0  0
   18.9831   -4.3562  -16.1319 O   0  0  0  0  0  0  0  0  0  0  0  0
   20.3927   -5.4266  -14.7157 O   0  0  0  0  0  0  0  0  0  0  0  0
  2  3  1  0
  2  1  1  1
  4  3  1  0
  5 11  1  0
  5  2  1  0
  6  5  2  0
  8  7  1  6
  9  8  1  0
 10  8  1  0
 10 11  1  6
 12 10  1  0
 12 18  1  0
 13 12  2  0
 15 14  1  6
 16 15  1  0
 17 18  1  1
 17 15  1  0
 19 17  1  0
 20 19  2  0
 21 19  1  0
M  END
$$$$
