CTT.pdb
     RDKit          3D

 21 20  0  0  1  0  0  0  0  0999 V2000
   22.0153  -13.3273  -16.8534 N   0  0  0  0  0  0  0  0  0  0  0  0
   22.7246  -12.2125  -16.2658 C   0  0  1  0  0  0  0  0  0  0  0  0
   24.1219  -12.0890  -16.8465 C   0  0  0  0  0  0  0  0  0  0  0  0
   25.2801  -13.1067  -15.8902 S   0  0  0  0  0  0  0  0  0  0  0  0
   22.0011  -10.9650  -16.5949 C   0  0  0  0  0  0  0  0  0  0  0  0
   21.5155  -10.7888  -17.7540 O   0  0  0  0  0  0  0  0  0  0  0  0
   18.9316   -9.7768  -16.2906 C   0  0  0  0  0  0  0  0  0  0  0  0
   19.6591   -8.8128  -15.4065 C   0  0  1  0  0  0  0  0  0  0  0  0
   19.6785   -9.2449  -14.0674 O   0  0  0  0  0  0  0  0  0  0  0  0
   21.1053   -8.7325  -15.8467 C   0  0  2  0  0  0  0  0  0  0  0  0
   21.8345   -9.9422  -15.6265 N   0  0  0  0  0  0  0  0  0  0  0  0
   21.7394   -7.6217  -15.0578 C   0  0  0  0  0  0  0  0  0  0  0  0
   22.3901   -7.8277  -14.0066 O   0  0  0  0  0  0  0  0  0  0  0  0
   24.3241   -5.3356  -16.3264 C   0  0  0  0  0  0  0  0  0  0  0  0
   23.1940   -4.5035  -15.8163 C   0  0  1  0  0  0  0  0  0  0  0  0
   22.3636   -4.0211  -16.8083 O   0  0  0  0  0  0  0  0  0  0  0  0
   22.3283   -5.2251  -14.8054 C   0  0  2  0  0  0  0  0  0  0  0  0
   21.6166   -6.2646  -15.4930 N   0  0  0  0  0  0  0  0  0  0  0  0
   21.3742   -4.3275  -14.1375 C   0  0  0  0  0  0  0  0  0  0  0  0
   20.1489   -4.3275  -14.4011 O   0  0  0  0  0  0  0  0  0  0  0  0
   21.8424   -3.4459  -13.1792 O   0  0  0  0  0  0  0  0  0  0  0  0
  2  3  1  0
  2  1  1  6
  4  3  1  0
  5 11  1  0
  5  2  1  0
  6  5  2  0
  8  7  1  6
  9  8  1  0
 10  8  1  0
 10 11  1  1
 12 10  1  0
 12 18  1  0
 13 12  2  0
 15 14  1  6
 16 15  1  0
 17 18  1  6
 17 15  1  0
 19 17  1  0
 20 19  2  0
 21 19  1  0
M  END
$$$$
