CTT.pdb
     RDKit          3D

 21 20  0  0  1  0  0  0  0  0999 V2000
   17.9999  -11.7175  -14.9907 N   0  0  0  0  0  0  0  0  0  0  0  0
   16.9072  -11.0351  -14.3338 C   0  0  1  0  0  0  0  0  0  0  0  0
   16.1485  -11.9780  -13.4172 C   0  0  0  0  0  0  0  0  0  0  0  0
   15.1321  -13.1125  -14.4028 S   0  0  0  0  0  0  0  0  0  0  0  0
   17.4631   -9.9553  -13.4894 C   0  0  0  0  0  0  0  0  0  0  0  0
   18.6371  -10.0473  -13.0166 O   0  0  0  0  0  0  0  0  0  0  0  0
   18.8761   -7.0452  -14.2063 C   0  0  0  0  0  0  0  0  0  0  0  0
   17.6815   -6.5561  -13.4487 C   0  0  1  0  0  0  0  0  0  0  0  0
   16.5997   -6.2757  -14.3039 O   0  0  0  0  0  0  0  0  0  0  0  0
   17.2091   -7.6475  -12.5119 C   0  0  2  0  0  0  0  0  0  0  0  0
   16.6997   -8.7979  -13.1905 N   0  0  0  0  0  0  0  0  0  0  0  0
   16.1217   -7.0517  -11.6629 C   0  0  0  0  0  0  0  0  0  0  0  0
   14.9109   -7.1058  -11.9823 O   0  0  0  0  0  0  0  0  0  0  0  0
   15.2093   -7.8149   -8.0183 C   0  0  0  0  0  0  0  0  0  0  0  0
   15.6173   -6.3898   -8.1975 C   0  0  1  0  0  0  0  0  0  0  0  0
   16.9342   -6.1401   -7.8664 O   0  0  0  0  0  0  0  0  0  0  0  0
   15.3932   -5.8754   -9.6037 C   0  0  2  0  0  0  0  0  0  0  0  0
   16.4432   -6.3897  -10.4363 N   0  0  0  0  0  0  0  0  0  0  0  0
   15.3797   -4.4067   -9.6713 C   0  0  0  0  0  0  0  0  0  0  0  0
   16.3088   -3.7460  -10.1919 O   0  0  0  0  0  0  0  0  0  0  0  0
   14.3007   -3.7219   -9.1405 O   0  0  0  0  0  0  0  0  0  0  0  0
  2  3  1  0
  2  1  1  1
  4  3  1  0
  5 11  1  0
  5  2  1  0
  6  5  2  0
  8  7  1  6
  9  8  1  0
 10  8  1  0
 10 11  1  6
 12 10  1  0
 12 18  1  0
 13 12  2  0
 15 14  1  6
 16 15  1  0
 17 18  1  6
 17 15  1  0
 19 17  1  0
 20 19  2  0
 21 19  1  0
M  END
$$$$
