CTT.pdb
     RDKit          3D

 21 20  0  0  1  0  0  0  0  0999 V2000
   33.4630  -31.5185  -16.8066 N   0  0  0  0  0  0  0  0  0  0  0  0
   32.3962  -32.4076  -17.2098 C   0  0  1  0  0  0  0  0  0  0  0  0
   32.8908  -33.8390  -17.3155 C   0  0  0  0  0  0  0  0  0  0  0  0
   33.7957  -34.0662  -18.8715 S   0  0  0  0  0  0  0  0  0  0  0  0
   31.3424  -32.3832  -16.1720 C   0  0  0  0  0  0  0  0  0  0  0  0
   31.6087  -31.9973  -14.9928 O   0  0  0  0  0  0  0  0  0  0  0  0
   28.9456  -30.1589  -15.5901 C   0  0  0  0  0  0  0  0  0  0  0  0
   28.1009  -31.3587  -15.8855 C   0  0  1  0  0  0  0  0  0  0  0  0
   27.7462  -31.4255  -17.2457 O   0  0  0  0  0  0  0  0  0  0  0  0
   28.9009  -32.6105  -15.5944 C   0  0  2  0  0  0  0  0  0  0  0  0
   30.0164  -32.7888  -16.4703 N   0  0  0  0  0  0  0  0  0  0  0  0
   27.9610  -33.7730  -15.7470 C   0  0  0  0  0  0  0  0  0  0  0  0
   27.8455  -34.4103  -16.8200 O   0  0  0  0  0  0  0  0  0  0  0  0
   24.9395  -36.9454  -13.4081 C   0  0  0  0  0  0  0  0  0  0  0  0
   25.8405  -35.7547  -13.4016 C   0  0  1  0  0  0  0  0  0  0  0  0
   26.9660  -35.9104  -12.6172 O   0  0  0  0  0  0  0  0  0  0  0  0
   26.2997  -35.3442  -14.7847 C   0  0  2  0  0  0  0  0  0  0  0  0
   27.1510  -34.1970  -14.6468 N   0  0  0  0  0  0  0  0  0  0  0  0
   25.1776  -35.0256  -15.6797 C   0  0  0  0  0  0  0  0  0  0  0  0
   24.4878  -33.9866  -15.5547 O   0  0  0  0  0  0  0  0  0  0  0  0
   24.8664  -35.9043  -16.7024 O   0  0  0  0  0  0  0  0  0  0  0  0
  2  3  1  0
  2  1  1  1
  4  3  1  0
  5 11  1  0
  5  2  1  0
  6  5  2  0
  8  7  1  6
  9  8  1  0
 10  8  1  0
 10 11  1  6
 12 10  1  0
 12 18  1  0
 13 12  2  0
 15 14  1  6
 16 15  1  0
 17 18  1  1
 17 15  1  0
 19 17  1  0
 20 19  2  0
 21 19  1  0
M  END
$$$$
