CTT.pdb
     RDKit          3D

 21 20  0  0  1  0  0  0  0  0999 V2000
   17.1686  -12.7812  -15.4422 N   0  0  0  0  0  0  0  0  0  0  0  0
   17.1848  -11.4705  -16.0529 C   0  0  1  0  0  0  0  0  0  0  0  0
   16.2463  -10.5211  -15.3299 C   0  0  0  0  0  0  0  0  0  0  0  0
   14.5298  -11.0691  -15.5419 S   0  0  0  0  0  0  0  0  0  0  0  0
   18.5493  -10.9113  -15.9369 C   0  0  0  0  0  0  0  0  0  0  0  0
   19.3298  -11.3036  -15.0164 O   0  0  0  0  0  0  0  0  0  0  0  0
   22.2931   -8.7304  -18.2039 C   0  0  0  0  0  0  0  0  0  0  0  0
   20.9525   -9.3930  -18.2661 C   0  0  1  0  0  0  0  0  0  0  0  0
   21.0517  -10.7342  -18.6805 O   0  0  0  0  0  0  0  0  0  0  0  0
   20.3504   -9.4222  -16.8774 C   0  0  2  0  0  0  0  0  0  0  0  0
   19.0139   -9.9286  -16.8479 N   0  0  0  0  0  0  0  0  0  0  0  0
   20.3550   -8.0073  -16.3712 C   0  0  0  0  0  0  0  0  0  0  0  0
   19.5592   -7.1369  -16.7955 O   0  0  0  0  0  0  0  0  0  0  0  0
   22.3040   -4.7703  -13.1461 C   0  0  0  0  0  0  0  0  0  0  0  0
   22.1755   -6.1556  -13.6883 C   0  0  1  0  0  0  0  0  0  0  0  0
   21.6509   -7.0613  -12.7879 O   0  0  0  0  0  0  0  0  0  0  0  0
   21.3421   -6.2295  -14.9501 C   0  0  2  0  0  0  0  0  0  0  0  0
   21.2893   -7.6019  -15.3667 N   0  0  0  0  0  0  0  0  0  0  0  0
   21.8880   -5.4014  -16.0355 C   0  0  0  0  0  0  0  0  0  0  0  0
   22.8886   -5.7435  -16.7083 O   0  0  0  0  0  0  0  0  0  0  0  0
   21.2765   -4.1954  -16.3300 O   0  0  0  0  0  0  0  0  0  0  0  0
  2  3  1  0
  2  1  1  1
  4  3  1  0
  5 11  1  0
  5  2  1  0
  6  5  2  0
  8  7  1  1
  9  8  1  0
 10  8  1  0
 10 11  1  6
 12 10  1  0
 12 18  1  0
 13 12  2  0
 15 14  1  1
 16 15  1  0
 17 18  1  6
 17 15  1  0
 19 17  1  0
 20 19  2  0
 21 19  1  0
M  END
$$$$
