CTT.pdb
     RDKit          3D

 21 20  0  0  1  0  0  0  0  0999 V2000
   17.4729  -12.7031  -17.4004 N   0  0  0  0  0  0  0  0  0  0  0  0
   17.2899  -11.4243  -16.7503 C   0  0  1  0  0  0  0  0  0  0  0  0
   16.8686  -11.6043  -15.3030 C   0  0  0  0  0  0  0  0  0  0  0  0
   15.1682  -12.2324  -15.2285 S   0  0  0  0  0  0  0  0  0  0  0  0
   18.5837  -10.7071  -16.7446 C   0  0  0  0  0  0  0  0  0  0  0  0
   19.6630  -11.3280  -16.5000 O   0  0  0  0  0  0  0  0  0  0  0  0
   20.2459   -9.1930  -19.5237 C   0  0  0  0  0  0  0  0  0  0  0  0
   20.0482   -8.0444  -18.5846 C   0  0  1  0  0  0  0  0  0  0  0  0
   18.8825   -7.3167  -18.8878 O   0  0  0  0  0  0  0  0  0  0  0  0
   19.8603   -8.5798  -17.1811 C   0  0  2  0  0  0  0  0  0  0  0  0
   18.6465   -9.3155  -17.0112 N   0  0  0  0  0  0  0  0  0  0  0  0
   19.8527   -7.3926  -16.2598 C   0  0  0  0  0  0  0  0  0  0  0  0
   18.7989   -6.7942  -15.9399 O   0  0  0  0  0  0  0  0  0  0  0  0
   22.9939   -6.9157  -13.6380 C   0  0  0  0  0  0  0  0  0  0  0  0
   21.6506   -6.2846  -13.4742 C   0  0  1  0  0  0  0  0  0  0  0  0
   21.6364   -5.2225  -12.5921 O   0  0  0  0  0  0  0  0  0  0  0  0
   21.0521   -5.8040  -14.7792 C   0  0  2  0  0  0  0  0  0  0  0  0
   21.0761   -6.8983  -15.7075 N   0  0  0  0  0  0  0  0  0  0  0  0
   21.7785   -4.6572  -15.3440 C   0  0  0  0  0  0  0  0  0  0  0  0
   22.5178   -4.7556  -16.3513 O   0  0  0  0  0  0  0  0  0  0  0  0
   21.6440   -3.4177  -14.7435 O   0  0  0  0  0  0  0  0  0  0  0  0
  2  3  1  0
  2  1  1  1
  4  3  1  0
  5 11  1  0
  5  2  1  0
  6  5  2  0
  8  7  1  6
  9  8  1  0
 10  8  1  0
 10 11  1  6
 12 10  1  0
 12 18  1  0
 13 12  2  0
 15 14  1  6
 16 15  1  0
 17 18  1  6
 17 15  1  0
 19 17  1  0
 20 19  2  0
 21 19  1  0
M  END
$$$$
