CTT.pdb
     RDKit          3D

 21 20  0  0  1  0  0  0  0  0999 V2000
   17.7075  -12.4343  -16.4551 N   0  0  0  0  0  0  0  0  0  0  0  0
   18.4251  -11.3084  -17.0109 C   0  0  1  0  0  0  0  0  0  0  0  0
   17.4661  -10.2303  -17.4825 C   0  0  0  0  0  0  0  0  0  0  0  0
   16.4868  -10.8439  -18.8811 S   0  0  0  0  0  0  0  0  0  0  0  0
   19.2666  -10.7133  -15.9498 C   0  0  0  0  0  0  0  0  0  0  0  0
   18.9235  -10.8006  -14.7312 O   0  0  0  0  0  0  0  0  0  0  0  0
   23.6045   -9.3088  -14.3515 C   0  0  0  0  0  0  0  0  0  0  0  0
   22.7302  -10.0738  -15.2953 C   0  0  1  0  0  0  0  0  0  0  0  0
   22.5586  -11.4082  -14.8829 O   0  0  0  0  0  0  0  0  0  0  0  0
   21.3497   -9.4524  -15.3043 C   0  0  2  0  0  0  0  0  0  0  0  0
   20.4704  -10.0349  -16.2692 N   0  0  0  0  0  0  0  0  0  0  0  0
   21.5310   -7.9937  -15.6166 C   0  0  0  0  0  0  0  0  0  0  0  0
   21.9836   -7.5903  -16.7136 O   0  0  0  0  0  0  0  0  0  0  0  0
   18.9982   -5.4333  -15.9612 C   0  0  0  0  0  0  0  0  0  0  0  0
   19.9270   -4.9841  -14.8818 C   0  0  1  0  0  0  0  0  0  0  0  0
   19.4535   -5.2152  -13.6056 O   0  0  0  0  0  0  0  0  0  0  0  0
   21.3035   -5.6070  -14.9792 C   0  0  2  0  0  0  0  0  0  0  0  0
   21.1846   -6.9987  -14.6491 N   0  0  0  0  0  0  0  0  0  0  0  0
   22.2773   -4.9654  -14.0837 C   0  0  0  0  0  0  0  0  0  0  0  0
   22.6872   -5.5086  -13.0312 O   0  0  0  0  0  0  0  0  0  0  0  0
   22.7637   -3.7120  -14.4112 O   0  0  0  0  0  0  0  0  0  0  0  0
  2  3  1  0
  2  1  1  1
  4  3  1  0
  5 11  1  0
  5  2  1  0
  6  5  2  0
  8  7  1  1
  9  8  1  0
 10  8  1  0
 10 11  1  6
 12 10  1  0
 12 18  1  0
 13 12  2  0
 15 14  1  6
 16 15  1  0
 17 18  1  1
 17 15  1  0
 19 17  1  0
 20 19  2  0
 21 19  1  0
M  END
$$$$
