CTT.pdb
     RDKit          3D

 21 20  0  0  1  0  0  0  0  0999 V2000
   27.4491  -20.6069  -10.5057 N   0  0  0  0  0  0  0  0  0  0  0  0
   26.2194  -20.6932  -11.2618 C   0  0  1  0  0  0  0  0  0  0  0  0
   25.0248  -20.3172  -10.4037 C   0  0  0  0  0  0  0  0  0  0  0  0
   24.8924  -21.4554   -8.9971 S   0  0  0  0  0  0  0  0  0  0  0  0
   26.2808  -19.7235  -12.3771 C   0  0  0  0  0  0  0  0  0  0  0  0
   26.6604  -18.5300  -12.1726 O   0  0  0  0  0  0  0  0  0  0  0  0
   27.2361  -18.5344  -16.8301 C   0  0  0  0  0  0  0  0  0  0  0  0
   27.2959  -19.3933  -15.6058 C   0  0  1  0  0  0  0  0  0  0  0  0
   28.3224  -18.9875  -14.7330 O   0  0  0  0  0  0  0  0  0  0  0  0
   26.0014  -19.2462  -14.8348 C   0  0  2  0  0  0  0  0  0  0  0  0
   25.9183  -20.1042  -13.6945 N   0  0  0  0  0  0  0  0  0  0  0  0
   24.8875  -19.5791  -15.7869 C   0  0  0  0  0  0  0  0  0  0  0  0
   24.7577  -20.7142  -16.3023 O   0  0  0  0  0  0  0  0  0  0  0  0
   21.1421  -19.3322  -15.0953 C   0  0  0  0  0  0  0  0  0  0  0  0
   21.5385  -18.4682  -16.2468 C   0  0  1  0  0  0  0  0  0  0  0  0
   21.7299  -17.1429  -15.9105 O   0  0  0  0  0  0  0  0  0  0  0  0
   22.7900  -18.9472  -16.9514 C   0  0  2  0  0  0  0  0  0  0  0  0
   23.9195  -18.5876  -16.1420 N   0  0  0  0  0  0  0  0  0  0  0  0
   22.9371  -18.3684  -18.2949 C   0  0  0  0  0  0  0  0  0  0  0  0
   22.2269  -18.7235  -19.2648 O   0  0  0  0  0  0  0  0  0  0  0  0
   23.8960  -17.3926  -18.5024 O   0  0  0  0  0  0  0  0  0  0  0  0
  2  3  1  0
  2  1  1  1
  4  3  1  0
  5 11  1  0
  5  2  1  0
  6  5  2  0
  8  7  1  6
  9  8  1  0
 10  8  1  0
 10 11  1  1
 12 10  1  0
 12 18  1  0
 13 12  2  0
 15 14  1  1
 16 15  1  0
 17 18  1  1
 17 15  1  0
 19 17  1  0
 20 19  2  0
 21 19  1  0
M  END
$$$$
