CTT.pdb
     RDKit          3D

 21 20  0  0  1  0  0  0  0  0999 V2000
   17.9057  -13.0122  -17.2511 N   0  0  0  0  0  0  0  0  0  0  0  0
   18.2193  -12.0973  -16.1760 C   0  0  1  0  0  0  0  0  0  0  0  0
   19.3857  -12.6078  -15.3492 C   0  0  0  0  0  0  0  0  0  0  0  0
   18.8925  -14.0983  -14.4400 S   0  0  0  0  0  0  0  0  0  0  0  0
   18.6300  -10.8024  -16.7614 C   0  0  0  0  0  0  0  0  0  0  0  0
   19.2698  -10.7650  -17.8567 O   0  0  0  0  0  0  0  0  0  0  0  0
   16.9966   -8.2789  -18.4632 C   0  0  0  0  0  0  0  0  0  0  0  0
   17.4370   -7.5667  -17.2226 C   0  0  1  0  0  0  0  0  0  0  0  0
   16.4413   -7.5856  -16.2283 O   0  0  0  0  0  0  0  0  0  0  0  0
   18.6335   -8.2864  -16.6376 C   0  0  2  0  0  0  0  0  0  0  0  0
   18.3194   -9.5791  -16.1144 N   0  0  0  0  0  0  0  0  0  0  0  0
   19.1640   -7.4198  -15.5304 C   0  0  0  0  0  0  0  0  0  0  0  0
   18.7751   -7.5286  -14.3439 O   0  0  0  0  0  0  0  0  0  0  0  0
   22.6479   -7.2190  -14.2722 C   0  0  0  0  0  0  0  0  0  0  0  0
   22.2249   -5.8720  -14.7581 C   0  0  1  0  0  0  0  0  0  0  0  0
   22.6586   -5.5776  -16.0354 O   0  0  0  0  0  0  0  0  0  0  0  0
   20.7251   -5.6678  -14.7254 C   0  0  2  0  0  0  0  0  0  0  0  0
   20.1515   -6.4216  -15.8037 N   0  0  0  0  0  0  0  0  0  0  0  0
   20.3459   -4.2528  -14.8514 C   0  0  0  0  0  0  0  0  0  0  0  0
   19.8359   -3.7806  -15.8944 O   0  0  0  0  0  0  0  0  0  0  0  0
   20.5584   -3.4046  -13.7789 O   0  0  0  0  0  0  0  0  0  0  0  0
  2  3  1  0
  2  1  1  6
  4  3  1  0
  5 11  1  0
  5  2  1  0
  6  5  2  0
  8  7  1  6
  9  8  1  0
 10  8  1  0
 10 11  1  1
 12 10  1  0
 12 18  1  0
 13 12  2  0
 15 14  1  6
 16 15  1  0
 17 18  1  6
 17 15  1  0
 19 17  1  0
 20 19  2  0
 21 19  1  0
M  END
$$$$
