RSQ.pdb
     RDKit          3D

 27 26  0  0  1  0  0  0  0  0999 V2000
   26.0758  -27.1918  -17.9212 N   0  0  0  0  0  0  0  0  0  0  0  0
   24.9861  -26.2941  -18.0657 C   0  0  0  0  0  0  0  0  0  0  0  0
   23.8786  -26.4193  -17.4478 N   0  0  0  0  0  0  0  0  0  0  0  0
   25.1943  -25.1974  -18.9720 N   0  0  0  0  0  0  0  0  0  0  0  0
   26.4157  -25.0842  -19.7418 C   0  0  0  0  0  0  0  0  0  0  0  0
   27.4197  -24.3482  -18.9029 C   0  0  0  0  0  0  0  0  0  0  0  0
   26.9090  -23.1527  -18.1890 C   0  0  0  0  0  0  0  0  0  0  0  0
   27.8907  -22.3280  -17.4490 C   0  0  2  0  0  0  0  0  0  0  0  0
   29.1641  -22.9397  -17.2518 N   0  0  0  0  0  0  0  0  0  0  0  0
   27.3143  -21.7995  -16.1813 C   0  0  0  0  0  0  0  0  0  0  0  0
   26.8281  -22.5477  -15.2984 O   0  0  0  0  0  0  0  0  0  0  0  0
   23.0647  -25.8085  -17.4914 O   0  0  0  0  0  0  0  0  0  0  0  0
   27.5492  -17.7116  -15.2329 C   0  0  0  0  0  0  0  0  0  0  0  0
   26.9485  -18.5804  -14.3072 C   0  0  1  0  0  0  0  0  0  0  0  0
   26.3769  -19.7732  -15.0065 N   0  0  0  0  0  0  0  0  0  0  0  0
   27.2937  -20.3962  -15.9206 C   0  0  0  0  0  0  0  0  0  0  0  0
   25.0842  -19.5186  -15.6649 O   0  0  0  0  0  0  0  0  0  0  0  0
   25.0508  -19.4932  -16.9086 N   0  0  0  0  0  0  0  0  0  0  0  0
   22.5645  -22.4655  -18.3207 C   0  0  0  0  0  0  0  0  0  0  0  0
   21.2933  -22.2186  -17.7281 O   0  0  0  0  0  0  0  0  0  0  0  0
   20.2776  -22.5943  -18.3616 C   0  0  0  0  0  0  0  0  0  0  0  0
   21.2448  -21.5450  -16.4237 C   0  0  0  0  0  0  0  0  0  0  0  0
   22.5510  -21.0636  -15.9019 C   0  0  2  0  0  0  0  0  0  0  0  0
   22.5653  -19.6881  -15.3536 N   0  0  0  0  0  0  0  0  0  0  0  0
   23.8823  -19.3030  -14.9426 C   0  0  0  0  0  0  0  0  0  0  0  0
   21.5040  -19.3993  -14.3566 O   0  0  0  0  0  0  0  0  0  0  0  0
   20.1663  -19.2854  -14.6961 O   0  0  0  0  0  0  0  0  0  0  0  0
  2  1  1  0
  3  2  2  0
  4  2  1  0
  5  4  1  0
  6  5  1  0
  7  6  1  0
  8  9  1  1
  8  7  1  0
 10  8  1  0
 11 10  2  0
 12 13  1  0
 14 13  1  1
 14 15  1  0
 15 10  1  0
 16 14  1  0
 16 17  2  0
 19 20  2  0
 19 18  1  0
 21 19  1  0
 23 22  1  6
 22 21  1  0
 23 24  1  0
 24 16  1  0
 25 23  1  0
 26 25  1  0
 27 25  2  0
M  END
$$$$
