RSQ.pdb
     RDKit          3D

 27 26  0  0  1  0  0  0  0  0999 V2000
   27.1766  -27.1467  -16.3185 N   0  0  0  0  0  0  0  0  0  0  0  0
   26.9873  -26.5160  -17.5757 C   0  0  0  0  0  0  0  0  0  0  0  0
   26.7453  -27.1477  -18.6557 N   0  0  0  0  0  0  0  0  0  0  0  0
   27.0835  -25.0813  -17.5773 N   0  0  0  0  0  0  0  0  0  0  0  0
   26.9101  -24.3183  -16.3587 C   0  0  0  0  0  0  0  0  0  0  0  0
   25.4570  -24.3743  -15.9857 C   0  0  0  0  0  0  0  0  0  0  0  0
   25.0671  -23.5805  -14.7951 C   0  0  0  0  0  0  0  0  0  0  0  0
   24.7889  -22.1405  -14.9957 C   0  0  2  0  0  0  0  0  0  0  0  0
   25.9318  -21.2902  -14.9212 N   0  0  0  0  0  0  0  0  0  0  0  0
   23.6773  -21.6723  -14.1218 C   0  0  0  0  0  0  0  0  0  0  0  0
   23.8674  -21.2629  -12.9505 O   0  0  0  0  0  0  0  0  0  0  0  0
   26.6059  -26.7629  -19.5885 O   0  0  0  0  0  0  0  0  0  0  0  0
   21.1822  -18.9175  -14.3625 C   0  0  0  0  0  0  0  0  0  0  0  0
   20.4453  -20.1113  -14.4290 C   0  0  2  0  0  0  0  0  0  0  0  0
   21.2132  -21.2335  -13.8049 N   0  0  0  0  0  0  0  0  0  0  0  0
   22.3304  -21.6730  -14.5943 C   0  0  0  0  0  0  0  0  0  0  0  0
   20.3795  -22.3805  -13.4064 O   0  0  0  0  0  0  0  0  0  0  0  0
   20.2847  -23.3415  -14.1913 N   0  0  0  0  0  0  0  0  0  0  0  0
   18.7364  -23.8240   -7.4581 C   0  0  0  0  0  0  0  0  0  0  0  0
   18.2002  -24.9115   -8.2050 O   0  0  0  0  0  0  0  0  0  0  0  0
   17.6987  -25.8639   -7.5603 C   0  0  0  0  0  0  0  0  0  0  0  0
   18.2649  -24.8566   -9.6714 C   0  0  0  0  0  0  0  0  0  0  0  0
   18.9122  -23.6447  -10.2395 C   0  0  2  0  0  0  0  0  0  0  0  0
   18.8504  -23.5044  -11.7125 N   0  0  0  0  0  0  0  0  0  0  0  0
   19.6844  -22.4338  -12.1708 C   0  0  0  0  0  0  0  0  0  0  0  0
   17.4810  -23.5019  -12.2854 O   0  0  0  0  0  0  0  0  0  0  0  0
   16.9173  -22.3843  -12.8778 O   0  0  0  0  0  0  0  0  0  0  0  0
  2  1  1  0
  3  2  2  0
  4  2  1  0
  5  4  1  0
  6  5  1  0
  7  6  1  0
  8  9  1  1
  8  7  1  0
 10  8  1  0
 11 10  2  0
 12 13  1  0
 14 13  1  1
 14 15  1  0
 15 10  1  0
 16 14  1  0
 16 17  2  0
 19 20  2  0
 19 18  1  0
 21 19  1  0
 23 22  1  6
 22 21  1  0
 23 24  1  0
 24 16  1  0
 25 23  1  0
 26 25  1  0
 27 25  2  0
M  END
$$$$
