RSQ.pdb
     RDKit          3D

 27 26  0  0  1  0  0  0  0  0999 V2000
   27.8900  -14.8575  -16.4689 N   0  0  0  0  0  0  0  0  0  0  0  0
   26.6872  -14.9386  -15.7200 C   0  0  0  0  0  0  0  0  0  0  0  0
   25.7267  -14.1084  -15.8306 N   0  0  0  0  0  0  0  0  0  0  0  0
   26.5964  -16.0384  -14.7983 N   0  0  0  0  0  0  0  0  0  0  0  0
   27.5460  -17.1310  -14.8410 C   0  0  0  0  0  0  0  0  0  0  0  0
   27.2542  -17.9441  -16.0687 C   0  0  0  0  0  0  0  0  0  0  0  0
   26.7191  -19.3060  -15.8264 C   0  0  0  0  0  0  0  0  0  0  0  0
   27.4187  -20.1472  -14.8293 C   0  0  2  0  0  0  0  0  0  0  0  0
   28.4738  -20.9511  -15.3538 N   0  0  0  0  0  0  0  0  0  0  0  0
   26.4573  -20.9384  -14.0117 C   0  0  0  0  0  0  0  0  0  0  0  0
   25.7304  -21.8346  -14.5057 O   0  0  0  0  0  0  0  0  0  0  0  0
   24.8499  -14.0925  -15.3124 O   0  0  0  0  0  0  0  0  0  0  0  0
   25.6305  -19.7503   -9.9825 C   0  0  0  0  0  0  0  0  0  0  0  0
   25.4806  -21.0998  -10.3420 C   0  0  1  0  0  0  0  0  0  0  0  0
   25.2501  -21.2245  -11.8150 N   0  0  0  0  0  0  0  0  0  0  0  0
   26.3257  -20.7004  -12.6105 C   0  0  0  0  0  0  0  0  0  0  0  0
   23.9595  -20.6778  -12.2674 O   0  0  0  0  0  0  0  0  0  0  0  0
   23.9292  -19.5056  -12.6843 N   0  0  0  0  0  0  0  0  0  0  0  0
   17.9888  -21.2622  -16.2046 C   0  0  0  0  0  0  0  0  0  0  0  0
   19.2226  -21.6957  -15.6408 O   0  0  0  0  0  0  0  0  0  0  0  0
   19.8566  -22.5876  -16.2545 C   0  0  0  0  0  0  0  0  0  0  0  0
   19.6768  -21.0808  -14.3866 C   0  0  0  0  0  0  0  0  0  0  0  0
   21.0048  -21.5335  -13.8949 C   0  0  2  0  0  0  0  0  0  0  0  0
   21.4539  -20.9545  -12.6080 N   0  0  0  0  0  0  0  0  0  0  0  0
   22.7563  -21.4293  -12.2475 C   0  0  0  0  0  0  0  0  0  0  0  0
   20.4554  -21.0138  -11.5111 O   0  0  0  0  0  0  0  0  0  0  0  0
   19.3290  -20.2090  -11.4772 O   0  0  0  0  0  0  0  0  0  0  0  0
  2  1  1  0
  3  2  2  0
  4  2  1  0
  5  4  1  0
  6  5  1  0
  7  6  1  0
  8  9  1  6
  8  7  1  0
 10  8  1  0
 11 10  2  0
 12 13  1  0
 14 13  1  1
 14 15  1  0
 15 10  1  0
 16 14  1  0
 16 17  2  0
 19 20  2  0
 19 18  1  0
 21 19  1  0
 23 22  1  6
 22 21  1  0
 23 24  1  0
 24 16  1  0
 25 23  1  0
 26 25  1  0
 27 25  2  0
M  END
$$$$
