RSQ.pdb
     RDKit          3D

 27 26  0  0  1  0  0  0  0  0999 V2000
   18.4648  -23.3924  -13.0468 N   0  0  0  0  0  0  0  0  0  0  0  0
   18.1122  -22.2805  -13.8552 C   0  0  0  0  0  0  0  0  0  0  0  0
   17.1134  -21.5240  -13.6224 N   0  0  0  0  0  0  0  0  0  0  0  0
   18.9621  -22.0359  -14.9889 N   0  0  0  0  0  0  0  0  0  0  0  0
   20.1506  -22.8309  -15.2186 C   0  0  0  0  0  0  0  0  0  0  0  0
   21.1313  -22.5152  -14.1267 C   0  0  0  0  0  0  0  0  0  0  0  0
   22.3087  -21.7098  -14.5324 C   0  0  0  0  0  0  0  0  0  0  0  0
   23.3481  -21.4565  -13.5093 C   0  0  2  0  0  0  0  0  0  0  0  0
   22.9040  -20.7256  -12.3677 N   0  0  0  0  0  0  0  0  0  0  0  0
   24.5774  -20.8708  -14.1131 C   0  0  0  0  0  0  0  0  0  0  0  0
   24.8063  -19.6366  -14.1125 O   0  0  0  0  0  0  0  0  0  0  0  0
   16.7907  -20.7271  -14.1685 O   0  0  0  0  0  0  0  0  0  0  0  0
   27.3378  -23.4408  -15.9612 C   0  0  0  0  0  0  0  0  0  0  0  0
   27.8045  -22.1671  -15.5972 C   0  0  1  0  0  0  0  0  0  0  0  0
   26.6640  -21.2045  -15.4912 N   0  0  0  0  0  0  0  0  0  0  0  0
   25.5572  -21.7084  -14.7260 C   0  0  0  0  0  0  0  0  0  0  0  0
   26.1999  -20.6812  -16.7874 O   0  0  0  0  0  0  0  0  0  0  0  0
   25.0252  -20.9095  -17.1290 N   0  0  0  0  0  0  0  0  0  0  0  0
   22.8173  -17.6137  -17.9869 C   0  0  0  0  0  0  0  0  0  0  0  0
   23.5505  -16.8795  -18.9622 O   0  0  0  0  0  0  0  0  0  0  0  0
   22.9066  -16.0942  -19.6989 C   0  0  0  0  0  0  0  0  0  0  0  0
   25.0028  -17.0820  -19.0492 C   0  0  0  0  0  0  0  0  0  0  0  0
   25.5702  -18.0709  -18.0951 C   0  0  2  0  0  0  0  0  0  0  0  0
   26.5984  -18.9860  -18.6416 N   0  0  0  0  0  0  0  0  0  0  0  0
   27.0330  -19.9313  -17.6571 C   0  0  0  0  0  0  0  0  0  0  0  0
   27.7009  -18.3210  -19.3804 O   0  0  0  0  0  0  0  0  0  0  0  0
   27.6294  -18.0286  -20.7321 O   0  0  0  0  0  0  0  0  0  0  0  0
  2  1  1  0
  3  2  2  0
  4  2  1  0
  5  4  1  0
  6  5  1  0
  7  6  1  0
  8  9  1  1
  8  7  1  0
 10  8  1  0
 11 10  2  0
 12 13  1  0
 14 13  1  1
 14 15  1  0
 15 10  1  0
 16 14  1  0
 16 17  2  0
 19 20  2  0
 19 18  1  0
 21 19  1  0
 23 22  1  6
 22 21  1  0
 23 24  1  0
 24 16  1  0
 25 23  1  0
 26 25  1  0
 27 25  2  0
M  END
$$$$
