RSQ.pdb
     RDKit          3D

 27 26  0  0  1  0  0  0  0  0999 V2000
   30.7817  -20.0930  -18.9147 N   0  0  0  0  0  0  0  0  0  0  0  0
   30.5857  -18.6874  -18.9288 C   0  0  0  0  0  0  0  0  0  0  0  0
   31.4157  -17.8616  -19.4320 N   0  0  0  0  0  0  0  0  0  0  0  0
   29.3656  -18.2192  -18.3293 N   0  0  0  0  0  0  0  0  0  0  0  0
   28.4776  -19.1269  -17.6328 C   0  0  0  0  0  0  0  0  0  0  0  0
   27.8310  -18.3656  -16.5121 C   0  0  0  0  0  0  0  0  0  0  0  0
   26.8638  -19.1308  -15.6883 C   0  0  0  0  0  0  0  0  0  0  0  0
   27.1848  -20.5462  -15.3968 C   0  0  2  0  0  0  0  0  0  0  0  0
   27.2747  -21.3916  -16.5421 N   0  0  0  0  0  0  0  0  0  0  0  0
   26.2851  -21.1056  -14.3497 C   0  0  0  0  0  0  0  0  0  0  0  0
   25.3075  -21.8432  -14.6250 O   0  0  0  0  0  0  0  0  0  0  0  0
   31.3580  -16.8447  -19.4445 O   0  0  0  0  0  0  0  0  0  0  0  0
   27.3804  -21.3107  -10.4310 C   0  0  0  0  0  0  0  0  0  0  0  0
   26.0634  -20.8391  -10.5566 C   0  0  2  0  0  0  0  0  0  0  0  0
   25.5472  -21.0955  -11.9373 N   0  0  0  0  0  0  0  0  0  0  0  0
   26.5068  -20.8167  -12.9696 C   0  0  0  0  0  0  0  0  0  0  0  0
   24.2658  -20.4310  -12.2303 O   0  0  0  0  0  0  0  0  0  0  0  0
   24.2670  -19.4707  -13.0218 N   0  0  0  0  0  0  0  0  0  0  0  0
   21.5026  -21.5886  -16.3464 C   0  0  0  0  0  0  0  0  0  0  0  0
   20.3283  -21.0643  -15.7348 O   0  0  0  0  0  0  0  0  0  0  0  0
   19.3030  -20.9567  -16.4499 C   0  0  0  0  0  0  0  0  0  0  0  0
   20.3844  -20.6829  -14.3174 C   0  0  0  0  0  0  0  0  0  0  0  0
   21.6762  -20.9511  -13.6322 C   0  0  2  0  0  0  0  0  0  0  0  0
   21.7292  -20.6173  -12.1903 N   0  0  0  0  0  0  0  0  0  0  0  0
   23.0372  -20.8395  -11.6503 C   0  0  0  0  0  0  0  0  0  0  0  0
   20.6258  -21.1834  -11.3745 O   0  0  0  0  0  0  0  0  0  0  0  0
   19.4120  -20.5391  -11.2033 O   0  0  0  0  0  0  0  0  0  0  0  0
  2  1  1  0
  3  2  2  0
  4  2  1  0
  5  4  1  0
  6  5  1  0
  7  6  1  0
  8  9  1  6
  8  7  1  0
 10  8  1  0
 11 10  2  0
 12 13  1  0
 14 13  1  1
 14 15  1  0
 15 10  1  0
 16 14  1  0
 16 17  2  0
 19 20  2  0
 19 18  1  0
 21 19  1  0
 23 22  1  6
 22 21  1  0
 23 24  1  0
 24 16  1  0
 25 23  1  0
 26 25  1  0
 27 25  2  0
M  END
$$$$
