RSQ.pdb
     RDKit          3D

 27 26  0  0  1  0  0  0  0  0999 V2000
   18.2061  -24.6564  -12.6958 N   0  0  0  0  0  0  0  0  0  0  0  0
   17.6155  -23.3983  -12.4085 C   0  0  0  0  0  0  0  0  0  0  0  0
   16.4699  -23.2608  -11.8673 N   0  0  0  0  0  0  0  0  0  0  0  0
   18.3945  -22.2443  -12.7672 N   0  0  0  0  0  0  0  0  0  0  0  0
   19.7072  -22.3831  -13.3628 C   0  0  0  0  0  0  0  0  0  0  0  0
   20.7249  -22.0361  -12.3152 C   0  0  0  0  0  0  0  0  0  0  0  0
   22.1266  -21.9330  -12.7888 C   0  0  0  0  0  0  0  0  0  0  0  0
   23.1401  -21.4525  -11.8228 C   0  0  2  0  0  0  0  0  0  0  0  0
   22.6102  -20.8743  -10.6314 N   0  0  0  0  0  0  0  0  0  0  0  0
   24.1465  -20.5726  -12.4798 C   0  0  0  0  0  0  0  0  0  0  0  0
   24.1056  -19.3209  -12.3941 O   0  0  0  0  0  0  0  0  0  0  0  0
   15.9754  -22.3949  -11.6595 O   0  0  0  0  0  0  0  0  0  0  0  0
   27.6318  -21.9060  -13.5696 C   0  0  0  0  0  0  0  0  0  0  0  0
   27.3187  -20.8836  -14.4803 C   0  0  2  0  0  0  0  0  0  0  0  0
   25.9135  -20.4133  -14.2734 N   0  0  0  0  0  0  0  0  0  0  0  0
   25.2134  -21.1324  -13.2452 C   0  0  0  0  0  0  0  0  0  0  0  0
   25.1108  -20.3645  -15.5073 O   0  0  0  0  0  0  0  0  0  0  0  0
   24.0693  -21.0436  -15.5605 N   0  0  0  0  0  0  0  0  0  0  0  0
   21.3169  -17.4955  -15.2267 C   0  0  0  0  0  0  0  0  0  0  0  0
   21.5676  -16.7532  -16.4159 O   0  0  0  0  0  0  0  0  0  0  0  0
   20.6425  -16.0239  -16.8477 C   0  0  0  0  0  0  0  0  0  0  0  0
   22.8803  -16.8831  -17.0620 C   0  0  0  0  0  0  0  0  0  0  0  0
   23.8157  -17.8470  -16.4247 C   0  0  2  0  0  0  0  0  0  0  0  0
   24.6218  -18.6782  -17.3480 N   0  0  0  0  0  0  0  0  0  0  0  0
   25.4746  -19.5786  -16.6310 C   0  0  0  0  0  0  0  0  0  0  0  0
   25.2989  -17.9299  -18.4366 O   0  0  0  0  0  0  0  0  0  0  0  0
   24.8277  -17.9088  -19.7386 O   0  0  0  0  0  0  0  0  0  0  0  0
  2  1  1  0
  3  2  2  0
  4  2  1  0
  5  4  1  0
  6  5  1  0
  7  6  1  0
  8  9  1  1
  8  7  1  0
 10  8  1  0
 11 10  2  0
 12 13  1  0
 14 13  1  1
 14 15  1  0
 15 10  1  0
 16 14  1  0
 16 17  2  0
 19 20  2  0
 19 18  1  0
 21 19  1  0
 23 22  1  6
 22 21  1  0
 23 24  1  0
 24 16  1  0
 25 23  1  0
 26 25  1  0
 27 25  2  0
M  END
$$$$
