PQI.pdb
     RDKit          3D

 25 25  0  0  1  0  0  0  0  0999 V2000
   19.8972  -15.9206  -16.8663 N   0  0  0  0  0  0  0  0  0  0  0  0
   19.7406  -17.3328  -17.1593 C   0  0  0  0  0  0  0  0  0  0  0  0
   19.9362  -17.5036  -18.6426 C   0  0  0  0  0  0  0  0  0  0  0  0
   20.2657  -16.0850  -19.1260 C   0  0  0  0  0  0  0  0  0  0  0  0
   20.8534  -15.4966  -17.8548 C   0  0  1  0  0  0  0  0  0  0  0  0
   20.9604  -14.0172  -17.9326 C   0  0  0  0  0  0  0  0  0  0  0  0
   21.8514  -13.5406  -18.6828 O   0  0  0  0  0  0  0  0  0  0  0  0
   17.3659  -10.2634  -15.1514 N   0  0  0  0  0  0  0  0  0  0  0  0
   17.9034   -9.2729  -15.9973 C   0  0  0  0  0  0  0  0  0  0  0  0
   17.7212   -8.0647  -15.7639 O   0  0  0  0  0  0  0  0  0  0  0  0
   18.7105   -9.6573  -17.2029 C   0  0  0  0  0  0  0  0  0  0  0  0
   18.8679  -11.1333  -17.2785 C   0  0  0  0  0  0  0  0  0  0  0  0
   20.2737  -11.6546  -17.3685 C   0  0  2  0  0  0  0  0  0  0  0  0
   20.1336  -13.1351  -17.2251 N   0  0  0  0  0  0  0  0  0  0  0  0
   21.1987  -11.1584  -16.3405 C   0  0  0  0  0  0  0  0  0  0  0  0
   21.2661  -11.7358  -15.1946 O   0  0  0  0  0  0  0  0  0  0  0  0
   26.6534  -10.7201  -14.9111 C   0  0  0  0  0  0  0  0  0  0  0  0
   25.3153  -10.0553  -14.7235 C   0  0  0  0  0  0  0  0  0  0  0  0
   24.3494  -10.3776  -15.8408 C   0  0  2  0  0  0  0  0  0  0  0  0
   24.7752   -9.8432  -17.1687 C   0  0  0  0  0  0  0  0  0  0  0  0
   23.0256   -9.6937  -15.4604 C   0  0  2  0  0  0  0  0  0  0  0  0
   22.0702  -10.0552  -16.4976 N   0  0  0  0  0  0  0  0  0  0  0  0
   23.1920   -8.2322  -15.4221 C   0  0  0  0  0  0  0  0  0  0  0  0
   23.8233   -7.6724  -14.4761 O   0  0  0  0  0  0  0  0  0  0  0  0
   22.6561   -7.4517  -16.4273 O   0  0  0  0  0  0  0  0  0  0  0  0
  1  2  1  0
  1  5  1  0
  2  3  1  0
  3  4  1  0
  5  4  1  0
  5  6  1  6
  6 14  1  0
  7  6  2  0
  9 11  1  0
  9  8  1  0
 10  9  2  0
 13 12  1  1
 12 11  1  0
 14 13  1  0
 15 16  2  0
 15 13  1  0
 18 17  1  0
 18 19  1  0
 19 21  1  0
 19 20  1  6
 21 22  1  6
 21 23  1  0
 22 15  1  0
 23 25  1  0
 24 23  2  0
M  END
$$$$
