PQI.pdb
     RDKit          3D

 25 25  0  0  1  0  0  0  0  0999 V2000
   27.5152  -22.0912  -17.6312 N   0  0  0  0  0  0  0  0  0  0  0  0
   28.5357  -22.3244  -18.6356 C   0  0  0  0  0  0  0  0  0  0  0  0
   29.5640  -21.2344  -18.4863 C   0  0  0  0  0  0  0  0  0  0  0  0
   29.0536  -20.4225  -17.2884 C   0  0  0  0  0  0  0  0  0  0  0  0
   28.2607  -21.4914  -16.5562 C   0  0  1  0  0  0  0  0  0  0  0  0
   27.3744  -20.9041  -15.5191 C   0  0  0  0  0  0  0  0  0  0  0  0
   27.9255  -20.3885  -14.5120 O   0  0  0  0  0  0  0  0  0  0  0  0
   21.6191  -19.2980  -16.8340 N   0  0  0  0  0  0  0  0  0  0  0  0
   21.6233  -18.8638  -15.4936 C   0  0  0  0  0  0  0  0  0  0  0  0
   20.6265  -18.3089  -14.9977 O   0  0  0  0  0  0  0  0  0  0  0  0
   22.8365  -19.0629  -14.6325 C   0  0  0  0  0  0  0  0  0  0  0  0
   23.9140  -19.7451  -15.3960 C   0  0  0  0  0  0  0  0  0  0  0  0
   25.1467  -20.1226  -14.6254 C   0  0  2  0  0  0  0  0  0  0  0  0
   25.9759  -20.8933  -15.6004 N   0  0  0  0  0  0  0  0  0  0  0  0
   24.9178  -20.9486  -13.4320 C   0  0  0  0  0  0  0  0  0  0  0  0
   24.4500  -22.1398  -13.5470 O   0  0  0  0  0  0  0  0  0  0  0  0
   26.4858  -19.3264   -8.2260 C   0  0  0  0  0  0  0  0  0  0  0  0
   25.5978  -19.7263   -9.3745 C   0  0  0  0  0  0  0  0  0  0  0  0
   25.9170  -21.1088   -9.8963 C   0  0  2  0  0  0  0  0  0  0  0  0
   27.2624  -21.2075  -10.5369 C   0  0  0  0  0  0  0  0  0  0  0  0
   24.8598  -21.4044  -10.9731 C   0  0  2  0  0  0  0  0  0  0  0  0
   25.1799  -20.5433  -12.1023 N   0  0  0  0  0  0  0  0  0  0  0  0
   23.5119  -21.0916  -10.4728 C   0  0  0  0  0  0  0  0  0  0  0  0
   22.9743  -21.7937   -9.5645 O   0  0  0  0  0  0  0  0  0  0  0  0
   22.8155  -20.0194  -10.9947 O   0  0  0  0  0  0  0  0  0  0  0  0
  1  2  1  0
  1  5  1  0
  2  3  1  0
  3  4  1  0
  5  4  1  0
  5  6  1  1
  6 14  1  0
  7  6  2  0
  9 11  1  0
  9  8  1  0
 10  9  2  0
 13 12  1  6
 12 11  1  0
 14 13  1  0
 15 16  2  0
 15 13  1  0
 18 17  1  0
 18 19  1  0
 19 21  1  0
 19 20  1  6
 21 22  1  6
 21 23  1  0
 22 15  1  0
 23 25  1  0
 24 23  2  0
M  END
$$$$
