PQI.pdb
     RDKit          3D

 25 25  0  0  1  0  0  0  0  0999 V2000
   27.8563  -21.3478  -14.9998 N   0  0  0  0  0  0  0  0  0  0  0  0
   28.4411  -21.3362  -16.3274 C   0  0  0  0  0  0  0  0  0  0  0  0
   28.5113  -19.8985  -16.7700 C   0  0  0  0  0  0  0  0  0  0  0  0
   27.9713  -19.1247  -15.5599 C   0  0  0  0  0  0  0  0  0  0  0  0
   28.3079  -20.0992  -14.4444 C   0  0  1  0  0  0  0  0  0  0  0  0
   27.5997  -19.7577  -13.1843 C   0  0  0  0  0  0  0  0  0  0  0  0
   27.8620  -18.6457  -12.6567 O   0  0  0  0  0  0  0  0  0  0  0  0
   21.9334  -21.0345  -13.2800 N   0  0  0  0  0  0  0  0  0  0  0  0
   21.8913  -20.3718  -12.0372 C   0  0  0  0  0  0  0  0  0  0  0  0
   20.8062  -20.1072  -11.4897 O   0  0  0  0  0  0  0  0  0  0  0  0
   23.1612  -19.9696  -11.3455 C   0  0  0  0  0  0  0  0  0  0  0  0
   24.3449  -20.3678  -12.1512 C   0  0  0  0  0  0  0  0  0  0  0  0
   25.6920  -20.0647  -11.5600 C   0  0  2  0  0  0  0  0  0  0  0  0
   26.6672  -20.5959  -12.5594 N   0  0  0  0  0  0  0  0  0  0  0  0
   25.9614  -20.6797  -10.2531 C   0  0  0  0  0  0  0  0  0  0  0  0
   26.1556  -21.9464  -10.1594 O   0  0  0  0  0  0  0  0  0  0  0  0
   28.8692  -18.2867   -6.5115 C   0  0  0  0  0  0  0  0  0  0  0  0
   28.1685  -19.3467   -7.3197 C   0  0  0  0  0  0  0  0  0  0  0  0
   26.7955  -19.6722   -6.7772 C   0  0  2  0  0  0  0  0  0  0  0  0
   26.8244  -20.3088   -5.4266 C   0  0  0  0  0  0  0  0  0  0  0  0
   26.1851  -20.6836   -7.7617 C   0  0  2  0  0  0  0  0  0  0  0  0
   26.0371  -19.9787   -9.0268 N   0  0  0  0  0  0  0  0  0  0  0  0
   24.8689  -21.1374   -7.2858 C   0  0  0  0  0  0  0  0  0  0  0  0
   23.8081  -20.5339   -7.6286 O   0  0  0  0  0  0  0  0  0  0  0  0
   24.7787  -22.2356   -6.4536 O   0  0  0  0  0  0  0  0  0  0  0  0
  1  2  1  0
  1  5  1  0
  2  3  1  0
  3  4  1  0
  5  4  1  0
  5  6  1  1
  6 14  1  0
  7  6  2  0
  9 11  1  0
  9  8  1  0
 10  9  2  0
 13 12  1  6
 12 11  1  0
 14 13  1  0
 15 16  2  0
 15 13  1  0
 18 17  1  0
 18 19  1  0
 19 21  1  0
 19 20  1  1
 21 22  1  6
 21 23  1  0
 22 15  1  0
 23 25  1  0
 24 23  2  0
M  END
$$$$
