PQI.pdb
     RDKit          3D

 25 25  0  0  1  0  0  0  0  0999 V2000
   18.5847  -10.6058  -14.5603 N   0  0  0  0  0  0  0  0  0  0  0  0
   19.2539  -11.1022  -15.7479 C   0  0  0  0  0  0  0  0  0  0  0  0
   18.5681  -10.4824  -16.9367 C   0  0  0  0  0  0  0  0  0  0  0  0
   17.5107   -9.5683  -16.3035 C   0  0  0  0  0  0  0  0  0  0  0  0
   18.1645   -9.2890  -14.9611 C   0  0  1  0  0  0  0  0  0  0  0  0
   17.2064   -8.6891  -13.9977 C   0  0  0  0  0  0  0  0  0  0  0  0
   16.7570   -7.5446  -14.2658 O   0  0  0  0  0  0  0  0  0  0  0  0
   13.3568  -12.0508  -10.8256 N   0  0  0  0  0  0  0  0  0  0  0  0
   13.0896  -10.8481  -10.1417 C   0  0  0  0  0  0  0  0  0  0  0  0
   12.1853  -10.7837   -9.2901 O   0  0  0  0  0  0  0  0  0  0  0  0
   13.8949   -9.6142  -10.4284 C   0  0  0  0  0  0  0  0  0  0  0  0
   14.9620   -9.9046  -11.4214 C   0  0  0  0  0  0  0  0  0  0  0  0
   15.7172   -8.7231  -11.9597 C   0  0  2  0  0  0  0  0  0  0  0  0
   16.7814   -9.3205  -12.8216 N   0  0  0  0  0  0  0  0  0  0  0  0
   16.3457   -7.8610  -10.9495 C   0  0  0  0  0  0  0  0  0  0  0  0
   17.4400   -8.2201  -10.3799 O   0  0  0  0  0  0  0  0  0  0  0  0
   17.2982   -2.0375   -9.5439 C   0  0  0  0  0  0  0  0  0  0  0  0
   17.2383   -3.4827   -9.1251 C   0  0  0  0  0  0  0  0  0  0  0  0
   16.4829   -4.3394  -10.1154 C   0  0  2  0  0  0  0  0  0  0  0  0
   15.0356   -3.9880  -10.2244 C   0  0  0  0  0  0  0  0  0  0  0  0
   16.5793   -5.7789   -9.5830 C   0  0  2  0  0  0  0  0  0  0  0  0
   15.8423   -6.6092  -10.5247 N   0  0  0  0  0  0  0  0  0  0  0  0
   15.9699   -5.8771   -8.2473 C   0  0  0  0  0  0  0  0  0  0  0  0
   14.7471   -6.1816   -8.1093 O   0  0  0  0  0  0  0  0  0  0  0  0
   16.7340   -5.6361   -7.1226 O   0  0  0  0  0  0  0  0  0  0  0  0
  1  2  1  0
  1  5  1  0
  2  3  1  0
  3  4  1  0
  5  4  1  0
  5  6  1  1
  6 14  1  0
  7  6  2  0
  9 11  1  0
  9  8  1  0
 10  9  2  0
 13 12  1  1
 12 11  1  0
 14 13  1  0
 15 16  2  0
 15 13  1  0
 18 17  1  0
 18 19  1  0
 19 21  1  0
 19 20  1  1
 21 22  1  6
 21 23  1  0
 22 15  1  0
 23 25  1  0
 24 23  2  0
M  END
$$$$
