PQI.pdb
     RDKit          3D

 25 25  0  0  1  0  0  0  0  0999 V2000
   27.7832  -20.9743  -15.5754 N   0  0  0  0  0  0  0  0  0  0  0  0
   28.4444  -20.7795  -16.8519 C   0  0  0  0  0  0  0  0  0  0  0  0
   28.7875  -19.3169  -16.9564 C   0  0  0  0  0  0  0  0  0  0  0  0
   28.3120  -18.7410  -15.6160 C   0  0  0  0  0  0  0  0  0  0  0  0
   28.4055  -19.9798  -14.7418 C   0  0  1  0  0  0  0  0  0  0  0  0
   27.6876  -19.7988  -13.4542 C   0  0  0  0  0  0  0  0  0  0  0  0
   28.0997  -18.8923  -12.6848 O   0  0  0  0  0  0  0  0  0  0  0  0
   21.9117  -20.3723  -14.1304 N   0  0  0  0  0  0  0  0  0  0  0  0
   21.8281  -19.9712  -12.7822 C   0  0  0  0  0  0  0  0  0  0  0  0
   20.7332  -19.6826  -12.2673 O   0  0  0  0  0  0  0  0  0  0  0  0
   23.0646  -19.8838  -11.9358 C   0  0  0  0  0  0  0  0  0  0  0  0
   24.2632  -20.2863  -12.7170 C   0  0  0  0  0  0  0  0  0  0  0  0
   25.5969  -20.0604  -12.0640 C   0  0  2  0  0  0  0  0  0  0  0  0
   26.5903  -20.5730  -13.0552 N   0  0  0  0  0  0  0  0  0  0  0  0
   25.7980  -20.7503  -10.7825 C   0  0  0  0  0  0  0  0  0  0  0  0
   25.9453  -22.0262  -10.7483 O   0  0  0  0  0  0  0  0  0  0  0  0
   28.5084  -18.5677   -6.7631 C   0  0  0  0  0  0  0  0  0  0  0  0
   27.8607  -19.5926   -7.6564 C   0  0  0  0  0  0  0  0  0  0  0  0
   26.4596  -19.9436   -7.2102 C   0  0  2  0  0  0  0  0  0  0  0  0
   26.4138  -20.6625   -5.9021 C   0  0  0  0  0  0  0  0  0  0  0  0
   25.9016  -20.8890   -8.2870 C   0  0  2  0  0  0  0  0  0  0  0  0
   25.8535  -20.1157   -9.5194 N   0  0  0  0  0  0  0  0  0  0  0  0
   24.5480  -21.3398   -7.9270 C   0  0  0  0  0  0  0  0  0  0  0  0
   23.5221  -20.7477   -8.3784 O   0  0  0  0  0  0  0  0  0  0  0  0
   24.3840  -22.4228   -7.0862 O   0  0  0  0  0  0  0  0  0  0  0  0
  1  2  1  0
  1  5  1  0
  2  3  1  0
  3  4  1  0
  5  4  1  0
  5  6  1  1
  6 14  1  0
  7  6  2  0
  9 11  1  0
  9  8  1  0
 10  9  2  0
 13 12  1  6
 12 11  1  0
 14 13  1  0
 15 16  2  0
 15 13  1  0
 18 17  1  0
 18 19  1  0
 19 21  1  0
 19 20  1  1
 21 22  1  6
 21 23  1  0
 22 15  1  0
 23 25  1  0
 24 23  2  0
M  END
$$$$
