PQI.pdb
     RDKit          3D

 25 25  0  0  1  0  0  0  0  0999 V2000
   27.8054  -21.1768  -14.3915 N   0  0  0  0  0  0  0  0  0  0  0  0
   28.4215  -21.0500  -15.6987 C   0  0  0  0  0  0  0  0  0  0  0  0
   28.2834  -19.6102  -16.1178 C   0  0  0  0  0  0  0  0  0  0  0  0
   27.5942  -18.9519  -14.9151 C   0  0  0  0  0  0  0  0  0  0  0  0
   28.0426  -19.8849  -13.8034 C   0  0  1  0  0  0  0  0  0  0  0  0
   27.2522  -19.6804  -12.5626 C   0  0  0  0  0  0  0  0  0  0  0  0
   27.2797  -18.5352  -12.0416 O   0  0  0  0  0  0  0  0  0  0  0  0
   21.7492  -20.2520  -10.4238 N   0  0  0  0  0  0  0  0  0  0  0  0
   22.1714  -19.9457  -11.7328 C   0  0  0  0  0  0  0  0  0  0  0  0
   21.4416  -19.2998  -12.5057 O   0  0  0  0  0  0  0  0  0  0  0  0
   23.5169  -20.3949  -12.2235 C   0  0  0  0  0  0  0  0  0  0  0  0
   24.2938  -21.0205  -11.1216 C   0  0  0  0  0  0  0  0  0  0  0  0
   25.6082  -20.3793  -10.7791 C   0  0  2  0  0  0  0  0  0  0  0  0
   26.4875  -20.6809  -11.9487 N   0  0  0  0  0  0  0  0  0  0  0  0
   26.2523  -20.8735   -9.5545 C   0  0  0  0  0  0  0  0  0  0  0  0
   26.8202  -22.0261   -9.5395 O   0  0  0  0  0  0  0  0  0  0  0  0
   29.2690  -19.3131   -4.5170 C   0  0  0  0  0  0  0  0  0  0  0  0
   28.4118  -20.2852   -5.2840 C   0  0  0  0  0  0  0  0  0  0  0  0
   27.7719  -19.6550   -6.5000 C   0  0  2  0  0  0  0  0  0  0  0  0
   26.8648  -18.5149   -6.1721 C   0  0  0  0  0  0  0  0  0  0  0  0
   26.9226  -20.7616   -7.1471 C   0  0  2  0  0  0  0  0  0  0  0  0
   26.3170  -20.1678   -8.3303 N   0  0  0  0  0  0  0  0  0  0  0  0
   25.8717  -21.2136   -6.2217 C   0  0  0  0  0  0  0  0  0  0  0  0
   24.6586  -20.8962   -6.4074 O   0  0  0  0  0  0  0  0  0  0  0  0
   26.2031  -21.9954   -5.1327 O   0  0  0  0  0  0  0  0  0  0  0  0
  1  2  1  0
  1  5  1  0
  2  3  1  0
  3  4  1  0
  5  4  1  0
  5  6  1  1
  6 14  1  0
  7  6  2  0
  9 11  1  0
  9  8  1  0
 10  9  2  0
 13 12  1  6
 12 11  1  0
 14 13  1  0
 15 16  2  0
 15 13  1  0
 18 17  1  0
 18 19  1  0
 19 21  1  0
 19 20  1  1
 21 22  1  6
 21 23  1  0
 22 15  1  0
 23 25  1  0
 24 23  2  0
M  END
$$$$
