PQI.pdb
     RDKit          3D

 25 25  0  0  1  0  0  0  0  0999 V2000
   14.6403  -19.1239    1.6353 N   0  0  0  0  0  0  0  0  0  0  0  0
   13.6729  -20.1714    1.3677 C   0  0  0  0  0  0  0  0  0  0  0  0
   13.9693  -21.3033    2.3156 C   0  0  0  0  0  0  0  0  0  0  0  0
   15.1366  -20.7696    3.1565 C   0  0  0  0  0  0  0  0  0  0  0  0
   14.8884  -19.2752    3.0448 C   0  0  1  0  0  0  0  0  0  0  0  0
   16.0649  -18.4878    3.4943 C   0  0  0  0  0  0  0  0  0  0  0  0
   16.6275  -17.7515    2.6428 O   0  0  0  0  0  0  0  0  0  0  0  0
   15.9188  -13.7584    4.7179 N   0  0  0  0  0  0  0  0  0  0  0  0
   17.2727  -13.7736    5.1080 C   0  0  0  0  0  0  0  0  0  0  0  0
   17.9062  -12.7143    5.2618 O   0  0  0  0  0  0  0  0  0  0  0  0
   17.9815  -15.0750    5.3470 C   0  0  0  0  0  0  0  0  0  0  0  0
   17.0740  -16.2218    5.0816 C   0  0  0  0  0  0  0  0  0  0  0  0
   17.6661  -17.5942    5.2292 C   0  0  2  0  0  0  0  0  0  0  0  0
   16.5757  -18.5203    4.7984 N   0  0  0  0  0  0  0  0  0  0  0  0
   18.0935  -17.9554    6.5877 C   0  0  0  0  0  0  0  0  0  0  0  0
   17.2215  -18.1834    7.5034 O   0  0  0  0  0  0  0  0  0  0  0  0
   20.5910  -22.8445    6.9771 C   0  0  0  0  0  0  0  0  0  0  0  0
   20.6295  -21.5201    7.6930 C   0  0  0  0  0  0  0  0  0  0  0  0
   20.0540  -20.3974    6.8602 C   0  0  2  0  0  0  0  0  0  0  0  0
   20.9571  -19.9501    5.7582 C   0  0  0  0  0  0  0  0  0  0  0  0
   19.8661  -19.2144    7.8247 C   0  0  2  0  0  0  0  0  0  0  0  0
   19.4380  -18.0889    7.0066 N   0  0  0  0  0  0  0  0  0  0  0  0
   21.1342  -18.8898    8.4965 C   0  0  0  0  0  0  0  0  0  0  0  0
   21.5472  -19.5781    9.4777 O   0  0  0  0  0  0  0  0  0  0  0  0
   21.8918  -17.8217    8.0582 O   0  0  0  0  0  0  0  0  0  0  0  0
  1  2  1  0
  1  5  1  0
  2  3  1  0
  3  4  1  0
  5  4  1  0
  5  6  1  6
  6 14  1  0
  7  6  2  0
  9 11  1  0
  9  8  1  0
 10  9  2  0
 13 12  1  1
 12 11  1  0
 14 13  1  0
 15 16  2  0
 15 13  1  0
 18 17  1  0
 18 19  1  0
 19 21  1  0
 19 20  1  6
 21 22  1  6
 21 23  1  0
 22 15  1  0
 23 25  1  0
 24 23  2  0
M  END
$$$$
