PQI.pdb
     RDKit          3D

 25 25  0  0  1  0  0  0  0  0999 V2000
   28.8817  -20.4652  -10.7907 N   0  0  0  0  0  0  0  0  0  0  0  0
   30.2852  -20.6465  -10.4712 C   0  0  0  0  0  0  0  0  0  0  0  0
   30.9129  -21.3812  -11.6261 C   0  0  0  0  0  0  0  0  0  0  0  0
   29.7563  -21.5371  -12.6224 C   0  0  0  0  0  0  0  0  0  0  0  0
   28.8963  -20.3496  -12.2251 C   0  0  1  0  0  0  0  0  0  0  0  0
   27.5332  -20.4391  -12.8084 C   0  0  0  0  0  0  0  0  0  0  0  0
   27.4397  -20.4336  -14.0633 O   0  0  0  0  0  0  0  0  0  0  0  0
   22.4103  -21.1931   -9.3873 N   0  0  0  0  0  0  0  0  0  0  0  0
   21.8169  -21.2822  -10.6623 C   0  0  0  0  0  0  0  0  0  0  0  0
   20.5977  -21.4951  -10.7870 O   0  0  0  0  0  0  0  0  0  0  0  0
   22.6480  -21.1213  -11.9018 C   0  0  0  0  0  0  0  0  0  0  0  0
   24.0793  -20.9283  -11.5509 C   0  0  0  0  0  0  0  0  0  0  0  0
   25.0237  -20.6870  -12.6936 C   0  0  2  0  0  0  0  0  0  0  0  0
   26.3609  -20.5282  -12.0465 N   0  0  0  0  0  0  0  0  0  0  0  0
   24.7401  -19.4971  -13.5075 C   0  0  0  0  0  0  0  0  0  0  0  0
   24.6685  -18.3375  -12.9588 O   0  0  0  0  0  0  0  0  0  0  0  0
   27.6377  -17.8130  -17.0840 C   0  0  0  0  0  0  0  0  0  0  0  0
   26.5131  -17.9391  -16.0905 C   0  0  0  0  0  0  0  0  0  0  0  0
   25.1706  -18.1269  -16.7596 C   0  0  2  0  0  0  0  0  0  0  0  0
   24.7481  -16.9567  -17.5855 C   0  0  0  0  0  0  0  0  0  0  0  0
   24.1530  -18.2899  -15.6182 C   0  0  2  0  0  0  0  0  0  0  0  0
   24.5330  -19.5018  -14.9068 N   0  0  0  0  0  0  0  0  0  0  0  0
   22.7914  -18.4333  -16.1572 C   0  0  0  0  0  0  0  0  0  0  0  0
   22.3936  -19.5364  -16.6388 O   0  0  0  0  0  0  0  0  0  0  0  0
   21.9279  -17.3558  -16.1419 O   0  0  0  0  0  0  0  0  0  0  0  0
  1  2  1  0
  1  5  1  0
  2  3  1  0
  3  4  1  0
  5  4  1  0
  5  6  1  6
  6 14  1  0
  7  6  2  0
  9 11  1  0
  9  8  1  0
 10  9  2  0
 13 12  1  1
 12 11  1  0
 14 13  1  0
 15 16  2  0
 15 13  1  0
 18 17  1  0
 18 19  1  0
 19 21  1  0
 19 20  1  1
 21 22  1  6
 21 23  1  0
 22 15  1  0
 23 25  1  0
 24 23  2  0
M  END
$$$$
