PQI.pdb
     RDKit          3D

 25 25  0  0  1  0  0  0  0  0999 V2000
   17.6623  -12.5516  -14.9711 N   0  0  0  0  0  0  0  0  0  0  0  0
   17.9411  -13.4868  -16.0446 C   0  0  0  0  0  0  0  0  0  0  0  0
   17.4537  -12.8557  -17.3220 C   0  0  0  0  0  0  0  0  0  0  0  0
   16.9387  -11.4830  -16.8693 C   0  0  0  0  0  0  0  0  0  0  0  0
   17.7838  -11.2750  -15.6243 C   0  0  1  0  0  0  0  0  0  0  0  0
   17.2630  -10.1649  -14.7861 C   0  0  0  0  0  0  0  0  0  0  0  0
   17.3979   -8.9943  -15.2279 O   0  0  0  0  0  0  0  0  0  0  0  0
   13.7447  -11.0506  -10.0215 N   0  0  0  0  0  0  0  0  0  0  0  0
   13.5400   -9.6579  -10.0859 C   0  0  0  0  0  0  0  0  0  0  0  0
   12.9301   -9.0585   -9.1826 O   0  0  0  0  0  0  0  0  0  0  0  0
   14.0562   -8.8657  -11.2516 C   0  0  0  0  0  0  0  0  0  0  0  0
   14.7801   -9.7474  -12.2043 C   0  0  0  0  0  0  0  0  0  0  0  0
   16.0472   -9.1991  -12.7959 C   0  0  2  0  0  0  0  0  0  0  0  0
   16.6376  -10.3483  -13.5460 N   0  0  0  0  0  0  0  0  0  0  0  0
   17.0332   -8.7011  -11.8271 C   0  0  0  0  0  0  0  0  0  0  0  0
   17.6898   -9.5225  -11.0888 O   0  0  0  0  0  0  0  0  0  0  0  0
   21.2828   -6.8281  -13.0334 C   0  0  0  0  0  0  0  0  0  0  0  0
   20.1055   -7.3322  -12.2412 C   0  0  0  0  0  0  0  0  0  0  0  0
   19.4707   -6.2491  -11.3990 C   0  0  2  0  0  0  0  0  0  0  0  0
   20.4046   -5.6462  -10.4017 C   0  0  0  0  0  0  0  0  0  0  0  0
   18.3325   -6.9340  -10.6244 C   0  0  2  0  0  0  0  0  0  0  0  0
   17.3507   -7.3382  -11.6204 N   0  0  0  0  0  0  0  0  0  0  0  0
   17.7195   -5.9959   -9.6708 C   0  0  0  0  0  0  0  0  0  0  0  0
   18.1975   -5.8444   -8.5066 O   0  0  0  0  0  0  0  0  0  0  0  0
   16.6075   -5.2660  -10.0415 O   0  0  0  0  0  0  0  0  0  0  0  0
  1  2  1  0
  1  5  1  0
  2  3  1  0
  3  4  1  0
  5  4  1  0
  5  6  1  1
  6 14  1  0
  7  6  2  0
  9 11  1  0
  9  8  1  0
 10  9  2  0
 13 12  1  1
 12 11  1  0
 14 13  1  0
 15 16  2  0
 15 13  1  0
 18 17  1  0
 18 19  1  0
 19 21  1  0
 19 20  1  1
 21 22  1  6
 21 23  1  0
 22 15  1  0
 23 25  1  0
 24 23  2  0
M  END
$$$$
