PQI.pdb
     RDKit          3D

 25 25  0  0  1  0  0  0  0  0999 V2000
   26.8174  -21.2372  -14.6954 N   0  0  0  0  0  0  0  0  0  0  0  0
   27.3232  -21.1529  -16.0526 C   0  0  0  0  0  0  0  0  0  0  0  0
   27.8132  -19.7438  -16.2579 C   0  0  0  0  0  0  0  0  0  0  0  0
   27.5863  -19.0832  -14.8916 C   0  0  0  0  0  0  0  0  0  0  0  0
   27.6526  -20.3026  -13.9881 C   0  0  1  0  0  0  0  0  0  0  0  0
   27.1350  -20.0069  -12.6276 C   0  0  0  0  0  0  0  0  0  0  0  0
   27.7210  -19.1092  -11.9685 O   0  0  0  0  0  0  0  0  0  0  0  0
   21.2230  -20.6199  -11.4451 N   0  0  0  0  0  0  0  0  0  0  0  0
   21.9460  -20.0243  -12.4977 C   0  0  0  0  0  0  0  0  0  0  0  0
   21.3723  -19.6480  -13.5353 O   0  0  0  0  0  0  0  0  0  0  0  0
   23.4304  -19.8308  -12.3877 C   0  0  0  0  0  0  0  0  0  0  0  0
   23.9215  -20.2907  -11.0624 C   0  0  0  0  0  0  0  0  0  0  0  0
   25.3941  -20.1454  -10.8050 C   0  0  2  0  0  0  0  0  0  0  0  0
   26.0437  -20.6651  -12.0460 N   0  0  0  0  0  0  0  0  0  0  0  0
   25.9094  -20.8879   -9.6466 C   0  0  0  0  0  0  0  0  0  0  0  0
   26.0725  -22.1607   -9.7117 O   0  0  0  0  0  0  0  0  0  0  0  0
   28.0167  -18.2682   -5.1930 C   0  0  0  0  0  0  0  0  0  0  0  0
   27.0979  -19.0674   -6.0790 C   0  0  0  0  0  0  0  0  0  0  0  0
   27.7013  -20.3907   -6.4914 C   0  0  2  0  0  0  0  0  0  0  0  0
   28.8723  -20.2514   -7.4076 C   0  0  0  0  0  0  0  0  0  0  0  0
   26.5933  -21.1368   -7.2534 C   0  0  2  0  0  0  0  0  0  0  0  0
   26.2669  -20.3097   -8.4061 N   0  0  0  0  0  0  0  0  0  0  0  0
   25.4033  -21.3013   -6.4037 C   0  0  0  0  0  0  0  0  0  0  0  0
   24.3168  -20.7106   -6.6820 O   0  0  0  0  0  0  0  0  0  0  0  0
   25.4623  -22.1091   -5.2853 O   0  0  0  0  0  0  0  0  0  0  0  0
  1  2  1  0
  1  5  1  0
  2  3  1  0
  3  4  1  0
  5  4  1  0
  5  6  1  1
  6 14  1  0
  7  6  2  0
  9 11  1  0
  9  8  1  0
 10  9  2  0
 13 12  1  6
 12 11  1  0
 14 13  1  0
 15 16  2  0
 15 13  1  0
 18 17  1  0
 18 19  1  0
 19 21  1  0
 19 20  1  6
 21 22  1  6
 21 23  1  0
 22 15  1  0
 23 25  1  0
 24 23  2  0
M  END
$$$$
