SEH.pdb
     RDKit          3D

 26 26  0  0  1  0  0  0  0  0999 V2000
    8.7505  -14.1986   13.8987 O   0  0  0  0  0  0  0  0  0  0  0  0
    8.9272  -14.8265   15.1182 C   0  0  0  0  0  0  0  0  0  0  0  0
    8.7925  -16.3373   15.0071 C   0  0  2  0  0  0  0  0  0  0  0  0
    7.3653  -16.5962   14.7942 N   0  0  0  0  0  0  0  0  0  0  0  0
    9.1306  -16.8943   16.3404 C   0  0  0  0  0  0  0  0  0  0  0  0
    8.2089  -16.9302   17.1932 O   0  0  0  0  0  0  0  0  0  0  0  0
   10.4009  -17.3769   16.7016 N   0  0  0  0  0  0  0  0  0  0  0  0
   10.6101  -17.9506   18.0008 C   0  0  1  0  0  0  0  0  0  0  0  0
   11.7048  -18.9971   17.9979 C   0  0  0  0  0  0  0  0  0  0  0  0
   11.8864  -19.5974   19.3888 C   0  0  0  0  0  0  0  0  0  0  0  0
   12.9431  -20.6322   19.3927 C   0  0  0  0  0  0  0  0  0  0  0  0
   13.0053  -21.5758   18.5846 O   0  0  0  0  0  0  0  0  0  0  0  0
   10.8637  -16.9042   19.0239 C   0  0  0  0  0  0  0  0  0  0  0  0
   11.6944  -16.0156   18.7572 O   0  0  0  0  0  0  0  0  0  0  0  0
   13.9243  -20.5315   20.3685 O   0  0  0  0  0  0  0  0  0  0  0  0
   10.2042  -16.8817   20.2730 N   0  0  0  0  0  0  0  0  0  0  0  0
   10.4398  -15.9241   21.3326 C   0  0  1  0  0  0  0  0  0  0  0  0
    9.1727  -15.2642   21.7800 C   0  0  0  0  0  0  0  0  0  0  0  0
    8.6579  -14.4042   20.6916 C   0  0  0  0  0  0  0  0  0  0  0  0
    9.2609  -14.1992   19.4766 C   0  0  0  0  0  0  0  0  0  0  0  0
    8.4702  -13.3565   18.7868 N   0  0  0  0  0  0  0  0  0  0  0  0
    7.4043  -13.0405   19.5412 C   0  0  0  0  0  0  0  0  0  0  0  0
    7.5313  -13.6851   20.6978 N   0  0  0  0  0  0  0  0  0  0  0  0
   11.2679  -16.4533   22.4343 C   0  0  0  0  0  0  0  0  0  0  0  0
   11.7109  -15.5861   23.4128 O   0  0  0  0  0  0  0  0  0  0  0  0
   11.5693  -17.6512   22.4952 O   0  0  0  0  0  0  0  0  0  0  0  0
  2  1  1  0
  3  2  1  0
  3  4  1  1
  5  7  1  0
  5  3  1  0
  6  5  2  0
  8  7  1  0
  8  9  1  6
  9 10  1  0
 10 11  1  0
 11 15  1  0
 12 11  2  0
 13  8  1  0
 14 13  2  0
 16 13  1  0
 17 16  1  0
 17 18  1  1
 19 18  1  0
 20 19  2  0
 21 22  1  0
 21 20  1  0
 22 23  2  0
 23 19  1  0
 24 17  1  0
 25 24  1  0
 26 24  2  0
M  END
$$$$
