SEH.pdb
     RDKit          3D

 26 26  0  0  1  0  0  0  0  0999 V2000
    8.0449  -14.1878   18.9354 O   0  0  0  0  0  0  0  0  0  0  0  0
    8.6201  -13.2504   18.0970 C   0  0  0  0  0  0  0  0  0  0  0  0
    9.5773  -13.8866   17.1009 C   0  0  2  0  0  0  0  0  0  0  0  0
    8.8132  -14.9444   16.4328 N   0  0  0  0  0  0  0  0  0  0  0  0
   10.6322  -14.5626   17.8962 C   0  0  0  0  0  0  0  0  0  0  0  0
   10.5517  -15.8115   18.0044 O   0  0  0  0  0  0  0  0  0  0  0  0
   11.7003  -13.8999   18.5263 N   0  0  0  0  0  0  0  0  0  0  0  0
   12.7714  -14.6557   19.1114 C   0  0  1  0  0  0  0  0  0  0  0  0
   14.1324  -14.1711   18.6567 C   0  0  0  0  0  0  0  0  0  0  0  0
   15.0533  -15.3480   18.3491 C   0  0  0  0  0  0  0  0  0  0  0  0
   16.3865  -14.8846   17.9070 C   0  0  0  0  0  0  0  0  0  0  0  0
   17.3632  -15.6317   17.7191 O   0  0  0  0  0  0  0  0  0  0  0  0
   12.6732  -14.6828   20.5930 C   0  0  0  0  0  0  0  0  0  0  0  0
   11.9576  -13.8272   21.1468 O   0  0  0  0  0  0  0  0  0  0  0  0
   16.5443  -13.5232   17.6912 O   0  0  0  0  0  0  0  0  0  0  0  0
   13.3542  -15.6328   21.3863 N   0  0  0  0  0  0  0  0  0  0  0  0
   12.7323  -16.5717   22.2957 C   0  0  1  0  0  0  0  0  0  0  0  0
   11.5315  -17.2263   21.6867 C   0  0  0  0  0  0  0  0  0  0  0  0
   10.3182  -16.4652   22.0576 C   0  0  0  0  0  0  0  0  0  0  0  0
   10.2778  -15.1402   22.4106 C   0  0  0  0  0  0  0  0  0  0  0  0
    8.9905  -14.8453   22.6697 N   0  0  0  0  0  0  0  0  0  0  0  0
    8.2438  -15.9471   22.4863 C   0  0  0  0  0  0  0  0  0  0  0  0
    9.0645  -16.9255   22.1139 N   0  0  0  0  0  0  0  0  0  0  0  0
   13.6850  -17.5132   22.9162 C   0  0  0  0  0  0  0  0  0  0  0  0
   13.8829  -17.4605   24.2815 O   0  0  0  0  0  0  0  0  0  0  0  0
   14.3044  -18.3424   22.2391 O   0  0  0  0  0  0  0  0  0  0  0  0
  2  1  1  0
  3  2  1  0
  3  4  1  1
  5  7  1  0
  5  3  1  0
  6  5  2  0
  8  7  1  0
  8  9  1  1
  9 10  1  0
 10 11  1  0
 11 15  1  0
 12 11  2  0
 13  8  1  0
 14 13  2  0
 16 13  1  0
 17 16  1  0
 17 18  1  6
 19 18  1  0
 20 19  2  0
 21 22  1  0
 21 20  1  0
 22 23  2  0
 23 19  1  0
 24 17  1  0
 25 24  1  0
 26 24  2  0
M  END
$$$$
