SEH.pdb
     RDKit          3D

 26 26  0  0  1  0  0  0  0  0999 V2000
    6.4664  -17.2657   20.7958 O   0  0  0  0  0  0  0  0  0  0  0  0
    7.5864  -17.6048   21.5330 C   0  0  0  0  0  0  0  0  0  0  0  0
    8.8221  -17.7522   20.6586 C   0  0  2  0  0  0  0  0  0  0  0  0
    8.6777  -19.0426   19.9780 N   0  0  0  0  0  0  0  0  0  0  0  0
    9.9803  -17.8840   21.5769 C   0  0  0  0  0  0  0  0  0  0  0  0
   10.1762  -19.0145   22.0883 O   0  0  0  0  0  0  0  0  0  0  0  0
   10.8586  -16.8359   21.9044 N   0  0  0  0  0  0  0  0  0  0  0  0
   11.9710  -17.0760   22.7795 C   0  0  1  0  0  0  0  0  0  0  0  0
   13.2505  -16.4467   22.2691 C   0  0  0  0  0  0  0  0  0  0  0  0
   14.4160  -16.7486   23.2064 C   0  0  0  0  0  0  0  0  0  0  0  0
   15.6600  -16.0965   22.7428 C   0  0  0  0  0  0  0  0  0  0  0  0
   16.2562  -16.3885   21.6908 O   0  0  0  0  0  0  0  0  0  0  0  0
   11.6730  -16.6464   24.1696 C   0  0  0  0  0  0  0  0  0  0  0  0
   11.2883  -15.4758   24.3496 O   0  0  0  0  0  0  0  0  0  0  0  0
   16.1861  -15.0940   23.5446 O   0  0  0  0  0  0  0  0  0  0  0  0
   11.8089  -17.5080   25.2809 N   0  0  0  0  0  0  0  0  0  0  0  0
   11.3172  -17.2439   26.6165 C   0  0  1  0  0  0  0  0  0  0  0  0
    9.9137  -16.7232   26.6015 C   0  0  0  0  0  0  0  0  0  0  0  0
    9.8505  -15.4637   27.3753 C   0  0  0  0  0  0  0  0  0  0  0  0
   10.8912  -14.8881   28.0591 C   0  0  0  0  0  0  0  0  0  0  0  0
   10.4129  -13.7624   28.6205 N   0  0  0  0  0  0  0  0  0  0  0  0
    9.1142  -13.6321   28.3017 C   0  0  0  0  0  0  0  0  0  0  0  0
    8.7850  -14.6744   27.5436 N   0  0  0  0  0  0  0  0  0  0  0  0
   11.5390  -18.3581   27.5591 C   0  0  0  0  0  0  0  0  0  0  0  0
   11.2671  -19.6469   27.1458 O   0  0  0  0  0  0  0  0  0  0  0  0
   11.9611  -18.1583   28.7044 O   0  0  0  0  0  0  0  0  0  0  0  0
  2  1  1  0
  3  2  1  0
  3  4  1  1
  5  7  1  0
  5  3  1  0
  6  5  2  0
  8  7  1  0
  8  9  1  6
  9 10  1  0
 10 11  1  0
 11 15  1  0
 12 11  2  0
 13  8  1  0
 14 13  2  0
 16 13  1  0
 17 16  1  0
 17 18  1  6
 19 18  1  0
 20 19  2  0
 21 22  1  0
 21 20  1  0
 22 23  2  0
 23 19  1  0
 24 17  1  0
 25 24  1  0
 26 24  2  0
M  END
$$$$
