SEH.pdb
     RDKit          3D

 26 26  0  0  1  0  0  0  0  0999 V2000
    8.4852  -14.4192   18.9983 O   0  0  0  0  0  0  0  0  0  0  0  0
    7.5218  -15.4086   18.9235 C   0  0  0  0  0  0  0  0  0  0  0  0
    8.1122  -16.7508   18.5198 C   0  0  2  0  0  0  0  0  0  0  0  0
    6.9706  -17.6559   18.3558 N   0  0  0  0  0  0  0  0  0  0  0  0
    8.8821  -17.2460   19.6877 C   0  0  0  0  0  0  0  0  0  0  0  0
    8.2265  -17.7743   20.6199 O   0  0  0  0  0  0  0  0  0  0  0  0
   10.2802  -17.1610   19.8123 N   0  0  0  0  0  0  0  0  0  0  0  0
   10.9342  -17.7073   20.9675 C   0  0  1  0  0  0  0  0  0  0  0  0
   12.4061  -17.9691   20.7250 C   0  0  0  0  0  0  0  0  0  0  0  0
   13.0398  -18.6629   21.9271 C   0  0  0  0  0  0  0  0  0  0  0  0
   14.4696  -18.9548   21.6858 C   0  0  0  0  0  0  0  0  0  0  0  0
   15.0580  -18.7433   20.6104 O   0  0  0  0  0  0  0  0  0  0  0  0
   10.7259  -16.8546   22.1656 C   0  0  0  0  0  0  0  0  0  0  0  0
   10.5863  -15.6292   21.9933 O   0  0  0  0  0  0  0  0  0  0  0  0
   15.1907  -19.5008   22.7379 O   0  0  0  0  0  0  0  0  0  0  0  0
   10.6812  -17.3779   23.4770 N   0  0  0  0  0  0  0  0  0  0  0  0
    9.8935  -16.8469   24.5692 C   0  0  1  0  0  0  0  0  0  0  0  0
    8.4393  -16.7692   24.2222 C   0  0  0  0  0  0  0  0  0  0  0  0
    8.1690  -15.4899   23.5299 C   0  0  0  0  0  0  0  0  0  0  0  0
    9.0232  -14.4188   23.4591 C   0  0  0  0  0  0  0  0  0  0  0  0
    8.3959  -13.4671   22.7435 N   0  0  0  0  0  0  0  0  0  0  0  0
    7.1867  -13.9225   22.3751 C   0  0  0  0  0  0  0  0  0  0  0  0
    7.0617  -15.1547   22.8604 N   0  0  0  0  0  0  0  0  0  0  0  0
   10.1720  -17.4925   25.8673 C   0  0  0  0  0  0  0  0  0  0  0  0
   10.1604  -16.7219   27.0127 O   0  0  0  0  0  0  0  0  0  0  0  0
   10.4137  -18.7030   25.9458 O   0  0  0  0  0  0  0  0  0  0  0  0
  2  1  1  0
  3  2  1  0
  3  4  1  1
  5  7  1  0
  5  3  1  0
  6  5  2  0
  8  7  1  0
  8  9  1  6
  9 10  1  0
 10 11  1  0
 11 15  1  0
 12 11  2  0
 13  8  1  0
 14 13  2  0
 16 13  1  0
 17 16  1  0
 17 18  1  6
 19 18  1  0
 20 19  2  0
 21 22  1  0
 21 20  1  0
 22 23  2  0
 23 19  1  0
 24 17  1  0
 25 24  1  0
 26 24  2  0
M  END
$$$$
