SEH.pdb
     RDKit          3D

 26 26  0  0  1  0  0  0  0  0999 V2000
    7.6549  -13.2435   19.5256 O   0  0  0  0  0  0  0  0  0  0  0  0
    8.2833  -12.5941   18.4787 C   0  0  0  0  0  0  0  0  0  0  0  0
    8.9910  -13.5656   17.5469 C   0  0  2  0  0  0  0  0  0  0  0  0
    7.9576  -14.4942   17.0788 N   0  0  0  0  0  0  0  0  0  0  0  0
    9.9244  -14.3574   18.3860 C   0  0  0  0  0  0  0  0  0  0  0  0
    9.5536  -15.5107   18.7179 O   0  0  0  0  0  0  0  0  0  0  0  0
   11.1799  -13.9015   18.8256 N   0  0  0  0  0  0  0  0  0  0  0  0
   12.1016  -14.8138   19.4412 C   0  0  1  0  0  0  0  0  0  0  0  0
   13.5449  -14.4303   19.1896 C   0  0  0  0  0  0  0  0  0  0  0  0
   14.2683  -15.5212   18.4056 C   0  0  0  0  0  0  0  0  0  0  0  0
   15.6608  -15.1278   18.0990 C   0  0  0  0  0  0  0  0  0  0  0  0
   16.6121  -15.2349   18.8933 O   0  0  0  0  0  0  0  0  0  0  0  0
   11.8273  -14.9688   20.8926 C   0  0  0  0  0  0  0  0  0  0  0  0
   11.3390  -13.9986   21.5017 O   0  0  0  0  0  0  0  0  0  0  0  0
   15.9082  -14.6061   16.8375 O   0  0  0  0  0  0  0  0  0  0  0  0
   12.0973  -16.1629   21.5975 N   0  0  0  0  0  0  0  0  0  0  0  0
   11.2767  -16.7236   22.6499 C   0  0  1  0  0  0  0  0  0  0  0  0
    9.9341  -17.1500   22.1432 C   0  0  0  0  0  0  0  0  0  0  0  0
    8.9733  -16.0368   22.3059 C   0  0  0  0  0  0  0  0  0  0  0  0
    9.2414  -14.8226   22.8853 C   0  0  0  0  0  0  0  0  0  0  0  0
    8.1036  -14.1057   22.8315 N   0  0  0  0  0  0  0  0  0  0  0  0
    7.1498  -14.8428   22.2381 C   0  0  0  0  0  0  0  0  0  0  0  0
    7.6927  -16.0157   21.9234 N   0  0  0  0  0  0  0  0  0  0  0  0
   11.9700  -17.7449   23.4595 C   0  0  0  0  0  0  0  0  0  0  0  0
   12.5143  -17.3782   24.6741 O   0  0  0  0  0  0  0  0  0  0  0  0
   12.0709  -18.9149   23.0713 O   0  0  0  0  0  0  0  0  0  0  0  0
  2  1  1  0
  3  2  1  0
  3  4  1  1
  5  7  1  0
  5  3  1  0
  6  5  2  0
  8  7  1  0
  8  9  1  1
  9 10  1  0
 10 11  1  0
 11 15  1  0
 12 11  2  0
 13  8  1  0
 14 13  2  0
 16 13  1  0
 17 16  1  0
 17 18  1  6
 19 18  1  0
 20 19  2  0
 21 22  1  0
 21 20  1  0
 22 23  2  0
 23 19  1  0
 24 17  1  0
 25 24  1  0
 26 24  2  0
M  END
$$$$
