SEH.pdb
     RDKit          3D

 26 26  0  0  1  0  0  0  0  0999 V2000
    8.7126  -12.1438   17.5311 O   0  0  0  0  0  0  0  0  0  0  0  0
    9.0418  -13.1682   18.3999 C   0  0  0  0  0  0  0  0  0  0  0  0
    9.6778  -14.3463   17.6783 C   0  0  2  0  0  0  0  0  0  0  0  0
    8.5891  -15.0015   16.9471 N   0  0  0  0  0  0  0  0  0  0  0  0
   10.1192  -15.2998   18.7263 C   0  0  0  0  0  0  0  0  0  0  0  0
    9.3863  -16.2989   18.9328 O   0  0  0  0  0  0  0  0  0  0  0  0
   11.2905  -15.1548   19.4907 N   0  0  0  0  0  0  0  0  0  0  0  0
   11.6924  -16.1941   20.3957 C   0  0  1  0  0  0  0  0  0  0  0  0
   12.9570  -16.8936   19.9429 C   0  0  0  0  0  0  0  0  0  0  0  0
   13.2380  -18.1204   20.8055 C   0  0  0  0  0  0  0  0  0  0  0  0
   14.4840  -18.7976   20.3855 C   0  0  0  0  0  0  0  0  0  0  0  0
   14.6973  -19.2278   19.2380 O   0  0  0  0  0  0  0  0  0  0  0  0
   11.8222  -15.6862   21.7853 C   0  0  0  0  0  0  0  0  0  0  0  0
   12.9588  -15.6582   22.2933 O   0  0  0  0  0  0  0  0  0  0  0  0
   15.4726  -18.9570   21.3458 O   0  0  0  0  0  0  0  0  0  0  0  0
   10.7158  -15.2394   22.5416 N   0  0  0  0  0  0  0  0  0  0  0  0
   10.0110  -16.0137   23.5411 C   0  0  1  0  0  0  0  0  0  0  0  0
    8.7540  -16.6167   22.9957 C   0  0  0  0  0  0  0  0  0  0  0  0
    7.9074  -15.5478   22.4214 C   0  0  0  0  0  0  0  0  0  0  0  0
    7.9936  -14.2104   22.7144 C   0  0  0  0  0  0  0  0  0  0  0  0
    7.0504  -13.5898   21.9820 N   0  0  0  0  0  0  0  0  0  0  0  0
    6.3914  -14.5048   21.2515 C   0  0  0  0  0  0  0  0  0  0  0  0
    6.9232  -15.6921   21.5286 N   0  0  0  0  0  0  0  0  0  0  0  0
   10.8735  -16.9667   24.2672 C   0  0  0  0  0  0  0  0  0  0  0  0
   11.1741  -18.1784   23.6778 O   0  0  0  0  0  0  0  0  0  0  0  0
   11.3282  -16.7003   25.3861 O   0  0  0  0  0  0  0  0  0  0  0  0
  2  1  1  0
  3  2  1  0
  3  4  1  6
  5  7  1  0
  5  3  1  0
  6  5  2  0
  8  7  1  0
  8  9  1  6
  9 10  1  0
 10 11  1  0
 11 15  1  0
 12 11  2  0
 13  8  1  0
 14 13  2  0
 16 13  1  0
 17 16  1  0
 17 18  1  6
 19 18  1  0
 20 19  2  0
 21 22  1  0
 21 20  1  0
 22 23  2  0
 23 19  1  0
 24 17  1  0
 25 24  1  0
 26 24  2  0
M  END
$$$$
