SEH.pdb
     RDKit          3D

 26 26  0  0  1  0  0  0  0  0999 V2000
    8.5888  -18.0108   20.2981 O   0  0  0  0  0  0  0  0  0  0  0  0
    8.9548  -18.0789   18.9661 C   0  0  0  0  0  0  0  0  0  0  0  0
    9.9136  -19.2281   18.6957 C   0  0  2  0  0  0  0  0  0  0  0  0
    9.2224  -20.4394   19.1474 N   0  0  0  0  0  0  0  0  0  0  0  0
   11.0729  -19.0378   19.6024 C   0  0  0  0  0  0  0  0  0  0  0  0
   11.0571  -19.6700   20.6877 O   0  0  0  0  0  0  0  0  0  0  0  0
   12.1714  -18.2052   19.3244 N   0  0  0  0  0  0  0  0  0  0  0  0
   13.2825  -18.1528   20.2319 C   0  0  1  0  0  0  0  0  0  0  0  0
   14.5850  -17.8333   19.5284 C   0  0  0  0  0  0  0  0  0  0  0  0
   15.7553  -17.8747   20.5065 C   0  0  0  0  0  0  0  0  0  0  0  0
   17.0252  -17.5146   19.8393 C   0  0  0  0  0  0  0  0  0  0  0  0
   18.0760  -18.1748   19.9257 O   0  0  0  0  0  0  0  0  0  0  0  0
   13.0269  -17.2119   21.3522 C   0  0  0  0  0  0  0  0  0  0  0  0
   12.3585  -16.1884   21.1146 O   0  0  0  0  0  0  0  0  0  0  0  0
   17.0307  -16.3609   19.0687 O   0  0  0  0  0  0  0  0  0  0  0  0
   13.5091  -17.4342   22.6613 N   0  0  0  0  0  0  0  0  0  0  0  0
   12.8038  -17.1144   23.8843 C   0  0  1  0  0  0  0  0  0  0  0  0
   11.4063  -17.6511   23.8790 C   0  0  0  0  0  0  0  0  0  0  0  0
   10.4753  -16.5880   23.4406 C   0  0  0  0  0  0  0  0  0  0  0  0
   10.8300  -15.3250   23.0394 C   0  0  0  0  0  0  0  0  0  0  0  0
    9.6902  -14.6813   22.7268 N   0  0  0  0  0  0  0  0  0  0  0  0
    8.6514  -15.5102   22.9242 C   0  0  0  0  0  0  0  0  0  0  0  0
    9.1435  -16.6671   23.3586 N   0  0  0  0  0  0  0  0  0  0  0  0
   13.5682  -17.4296   25.1072 C   0  0  0  0  0  0  0  0  0  0  0  0
   13.7021  -16.4592   26.0799 O   0  0  0  0  0  0  0  0  0  0  0  0
   14.0869  -18.5400   25.2742 O   0  0  0  0  0  0  0  0  0  0  0  0
  2  1  1  0
  3  2  1  0
  3  4  1  1
  5  7  1  0
  5  3  1  0
  6  5  2  0
  8  7  1  0
  8  9  1  6
  9 10  1  0
 10 11  1  0
 11 15  1  0
 12 11  2  0
 13  8  1  0
 14 13  2  0
 16 13  1  0
 17 16  1  0
 17 18  1  1
 19 18  1  0
 20 19  2  0
 21 22  1  0
 21 20  1  0
 22 23  2  0
 23 19  1  0
 24 17  1  0
 25 24  1  0
 26 24  2  0
M  END
$$$$
