SEH.pdb
     RDKit          3D

 26 26  0  0  1  0  0  0  0  0999 V2000
   10.9101  -12.7808   19.8198 O   0  0  0  0  0  0  0  0  0  0  0  0
   10.5256  -13.5472   18.7347 C   0  0  0  0  0  0  0  0  0  0  0  0
    9.0357  -13.8520   18.7505 C   0  0  2  0  0  0  0  0  0  0  0  0
    8.3701  -12.5757   19.0283 N   0  0  0  0  0  0  0  0  0  0  0  0
    8.7916  -14.7229   19.9270 C   0  0  0  0  0  0  0  0  0  0  0  0
    8.1652  -14.2162   20.8908 O   0  0  0  0  0  0  0  0  0  0  0  0
    9.2126  -16.0608   20.0269 N   0  0  0  0  0  0  0  0  0  0  0  0
    8.8564  -16.8435   21.1764 C   0  0  1  0  0  0  0  0  0  0  0  0
    9.0473  -18.3276   20.9432 C   0  0  0  0  0  0  0  0  0  0  0  0
    7.8441  -18.9229   20.2180 C   0  0  0  0  0  0  0  0  0  0  0  0
    8.0501  -20.3580   19.9253 C   0  0  0  0  0  0  0  0  0  0  0  0
    7.1626  -21.2259   20.0058 O   0  0  0  0  0  0  0  0  0  0  0  0
    9.5802  -16.3884   22.3908 C   0  0  0  0  0  0  0  0  0  0  0  0
   10.7768  -16.0653   22.2710 O   0  0  0  0  0  0  0  0  0  0  0  0
    9.3234  -20.7484   19.5361 O   0  0  0  0  0  0  0  0  0  0  0  0
    8.9668  -16.3101   23.6610 N   0  0  0  0  0  0  0  0  0  0  0  0
    9.6209  -15.9105   24.8889 C   0  0  1  0  0  0  0  0  0  0  0  0
    8.6782  -15.2183   25.8235 C   0  0  0  0  0  0  0  0  0  0  0  0
    9.4177  -14.7768   27.0266 C   0  0  0  0  0  0  0  0  0  0  0  0
   10.7606  -14.9453   27.2507 C   0  0  0  0  0  0  0  0  0  0  0  0
   11.0252  -14.4047   28.4545 N   0  0  0  0  0  0  0  0  0  0  0  0
    9.8876  -13.9119   28.9724 C   0  0  0  0  0  0  0  0  0  0  0  0
    8.9172  -14.1452   28.0929 N   0  0  0  0  0  0  0  0  0  0  0  0
   10.4112  -16.9885   25.5156 C   0  0  0  0  0  0  0  0  0  0  0  0
   11.6457  -16.6852   26.0538 O   0  0  0  0  0  0  0  0  0  0  0  0
    9.9894  -18.1500   25.5664 O   0  0  0  0  0  0  0  0  0  0  0  0
  2  1  1  0
  3  2  1  0
  3  4  1  1
  5  7  1  0
  5  3  1  0
  6  5  2  0
  8  7  1  0
  8  9  1  6
  9 10  1  0
 10 11  1  0
 11 15  1  0
 12 11  2  0
 13  8  1  0
 14 13  2  0
 16 13  1  0
 17 16  1  0
 17 18  1  1
 19 18  1  0
 20 19  2  0
 21 22  1  0
 21 20  1  0
 22 23  2  0
 23 19  1  0
 24 17  1  0
 25 24  1  0
 26 24  2  0
M  END
$$$$
