SEH.pdb
     RDKit          3D

 26 26  0  0  1  0  0  0  0  0999 V2000
   11.1455  -18.5729   15.5435 O   0  0  0  0  0  0  0  0  0  0  0  0
   11.2085  -19.8158   14.9403 C   0  0  0  0  0  0  0  0  0  0  0  0
   12.5464  -20.0513   14.2566 C   0  0  2  0  0  0  0  0  0  0  0  0
   12.4245  -21.3437   13.5754 N   0  0  0  0  0  0  0  0  0  0  0  0
   13.5497  -20.2328   15.3349 C   0  0  0  0  0  0  0  0  0  0  0  0
   13.4048  -21.2292   16.0860 O   0  0  0  0  0  0  0  0  0  0  0  0
   14.6362  -19.3700   15.5633 N   0  0  0  0  0  0  0  0  0  0  0  0
   15.5767  -19.6585   16.6088 C   0  0  1  0  0  0  0  0  0  0  0  0
   16.8884  -18.9251   16.4209 C   0  0  0  0  0  0  0  0  0  0  0  0
   17.9167  -19.3776   17.4532 C   0  0  0  0  0  0  0  0  0  0  0  0
   19.1734  -18.6072   17.3320 C   0  0  0  0  0  0  0  0  0  0  0  0
   19.5336  -17.7210   18.1271 O   0  0  0  0  0  0  0  0  0  0  0  0
   14.9968  -19.3962   17.9507 C   0  0  0  0  0  0  0  0  0  0  0  0
   14.4137  -18.3112   18.1333 O   0  0  0  0  0  0  0  0  0  0  0  0
   19.9961  -18.9030   16.2547 O   0  0  0  0  0  0  0  0  0  0  0  0
   15.0824  -20.3225   19.0139 N   0  0  0  0  0  0  0  0  0  0  0  0
   14.5336  -20.1354   20.3403 C   0  0  1  0  0  0  0  0  0  0  0  0
   13.6723  -21.2873   20.7553 C   0  0  0  0  0  0  0  0  0  0  0  0
   12.9376  -20.9298   21.9888 C   0  0  0  0  0  0  0  0  0  0  0  0
   12.0362  -19.9038   22.1178 C   0  0  0  0  0  0  0  0  0  0  0  0
   11.6026  -19.9244   23.3917 N   0  0  0  0  0  0  0  0  0  0  0  0
   12.2099  -20.9295   24.0444 C   0  0  0  0  0  0  0  0  0  0  0  0
   13.0196  -21.5331   23.1787 N   0  0  0  0  0  0  0  0  0  0  0  0
   15.5392  -19.7389   21.3456 C   0  0  0  0  0  0  0  0  0  0  0  0
   16.8684  -19.6866   20.9763 O   0  0  0  0  0  0  0  0  0  0  0  0
   15.2139  -19.4549   22.5046 O   0  0  0  0  0  0  0  0  0  0  0  0
  2  1  1  0
  3  2  1  0
  3  4  1  6
  5  7  1  0
  5  3  1  0
  6  5  2  0
  8  7  1  0
  8  9  1  6
  9 10  1  0
 10 11  1  0
 11 15  1  0
 12 11  2  0
 13  8  1  0
 14 13  2  0
 16 13  1  0
 17 16  1  0
 17 18  1  1
 19 18  1  0
 20 19  2  0
 21 22  1  0
 21 20  1  0
 22 23  2  0
 23 19  1  0
 24 17  1  0
 25 24  1  0
 26 24  2  0
M  END
$$$$
