SEH.pdb
     RDKit          3D

 26 26  0  0  1  0  0  0  0  0999 V2000
   -2.0224  -25.4638   29.6175 O   0  0  0  0  0  0  0  0  0  0  0  0
   -2.1054  -26.8159   29.8961 C   0  0  0  0  0  0  0  0  0  0  0  0
   -2.9353  -27.5618   28.8626 C   0  0  2  0  0  0  0  0  0  0  0  0
   -2.3516  -27.2220   27.5615 N   0  0  0  0  0  0  0  0  0  0  0  0
   -4.2912  -26.9594   28.8899 C   0  0  0  0  0  0  0  0  0  0  0  0
   -4.8574  -26.7803   27.7830 O   0  0  0  0  0  0  0  0  0  0  0  0
   -4.9704  -26.5827   30.0621 N   0  0  0  0  0  0  0  0  0  0  0  0
   -6.3401  -26.1582   29.9952 C   0  0  1  0  0  0  0  0  0  0  0  0
   -7.2594  -27.0528   30.8004 C   0  0  0  0  0  0  0  0  0  0  0  0
   -8.7207  -26.6818   30.5661 C   0  0  0  0  0  0  0  0  0  0  0  0
   -9.6190  -27.4548   31.4511 C   0  0  0  0  0  0  0  0  0  0  0  0
  -10.6292  -26.9883   32.0071 O   0  0  0  0  0  0  0  0  0  0  0  0
   -6.4888  -24.7339   30.3890 C   0  0  0  0  0  0  0  0  0  0  0  0
   -5.9342  -24.3569   31.4383 O   0  0  0  0  0  0  0  0  0  0  0  0
   -9.3017  -28.7881   31.6669 O   0  0  0  0  0  0  0  0  0  0  0  0
   -7.2278  -23.8035   29.6249 N   0  0  0  0  0  0  0  0  0  0  0  0
   -7.3224  -22.3833   29.8885 C   0  0  1  0  0  0  0  0  0  0  0  0
   -7.1257  -21.5710   28.6465 C   0  0  0  0  0  0  0  0  0  0  0  0
   -5.8317  -21.9309   28.0259 C   0  0  0  0  0  0  0  0  0  0  0  0
   -4.6168  -21.3631   28.3150 C   0  0  0  0  0  0  0  0  0  0  0  0
   -3.7061  -21.9736   27.5345 N   0  0  0  0  0  0  0  0  0  0  0  0
   -4.3256  -22.8955   26.7785 C   0  0  0  0  0  0  0  0  0  0  0  0
   -5.6188  -22.8589   27.0877 N   0  0  0  0  0  0  0  0  0  0  0  0
   -8.5129  -22.0062   30.6757 C   0  0  0  0  0  0  0  0  0  0  0  0
   -8.5079  -20.8084   31.3620 O   0  0  0  0  0  0  0  0  0  0  0  0
   -9.5074  -22.7394   30.7305 O   0  0  0  0  0  0  0  0  0  0  0  0
  2  1  1  0
  3  2  1  0
  3  4  1  6
  5  7  1  0
  5  3  1  0
  6  5  2  0
  8  7  1  0
  8  9  1  1
  9 10  1  0
 10 11  1  0
 11 15  1  0
 12 11  2  0
 13  8  1  0
 14 13  2  0
 16 13  1  0
 17 16  1  0
 17 18  1  6
 19 18  1  0
 20 19  2  0
 21 22  1  0
 21 20  1  0
 22 23  2  0
 23 19  1  0
 24 17  1  0
 25 24  1  0
 26 24  2  0
M  END
$$$$
