SEH.pdb
     RDKit          3D

 26 26  0  0  1  0  0  0  0  0999 V2000
    6.8354  -13.5609   21.8740 O   0  0  0  0  0  0  0  0  0  0  0  0
    7.6363  -13.4252   20.7547 C   0  0  0  0  0  0  0  0  0  0  0  0
    7.9306  -14.7648   20.0976 C   0  0  2  0  0  0  0  0  0  0  0  0
    6.6668  -15.2003   19.4956 N   0  0  0  0  0  0  0  0  0  0  0  0
    8.2301  -15.7200   21.1932 C   0  0  0  0  0  0  0  0  0  0  0  0
    7.2777  -16.4244   21.6112 O   0  0  0  0  0  0  0  0  0  0  0  0
    9.4963  -15.8818   21.7828 N   0  0  0  0  0  0  0  0  0  0  0  0
    9.7221  -16.9431   22.7228 C   0  0  1  0  0  0  0  0  0  0  0  0
   11.0647  -17.6141   22.5209 C   0  0  0  0  0  0  0  0  0  0  0  0
   11.8944  -16.8675   21.4807 C   0  0  0  0  0  0  0  0  0  0  0  0
   13.1941  -17.5351   21.2513 C   0  0  0  0  0  0  0  0  0  0  0  0
   13.7594  -17.6110   20.1458 O   0  0  0  0  0  0  0  0  0  0  0  0
    9.5551  -16.4756   24.1225 C   0  0  0  0  0  0  0  0  0  0  0  0
    9.9967  -15.3497   24.4191 O   0  0  0  0  0  0  0  0  0  0  0  0
   13.8131  -18.1110   22.3514 O   0  0  0  0  0  0  0  0  0  0  0  0
    8.9210  -17.2534   25.1169 N   0  0  0  0  0  0  0  0  0  0  0  0
    8.6932  -16.8458   26.4870 C   0  0  1  0  0  0  0  0  0  0  0  0
    7.2950  -16.3542   26.6977 C   0  0  0  0  0  0  0  0  0  0  0  0
    7.2529  -14.8910   26.4823 C   0  0  0  0  0  0  0  0  0  0  0  0
    8.3212  -14.0969   26.1505 C   0  0  0  0  0  0  0  0  0  0  0  0
    7.8546  -12.8386   26.0501 N   0  0  0  0  0  0  0  0  0  0  0  0
    6.5364  -12.8387   26.3097 C   0  0  0  0  0  0  0  0  0  0  0  0
    6.1833  -14.0942   26.5712 N   0  0  0  0  0  0  0  0  0  0  0  0
    9.1411  -17.8402   27.4819 C   0  0  0  0  0  0  0  0  0  0  0  0
    9.6631  -17.3974   28.6807 O   0  0  0  0  0  0  0  0  0  0  0  0
    9.0573  -19.0544   27.2615 O   0  0  0  0  0  0  0  0  0  0  0  0
  2  1  1  0
  3  2  1  0
  3  4  1  1
  5  7  1  0
  5  3  1  0
  6  5  2  0
  8  7  1  0
  8  9  1  1
  9 10  1  0
 10 11  1  0
 11 15  1  0
 12 11  2  0
 13  8  1  0
 14 13  2  0
 16 13  1  0
 17 16  1  0
 17 18  1  6
 19 18  1  0
 20 19  2  0
 21 22  1  0
 21 20  1  0
 22 23  2  0
 23 19  1  0
 24 17  1  0
 25 24  1  0
 26 24  2  0
M  END
$$$$
