SEH.pdb
     RDKit          3D

 26 26  0  0  1  0  0  0  0  0999 V2000
    9.3701  -14.7906   15.7918 O   0  0  0  0  0  0  0  0  0  0  0  0
    9.6833  -15.8005   14.9003 C   0  0  0  0  0  0  0  0  0  0  0  0
    8.7609  -17.0004   15.0500 C   0  0  2  0  0  0  0  0  0  0  0  0
    7.4112  -16.5043   14.7646 N   0  0  0  0  0  0  0  0  0  0  0  0
    8.7802  -17.3760   16.4856 C   0  0  0  0  0  0  0  0  0  0  0  0
    7.8173  -16.9833   17.1903 O   0  0  0  0  0  0  0  0  0  0  0  0
    9.7958  -18.1334   17.0956 N   0  0  0  0  0  0  0  0  0  0  0  0
    9.6819  -18.5103   18.4760 C   0  0  1  0  0  0  0  0  0  0  0  0
   10.4068  -19.8047   18.7804 C   0  0  0  0  0  0  0  0  0  0  0  0
    9.8676  -20.9445   17.9212 C   0  0  0  0  0  0  0  0  0  0  0  0
   10.5719  -22.2129   18.2090 C   0  0  0  0  0  0  0  0  0  0  0  0
   10.5242  -22.8113   19.2985 O   0  0  0  0  0  0  0  0  0  0  0  0
   10.1247  -17.4165   19.3778 C   0  0  0  0  0  0  0  0  0  0  0  0
   11.1662  -16.8011   19.0820 O   0  0  0  0  0  0  0  0  0  0  0  0
   11.3330  -22.7606   17.1865 O   0  0  0  0  0  0  0  0  0  0  0  0
    9.4152  -17.0540   20.5443 N   0  0  0  0  0  0  0  0  0  0  0  0
    9.8304  -16.0554   21.5065 C   0  0  1  0  0  0  0  0  0  0  0  0
    8.7016  -15.1523   21.8957 C   0  0  0  0  0  0  0  0  0  0  0  0
    8.3033  -14.3357   20.7280 C   0  0  0  0  0  0  0  0  0  0  0  0
    8.8977  -14.3580   19.4918 C   0  0  0  0  0  0  0  0  0  0  0  0
    8.2354  -13.4720   18.7252 N   0  0  0  0  0  0  0  0  0  0  0  0
    7.2561  -12.9097   19.4532 C   0  0  0  0  0  0  0  0  0  0  0  0
    7.3088  -13.4444   20.6700 N   0  0  0  0  0  0  0  0  0  0  0  0
   10.5814  -16.6118   22.6492 C   0  0  0  0  0  0  0  0  0  0  0  0
   11.2157  -15.7455   23.5170 O   0  0  0  0  0  0  0  0  0  0  0  0
   10.6516  -17.8316   22.8411 O   0  0  0  0  0  0  0  0  0  0  0  0
  2  1  1  0
  3  2  1  0
  3  4  1  1
  5  7  1  0
  5  3  1  0
  6  5  2  0
  8  7  1  0
  8  9  1  6
  9 10  1  0
 10 11  1  0
 11 15  1  0
 12 11  2  0
 13  8  1  0
 14 13  2  0
 16 13  1  0
 17 16  1  0
 17 18  1  1
 19 18  1  0
 20 19  2  0
 21 22  1  0
 21 20  1  0
 22 23  2  0
 23 19  1  0
 24 17  1  0
 25 24  1  0
 26 24  2  0
M  END
$$$$
