SEH.pdb
     RDKit          3D

 26 26  0  0  1  0  0  0  0  0999 V2000
    6.0694  -14.6711   22.6243 O   0  0  0  0  0  0  0  0  0  0  0  0
    6.5460  -14.4364   21.3475 C   0  0  0  0  0  0  0  0  0  0  0  0
    7.1894  -15.6742   20.7419 C   0  0  2  0  0  0  0  0  0  0  0  0
    6.1321  -16.6884   20.6894 N   0  0  0  0  0  0  0  0  0  0  0  0
    8.1921  -16.1568   21.7237 C   0  0  0  0  0  0  0  0  0  0  0  0
    7.8390  -17.0903   22.4866 O   0  0  0  0  0  0  0  0  0  0  0  0
    9.4937  -15.6401   21.8501 N   0  0  0  0  0  0  0  0  0  0  0  0
   10.4001  -16.2003   22.8121 C   0  0  1  0  0  0  0  0  0  0  0  0
   11.8496  -15.9881   22.4281 C   0  0  0  0  0  0  0  0  0  0  0  0
   12.7773  -16.7641   23.3583 C   0  0  0  0  0  0  0  0  0  0  0  0
   14.1975  -16.5249   23.0215 C   0  0  0  0  0  0  0  0  0  0  0  0
   14.9841  -15.8640   23.7227 O   0  0  0  0  0  0  0  0  0  0  0  0
   10.1226  -15.6947   24.1807 C   0  0  0  0  0  0  0  0  0  0  0  0
    9.8097  -14.4961   24.3085 O   0  0  0  0  0  0  0  0  0  0  0  0
   14.6707  -17.0807   21.8416 O   0  0  0  0  0  0  0  0  0  0  0  0
   10.2001  -16.5150   25.3282 N   0  0  0  0  0  0  0  0  0  0  0  0
    9.3811  -16.3834   26.5145 C   0  0  1  0  0  0  0  0  0  0  0  0
    7.9284  -16.2514   26.1778 C   0  0  0  0  0  0  0  0  0  0  0  0
    7.5473  -14.8221   26.2055 C   0  0  0  0  0  0  0  0  0  0  0  0
    8.3862  -13.7724   26.4821 C   0  0  0  0  0  0  0  0  0  0  0  0
    7.6461  -12.6512   26.4028 N   0  0  0  0  0  0  0  0  0  0  0  0
    6.3829  -12.9822   26.0868 C   0  0  0  0  0  0  0  0  0  0  0  0
    6.3369  -14.3065   25.9697 N   0  0  0  0  0  0  0  0  0  0  0  0
    9.6727  -17.3950   27.5494 C   0  0  0  0  0  0  0  0  0  0  0  0
    9.8152  -18.7151   27.1716 O   0  0  0  0  0  0  0  0  0  0  0  0
    9.7906  -17.0825   28.7403 O   0  0  0  0  0  0  0  0  0  0  0  0
  2  1  1  0
  3  2  1  0
  3  4  1  1
  5  7  1  0
  5  3  1  0
  6  5  2  0
  8  7  1  0
  8  9  1  6
  9 10  1  0
 10 11  1  0
 11 15  1  0
 12 11  2  0
 13  8  1  0
 14 13  2  0
 16 13  1  0
 17 16  1  0
 17 18  1  6
 19 18  1  0
 20 19  2  0
 21 22  1  0
 21 20  1  0
 22 23  2  0
 23 19  1  0
 24 17  1  0
 25 24  1  0
 26 24  2  0
M  END
$$$$
