SEH.pdb
     RDKit          3D

 26 26  0  0  1  0  0  0  0  0999 V2000
   17.1896  -15.3977   17.2501 O   0  0  0  0  0  0  0  0  0  0  0  0
   16.4149  -14.7857   16.2815 C   0  0  0  0  0  0  0  0  0  0  0  0
   15.6926  -13.5599   16.8187 C   0  0  2  0  0  0  0  0  0  0  0  0
   16.7442  -12.6355   17.2532 N   0  0  0  0  0  0  0  0  0  0  0  0
   14.9743  -13.9915   18.0435 C   0  0  0  0  0  0  0  0  0  0  0  0
   15.2317  -13.3694   19.1040 O   0  0  0  0  0  0  0  0  0  0  0  0
   14.0371  -15.0388   18.0881 N   0  0  0  0  0  0  0  0  0  0  0  0
   13.2812  -15.2775   19.2849 C   0  0  1  0  0  0  0  0  0  0  0  0
   12.0459  -16.1151   19.0274 C   0  0  0  0  0  0  0  0  0  0  0  0
   11.2612  -16.3368   20.3170 C   0  0  0  0  0  0  0  0  0  0  0  0
   10.0879  -17.2077   20.0880 C   0  0  0  0  0  0  0  0  0  0  0  0
    9.8176  -17.7511   19.0022 O   0  0  0  0  0  0  0  0  0  0  0  0
   14.1252  -15.8712   20.3530 C   0  0  0  0  0  0  0  0  0  0  0  0
   14.8586  -16.8316   20.0520 O   0  0  0  0  0  0  0  0  0  0  0  0
    9.2406  -17.4245   21.1650 O   0  0  0  0  0  0  0  0  0  0  0  0
   14.1255  -15.3909   21.6816 N   0  0  0  0  0  0  0  0  0  0  0  0
   14.9085  -15.9316   22.7724 C   0  0  1  0  0  0  0  0  0  0  0  0
   15.7439  -14.8802   23.4342 C   0  0  0  0  0  0  0  0  0  0  0  0
   16.8618  -14.5081   22.5393 C   0  0  0  0  0  0  0  0  0  0  0  0
   17.0951  -15.0222   21.2891 C   0  0  0  0  0  0  0  0  0  0  0  0
   18.2039  -14.4199   20.8210 N   0  0  0  0  0  0  0  0  0  0  0  0
   18.6549  -13.5549   21.7448 C   0  0  0  0  0  0  0  0  0  0  0  0
   17.8288  -13.6188   22.7855 N   0  0  0  0  0  0  0  0  0  0  0  0
   14.1241  -16.7595   23.7096 C   0  0  0  0  0  0  0  0  0  0  0  0
   14.7778  -17.3996   24.7434 O   0  0  0  0  0  0  0  0  0  0  0  0
   12.9003  -16.8886   23.5855 O   0  0  0  0  0  0  0  0  0  0  0  0
  2  1  1  0
  3  2  1  0
  3  4  1  1
  5  7  1  0
  5  3  1  0
  6  5  2  0
  8  7  1  0
  8  9  1  6
  9 10  1  0
 10 11  1  0
 11 15  1  0
 12 11  2  0
 13  8  1  0
 14 13  2  0
 16 13  1  0
 17 16  1  0
 17 18  1  1
 19 18  1  0
 20 19  2  0
 21 22  1  0
 21 20  1  0
 22 23  2  0
 23 19  1  0
 24 17  1  0
 25 24  1  0
 26 24  2  0
M  END
$$$$
