QNA.pdb
     RDKit          3D

 23 22  0  0  1  0  0  0  0  0999 V2000
   18.8642  -11.0771  -14.7348 N   0  0  0  0  0  0  0  0  0  0  0  0
   18.1510  -12.2453  -15.1118 C   0  0  0  0  0  0  0  0  0  0  0  0
   18.7610  -13.3248  -15.3188 O   0  0  0  0  0  0  0  0  0  0  0  0
   16.6956  -12.2160  -15.2665 C   0  0  0  0  0  0  0  0  0  0  0  0
   16.1000  -10.8638  -14.9318 C   0  0  0  0  0  0  0  0  0  0  0  0
   15.6594  -10.9387  -13.4883 C   0  0  2  0  0  0  0  0  0  0  0  0
   14.4660  -11.7631  -13.4619 N   0  0  0  0  0  0  0  0  0  0  0  0
   15.3839   -9.6271  -12.8970 C   0  0  0  0  0  0  0  0  0  0  0  0
   14.4077   -8.8991  -13.2209 O   0  0  0  0  0  0  0  0  0  0  0  0
   15.9771   -5.2779   -9.8873 N   0  0  0  0  0  0  0  0  0  0  0  0
   16.3092   -6.4774   -9.1862 C   0  0  0  0  0  0  0  0  0  0  0  0
   16.4966   -6.3508   -7.9571 O   0  0  0  0  0  0  0  0  0  0  0  0
   16.4262   -7.7823   -9.8549 C   0  0  0  0  0  0  0  0  0  0  0  0
   16.1211   -7.7743  -11.3220 C   0  0  2  0  0  0  0  0  0  0  0  0
   16.2522   -9.1190  -11.8957 N   0  0  0  0  0  0  0  0  0  0  0  0
   16.8424   -6.7760  -12.1104 C   0  0  0  0  0  0  0  0  0  0  0  0
   18.0778   -6.7162  -12.2961 O   0  0  0  0  0  0  0  0  0  0  0  0
   15.6239   -4.4259  -14.6937 C   0  0  0  0  0  0  0  0  0  0  0  0
   16.6588   -4.7736  -13.6392 C   0  0  2  0  0  0  0  0  0  0  0  0
   16.0765   -5.7525  -12.7451 N   0  0  0  0  0  0  0  0  0  0  0  0
   17.0457   -3.5954  -12.8381 C   0  0  0  0  0  0  0  0  0  0  0  0
   17.9111   -2.6203  -13.3088 O   0  0  0  0  0  0  0  0  0  0  0  0
   16.5864   -3.4499  -11.6851 O   0  0  0  0  0  0  0  0  0  0  0  0
  2  1  1  0
  2  4  1  0
  3  2  2  0
  5  4  1  0
  6  5  1  0
  6  7  1  6
  8  6  1  0
  8  9  2  0
 10 11  1  0
 11 13  1  0
 11 12  2  0
 14 13  1  1
 14 16  1  0
 14 15  1  0
 15  8  1  0
 16 20  1  0
 17 16  2  0
 19 18  1  6
 19 21  1  0
 20 19  1  0
 21 23  2  0
 21 22  1  0
M  END
$$$$
