QNA.pdb
     RDKit          3D

 23 22  0  0  1  0  0  0  0  0999 V2000
   14.4042  -13.4467  -15.6103 N   0  0  0  0  0  0  0  0  0  0  0  0
   15.7862  -13.6850  -15.3898 C   0  0  0  0  0  0  0  0  0  0  0  0
   16.2387  -14.8579  -15.3937 O   0  0  0  0  0  0  0  0  0  0  0  0
   16.7089  -12.5733  -15.1542 C   0  0  0  0  0  0  0  0  0  0  0  0
   16.0087  -11.2301  -15.1229 C   0  0  0  0  0  0  0  0  0  0  0  0
   17.0503  -10.2171  -14.7077 C   0  0  2  0  0  0  0  0  0  0  0  0
   18.0534  -10.9413  -13.9502 N   0  0  0  0  0  0  0  0  0  0  0  0
   16.5044   -9.1186  -13.9071 C   0  0  0  0  0  0  0  0  0  0  0  0
   15.5096   -8.4245  -14.2484 O   0  0  0  0  0  0  0  0  0  0  0  0
   15.4790   -6.0523   -9.3638 N   0  0  0  0  0  0  0  0  0  0  0  0
   16.7200   -6.7431   -9.5169 C   0  0  0  0  0  0  0  0  0  0  0  0
   17.6759   -6.2912   -8.8507 O   0  0  0  0  0  0  0  0  0  0  0  0
   16.8761   -7.9109  -10.3974 C   0  0  0  0  0  0  0  0  0  0  0  0
   16.7263   -7.6278  -11.8613 C   0  0  2  0  0  0  0  0  0  0  0  0
   17.1122   -8.7928  -12.6664 N   0  0  0  0  0  0  0  0  0  0  0  0
   17.3705   -6.4037  -12.3357 C   0  0  0  0  0  0  0  0  0  0  0  0
   18.5992   -6.1816  -12.4071 O   0  0  0  0  0  0  0  0  0  0  0  0
   16.0341   -3.6845  -14.4393 C   0  0  0  0  0  0  0  0  0  0  0  0
   17.0391   -4.1344  -13.3946 C   0  0  2  0  0  0  0  0  0  0  0  0
   16.5280   -5.3361  -12.7690 N   0  0  0  0  0  0  0  0  0  0  0  0
   17.2316   -3.1172  -12.3421 C   0  0  0  0  0  0  0  0  0  0  0  0
   18.0934   -2.0414  -12.4880 O   0  0  0  0  0  0  0  0  0  0  0  0
   16.6020   -3.2089  -11.2666 O   0  0  0  0  0  0  0  0  0  0  0  0
  2  1  1  0
  2  4  1  0
  3  2  2  0
  5  4  1  0
  6  5  1  0
  6  7  1  1
  8  6  1  0
  8  9  2  0
 10 11  1  0
 11 13  1  0
 11 12  2  0
 14 13  1  1
 14 16  1  0
 14 15  1  0
 15  8  1  0
 16 20  1  0
 17 16  2  0
 19 18  1  6
 19 21  1  0
 20 19  1  0
 21 23  2  0
 21 22  1  0
M  END
$$$$
