QNA.pdb
     RDKit          3D

 23 22  0  0  1  0  0  0  0  0999 V2000
   12.1020  -10.6398  -14.2612 N   0  0  0  0  0  0  0  0  0  0  0  0
   12.3475  -11.9974  -14.5957 C   0  0  0  0  0  0  0  0  0  0  0  0
   11.7088  -12.5493  -15.5273 O   0  0  0  0  0  0  0  0  0  0  0  0
   13.3462  -12.7792  -13.8648 C   0  0  0  0  0  0  0  0  0  0  0  0
   13.9957  -11.9942  -12.7435 C   0  0  0  0  0  0  0  0  0  0  0  0
   15.3201  -11.5028  -13.2800 C   0  0  2  0  0  0  0  0  0  0  0  0
   16.1339  -12.6804  -13.5159 N   0  0  0  0  0  0  0  0  0  0  0  0
   16.0088  -10.5831  -12.3715 C   0  0  0  0  0  0  0  0  0  0  0  0
   16.5681  -10.9382  -11.2996 O   0  0  0  0  0  0  0  0  0  0  0  0
   19.0315   -8.0745  -14.5475 N   0  0  0  0  0  0  0  0  0  0  0  0
   18.7924   -7.9748  -13.1427 C   0  0  0  0  0  0  0  0  0  0  0  0
   19.6594   -8.4955  -12.4086 O   0  0  0  0  0  0  0  0  0  0  0  0
   17.6077   -7.3058  -12.5836 C   0  0  0  0  0  0  0  0  0  0  0  0
   16.6785   -8.1957  -11.8155 C   0  0  2  0  0  0  0  0  0  0  0  0
   16.0659   -9.2013  -12.6917 N   0  0  0  0  0  0  0  0  0  0  0  0
   15.6795   -7.5084  -10.9981 C   0  0  0  0  0  0  0  0  0  0  0  0
   14.6703   -6.8930  -11.4067 O   0  0  0  0  0  0  0  0  0  0  0  0
   15.3201   -7.2865   -7.2538 C   0  0  0  0  0  0  0  0  0  0  0  0
   14.9339   -6.8865   -8.6661 C   0  0  2  0  0  0  0  0  0  0  0  0
   15.8533   -7.5293   -9.5816 N   0  0  0  0  0  0  0  0  0  0  0  0
   15.0300   -5.4275   -8.8707 C   0  0  0  0  0  0  0  0  0  0  0  0
   14.0181   -4.5518   -8.5096 O   0  0  0  0  0  0  0  0  0  0  0  0
   16.0567   -4.9390   -9.3889 O   0  0  0  0  0  0  0  0  0  0  0  0
  2  1  1  0
  2  4  1  0
  3  2  2  0
  5  4  1  0
  6  5  1  0
  6  7  1  1
  8  6  1  0
  8  9  2  0
 10 11  1  0
 11 13  1  0
 11 12  2  0
 14 13  1  6
 14 16  1  0
 14 15  1  0
 15  8  1  0
 16 20  1  0
 17 16  2  0
 19 18  1  1
 19 21  1  0
 20 19  1  0
 21 23  2  0
 21 22  1  0
M  END
$$$$
