QNA.pdb
     RDKit          3D

 23 22  0  0  1  0  0  0  0  0999 V2000
   17.1150  -10.8458  -18.8626 N   0  0  0  0  0  0  0  0  0  0  0  0
   17.9413  -10.8064  -17.7089 C   0  0  0  0  0  0  0  0  0  0  0  0
   18.9522  -10.0599  -17.6747 O   0  0  0  0  0  0  0  0  0  0  0  0
   17.6335  -11.6317  -16.5397 C   0  0  0  0  0  0  0  0  0  0  0  0
   16.4428  -11.1156  -15.7578 C   0  0  0  0  0  0  0  0  0  0  0  0
   16.8941  -11.0040  -14.3200 C   0  0  2  0  0  0  0  0  0  0  0  0
   16.5868  -12.2740  -13.6898 N   0  0  0  0  0  0  0  0  0  0  0  0
   16.2500   -9.9073  -13.5933 C   0  0  0  0  0  0  0  0  0  0  0  0
   15.0024   -9.7427  -13.5269 O   0  0  0  0  0  0  0  0  0  0  0  0
   14.7817   -9.2268  -10.4011 N   0  0  0  0  0  0  0  0  0  0  0  0
   15.9842   -8.6289   -9.9142 C   0  0  0  0  0  0  0  0  0  0  0  0
   16.2477   -8.8465   -8.7121 O   0  0  0  0  0  0  0  0  0  0  0  0
   16.8636   -7.8088  -10.7613 C   0  0  0  0  0  0  0  0  0  0  0  0
   16.5050   -7.7871  -12.2161 C   0  0  2  0  0  0  0  0  0  0  0  0
   17.0545   -8.9563  -12.9127 N   0  0  0  0  0  0  0  0  0  0  0  0
   16.8097   -6.5431  -12.9220 C   0  0  0  0  0  0  0  0  0  0  0  0
   17.9441   -6.1028  -13.2109 O   0  0  0  0  0  0  0  0  0  0  0  0
   14.5062   -4.0460  -14.5490 C   0  0  0  0  0  0  0  0  0  0  0  0
   15.8798   -4.5130  -14.1030 C   0  0  2  0  0  0  0  0  0  0  0  0
   15.7124   -5.7293  -13.3352 N   0  0  0  0  0  0  0  0  0  0  0  0
   16.5472   -3.5167  -13.2417 C   0  0  0  0  0  0  0  0  0  0  0  0
   17.2182   -2.4157  -13.7505 O   0  0  0  0  0  0  0  0  0  0  0  0
   16.5189   -3.6506  -11.9997 O   0  0  0  0  0  0  0  0  0  0  0  0
  2  1  1  0
  2  4  1  0
  3  2  2  0
  5  4  1  0
  6  5  1  0
  6  7  1  1
  8  6  1  0
  8  9  2  0
 10 11  1  0
 11 13  1  0
 11 12  2  0
 14 13  1  1
 14 16  1  0
 14 15  1  0
 15  8  1  0
 16 20  1  0
 17 16  2  0
 19 18  1  1
 19 21  1  0
 20 19  1  0
 21 23  2  0
 21 22  1  0
M  END
$$$$
