QNA.pdb
     RDKit          3D

 23 22  0  0  1  0  0  0  0  0999 V2000
   16.5991  -16.1031  -17.8738 N   0  0  0  0  0  0  0  0  0  0  0  0
   17.6893  -15.9503  -16.9774 C   0  0  0  0  0  0  0  0  0  0  0  0
   17.9740  -16.8618  -16.1598 O   0  0  0  0  0  0  0  0  0  0  0  0
   18.5009  -14.7321  -16.9872 C   0  0  0  0  0  0  0  0  0  0  0  0
   18.0464  -13.7361  -18.0345 C   0  0  0  0  0  0  0  0  0  0  0  0
   18.8825  -12.4939  -17.8314 C   0  0  2  0  0  0  0  0  0  0  0  0
   19.8784  -12.8244  -16.8296 N   0  0  0  0  0  0  0  0  0  0  0  0
   18.1001  -11.3312  -17.4056 C   0  0  0  0  0  0  0  0  0  0  0  0
   17.1470  -10.8418  -18.0689 O   0  0  0  0  0  0  0  0  0  0  0  0
   14.8690  -10.3904  -14.6175 N   0  0  0  0  0  0  0  0  0  0  0  0
   16.1594  -10.6062  -14.0437 C   0  0  0  0  0  0  0  0  0  0  0  0
   16.2750  -11.6362  -13.3456 O   0  0  0  0  0  0  0  0  0  0  0  0
   17.2864   -9.6846  -14.2530 C   0  0  0  0  0  0  0  0  0  0  0  0
   17.7060   -9.5073  -15.6806 C   0  0  2  0  0  0  0  0  0  0  0  0
   18.4113  -10.6958  -16.1750 N   0  0  0  0  0  0  0  0  0  0  0  0
   18.4433   -8.2788  -15.9731 C   0  0  0  0  0  0  0  0  0  0  0  0
   19.6124   -8.0042  -15.6237 O   0  0  0  0  0  0  0  0  0  0  0  0
   17.5284   -5.3530  -18.1561 C   0  0  0  0  0  0  0  0  0  0  0  0
   18.4176   -6.0346  -17.1322 C   0  0  2  0  0  0  0  0  0  0  0  0
   17.7792   -7.2728  -16.7372 N   0  0  0  0  0  0  0  0  0  0  0  0
   18.5988   -5.2073  -15.9228 C   0  0  0  0  0  0  0  0  0  0  0  0
   18.0611   -5.5507  -14.6923 O   0  0  0  0  0  0  0  0  0  0  0  0
   19.2607   -4.1494  -15.9871 O   0  0  0  0  0  0  0  0  0  0  0  0
  2  1  1  0
  2  4  1  0
  3  2  2  0
  5  4  1  0
  6  5  1  0
  6  7  1  1
  8  6  1  0
  8  9  2  0
 10 11  1  0
 11 13  1  0
 11 12  2  0
 14 13  1  1
 14 16  1  0
 14 15  1  0
 15  8  1  0
 16 20  1  0
 17 16  2  0
 19 18  1  6
 19 21  1  0
 20 19  1  0
 21 23  2  0
 21 22  1  0
M  END
$$$$
