QNA.pdb
     RDKit          3D

 23 22  0  0  1  0  0  0  0  0999 V2000
   16.8971  -11.5390  -20.8118 N   0  0  0  0  0  0  0  0  0  0  0  0
   17.6055  -12.4990  -20.0425 C   0  0  0  0  0  0  0  0  0  0  0  0
   18.1141  -13.5076  -20.5942 O   0  0  0  0  0  0  0  0  0  0  0  0
   17.7572  -12.3341  -18.5959 C   0  0  0  0  0  0  0  0  0  0  0  0
   17.0779  -11.0834  -18.0764 C   0  0  0  0  0  0  0  0  0  0  0  0
   17.2670  -11.0882  -16.5772 C   0  0  2  0  0  0  0  0  0  0  0  0
   16.4494  -12.1692  -16.0602 N   0  0  0  0  0  0  0  0  0  0  0  0
   16.8957   -9.8217  -15.9416 C   0  0  0  0  0  0  0  0  0  0  0  0
   15.8015   -9.2286  -16.1386 O   0  0  0  0  0  0  0  0  0  0  0  0
   15.5844   -9.0751  -12.5474 N   0  0  0  0  0  0  0  0  0  0  0  0
   16.8577   -8.6585  -12.0514 C   0  0  0  0  0  0  0  0  0  0  0  0
   17.0605   -8.8713  -10.8368 O   0  0  0  0  0  0  0  0  0  0  0  0
   17.8724   -8.0201  -12.9036 C   0  0  0  0  0  0  0  0  0  0  0  0
   17.5195   -7.9353  -14.3575 C   0  0  2  0  0  0  0  0  0  0  0  0
   17.8037   -9.2010  -15.0443 N   0  0  0  0  0  0  0  0  0  0  0  0
   18.0788   -6.7912  -15.0763 C   0  0  0  0  0  0  0  0  0  0  0  0
   19.2856   -6.5807  -15.3286 O   0  0  0  0  0  0  0  0  0  0  0  0
   16.3737   -3.9060  -16.7949 C   0  0  0  0  0  0  0  0  0  0  0  0
   17.6039   -4.5991  -16.2382 C   0  0  2  0  0  0  0  0  0  0  0  0
   17.1707   -5.7973  -15.5500 N   0  0  0  0  0  0  0  0  0  0  0  0
   18.3230   -3.7493  -15.2685 C   0  0  0  0  0  0  0  0  0  0  0  0
   19.2603   -2.8029  -15.6518 O   0  0  0  0  0  0  0  0  0  0  0  0
   18.0934   -3.8704  -14.0462 O   0  0  0  0  0  0  0  0  0  0  0  0
  2  1  1  0
  2  4  1  0
  3  2  2  0
  5  4  1  0
  6  5  1  0
  6  7  1  1
  8  6  1  0
  8  9  2  0
 10 11  1  0
 11 13  1  0
 11 12  2  0
 14 13  1  1
 14 16  1  0
 14 15  1  0
 15  8  1  0
 16 20  1  0
 17 16  2  0
 19 18  1  1
 19 21  1  0
 20 19  1  0
 21 23  2  0
 21 22  1  0
M  END
$$$$
