QNA.pdb
     RDKit          3D

 23 22  0  0  1  0  0  0  0  0999 V2000
   17.5627  -12.3155  -14.1270 N   0  0  0  0  0  0  0  0  0  0  0  0
   17.5100  -13.2652  -15.1809 C   0  0  0  0  0  0  0  0  0  0  0  0
   16.9215  -14.3642  -15.0189 O   0  0  0  0  0  0  0  0  0  0  0  0
   18.1380  -12.9845  -16.4730 C   0  0  0  0  0  0  0  0  0  0  0  0
   18.8881  -11.6682  -16.4840 C   0  0  0  0  0  0  0  0  0  0  0  0
   17.8855  -10.6107  -16.8841 C   0  0  2  0  0  0  0  0  0  0  0  0
   17.3415  -11.0196  -18.1653 N   0  0  0  0  0  0  0  0  0  0  0  0
   18.4656   -9.2694  -16.9833 C   0  0  0  0  0  0  0  0  0  0  0  0
   19.4024   -8.9630  -17.7684 O   0  0  0  0  0  0  0  0  0  0  0  0
   17.8448   -3.5105  -17.0489 N   0  0  0  0  0  0  0  0  0  0  0  0
   17.8829   -4.4537  -15.9767 C   0  0  0  0  0  0  0  0  0  0  0  0
   18.3313   -4.0222  -14.8930 O   0  0  0  0  0  0  0  0  0  0  0  0
   17.4272   -5.8444  -16.1250 C   0  0  0  0  0  0  0  0  0  0  0  0
   18.5175   -6.8721  -16.1421 C   0  0  2  0  0  0  0  0  0  0  0  0
   17.9622   -8.2307  -16.1571 N   0  0  0  0  0  0  0  0  0  0  0  0
   19.5453   -6.7180  -15.1132 C   0  0  0  0  0  0  0  0  0  0  0  0
   19.4251   -6.9555  -13.8912 O   0  0  0  0  0  0  0  0  0  0  0  0
   23.2063   -5.9270  -15.4328 C   0  0  0  0  0  0  0  0  0  0  0  0
   21.9433   -6.1043  -14.6098 C   0  0  2  0  0  0  0  0  0  0  0  0
   20.8293   -6.2492  -15.5235 N   0  0  0  0  0  0  0  0  0  0  0  0
   21.6791   -4.9349  -13.7482 C   0  0  0  0  0  0  0  0  0  0  0  0
   20.8421   -3.8976  -14.1283 O   0  0  0  0  0  0  0  0  0  0  0  0
   22.2212   -4.8555  -12.6251 O   0  0  0  0  0  0  0  0  0  0  0  0
  2  1  1  0
  2  4  1  0
  3  2  2  0
  5  4  1  0
  6  5  1  0
  6  7  1  6
  8  6  1  0
  8  9  2  0
 10 11  1  0
 11 13  1  0
 11 12  2  0
 14 13  1  1
 14 16  1  0
 14 15  1  0
 15  8  1  0
 16 20  1  0
 17 16  2  0
 19 18  1  6
 19 21  1  0
 20 19  1  0
 21 23  2  0
 21 22  1  0
M  END
$$$$
