QNA.pdb
     RDKit          3D

 23 22  0  0  1  0  0  0  0  0999 V2000
   20.3354  -15.8326  -16.7974 N   0  0  0  0  0  0  0  0  0  0  0  0
   19.2148  -15.3253  -17.5063 C   0  0  0  0  0  0  0  0  0  0  0  0
   18.4824  -16.0969  -18.1759 O   0  0  0  0  0  0  0  0  0  0  0  0
   18.8910  -13.8981  -17.4716 C   0  0  0  0  0  0  0  0  0  0  0  0
   19.8682  -13.0979  -16.6348 C   0  0  0  0  0  0  0  0  0  0  0  0
   19.0496  -12.0634  -15.8980 C   0  0  2  0  0  0  0  0  0  0  0  0
   17.6579  -12.3544  -16.1865 N   0  0  0  0  0  0  0  0  0  0  0  0
   19.3712  -10.6873  -16.2831 C   0  0  0  0  0  0  0  0  0  0  0  0
   20.2587  -10.3796  -17.1230 O   0  0  0  0  0  0  0  0  0  0  0  0
   17.0757   -8.7297  -18.1155 N   0  0  0  0  0  0  0  0  0  0  0  0
   16.7754   -7.7199  -17.1506 C   0  0  0  0  0  0  0  0  0  0  0  0
   15.6934   -7.1174  -17.3177 O   0  0  0  0  0  0  0  0  0  0  0  0
   17.6722   -7.4003  -16.0294 C   0  0  0  0  0  0  0  0  0  0  0  0
   18.9370   -8.2021  -15.9785 C   0  0  2  0  0  0  0  0  0  0  0  0
   18.6560   -9.6137  -15.6907 N   0  0  0  0  0  0  0  0  0  0  0  0
   19.9861   -7.6702  -15.1095 C   0  0  0  0  0  0  0  0  0  0  0  0
   20.0744   -7.8075  -13.8695 O   0  0  0  0  0  0  0  0  0  0  0  0
   23.2229   -5.9847  -16.0278 C   0  0  0  0  0  0  0  0  0  0  0  0
   22.2268   -6.5083  -15.0094 C   0  0  2  0  0  0  0  0  0  0  0  0
   21.0305   -6.9118  -15.7186 N   0  0  0  0  0  0  0  0  0  0  0  0
   21.8488   -5.4734  -14.0266 C   0  0  0  0  0  0  0  0  0  0  0  0
   20.6470   -4.7855  -14.0873 O   0  0  0  0  0  0  0  0  0  0  0  0
   22.6286   -5.1891  -13.0926 O   0  0  0  0  0  0  0  0  0  0  0  0
  2  1  1  0
  2  4  1  0
  3  2  2  0
  5  4  1  0
  6  5  1  0
  6  7  1  6
  8  6  1  0
  8  9  2  0
 10 11  1  0
 11 13  1  0
 11 12  2  0
 14 13  1  1
 14 16  1  0
 14 15  1  0
 15  8  1  0
 16 20  1  0
 17 16  2  0
 19 18  1  6
 19 21  1  0
 20 19  1  0
 21 23  2  0
 21 22  1  0
M  END
$$$$
