QNA.pdb
     RDKit          3D

 23 22  0  0  1  0  0  0  0  0999 V2000
   29.1612   -7.4223  -18.8996 N   0  0  0  0  0  0  0  0  0  0  0  0
   29.2383   -8.8157  -18.6391 C   0  0  0  0  0  0  0  0  0  0  0  0
   28.5254   -9.6249  -19.2851 O   0  0  0  0  0  0  0  0  0  0  0  0
   30.1468   -9.3365  -17.6161 C   0  0  0  0  0  0  0  0  0  0  0  0
   30.9725   -8.2486  -16.9602 C   0  0  0  0  0  0  0  0  0  0  0  0
   32.2871   -8.2055  -17.7041 C   0  0  2  0  0  0  0  0  0  0  0  0
   32.8326   -9.5490  -17.6591 N   0  0  0  0  0  0  0  0  0  0  0  0
   33.2426   -7.2501  -17.1385 C   0  0  0  0  0  0  0  0  0  0  0  0
   32.9780   -6.0391  -16.9118 O   0  0  0  0  0  0  0  0  0  0  0  0
   34.6071   -6.2316  -13.6757 N   0  0  0  0  0  0  0  0  0  0  0  0
   35.7091   -7.1243  -13.8473 C   0  0  0  0  0  0  0  0  0  0  0  0
   36.1225   -7.6790  -12.8066 O   0  0  0  0  0  0  0  0  0  0  0  0
   36.3260   -7.3827  -15.1574 C   0  0  0  0  0  0  0  0  0  0  0  0
   35.6058   -6.7857  -16.3280 C   0  0  2  0  0  0  0  0  0  0  0  0
   34.5544   -7.6861  -16.8161 N   0  0  0  0  0  0  0  0  0  0  0  0
   36.4584   -6.3079  -17.4158 C   0  0  0  0  0  0  0  0  0  0  0  0
   36.8520   -6.9651  -18.4045 O   0  0  0  0  0  0  0  0  0  0  0  0
   37.6003   -2.8292  -18.2413 C   0  0  0  0  0  0  0  0  0  0  0  0
   37.6682   -4.3342  -18.4264 C   0  0  2  0  0  0  0  0  0  0  0  0
   36.8996   -4.9515  -17.3658 N   0  0  0  0  0  0  0  0  0  0  0  0
   39.0535   -4.8375  -18.3399 C   0  0  0  0  0  0  0  0  0  0  0  0
   39.8881   -4.9284  -19.4428 O   0  0  0  0  0  0  0  0  0  0  0  0
   39.5144   -5.2021  -17.2372 O   0  0  0  0  0  0  0  0  0  0  0  0
  2  1  1  0
  2  4  1  0
  3  2  2  0
  5  4  1  0
  6  5  1  0
  6  7  1  1
  8  6  1  0
  8  9  2  0
 10 11  1  0
 11 13  1  0
 11 12  2  0
 14 13  1  1
 14 16  1  0
 14 15  1  0
 15  8  1  0
 16 20  1  0
 17 16  2  0
 19 18  1  1
 19 21  1  0
 20 19  1  0
 21 23  2  0
 21 22  1  0
M  END
$$$$
