QNA.pdb
     RDKit          3D

 23 22  0  0  1  0  0  0  0  0999 V2000
   14.6963  -10.9826  -14.5081 N   0  0  0  0  0  0  0  0  0  0  0  0
   15.3743  -11.8983  -15.3550 C   0  0  0  0  0  0  0  0  0  0  0  0
   14.7500  -12.5162  -16.2543 O   0  0  0  0  0  0  0  0  0  0  0  0
   16.8095  -12.1404  -15.1984 C   0  0  0  0  0  0  0  0  0  0  0  0
   17.4143  -11.3474  -14.0578 C   0  0  0  0  0  0  0  0  0  0  0  0
   18.0173  -10.1069  -14.6750 C   0  0  2  0  0  0  0  0  0  0  0  0
   19.1306  -10.5505  -15.4926 N   0  0  0  0  0  0  0  0  0  0  0  0
   18.4726   -9.1287  -13.6843 C   0  0  0  0  0  0  0  0  0  0  0  0
   18.5147   -9.3488  -12.4443 O   0  0  0  0  0  0  0  0  0  0  0  0
   22.0211   -4.9682  -12.0977 N   0  0  0  0  0  0  0  0  0  0  0  0
   20.9131   -4.8473  -12.9912 C   0  0  0  0  0  0  0  0  0  0  0  0
   20.3697   -3.7225  -13.0292 O   0  0  0  0  0  0  0  0  0  0  0  0
   20.4331   -5.9652  -13.8179 C   0  0  0  0  0  0  0  0  0  0  0  0
   19.3478   -6.7929  -13.1993 C   0  0  2  0  0  0  0  0  0  0  0  0
   18.8986   -7.8459  -14.1179 N   0  0  0  0  0  0  0  0  0  0  0  0
   18.2225   -6.0429  -12.6428 C   0  0  0  0  0  0  0  0  0  0  0  0
   17.2904   -5.5054  -13.2804 O   0  0  0  0  0  0  0  0  0  0  0  0
   17.1137   -5.5911   -9.0858 C   0  0  0  0  0  0  0  0  0  0  0  0
   17.0832   -5.1997  -10.5519 C   0  0  2  0  0  0  0  0  0  0  0  0
   18.1599   -5.8963  -11.2245 N   0  0  0  0  0  0  0  0  0  0  0  0
   17.2891   -3.7498  -10.7391 C   0  0  0  0  0  0  0  0  0  0  0  0
   18.4167   -3.2258  -11.3516 O   0  0  0  0  0  0  0  0  0  0  0  0
   16.4244   -2.9424  -10.3370 O   0  0  0  0  0  0  0  0  0  0  0  0
  2  1  1  0
  2  4  1  0
  3  2  2  0
  5  4  1  0
  6  5  1  0
  6  7  1  1
  8  6  1  0
  8  9  2  0
 10 11  1  0
 11 13  1  0
 11 12  2  0
 14 13  1  6
 14 16  1  0
 14 15  1  0
 15  8  1  0
 16 20  1  0
 17 16  2  0
 19 18  1  1
 19 21  1  0
 20 19  1  0
 21 23  2  0
 21 22  1  0
M  END
$$$$
