QNA.pdb
     RDKit          3D

 23 22  0  0  1  0  0  0  0  0999 V2000
   16.3526  -13.4368  -15.8935 N   0  0  0  0  0  0  0  0  0  0  0  0
   17.6494  -13.1259  -15.4066 C   0  0  0  0  0  0  0  0  0  0  0  0
   18.4730  -14.0425  -15.1580 O   0  0  0  0  0  0  0  0  0  0  0  0
   18.0519  -11.7361  -15.1848 C   0  0  0  0  0  0  0  0  0  0  0  0
   16.9416  -10.7511  -15.4887 C   0  0  0  0  0  0  0  0  0  0  0  0
   17.5120   -9.3752  -15.2338 C   0  0  2  0  0  0  0  0  0  0  0  0
   18.8551   -9.5721  -14.7221 N   0  0  0  0  0  0  0  0  0  0  0  0
   16.7194   -8.5844  -14.2893 C   0  0  0  0  0  0  0  0  0  0  0  0
   15.4872   -8.3560  -14.4216 O   0  0  0  0  0  0  0  0  0  0  0  0
   17.1867   -5.7826   -8.9234 N   0  0  0  0  0  0  0  0  0  0  0  0
   16.4161   -6.6633   -9.7426 C   0  0  0  0  0  0  0  0  0  0  0  0
   15.1854   -6.6649   -9.5255 O   0  0  0  0  0  0  0  0  0  0  0  0
   17.0189   -7.5176  -10.7771 C   0  0  0  0  0  0  0  0  0  0  0  0
   16.6594   -7.1585  -12.1868 C   0  0  2  0  0  0  0  0  0  0  0  0
   17.3506   -8.0286  -13.1458 N   0  0  0  0  0  0  0  0  0  0  0  0
   16.8052   -5.7455  -12.5342 C   0  0  0  0  0  0  0  0  0  0  0  0
   17.8705   -5.0926  -12.5895 O   0  0  0  0  0  0  0  0  0  0  0  0
   14.2618   -3.2857  -13.8114 C   0  0  0  0  0  0  0  0  0  0  0  0
   15.6395   -3.6310  -13.2764 C   0  0  2  0  0  0  0  0  0  0  0  0
   15.6205   -5.0140  -12.8478 N   0  0  0  0  0  0  0  0  0  0  0  0
   16.0036   -2.7969  -12.1139 C   0  0  0  0  0  0  0  0  0  0  0  0
   16.7198   -1.6163  -12.2334 O   0  0  0  0  0  0  0  0  0  0  0  0
   15.6625   -3.1497  -10.9647 O   0  0  0  0  0  0  0  0  0  0  0  0
  2  1  1  0
  2  4  1  0
  3  2  2  0
  5  4  1  0
  6  5  1  0
  6  7  1  1
  8  6  1  0
  8  9  2  0
 10 11  1  0
 11 13  1  0
 11 12  2  0
 14 13  1  1
 14 16  1  0
 14 15  1  0
 15  8  1  0
 16 20  1  0
 17 16  2  0
 19 18  1  1
 19 21  1  0
 20 19  1  0
 21 23  2  0
 21 22  1  0
M  END
$$$$
