QNA.pdb
     RDKit          3D

 23 22  0  0  1  0  0  0  0  0999 V2000
   11.4522   -8.6334   -8.0351 N   0  0  0  0  0  0  0  0  0  0  0  0
   11.8683   -9.8206   -8.6929 C   0  0  0  0  0  0  0  0  0  0  0  0
   11.1783  -10.8684   -8.6128 O   0  0  0  0  0  0  0  0  0  0  0  0
   13.1053   -9.8482   -9.4752 C   0  0  0  0  0  0  0  0  0  0  0  0
   13.8752   -8.5457   -9.3961 C   0  0  0  0  0  0  0  0  0  0  0  0
   15.1224   -8.7378  -10.2274 C   0  0  2  0  0  0  0  0  0  0  0  0
   15.8555   -9.8361   -9.6265 N   0  0  0  0  0  0  0  0  0  0  0  0
   15.9648   -7.5413  -10.2945 C   0  0  0  0  0  0  0  0  0  0  0  0
   16.7710   -7.1954   -9.3900 O   0  0  0  0  0  0  0  0  0  0  0  0
   18.4562   -7.1813  -14.2299 N   0  0  0  0  0  0  0  0  0  0  0  0
   18.3924   -6.3578  -13.0644 C   0  0  0  0  0  0  0  0  0  0  0  0
   19.2908   -6.5498  -12.2171 O   0  0  0  0  0  0  0  0  0  0  0  0
   17.3437   -5.3464  -12.8623 C   0  0  0  0  0  0  0  0  0  0  0  0
   16.6208   -5.4332  -11.5526 C   0  0  2  0  0  0  0  0  0  0  0  0
   15.8901   -6.7009  -11.4360 N   0  0  0  0  0  0  0  0  0  0  0  0
   15.7742   -4.2874  -11.2227 C   0  0  0  0  0  0  0  0  0  0  0  0
   14.8687   -3.7949  -11.9310 O   0  0  0  0  0  0  0  0  0  0  0  0
   15.4484   -2.3185   -8.0390 C   0  0  0  0  0  0  0  0  0  0  0  0
   15.2228   -2.4959   -9.5294 C   0  0  2  0  0  0  0  0  0  0  0  0
   15.9849   -3.6477   -9.9643 N   0  0  0  0  0  0  0  0  0  0  0  0
   15.6851   -1.3242  -10.2995 C   0  0  0  0  0  0  0  0  0  0  0  0
   16.7932   -1.3636  -11.1311 O   0  0  0  0  0  0  0  0  0  0  0  0
   15.0674   -0.2414  -10.2140 O   0  0  0  0  0  0  0  0  0  0  0  0
  2  1  1  0
  2  4  1  0
  3  2  2  0
  5  4  1  0
  6  5  1  0
  6  7  1  1
  8  6  1  0
  8  9  2  0
 10 11  1  0
 11 13  1  0
 11 12  2  0
 14 13  1  6
 14 16  1  0
 14 15  1  0
 15  8  1  0
 16 20  1  0
 17 16  2  0
 19 18  1  1
 19 21  1  0
 20 19  1  0
 21 23  2  0
 21 22  1  0
M  END
$$$$
