QNA.pdb
     RDKit          3D

 23 22  0  0  1  0  0  0  0  0999 V2000
   24.9917  -21.0442   -9.7878 N   0  0  0  0  0  0  0  0  0  0  0  0
   26.2550  -20.5538   -9.3647 C   0  0  0  0  0  0  0  0  0  0  0  0
   26.6154  -20.6727   -8.1662 O   0  0  0  0  0  0  0  0  0  0  0  0
   27.1602  -19.9019  -10.3126 C   0  0  0  0  0  0  0  0  0  0  0  0
   26.5713  -19.7976  -11.7047 C   0  0  0  0  0  0  0  0  0  0  0  0
   27.0663  -21.0045  -12.4674 C   0  0  2  0  0  0  0  0  0  0  0  0
   28.4212  -20.7015  -12.8881 N   0  0  0  0  0  0  0  0  0  0  0  0
   26.2367  -21.3378  -13.6277 C   0  0  0  0  0  0  0  0  0  0  0  0
   26.2697  -20.7118  -14.7208 O   0  0  0  0  0  0  0  0  0  0  0  0
   23.7106  -25.5132  -16.7899 N   0  0  0  0  0  0  0  0  0  0  0  0
   23.2365  -24.7429  -15.6842 C   0  0  0  0  0  0  0  0  0  0  0  0
   22.0118  -24.4940  -15.6845 O   0  0  0  0  0  0  0  0  0  0  0  0
   24.1209  -24.2677  -14.6093 C   0  0  0  0  0  0  0  0  0  0  0  0
   24.4160  -22.7987  -14.6317 C   0  0  2  0  0  0  0  0  0  0  0  0
   25.3307  -22.4274  -13.5455 N   0  0  0  0  0  0  0  0  0  0  0  0
   23.2468  -21.9216  -14.6793 C   0  0  0  0  0  0  0  0  0  0  0  0
   22.4959  -21.6198  -13.7257 O   0  0  0  0  0  0  0  0  0  0  0  0
   21.9405  -19.7446  -17.4504 C   0  0  0  0  0  0  0  0  0  0  0  0
   21.7863  -20.4365  -16.1083 C   0  0  2  0  0  0  0  0  0  0  0  0
   22.9079  -21.3359  -15.9359 N   0  0  0  0  0  0  0  0  0  0  0  0
   20.5457  -21.2340  -16.0394 C   0  0  0  0  0  0  0  0  0  0  0  0
   19.2988  -20.6642  -15.8353 O   0  0  0  0  0  0  0  0  0  0  0  0
   20.5974  -22.4758  -16.1680 O   0  0  0  0  0  0  0  0  0  0  0  0
  2  1  1  0
  2  4  1  0
  3  2  2  0
  5  4  1  0
  6  5  1  0
  6  7  1  6
  8  6  1  0
  8  9  2  0
 10 11  1  0
 11 13  1  0
 11 12  2  0
 14 13  1  1
 14 16  1  0
 14 15  1  0
 15  8  1  0
 16 20  1  0
 17 16  2  0
 19 18  1  6
 19 21  1  0
 20 19  1  0
 21 23  2  0
 21 22  1  0
M  END
$$$$
