QNA.pdb
     RDKit          3D

 23 22  0  0  1  0  0  0  0  0999 V2000
   24.4098  -20.5292  -10.4962 N   0  0  0  0  0  0  0  0  0  0  0  0
   25.6116  -21.0821   -9.9809 C   0  0  0  0  0  0  0  0  0  0  0  0
   25.6425  -21.5712   -8.8232 O   0  0  0  0  0  0  0  0  0  0  0  0
   26.8349  -21.0936  -10.7848 C   0  0  0  0  0  0  0  0  0  0  0  0
   26.7059  -20.2789  -12.0557 C   0  0  0  0  0  0  0  0  0  0  0  0
   25.8344  -21.0847  -12.9909 C   0  0  2  0  0  0  0  0  0  0  0  0
   26.7263  -21.7278  -13.9371 N   0  0  0  0  0  0  0  0  0  0  0  0
   24.8403  -20.2752  -13.6994 C   0  0  0  0  0  0  0  0  0  0  0  0
   24.9865  -19.0518  -13.9636 O   0  0  0  0  0  0  0  0  0  0  0  0
   21.9225  -19.0082  -18.1390 N   0  0  0  0  0  0  0  0  0  0  0  0
   21.5530  -19.9825  -17.1618 C   0  0  0  0  0  0  0  0  0  0  0  0
   20.3303  -20.2266  -17.0775 O   0  0  0  0  0  0  0  0  0  0  0  0
   22.5369  -20.6613  -16.3046 C   0  0  0  0  0  0  0  0  0  0  0  0
   22.5993  -20.1646  -14.8922 C   0  0  2  0  0  0  0  0  0  0  0  0
   23.6284  -20.8782  -14.1267 N   0  0  0  0  0  0  0  0  0  0  0  0
   21.3225  -20.1273  -14.1801 C   0  0  0  0  0  0  0  0  0  0  0  0
   20.7624  -21.0795  -13.5937 O   0  0  0  0  0  0  0  0  0  0  0  0
   19.3334  -17.2558  -12.9329 C   0  0  0  0  0  0  0  0  0  0  0  0
   19.3909  -18.6990  -13.3995 C   0  0  2  0  0  0  0  0  0  0  0  0
   20.6241  -18.8835  -14.1357 N   0  0  0  0  0  0  0  0  0  0  0  0
   18.2676  -19.0322  -14.2979 C   0  0  0  0  0  0  0  0  0  0  0  0
   16.9957  -19.3243  -13.8310 O   0  0  0  0  0  0  0  0  0  0  0  0
   18.4473  -19.0579  -15.5342 O   0  0  0  0  0  0  0  0  0  0  0  0
  2  1  1  0
  2  4  1  0
  3  2  2  0
  5  4  1  0
  6  5  1  0
  6  7  1  6
  8  6  1  0
  8  9  2  0
 10 11  1  0
 11 13  1  0
 11 12  2  0
 14 13  1  6
 14 16  1  0
 14 15  1  0
 15  8  1  0
 16 20  1  0
 17 16  2  0
 19 18  1  6
 19 21  1  0
 20 19  1  0
 21 23  2  0
 21 22  1  0
M  END
$$$$
