QNA.pdb
     RDKit          3D

 23 22  0  0  1  0  0  0  0  0999 V2000
   14.5254  -12.6019  -15.3136 N   0  0  0  0  0  0  0  0  0  0  0  0
   15.8923  -12.9658  -15.1926 C   0  0  0  0  0  0  0  0  0  0  0  0
   16.2894  -14.0906  -15.5894 O   0  0  0  0  0  0  0  0  0  0  0  0
   16.8634  -12.0414  -14.6051 C   0  0  0  0  0  0  0  0  0  0  0  0
   16.2207  -10.7709  -14.0871 C   0  0  0  0  0  0  0  0  0  0  0  0
   17.1591   -9.6424  -14.4466 C   0  0  2  0  0  0  0  0  0  0  0  0
   18.4581   -9.9959  -13.9061 N   0  0  0  0  0  0  0  0  0  0  0  0
   16.7292   -8.3424  -13.9263 C   0  0  0  0  0  0  0  0  0  0  0  0
   15.5819   -7.8544  -14.1095 O   0  0  0  0  0  0  0  0  0  0  0  0
   15.9240   -7.5230  -10.3838 N   0  0  0  0  0  0  0  0  0  0  0  0
   17.1031   -6.7557  -10.1357 C   0  0  0  0  0  0  0  0  0  0  0  0
   17.4459   -6.6638   -8.9375 O   0  0  0  0  0  0  0  0  0  0  0  0
   17.8725   -6.1109  -11.2108 C   0  0  0  0  0  0  0  0  0  0  0  0
   17.2927   -6.2593  -12.5845 C   0  0  2  0  0  0  0  0  0  0  0  0
   17.6387   -7.5620  -13.1656 N   0  0  0  0  0  0  0  0  0  0  0  0
   17.5732   -5.1616  -13.5091 C   0  0  0  0  0  0  0  0  0  0  0  0
   18.6825   -4.8612  -14.0026 O   0  0  0  0  0  0  0  0  0  0  0  0
   15.2332   -2.7956  -15.2625 C   0  0  0  0  0  0  0  0  0  0  0  0
   16.6230   -3.2382  -14.8427 C   0  0  2  0  0  0  0  0  0  0  0  0
   16.4811   -4.3325  -13.9051 N   0  0  0  0  0  0  0  0  0  0  0  0
   17.3666   -2.1539  -14.1710 C   0  0  0  0  0  0  0  0  0  0  0  0
   17.9915   -1.1309  -14.8667 O   0  0  0  0  0  0  0  0  0  0  0  0
   17.4491   -2.1368  -12.9242 O   0  0  0  0  0  0  0  0  0  0  0  0
  2  1  1  0
  2  4  1  0
  3  2  2  0
  5  4  1  0
  6  5  1  0
  6  7  1  1
  8  6  1  0
  8  9  2  0
 10 11  1  0
 11 13  1  0
 11 12  2  0
 14 13  1  1
 14 16  1  0
 14 15  1  0
 15  8  1  0
 16 20  1  0
 17 16  2  0
 19 18  1  1
 19 21  1  0
 20 19  1  0
 21 23  2  0
 21 22  1  0
M  END
$$$$
