NRE.pdb
     RDKit          3D

 29 28  0  0  1  0  0  0  0  0999 V2000
   19.4161  -12.2678  -18.4528 N   0  0  0  0  0  0  0  0  0  0  0  0
   18.7740  -11.1879  -17.7921 C   0  0  0  0  0  0  0  0  0  0  0  0
   17.6532  -10.8023  -18.1470 O   0  0  0  0  0  0  0  0  0  0  0  0
   19.4653  -10.5219  -16.6641 C   0  0  0  0  0  0  0  0  0  0  0  0
   20.8052  -11.1534  -16.4410 C   0  0  2  0  0  0  0  0  0  0  0  0
   20.6147  -12.3053  -15.5775 N   0  0  0  0  0  0  0  0  0  0  0  0
   21.7117  -10.1698  -15.7524 C   0  0  0  0  0  0  0  0  0  0  0  0
   21.4111   -9.6820  -14.6326 O   0  0  0  0  0  0  0  0  0  0  0  0
   27.2867  -13.6348  -16.0160 N   0  0  0  0  0  0  0  0  0  0  0  0
   27.0675  -12.7043  -17.0678 C   0  0  0  0  0  0  0  0  0  0  0  0
   26.7969  -13.1500  -18.2528 N   0  0  0  0  0  0  0  0  0  0  0  0
   27.1292  -11.3045  -16.8903 N   0  0  0  0  0  0  0  0  0  0  0  0
   27.0901  -10.7115  -15.5858 C   0  0  0  0  0  0  0  0  0  0  0  0
   25.6669  -10.4518  -15.1177 C   0  0  0  0  0  0  0  0  0  0  0  0
   25.1960   -9.2703  -15.9247 C   0  0  0  0  0  0  0  0  0  0  0  0
   23.7983   -8.8076  -15.6034 C   0  0  2  0  0  0  0  0  0  0  0  0
   22.9322   -9.7528  -16.3274 N   0  0  0  0  0  0  0  0  0  0  0  0
   23.5992   -7.4355  -16.0962 C   0  0  0  0  0  0  0  0  0  0  0  0
   23.7719   -7.0931  -17.2767 O   0  0  0  0  0  0  0  0  0  0  0  0
   26.6385  -12.5033  -19.0510 N   0  0  0  0  0  0  0  0  0  0  0  0
   23.1844   -6.4103  -15.1975 C   0  0  1  0  0  0  0  0  0  0  0  0
   22.7879   -5.0739  -15.6860 C   0  0  0  0  0  0  0  0  0  0  0  0
   21.7208   -5.3376  -16.7085 C   0  0  0  0  0  0  0  0  0  0  0  0
   21.0096   -4.1457  -17.2274 C   0  0  0  0  0  0  0  0  0  0  0  0
   19.9254   -4.4728  -18.1685 O   0  0  0  0  0  0  0  0  0  0  0  0
   19.6266   -5.6404  -18.4974 C   0  0  0  0  0  0  0  0  0  0  0  0
   22.2930   -4.3124  -14.5278 O   0  0  0  0  0  0  0  0  0  0  0  0
   22.1561   -2.9370  -14.5602 O   0  0  0  0  0  0  0  0  0  0  0  0
   19.1656   -3.4552  -18.7476 O   0  0  0  0  0  0  0  0  0  0  0  0
  2  1  1  0
  2  3  2  0
  4  5  1  0
  4  2  1  0
  5  7  1  0
  5  6  1  1
  7  8  2  0
 10  9  1  0
 11 10  2  0
 12 10  1  0
 13 14  1  0
 13 12  1  0
 16 15  1  6
 15 14  1  0
 16 17  1  0
 17  7  1  0
 18 19  2  0
 18 16  1  0
 20 18  1  0
 21 22  1  6
 21 20  1  0
 22 23  1  0
 23 24  1  0
 24 25  2  0
 26 21  1  0
 27 26  1  0
 28 24  1  0
 29 26  2  0
M  END
$$$$
