NRE.pdb
     RDKit          3D

 29 28  0  0  1  0  0  0  0  0999 V2000
   13.5594  -13.8226  -15.3579 N   0  0  0  0  0  0  0  0  0  0  0  0
   12.9388  -12.5488  -15.2705 C   0  0  0  0  0  0  0  0  0  0  0  0
   11.7449  -12.4028  -15.5606 O   0  0  0  0  0  0  0  0  0  0  0  0
   13.7420  -11.3869  -14.8249 C   0  0  0  0  0  0  0  0  0  0  0  0
   15.1437  -11.8198  -14.5224 C   0  0  2  0  0  0  0  0  0  0  0  0
   15.1133  -12.5967  -13.2958 N   0  0  0  0  0  0  0  0  0  0  0  0
   16.0064  -10.6055  -14.3117 C   0  0  0  0  0  0  0  0  0  0  0  0
   15.7396   -9.7662  -13.4135 O   0  0  0  0  0  0  0  0  0  0  0  0
   23.3925  -12.1978  -15.3337 N   0  0  0  0  0  0  0  0  0  0  0  0
   23.1086  -11.1433  -16.2433 C   0  0  0  0  0  0  0  0  0  0  0  0
   23.9345  -10.9126  -17.2131 N   0  0  0  0  0  0  0  0  0  0  0  0
   21.9625  -10.3236  -16.1470 N   0  0  0  0  0  0  0  0  0  0  0  0
   21.7767   -9.4201  -15.0497 C   0  0  0  0  0  0  0  0  0  0  0  0
   20.4748   -8.6427  -15.1626 C   0  0  0  0  0  0  0  0  0  0  0  0
   19.3958   -9.6906  -15.2433 C   0  0  0  0  0  0  0  0  0  0  0  0
   18.0392   -9.2323  -14.7736 C   0  0  2  0  0  0  0  0  0  0  0  0
   17.1463  -10.3546  -15.1065 N   0  0  0  0  0  0  0  0  0  0  0  0
   17.6419   -8.0163  -15.5006 C   0  0  0  0  0  0  0  0  0  0  0  0
   17.3001   -8.0049  -16.6939 O   0  0  0  0  0  0  0  0  0  0  0  0
   23.7235  -10.2077  -17.9474 N   0  0  0  0  0  0  0  0  0  0  0  0
   17.6359   -6.7579  -14.8320 C   0  0  2  0  0  0  0  0  0  0  0  0
   17.3151   -5.5074  -15.5497 C   0  0  0  0  0  0  0  0  0  0  0  0
   16.3268   -4.7995  -14.6688 C   0  0  0  0  0  0  0  0  0  0  0  0
   15.9585   -3.4244  -15.0801 C   0  0  0  0  0  0  0  0  0  0  0  0
   14.9592   -2.7964  -14.1998 O   0  0  0  0  0  0  0  0  0  0  0  0
   14.4869   -3.3526  -13.1856 C   0  0  0  0  0  0  0  0  0  0  0  0
   18.5724   -4.7600  -15.7126 O   0  0  0  0  0  0  0  0  0  0  0  0
   18.7469   -3.8318  -16.7222 O   0  0  0  0  0  0  0  0  0  0  0  0
   14.4864   -1.5123  -14.4755 O   0  0  0  0  0  0  0  0  0  0  0  0
  2  1  1  0
  2  3  2  0
  4  5  1  0
  4  2  1  0
  5  7  1  0
  5  6  1  1
  7  8  2  0
 10  9  1  0
 11 10  2  0
 12 10  1  0
 13 14  1  0
 13 12  1  0
 16 15  1  6
 15 14  1  0
 16 17  1  0
 17  7  1  0
 18 19  2  0
 18 16  1  0
 20 18  1  0
 21 22  1  1
 21 20  1  0
 22 23  1  0
 23 24  1  0
 24 25  2  0
 26 21  1  0
 27 26  1  0
 28 24  1  0
 29 26  2  0
M  END
$$$$
