NRE.pdb
     RDKit          3D

 29 28  0  0  1  0  0  0  0  0999 V2000
   24.3202  -21.0230   -9.2807 N   0  0  0  0  0  0  0  0  0  0  0  0
   25.3703  -20.1017   -9.5328 C   0  0  0  0  0  0  0  0  0  0  0  0
   25.9732  -19.5553   -8.6007 O   0  0  0  0  0  0  0  0  0  0  0  0
   25.7399  -19.7988  -10.9348 C   0  0  0  0  0  0  0  0  0  0  0  0
   24.8477  -20.5521  -11.8730 C   0  0  2  0  0  0  0  0  0  0  0  0
   25.0583  -21.9705  -11.6431 N   0  0  0  0  0  0  0  0  0  0  0  0
   25.2258  -20.2246  -13.2919 C   0  0  0  0  0  0  0  0  0  0  0  0
   25.0788  -19.0634  -13.7525 O   0  0  0  0  0  0  0  0  0  0  0  0
   29.7943  -25.0999  -16.9852 N   0  0  0  0  0  0  0  0  0  0  0  0
   29.2062  -24.2019  -17.9167 C   0  0  0  0  0  0  0  0  0  0  0  0
   28.7984  -24.6596  -19.0570 N   0  0  0  0  0  0  0  0  0  0  0  0
   29.0402  -22.8221  -17.6650 N   0  0  0  0  0  0  0  0  0  0  0  0
   29.4034  -22.2404  -16.4062 C   0  0  0  0  0  0  0  0  0  0  0  0
   28.4385  -21.1440  -15.9827 C   0  0  0  0  0  0  0  0  0  0  0  0
   27.0750  -21.7828  -16.0210 C   0  0  0  0  0  0  0  0  0  0  0  0
   25.9471  -20.8811  -15.5897 C   0  0  2  0  0  0  0  0  0  0  0  0
   25.7591  -21.1985  -14.1644 N   0  0  0  0  0  0  0  0  0  0  0  0
   24.7325  -21.1955  -16.3586 C   0  0  0  0  0  0  0  0  0  0  0  0
   24.2222  -22.3257  -16.4133 O   0  0  0  0  0  0  0  0  0  0  0  0
   28.4447  -24.0243  -19.7998 N   0  0  0  0  0  0  0  0  0  0  0  0
   24.0736  -20.1707  -17.0977 C   0  0  1  0  0  0  0  0  0  0  0  0
   22.6266  -20.2401  -17.3860 C   0  0  0  0  0  0  0  0  0  0  0  0
   21.9657  -20.2756  -16.0385 C   0  0  0  0  0  0  0  0  0  0  0  0
   20.4846  -20.2323  -16.0400 C   0  0  0  0  0  0  0  0  0  0  0  0
   19.8972  -20.1966  -14.6903 O   0  0  0  0  0  0  0  0  0  0  0  0
   19.8163  -21.1973  -13.9467 C   0  0  0  0  0  0  0  0  0  0  0  0
   22.2758  -19.0399  -18.1624 O   0  0  0  0  0  0  0  0  0  0  0  0
   21.0938  -18.9475  -18.8736 O   0  0  0  0  0  0  0  0  0  0  0  0
   19.3915  -19.0023  -14.1743 O   0  0  0  0  0  0  0  0  0  0  0  0
  2  1  1  0
  2  3  2  0
  4  5  1  0
  4  2  1  0
  5  7  1  0
  5  6  1  6
  7  8  2  0
 10  9  1  0
 11 10  2  0
 12 10  1  0
 13 14  1  0
 13 12  1  0
 16 15  1  6
 15 14  1  0
 16 17  1  0
 17  7  1  0
 18 19  2  0
 18 16  1  0
 20 18  1  0
 21 22  1  6
 21 20  1  0
 22 23  1  0
 23 24  1  0
 24 25  2  0
 26 21  1  0
 27 26  1  0
 28 24  1  0
 29 26  2  0
M  END
$$$$
