NRE.pdb
     RDKit          3D

 29 28  0  0  1  0  0  0  0  0999 V2000
1752124.5000-2387050.25002215663.5000 N   0  0  0  0  0  0  0  0  0  0  0  0
1752125.3750-2387050.75002215663.7500 C   0  0  0  0  0  0  0  0  0  0  0  0
1752125.3750-2387052.25002215664.7500 O   0  0  0  0  0  0  0  0  0  0  0  0
1752124.2500-2387052.00002215664.5000 C   0  0  0  0  0  0  0  0  0  0  0  0
1752123.3750-2387052.25002215664.2500 C   0  0  1  0  0  0  0  0  0  0  0  0
1752122.1250-2387053.00002215663.5000 N   0  0  0  0  0  0  0  0  0  0  0  0
1752122.1250-2387051.50002215665.2500 C   0  0  0  0  0  0  0  0  0  0  0  0
1752121.5000-2387050.25002215665.5000 O   0  0  0  0  0  0  0  0  0  0  0  0
1752116.8750-2387048.00002215666.2500 N   0  0  0  0  0  0  0  0  0  0  0  0
1752116.1250-2387048.25002215666.0000 C   0  0  0  0  0  0  0  0  0  0  0  0
1752115.6250-2387050.50002215666.7500 N   0  0  0  0  0  0  0  0  0  0  0  0
1752116.6250-2387048.75002215664.2500 N   0  0  0  0  0  0  0  0  0  0  0  0
1752117.3750-2387048.25002215663.2500 C   0  0  0  0  0  0  0  0  0  0  0  0
1752118.5000-2387048.50002215664.0000 C   0  0  0  0  0  0  0  0  0  0  0  0
1752119.5000-2387051.00002215663.5000 C   0  0  0  0  0  0  0  0  0  0  0  0
1752120.1250-2387050.50002215663.0000 C   0  0  1  0  0  0  0  0  0  0  0  0
1752120.3750-2387051.75002215663.7500 N   0  0  0  0  0  0  0  0  0  0  0  0
1752121.7500-2387050.25002215662.0000 C   0  0  0  0  0  0  0  0  0  0  0  0
1752121.1250-2387050.25002215661.5000 O   0  0  0  0  0  0  0  0  0  0  0  0
1752116.3750-2387050.75002215666.7500 N   0  0  0  0  0  0  0  0  0  0  0  0
1752123.1250-2387050.50002215662.5000 C   0  0  2  0  0  0  0  0  0  0  0  0
1752123.0000-2387049.00002215661.5000 C   0  0  0  0  0  0  0  0  0  0  0  0
1752123.5000-2387049.75002215660.0000 C   0  0  0  0  0  0  0  0  0  0  0  0
1752124.8750-2387048.00002215659.7500 C   0  0  0  0  0  0  0  0  0  0  0  0
1752125.2500-2387049.00002215658.0000 O   0  0  0  0  0  0  0  0  0  0  0  0
1752125.8750-2387048.00002215657.5000 C   0  0  0  0  0  0  0  0  0  0  0  0
1752122.6250-2387047.25002215661.2500 O   0  0  0  0  0  0  0  0  0  0  0  0
1752123.1250-2387046.75002215661.5000 O   0  0  0  0  0  0  0  0  0  0  0  0
1752127.1250-2387046.50002215659.0000 O   0  0  0  0  0  0  0  0  0  0  0  0
  2  1  1  0
  2  3  2  0
  4  5  1  0
  4  2  1  0
  5  7  1  0
  5  6  1  6
  7  8  2  0
 10  9  1  0
 11 10  2  0
 12 10  1  0
 13 14  1  0
 13 12  1  0
 16 15  1  1
 15 14  1  0
 16 17  1  0
 17  7  1  0
 18 19  2  0
 18 16  1  0
 20 18  1  0
 21 22  1  6
 21 20  1  0
 22 23  1  0
 23 24  1  0
 24 25  2  0
 26 21  1  0
 27 26  1  0
 28 24  1  0
 29 26  2  0
M  END
$$$$
