NRE.pdb
     RDKit          3D

 29 28  0  0  1  0  0  0  0  0999 V2000
   17.7724  -27.0426  -10.0327 N   0  0  0  0  0  0  0  0  0  0  0  0
   18.7990  -26.1794   -9.5679 C   0  0  0  0  0  0  0  0  0  0  0  0
   19.3018  -26.3358   -8.4482 O   0  0  0  0  0  0  0  0  0  0  0  0
   19.2660  -25.0806  -10.4443 C   0  0  0  0  0  0  0  0  0  0  0  0
   18.5650  -25.1478  -11.7664 C   0  0  2  0  0  0  0  0  0  0  0  0
   19.0859  -26.2958  -12.4872 N   0  0  0  0  0  0  0  0  0  0  0  0
   18.8620  -23.8999  -12.5525 C   0  0  0  0  0  0  0  0  0  0  0  0
   18.5849  -22.7615  -12.0948 O   0  0  0  0  0  0  0  0  0  0  0  0
   25.1157  -24.7334  -14.6640 N   0  0  0  0  0  0  0  0  0  0  0  0
   24.0844  -25.4155  -15.3649 C   0  0  0  0  0  0  0  0  0  0  0  0
   23.9849  -26.7001  -15.2395 N   0  0  0  0  0  0  0  0  0  0  0  0
   23.1515  -24.7624  -16.2003 N   0  0  0  0  0  0  0  0  0  0  0  0
   23.0720  -23.3325  -16.2616 C   0  0  0  0  0  0  0  0  0  0  0  0
   22.1947  -22.7604  -15.1591 C   0  0  0  0  0  0  0  0  0  0  0  0
   20.7827  -23.0859  -15.5703 C   0  0  0  0  0  0  0  0  0  0  0  0
   19.7308  -22.7008  -14.5622 C   0  0  2  0  0  0  0  0  0  0  0  0
   19.4610  -23.9495  -13.8303 N   0  0  0  0  0  0  0  0  0  0  0  0
   18.5209  -22.2309  -15.2555 C   0  0  0  0  0  0  0  0  0  0  0  0
   17.4465  -22.8524  -15.2689 O   0  0  0  0  0  0  0  0  0  0  0  0
   23.3032  -27.2475  -15.8017 N   0  0  0  0  0  0  0  0  0  0  0  0
   18.5423  -20.9952  -15.9647 C   0  0  1  0  0  0  0  0  0  0  0  0
   17.3016  -20.3861  -16.4857 C   0  0  0  0  0  0  0  0  0  0  0  0
   16.4183  -20.2208  -15.2831 C   0  0  0  0  0  0  0  0  0  0  0  0
   15.2662  -21.1480  -15.1909 C   0  0  0  0  0  0  0  0  0  0  0  0
   14.4275  -20.9256  -14.0013 O   0  0  0  0  0  0  0  0  0  0  0  0
   13.3905  -21.5780  -13.7568 C   0  0  0  0  0  0  0  0  0  0  0  0
   17.6693  -19.1025  -17.1047 O   0  0  0  0  0  0  0  0  0  0  0  0
   18.9652  -18.6214  -17.0782 O   0  0  0  0  0  0  0  0  0  0  0  0
   14.7722  -19.9437  -13.0710 O   0  0  0  0  0  0  0  0  0  0  0  0
  2  1  1  0
  2  3  2  0
  4  5  1  0
  4  2  1  0
  5  7  1  0
  5  6  1  6
  7  8  2  0
 10  9  1  0
 11 10  2  0
 12 10  1  0
 13 14  1  0
 13 12  1  0
 16 15  1  6
 15 14  1  0
 16 17  1  0
 17  7  1  0
 18 19  2  0
 18 16  1  0
 20 18  1  0
 21 22  1  6
 21 20  1  0
 22 23  1  0
 23 24  1  0
 24 25  2  0
 26 21  1  0
 27 26  1  0
 28 24  1  0
 29 26  2  0
M  END
$$$$
