NRE.pdb
     RDKit          3D

 29 28  0  0  1  0  0  0  0  0999 V2000
   17.1665  -23.9224  -10.4742 N   0  0  0  0  0  0  0  0  0  0  0  0
   18.0728  -22.9935   -9.8988 C   0  0  0  0  0  0  0  0  0  0  0  0
   18.0472  -21.7990  -10.2202 O   0  0  0  0  0  0  0  0  0  0  0  0
   19.0573  -23.4730   -8.9016 C   0  0  0  0  0  0  0  0  0  0  0  0
   18.9462  -24.9588   -8.7468 C   0  0  2  0  0  0  0  0  0  0  0  0
   18.5110  -25.5064  -10.0195 N   0  0  0  0  0  0  0  0  0  0  0  0
   17.9143  -25.2754   -7.6989 C   0  0  0  0  0  0  0  0  0  0  0  0
   16.6876  -25.1103   -7.9233 O   0  0  0  0  0  0  0  0  0  0  0  0
   16.7629  -25.4507   -0.3066 N   0  0  0  0  0  0  0  0  0  0  0  0
   16.8028  -26.8316    0.0272 C   0  0  0  0  0  0  0  0  0  0  0  0
   16.2475  -27.2269    1.1278 N   0  0  0  0  0  0  0  0  0  0  0  0
   17.4218  -27.8080   -0.7842 N   0  0  0  0  0  0  0  0  0  0  0  0
   18.0887  -27.4568   -2.0035 C   0  0  0  0  0  0  0  0  0  0  0  0
   17.1337  -26.8648   -3.0281 C   0  0  0  0  0  0  0  0  0  0  0  0
   17.9841  -26.5715   -4.2362 C   0  0  0  0  0  0  0  0  0  0  0  0
   17.2362  -25.9747   -5.4005 C   0  0  2  0  0  0  0  0  0  0  0  0
   18.2730  -25.7688   -6.4253 N   0  0  0  0  0  0  0  0  0  0  0  0
   16.6329  -24.6925   -5.0040 C   0  0  0  0  0  0  0  0  0  0  0  0
   17.1978  -23.5945   -5.1301 O   0  0  0  0  0  0  0  0  0  0  0  0
   16.2980  -28.2191    1.4334 N   0  0  0  0  0  0  0  0  0  0  0  0
   15.3254  -24.6666   -4.4381 C   0  0  2  0  0  0  0  0  0  0  0  0
   14.6270  -23.3921   -4.1741 C   0  0  0  0  0  0  0  0  0  0  0  0
   13.7679  -23.1649   -5.3842 C   0  0  0  0  0  0  0  0  0  0  0  0
   14.3432  -22.2927   -6.4348 C   0  0  0  0  0  0  0  0  0  0  0  0
   13.4645  -22.1249   -7.6043 O   0  0  0  0  0  0  0  0  0  0  0  0
   13.0960  -23.0717   -8.3315 C   0  0  0  0  0  0  0  0  0  0  0  0
   13.8420  -23.5689   -2.9418 O   0  0  0  0  0  0  0  0  0  0  0  0
   13.5287  -22.5064   -2.1146 O   0  0  0  0  0  0  0  0  0  0  0  0
   12.9948  -20.8583   -7.9557 O   0  0  0  0  0  0  0  0  0  0  0  0
  2  1  1  0
  2  3  2  0
  4  5  1  0
  4  2  1  0
  5  7  1  0
  5  6  1  6
  7  8  2  0
 10  9  1  0
 11 10  2  0
 12 10  1  0
 13 14  1  0
 13 12  1  0
 16 15  1  1
 15 14  1  0
 16 17  1  0
 17  7  1  0
 18 19  2  0
 18 16  1  0
 20 18  1  0
 21 22  1  6
 21 20  1  0
 22 23  1  0
 23 24  1  0
 24 25  2  0
 26 21  1  0
 27 26  1  0
 28 24  1  0
 29 26  2  0
M  END
$$$$
