NRE.pdb
     RDKit          3D

 29 28  0  0  1  0  0  0  0  0999 V2000
   26.4842  -22.8470  -11.5110 N   0  0  0  0  0  0  0  0  0  0  0  0
   26.4841  -22.1014  -12.7190 C   0  0  0  0  0  0  0  0  0  0  0  0
   27.5157  -21.5538  -13.1274 O   0  0  0  0  0  0  0  0  0  0  0  0
   25.2259  -21.9848  -13.4917 C   0  0  0  0  0  0  0  0  0  0  0  0
   24.7673  -20.5589  -13.5100 C   0  0  2  0  0  0  0  0  0  0  0  0
   24.6047  -20.1272  -12.1330 N   0  0  0  0  0  0  0  0  0  0  0  0
   23.4389  -20.4711  -14.2108 C   0  0  0  0  0  0  0  0  0  0  0  0
   23.3134  -20.8203  -15.4127 O   0  0  0  0  0  0  0  0  0  0  0  0
   16.6181  -24.0912  -11.4750 N   0  0  0  0  0  0  0  0  0  0  0  0
   17.4818  -24.7295  -12.4059 C   0  0  0  0  0  0  0  0  0  0  0  0
   17.3115  -25.9878  -12.6582 N   0  0  0  0  0  0  0  0  0  0  0  0
   18.5277  -24.0599  -13.0787 N   0  0  0  0  0  0  0  0  0  0  0  0
   18.7616  -22.6578  -12.8940 C   0  0  0  0  0  0  0  0  0  0  0  0
   19.8835  -22.1430  -13.7821 C   0  0  0  0  0  0  0  0  0  0  0  0
   20.0411  -20.6905  -13.4156 C   0  0  0  0  0  0  0  0  0  0  0  0
   21.0044  -19.9246  -14.2854 C   0  0  2  0  0  0  0  0  0  0  0  0
   22.2813  -19.9964  -13.5561 N   0  0  0  0  0  0  0  0  0  0  0  0
   20.5577  -18.5289  -14.4189 C   0  0  0  0  0  0  0  0  0  0  0  0
   20.5847  -17.7030  -13.4927 O   0  0  0  0  0  0  0  0  0  0  0  0
   17.9441  -26.5005  -13.3042 N   0  0  0  0  0  0  0  0  0  0  0  0
   20.0579  -18.0585  -15.6677 C   0  0  2  0  0  0  0  0  0  0  0  0
   19.6389  -16.6537  -15.8480 C   0  0  0  0  0  0  0  0  0  0  0  0
   20.2719  -16.2249  -17.1401 C   0  0  0  0  0  0  0  0  0  0  0  0
   21.7261  -15.9453  -17.0897 C   0  0  0  0  0  0  0  0  0  0  0  0
   22.2949  -15.5586  -18.3916 O   0  0  0  0  0  0  0  0  0  0  0  0
   22.2899  -16.3032  -19.3949 C   0  0  0  0  0  0  0  0  0  0  0  0
   18.1682  -16.6376  -15.9000 O   0  0  0  0  0  0  0  0  0  0  0  0
   17.4308  -15.5640  -15.4362 O   0  0  0  0  0  0  0  0  0  0  0  0
   22.8807  -14.3027  -18.5585 O   0  0  0  0  0  0  0  0  0  0  0  0
  2  1  1  0
  2  3  2  0
  4  5  1  0
  4  2  1  0
  5  7  1  0
  5  6  1  1
  7  8  2  0
 10  9  1  0
 11 10  2  0
 12 10  1  0
 13 14  1  0
 13 12  1  0
 16 15  1  1
 15 14  1  0
 16 17  1  0
 17  7  1  0
 18 19  2  0
 18 16  1  0
 20 18  1  0
 21 22  1  1
 21 20  1  0
 22 23  1  0
 23 24  1  0
 24 25  2  0
 26 21  1  0
 27 26  1  0
 28 24  1  0
 29 26  2  0
M  END
$$$$
