NRE.pdb
     RDKit          3D

 29 28  0  0  1  0  0  0  0  0999 V2000
    9.0829  -21.2861   -5.5174 N   0  0  0  0  0  0  0  0  0  0  0  0
    9.6985  -21.2168   -4.2401 C   0  0  0  0  0  0  0  0  0  0  0  0
    9.4913  -20.2577   -3.4864 O   0  0  0  0  0  0  0  0  0  0  0  0
   10.5988  -22.3135   -3.8155 C   0  0  0  0  0  0  0  0  0  0  0  0
   11.8299  -21.7466   -3.1776 C   0  0  2  0  0  0  0  0  0  0  0  0
   12.6224  -21.1204   -4.2211 N   0  0  0  0  0  0  0  0  0  0  0  0
   12.6288  -22.8607   -2.5579 C   0  0  0  0  0  0  0  0  0  0  0  0
   12.0969  -23.6785   -1.7637 O   0  0  0  0  0  0  0  0  0  0  0  0
   19.1641  -25.0522   -7.2495 N   0  0  0  0  0  0  0  0  0  0  0  0
   18.3936  -26.1695   -6.8277 C   0  0  0  0  0  0  0  0  0  0  0  0
   18.7595  -27.3567   -7.1919 N   0  0  0  0  0  0  0  0  0  0  0  0
   17.2377  -26.0556   -6.0241 N   0  0  0  0  0  0  0  0  0  0  0  0
   17.2275  -25.2566   -4.8340 C   0  0  0  0  0  0  0  0  0  0  0  0
   15.8653  -25.2541   -4.1581 C   0  0  0  0  0  0  0  0  0  0  0  0
   15.9912  -24.2737   -3.0216 C   0  0  0  0  0  0  0  0  0  0  0  0
   14.7490  -24.1235   -2.1817 C   0  0  2  0  0  0  0  0  0  0  0  0
   14.0015  -23.0377   -2.8375 N   0  0  0  0  0  0  0  0  0  0  0  0
   15.1161  -23.7477   -0.8072 C   0  0  0  0  0  0  0  0  0  0  0  0
   15.4818  -22.6087   -0.4763 O   0  0  0  0  0  0  0  0  0  0  0  0
   18.1785  -28.1916   -6.9775 N   0  0  0  0  0  0  0  0  0  0  0  0
   15.0623  -24.7191    0.2340 C   0  0  2  0  0  0  0  0  0  0  0  0
   15.4644  -24.3877    1.6161 C   0  0  0  0  0  0  0  0  0  0  0  0
   14.3297  -24.8677    2.4739 C   0  0  0  0  0  0  0  0  0  0  0  0
   14.5187  -24.7313    3.9372 C   0  0  0  0  0  0  0  0  0  0  0  0
   13.2543  -24.6468    4.6870 O   0  0  0  0  0  0  0  0  0  0  0  0
   12.7993  -23.5811    5.1540 C   0  0  0  0  0  0  0  0  0  0  0  0
   16.7252  -25.0966    1.8882 O   0  0  0  0  0  0  0  0  0  0  0  0
   17.5539  -24.7407    2.9361 O   0  0  0  0  0  0  0  0  0  0  0  0
   12.4912  -25.7939    4.9112 O   0  0  0  0  0  0  0  0  0  0  0  0
  2  1  1  0
  2  3  2  0
  4  5  1  0
  4  2  1  0
  5  7  1  0
  5  6  1  6
  7  8  2  0
 10  9  1  0
 11 10  2  0
 12 10  1  0
 13 14  1  0
 13 12  1  0
 16 15  1  6
 15 14  1  0
 16 17  1  0
 17  7  1  0
 18 19  2  0
 18 16  1  0
 20 18  1  0
 21 22  1  6
 21 20  1  0
 22 23  1  0
 23 24  1  0
 24 25  2  0
 26 21  1  0
 27 26  1  0
 28 24  1  0
 29 26  2  0
M  END
$$$$
