NRE.pdb
     RDKit          3D

 29 28  0  0  1  0  0  0  0  0999 V2000
   15.2366  -23.7011  -10.4776 N   0  0  0  0  0  0  0  0  0  0  0  0
   16.0285  -23.9565  -11.6277 C   0  0  0  0  0  0  0  0  0  0  0  0
   15.6943  -24.8181  -12.4504 O   0  0  0  0  0  0  0  0  0  0  0  0
   17.2692  -23.1744  -11.8345 C   0  0  0  0  0  0  0  0  0  0  0  0
   18.4137  -24.0972  -12.1215 C   0  0  2  0  0  0  0  0  0  0  0  0
   18.7105  -24.8286  -10.9025 N   0  0  0  0  0  0  0  0  0  0  0  0
   19.6202  -23.2886  -12.5136 C   0  0  0  0  0  0  0  0  0  0  0  0
   19.8804  -22.1940  -11.9510 O   0  0  0  0  0  0  0  0  0  0  0  0
   26.7746  -26.2517  -16.5396 N   0  0  0  0  0  0  0  0  0  0  0  0
   26.9976  -24.8497  -16.4711 C   0  0  0  0  0  0  0  0  0  0  0  0
   28.1365  -24.3761  -16.8645 N   0  0  0  0  0  0  0  0  0  0  0  0
   26.0351  -23.9338  -15.9920 N   0  0  0  0  0  0  0  0  0  0  0  0
   24.7770  -24.3750  -15.4653 C   0  0  0  0  0  0  0  0  0  0  0  0
   23.9073  -23.2130  -15.0119 C   0  0  0  0  0  0  0  0  0  0  0  0
   22.6749  -23.8490  -14.4242 C   0  0  0  0  0  0  0  0  0  0  0  0
   21.6530  -22.8725  -13.9014 C   0  0  2  0  0  0  0  0  0  0  0  0
   20.5089  -23.7185  -13.5233 N   0  0  0  0  0  0  0  0  0  0  0  0
   21.2741  -21.9273  -14.9636 C   0  0  0  0  0  0  0  0  0  0  0  0
   20.6652  -22.2539  -15.9946 O   0  0  0  0  0  0  0  0  0  0  0  0
   28.3216  -23.3534  -16.8778 N   0  0  0  0  0  0  0  0  0  0  0  0
   21.6076  -20.5474  -14.8397 C   0  0  2  0  0  0  0  0  0  0  0  0
   21.2532  -19.5733  -15.8920 C   0  0  0  0  0  0  0  0  0  0  0  0
   20.8635  -18.3279  -15.1498 C   0  0  0  0  0  0  0  0  0  0  0  0
   19.5430  -18.3583  -14.4782 C   0  0  0  0  0  0  0  0  0  0  0  0
   19.1607  -17.0698  -13.8769 O   0  0  0  0  0  0  0  0  0  0  0  0
   18.1088  -16.8980  -13.2249 C   0  0  0  0  0  0  0  0  0  0  0  0
   22.4445  -19.3859  -16.7356 O   0  0  0  0  0  0  0  0  0  0  0  0
   22.4029  -18.6571  -17.9098 O   0  0  0  0  0  0  0  0  0  0  0  0
   19.9879  -15.9544  -14.0180 O   0  0  0  0  0  0  0  0  0  0  0  0
  2  1  1  0
  2  3  2  0
  4  5  1  0
  4  2  1  0
  5  7  1  0
  5  6  1  1
  7  8  2  0
 10  9  1  0
 11 10  2  0
 12 10  1  0
 13 14  1  0
 13 12  1  0
 16 15  1  6
 15 14  1  0
 16 17  1  0
 17  7  1  0
 18 19  2  0
 18 16  1  0
 20 18  1  0
 21 22  1  1
 21 20  1  0
 22 23  1  0
 23 24  1  0
 24 25  2  0
 26 21  1  0
 27 26  1  0
 28 24  1  0
 29 26  2  0
M  END
$$$$
