NRE.pdb
     RDKit          3D

 29 28  0  0  1  0  0  0  0  0999 V2000
   29.5678  -18.9328  -19.3868 N   0  0  0  0  0  0  0  0  0  0  0  0
   28.3232  -18.2531  -19.3231 C   0  0  0  0  0  0  0  0  0  0  0  0
   28.1399  -17.2034  -19.9521 O   0  0  0  0  0  0  0  0  0  0  0  0
   27.2374  -18.8179  -18.4891 C   0  0  0  0  0  0  0  0  0  0  0  0
   27.7537  -19.9781  -17.6945 C   0  0  2  0  0  0  0  0  0  0  0  0
   28.0892  -21.0401  -18.6264 N   0  0  0  0  0  0  0  0  0  0  0  0
   26.6759  -20.4649  -16.7646 C   0  0  0  0  0  0  0  0  0  0  0  0
   25.9295  -21.4267  -17.0811 O   0  0  0  0  0  0  0  0  0  0  0  0
   26.9416  -20.7620   -8.1723 N   0  0  0  0  0  0  0  0  0  0  0  0
   25.5528  -20.9283   -8.4248 C   0  0  0  0  0  0  0  0  0  0  0  0
   24.7515  -21.1125   -7.4248 N   0  0  0  0  0  0  0  0  0  0  0  0
   24.9918  -20.9038   -9.7207 N   0  0  0  0  0  0  0  0  0  0  0  0
   25.7859  -20.6051  -10.8761 C   0  0  0  0  0  0  0  0  0  0  0  0
   24.9712  -20.6557  -12.1591 C   0  0  0  0  0  0  0  0  0  0  0  0
   25.9545  -20.3639  -13.2621 C   0  0  0  0  0  0  0  0  0  0  0  0
   25.3595  -20.3520  -14.6466 C   0  0  2  0  0  0  0  0  0  0  0  0
   26.4548  -19.8688  -15.5037 N   0  0  0  0  0  0  0  0  0  0  0  0
   24.2153  -19.4279  -14.6921 C   0  0  0  0  0  0  0  0  0  0  0  0
   24.3042  -18.2330  -15.0163 O   0  0  0  0  0  0  0  0  0  0  0  0
   23.7281  -21.2271   -7.5655 N   0  0  0  0  0  0  0  0  0  0  0  0
   22.9120  -19.8924  -14.3511 C   0  0  2  0  0  0  0  0  0  0  0  0
   21.7061  -19.1009  -14.6689 C   0  0  0  0  0  0  0  0  0  0  0  0
   21.7183  -18.9622  -16.1637 C   0  0  0  0  0  0  0  0  0  0  0  0
   20.5670  -18.2440  -16.7589 C   0  0  0  0  0  0  0  0  0  0  0  0
   20.6222  -18.1621  -18.2280 O   0  0  0  0  0  0  0  0  0  0  0  0
   19.7406  -17.6120  -18.9217 C   0  0  0  0  0  0  0  0  0  0  0  0
   20.5431  -19.8556  -14.1751 O   0  0  0  0  0  0  0  0  0  0  0  0
   19.3981  -19.2246  -13.7251 O   0  0  0  0  0  0  0  0  0  0  0  0
   21.6987  -18.7150  -18.9236 O   0  0  0  0  0  0  0  0  0  0  0  0
  2  1  1  0
  2  3  2  0
  4  5  1  0
  4  2  1  0
  5  7  1  0
  5  6  1  6
  7  8  2  0
 10  9  1  0
 11 10  2  0
 12 10  1  0
 13 14  1  0
 13 12  1  0
 16 15  1  1
 15 14  1  0
 16 17  1  0
 17  7  1  0
 18 19  2  0
 18 16  1  0
 20 18  1  0
 21 22  1  6
 21 20  1  0
 22 23  1  0
 23 24  1  0
 24 25  2  0
 26 21  1  0
 27 26  1  0
 28 24  1  0
 29 26  2  0
M  END
$$$$
