NRE.pdb
     RDKit          3D

 29 28  0  0  1  0  0  0  0  0999 V2000
   28.0194  -20.4446  -14.9874 N   0  0  0  0  0  0  0  0  0  0  0  0
   27.1027  -19.5956  -15.6614 C   0  0  0  0  0  0  0  0  0  0  0  0
   27.5034  -18.6839  -16.3957 O   0  0  0  0  0  0  0  0  0  0  0  0
   25.6497  -19.8142  -15.4749 C   0  0  0  0  0  0  0  0  0  0  0  0
   25.4204  -21.0049  -14.5955 C   0  0  2  0  0  0  0  0  0  0  0  0
   25.7869  -22.1907  -15.3496 N   0  0  0  0  0  0  0  0  0  0  0  0
   23.9621  -21.0853  -14.2349 C   0  0  0  0  0  0  0  0  0  0  0  0
   23.1110  -21.5098  -15.0582 O   0  0  0  0  0  0  0  0  0  0  0  0
   20.0314  -23.4390   -7.7954 N   0  0  0  0  0  0  0  0  0  0  0  0
   19.1606  -22.3242   -7.9333 C   0  0  0  0  0  0  0  0  0  0  0  0
   17.9002  -22.4784   -7.6811 N   0  0  0  0  0  0  0  0  0  0  0  0
   19.5987  -21.0429   -8.3347 N   0  0  0  0  0  0  0  0  0  0  0  0
   20.8270  -20.8606   -9.0508 C   0  0  0  0  0  0  0  0  0  0  0  0
   20.6253  -20.9182  -10.5569 C   0  0  0  0  0  0  0  0  0  0  0  0
   22.0006  -20.7433  -11.1456 C   0  0  0  0  0  0  0  0  0  0  0  0
   22.0528  -20.8117  -12.6502 C   0  0  2  0  0  0  0  0  0  0  0  0
   23.4859  -20.6908  -12.9654 N   0  0  0  0  0  0  0  0  0  0  0  0
   21.2952  -19.6909  -13.2291 C   0  0  0  0  0  0  0  0  0  0  0  0
   21.5508  -18.4965  -13.0084 O   0  0  0  0  0  0  0  0  0  0  0  0
   17.2172  -21.7133   -7.8500 N   0  0  0  0  0  0  0  0  0  0  0  0
   20.1963  -19.9493  -14.0988 C   0  0  2  0  0  0  0  0  0  0  0  0
   19.4190  -18.8485  -14.7035 C   0  0  0  0  0  0  0  0  0  0  0  0
   19.5172  -19.0747  -16.1844 C   0  0  0  0  0  0  0  0  0  0  0  0
   20.7801  -18.6394  -16.8257 C   0  0  0  0  0  0  0  0  0  0  0  0
   21.0314  -19.2851  -18.1249 O   0  0  0  0  0  0  0  0  0  0  0  0
   20.2505  -20.1077  -18.6489 C   0  0  0  0  0  0  0  0  0  0  0  0
   18.0404  -18.9564  -14.1997 O   0  0  0  0  0  0  0  0  0  0  0  0
   17.1577  -17.8934  -14.2485 O   0  0  0  0  0  0  0  0  0  0  0  0
   22.1914  -18.9919  -18.8437 O   0  0  0  0  0  0  0  0  0  0  0  0
  2  1  1  0
  2  3  2  0
  4  5  1  0
  4  2  1  0
  5  7  1  0
  5  6  1  6
  7  8  2  0
 10  9  1  0
 11 10  2  0
 12 10  1  0
 13 14  1  0
 13 12  1  0
 16 15  1  1
 15 14  1  0
 16 17  1  0
 17  7  1  0
 18 19  2  0
 18 16  1  0
 20 18  1  0
 21 22  1  1
 21 20  1  0
 22 23  1  0
 23 24  1  0
 24 25  2  0
 26 21  1  0
 27 26  1  0
 28 24  1  0
 29 26  2  0
M  END
$$$$
