KWA.pdb
     RDKit          3D

 29 30  0  0  1  0  0  0  0  0999 V2000
   28.4301  -22.9009  -15.6974 N   0  0  0  0  0  0  0  0  0  0  0  0
   27.6318  -21.7147  -15.4888 C   0  0  1  0  0  0  0  0  0  0  0  0
   26.9713  -21.1703  -16.6935 C   0  0  0  0  0  0  0  0  0  0  0  0
   27.7985  -20.8772  -17.8822 C   0  0  0  0  0  0  0  0  0  0  0  0
   28.5566  -19.5827  -17.7746 C   0  0  0  0  0  0  0  0  0  0  0  0
   29.2862  -19.3544  -19.1011 C   0  0  0  0  0  0  0  0  0  0  0  0
   30.0610  -18.1339  -18.9194 N   0  0  0  0  0  0  0  0  0  0  0  0
   26.7081  -21.9716  -14.3587 C   0  0  0  0  0  0  0  0  0  0  0  0
   26.0535  -23.0484  -14.3410 O   0  0  0  0  0  0  0  0  0  0  0  0
   26.5891  -20.9976  -13.3274 N   0  0  0  0  0  0  0  0  0  0  0  0
   25.6752  -21.1467  -12.2529 C   0  0  1  0  0  0  0  0  0  0  0  0
   26.0031  -20.3480  -11.0270 C   0  0  0  0  0  0  0  0  0  0  0  0
   27.2532  -20.6929  -10.3705 C   0  0  0  0  0  0  0  0  0  0  0  0
   28.3656  -21.3145  -10.9003 C   0  0  0  0  0  0  0  0  0  0  0  0
   29.2933  -21.4349   -9.9331 N   0  0  0  0  0  0  0  0  0  0  0  0
   28.7913  -20.8993   -8.7908 C   0  0  0  0  0  0  0  0  0  0  0  0
   29.3246  -20.7683   -7.5250 C   0  0  0  0  0  0  0  0  0  0  0  0
   28.6403  -20.1824   -6.4777 C   0  0  0  0  0  0  0  0  0  0  0  0
   27.3647  -19.7123   -6.7288 C   0  0  0  0  0  0  0  0  0  0  0  0
   26.8360  -19.8455   -7.9956 C   0  0  0  0  0  0  0  0  0  0  0  0
   27.5188  -20.4306   -9.0426 C   0  0  0  0  0  0  0  0  0  0  0  0
   24.3089  -20.7468  -12.6589 C   0  0  0  0  0  0  0  0  0  0  0  0
   24.0364  -19.5845  -13.0708 O   0  0  0  0  0  0  0  0  0  0  0  0
   21.2310  -22.5455  -13.5777 C   0  0  0  0  0  0  0  0  0  0  0  0
   21.9396  -21.3272  -13.0138 C   0  0  2  0  0  0  0  0  0  0  0  0
   23.2688  -21.7150  -12.5798 N   0  0  0  0  0  0  0  0  0  0  0  0
   21.2206  -20.7219  -11.8858 C   0  0  0  0  0  0  0  0  0  0  0  0
   20.0910  -19.9699  -12.0942 O   0  0  0  0  0  0  0  0  0  0  0  0
   21.6139  -20.8713  -10.6903 O   0  0  0  0  0  0  0  0  0  0  0  0
  2  1  1  6
  2  3  1  0
  3  4  1  0
  4  5  1  0
  5  6  1  0
  7  6  1  0
  8  9  2  0
  8  2  1  0
 10  8  1  0
 11 22  1  0
 11 10  1  0
 11 12  1  1
 13 12  1  0
 13 21  1  0
 14 15  1  0
 14 13  2  0
 15 16  1  0
 16 17  1  0
 16 21  2  0
 17 18  2  0
 18 19  1  0
 20 19  2  0
 21 20  1  0
 22 23  2  0
 25 24  1  1
 26 25  1  0
 26 22  1  0
 27 25  1  0
 28 27  1  0
 29 27  2  0
M  END
$$$$
