KWA.pdb
     RDKit          3D

 29 30  0  0  1  0  0  0  0  0999 V2000
   28.6186  -20.0984  -14.3006 N   0  0  0  0  0  0  0  0  0  0  0  0
   27.4189  -20.8698  -14.5318 C   0  0  1  0  0  0  0  0  0  0  0  0
   27.5618  -22.0075  -15.4641 C   0  0  0  0  0  0  0  0  0  0  0  0
   28.7163  -22.0260  -16.3858 C   0  0  0  0  0  0  0  0  0  0  0  0
   28.3272  -21.8629  -17.8295 C   0  0  0  0  0  0  0  0  0  0  0  0
   28.6829  -23.1601  -18.5609 C   0  0  0  0  0  0  0  0  0  0  0  0
   28.4882  -22.8796  -19.9774 N   0  0  0  0  0  0  0  0  0  0  0  0
   26.8442  -21.2369  -13.2160 C   0  0  0  0  0  0  0  0  0  0  0  0
   25.8731  -22.0394  -13.1791 O   0  0  0  0  0  0  0  0  0  0  0  0
   27.4060  -20.6752  -12.0348 N   0  0  0  0  0  0  0  0  0  0  0  0
   26.8066  -20.8471  -10.7607 C   0  0  1  0  0  0  0  0  0  0  0  0
   27.6453  -20.4009   -9.6007 C   0  0  0  0  0  0  0  0  0  0  0  0
   27.0535  -20.5967   -8.2876 C   0  0  0  0  0  0  0  0  0  0  0  0
   25.8461  -21.1800   -7.9614 C   0  0  0  0  0  0  0  0  0  0  0  0
   25.7003  -21.1492   -6.6242 N   0  0  0  0  0  0  0  0  0  0  0  0
   26.7970  -20.5544   -6.0885 C   0  0  0  0  0  0  0  0  0  0  0  0
   27.1468  -20.2760   -4.7832 C   0  0  0  0  0  0  0  0  0  0  0  0
   28.3303  -19.6522   -4.4385 C   0  0  0  0  0  0  0  0  0  0  0  0
   29.1900  -19.2985   -5.4616 C   0  0  0  0  0  0  0  0  0  0  0  0
   28.8360  -19.5789   -6.7647 C   0  0  0  0  0  0  0  0  0  0  0  0
   27.6540  -20.2021   -7.1102 C   0  0  0  0  0  0  0  0  0  0  0  0
   25.5330  -20.0982  -10.6680 C   0  0  0  0  0  0  0  0  0  0  0  0
   25.4881  -18.8363  -10.6454 O   0  0  0  0  0  0  0  0  0  0  0  0
   22.9656  -20.2875  -12.5290 C   0  0  0  0  0  0  0  0  0  0  0  0
   23.0945  -20.1758  -11.0207 C   0  0  2  0  0  0  0  0  0  0  0  0
   24.3175  -20.8356  -10.6029 N   0  0  0  0  0  0  0  0  0  0  0  0
   21.9572  -20.7694  -10.3066 C   0  0  0  0  0  0  0  0  0  0  0  0
   22.1358  -21.8418   -9.4683 O   0  0  0  0  0  0  0  0  0  0  0  0
   20.7809  -20.3162  -10.4375 O   0  0  0  0  0  0  0  0  0  0  0  0
  2  1  1  1
  2  3  1  0
  3  4  1  0
  4  5  1  0
  5  6  1  0
  7  6  1  0
  8  9  2  0
  8  2  1  0
 10  8  1  0
 11 22  1  0
 11 10  1  0
 11 12  1  1
 13 12  1  0
 13 21  1  0
 14 15  1  0
 14 13  2  0
 15 16  1  0
 16 17  1  0
 16 21  2  0
 17 18  2  0
 18 19  1  0
 20 19  2  0
 21 20  1  0
 22 23  2  0
 25 24  1  6
 26 25  1  0
 26 22  1  0
 27 25  1  0
 28 27  1  0
 29 27  2  0
M  END
$$$$
