KWA.pdb
     RDKit          3D

 29 30  0  0  1  0  0  0  0  0999 V2000
   21.0982  -20.8938  -12.0282 N   0  0  0  0  0  0  0  0  0  0  0  0
   22.1602  -21.5410  -12.7639 C   0  0  1  0  0  0  0  0  0  0  0  0
   21.8664  -21.8352  -14.1820 C   0  0  0  0  0  0  0  0  0  0  0  0
   21.2649  -23.1408  -14.5236 C   0  0  0  0  0  0  0  0  0  0  0  0
   22.1086  -24.3126  -14.1026 C   0  0  0  0  0  0  0  0  0  0  0  0
   21.3582  -25.5919  -14.4827 C   0  0  0  0  0  0  0  0  0  0  0  0
   22.2328  -26.6911  -14.0961 N   0  0  0  0  0  0  0  0  0  0  0  0
   23.4066  -20.7672  -12.5541 C   0  0  0  0  0  0  0  0  0  0  0  0
   23.3847  -19.5195  -12.7307 O   0  0  0  0  0  0  0  0  0  0  0  0
   24.5889  -21.4540  -12.1581 N   0  0  0  0  0  0  0  0  0  0  0  0
   25.8580  -20.8208  -12.1429 C   0  0  1  0  0  0  0  0  0  0  0  0
   26.8116  -21.3380  -11.1078 C   0  0  0  0  0  0  0  0  0  0  0  0
   26.6813  -20.7483   -9.7856 C   0  0  0  0  0  0  0  0  0  0  0  0
   25.5391  -20.3295   -9.1341 C   0  0  0  0  0  0  0  0  0  0  0  0
   25.8846  -19.8463   -7.9268 N   0  0  0  0  0  0  0  0  0  0  0  0
   27.2321  -19.9494   -7.7951 C   0  0  0  0  0  0  0  0  0  0  0  0
   28.0845  -19.6040   -6.7666 C   0  0  0  0  0  0  0  0  0  0  0  0
   29.4517  -19.7930   -6.8275 C   0  0  0  0  0  0  0  0  0  0  0  0
   29.9704  -20.3548   -7.9792 C   0  0  0  0  0  0  0  0  0  0  0  0
   29.1144  -20.6984   -9.0044 C   0  0  0  0  0  0  0  0  0  0  0  0
   27.7484  -20.5101   -8.9447 C   0  0  0  0  0  0  0  0  0  0  0  0
   26.5396  -20.9666  -13.4488 C   0  0  0  0  0  0  0  0  0  0  0  0
   26.4985  -22.0356  -14.1200 O   0  0  0  0  0  0  0  0  0  0  0  0
   28.3601  -18.5885  -15.7036 C   0  0  0  0  0  0  0  0  0  0  0  0
   27.7570  -19.9289  -15.3244 C   0  0  2  0  0  0  0  0  0  0  0  0
   27.2662  -19.8551  -13.9609 N   0  0  0  0  0  0  0  0  0  0  0  0
   28.7156  -21.0357  -15.4334 C   0  0  0  0  0  0  0  0  0  0  0  0
   29.0384  -21.5683  -16.6569 O   0  0  0  0  0  0  0  0  0  0  0  0
   29.2743  -21.5337  -14.4107 O   0  0  0  0  0  0  0  0  0  0  0  0
  2  1  1  6
  2  3  1  0
  3  4  1  0
  4  5  1  0
  5  6  1  0
  7  6  1  0
  8  9  2  0
  8  2  1  0
 10  8  1  0
 11 22  1  0
 11 10  1  0
 11 12  1  1
 13 12  1  0
 13 21  1  0
 14 15  1  0
 14 13  2  0
 15 16  1  0
 16 17  1  0
 16 21  2  0
 17 18  2  0
 18 19  1  0
 20 19  2  0
 21 20  1  0
 22 23  2  0
 25 24  1  1
 26 25  1  0
 26 22  1  0
 27 25  1  0
 28 27  1  0
 29 27  2  0
M  END
$$$$
