KWA.pdb
     RDKit          3D

 29 30  0  0  1  0  0  0  0  0999 V2000
   27.4762  -21.8251  -14.3217 N   0  0  0  0  0  0  0  0  0  0  0  0
   27.2316  -20.6526  -13.5135 C   0  0  1  0  0  0  0  0  0  0  0  0
   26.6979  -19.4794  -14.2366 C   0  0  0  0  0  0  0  0  0  0  0  0
   27.5476  -18.8303  -15.2562 C   0  0  0  0  0  0  0  0  0  0  0  0
   28.2585  -19.8100  -16.1490 C   0  0  0  0  0  0  0  0  0  0  0  0
   29.1193  -19.0109  -17.1312 C   0  0  0  0  0  0  0  0  0  0  0  0
   29.9081  -19.9978  -17.8568 N   0  0  0  0  0  0  0  0  0  0  0  0
   26.4202  -21.0593  -12.3419 C   0  0  0  0  0  0  0  0  0  0  0  0
   25.6573  -22.0569  -12.4473 O   0  0  0  0  0  0  0  0  0  0  0  0
   26.5277  -20.3141  -11.1338 N   0  0  0  0  0  0  0  0  0  0  0  0
   25.7149  -20.5897  -10.0045 C   0  0  1  0  0  0  0  0  0  0  0  0
   26.1676  -19.9490   -8.7267 C   0  0  0  0  0  0  0  0  0  0  0  0
   27.4620  -20.3865   -8.2307 C   0  0  0  0  0  0  0  0  0  0  0  0
   28.4375  -21.1129   -8.8828 C   0  0  0  0  0  0  0  0  0  0  0  0
   29.4739  -21.2924   -8.0437 N   0  0  0  0  0  0  0  0  0  0  0  0
   29.1766  -20.6914   -6.8630 C   0  0  0  0  0  0  0  0  0  0  0  0
   29.8847  -20.5801   -5.6841 C   0  0  0  0  0  0  0  0  0  0  0  0
   29.3987  -19.9152   -4.5749 C   0  0  0  0  0  0  0  0  0  0  0  0
   28.1442  -19.3421   -4.6699 C   0  0  0  0  0  0  0  0  0  0  0  0
   27.4404  -19.4560   -5.8504 C   0  0  0  0  0  0  0  0  0  0  0  0
   27.9249  -20.1200   -6.9590 C   0  0  0  0  0  0  0  0  0  0  0  0
   24.3235  -20.1368  -10.2289 C   0  0  0  0  0  0  0  0  0  0  0  0
   24.0438  -18.9630  -10.6016 O   0  0  0  0  0  0  0  0  0  0  0  0
   21.9884  -20.6829  -12.0292 C   0  0  0  0  0  0  0  0  0  0  0  0
   21.9466  -20.7255  -10.5124 C   0  0  2  0  0  0  0  0  0  0  0  0
   23.2666  -21.0655  -10.0148 N   0  0  0  0  0  0  0  0  0  0  0  0
   20.9716  -21.6947   -9.9968 C   0  0  0  0  0  0  0  0  0  0  0  0
   19.6325  -21.5552  -10.2649 O   0  0  0  0  0  0  0  0  0  0  0  0
   21.3290  -22.6859   -9.2926 O   0  0  0  0  0  0  0  0  0  0  0  0
  2  1  1  6
  2  3  1  0
  3  4  1  0
  4  5  1  0
  5  6  1  0
  7  6  1  0
  8  9  2  0
  8  2  1  0
 10  8  1  0
 11 22  1  0
 11 10  1  0
 11 12  1  1
 13 12  1  0
 13 21  1  0
 14 15  1  0
 14 13  2  0
 15 16  1  0
 16 17  1  0
 16 21  2  0
 17 18  2  0
 18 19  1  0
 20 19  2  0
 21 20  1  0
 22 23  2  0
 25 24  1  6
 26 25  1  0
 26 22  1  0
 27 25  1  0
 28 27  1  0
 29 27  2  0
M  END
$$$$
