KWA.pdb
     RDKit          3D

 29 30  0  0  1  0  0  0  0  0999 V2000
   24.8491  -18.6975  -16.0413 N   0  0  0  0  0  0  0  0  0  0  0  0
   24.2667  -20.0158  -15.9386 C   0  0  1  0  0  0  0  0  0  0  0  0
   24.4376  -20.8828  -17.1231 C   0  0  0  0  0  0  0  0  0  0  0  0
   24.0122  -20.3705  -18.4420 C   0  0  0  0  0  0  0  0  0  0  0  0
   25.0234  -19.4578  -19.0796 C   0  0  0  0  0  0  0  0  0  0  0  0
   24.4310  -18.9477  -20.3961 C   0  0  0  0  0  0  0  0  0  0  0  0
   25.4020  -17.9977  -20.9230 N   0  0  0  0  0  0  0  0  0  0  0  0
   24.7293  -20.6285  -14.6709 C   0  0  0  0  0  0  0  0  0  0  0  0
   24.8540  -21.8812  -14.6110 O   0  0  0  0  0  0  0  0  0  0  0  0
   25.0208  -19.7859  -13.5612 N   0  0  0  0  0  0  0  0  0  0  0  0
   25.4197  -20.3077  -12.3041 C   0  0  1  0  0  0  0  0  0  0  0  0
   26.4430  -19.4897  -11.5746 C   0  0  0  0  0  0  0  0  0  0  0  0
   27.3400  -20.2361  -10.7080 C   0  0  0  0  0  0  0  0  0  0  0  0
   28.1333  -21.3229  -11.0146 C   0  0  0  0  0  0  0  0  0  0  0  0
   28.8010  -21.6948   -9.9072 N   0  0  0  0  0  0  0  0  0  0  0  0
   28.4469  -20.8618   -8.8950 C   0  0  0  0  0  0  0  0  0  0  0  0
   28.8338  -20.8065   -7.5718 C   0  0  0  0  0  0  0  0  0  0  0  0
   28.3488  -19.8645   -6.6852 C   0  0  0  0  0  0  0  0  0  0  0  0
   27.4353  -18.9441   -7.1643 C   0  0  0  0  0  0  0  0  0  0  0  0
   27.0518  -19.0033   -8.4877 C   0  0  0  0  0  0  0  0  0  0  0  0
   27.5357  -19.9440   -9.3742 C   0  0  0  0  0  0  0  0  0  0  0  0
   24.2613  -20.4381  -11.3918 C   0  0  0  0  0  0  0  0  0  0  0  0
   23.4896  -19.4725  -11.1328 O   0  0  0  0  0  0  0  0  0  0  0  0
   23.2759  -20.7729   -8.6838 C   0  0  0  0  0  0  0  0  0  0  0  0
   22.9792  -21.7862   -9.7744 C   0  0  2  0  0  0  0  0  0  0  0  0
   24.0143  -21.7030  -10.7880 N   0  0  0  0  0  0  0  0  0  0  0  0
   21.6691  -21.5780  -10.4038 C   0  0  0  0  0  0  0  0  0  0  0  0
   20.5108  -21.7289   -9.6825 O   0  0  0  0  0  0  0  0  0  0  0  0
   21.5625  -21.2541  -11.6244 O   0  0  0  0  0  0  0  0  0  0  0  0
  2  1  1  6
  2  3  1  0
  3  4  1  0
  4  5  1  0
  5  6  1  0
  7  6  1  0
  8  9  2  0
  8  2  1  0
 10  8  1  0
 11 22  1  0
 11 10  1  0
 11 12  1  1
 13 12  1  0
 13 21  1  0
 14 15  1  0
 14 13  2  0
 15 16  1  0
 16 17  1  0
 16 21  2  0
 17 18  2  0
 18 19  1  0
 20 19  2  0
 21 20  1  0
 22 23  2  0
 25 24  1  1
 26 25  1  0
 26 22  1  0
 27 25  1  0
 28 27  1  0
 29 27  2  0
M  END
$$$$
