KWA.pdb
     RDKit          3D

 29 30  0  0  1  0  0  0  0  0999 V2000
   22.9056  -28.1150  -16.5738 N   0  0  0  0  0  0  0  0  0  0  0  0
   21.9578  -28.8597  -15.7771 C   0  0  1  0  0  0  0  0  0  0  0  0
   21.7846  -30.2786  -16.1525 C   0  0  0  0  0  0  0  0  0  0  0  0
   22.6585  -30.8446  -17.2008 C   0  0  0  0  0  0  0  0  0  0  0  0
   23.8274  -31.6137  -16.6491 C   0  0  0  0  0  0  0  0  0  0  0  0
   24.6221  -32.1725  -17.8324 C   0  0  0  0  0  0  0  0  0  0  0  0
   25.8065  -32.7931  -17.2534 N   0  0  0  0  0  0  0  0  0  0  0  0
   22.2892  -28.6502  -14.3478 C   0  0  0  0  0  0  0  0  0  0  0  0
   23.2492  -27.8893  -14.0514 O   0  0  0  0  0  0  0  0  0  0  0  0
   21.5139  -29.3114  -13.3538 N   0  0  0  0  0  0  0  0  0  0  0  0
   21.6959  -29.0638  -11.9691 C   0  0  1  0  0  0  0  0  0  0  0  0
   20.5372  -28.4006  -11.2866 C   0  0  0  0  0  0  0  0  0  0  0  0
   20.2737  -27.0292  -11.6900 C   0  0  0  0  0  0  0  0  0  0  0  0
   21.1034  -26.1483  -12.3533 C   0  0  0  0  0  0  0  0  0  0  0  0
   20.4494  -24.9845  -12.5216 N   0  0  0  0  0  0  0  0  0  0  0  0
   19.2123  -25.1069  -11.9756 C   0  0  0  0  0  0  0  0  0  0  0  0
   18.1585  -24.2215  -11.8784 C   0  0  0  0  0  0  0  0  0  0  0  0
   16.9591  -24.5437  -11.2731 C   0  0  0  0  0  0  0  0  0  0  0  0
   16.8279  -25.8153  -10.7470 C   0  0  0  0  0  0  0  0  0  0  0  0
   17.8840  -26.6967  -10.8467 C   0  0  0  0  0  0  0  0  0  0  0  0
   19.0826  -26.3759  -11.4511 C   0  0  0  0  0  0  0  0  0  0  0  0
   21.9490  -30.3232  -11.2335 C   0  0  0  0  0  0  0  0  0  0  0  0
   21.2700  -31.3703  -11.4272 O   0  0  0  0  0  0  0  0  0  0  0  0
   24.5439  -31.4569   -8.7834 C   0  0  0  0  0  0  0  0  0  0  0  0
   23.2474  -31.5871   -9.5621 C   0  0  2  0  0  0  0  0  0  0  0  0
   22.9995  -30.3470  -10.2737 N   0  0  0  0  0  0  0  0  0  0  0  0
   22.0955  -31.8898   -8.7035 C   0  0  0  0  0  0  0  0  0  0  0  0
   21.8102  -33.1826   -8.3400 O   0  0  0  0  0  0  0  0  0  0  0  0
   21.3309  -30.9762   -8.2712 O   0  0  0  0  0  0  0  0  0  0  0  0
  2  1  1  6
  2  3  1  0
  3  4  1  0
  4  5  1  0
  5  6  1  0
  7  6  1  0
  8  9  2  0
  8  2  1  0
 10  8  1  0
 11 22  1  0
 11 10  1  0
 11 12  1  1
 13 12  1  0
 13 21  1  0
 14 15  1  0
 14 13  2  0
 15 16  1  0
 16 17  1  0
 16 21  2  0
 17 18  2  0
 18 19  1  0
 20 19  2  0
 21 20  1  0
 22 23  2  0
 25 24  1  1
 26 25  1  0
 26 22  1  0
 27 25  1  0
 28 27  1  0
 29 27  2  0
M  END
$$$$
