KWA.pdb
     RDKit          3D

 29 30  0  0  1  0  0  0  0  0999 V2000
   27.5906  -19.5791  -12.2070 N   0  0  0  0  0  0  0  0  0  0  0  0
   27.1492  -20.9546  -12.2333 C   0  0  1  0  0  0  0  0  0  0  0  0
   28.0945  -21.9165  -12.8375 C   0  0  0  0  0  0  0  0  0  0  0  0
   28.4774  -21.7377  -14.2532 C   0  0  0  0  0  0  0  0  0  0  0  0
   27.4089  -21.0754  -15.0790 C   0  0  0  0  0  0  0  0  0  0  0  0
   27.9782  -20.8382  -16.4803 C   0  0  0  0  0  0  0  0  0  0  0  0
   26.9058  -20.2089  -17.2398 N   0  0  0  0  0  0  0  0  0  0  0  0
   26.7030  -21.3235  -10.8690 C   0  0  0  0  0  0  0  0  0  0  0  0
   27.1767  -22.3618  -10.3342 O   0  0  0  0  0  0  0  0  0  0  0  0
   25.7563  -20.4949  -10.2031 N   0  0  0  0  0  0  0  0  0  0  0  0
   25.2166  -20.8361   -8.9365 C   0  0  1  0  0  0  0  0  0  0  0  0
   25.2809  -19.7482   -7.9066 C   0  0  0  0  0  0  0  0  0  0  0  0
   26.6140  -19.4064   -7.4389 C   0  0  0  0  0  0  0  0  0  0  0  0
   27.4732  -18.4347   -7.9103 C   0  0  0  0  0  0  0  0  0  0  0  0
   28.6034  -18.4686   -7.1808 N   0  0  0  0  0  0  0  0  0  0  0  0
   28.4808  -19.4482   -6.2486 C   0  0  0  0  0  0  0  0  0  0  0  0
   29.3390  -19.8929   -5.2639 C   0  0  0  0  0  0  0  0  0  0  0  0
   29.0222  -20.9229   -4.3994 C   0  0  0  0  0  0  0  0  0  0  0  0
   27.7850  -21.5226   -4.5430 C   0  0  0  0  0  0  0  0  0  0  0  0
   26.9307  -21.0745   -5.5286 C   0  0  0  0  0  0  0  0  0  0  0  0
   27.2461  -20.0457   -6.3928 C   0  0  0  0  0  0  0  0  0  0  0  0
   23.7910  -21.2179   -9.0525 C   0  0  0  0  0  0  0  0  0  0  0  0
   23.0303  -20.7388   -9.9394 O   0  0  0  0  0  0  0  0  0  0  0  0
   21.5845  -23.6801   -7.2857 C   0  0  0  0  0  0  0  0  0  0  0  0
   21.8801  -22.5665   -8.2739 C   0  0  2  0  0  0  0  0  0  0  0  0
   23.2656  -22.1617   -8.1258 N   0  0  0  0  0  0  0  0  0  0  0  0
   21.0126  -21.3964   -8.0892 C   0  0  0  0  0  0  0  0  0  0  0  0
   19.6732  -21.4608   -8.3832 O   0  0  0  0  0  0  0  0  0  0  0  0
   21.4659  -20.2953   -7.6552 O   0  0  0  0  0  0  0  0  0  0  0  0
  2  1  1  1
  2  3  1  0
  3  4  1  0
  4  5  1  0
  5  6  1  0
  7  6  1  0
  8  9  2  0
  8  2  1  0
 10  8  1  0
 11 22  1  0
 11 10  1  0
 11 12  1  1
 13 12  1  0
 13 21  1  0
 14 15  1  0
 14 13  2  0
 15 16  1  0
 16 17  1  0
 16 21  2  0
 17 18  2  0
 18 19  1  0
 20 19  2  0
 21 20  1  0
 22 23  2  0
 25 24  1  1
 26 25  1  0
 26 22  1  0
 27 25  1  0
 28 27  1  0
 29 27  2  0
M  END
$$$$
