KWA.pdb
     RDKit          3D

 29 30  0  0  1  0  0  0  0  0999 V2000
   28.8061  -21.8715  -15.3048 N   0  0  0  0  0  0  0  0  0  0  0  0
   27.4789  -22.1782  -15.7866 C   0  0  1  0  0  0  0  0  0  0  0  0
   27.3800  -23.3499  -16.6817 C   0  0  0  0  0  0  0  0  0  0  0  0
   28.1561  -23.3472  -17.9389 C   0  0  0  0  0  0  0  0  0  0  0  0
   28.1845  -22.0050  -18.6171 C   0  0  0  0  0  0  0  0  0  0  0  0
   28.9231  -22.1673  -19.9484 C   0  0  0  0  0  0  0  0  0  0  0  0
   28.9629  -20.8371  -20.5415 N   0  0  0  0  0  0  0  0  0  0  0  0
   26.5644  -22.2304  -14.6215 C   0  0  0  0  0  0  0  0  0  0  0  0
   25.8054  -23.2277  -14.4885 O   0  0  0  0  0  0  0  0  0  0  0  0
   26.5716  -21.1560  -13.6878 N   0  0  0  0  0  0  0  0  0  0  0  0
   25.6887  -21.1168  -12.5783 C   0  0  1  0  0  0  0  0  0  0  0  0
   26.0821  -20.1646  -11.4890 C   0  0  0  0  0  0  0  0  0  0  0  0
   27.2783  -20.5231  -10.7452 C   0  0  0  0  0  0  0  0  0  0  0  0
   28.4435  -21.1004  -11.2073 C   0  0  0  0  0  0  0  0  0  0  0  0
   29.2878  -21.2552  -10.1711 N   0  0  0  0  0  0  0  0  0  0  0  0
   28.6803  -20.7855   -9.0513 C   0  0  0  0  0  0  0  0  0  0  0  0
   29.1014  -20.7102   -7.7395 C   0  0  0  0  0  0  0  0  0  0  0  0
   28.3193  -20.1882   -6.7274 C   0  0  0  0  0  0  0  0  0  0  0  0
   27.0609  -19.7253   -7.0638 C   0  0  0  0  0  0  0  0  0  0  0  0
   26.6444  -19.8026   -8.3763 C   0  0  0  0  0  0  0  0  0  0  0  0
   27.4249  -20.3239   -9.3882 C   0  0  0  0  0  0  0  0  0  0  0  0
   24.3238  -20.7288  -12.9997 C   0  0  0  0  0  0  0  0  0  0  0  0
   24.0545  -19.5819  -13.4549 O   0  0  0  0  0  0  0  0  0  0  0  0
   21.2416  -22.6116  -13.7963 C   0  0  0  0  0  0  0  0  0  0  0  0
   21.9691  -21.3406  -13.3971 C   0  0  2  0  0  0  0  0  0  0  0  0
   23.2809  -21.6904  -12.8850 N   0  0  0  0  0  0  0  0  0  0  0  0
   21.2453  -20.5653  -12.3818 C   0  0  0  0  0  0  0  0  0  0  0  0
   21.7429  -20.4364  -11.1088 O   0  0  0  0  0  0  0  0  0  0  0  0
   20.1453  -19.9925  -12.6427 O   0  0  0  0  0  0  0  0  0  0  0  0
  2  1  1  1
  2  3  1  0
  3  4  1  0
  4  5  1  0
  5  6  1  0
  7  6  1  0
  8  9  2  0
  8  2  1  0
 10  8  1  0
 11 22  1  0
 11 10  1  0
 11 12  1  1
 13 12  1  0
 13 21  1  0
 14 15  1  0
 14 13  2  0
 15 16  1  0
 16 17  1  0
 16 21  2  0
 17 18  2  0
 18 19  1  0
 20 19  2  0
 21 20  1  0
 22 23  2  0
 25 24  1  1
 26 25  1  0
 26 22  1  0
 27 25  1  0
 28 27  1  0
 29 27  2  0
M  END
$$$$
