KWA.pdb
     RDKit          3D

 29 30  0  0  1  0  0  0  0  0999 V2000
   27.3064  -23.1314  -15.8817 N   0  0  0  0  0  0  0  0  0  0  0  0
   27.0328  -21.8265  -15.3249 C   0  0  1  0  0  0  0  0  0  0  0  0
   26.4885  -20.8304  -16.2713 C   0  0  0  0  0  0  0  0  0  0  0  0
   27.0703  -20.7513  -17.6272 C   0  0  0  0  0  0  0  0  0  0  0  0
   28.4423  -20.1355  -17.6504 C   0  0  0  0  0  0  0  0  0  0  0  0
   28.9047  -20.0745  -19.1087 C   0  0  0  0  0  0  0  0  0  0  0  0
   30.2491  -19.5139  -19.0725 N   0  0  0  0  0  0  0  0  0  0  0  0
   26.2144  -22.0072  -14.1027 C   0  0  0  0  0  0  0  0  0  0  0  0
   25.4660  -23.0175  -14.0159 O   0  0  0  0  0  0  0  0  0  0  0  0
   26.2989  -21.0375  -13.0639 N   0  0  0  0  0  0  0  0  0  0  0  0
   25.4362  -21.0630  -11.9383 C   0  0  1  0  0  0  0  0  0  0  0  0
   25.8796  -20.2189  -10.7811 C   0  0  0  0  0  0  0  0  0  0  0  0
   27.1662  -20.5723  -10.2045 C   0  0  0  0  0  0  0  0  0  0  0  0
   28.1884  -21.3146  -10.7600 C   0  0  0  0  0  0  0  0  0  0  0  0
   29.1959  -21.3926   -9.8717 N   0  0  0  0  0  0  0  0  0  0  0  0
   28.8342  -20.7108   -8.7546 C   0  0  0  0  0  0  0  0  0  0  0  0
   29.4916  -20.4833   -7.5630 C   0  0  0  0  0  0  0  0  0  0  0  0
   28.9421  -19.7498   -6.5292 C   0  0  0  0  0  0  0  0  0  0  0  0
   27.6755  -19.2284   -6.7159 C   0  0  0  0  0  0  0  0  0  0  0  0
   27.0225  -19.4585   -7.9086 C   0  0  0  0  0  0  0  0  0  0  0  0
   27.5704  -20.1911   -8.9420 C   0  0  0  0  0  0  0  0  0  0  0  0
   24.0785  -20.5968  -12.2996 C   0  0  0  0  0  0  0  0  0  0  0  0
   23.8533  -19.4302  -12.7276 O   0  0  0  0  0  0  0  0  0  0  0  0
   21.0763  -22.1962  -13.4577 C   0  0  0  0  0  0  0  0  0  0  0  0
   21.6835  -21.0824  -12.6241 C   0  0  2  0  0  0  0  0  0  0  0  0
   22.9911  -21.5039  -12.1569 N   0  0  0  0  0  0  0  0  0  0  0  0
   20.8527  -20.7174  -11.4699 C   0  0  0  0  0  0  0  0  0  0  0  0
   19.6482  -20.0821  -11.6435 O   0  0  0  0  0  0  0  0  0  0  0  0
   21.2150  -20.9743  -10.2829 O   0  0  0  0  0  0  0  0  0  0  0  0
  2  1  1  6
  2  3  1  0
  3  4  1  0
  4  5  1  0
  5  6  1  0
  7  6  1  0
  8  9  2  0
  8  2  1  0
 10  8  1  0
 11 22  1  0
 11 10  1  0
 11 12  1  1
 13 12  1  0
 13 21  1  0
 14 15  1  0
 14 13  2  0
 15 16  1  0
 16 17  1  0
 16 21  2  0
 17 18  2  0
 18 19  1  0
 20 19  2  0
 21 20  1  0
 22 23  2  0
 25 24  1  1
 26 25  1  0
 26 22  1  0
 27 25  1  0
 28 27  1  0
 29 27  2  0
M  END
$$$$
