KWA.pdb
     RDKit          3D

 29 30  0  0  1  0  0  0  0  0999 V2000
   28.8918  -23.1334  -16.9819 N   0  0  0  0  0  0  0  0  0  0  0  0
   28.0374  -21.9737  -16.8689 C   0  0  1  0  0  0  0  0  0  0  0  0
   27.2035  -21.6778  -18.0525 C   0  0  0  0  0  0  0  0  0  0  0  0
   27.8635  -21.1742  -19.2748 C   0  0  0  0  0  0  0  0  0  0  0  0
   28.6447  -22.2306  -20.0069 C   0  0  0  0  0  0  0  0  0  0  0  0
   29.2300  -21.5913  -21.2690 C   0  0  0  0  0  0  0  0  0  0  0  0
   30.0821  -22.6103  -21.8678 N   0  0  0  0  0  0  0  0  0  0  0  0
   27.2722  -22.0842  -15.6045 C   0  0  0  0  0  0  0  0  0  0  0  0
   26.5076  -23.0727  -15.4409 O   0  0  0  0  0  0  0  0  0  0  0  0
   27.4245  -21.0740  -14.6132 N   0  0  0  0  0  0  0  0  0  0  0  0
   26.7302  -21.1215  -13.3772 C   0  0  1  0  0  0  0  0  0  0  0  0
   27.2971  -20.2481  -12.2983 C   0  0  0  0  0  0  0  0  0  0  0  0
   26.6558  -20.3614  -10.9988 C   0  0  0  0  0  0  0  0  0  0  0  0
   25.3184  -20.2397  -10.6809 C   0  0  0  0  0  0  0  0  0  0  0  0
   25.1727  -20.4196   -9.3554 N   0  0  0  0  0  0  0  0  0  0  0  0
   26.3978  -20.6548   -8.8191 C   0  0  0  0  0  0  0  0  0  0  0  0
   26.8024  -20.8998   -7.5230 C   0  0  0  0  0  0  0  0  0  0  0  0
   28.1216  -21.1185   -7.1757 C   0  0  0  0  0  0  0  0  0  0  0  0
   29.0642  -21.0865   -8.1864 C   0  0  0  0  0  0  0  0  0  0  0  0
   28.6548  -20.8413   -9.4803 C   0  0  0  0  0  0  0  0  0  0  0  0
   27.3373  -20.6227   -9.8284 C   0  0  0  0  0  0  0  0  0  0  0  0
   25.3174  -20.7131  -13.5460 C   0  0  0  0  0  0  0  0  0  0  0  0
   24.9856  -19.5452  -13.8936 O   0  0  0  0  0  0  0  0  0  0  0  0
   22.1394  -22.5144  -13.9926 C   0  0  0  0  0  0  0  0  0  0  0  0
   22.9216  -21.2937  -13.5430 C   0  0  2  0  0  0  0  0  0  0  0  0
   24.3003  -21.6793  -13.3062 N   0  0  0  0  0  0  0  0  0  0  0  0
   22.3745  -20.6840  -12.3245 C   0  0  0  0  0  0  0  0  0  0  0  0
   21.3650  -19.7563  -12.3948 O   0  0  0  0  0  0  0  0  0  0  0  0
   22.8109  -20.9905  -11.1748 O   0  0  0  0  0  0  0  0  0  0  0  0
  2  1  1  6
  2  3  1  0
  3  4  1  0
  4  5  1  0
  5  6  1  0
  7  6  1  0
  8  9  2  0
  8  2  1  0
 10  8  1  0
 11 22  1  0
 11 10  1  0
 11 12  1  1
 13 12  1  0
 13 21  1  0
 14 15  1  0
 14 13  2  0
 15 16  1  0
 16 17  1  0
 16 21  2  0
 17 18  2  0
 18 19  1  0
 20 19  2  0
 21 20  1  0
 22 23  2  0
 25 24  1  1
 26 25  1  0
 26 22  1  0
 27 25  1  0
 28 27  1  0
 29 27  2  0
M  END
$$$$
