KWA.pdb
     RDKit          3D

 29 30  0  0  1  0  0  0  0  0999 V2000
   21.5576  -21.0160  -11.9420 N   0  0  0  0  0  0  0  0  0  0  0  0
   22.4603  -21.1517  -13.0620 C   0  0  1  0  0  0  0  0  0  0  0  0
   21.8450  -21.0103  -14.3981 C   0  0  0  0  0  0  0  0  0  0  0  0
   21.8760  -22.1668  -15.3172 C   0  0  0  0  0  0  0  0  0  0  0  0
   23.0462  -23.0819  -15.0819 C   0  0  0  0  0  0  0  0  0  0  0  0
   22.9668  -24.2179  -16.1054 C   0  0  0  0  0  0  0  0  0  0  0  0
   22.5949  -25.4055  -15.3476 N   0  0  0  0  0  0  0  0  0  0  0  0
   23.6187  -20.2559  -12.8336 C   0  0  0  0  0  0  0  0  0  0  0  0
   23.4110  -19.0244  -12.6645 O   0  0  0  0  0  0  0  0  0  0  0  0
   24.9290  -20.8118  -12.8100 N   0  0  0  0  0  0  0  0  0  0  0  0
   26.0831  -20.0110  -12.6134 C   0  0  1  0  0  0  0  0  0  0  0  0
   27.0896  -20.5747  -11.6556 C   0  0  0  0  0  0  0  0  0  0  0  0
   26.5638  -20.9864  -10.3645 C   0  0  0  0  0  0  0  0  0  0  0  0
   25.8303  -22.1118  -10.0484 C   0  0  0  0  0  0  0  0  0  0  0  0
   25.5545  -22.0902   -8.7316 N   0  0  0  0  0  0  0  0  0  0  0  0
   26.1008  -20.9669   -8.1992 C   0  0  0  0  0  0  0  0  0  0  0  0
   26.1112  -20.4709   -6.9117 C   0  0  0  0  0  0  0  0  0  0  0  0
   26.7342  -19.2870   -6.5670 C   0  0  0  0  0  0  0  0  0  0  0  0
   27.3705  -18.5816   -7.5713 C   0  0  0  0  0  0  0  0  0  0  0  0
   27.3574  -19.0815   -8.8566 C   0  0  0  0  0  0  0  0  0  0  0  0
   26.7353  -20.2641   -9.2020 C   0  0  0  0  0  0  0  0  0  0  0  0
   26.7993  -19.7897  -13.8899 C   0  0  0  0  0  0  0  0  0  0  0  0
   27.2812  -20.7380  -14.5707 O   0  0  0  0  0  0  0  0  0  0  0  0
   28.5740  -19.4333  -15.8542 C   0  0  0  0  0  0  0  0  0  0  0  0
   27.6650  -18.2437  -15.6036 C   0  0  2  0  0  0  0  0  0  0  0  0
   26.9456  -18.4549  -14.3613 N   0  0  0  0  0  0  0  0  0  0  0  0
   26.7008  -18.0254  -16.6891 C   0  0  0  0  0  0  0  0  0  0  0  0
   27.1272  -17.8263  -17.9788 O   0  0  0  0  0  0  0  0  0  0  0  0
   25.4516  -18.0138  -16.4756 O   0  0  0  0  0  0  0  0  0  0  0  0
  2  1  1  1
  2  3  1  0
  3  4  1  0
  4  5  1  0
  5  6  1  0
  7  6  1  0
  8  9  2  0
  8  2  1  0
 10  8  1  0
 11 22  1  0
 11 10  1  0
 11 12  1  1
 13 12  1  0
 13 21  1  0
 14 15  1  0
 14 13  2  0
 15 16  1  0
 16 17  1  0
 16 21  2  0
 17 18  2  0
 18 19  1  0
 20 19  2  0
 21 20  1  0
 22 23  2  0
 25 24  1  6
 26 25  1  0
 26 22  1  0
 27 25  1  0
 28 27  1  0
 29 27  2  0
M  END
$$$$
