DVR.pdb
     RDKit          3D

 27 26  0  0  1  0  0  0  0  0999 V2000
   23.3612   -9.8737  -15.8672 N   0  0  0  0  0  0  0  0  0  0  0  0
   22.0026   -9.4766  -16.1810 C   0  0  1  0  0  0  0  0  0  0  0  0
   21.1142  -10.6951  -16.3282 C   0  0  0  0  0  0  0  0  0  0  0  0
   21.4099  -11.4581  -17.5485 C   0  0  0  0  0  0  0  0  0  0  0  0
   22.1939  -10.9788  -18.3993 O   0  0  0  0  0  0  0  0  0  0  0  0
   21.4188   -8.6806  -15.0401 C   0  0  0  0  0  0  0  0  0  0  0  0
   21.4671   -9.1066  -13.8608 O   0  0  0  0  0  0  0  0  0  0  0  0
   20.8493  -12.6948  -17.7920 O   0  0  0  0  0  0  0  0  0  0  0  0
   22.2779   -5.3260  -13.6331 C   0  0  0  0  0  0  0  0  0  0  0  0
   20.8901   -5.2838  -14.1764 C   0  0  1  0  0  0  0  0  0  0  0  0
   20.7226   -4.5602  -15.4670 C   0  0  0  0  0  0  0  0  0  0  0  0
   20.1939   -6.6237  -14.1968 C   0  0  2  0  0  0  0  0  0  0  0  0
   20.7968   -7.4186  -15.2833 N   0  0  0  0  0  0  0  0  0  0  0  0
   18.7573   -6.5794  -14.4234 C   0  0  0  0  0  0  0  0  0  0  0  0
   18.3272   -6.5133  -15.6260 O   0  0  0  0  0  0  0  0  0  0  0  0
   11.8298  -10.3497  -11.2545 N   0  0  0  0  0  0  0  0  0  0  0  0
   12.7909  -10.7703  -12.2110 C   0  0  0  0  0  0  0  0  0  0  0  0
   12.9643  -12.0292  -12.4392 N   0  0  0  0  0  0  0  0  0  0  0  0
   13.5415   -9.7942  -12.8977 N   0  0  0  0  0  0  0  0  0  0  0  0
   13.2478   -8.4113  -12.6110 C   0  0  0  0  0  0  0  0  0  0  0  0
   14.0690   -7.4443  -13.4134 C   0  0  0  0  0  0  0  0  0  0  0  0
   15.5220   -7.5393  -13.0034 C   0  0  0  0  0  0  0  0  0  0  0  0
   16.3415   -6.5095  -13.7683 C   0  0  2  0  0  0  0  0  0  0  0  0
   17.7403   -6.6013  -13.4312 N   0  0  0  0  0  0  0  0  0  0  0  0
   15.8718   -5.1353  -13.4957 C   0  0  0  0  0  0  0  0  0  0  0  0
   16.4191   -4.4620  -12.5994 O   0  0  0  0  0  0  0  0  0  0  0  0
   14.8345   -4.5751  -14.2151 O   0  0  0  0  0  0  0  0  0  0  0  0
  2  1  1  1
  3  2  1  0
  4  3  1  0
  5  4  2  0
  6  7  2  0
  6  2  1  0
  8  4  1  0
 10  9  1  6
 10 11  1  0
 12 13  1  6
 12 10  1  0
 13  6  1  0
 14 12  1  0
 15 14  2  0
 17 19  1  0
 17 16  1  0
 18 17  2  0
 20 19  1  0
 21 20  1  0
 22 21  1  0
 23 22  1  1
 23 24  1  0
 24 14  1  0
 25 27  1  0
 25 23  1  0
 26 25  2  0
M  END
$$$$
