DVR.pdb
     RDKit          3D

 27 26  0  0  1  0  0  0  0  0999 V2000
   27.9647  -21.4164  -16.5578 N   0  0  0  0  0  0  0  0  0  0  0  0
   27.4250  -20.3532  -15.7330 C   0  0  1  0  0  0  0  0  0  0  0  0
   26.5594  -19.4260  -16.5617 C   0  0  0  0  0  0  0  0  0  0  0  0
   27.3509  -18.5882  -17.4729 C   0  0  0  0  0  0  0  0  0  0  0  0
   27.2464  -17.3418  -17.4103 O   0  0  0  0  0  0  0  0  0  0  0  0
   26.5136  -20.9283  -14.6772 C   0  0  0  0  0  0  0  0  0  0  0  0
   25.7290  -21.8710  -14.9416 O   0  0  0  0  0  0  0  0  0  0  0  0
   28.2127  -19.1312  -18.4032 O   0  0  0  0  0  0  0  0  0  0  0  0
   25.5505  -21.0042   -9.7634 C   0  0  0  0  0  0  0  0  0  0  0  0
   26.3824  -20.7101  -10.9652 C   0  0  1  0  0  0  0  0  0  0  0  0
   27.7593  -21.2770  -10.9532 C   0  0  0  0  0  0  0  0  0  0  0  0
   25.6850  -20.9734  -12.2785 C   0  0  2  0  0  0  0  0  0  0  0  0
   26.5281  -20.4067  -13.3481 N   0  0  0  0  0  0  0  0  0  0  0  0
   24.3556  -20.3964  -12.4082 C   0  0  0  0  0  0  0  0  0  0  0  0
   24.2430  -19.1247  -12.4845 O   0  0  0  0  0  0  0  0  0  0  0  0
   18.7481  -19.4576  -17.3852 N   0  0  0  0  0  0  0  0  0  0  0  0
   19.5948  -20.5932  -17.2904 C   0  0  0  0  0  0  0  0  0  0  0  0
   20.2481  -20.9978  -18.3279 N   0  0  0  0  0  0  0  0  0  0  0  0
   19.7051  -21.2598  -16.0530 N   0  0  0  0  0  0  0  0  0  0  0  0
   18.9105  -20.7584  -14.9585 C   0  0  0  0  0  0  0  0  0  0  0  0
   19.7279  -20.2120  -13.8241 C   0  0  0  0  0  0  0  0  0  0  0  0
   21.0688  -20.9103  -13.7732 C   0  0  0  0  0  0  0  0  0  0  0  0
   21.8566  -20.4254  -12.5643 C   0  0  2  0  0  0  0  0  0  0  0  0
   23.1245  -21.1041  -12.4616 N   0  0  0  0  0  0  0  0  0  0  0  0
   21.1012  -20.6284  -11.3108 C   0  0  0  0  0  0  0  0  0  0  0  0
   21.2683  -21.6740  -10.6514 O   0  0  0  0  0  0  0  0  0  0  0  0
   20.2087  -19.6810  -10.8489 O   0  0  0  0  0  0  0  0  0  0  0  0
  2  1  1  6
  3  2  1  0
  4  3  1  0
  5  4  2  0
  6  7  2  0
  6  2  1  0
  8  4  1  0
 10  9  1  1
 10 11  1  0
 12 13  1  6
 12 10  1  0
 13  6  1  0
 14 12  1  0
 15 14  2  0
 17 19  1  0
 17 16  1  0
 18 17  2  0
 20 19  1  0
 21 20  1  0
 22 21  1  0
 23 22  1  6
 23 24  1  0
 24 14  1  0
 25 27  1  0
 25 23  1  0
 26 25  2  0
M  END
$$$$
