DVR.pdb
     RDKit          3D

 27 26  0  0  1  0  0  0  0  0999 V2000
   29.1854  -10.3527  -17.0992 N   0  0  0  0  0  0  0  0  0  0  0  0
   27.7980  -10.7707  -17.1489 C   0  0  1  0  0  0  0  0  0  0  0  0
   27.5015  -11.7589  -16.0392 C   0  0  0  0  0  0  0  0  0  0  0  0
   28.1072  -13.0746  -16.2860 C   0  0  0  0  0  0  0  0  0  0  0  0
   29.3199  -13.2519  -16.0285 O   0  0  0  0  0  0  0  0  0  0  0  0
   26.8920   -9.5907  -16.8983 C   0  0  0  0  0  0  0  0  0  0  0  0
   27.1736   -8.7302  -16.0296 O   0  0  0  0  0  0  0  0  0  0  0  0
   27.3806  -14.1305  -16.7956 O   0  0  0  0  0  0  0  0  0  0  0  0
   23.7762   -6.5895  -19.1783 C   0  0  0  0  0  0  0  0  0  0  0  0
   24.8472   -7.6070  -18.9767 C   0  0  1  0  0  0  0  0  0  0  0  0
   26.2058   -7.2177  -19.4459 C   0  0  0  0  0  0  0  0  0  0  0  0
   24.8873   -8.1941  -17.5859 C   0  0  2  0  0  0  0  0  0  0  0  0
   25.6894   -9.4304  -17.6510 N   0  0  0  0  0  0  0  0  0  0  0  0
   23.5941   -8.5336  -17.0121 C   0  0  0  0  0  0  0  0  0  0  0  0
   22.9387   -9.5120  -17.5110 O   0  0  0  0  0  0  0  0  0  0  0  0
   18.5025   -5.8317  -10.3339 N   0  0  0  0  0  0  0  0  0  0  0  0
   17.8957   -7.0739  -10.6565 C   0  0  0  0  0  0  0  0  0  0  0  0
   16.9030   -7.5075   -9.9541 N   0  0  0  0  0  0  0  0  0  0  0  0
   18.3952   -7.8134  -11.7481 N   0  0  0  0  0  0  0  0  0  0  0  0
   19.6313   -7.3645  -12.3408 C   0  0  0  0  0  0  0  0  0  0  0  0
   19.9961   -8.0995  -13.5979 C   0  0  0  0  0  0  0  0  0  0  0  0
   21.3248   -7.5987  -14.1194 C   0  0  0  0  0  0  0  0  0  0  0  0
   21.6920   -8.3448  -15.3945 C   0  0  2  0  0  0  0  0  0  0  0  0
   22.9506   -7.8830  -15.9248 N   0  0  0  0  0  0  0  0  0  0  0  0
   20.6495   -8.1895  -16.4300 C   0  0  0  0  0  0  0  0  0  0  0  0
   20.6326   -7.1644  -17.1406 O   0  0  0  0  0  0  0  0  0  0  0  0
   19.6872   -9.1596  -16.6312 O   0  0  0  0  0  0  0  0  0  0  0  0
  2  1  1  1
  3  2  1  0
  4  3  1  0
  5  4  2  0
  6  7  2  0
  6  2  1  0
  8  4  1  0
 10  9  1  1
 10 11  1  0
 12 13  1  6
 12 10  1  0
 13  6  1  0
 14 12  1  0
 15 14  2  0
 17 19  1  0
 17 16  1  0
 18 17  2  0
 20 19  1  0
 21 20  1  0
 22 21  1  0
 23 22  1  1
 23 24  1  0
 24 14  1  0
 25 27  1  0
 25 23  1  0
 26 25  2  0
M  END
$$$$
