DVR.pdb
     RDKit          3D

 27 26  0  0  1  0  0  0  0  0999 V2000
   35.3348  -11.7471  -18.6801 N   0  0  0  0  0  0  0  0  0  0  0  0
   34.0208  -11.1616  -18.4988 C   0  0  1  0  0  0  0  0  0  0  0  0
   32.9752  -12.2456  -18.3333 C   0  0  0  0  0  0  0  0  0  0  0  0
   32.8529  -13.0913  -19.5285 C   0  0  0  0  0  0  0  0  0  0  0  0
   32.9221  -14.3363  -19.4113 O   0  0  0  0  0  0  0  0  0  0  0  0
   33.9829  -10.3587  -17.2221 C   0  0  0  0  0  0  0  0  0  0  0  0
   32.9052   -9.8895  -16.7831 O   0  0  0  0  0  0  0  0  0  0  0  0
   32.6629  -12.5575  -20.7861 O   0  0  0  0  0  0  0  0  0  0  0  0
   37.7218   -9.2497  -15.5484 C   0  0  0  0  0  0  0  0  0  0  0  0
   36.5472   -9.3912  -14.6409 C   0  0  1  0  0  0  0  0  0  0  0  0
   36.6194   -8.6260  -13.3656 C   0  0  0  0  0  0  0  0  0  0  0  0
   35.2132   -9.2070  -15.3242 C   0  0  2  0  0  0  0  0  0  0  0  0
   35.1814  -10.1171  -16.4846 N   0  0  0  0  0  0  0  0  0  0  0  0
   34.9374   -7.8623  -15.8068 C   0  0  0  0  0  0  0  0  0  0  0  0
   35.4692   -7.4835  -16.9064 O   0  0  0  0  0  0  0  0  0  0  0  0
   28.5104   -3.8014  -18.7837 N   0  0  0  0  0  0  0  0  0  0  0  0
   29.5104   -2.8052  -18.9356 C   0  0  0  0  0  0  0  0  0  0  0  0
   29.3615   -1.8720  -19.8153 N   0  0  0  0  0  0  0  0  0  0  0  0
   30.6548   -2.8574  -18.1139 N   0  0  0  0  0  0  0  0  0  0  0  0
   30.8564   -4.0552  -17.3359 C   0  0  0  0  0  0  0  0  0  0  0  0
   32.0612   -3.9952  -16.4424 C   0  0  0  0  0  0  0  0  0  0  0  0
   32.3272   -5.3593  -15.8452 C   0  0  0  0  0  0  0  0  0  0  0  0
   33.8266   -5.6181  -15.7993 C   0  0  2  0  0  0  0  0  0  0  0  0
   34.1183   -6.8860  -15.1780 N   0  0  0  0  0  0  0  0  0  0  0  0
   34.5365   -4.5501  -15.0654 C   0  0  0  0  0  0  0  0  0  0  0  0
   34.7874   -4.6960  -13.8522 O   0  0  0  0  0  0  0  0  0  0  0  0
   34.9318   -3.3864  -15.6957 O   0  0  0  0  0  0  0  0  0  0  0  0
  2  1  1  1
  3  2  1  0
  4  3  1  0
  5  4  2  0
  6  7  2  0
  6  2  1  0
  8  4  1  0
 10  9  1  6
 10 11  1  0
 12 13  1  6
 12 10  1  0
 13  6  1  0
 14 12  1  0
 15 14  2  0
 17 19  1  0
 17 16  1  0
 18 17  2  0
 20 19  1  0
 21 20  1  0
 22 21  1  0
 23 22  1  1
 23 24  1  0
 24 14  1  0
 25 27  1  0
 25 23  1  0
 26 25  2  0
M  END
$$$$
