DVR.pdb
     RDKit          3D

 27 26  0  0  1  0  0  0  0  0999 V2000
   23.1639  -20.8544   -9.0114 N   0  0  0  0  0  0  0  0  0  0  0  0
   23.3180  -21.0211  -10.4434 C   0  0  1  0  0  0  0  0  0  0  0  0
   22.1522  -20.3927  -11.1794 C   0  0  0  0  0  0  0  0  0  0  0  0
   20.9874  -21.2857  -11.2472 C   0  0  0  0  0  0  0  0  0  0  0  0
   21.0206  -22.3870  -10.6519 O   0  0  0  0  0  0  0  0  0  0  0  0
   24.5465  -20.2872  -10.9212 C   0  0  0  0  0  0  0  0  0  0  0  0
   24.8256  -19.1419  -10.4914 O   0  0  0  0  0  0  0  0  0  0  0  0
   19.8486  -20.9505  -11.9498 O   0  0  0  0  0  0  0  0  0  0  0  0
   29.0423  -20.8007  -12.8521 C   0  0  0  0  0  0  0  0  0  0  0  0
   27.8009  -21.1558  -12.1066 C   0  0  1  0  0  0  0  0  0  0  0  0
   27.9781  -21.4479  -10.6572 C   0  0  0  0  0  0  0  0  0  0  0  0
   26.6459  -20.2128  -12.3457 C   0  0  2  0  0  0  0  0  0  0  0  0
   25.4204  -20.8873  -11.8777 N   0  0  0  0  0  0  0  0  0  0  0  0
   26.4351  -19.8195  -13.7306 C   0  0  0  0  0  0  0  0  0  0  0  0
   26.2406  -20.7321  -14.6052 O   0  0  0  0  0  0  0  0  0  0  0  0
   22.0649  -14.5831  -18.2101 N   0  0  0  0  0  0  0  0  0  0  0  0
   22.0818  -15.7808  -17.4480 C   0  0  0  0  0  0  0  0  0  0  0  0
   20.9724  -16.3022  -17.0430 N   0  0  0  0  0  0  0  0  0  0  0  0
   23.3221  -16.3805  -17.1483 N   0  0  0  0  0  0  0  0  0  0  0  0
   24.5032  -15.7755  -17.7139 C   0  0  0  0  0  0  0  0  0  0  0  0
   25.7719  -16.5015  -17.3724 C   0  0  0  0  0  0  0  0  0  0  0  0
   25.8185  -16.7852  -15.8873 C   0  0  0  0  0  0  0  0  0  0  0  0
   26.2635  -18.2217  -15.6510 C   0  0  2  0  0  0  0  0  0  0  0  0
   26.4198  -18.4945  -14.2439 N   0  0  0  0  0  0  0  0  0  0  0  0
   27.5378  -18.5124  -16.3401 C   0  0  0  0  0  0  0  0  0  0  0  0
   28.6070  -18.0705  -15.8736 O   0  0  0  0  0  0  0  0  0  0  0  0
   27.5729  -19.2673  -17.4961 O   0  0  0  0  0  0  0  0  0  0  0  0
  2  1  1  1
  3  2  1  0
  4  3  1  0
  5  4  2  0
  6  7  2  0
  6  2  1  0
  8  4  1  0
 10  9  1  1
 10 11  1  0
 12 13  1  6
 12 10  1  0
 13  6  1  0
 14 12  1  0
 15 14  2  0
 17 19  1  0
 17 16  1  0
 18 17  2  0
 20 19  1  0
 21 20  1  0
 22 21  1  0
 23 22  1  1
 23 24  1  0
 24 14  1  0
 25 27  1  0
 25 23  1  0
 26 25  2  0
M  END
$$$$
