DVR.pdb
     RDKit          3D

 27 26  0  0  1  0  0  0  0  0999 V2000
   28.6126  -21.3135  -15.7811 N   0  0  0  0  0  0  0  0  0  0  0  0
   27.9114  -20.3285  -14.9810 C   0  0  1  0  0  0  0  0  0  0  0  0
   27.1308  -19.3814  -15.8695 C   0  0  0  0  0  0  0  0  0  0  0  0
   28.0060  -18.4743  -16.6244 C   0  0  0  0  0  0  0  0  0  0  0  0
   27.5707  -17.3564  -16.9839 O   0  0  0  0  0  0  0  0  0  0  0  0
   26.8862  -21.0064  -14.1060 C   0  0  0  0  0  0  0  0  0  0  0  0
   26.1590  -21.9262  -14.5527 O   0  0  0  0  0  0  0  0  0  0  0  0
   29.3018  -18.8138  -16.9540 O   0  0  0  0  0  0  0  0  0  0  0  0
   26.1095  -19.2990  -10.2891 C   0  0  0  0  0  0  0  0  0  0  0  0
   25.9890  -20.7755  -10.4580 C   0  0  1  0  0  0  0  0  0  0  0  0
   25.1085  -21.4689   -9.4776 C   0  0  0  0  0  0  0  0  0  0  0  0
   25.6967  -21.2133  -11.8734 C   0  0  2  0  0  0  0  0  0  0  0  0
   26.7243  -20.6110  -12.7436 N   0  0  0  0  0  0  0  0  0  0  0  0
   24.3934  -20.8265  -12.3919 C   0  0  0  0  0  0  0  0  0  0  0  0
   24.1959  -19.6024  -12.7052 O   0  0  0  0  0  0  0  0  0  0  0  0
   22.8580  -26.4520  -15.7944 N   0  0  0  0  0  0  0  0  0  0  0  0
   21.8198  -26.2909  -14.8397 C   0  0  0  0  0  0  0  0  0  0  0  0
   21.5487  -27.2469  -14.0154 N   0  0  0  0  0  0  0  0  0  0  0  0
   21.1013  -25.0782  -14.8121 N   0  0  0  0  0  0  0  0  0  0  0  0
   21.5962  -23.9975  -15.6294 C   0  0  0  0  0  0  0  0  0  0  0  0
   22.2892  -22.9208  -14.8459 C   0  0  0  0  0  0  0  0  0  0  0  0
   21.3002  -22.2326  -13.9313 C   0  0  0  0  0  0  0  0  0  0  0  0
   22.0167  -21.1807  -13.0962 C   0  0  2  0  0  0  0  0  0  0  0  0
   23.2748  -21.6783  -12.5980 N   0  0  0  0  0  0  0  0  0  0  0  0
   21.1884  -20.7423  -11.9538 C   0  0  0  0  0  0  0  0  0  0  0  0
   21.3458  -21.2744  -10.8366 O   0  0  0  0  0  0  0  0  0  0  0  0
   20.2379  -19.7502  -12.0951 O   0  0  0  0  0  0  0  0  0  0  0  0
  2  1  1  6
  3  2  1  0
  4  3  1  0
  5  4  2  0
  6  7  2  0
  6  2  1  0
  8  4  1  0
 10  9  1  6
 10 11  1  0
 12 13  1  6
 12 10  1  0
 13  6  1  0
 14 12  1  0
 15 14  2  0
 17 19  1  0
 17 16  1  0
 18 17  2  0
 20 19  1  0
 21 20  1  0
 22 21  1  0
 23 22  1  1
 23 24  1  0
 24 14  1  0
 25 27  1  0
 25 23  1  0
 26 25  2  0
M  END
$$$$
