DVR.pdb
     RDKit          3D

 27 26  0  0  1  0  0  0  0  0999 V2000
   23.1765   -7.2170  -16.7434 N   0  0  0  0  0  0  0  0  0  0  0  0
   23.4439   -8.2352  -15.7466 C   0  0  1  0  0  0  0  0  0  0  0  0
   22.1496   -8.7320  -15.1351 C   0  0  0  0  0  0  0  0  0  0  0  0
   21.5790   -7.7731  -14.1791 C   0  0  0  0  0  0  0  0  0  0  0  0
   20.5219   -8.0629  -13.5734 O   0  0  0  0  0  0  0  0  0  0  0  0
   24.0789   -9.4406  -16.3945 C   0  0  0  0  0  0  0  0  0  0  0  0
   23.8305   -9.7420  -17.5869 O   0  0  0  0  0  0  0  0  0  0  0  0
   22.1721   -6.5543  -13.9232 O   0  0  0  0  0  0  0  0  0  0  0  0
   27.7127  -12.8369  -15.7452 C   0  0  0  0  0  0  0  0  0  0  0  0
   26.9965  -11.5640  -15.4457 C   0  0  1  0  0  0  0  0  0  0  0  0
   27.8507  -10.3478  -15.3523 C   0  0  0  0  0  0  0  0  0  0  0  0
   25.7795  -11.3228  -16.3066 C   0  0  2  0  0  0  0  0  0  0  0  0
   24.9811  -10.2660  -15.6572 N   0  0  0  0  0  0  0  0  0  0  0  0
   24.9138  -12.4755  -16.5038 C   0  0  0  0  0  0  0  0  0  0  0  0
   24.1252  -12.8201  -15.5578 O   0  0  0  0  0  0  0  0  0  0  0  0
   22.9315  -18.4412  -22.1715 N   0  0  0  0  0  0  0  0  0  0  0  0
   21.8756  -18.6581  -21.2476 C   0  0  0  0  0  0  0  0  0  0  0  0
   21.0987  -19.6800  -21.3857 N   0  0  0  0  0  0  0  0  0  0  0  0
   21.6978  -17.7441  -20.1890 N   0  0  0  0  0  0  0  0  0  0  0  0
   22.6218  -16.6395  -20.1066 C   0  0  0  0  0  0  0  0  0  0  0  0
   22.2331  -15.6061  -19.0895 C   0  0  0  0  0  0  0  0  0  0  0  0
   23.2434  -14.4803  -19.0879 C   0  0  0  0  0  0  0  0  0  0  0  0
   23.9551  -14.4287  -17.7433 C   0  0  2  0  0  0  0  0  0  0  0  0
   24.8388  -13.2923  -17.6643 N   0  0  0  0  0  0  0  0  0  0  0  0
   24.7342  -15.6598  -17.4972 C   0  0  0  0  0  0  0  0  0  0  0  0
   25.8545  -15.7983  -18.0281 O   0  0  0  0  0  0  0  0  0  0  0  0
   24.2477  -16.6674  -16.6875 O   0  0  0  0  0  0  0  0  0  0  0  0
  2  1  1  6
  3  2  1  0
  4  3  1  0
  5  4  2  0
  6  7  2  0
  6  2  1  0
  8  4  1  0
 10  9  1  6
 10 11  1  0
 12 13  1  1
 12 10  1  0
 13  6  1  0
 14 12  1  0
 15 14  2  0
 17 19  1  0
 17 16  1  0
 18 17  2  0
 20 19  1  0
 21 20  1  0
 22 21  1  0
 23 22  1  6
 23 24  1  0
 24 14  1  0
 25 27  1  0
 25 23  1  0
 26 25  2  0
M  END
$$$$
