DVR.pdb
     RDKit          3D

 27 26  0  0  1  0  0  0  0  0999 V2000
   27.3002  -22.9948  -16.3411 N   0  0  0  0  0  0  0  0  0  0  0  0
   27.4213  -21.9434  -15.3500 C   0  0  1  0  0  0  0  0  0  0  0  0
   27.2481  -20.5835  -15.9953 C   0  0  0  0  0  0  0  0  0  0  0  0
   28.3590  -20.2467  -16.8959 C   0  0  0  0  0  0  0  0  0  0  0  0
   28.3710  -19.1331  -17.4688 O   0  0  0  0  0  0  0  0  0  0  0  0
   26.3116  -22.0583  -14.3345 C   0  0  0  0  0  0  0  0  0  0  0  0
   25.2834  -22.7371  -14.5717 O   0  0  0  0  0  0  0  0  0  0  0  0
   29.3983  -21.1217  -17.1347 O   0  0  0  0  0  0  0  0  0  0  0  0
   26.7136  -19.7341  -10.8288 C   0  0  0  0  0  0  0  0  0  0  0  0
   25.8633  -20.9576  -10.7731 C   0  0  1  0  0  0  0  0  0  0  0  0
   24.8221  -20.9737   -9.7088 C   0  0  0  0  0  0  0  0  0  0  0  0
   25.2983  -21.3783  -12.1089 C   0  0  2  0  0  0  0  0  0  0  0  0
   26.4125  -21.3923  -13.0755 N   0  0  0  0  0  0  0  0  0  0  0  0
   24.2550  -20.5182  -12.6463 C   0  0  0  0  0  0  0  0  0  0  0  0
   24.5879  -19.3916  -13.1518 O   0  0  0  0  0  0  0  0  0  0  0  0
   20.3654  -19.6522  -19.5427 N   0  0  0  0  0  0  0  0  0  0  0  0
   20.1944  -18.3704  -18.9568 C   0  0  0  0  0  0  0  0  0  0  0  0
   19.9542  -17.3467  -19.7060 N   0  0  0  0  0  0  0  0  0  0  0  0
   20.2909  -18.2429  -17.5560 N   0  0  0  0  0  0  0  0  0  0  0  0
   20.5627  -19.4409  -16.8000 C   0  0  0  0  0  0  0  0  0  0  0  0
   20.7103  -19.1999  -15.3256 C   0  0  0  0  0  0  0  0  0  0  0  0
   21.7886  -20.0992  -14.7629 C   0  0  0  0  0  0  0  0  0  0  0  0
   21.9145  -19.8757  -13.2624 C   0  0  2  0  0  0  0  0  0  0  0  0
   22.8608  -20.7919  -12.6762 N   0  0  0  0  0  0  0  0  0  0  0  0
   20.6120  -20.0314  -12.5822 C   0  0  0  0  0  0  0  0  0  0  0  0
   20.4401  -20.9763  -11.7861 O   0  0  0  0  0  0  0  0  0  0  0  0
   19.5739  -19.1491  -12.8086 O   0  0  0  0  0  0  0  0  0  0  0  0
  2  1  1  6
  3  2  1  0
  4  3  1  0
  5  4  2  0
  6  7  2  0
  6  2  1  0
  8  4  1  0
 10  9  1  6
 10 11  1  0
 12 13  1  6
 12 10  1  0
 13  6  1  0
 14 12  1  0
 15 14  2  0
 17 19  1  0
 17 16  1  0
 18 17  2  0
 20 19  1  0
 21 20  1  0
 22 21  1  0
 23 22  1  6
 23 24  1  0
 24 14  1  0
 25 27  1  0
 25 23  1  0
 26 25  2  0
M  END
$$$$
