DVR.pdb
     RDKit          3D

 27 26  0  0  1  0  0  0  0  0999 V2000
   29.1993  -19.4481  -17.1299 N   0  0  0  0  0  0  0  0  0  0  0  0
   27.9632  -19.0347  -17.7650 C   0  0  1  0  0  0  0  0  0  0  0  0
   27.2096  -20.2384  -18.2931 C   0  0  0  0  0  0  0  0  0  0  0  0
   28.0540  -21.1046  -19.1271 C   0  0  0  0  0  0  0  0  0  0  0  0
   28.0024  -22.3465  -18.9739 O   0  0  0  0  0  0  0  0  0  0  0  0
   27.0490  -18.3928  -16.7510 C   0  0  0  0  0  0  0  0  0  0  0  0
   27.4842  -18.0042  -15.6401 O   0  0  0  0  0  0  0  0  0  0  0  0
   28.9089  -20.5934  -20.0813 O   0  0  0  0  0  0  0  0  0  0  0  0
   26.7891  -15.9631  -15.6916 C   0  0  0  0  0  0  0  0  0  0  0  0
   25.3597  -16.0138  -16.1127 C   0  0  1  0  0  0  0  0  0  0  0  0
   25.0155  -15.2266  -17.3288 C   0  0  0  0  0  0  0  0  0  0  0  0
   24.7825  -17.4080  -16.1720 C   0  0  2  0  0  0  0  0  0  0  0  0
   25.6621  -18.2141  -17.0394 N   0  0  0  0  0  0  0  0  0  0  0  0
   23.4299  -17.5037  -16.6995 C   0  0  0  0  0  0  0  0  0  0  0  0
   23.2725  -17.7178  -17.9505 O   0  0  0  0  0  0  0  0  0  0  0  0
   24.7287  -22.1146  -10.8338 N   0  0  0  0  0  0  0  0  0  0  0  0
   24.5878  -22.6816  -12.1277 C   0  0  0  0  0  0  0  0  0  0  0  0
   25.2765  -23.7242  -12.4524 N   0  0  0  0  0  0  0  0  0  0  0  0
   23.6894  -22.0881  -13.0378 N   0  0  0  0  0  0  0  0  0  0  0  0
   23.0157  -20.8854  -12.6131 C   0  0  0  0  0  0  0  0  0  0  0  0
   22.0638  -20.3372  -13.6362 C   0  0  0  0  0  0  0  0  0  0  0  0
   22.6394  -19.0821  -14.2540 C   0  0  0  0  0  0  0  0  0  0  0  0
   21.6468  -18.4951  -15.2477 C   0  0  2  0  0  0  0  0  0  0  0  0
   22.2207  -17.3826  -15.9628 N   0  0  0  0  0  0  0  0  0  0  0  0
   20.4106  -18.0458  -14.5744 C   0  0  0  0  0  0  0  0  0  0  0  0
   19.4370  -18.8210  -14.4892 O   0  0  0  0  0  0  0  0  0  0  0  0
   20.3075  -16.7794  -14.0332 O   0  0  0  0  0  0  0  0  0  0  0  0
  2  1  1  1
  3  2  1  0
  4  3  1  0
  5  4  2  0
  6  7  2  0
  6  2  1  0
  8  4  1  0
 10  9  1  6
 10 11  1  0
 12 13  1  6
 12 10  1  0
 13  6  1  0
 14 12  1  0
 15 14  2  0
 17 19  1  0
 17 16  1  0
 18 17  2  0
 20 19  1  0
 21 20  1  0
 22 21  1  0
 23 22  1  1
 23 24  1  0
 24 14  1  0
 25 27  1  0
 25 23  1  0
 26 25  2  0
M  END
$$$$
