DVR.pdb
     RDKit          3D

 27 26  0  0  1  0  0  0  0  0999 V2000
   25.1254  -22.6917  -14.8991 N   0  0  0  0  0  0  0  0  0  0  0  0
   25.5076  -21.7701  -13.8472 C   0  0  1  0  0  0  0  0  0  0  0  0
   26.4948  -20.7469  -14.3709 C   0  0  0  0  0  0  0  0  0  0  0  0
   27.0903  -21.1498  -15.6523 C   0  0  0  0  0  0  0  0  0  0  0  0
   26.7476  -22.2343  -16.1764 O   0  0  0  0  0  0  0  0  0  0  0  0
   24.3064  -20.9812  -13.3878 C   0  0  0  0  0  0  0  0  0  0  0  0
   24.4161  -20.0770  -12.5247 O   0  0  0  0  0  0  0  0  0  0  0  0
   28.0217  -20.3684  -16.3039 O   0  0  0  0  0  0  0  0  0  0  0  0
   22.1989  -18.5355  -14.8958 C   0  0  0  0  0  0  0  0  0  0  0  0
   21.3041  -19.6834  -14.5721 C   0  0  1  0  0  0  0  0  0  0  0  0
   20.8458  -20.4938  -15.7342 C   0  0  0  0  0  0  0  0  0  0  0  0
   21.8044  -20.5585  -13.4477 C   0  0  2  0  0  0  0  0  0  0  0  0
   23.0139  -21.2509  -13.9312 N   0  0  0  0  0  0  0  0  0  0  0  0
   20.8704  -21.5710  -12.9793 C   0  0  0  0  0  0  0  0  0  0  0  0
   20.8705  -22.7166  -13.5480 O   0  0  0  0  0  0  0  0  0  0  0  0
   18.7404  -25.2448   -6.0537 N   0  0  0  0  0  0  0  0  0  0  0  0
   18.5449  -26.0616   -7.1983 C   0  0  0  0  0  0  0  0  0  0  0  0
   18.7563  -27.3332   -7.1258 N   0  0  0  0  0  0  0  0  0  0  0  0
   18.1193  -25.4601   -8.4003 N   0  0  0  0  0  0  0  0  0  0  0  0
   18.0512  -24.0196   -8.4310 C   0  0  0  0  0  0  0  0  0  0  0  0
   17.6150  -23.4673   -9.7570 C   0  0  0  0  0  0  0  0  0  0  0  0
   18.4950  -22.2986  -10.1420 C   0  0  0  0  0  0  0  0  0  0  0  0
   19.0409  -22.5060  -11.5478 C   0  0  2  0  0  0  0  0  0  0  0  0
   19.9246  -21.4321  -11.9278 N   0  0  0  0  0  0  0  0  0  0  0  0
   17.9513  -22.6046  -12.5409 C   0  0  0  0  0  0  0  0  0  0  0  0
   17.4204  -21.5649  -12.9805 O   0  0  0  0  0  0  0  0  0  0  0  0
   17.5044  -23.8291  -12.9972 O   0  0  0  0  0  0  0  0  0  0  0  0
  2  1  1  6
  3  2  1  0
  4  3  1  0
  5  4  2  0
  6  7  2  0
  6  2  1  0
  8  4  1  0
 10  9  1  6
 10 11  1  0
 12 13  1  6
 12 10  1  0
 13  6  1  0
 14 12  1  0
 15 14  2  0
 17 19  1  0
 17 16  1  0
 18 17  2  0
 20 19  1  0
 21 20  1  0
 22 21  1  0
 23 22  1  1
 23 24  1  0
 24 14  1  0
 25 27  1  0
 25 23  1  0
 26 25  2  0
M  END
$$$$
