DVR.pdb
     RDKit          3D

 27 26  0  0  1  0  0  0  0  0999 V2000
   25.0367  -17.6711  -18.0605 N   0  0  0  0  0  0  0  0  0  0  0  0
   24.5029  -18.7994  -17.3228 C   0  0  1  0  0  0  0  0  0  0  0  0
   25.5894  -19.4526  -16.4928 C   0  0  0  0  0  0  0  0  0  0  0  0
   26.5436  -20.2078  -17.3162 C   0  0  0  0  0  0  0  0  0  0  0  0
   27.4526  -20.8645  -16.7587 O   0  0  0  0  0  0  0  0  0  0  0  0
   23.4628  -18.3284  -16.3367 C   0  0  0  0  0  0  0  0  0  0  0  0
   23.7008  -17.3850  -15.5443 O   0  0  0  0  0  0  0  0  0  0  0  0
   26.4726  -20.2191  -18.6937 O   0  0  0  0  0  0  0  0  0  0  0  0
   19.5175  -19.4113  -17.0522 C   0  0  0  0  0  0  0  0  0  0  0  0
   19.8709  -18.2879  -16.1377 C   0  0  1  0  0  0  0  0  0  0  0  0
   18.7656  -17.7823  -15.2774 C   0  0  0  0  0  0  0  0  0  0  0  0
   21.1348  -18.5132  -15.3426 C   0  0  2  0  0  0  0  0  0  0  0  0
   22.1792  -18.9517  -16.2874 N   0  0  0  0  0  0  0  0  0  0  0  0
   21.0417  -19.5119  -14.2885 C   0  0  0  0  0  0  0  0  0  0  0  0
   20.8006  -20.7255  -14.6122 O   0  0  0  0  0  0  0  0  0  0  0  0
   26.5994  -19.5253  -10.7947 N   0  0  0  0  0  0  0  0  0  0  0  0
   26.6352  -20.8953  -10.4242 C   0  0  0  0  0  0  0  0  0  0  0  0
   27.7358  -21.5620  -10.5282 N   0  0  0  0  0  0  0  0  0  0  0  0
   25.4564  -21.5029   -9.9456 N   0  0  0  0  0  0  0  0  0  0  0  0
   24.2700  -20.6849   -9.8806 C   0  0  0  0  0  0  0  0  0  0  0  0
   23.2851  -20.9674  -10.9777 C   0  0  0  0  0  0  0  0  0  0  0  0
   22.0282  -20.1537  -10.7627 C   0  0  0  0  0  0  0  0  0  0  0  0
   21.0756  -20.3585  -11.9322 C   0  0  2  0  0  0  0  0  0  0  0  0
   21.1920  -19.2899  -12.8930 N   0  0  0  0  0  0  0  0  0  0  0  0
   19.6724  -20.4433  -11.4770 C   0  0  0  0  0  0  0  0  0  0  0  0
   19.2021  -21.5443  -11.1269 O   0  0  0  0  0  0  0  0  0  0  0  0
   18.8641  -19.3244  -11.4297 O   0  0  0  0  0  0  0  0  0  0  0  0
  2  1  1  1
  3  2  1  0
  4  3  1  0
  5  4  2  0
  6  7  2  0
  6  2  1  0
  8  4  1  0
 10  9  1  1
 10 11  1  0
 12 13  1  6
 12 10  1  0
 13  6  1  0
 14 12  1  0
 15 14  2  0
 17 19  1  0
 17 16  1  0
 18 17  2  0
 20 19  1  0
 21 20  1  0
 22 21  1  0
 23 22  1  1
 23 24  1  0
 24 14  1  0
 25 27  1  0
 25 23  1  0
 26 25  2  0
M  END
$$$$
