NLG.pdb
     RDKit          3D

 21 20  0  0  1  0  0  0  0  0999 V2000
    9.9187  -18.6343   20.3964 N   0  0  0  0  0  0  0  0  0  0  0  0
   10.3151  -17.3288   20.0169 C   0  0  0  0  0  0  0  0  0  0  0  0
   10.8311  -17.1260   18.8773 O   0  0  0  0  0  0  0  0  0  0  0  0
   10.1221  -16.1867   20.9680 C   0  0  0  0  0  0  0  0  0  0  0  0
    9.5471  -16.7419   22.2524 C   0  0  2  0  0  0  0  0  0  0  0  0
    8.1669  -17.0915   22.0419 N   0  0  0  0  0  0  0  0  0  0  0  0
    9.6695  -15.6963   23.3072 C   0  0  0  0  0  0  0  0  0  0  0  0
   10.7481  -15.0709   23.4798 O   0  0  0  0  0  0  0  0  0  0  0  0
    7.7021  -11.5358   26.0442 C   0  0  0  0  0  0  0  0  0  0  0  0
    7.0308  -12.8789   26.4824 C   0  0  1  0  0  0  0  0  0  0  0  0
    5.5328  -12.5519   26.6137 C   0  0  0  0  0  0  0  0  0  0  0  0
    7.3327  -13.8521   25.4151 C   0  0  0  0  0  0  0  0  0  0  0  0
    8.7216  -14.3462   25.2348 C   0  0  2  0  0  0  0  0  0  0  0  0
    8.5888  -15.3747   24.1415 N   0  0  0  0  0  0  0  0  0  0  0  0
    9.3535  -15.0582   26.3266 C   0  0  0  0  0  0  0  0  0  0  0  0
    9.9023  -14.4511   27.2783 O   0  0  0  0  0  0  0  0  0  0  0  0
    9.3813  -16.4861   26.3878 N   0  0  0  0  0  0  0  0  0  0  0  0
    9.9988  -17.1521   27.5081 C   0  0  0  0  0  0  0  0  0  0  0  0
   10.1689  -18.5788   27.1982 C   0  0  0  0  0  0  0  0  0  0  0  0
    9.6716  -19.5842   28.0259 O   0  0  0  0  0  0  0  0  0  0  0  0
   10.7717  -18.9432   26.1714 O   0  0  0  0  0  0  0  0  0  0  0  0
  2  3  2  0
  2  1  1  0
  4  2  1  0
  5  4  1  0
  5  6  1  6
  7  8  2  0
  7  5  1  0
 10  9  1  6
 10 11  1  0
 10 12  1  0
 13 12  1  1
 13 15  1  0
 13 14  1  0
 14  7  1  0
 15 17  1  0
 16 15  2  0
 17 18  1  0
 18 19  1  0
 19 21  2  0
 19 20  1  0
M  END
$$$$
