NLG.pdb
     RDKit          3D

 21 20  0  0  1  0  0  0  0  0999 V2000
   11.0327  -18.9039   16.0577 N   0  0  0  0  0  0  0  0  0  0  0  0
   11.2607  -17.5524   15.7012 C   0  0  0  0  0  0  0  0  0  0  0  0
   11.5805  -17.2527   14.5121 O   0  0  0  0  0  0  0  0  0  0  0  0
   11.1221  -16.4767   16.7355 C   0  0  0  0  0  0  0  0  0  0  0  0
   11.0181  -17.1429   18.0898 C   0  0  2  0  0  0  0  0  0  0  0  0
    9.8076  -17.9196   18.1443 N   0  0  0  0  0  0  0  0  0  0  0  0
   11.0068  -16.0782   19.1325 C   0  0  0  0  0  0  0  0  0  0  0  0
   12.0149  -15.3503   19.3285 O   0  0  0  0  0  0  0  0  0  0  0  0
    6.5190  -13.1851   19.7584 C   0  0  0  0  0  0  0  0  0  0  0  0
    8.0559  -13.4400   19.6194 C   0  0  1  0  0  0  0  0  0  0  0  0
    8.6879  -12.0387   19.5480 C   0  0  0  0  0  0  0  0  0  0  0  0
    8.4513  -14.2072   20.8162 C   0  0  0  0  0  0  0  0  0  0  0  0
    9.8357  -14.7315   20.9358 C   0  0  2  0  0  0  0  0  0  0  0  0
    9.8746  -15.8519   19.9289 N   0  0  0  0  0  0  0  0  0  0  0  0
   10.2398  -15.3502   22.1816 C   0  0  0  0  0  0  0  0  0  0  0  0
   10.1942  -14.7281   23.2707 O   0  0  0  0  0  0  0  0  0  0  0  0
   10.7033  -16.7010   22.2442 N   0  0  0  0  0  0  0  0  0  0  0  0
   10.9416  -17.3275   23.5210 C   0  0  0  0  0  0  0  0  0  0  0  0
   12.3832  -17.5565   23.6941 C   0  0  0  0  0  0  0  0  0  0  0  0
   13.3376  -16.9240   22.8991 O   0  0  0  0  0  0  0  0  0  0  0  0
   12.8070  -18.3345   24.5692 O   0  0  0  0  0  0  0  0  0  0  0  0
  2  3  2  0
  2  1  1  0
  4  2  1  0
  5  4  1  0
  5  6  1  6
  7  8  2  0
  7  5  1  0
 10  9  1  1
 10 11  1  0
 10 12  1  0
 13 12  1  1
 13 15  1  0
 13 14  1  0
 14  7  1  0
 15 17  1  0
 16 15  2  0
 17 18  1  0
 18 19  1  0
 19 21  2  0
 19 20  1  0
M  END
$$$$
