NLG.pdb
     RDKit          3D

 21 20  0  0  1  0  0  0  0  0999 V2000
    5.3371  -19.6826   22.1821 N   0  0  0  0  0  0  0  0  0  0  0  0
    4.7587  -18.3961   22.0562 C   0  0  0  0  0  0  0  0  0  0  0  0
    3.5646  -18.2717   21.6502 O   0  0  0  0  0  0  0  0  0  0  0  0
    5.5637  -17.1810   22.4052 C   0  0  0  0  0  0  0  0  0  0  0  0
    6.4810  -17.5434   23.5524 C   0  0  2  0  0  0  0  0  0  0  0  0
    5.6905  -17.9941   24.6674 N   0  0  0  0  0  0  0  0  0  0  0  0
    7.2665  -16.3317   23.9206 C   0  0  0  0  0  0  0  0  0  0  0  0
    8.0442  -15.7860   23.0949 O   0  0  0  0  0  0  0  0  0  0  0  0
    5.7043  -11.8121   26.7802 C   0  0  0  0  0  0  0  0  0  0  0  0
    6.3887  -12.6734   25.6683 C   0  0  1  0  0  0  0  0  0  0  0  0
    7.2839  -11.6889   24.8954 C   0  0  0  0  0  0  0  0  0  0  0  0
    7.1412  -13.7276   26.3753 C   0  0  0  0  0  0  0  0  0  0  0  0
    8.0561  -14.6191   25.6177 C   0  0  2  0  0  0  0  0  0  0  0  0
    7.1658  -15.7599   25.1974 N   0  0  0  0  0  0  0  0  0  0  0  0
    9.1500  -15.2546   26.3233 C   0  0  0  0  0  0  0  0  0  0  0  0
   10.2032  -14.6318   26.6028 O   0  0  0  0  0  0  0  0  0  0  0  0
    9.0903  -16.6182   26.7480 N   0  0  0  0  0  0  0  0  0  0  0  0
   10.1585  -17.1791   27.5380 C   0  0  0  0  0  0  0  0  0  0  0  0
    9.8149  -18.5558   27.9214 C   0  0  0  0  0  0  0  0  0  0  0  0
   10.1081  -19.0719   29.1827 O   0  0  0  0  0  0  0  0  0  0  0  0
    9.2422  -19.3190   27.1212 O   0  0  0  0  0  0  0  0  0  0  0  0
  2  3  2  0
  2  1  1  0
  4  2  1  0
  5  4  1  0
  5  6  1  1
  7  8  2  0
  7  5  1  0
 10  9  1  1
 10 11  1  0
 10 12  1  0
 13 12  1  1
 13 15  1  0
 13 14  1  0
 14  7  1  0
 15 17  1  0
 16 15  2  0
 17 18  1  0
 18 19  1  0
 19 21  2  0
 19 20  1  0
M  END
$$$$
