NLG.pdb
     RDKit          3D

 21 20  0  0  1  0  0  0  0  0999 V2000
    9.3657  -16.0334   18.0788 N   0  0  0  0  0  0  0  0  0  0  0  0
    9.4326  -16.6013   19.3744 C   0  0  0  0  0  0  0  0  0  0  0  0
    9.2911  -17.8510   19.5301 O   0  0  0  0  0  0  0  0  0  0  0  0
    9.6718  -15.7188   20.5620 C   0  0  0  0  0  0  0  0  0  0  0  0
    9.2055  -16.4606   21.7952 C   0  0  2  0  0  0  0  0  0  0  0  0
    7.8125  -16.7923   21.6507 N   0  0  0  0  0  0  0  0  0  0  0  0
    9.4155  -15.5770   22.9768 C   0  0  0  0  0  0  0  0  0  0  0  0
   10.5278  -15.0265   23.1867 O   0  0  0  0  0  0  0  0  0  0  0  0
    7.9723  -11.5690   26.1272 C   0  0  0  0  0  0  0  0  0  0  0  0
    7.1576  -12.8636   26.4543 C   0  0  1  0  0  0  0  0  0  0  0  0
    5.7068  -12.3855   26.6409 C   0  0  0  0  0  0  0  0  0  0  0  0
    7.3404  -13.7626   25.2986 C   0  0  0  0  0  0  0  0  0  0  0  0
    8.6154  -14.5060   25.1331 C   0  0  2  0  0  0  0  0  0  0  0  0
    8.3826  -15.3298   23.8930 N   0  0  0  0  0  0  0  0  0  0  0  0
    8.9932  -15.4723   26.1439 C   0  0  0  0  0  0  0  0  0  0  0  0
    9.3503  -15.1170   27.2935 O   0  0  0  0  0  0  0  0  0  0  0  0
    8.9731  -16.8799   25.8951 N   0  0  0  0  0  0  0  0  0  0  0  0
    9.1477  -17.8110   26.9824 C   0  0  0  0  0  0  0  0  0  0  0  0
   10.5805  -17.9647   27.2718 C   0  0  0  0  0  0  0  0  0  0  0  0
   11.0934  -17.8637   28.5641 O   0  0  0  0  0  0  0  0  0  0  0  0
   11.3967  -18.1935   26.3597 O   0  0  0  0  0  0  0  0  0  0  0  0
  2  3  2  0
  2  1  1  0
  4  2  1  0
  5  4  1  0
  5  6  1  6
  7  8  2  0
  7  5  1  0
 10  9  1  6
 10 11  1  0
 10 12  1  0
 13 12  1  1
 13 15  1  0
 13 14  1  0
 14  7  1  0
 15 17  1  0
 16 15  2  0
 17 18  1  0
 18 19  1  0
 19 21  2  0
 19 20  1  0
M  END
$$$$
