NLG.pdb
     RDKit          3D

 21 20  0  0  1  0  0  0  0  0999 V2000
    6.7591  -17.7553   19.5079 N   0  0  0  0  0  0  0  0  0  0  0  0
    7.3943  -18.3706   20.6141 C   0  0  0  0  0  0  0  0  0  0  0  0
    7.4300  -19.6341   20.7060 O   0  0  0  0  0  0  0  0  0  0  0  0
    8.0248  -17.5221   21.6765 C   0  0  0  0  0  0  0  0  0  0  0  0
    7.5725  -16.0945   21.4621 C   0  0  2  0  0  0  0  0  0  0  0  0
    7.9778  -15.6605   20.1511 N   0  0  0  0  0  0  0  0  0  0  0  0
    8.1992  -15.2450   22.5140 C   0  0  0  0  0  0  0  0  0  0  0  0
    9.3259  -14.7135   22.3338 O   0  0  0  0  0  0  0  0  0  0  0  0
    7.7767  -11.3904   26.0570 C   0  0  0  0  0  0  0  0  0  0  0  0
    7.1833  -12.6966   26.6801 C   0  0  1  0  0  0  0  0  0  0  0  0
    5.8684  -12.2582   27.3487 C   0  0  0  0  0  0  0  0  0  0  0  0
    6.9919  -13.6333   25.5561 C   0  0  0  0  0  0  0  0  0  0  0  0
    8.1666  -14.1149   24.7853 C   0  0  2  0  0  0  0  0  0  0  0  0
    7.5559  -15.0098   23.7380 N   0  0  0  0  0  0  0  0  0  0  0  0
    9.1410  -14.9527   25.4538 C   0  0  0  0  0  0  0  0  0  0  0  0
   10.0338  -14.4656   26.1892 O   0  0  0  0  0  0  0  0  0  0  0  0
    9.1371  -16.3761   25.3226 N   0  0  0  0  0  0  0  0  0  0  0  0
   10.2302  -17.1559   25.8486 C   0  0  0  0  0  0  0  0  0  0  0  0
    9.8837  -17.6440   27.1910 C   0  0  0  0  0  0  0  0  0  0  0  0
    9.0075  -18.7094   27.3921 O   0  0  0  0  0  0  0  0  0  0  0  0
   10.3679  -17.1149   28.2090 O   0  0  0  0  0  0  0  0  0  0  0  0
  2  3  2  0
  2  1  1  0
  4  2  1  0
  5  4  1  0
  5  6  1  6
  7  8  2  0
  7  5  1  0
 10  9  1  6
 10 11  1  0
 10 12  1  0
 13 12  1  1
 13 15  1  0
 13 14  1  0
 14  7  1  0
 15 17  1  0
 16 15  2  0
 17 18  1  0
 18 19  1  0
 19 21  2  0
 19 20  1  0
M  END
$$$$
