NLG.pdb
     RDKit          3D

 21 20  0  0  1  0  0  0  0  0999 V2000
    8.0360  -17.4731   19.3364 N   0  0  0  0  0  0  0  0  0  0  0  0
    7.7557  -16.0963   19.1593 C   0  0  0  0  0  0  0  0  0  0  0  0
    7.4023  -15.6594   18.0233 O   0  0  0  0  0  0  0  0  0  0  0  0
    7.8781  -15.1567   20.3205 C   0  0  0  0  0  0  0  0  0  0  0  0
    8.2712  -15.9670   21.5361 C   0  0  2  0  0  0  0  0  0  0  0  0
    7.1553  -16.7780   21.9464 N   0  0  0  0  0  0  0  0  0  0  0  0
    8.6600  -15.0209   22.6199 C   0  0  0  0  0  0  0  0  0  0  0  0
    9.7196  -14.3458   22.5436 O   0  0  0  0  0  0  0  0  0  0  0  0
    7.6009  -11.1414   26.0183 C   0  0  0  0  0  0  0  0  0  0  0  0
    6.9641  -12.4742   26.5325 C   0  0  1  0  0  0  0  0  0  0  0  0
    5.5478  -12.0878   26.9939 C   0  0  0  0  0  0  0  0  0  0  0  0
    6.9802  -13.4022   25.3854 C   0  0  0  0  0  0  0  0  0  0  0  0
    8.2724  -13.9287   24.8769 C   0  0  2  0  0  0  0  0  0  0  0  0
    7.8597  -14.8515   23.7593 N   0  0  0  0  0  0  0  0  0  0  0  0
    9.0783  -14.7564   25.7507 C   0  0  0  0  0  0  0  0  0  0  0  0
    9.4776  -14.3419   26.8662 O   0  0  0  0  0  0  0  0  0  0  0  0
    9.4565  -16.0895   25.3994 N   0  0  0  0  0  0  0  0  0  0  0  0
   10.2531  -16.8798   26.3052 C   0  0  0  0  0  0  0  0  0  0  0  0
   10.5775  -18.1685   25.6770 C   0  0  0  0  0  0  0  0  0  0  0  0
   11.6712  -18.3276   24.8276 O   0  0  0  0  0  0  0  0  0  0  0  0
    9.8764  -19.1764   25.8852 O   0  0  0  0  0  0  0  0  0  0  0  0
  2  3  2  0
  2  1  1  0
  4  2  1  0
  5  4  1  0
  5  6  1  1
  7  8  2  0
  7  5  1  0
 10  9  1  6
 10 11  1  0
 10 12  1  0
 13 12  1  1
 13 15  1  0
 13 14  1  0
 14  7  1  0
 15 17  1  0
 16 15  2  0
 17 18  1  0
 18 19  1  0
 19 21  2  0
 19 20  1  0
M  END
$$$$
