NLG.pdb
     RDKit          3D

 21 20  0  0  1  0  0  0  0  0999 V2000
    7.5487  -17.9410   19.7828 N   0  0  0  0  0  0  0  0  0  0  0  0
    7.8908  -18.5330   21.0230 C   0  0  0  0  0  0  0  0  0  0  0  0
    7.8322  -19.7909   21.1660 O   0  0  0  0  0  0  0  0  0  0  0  0
    8.3231  -17.6664   22.1668 C   0  0  0  0  0  0  0  0  0  0  0  0
    8.1240  -16.2232   21.7593 C   0  0  2  0  0  0  0  0  0  0  0  0
    8.8820  -15.9589   20.5647 N   0  0  0  0  0  0  0  0  0  0  0  0
    8.5877  -15.3554   22.8787 C   0  0  0  0  0  0  0  0  0  0  0  0
    9.7580  -14.8925   22.8999 O   0  0  0  0  0  0  0  0  0  0  0  0
    7.5284  -11.1581   25.9727 C   0  0  0  0  0  0  0  0  0  0  0  0
    6.8713  -12.4554   26.5487 C   0  0  1  0  0  0  0  0  0  0  0  0
    5.4585  -12.0277   26.9835 C   0  0  0  0  0  0  0  0  0  0  0  0
    6.8796  -13.4388   25.4486 C   0  0  0  0  0  0  0  0  0  0  0  0
    8.1603  -14.0515   25.0127 C   0  0  2  0  0  0  0  0  0  0  0  0
    7.7371  -15.0262   23.9442 N   0  0  0  0  0  0  0  0  0  0  0  0
    8.9052  -14.8545   25.9606 C   0  0  0  0  0  0  0  0  0  0  0  0
    9.4903  -14.3385   26.9438 O   0  0  0  0  0  0  0  0  0  0  0  0
    9.0094  -16.2748   25.8371 N   0  0  0  0  0  0  0  0  0  0  0  0
    9.5603  -17.0580   26.9154 C   0  0  0  0  0  0  0  0  0  0  0  0
   10.9286  -17.4713   26.5728 C   0  0  0  0  0  0  0  0  0  0  0  0
   11.7108  -18.2405   27.4328 O   0  0  0  0  0  0  0  0  0  0  0  0
   11.4432  -17.1436   25.4872 O   0  0  0  0  0  0  0  0  0  0  0  0
  2  3  2  0
  2  1  1  0
  4  2  1  0
  5  4  1  0
  5  6  1  6
  7  8  2  0
  7  5  1  0
 10  9  1  6
 10 11  1  0
 10 12  1  0
 13 12  1  1
 13 15  1  0
 13 14  1  0
 14  7  1  0
 15 17  1  0
 16 15  2  0
 17 18  1  0
 18 19  1  0
 19 21  2  0
 19 20  1  0
M  END
$$$$
