NLG.pdb
     RDKit          3D

 21 20  0  0  1  0  0  0  0  0999 V2000
    8.0376  -17.3717   19.2933 N   0  0  0  0  0  0  0  0  0  0  0  0
    7.8666  -15.9679   19.2182 C   0  0  0  0  0  0  0  0  0  0  0  0
    7.5977  -15.4176   18.1087 O   0  0  0  0  0  0  0  0  0  0  0  0
    8.0046  -15.1344   20.4561 C   0  0  0  0  0  0  0  0  0  0  0  0
    8.3024  -16.0632   21.6125 C   0  0  2  0  0  0  0  0  0  0  0  0
    7.0970  -16.7539   21.9884 N   0  0  0  0  0  0  0  0  0  0  0  0
    8.8143  -15.2439   22.7473 C   0  0  0  0  0  0  0  0  0  0  0  0
    9.8371  -14.5218   22.6175 O   0  0  0  0  0  0  0  0  0  0  0  0
    5.6252  -12.7051   26.5177 C   0  0  0  0  0  0  0  0  0  0  0  0
    6.7915  -12.8801   25.4903 C   0  0  1  0  0  0  0  0  0  0  0  0
    7.6000  -11.5736   25.5783 C   0  0  0  0  0  0  0  0  0  0  0  0
    7.5437  -14.0720   25.9273 C   0  0  0  0  0  0  0  0  0  0  0  0
    8.7478  -14.5052   25.1735 C   0  0  2  0  0  0  0  0  0  0  0  0
    8.1749  -15.2503   23.9956 N   0  0  0  0  0  0  0  0  0  0  0  0
    9.6537  -15.4502   25.7937 C   0  0  0  0  0  0  0  0  0  0  0  0
   10.3795  -15.1260   26.7650 O   0  0  0  0  0  0  0  0  0  0  0  0
    9.7670  -16.8022   25.3435 N   0  0  0  0  0  0  0  0  0  0  0  0
   10.7436  -17.6838   25.9341 C   0  0  0  0  0  0  0  0  0  0  0  0
   10.2449  -18.1731   27.2272 C   0  0  0  0  0  0  0  0  0  0  0  0
   11.0141  -18.9800   28.0641 O   0  0  0  0  0  0  0  0  0  0  0  0
    9.1019  -17.8795   27.6250 O   0  0  0  0  0  0  0  0  0  0  0  0
  2  3  2  0
  2  1  1  0
  4  2  1  0
  5  4  1  0
  5  6  1  1
  7  8  2  0
  7  5  1  0
 10  9  1  1
 10 11  1  0
 10 12  1  0
 13 12  1  1
 13 15  1  0
 13 14  1  0
 14  7  1  0
 15 17  1  0
 16 15  2  0
 17 18  1  0
 18 19  1  0
 19 21  2  0
 19 20  1  0
M  END
$$$$
