NLG.pdb
     RDKit          3D

 21 20  0  0  1  0  0  0  0  0999 V2000
    8.2471  -12.4925   18.3594 N   0  0  0  0  0  0  0  0  0  0  0  0
    7.8081  -13.5096   19.2418 C   0  0  0  0  0  0  0  0  0  0  0  0
    7.3120  -14.5813   18.7818 O   0  0  0  0  0  0  0  0  0  0  0  0
    7.9322  -13.3144   20.7226 C   0  0  0  0  0  0  0  0  0  0  0  0
    8.3839  -14.6247   21.3291 C   0  0  2  0  0  0  0  0  0  0  0  0
    7.2977  -15.5677   21.2834 N   0  0  0  0  0  0  0  0  0  0  0  0
    8.7977  -14.3673   22.7374 C   0  0  0  0  0  0  0  0  0  0  0  0
    9.7927  -13.6424   22.9999 O   0  0  0  0  0  0  0  0  0  0  0  0
    5.7433  -12.3719   26.5412 C   0  0  0  0  0  0  0  0  0  0  0  0
    7.0284  -12.6576   25.6966 C   0  0  1  0  0  0  0  0  0  0  0  0
    8.1070  -11.7315   26.2858 C   0  0  0  0  0  0  0  0  0  0  0  0
    7.3206  -14.0932   25.8727 C   0  0  0  0  0  0  0  0  0  0  0  0
    8.5259  -14.6866   25.2396 C   0  0  2  0  0  0  0  0  0  0  0  0
    8.0936  -14.9233   23.8156 N   0  0  0  0  0  0  0  0  0  0  0  0
    8.9861  -15.9813   25.6981 C   0  0  0  0  0  0  0  0  0  0  0  0
    9.0466  -16.2637   26.9196 O   0  0  0  0  0  0  0  0  0  0  0  0
    9.3877  -17.0103   24.7908 N   0  0  0  0  0  0  0  0  0  0  0  0
    9.7636  -18.3104   25.2890 C   0  0  0  0  0  0  0  0  0  0  0  0
   11.1719  -18.2868   25.7091 C   0  0  0  0  0  0  0  0  0  0  0  0
   11.8245  -19.4219   26.1878 O   0  0  0  0  0  0  0  0  0  0  0  0
   11.8396  -17.2374   25.6510 O   0  0  0  0  0  0  0  0  0  0  0  0
  2  3  2  0
  2  1  1  0
  4  2  1  0
  5  4  1  0
  5  6  1  1
  7  8  2  0
  7  5  1  0
 10  9  1  1
 10 11  1  0
 10 12  1  0
 13 12  1  1
 13 15  1  0
 13 14  1  0
 14  7  1  0
 15 17  1  0
 16 15  2  0
 17 18  1  0
 18 19  1  0
 19 21  2  0
 19 20  1  0
M  END
$$$$
