NLG.pdb
     RDKit          3D

 21 20  0  0  1  0  0  0  0  0999 V2000
    9.1506  -16.4981   18.0523 N   0  0  0  0  0  0  0  0  0  0  0  0
    8.2148  -16.3828   19.1090 C   0  0  0  0  0  0  0  0  0  0  0  0
    7.1391  -17.0524   19.0829 O   0  0  0  0  0  0  0  0  0  0  0  0
    8.5009  -15.4657   20.2593 C   0  0  0  0  0  0  0  0  0  0  0  0
    8.6378  -16.3111   21.5064 C   0  0  2  0  0  0  0  0  0  0  0  0
    7.3889  -16.9770   21.7673 N   0  0  0  0  0  0  0  0  0  0  0  0
    9.0017  -15.4137   22.6392 C   0  0  0  0  0  0  0  0  0  0  0  0
   10.0962  -14.7921   22.6498 O   0  0  0  0  0  0  0  0  0  0  0  0
    8.0627  -11.4829   25.9983 C   0  0  0  0  0  0  0  0  0  0  0  0
    7.2339  -12.7464   26.4022 C   0  0  1  0  0  0  0  0  0  0  0  0
    5.8254  -12.2144   26.7209 C   0  0  0  0  0  0  0  0  0  0  0  0
    7.2753  -13.6503   25.2366 C   0  0  0  0  0  0  0  0  0  0  0  0
    8.5294  -14.3732   24.9044 C   0  0  2  0  0  0  0  0  0  0  0  0
    8.1383  -15.2321   23.7296 N   0  0  0  0  0  0  0  0  0  0  0  0
    9.0709  -15.3065   25.8707 C   0  0  0  0  0  0  0  0  0  0  0  0
    9.4555  -14.9307   27.0049 O   0  0  0  0  0  0  0  0  0  0  0  0
    9.1902  -16.7038   25.5937 N   0  0  0  0  0  0  0  0  0  0  0  0
    9.6130  -17.6148   26.6287 C   0  0  0  0  0  0  0  0  0  0  0  0
   10.9956  -18.0422   26.3718 C   0  0  0  0  0  0  0  0  0  0  0  0
   11.9076  -17.2395   25.6883 O   0  0  0  0  0  0  0  0  0  0  0  0
   11.4053  -19.1517   26.7613 O   0  0  0  0  0  0  0  0  0  0  0  0
  2  3  2  0
  2  1  1  0
  4  2  1  0
  5  4  1  0
  5  6  1  1
  7  8  2  0
  7  5  1  0
 10  9  1  6
 10 11  1  0
 10 12  1  0
 13 12  1  1
 13 15  1  0
 13 14  1  0
 14  7  1  0
 15 17  1  0
 16 15  2  0
 17 18  1  0
 18 19  1  0
 19 21  2  0
 19 20  1  0
M  END
$$$$
