NLG.pdb
     RDKit          3D

 21 20  0  0  1  0  0  0  0  0999 V2000
    7.2117  -12.8874   18.4400 N   0  0  0  0  0  0  0  0  0  0  0  0
    8.0982  -13.7896   19.0769 C   0  0  0  0  0  0  0  0  0  0  0  0
    8.5285  -14.8061   18.4541 O   0  0  0  0  0  0  0  0  0  0  0  0
    8.5265  -13.5383   20.4910 C   0  0  0  0  0  0  0  0  0  0  0  0
    8.3943  -14.8369   21.2557 C   0  0  2  0  0  0  0  0  0  0  0  0
    7.0178  -15.2571   21.2423 N   0  0  0  0  0  0  0  0  0  0  0  0
    8.8590  -14.6037   22.6524 C   0  0  0  0  0  0  0  0  0  0  0  0
   10.0254  -14.1937   22.8889 O   0  0  0  0  0  0  0  0  0  0  0  0
    5.5709  -12.3323   26.3406 C   0  0  0  0  0  0  0  0  0  0  0  0
    6.8698  -12.5968   25.5103 C   0  0  1  0  0  0  0  0  0  0  0  0
    7.8799  -11.5462   26.0044 C   0  0  0  0  0  0  0  0  0  0  0  0
    7.2676  -13.9862   25.8082 C   0  0  0  0  0  0  0  0  0  0  0  0
    8.4705  -14.5673   25.1593 C   0  0  2  0  0  0  0  0  0  0  0  0
    8.0139  -14.8330   23.7481 N   0  0  0  0  0  0  0  0  0  0  0  0
    8.9635  -15.8464   25.6271 C   0  0  0  0  0  0  0  0  0  0  0  0
    9.2061  -16.0545   26.8409 O   0  0  0  0  0  0  0  0  0  0  0  0
    9.1929  -16.9434   24.7396 N   0  0  0  0  0  0  0  0  0  0  0  0
    9.7683  -18.1692   25.2354 C   0  0  0  0  0  0  0  0  0  0  0  0
   11.2158  -18.1705   24.9801 C   0  0  0  0  0  0  0  0  0  0  0  0
   12.1175  -17.5015   25.8062 O   0  0  0  0  0  0  0  0  0  0  0  0
   11.6928  -18.7779   24.0033 O   0  0  0  0  0  0  0  0  0  0  0  0
  2  3  2  0
  2  1  1  0
  4  2  1  0
  5  4  1  0
  5  6  1  1
  7  8  2  0
  7  5  1  0
 10  9  1  1
 10 11  1  0
 10 12  1  0
 13 12  1  1
 13 15  1  0
 13 14  1  0
 14  7  1  0
 15 17  1  0
 16 15  2  0
 17 18  1  0
 18 19  1  0
 19 21  2  0
 19 20  1  0
M  END
$$$$
