NLG.pdb
     RDKit          3D

 21 20  0  0  1  0  0  0  0  0999 V2000
    7.7652  -16.5873   19.4006 N   0  0  0  0  0  0  0  0  0  0  0  0
    8.1017  -15.2138   19.4788 C   0  0  0  0  0  0  0  0  0  0  0  0
    8.1708  -14.5141   18.4244 O   0  0  0  0  0  0  0  0  0  0  0  0
    8.3757  -14.5899   20.8137 C   0  0  0  0  0  0  0  0  0  0  0  0
    8.3714  -15.6900   21.8520 C   0  0  2  0  0  0  0  0  0  0  0  0
    7.0424  -16.2307   21.9646 N   0  0  0  0  0  0  0  0  0  0  0  0
    8.8131  -15.1063   23.1502 C   0  0  0  0  0  0  0  0  0  0  0  0
    9.9586  -14.6007   23.2788 O   0  0  0  0  0  0  0  0  0  0  0  0
    5.5515  -12.2339   26.5395 C   0  0  0  0  0  0  0  0  0  0  0  0
    6.8078  -12.6216   25.6922 C   0  0  1  0  0  0  0  0  0  0  0  0
    7.8316  -11.5050   25.9628 C   0  0  0  0  0  0  0  0  0  0  0  0
    7.2349  -13.9470   26.1802 C   0  0  0  0  0  0  0  0  0  0  0  0
    8.4432  -14.5930   25.6071 C   0  0  2  0  0  0  0  0  0  0  0  0
    7.9686  -15.1009   24.2701 N   0  0  0  0  0  0  0  0  0  0  0  0
    8.9854  -15.7630   26.2670 C   0  0  0  0  0  0  0  0  0  0  0  0
    9.3623  -15.7284   27.4637 O   0  0  0  0  0  0  0  0  0  0  0  0
    9.1139  -17.0208   25.5999 N   0  0  0  0  0  0  0  0  0  0  0  0
    9.6321  -18.1665   26.3060 C   0  0  0  0  0  0  0  0  0  0  0  0
   11.0645  -18.3174   26.0127 C   0  0  0  0  0  0  0  0  0  0  0  0
   11.5485  -19.3059   25.1573 O   0  0  0  0  0  0  0  0  0  0  0  0
   11.9064  -17.5566   26.5256 O   0  0  0  0  0  0  0  0  0  0  0  0
  2  3  2  0
  2  1  1  0
  4  2  1  0
  5  4  1  0
  5  6  1  1
  7  8  2  0
  7  5  1  0
 10  9  1  1
 10 11  1  0
 10 12  1  0
 13 12  1  1
 13 15  1  0
 13 14  1  0
 14  7  1  0
 15 17  1  0
 16 15  2  0
 17 18  1  0
 18 19  1  0
 19 21  2  0
 19 20  1  0
M  END
$$$$
