NLG.pdb
     RDKit          3D

 21 20  0  0  1  0  0  0  0  0999 V2000
   10.9567  -16.8534   13.3444 N   0  0  0  0  0  0  0  0  0  0  0  0
   10.2131  -17.0445   14.5345 C   0  0  0  0  0  0  0  0  0  0  0  0
    9.4572  -18.0542   14.6579 O   0  0  0  0  0  0  0  0  0  0  0  0
   10.3234  -16.0482   15.6486 C   0  0  0  0  0  0  0  0  0  0  0  0
   10.5840  -16.8089   16.9301 C   0  0  2  0  0  0  0  0  0  0  0  0
    9.4808  -17.6968   17.1871 N   0  0  0  0  0  0  0  0  0  0  0  0
   10.7320  -15.8208   18.0358 C   0  0  0  0  0  0  0  0  0  0  0  0
   11.6964  -15.0122   18.0596 O   0  0  0  0  0  0  0  0  0  0  0  0
    6.5694  -13.1342   19.8975 C   0  0  0  0  0  0  0  0  0  0  0  0
    8.0553  -13.3548   19.4618 C   0  0  1  0  0  0  0  0  0  0  0  0
    8.6802  -11.9485   19.4490 C   0  0  0  0  0  0  0  0  0  0  0  0
    8.6459  -14.2556   20.4703 C   0  0  0  0  0  0  0  0  0  0  0  0
    9.9999  -14.8255   20.2517 C   0  0  2  0  0  0  0  0  0  0  0  0
    9.8033  -15.7589   19.0852 N   0  0  0  0  0  0  0  0  0  0  0  0
   10.5798  -15.6567   21.2866 C   0  0  0  0  0  0  0  0  0  0  0  0
    9.9197  -16.5638   21.8495 O   0  0  0  0  0  0  0  0  0  0  0  0
   11.9333  -15.4990   21.7188 N   0  0  0  0  0  0  0  0  0  0  0  0
   12.4688  -16.3512   22.7516 C   0  0  0  0  0  0  0  0  0  0  0  0
   13.8901  -16.0387   22.9580 C   0  0  0  0  0  0  0  0  0  0  0  0
   14.5527  -16.3393   24.1470 O   0  0  0  0  0  0  0  0  0  0  0  0
   14.5603  -15.4870   22.0652 O   0  0  0  0  0  0  0  0  0  0  0  0
  2  3  2  0
  2  1  1  0
  4  2  1  0
  5  4  1  0
  5  6  1  1
  7  8  2  0
  7  5  1  0
 10  9  1  1
 10 11  1  0
 10 12  1  0
 13 12  1  1
 13 15  1  0
 13 14  1  0
 14  7  1  0
 15 17  1  0
 16 15  2  0
 17 18  1  0
 18 19  1  0
 19 21  2  0
 19 20  1  0
M  END
$$$$
