NLG.pdb
     RDKit          3D

 21 20  0  0  1  0  0  0  0  0999 V2000
   12.0775  -17.3063   15.1542 N   0  0  0  0  0  0  0  0  0  0  0  0
   12.5607  -17.2857   16.4853 C   0  0  0  0  0  0  0  0  0  0  0  0
   13.3154  -18.2141   16.9032 O   0  0  0  0  0  0  0  0  0  0  0  0
   12.1765  -16.1615   17.3989 C   0  0  0  0  0  0  0  0  0  0  0  0
   11.8792  -16.7487   18.7610 C   0  0  2  0  0  0  0  0  0  0  0  0
   10.7717  -17.6614   18.6524 N   0  0  0  0  0  0  0  0  0  0  0  0
   11.5490  -15.6296   19.6881 C   0  0  0  0  0  0  0  0  0  0  0  0
   12.3973  -14.7407   19.9613 O   0  0  0  0  0  0  0  0  0  0  0  0
    6.7433  -13.1924   19.4515 C   0  0  0  0  0  0  0  0  0  0  0  0
    8.2957  -13.3574   19.5478 C   0  0  1  0  0  0  0  0  0  0  0  0
    8.8539  -11.9247   19.4852 C   0  0  0  0  0  0  0  0  0  0  0  0
    8.5539  -14.0375   20.8316 C   0  0  0  0  0  0  0  0  0  0  0  0
    9.9441  -14.3927   21.2150 C   0  0  2  0  0  0  0  0  0  0  0  0
   10.2843  -15.5297   20.2863 N   0  0  0  0  0  0  0  0  0  0  0  0
   10.1858  -14.9236   22.5408 C   0  0  0  0  0  0  0  0  0  0  0  0
    9.6900  -14.3912   23.5636 O   0  0  0  0  0  0  0  0  0  0  0  0
   10.9915  -16.0840   22.7598 N   0  0  0  0  0  0  0  0  0  0  0  0
   11.1187  -16.6390   24.0847 C   0  0  0  0  0  0  0  0  0  0  0  0
   12.0630  -17.7651   24.0567 C   0  0  0  0  0  0  0  0  0  0  0  0
   12.1633  -18.6781   25.1053 O   0  0  0  0  0  0  0  0  0  0  0  0
   12.8163  -17.9444   23.0815 O   0  0  0  0  0  0  0  0  0  0  0  0
  2  3  2  0
  2  1  1  0
  4  2  1  0
  5  4  1  0
  5  6  1  6
  7  8  2  0
  7  5  1  0
 10  9  1  1
 10 11  1  0
 10 12  1  0
 13 12  1  1
 13 15  1  0
 13 14  1  0
 14  7  1  0
 15 17  1  0
 16 15  2  0
 17 18  1  0
 18 19  1  0
 19 21  2  0
 19 20  1  0
M  END
$$$$
