NLG.pdb
     RDKit          3D

 21 20  0  0  1  0  0  0  0  0999 V2000
    6.6249  -15.7743   19.1442 N   0  0  0  0  0  0  0  0  0  0  0  0
    7.2963  -16.7938   19.8622 C   0  0  0  0  0  0  0  0  0  0  0  0
    7.4112  -17.9535   19.3641 O   0  0  0  0  0  0  0  0  0  0  0  0
    7.8713  -16.4966   21.2139 C   0  0  0  0  0  0  0  0  0  0  0  0
    7.4492  -15.0967   21.6024 C   0  0  2  0  0  0  0  0  0  0  0  0
    7.6894  -14.2055   20.4981 N   0  0  0  0  0  0  0  0  0  0  0  0
    8.2449  -14.6844   22.7931 C   0  0  0  0  0  0  0  0  0  0  0  0
    9.3776  -14.1507   22.6644 O   0  0  0  0  0  0  0  0  0  0  0  0
    5.7064  -12.2149   26.8593 C   0  0  0  0  0  0  0  0  0  0  0  0
    6.8270  -12.4714   25.7987 C   0  0  1  0  0  0  0  0  0  0  0  0
    7.8004  -11.2896   25.9529 C   0  0  0  0  0  0  0  0  0  0  0  0
    7.4221  -13.7771   26.1428 C   0  0  0  0  0  0  0  0  0  0  0  0
    8.5003  -14.3461   25.2946 C   0  0  2  0  0  0  0  0  0  0  0  0
    7.7591  -14.8771   24.0948 N   0  0  0  0  0  0  0  0  0  0  0  0
    9.2482  -15.4832   25.7904 C   0  0  0  0  0  0  0  0  0  0  0  0
    9.6945  -15.5169   26.9630 O   0  0  0  0  0  0  0  0  0  0  0  0
    9.5126  -16.6308   24.9802 N   0  0  0  0  0  0  0  0  0  0  0  0
   10.2107  -17.7645   25.5344 C   0  0  0  0  0  0  0  0  0  0  0  0
   11.4513  -17.9939   24.7803 C   0  0  0  0  0  0  0  0  0  0  0  0
   12.6948  -18.0842   25.4036 O   0  0  0  0  0  0  0  0  0  0  0  0
   11.4336  -18.1170   23.5413 O   0  0  0  0  0  0  0  0  0  0  0  0
  2  3  2  0
  2  1  1  0
  4  2  1  0
  5  4  1  0
  5  6  1  6
  7  8  2  0
  7  5  1  0
 10  9  1  1
 10 11  1  0
 10 12  1  0
 13 12  1  1
 13 15  1  0
 13 14  1  0
 14  7  1  0
 15 17  1  0
 16 15  2  0
 17 18  1  0
 18 19  1  0
 19 21  2  0
 19 20  1  0
M  END
$$$$
