NLG.pdb
     RDKit          3D

 21 20  0  0  1  0  0  0  0  0999 V2000
    7.8082  -21.3188   19.3123 N   0  0  0  0  0  0  0  0  0  0  0  0
    9.0274  -20.8417   18.7722 C   0  0  0  0  0  0  0  0  0  0  0  0
    9.5141  -21.3743   17.7303 O   0  0  0  0  0  0  0  0  0  0  0  0
    9.7409  -19.7038   19.4373 C   0  0  0  0  0  0  0  0  0  0  0  0
    9.4404  -18.4443   18.6549 C   0  0  2  0  0  0  0  0  0  0  0  0
   10.1216  -18.4991   17.3883 N   0  0  0  0  0  0  0  0  0  0  0  0
    9.9096  -17.2772   19.4540 C   0  0  0  0  0  0  0  0  0  0  0  0
   11.0974  -16.8687   19.3714 O   0  0  0  0  0  0  0  0  0  0  0  0
    6.3547  -13.2859   20.8413 C   0  0  0  0  0  0  0  0  0  0  0  0
    7.6528  -13.9376   20.2610 C   0  0  1  0  0  0  0  0  0  0  0  0
    8.4815  -12.7604   19.7173 C   0  0  0  0  0  0  0  0  0  0  0  0
    8.2938  -14.6416   21.3883 C   0  0  0  0  0  0  0  0  0  0  0  0
    9.5261  -15.4382   21.1593 C   0  0  2  0  0  0  0  0  0  0  0  0
    9.0450  -16.5960   20.3234 N   0  0  0  0  0  0  0  0  0  0  0  0
   10.1750  -16.0579   22.2965 C   0  0  0  0  0  0  0  0  0  0  0  0
    9.6818  -17.0591   22.8708 O   0  0  0  0  0  0  0  0  0  0  0  0
   11.4126  -15.5732   22.8228 N   0  0  0  0  0  0  0  0  0  0  0  0
   12.0039  -16.1998   23.9792 C   0  0  0  0  0  0  0  0  0  0  0  0
   13.3869  -16.5915   23.6720 C   0  0  0  0  0  0  0  0  0  0  0  0
   13.6956  -17.4993   22.6601 O   0  0  0  0  0  0  0  0  0  0  0  0
   14.3434  -16.1193   24.3143 O   0  0  0  0  0  0  0  0  0  0  0  0
  2  3  2  0
  2  1  1  0
  4  2  1  0
  5  4  1  0
  5  6  1  6
  7  8  2  0
  7  5  1  0
 10  9  1  1
 10 11  1  0
 10 12  1  0
 13 12  1  1
 13 15  1  0
 13 14  1  0
 14  7  1  0
 15 17  1  0
 16 15  2  0
 17 18  1  0
 18 19  1  0
 19 21  2  0
 19 20  1  0
M  END
$$$$
