NLG.pdb
     RDKit          3D

 21 20  0  0  1  0  0  0  0  0999 V2000
    6.8286  -13.1417   18.7892 N   0  0  0  0  0  0  0  0  0  0  0  0
    8.0168  -13.7389   19.2763 C   0  0  0  0  0  0  0  0  0  0  0  0
    8.7183  -14.4724   18.5175 O   0  0  0  0  0  0  0  0  0  0  0  0
    8.4425  -13.5001   20.6934 C   0  0  0  0  0  0  0  0  0  0  0  0
    8.4168  -14.8281   21.4177 C   0  0  2  0  0  0  0  0  0  0  0  0
    7.0811  -15.3627   21.3804 N   0  0  0  0  0  0  0  0  0  0  0  0
    8.8523  -14.5992   22.8244 C   0  0  0  0  0  0  0  0  0  0  0  0
    9.9639  -14.0679   23.0820 O   0  0  0  0  0  0  0  0  0  0  0  0
    5.5025  -12.5267   26.5699 C   0  0  0  0  0  0  0  0  0  0  0  0
    6.8341  -12.7283   25.7744 C   0  0  1  0  0  0  0  0  0  0  0  0
    7.8363  -11.7558   26.4211 C   0  0  0  0  0  0  0  0  0  0  0  0
    7.1967  -14.1489   25.9407 C   0  0  0  0  0  0  0  0  0  0  0  0
    8.4444  -14.6714   25.3275 C   0  0  2  0  0  0  0  0  0  0  0  0
    8.0395  -14.9676   23.9066 N   0  0  0  0  0  0  0  0  0  0  0  0
    8.9892  -15.9212   25.8167 C   0  0  0  0  0  0  0  0  0  0  0  0
    9.1526  -16.1329   27.0430 O   0  0  0  0  0  0  0  0  0  0  0  0
    9.3623  -16.9840   24.9365 N   0  0  0  0  0  0  0  0  0  0  0  0
    9.8219  -18.2416   25.4721 C   0  0  0  0  0  0  0  0  0  0  0  0
   11.2906  -18.2842   25.4337 C   0  0  0  0  0  0  0  0  0  0  0  0
   12.0177  -19.3540   25.9534 O   0  0  0  0  0  0  0  0  0  0  0  0
   11.9448  -17.3528   24.9287 O   0  0  0  0  0  0  0  0  0  0  0  0
  2  3  2  0
  2  1  1  0
  4  2  1  0
  5  4  1  0
  5  6  1  1
  7  8  2  0
  7  5  1  0
 10  9  1  1
 10 11  1  0
 10 12  1  0
 13 12  1  1
 13 15  1  0
 13 14  1  0
 14  7  1  0
 15 17  1  0
 16 15  2  0
 17 18  1  0
 18 19  1  0
 19 21  2  0
 19 20  1  0
M  END
$$$$
