NLG.pdb
     RDKit          3D

 21 20  0  0  1  0  0  0  0  0999 V2000
    7.1297  -16.5613   19.4366 N   0  0  0  0  0  0  0  0  0  0  0  0
    7.7735  -17.4740   20.3073 C   0  0  0  0  0  0  0  0  0  0  0  0
    7.8737  -18.6963   19.9879 O   0  0  0  0  0  0  0  0  0  0  0  0
    8.3368  -16.9892   21.6089 C   0  0  0  0  0  0  0  0  0  0  0  0
    7.9684  -15.5299   21.7614 C   0  0  2  0  0  0  0  0  0  0  0  0
    8.4320  -14.8010   20.6103 N   0  0  0  0  0  0  0  0  0  0  0  0
    8.6114  -15.0151   23.0034 C   0  0  0  0  0  0  0  0  0  0  0  0
    9.7869  -14.5653   22.9879 O   0  0  0  0  0  0  0  0  0  0  0  0
    5.7151  -12.1975   26.7578 C   0  0  0  0  0  0  0  0  0  0  0  0
    6.8934  -12.5252   25.7828 C   0  0  1  0  0  0  0  0  0  0  0  0
    7.9011  -11.3781   25.9749 C   0  0  0  0  0  0  0  0  0  0  0  0
    7.4109  -13.8432   26.1981 C   0  0  0  0  0  0  0  0  0  0  0  0
    8.5587  -14.4491   25.4760 C   0  0  2  0  0  0  0  0  0  0  0  0
    7.9294  -15.0147   24.2291 N   0  0  0  0  0  0  0  0  0  0  0  0
    9.2434  -15.5745   26.0784 C   0  0  0  0  0  0  0  0  0  0  0  0
    9.7901  -15.4863   27.2048 O   0  0  0  0  0  0  0  0  0  0  0  0
    9.3284  -16.8469   25.4324 N   0  0  0  0  0  0  0  0  0  0  0  0
    9.9297  -17.9670   26.1132 C   0  0  0  0  0  0  0  0  0  0  0  0
   11.3393  -18.0852   25.7138 C   0  0  0  0  0  0  0  0  0  0  0  0
   12.1658  -19.1002   26.1933 O   0  0  0  0  0  0  0  0  0  0  0  0
   11.8505  -17.2712   24.9222 O   0  0  0  0  0  0  0  0  0  0  0  0
  2  3  2  0
  2  1  1  0
  4  2  1  0
  5  4  1  0
  5  6  1  6
  7  8  2  0
  7  5  1  0
 10  9  1  1
 10 11  1  0
 10 12  1  0
 13 12  1  1
 13 15  1  0
 13 14  1  0
 14  7  1  0
 15 17  1  0
 16 15  2  0
 17 18  1  0
 18 19  1  0
 19 21  2  0
 19 20  1  0
M  END
$$$$
