NLG.pdb
     RDKit          3D

 21 20  0  0  1  0  0  0  0  0999 V2000
    4.5068  -19.8090   22.5233 N   0  0  0  0  0  0  0  0  0  0  0  0
    4.0618  -18.5639   22.0158 C   0  0  0  0  0  0  0  0  0  0  0  0
    3.0150  -18.5039   21.3039 O   0  0  0  0  0  0  0  0  0  0  0  0
    4.8333  -17.3165   22.3238 C   0  0  0  0  0  0  0  0  0  0  0  0
    6.0426  -17.7071   23.1445 C   0  0  2  0  0  0  0  0  0  0  0  0
    5.6057  -18.2530   24.4025 N   0  0  0  0  0  0  0  0  0  0  0  0
    6.8720  -16.4878   23.3603 C   0  0  0  0  0  0  0  0  0  0  0  0
    7.4834  -15.9408   22.4057 O   0  0  0  0  0  0  0  0  0  0  0  0
    5.9362  -12.2755   26.8741 C   0  0  0  0  0  0  0  0  0  0  0  0
    6.3758  -12.9851   25.5514 C   0  0  1  0  0  0  0  0  0  0  0  0
    6.9512  -11.8633   24.6690 C   0  0  0  0  0  0  0  0  0  0  0  0
    7.3733  -13.9987   25.9453 C   0  0  0  0  0  0  0  0  0  0  0  0
    8.0233  -14.8400   24.9083 C   0  0  2  0  0  0  0  0  0  0  0  0
    6.9988  -15.9101   24.6321 N   0  0  0  0  0  0  0  0  0  0  0  0
    9.2243  -15.5704   25.2578 C   0  0  0  0  0  0  0  0  0  0  0  0
    9.3287  -16.1822   26.3488 O   0  0  0  0  0  0  0  0  0  0  0  0
   10.3514  -15.6440   24.3815 N   0  0  0  0  0  0  0  0  0  0  0  0
   11.5595  -16.3060   24.8079 C   0  0  0  0  0  0  0  0  0  0  0  0
   12.5707  -16.2145   23.7451 C   0  0  0  0  0  0  0  0  0  0  0  0
   12.2969  -15.6394   22.5052 O   0  0  0  0  0  0  0  0  0  0  0  0
   13.7229  -16.6540   23.9185 O   0  0  0  0  0  0  0  0  0  0  0  0
  2  3  2  0
  2  1  1  0
  4  2  1  0
  5  4  1  0
  5  6  1  1
  7  8  2  0
  7  5  1  0
 10  9  1  1
 10 11  1  0
 10 12  1  0
 13 12  1  1
 13 15  1  0
 13 14  1  0
 14  7  1  0
 15 17  1  0
 16 15  2  0
 17 18  1  0
 18 19  1  0
 19 21  2  0
 19 20  1  0
M  END
$$$$
