WCP.pdb
     RDKit          3D

 28 30  0  0  1  0  0  0  0  0999 V2000
   21.4937  -21.0918  -17.1365 N   0  0  0  0  0  0  0  0  0  0  0  0
   21.8937  -19.9129  -16.3852 C   0  0  1  0  0  0  0  0  0  0  0  0
   20.8364  -19.7179  -15.3061 C   0  0  0  0  0  0  0  0  0  0  0  0
   19.8088  -18.7412  -15.7077 C   0  0  0  0  0  0  0  0  0  0  0  0
   18.4720  -19.0376  -15.8983 C   0  0  0  0  0  0  0  0  0  0  0  0
   17.8546  -17.8871  -16.2613 N   0  0  0  0  0  0  0  0  0  0  0  0
   18.7835  -16.8975  -16.2960 C   0  0  0  0  0  0  0  0  0  0  0  0
   18.6619  -15.5655  -16.6030 C   0  0  0  0  0  0  0  0  0  0  0  0
   19.7654  -14.7440  -16.5687 C   0  0  0  0  0  0  0  0  0  0  0  0
   21.0097  -15.2229  -16.2300 C   0  0  0  0  0  0  0  0  0  0  0  0
   21.1156  -16.5548  -15.9260 C   0  0  0  0  0  0  0  0  0  0  0  0
   20.0136  -17.3941  -15.9566 C   0  0  0  0  0  0  0  0  0  0  0  0
   23.2397  -20.1403  -15.7452 C   0  0  0  0  0  0  0  0  0  0  0  0
   23.5929  -21.2903  -15.3842 O   0  0  0  0  0  0  0  0  0  0  0  0
   24.1321  -19.0651  -15.5379 N   0  0  0  0  0  0  0  0  0  0  0  0
   25.3912  -19.2981  -14.7960 C   0  0  1  0  0  0  0  0  0  0  0  0
   26.2920  -18.1110  -15.0009 C   0  0  0  0  0  0  0  0  0  0  0  0
   27.5416  -17.8993  -13.7365 S   0  0  0  0  0  0  0  0  0  0  0  0
   25.1073  -19.6534  -13.4061 C   0  0  0  0  0  0  0  0  0  0  0  0
   24.0734  -19.0700  -12.9002 O   0  0  0  0  0  0  0  0  0  0  0  0
   25.8078  -20.5417  -12.5615 N   0  0  0  0  0  0  0  0  0  0  0  0
   27.0164  -21.2324  -13.0760 C   0  0  0  0  0  0  0  0  0  0  0  0
   27.0995  -22.4866  -12.2334 C   0  0  0  0  0  0  0  0  0  0  0  0
   26.5944  -22.0774  -10.8924 C   0  0  0  0  0  0  0  0  0  0  0  0
   25.6184  -20.9588  -11.2016 C   0  0  1  0  0  0  0  0  0  0  0  0
   25.8210  -19.8330  -10.2268 C   0  0  0  0  0  0  0  0  0  0  0  0
   26.5758  -18.8952  -10.5520 O   0  0  0  0  0  0  0  0  0  0  0  0
   25.1975  -19.8204   -9.0034 O   0  0  0  0  0  0  0  0  0  0  0  0
  2  3  1  0
  2  1  1  1
  3  4  1  0
  4 12  1  0
  4  5  2  0
  5  6  1  0
  7  6  1  0
  7  8  2  0
  9  8  1  0
 10  9  2  0
 11 12  2  0
 11 10  1  0
 12  7  1  0
 13  2  1  0
 13 15  1  0
 14 13  2  0
 16 15  1  0
 16 17  1  1
 18 17  1  0
 19 16  1  0
 20 19  2  0
 21 19  1  0
 21 25  1  0
 22 21  1  0
 23 22  1  0
 23 24  1  0
 24 25  1  0
 25 26  1  1
 26 28  1  0
 27 26  2  0
M  END
$$$$
