WCP.pdb
     RDKit          3D

 28 30  0  0  1  0  0  0  0  0999 V2000
   27.6329  -22.3274  -10.2252 N   0  0  0  0  0  0  0  0  0  0  0  0
   26.9446  -21.0713   -9.9750 C   0  0  1  0  0  0  0  0  0  0  0  0
   28.0312  -20.0366   -9.7118 C   0  0  0  0  0  0  0  0  0  0  0  0
   28.8003  -20.3393   -8.4920 C   0  0  0  0  0  0  0  0  0  0  0  0
   29.9745  -21.0685   -8.4617 C   0  0  0  0  0  0  0  0  0  0  0  0
   30.3733  -21.1316   -7.1681 N   0  0  0  0  0  0  0  0  0  0  0  0
   29.4701  -20.4583   -6.4102 C   0  0  0  0  0  0  0  0  0  0  0  0
   29.4256  -20.2355   -5.0568 C   0  0  0  0  0  0  0  0  0  0  0  0
   28.3922  -19.5110   -4.5085 C   0  0  0  0  0  0  0  0  0  0  0  0
   27.3834  -18.9926   -5.2870 C   0  0  0  0  0  0  0  0  0  0  0  0
   27.4412  -19.2233   -6.6364 C   0  0  0  0  0  0  0  0  0  0  0  0
   28.4753  -19.9512   -7.2026 C   0  0  0  0  0  0  0  0  0  0  0  0
   26.1425  -20.6713  -11.1874 C   0  0  0  0  0  0  0  0  0  0  0  0
   26.7117  -20.2346  -12.2183 O   0  0  0  0  0  0  0  0  0  0  0  0
   24.7340  -20.7791  -11.1895 N   0  0  0  0  0  0  0  0  0  0  0  0
   24.0173  -20.9148  -12.4771 C   0  0  1  0  0  0  0  0  0  0  0  0
   24.4663  -22.1876  -13.1409 C   0  0  0  0  0  0  0  0  0  0  0  0
   23.1800  -23.0521  -14.0374 S   0  0  0  0  0  0  0  0  0  0  0  0
   22.5756  -20.7714  -12.2773 C   0  0  0  0  0  0  0  0  0  0  0  0
   22.0822  -21.5208  -11.3497 O   0  0  0  0  0  0  0  0  0  0  0  0
   21.6699  -19.9289  -12.9573 N   0  0  0  0  0  0  0  0  0  0  0  0
   22.1282  -19.1894  -14.1597 C   0  0  0  0  0  0  0  0  0  0  0  0
   21.2067  -17.9904  -14.2170 C   0  0  0  0  0  0  0  0  0  0  0  0
   19.8992  -18.4915  -13.7070 C   0  0  0  0  0  0  0  0  0  0  0  0
   20.2880  -19.6020  -12.7504 C   0  0  1  0  0  0  0  0  0  0  0  0
   19.3850  -20.7846  -12.9618 C   0  0  0  0  0  0  0  0  0  0  0  0
   19.7513  -21.6772  -13.7518 O   0  0  0  0  0  0  0  0  0  0  0  0
   18.1822  -20.8966  -12.3087 O   0  0  0  0  0  0  0  0  0  0  0  0
  2  3  1  0
  2  1  1  6
  3  4  1  0
  4 12  1  0
  4  5  2  0
  5  6  1  0
  7  6  1  0
  7  8  2  0
  9  8  1  0
 10  9  2  0
 11 12  2  0
 11 10  1  0
 12  7  1  0
 13  2  1  0
 13 15  1  0
 14 13  2  0
 16 15  1  0
 16 17  1  1
 18 17  1  0
 19 16  1  0
 20 19  2  0
 21 19  1  0
 21 25  1  0
 22 21  1  0
 23 22  1  0
 23 24  1  0
 24 25  1  0
 25 26  1  6
 26 28  1  0
 27 26  2  0
M  END
$$$$
