WCP.pdb
     RDKit          3D

 28 30  0  0  1  0  0  0  0  0999 V2000
   25.9422  -21.1599  -13.2379 N   0  0  0  0  0  0  0  0  0  0  0  0
   26.9624  -21.1333  -12.2023 C   0  0  1  0  0  0  0  0  0  0  0  0
   28.1348  -20.3515  -12.7807 C   0  0  0  0  0  0  0  0  0  0  0  0
   29.2612  -21.2297  -13.1429 C   0  0  0  0  0  0  0  0  0  0  0  0
   29.5333  -21.6745  -14.4232 C   0  0  0  0  0  0  0  0  0  0  0  0
   30.6386  -22.4552  -14.3495 N   0  0  0  0  0  0  0  0  0  0  0  0
   31.0459  -22.4961  -13.0549 C   0  0  0  0  0  0  0  0  0  0  0  0
   32.1049  -23.1433  -12.4694 C   0  0  0  0  0  0  0  0  0  0  0  0
   32.3193  -23.0337  -11.1145 C   0  0  0  0  0  0  0  0  0  0  0  0
   31.4918  -22.2823  -10.3127 C   0  0  0  0  0  0  0  0  0  0  0  0
   30.4387  -21.6420  -10.9114 C   0  0  0  0  0  0  0  0  0  0  0  0
   30.2101  -21.7433  -12.2743 C   0  0  0  0  0  0  0  0  0  0  0  0
   26.4361  -20.4307  -10.9765 C   0  0  0  0  0  0  0  0  0  0  0  0
   25.6848  -19.4299  -11.0831 O   0  0  0  0  0  0  0  0  0  0  0  0
   26.7768  -20.8828   -9.6823 N   0  0  0  0  0  0  0  0  0  0  0  0
   26.3904  -20.0743   -8.5046 C   0  0  1  0  0  0  0  0  0  0  0  0
   24.8918  -20.1008   -8.3790 C   0  0  0  0  0  0  0  0  0  0  0  0
   24.2164  -21.6788   -7.8699 S   0  0  0  0  0  0  0  0  0  0  0  0
   27.1391  -20.5016   -7.3232 C   0  0  0  0  0  0  0  0  0  0  0  0
   27.2781  -21.7791   -7.2052 O   0  0  0  0  0  0  0  0  0  0  0  0
   27.7224  -19.7067   -6.3129 N   0  0  0  0  0  0  0  0  0  0  0  0
   27.6968  -18.2288   -6.4457 C   0  0  0  0  0  0  0  0  0  0  0  0
   28.8834  -17.7737   -5.6243 C   0  0  0  0  0  0  0  0  0  0  0  0
   28.9565  -18.7418   -4.4938 C   0  0  0  0  0  0  0  0  0  0  0  0
   28.3776  -20.0174   -5.0746 C   0  0  1  0  0  0  0  0  0  0  0  0
   27.4438  -20.6435   -4.0773 C   0  0  0  0  0  0  0  0  0  0  0  0
   26.2187  -20.6071   -4.3073 O   0  0  0  0  0  0  0  0  0  0  0  0
   27.9107  -21.2464   -2.9352 O   0  0  0  0  0  0  0  0  0  0  0  0
  2  3  1  0
  2  1  1  6
  3  4  1  0
  4 12  1  0
  4  5  2  0
  5  6  1  0
  7  6  1  0
  7  8  2  0
  9  8  1  0
 10  9  2  0
 11 12  2  0
 11 10  1  0
 12  7  1  0
 13  2  1  0
 13 15  1  0
 14 13  2  0
 16 15  1  0
 16 17  1  1
 18 17  1  0
 19 16  1  0
 20 19  2  0
 21 19  1  0
 21 25  1  0
 22 21  1  0
 23 22  1  0
 23 24  1  0
 24 25  1  0
 25 26  1  1
 26 28  1  0
 27 26  2  0
M  END
$$$$
