WCP.pdb
     RDKit          3D

 28 30  0  0  1  0  0  0  0  0999 V2000
   25.0619  -21.0868   -9.0971 N   0  0  0  0  0  0  0  0  0  0  0  0
   26.1127  -20.2019   -9.5735 C   0  0  1  0  0  0  0  0  0  0  0  0
   27.3784  -20.6057   -8.8283 C   0  0  0  0  0  0  0  0  0  0  0  0
   27.4762  -19.9549   -7.5100 C   0  0  0  0  0  0  0  0  0  0  0  0
   26.6390  -18.9493   -7.0638 C   0  0  0  0  0  0  0  0  0  0  0  0
   27.0461  -18.6138   -5.8155 N   0  0  0  0  0  0  0  0  0  0  0  0
   28.1109  -19.3911   -5.4911 C   0  0  0  0  0  0  0  0  0  0  0  0
   28.8724  -19.4361   -4.3503 C   0  0  0  0  0  0  0  0  0  0  0  0
   29.9190  -20.3240   -4.2516 C   0  0  0  0  0  0  0  0  0  0  0  0
   30.2329  -21.1845   -5.2779 C   0  0  0  0  0  0  0  0  0  0  0  0
   29.4638  -21.1281   -6.4106 C   0  0  0  0  0  0  0  0  0  0  0  0
   28.4071  -20.2392   -6.5245 C   0  0  0  0  0  0  0  0  0  0  0  0
   26.3124  -20.3886  -11.0563 C   0  0  0  0  0  0  0  0  0  0  0  0
   26.2632  -21.5329  -11.5717 O   0  0  0  0  0  0  0  0  0  0  0  0
   26.5591  -19.2808  -11.8972 N   0  0  0  0  0  0  0  0  0  0  0  0
   26.1928  -19.3590  -13.3289 C   0  0  1  0  0  0  0  0  0  0  0  0
   25.6772  -18.0144  -13.7633 C   0  0  0  0  0  0  0  0  0  0  0  0
   25.7261  -17.7354  -15.5311 S   0  0  0  0  0  0  0  0  0  0  0  0
   27.3025  -19.9020  -14.1116 C   0  0  0  0  0  0  0  0  0  0  0  0
   28.4505  -19.3675  -13.8633 O   0  0  0  0  0  0  0  0  0  0  0  0
   27.2784  -20.9224  -15.0868 N   0  0  0  0  0  0  0  0  0  0  0  0
   26.0403  -21.7188  -15.2746 C   0  0  0  0  0  0  0  0  0  0  0  0
   26.5382  -23.0268  -15.8499 C   0  0  0  0  0  0  0  0  0  0  0  0
   27.7027  -22.6492  -16.6997 C   0  0  0  0  0  0  0  0  0  0  0  0
   28.2476  -21.4027  -16.0298 C   0  0  1  0  0  0  0  0  0  0  0  0
   28.5817  -20.3767  -17.0759 C   0  0  0  0  0  0  0  0  0  0  0  0
   27.7871  -19.4328  -17.2564 O   0  0  0  0  0  0  0  0  0  0  0  0
   29.7302  -20.4604  -17.8240 O   0  0  0  0  0  0  0  0  0  0  0  0
  2  3  1  0
  2  1  1  1
  3  4  1  0
  4 12  1  0
  4  5  2  0
  5  6  1  0
  7  6  1  0
  7  8  2  0
  9  8  1  0
 10  9  2  0
 11 12  2  0
 11 10  1  0
 12  7  1  0
 13  2  1  0
 13 15  1  0
 14 13  2  0
 16 15  1  0
 16 17  1  6
 18 17  1  0
 19 16  1  0
 20 19  2  0
 21 19  1  0
 21 25  1  0
 22 21  1  0
 23 22  1  0
 23 24  1  0
 24 25  1  0
 25 26  1  6
 26 28  1  0
 27 26  2  0
M  END
$$$$
