WCP.pdb
     RDKit          3D

 28 30  0  0  1  0  0  0  0  0999 V2000
   28.1054  -21.4318  -11.8039 N   0  0  0  0  0  0  0  0  0  0  0  0
   27.2688  -21.2644  -10.6265 C   0  0  1  0  0  0  0  0  0  0  0  0
   28.0861  -20.4430   -9.6378 C   0  0  0  0  0  0  0  0  0  0  0  0
   27.3363  -20.1576   -8.4019 C   0  0  0  0  0  0  0  0  0  0  0  0
   25.9724  -19.9399   -8.3405 C   0  0  0  0  0  0  0  0  0  0  0  0
   25.6616  -19.7109   -7.0415 N   0  0  0  0  0  0  0  0  0  0  0  0
   26.8035  -19.7841   -6.3106 C   0  0  0  0  0  0  0  0  0  0  0  0
   27.0163  -19.6291   -4.9638 C   0  0  0  0  0  0  0  0  0  0  0  0
   28.2850  -19.7512   -4.4452 C   0  0  0  0  0  0  0  0  0  0  0  0
   29.3674  -20.0293   -5.2473 C   0  0  0  0  0  0  0  0  0  0  0  0
   29.1396  -20.1813   -6.5900 C   0  0  0  0  0  0  0  0  0  0  0  0
   27.8678  -20.0609   -7.1265 C   0  0  0  0  0  0  0  0  0  0  0  0
   26.0091  -20.5198  -10.9895 C   0  0  0  0  0  0  0  0  0  0  0  0
   25.9948  -19.2646  -11.0315 O   0  0  0  0  0  0  0  0  0  0  0  0
   24.8182  -21.2178  -11.2897 N   0  0  0  0  0  0  0  0  0  0  0  0
   23.6862  -20.4919  -11.9076 C   0  0  1  0  0  0  0  0  0  0  0  0
   24.1751  -19.8285  -13.1659 C   0  0  0  0  0  0  0  0  0  0  0  0
   22.9098  -18.9601  -14.0880 S   0  0  0  0  0  0  0  0  0  0  0  0
   22.5322  -21.3776  -12.0581 C   0  0  0  0  0  0  0  0  0  0  0  0
   22.7440  -22.4207  -12.7877 O   0  0  0  0  0  0  0  0  0  0  0  0
   21.2373  -21.2402  -11.5130 N   0  0  0  0  0  0  0  0  0  0  0  0
   20.9127  -20.0380  -10.7056 C   0  0  0  0  0  0  0  0  0  0  0  0
   19.7869  -20.5020   -9.8071 C   0  0  0  0  0  0  0  0  0  0  0  0
   19.0149  -21.4711  -10.6351 C   0  0  0  0  0  0  0  0  0  0  0  0
   20.0554  -22.0519  -11.5729 C   0  0  1  0  0  0  0  0  0  0  0  0
   19.4888  -22.1318  -12.9626 C   0  0  0  0  0  0  0  0  0  0  0  0
   19.9047  -21.3275  -13.8201 O   0  0  0  0  0  0  0  0  0  0  0  0
   18.5360  -23.0619  -13.2981 O   0  0  0  0  0  0  0  0  0  0  0  0
  2  3  1  0
  2  1  1  6
  3  4  1  0
  4 12  1  0
  4  5  2  0
  5  6  1  0
  7  6  1  0
  7  8  2  0
  9  8  1  0
 10  9  2  0
 11 12  2  0
 11 10  1  0
 12  7  1  0
 13  2  1  0
 13 15  1  0
 14 13  2  0
 16 15  1  0
 16 17  1  6
 18 17  1  0
 19 16  1  0
 20 19  2  0
 21 19  1  0
 21 25  1  0
 22 21  1  0
 23 22  1  0
 23 24  1  0
 24 25  1  0
 25 26  1  6
 26 28  1  0
 27 26  2  0
M  END
$$$$
