WCP.pdb
     RDKit          3D

 28 30  0  0  1  0  0  0  0  0999 V2000
   22.3433  -20.5759  -15.2189 N   0  0  0  0  0  0  0  0  0  0  0  0
   22.4744  -21.7037  -14.3106 C   0  0  1  0  0  0  0  0  0  0  0  0
   23.7573  -21.4686  -13.5237 C   0  0  0  0  0  0  0  0  0  0  0  0
   24.9599  -21.7213  -14.3368 C   0  0  0  0  0  0  0  0  0  0  0  0
   25.8527  -20.7485  -14.7463 C   0  0  0  0  0  0  0  0  0  0  0  0
   26.8161  -21.3684  -15.4701 N   0  0  0  0  0  0  0  0  0  0  0  0
   26.5314  -22.6953  -15.5109 C   0  0  0  0  0  0  0  0  0  0  0  0
   27.1945  -23.7355  -16.1121 C   0  0  0  0  0  0  0  0  0  0  0  0
   26.7045  -25.0175  -16.0136 C   0  0  0  0  0  0  0  0  0  0  0  0
   25.5504  -25.2963  -15.3188 C   0  0  0  0  0  0  0  0  0  0  0  0
   24.8992  -24.2476  -14.7239 C   0  0  0  0  0  0  0  0  0  0  0  0
   25.3804  -22.9515  -14.8148 C   0  0  0  0  0  0  0  0  0  0  0  0
   21.2986  -21.7472  -13.3679 C   0  0  0  0  0  0  0  0  0  0  0  0
   20.9312  -20.7162  -12.7518 O   0  0  0  0  0  0  0  0  0  0  0  0
   20.5854  -22.9482  -13.1574 N   0  0  0  0  0  0  0  0  0  0  0  0
   19.4589  -22.9661  -12.1978 C   0  0  1  0  0  0  0  0  0  0  0  0
   18.2211  -22.4887  -12.9067 C   0  0  0  0  0  0  0  0  0  0  0  0
   18.0293  -23.1173  -14.5720 S   0  0  0  0  0  0  0  0  0  0  0  0
   19.3607  -24.2731  -11.5490 C   0  0  0  0  0  0  0  0  0  0  0  0
   19.6237  -25.2773  -12.3156 O   0  0  0  0  0  0  0  0  0  0  0  0
   19.0229  -24.5711  -10.2111 N   0  0  0  0  0  0  0  0  0  0  0  0
   18.8204  -23.4601   -9.2482 C   0  0  0  0  0  0  0  0  0  0  0  0
   19.1190  -24.0899   -7.9050 C   0  0  0  0  0  0  0  0  0  0  0  0
   18.6379  -25.4949   -8.0291 C   0  0  0  0  0  0  0  0  0  0  0  0
   18.7957  -25.8001   -9.5060 C   0  0  1  0  0  0  0  0  0  0  0  0
   17.5753  -26.5239  -10.0014 C   0  0  0  0  0  0  0  0  0  0  0  0
   17.4290  -27.7225   -9.6897 O   0  0  0  0  0  0  0  0  0  0  0  0
   16.6333  -25.8964  -10.7789 O   0  0  0  0  0  0  0  0  0  0  0  0
  2  3  1  0
  2  1  1  6
  3  4  1  0
  4 12  1  0
  4  5  2  0
  5  6  1  0
  7  6  1  0
  7  8  2  0
  9  8  1  0
 10  9  2  0
 11 12  2  0
 11 10  1  0
 12  7  1  0
 13  2  1  0
 13 15  1  0
 14 13  2  0
 16 15  1  0
 16 17  1  6
 18 17  1  0
 19 16  1  0
 20 19  2  0
 21 19  1  0
 21 25  1  0
 22 21  1  0
 23 22  1  0
 23 24  1  0
 24 25  1  0
 25 26  1  6
 26 28  1  0
 27 26  2  0
M  END
$$$$
