WCP.pdb
     RDKit          3D

 28 30  0  0  1  0  0  0  0  0999 V2000
   24.8696  -20.8084   -9.9495 N   0  0  0  0  0  0  0  0  0  0  0  0
   26.1442  -20.5860  -10.6129 C   0  0  1  0  0  0  0  0  0  0  0  0
   27.2050  -21.2096   -9.7151 C   0  0  0  0  0  0  0  0  0  0  0  0
   27.2541  -20.5693   -8.3889 C   0  0  0  0  0  0  0  0  0  0  0  0
   26.1849  -19.9421   -7.7768 C   0  0  0  0  0  0  0  0  0  0  0  0
   26.6227  -19.4812   -6.5800 N   0  0  0  0  0  0  0  0  0  0  0  0
   27.9327  -19.8130   -6.4487 C   0  0  0  0  0  0  0  0  0  0  0  0
   28.8187  -19.5756   -5.4280 C   0  0  0  0  0  0  0  0  0  0  0  0
   30.1186  -20.0166   -5.5236 C   0  0  0  0  0  0  0  0  0  0  0  0
   30.5677  -20.7009   -6.6292 C   0  0  0  0  0  0  0  0  0  0  0  0
   29.6717  -20.9304   -7.6403 C   0  0  0  0  0  0  0  0  0  0  0  0
   28.3599  -20.4921   -7.5582 C   0  0  0  0  0  0  0  0  0  0  0  0
   26.1516  -21.2655  -11.9588 C   0  0  0  0  0  0  0  0  0  0  0  0
   26.0294  -22.5122  -12.0493 O   0  0  0  0  0  0  0  0  0  0  0  0
   26.2963  -20.5146  -13.1465 N   0  0  0  0  0  0  0  0  0  0  0  0
   26.1472  -21.1886  -14.4555 C   0  0  1  0  0  0  0  0  0  0  0  0
   24.7790  -20.8790  -14.9982 C   0  0  0  0  0  0  0  0  0  0  0  0
   24.4701  -21.5159  -16.6426 S   0  0  0  0  0  0  0  0  0  0  0  0
   27.2721  -20.8602  -15.3306 C   0  0  0  0  0  0  0  0  0  0  0  0
   27.5415  -19.6009  -15.4137 O   0  0  0  0  0  0  0  0  0  0  0  0
   28.0894  -21.7321  -16.0820 N   0  0  0  0  0  0  0  0  0  0  0  0
   27.9380  -23.1984  -15.9104 C   0  0  0  0  0  0  0  0  0  0  0  0
   29.2905  -23.7483  -16.3081 C   0  0  0  0  0  0  0  0  0  0  0  0
   29.7631  -22.8448  -17.3949 C   0  0  0  0  0  0  0  0  0  0  0  0
   29.1097  -21.5161  -17.0677 C   0  0  1  0  0  0  0  0  0  0  0  0
   28.5649  -20.9020  -18.3266 C   0  0  0  0  0  0  0  0  0  0  0  0
   27.3631  -21.0853  -18.6043 O   0  0  0  0  0  0  0  0  0  0  0  0
   29.3567  -20.1534  -19.1623 O   0  0  0  0  0  0  0  0  0  0  0  0
  2  3  1  0
  2  1  1  1
  3  4  1  0
  4 12  1  0
  4  5  2  0
  5  6  1  0
  7  6  1  0
  7  8  2  0
  9  8  1  0
 10  9  2  0
 11 12  2  0
 11 10  1  0
 12  7  1  0
 13  2  1  0
 13 15  1  0
 14 13  2  0
 16 15  1  0
 16 17  1  6
 18 17  1  0
 19 16  1  0
 20 19  2  0
 21 19  1  0
 21 25  1  0
 22 21  1  0
 23 22  1  0
 23 24  1  0
 24 25  1  0
 25 26  1  6
 26 28  1  0
 27 26  2  0
M  END
$$$$
