WCP.pdb
     RDKit          3D

 28 30  0  0  1  0  0  0  0  0999 V2000
   25.9667  -22.2198  -11.3763 N   0  0  0  0  0  0  0  0  0  0  0  0
   26.4746  -20.9132  -10.9900 C   0  0  1  0  0  0  0  0  0  0  0  0
   25.2564  -20.0107  -10.8419 C   0  0  0  0  0  0  0  0  0  0  0  0
   24.7376  -19.5624  -12.1462 C   0  0  0  0  0  0  0  0  0  0  0  0
   23.4446  -19.7653  -12.5916 C   0  0  0  0  0  0  0  0  0  0  0  0
   23.3556  -19.2149  -13.8267 N   0  0  0  0  0  0  0  0  0  0  0  0
   24.5633  -18.6816  -14.1438 C   0  0  0  0  0  0  0  0  0  0  0  0
   24.9820  -18.0197  -15.2706 C   0  0  0  0  0  0  0  0  0  0  0  0
   26.2768  -17.5635  -15.3642 C   0  0  0  0  0  0  0  0  0  0  0  0
   27.1824  -17.7522  -14.3460 C   0  0  0  0  0  0  0  0  0  0  0  0
   26.7500  -18.4147  -13.2272 C   0  0  0  0  0  0  0  0  0  0  0  0
   25.4494  -18.8800  -13.1189 C   0  0  0  0  0  0  0  0  0  0  0  0
   27.2007  -21.0101   -9.6722 C   0  0  0  0  0  0  0  0  0  0  0  0
   26.8896  -21.8893   -8.8309 O   0  0  0  0  0  0  0  0  0  0  0  0
   28.2459  -20.1142   -9.3556 N   0  0  0  0  0  0  0  0  0  0  0  0
   28.9720  -20.2675   -8.0753 C   0  0  1  0  0  0  0  0  0  0  0  0
   30.2715  -19.5161   -8.1712 C   0  0  0  0  0  0  0  0  0  0  0  0
   30.9686  -19.0327   -6.5945 S   0  0  0  0  0  0  0  0  0  0  0  0
   28.1074  -19.9096   -6.9513 C   0  0  0  0  0  0  0  0  0  0  0  0
   27.2098  -19.0228   -7.2218 O   0  0  0  0  0  0  0  0  0  0  0  0
   28.1277  -20.4052   -5.6296 N   0  0  0  0  0  0  0  0  0  0  0  0
   29.0416  -21.5231   -5.2868 C   0  0  0  0  0  0  0  0  0  0  0  0
   28.3752  -22.1801   -4.0976 C   0  0  0  0  0  0  0  0  0  0  0  0
   27.7356  -21.0588   -3.3532 C   0  0  0  0  0  0  0  0  0  0  0  0
   27.4228  -20.0419   -4.4337 C   0  0  1  0  0  0  0  0  0  0  0  0
   27.7913  -18.6674   -3.9503 C   0  0  0  0  0  0  0  0  0  0  0  0
   26.9187  -17.9870   -3.3751 O   0  0  0  0  0  0  0  0  0  0  0  0
   29.0536  -18.1570   -4.1284 O   0  0  0  0  0  0  0  0  0  0  0  0
  2  3  1  0
  2  1  1  1
  3  4  1  0
  4 12  1  0
  4  5  2  0
  5  6  1  0
  7  6  1  0
  7  8  2  0
  9  8  1  0
 10  9  2  0
 11 12  2  0
 11 10  1  0
 12  7  1  0
 13  2  1  0
 13 15  1  0
 14 13  2  0
 16 15  1  0
 16 17  1  6
 18 17  1  0
 19 16  1  0
 20 19  2  0
 21 19  1  0
 21 25  1  0
 22 21  1  0
 23 22  1  0
 23 24  1  0
 24 25  1  0
 25 26  1  1
 26 28  1  0
 27 26  2  0
M  END
$$$$
