WCP.pdb
     RDKit          3D

 28 30  0  0  1  0  0  0  0  0999 V2000
   26.2648  -22.5204  -12.2207 N   0  0  0  0  0  0  0  0  0  0  0  0
   25.8301  -21.2257  -12.7197 C   0  0  1  0  0  0  0  0  0  0  0  0
   26.0710  -20.2324  -11.5903 C   0  0  0  0  0  0  0  0  0  0  0  0
   25.2202  -20.5082  -10.4193 C   0  0  0  0  0  0  0  0  0  0  0  0
   25.6861  -20.6714   -9.1280 C   0  0  0  0  0  0  0  0  0  0  0  0
   24.6090  -20.9097   -8.3409 N   0  0  0  0  0  0  0  0  0  0  0  0
   23.4986  -20.8954   -9.1221 C   0  0  0  0  0  0  0  0  0  0  0  0
   22.1769  -21.0818   -8.8034 C   0  0  0  0  0  0  0  0  0  0  0  0
   21.2134  -21.0201   -9.7838 C   0  0  0  0  0  0  0  0  0  0  0  0
   21.5373  -20.7725  -11.0976 C   0  0  0  0  0  0  0  0  0  0  0  0
   22.8610  -20.5885  -11.4007 C   0  0  0  0  0  0  0  0  0  0  0  0
   23.8421  -20.6481  -10.4242 C   0  0  0  0  0  0  0  0  0  0  0  0
   26.6476  -20.8356  -13.9250 C   0  0  0  0  0  0  0  0  0  0  0  0
   27.8937  -20.7034  -13.8402 O   0  0  0  0  0  0  0  0  0  0  0  0
   26.0295  -20.6104  -15.1751 N   0  0  0  0  0  0  0  0  0  0  0  0
   26.8301  -20.0658  -16.2943 C   0  0  1  0  0  0  0  0  0  0  0  0
   26.8923  -21.1009  -17.3839 C   0  0  0  0  0  0  0  0  0  0  0  0
   27.6253  -20.5270  -18.9132 S   0  0  0  0  0  0  0  0  0  0  0  0
   26.3278  -18.7503  -16.6894 C   0  0  0  0  0  0  0  0  0  0  0  0
   25.0421  -18.6610  -16.7553 O   0  0  0  0  0  0  0  0  0  0  0  0
   27.0590  -17.5835  -17.0003 N   0  0  0  0  0  0  0  0  0  0  0  0
   28.5371  -17.5954  -16.8679 C   0  0  0  0  0  0  0  0  0  0  0  0
   28.8893  -16.1413  -16.6412 C   0  0  0  0  0  0  0  0  0  0  0  0
   27.8970  -15.3794  -17.4509 C   0  0  0  0  0  0  0  0  0  0  0  0
   26.6781  -16.2813  -17.4678 C   0  0  1  0  0  0  0  0  0  0  0  0
   26.1024  -16.3200  -18.8555 C   0  0  0  0  0  0  0  0  0  0  0  0
   26.5536  -17.1573  -19.6619 O   0  0  0  0  0  0  0  0  0  0  0  0
   25.1026  -15.4623  -19.2433 O   0  0  0  0  0  0  0  0  0  0  0  0
  2  3  1  0
  2  1  1  1
  3  4  1  0
  4 12  1  0
  4  5  2  0
  5  6  1  0
  7  6  1  0
  7  8  2  0
  9  8  1  0
 10  9  2  0
 11 12  2  0
 11 10  1  0
 12  7  1  0
 13  2  1  0
 13 15  1  0
 14 13  2  0
 16 15  1  0
 16 17  1  6
 18 17  1  0
 19 16  1  0
 20 19  2  0
 21 19  1  0
 21 25  1  0
 22 21  1  0
 23 22  1  0
 23 24  1  0
 24 25  1  0
 25 26  1  6
 26 28  1  0
 27 26  2  0
M  END
$$$$
