WCP.pdb
     RDKit          3D

 28 30  0  0  1  0  0  0  0  0999 V2000
   24.7060  -22.6863  -17.3508 N   0  0  0  0  0  0  0  0  0  0  0  0
   24.4898  -22.0118  -16.0810 C   0  0  1  0  0  0  0  0  0  0  0  0
   23.6947  -22.9805  -15.2152 C   0  0  0  0  0  0  0  0  0  0  0  0
   22.8996  -22.2823  -14.1898 C   0  0  0  0  0  0  0  0  0  0  0  0
   21.6158  -21.8050  -14.3783 C   0  0  0  0  0  0  0  0  0  0  0  0
   21.2283  -21.2283  -13.2149 N   0  0  0  0  0  0  0  0  0  0  0  0
   22.2452  -21.3431  -12.3227 C   0  0  0  0  0  0  0  0  0  0  0  0
   22.3451  -20.9240  -11.0197 C   0  0  0  0  0  0  0  0  0  0  0  0
   23.4966  -21.1583  -10.3039 C   0  0  0  0  0  0  0  0  0  0  0  0
   24.5711  -21.8116  -10.8615 C   0  0  0  0  0  0  0  0  0  0  0  0
   24.4568  -22.2241  -12.1632 C   0  0  0  0  0  0  0  0  0  0  0  0
   23.3038  -21.9949  -12.8965 C   0  0  0  0  0  0  0  0  0  0  0  0
   25.8132  -21.7095  -15.4247 C   0  0  0  0  0  0  0  0  0  0  0  0
   26.7473  -22.5488  -15.4469 O   0  0  0  0  0  0  0  0  0  0  0  0
   26.0305  -20.4763  -14.7709 N   0  0  0  0  0  0  0  0  0  0  0  0
   27.3186  -20.2349  -14.0836 C   0  0  1  0  0  0  0  0  0  0  0  0
   27.7713  -18.8352  -14.3970 C   0  0  0  0  0  0  0  0  0  0  0  0
   26.7146  -17.5478  -13.7404 S   0  0  0  0  0  0  0  0  0  0  0  0
   27.2113  -20.5699  -12.6640 C   0  0  0  0  0  0  0  0  0  0  0  0
   26.0026  -20.6704  -12.2231 O   0  0  0  0  0  0  0  0  0  0  0  0
   28.2453  -20.7964  -11.7301 N   0  0  0  0  0  0  0  0  0  0  0  0
   29.6583  -20.7189  -12.1775 C   0  0  0  0  0  0  0  0  0  0  0  0
   30.3963  -21.5972  -11.1906 C   0  0  0  0  0  0  0  0  0  0  0  0
   29.6741  -21.4091   -9.9008 C   0  0  0  0  0  0  0  0  0  0  0  0
   28.2529  -21.0956  -10.3267 C   0  0  1  0  0  0  0  0  0  0  0  0
   27.7207  -19.9595   -9.4991 C   0  0  0  0  0  0  0  0  0  0  0  0
   27.7447  -18.8106   -9.9833 O   0  0  0  0  0  0  0  0  0  0  0  0
   27.2158  -20.1633   -8.2384 O   0  0  0  0  0  0  0  0  0  0  0  0
  2  3  1  0
  2  1  1  6
  3  4  1  0
  4 12  1  0
  4  5  2  0
  5  6  1  0
  7  6  1  0
  7  8  2  0
  9  8  1  0
 10  9  2  0
 11 12  2  0
 11 10  1  0
 12  7  1  0
 13  2  1  0
 13 15  1  0
 14 13  2  0
 16 15  1  0
 16 17  1  1
 18 17  1  0
 19 16  1  0
 20 19  2  0
 21 19  1  0
 21 25  1  0
 22 21  1  0
 23 22  1  0
 23 24  1  0
 24 25  1  0
 25 26  1  1
 26 28  1  0
 27 26  2  0
M  END
$$$$
