WCP.pdb
     RDKit          3D

 28 30  0  0  1  0  0  0  0  0999 V2000
   24.2294  -20.8828   -8.6246 N   0  0  0  0  0  0  0  0  0  0  0  0
   25.4015  -20.1340   -9.0485 C   0  0  1  0  0  0  0  0  0  0  0  0
   26.5916  -20.7737   -8.3452 C   0  0  0  0  0  0  0  0  0  0  0  0
   27.2790  -19.8278   -7.4486 C   0  0  0  0  0  0  0  0  0  0  0  0
   27.2227  -18.4512   -7.5631 C   0  0  0  0  0  0  0  0  0  0  0  0
   27.9795  -17.9350   -6.5646 N   0  0  0  0  0  0  0  0  0  0  0  0
   28.4951  -18.9644   -5.8448 C   0  0  0  0  0  0  0  0  0  0  0  0
   29.3160  -18.9655   -4.7450 C   0  0  0  0  0  0  0  0  0  0  0  0
   29.7131  -20.1553   -4.1793 C   0  0  0  0  0  0  0  0  0  0  0  0
   29.3064  -21.3665   -4.6890 C   0  0  0  0  0  0  0  0  0  0  0  0
   28.4871  -21.3496   -5.7873 C   0  0  0  0  0  0  0  0  0  0  0  0
   28.0793  -20.1595   -6.3678 C   0  0  0  0  0  0  0  0  0  0  0  0
   25.5725  -20.2442  -10.5425 C   0  0  0  0  0  0  0  0  0  0  0  0
   24.7440  -20.8823  -11.2382 O   0  0  0  0  0  0  0  0  0  0  0  0
   26.6680  -19.6326  -11.1914 N   0  0  0  0  0  0  0  0  0  0  0  0
   26.6211  -19.4232  -12.6557 C   0  0  1  0  0  0  0  0  0  0  0  0
   27.7153  -18.4635  -13.0354 C   0  0  0  0  0  0  0  0  0  0  0  0
   28.1525  -18.4840  -14.7714 S   0  0  0  0  0  0  0  0  0  0  0  0
   26.6247  -20.7071  -13.3560 C   0  0  0  0  0  0  0  0  0  0  0  0
   27.4687  -21.5693  -12.8982 O   0  0  0  0  0  0  0  0  0  0  0  0
   25.8327  -21.1177  -14.4501 N   0  0  0  0  0  0  0  0  0  0  0  0
   24.7991  -20.1968  -14.9850 C   0  0  0  0  0  0  0  0  0  0  0  0
   23.7912  -21.1235  -15.6294 C   0  0  0  0  0  0  0  0  0  0  0  0
   24.6032  -22.2477  -16.1748 C   0  0  0  0  0  0  0  0  0  0  0  0
   25.7986  -22.3126  -15.2441 C   0  0  1  0  0  0  0  0  0  0  0  0
   27.0529  -22.4964  -16.0512 C   0  0  0  0  0  0  0  0  0  0  0  0
   27.8144  -21.5194  -16.1951 O   0  0  0  0  0  0  0  0  0  0  0  0
   27.3693  -23.7041  -16.6231 O   0  0  0  0  0  0  0  0  0  0  0  0
  2  3  1  0
  2  1  1  1
  3  4  1  0
  4 12  1  0
  4  5  2  0
  5  6  1  0
  7  6  1  0
  7  8  2  0
  9  8  1  0
 10  9  2  0
 11 12  2  0
 11 10  1  0
 12  7  1  0
 13  2  1  0
 13 15  1  0
 14 13  2  0
 16 15  1  0
 16 17  1  6
 18 17  1  0
 19 16  1  0
 20 19  2  0
 21 19  1  0
 21 25  1  0
 22 21  1  0
 23 22  1  0
 23 24  1  0
 24 25  1  0
 25 26  1  6
 26 28  1  0
 27 26  2  0
M  END
$$$$
