WCP.pdb
     RDKit          3D

 28 30  0  0  1  0  0  0  0  0999 V2000
   27.0423  -21.0033  -19.7591 N   0  0  0  0  0  0  0  0  0  0  0  0
   26.1832  -20.2139  -18.8913 C   0  0  1  0  0  0  0  0  0  0  0  0
   24.7681  -20.7347  -19.1067 C   0  0  0  0  0  0  0  0  0  0  0  0
   23.7867  -20.0399  -18.2551 C   0  0  0  0  0  0  0  0  0  0  0  0
   23.3430  -18.7465  -18.4586 C   0  0  0  0  0  0  0  0  0  0  0  0
   22.4549  -18.4682  -17.4736 N   0  0  0  0  0  0  0  0  0  0  0  0
   22.3472  -19.5612  -16.6754 C   0  0  0  0  0  0  0  0  0  0  0  0
   21.5854  -19.7806  -15.5552 C   0  0  0  0  0  0  0  0  0  0  0  0
   21.6455  -20.9911  -14.9038 C   0  0  0  0  0  0  0  0  0  0  0  0
   22.4589  -22.0081  -15.3471 C   0  0  0  0  0  0  0  0  0  0  0  0
   23.2137  -21.7745  -16.4666 C   0  0  0  0  0  0  0  0  0  0  0  0
   23.1638  -20.5605  -17.1328 C   0  0  0  0  0  0  0  0  0  0  0  0
   26.5846  -20.4088  -17.4511 C   0  0  0  0  0  0  0  0  0  0  0  0
   26.9946  -21.5241  -17.0442 O   0  0  0  0  0  0  0  0  0  0  0  0
   26.5080  -19.3416  -16.5289 N   0  0  0  0  0  0  0  0  0  0  0  0
   26.9264  -19.5611  -15.1264 C   0  0  1  0  0  0  0  0  0  0  0  0
   27.9026  -18.4820  -14.7457 C   0  0  0  0  0  0  0  0  0  0  0  0
   28.2605  -18.3879  -12.9940 S   0  0  0  0  0  0  0  0  0  0  0  0
   25.7566  -19.7005  -14.2598 C   0  0  0  0  0  0  0  0  0  0  0  0
   24.7858  -18.8944  -14.5299 O   0  0  0  0  0  0  0  0  0  0  0  0
   25.5565  -20.5925  -13.1841 N   0  0  0  0  0  0  0  0  0  0  0  0
   26.6015  -21.5986  -12.8706 C   0  0  0  0  0  0  0  0  0  0  0  0
   25.8370  -22.7079  -12.1814 C   0  0  0  0  0  0  0  0  0  0  0  0
   24.7634  -22.0116  -11.4177 C   0  0  0  0  0  0  0  0  0  0  0  0
   24.4962  -20.7606  -12.2320 C   0  0  1  0  0  0  0  0  0  0  0  0
   24.3659  -19.5808  -11.3102 C   0  0  0  0  0  0  0  0  0  0  0  0
   25.3621  -18.8512  -11.1357 O   0  0  0  0  0  0  0  0  0  0  0  0
   23.1858  -19.2973  -10.6677 O   0  0  0  0  0  0  0  0  0  0  0  0
  2  3  1  0
  2  1  1  6
  3  4  1  0
  4 12  1  0
  4  5  2  0
  5  6  1  0
  7  6  1  0
  7  8  2  0
  9  8  1  0
 10  9  2  0
 11 12  2  0
 11 10  1  0
 12  7  1  0
 13  2  1  0
 13 15  1  0
 14 13  2  0
 16 15  1  0
 16 17  1  1
 18 17  1  0
 19 16  1  0
 20 19  2  0
 21 19  1  0
 21 25  1  0
 22 21  1  0
 23 22  1  0
 23 24  1  0
 24 25  1  0
 25 26  1  1
 26 28  1  0
 27 26  2  0
M  END
$$$$
