WCP.pdb
     RDKit          3D

 28 30  0  0  1  0  0  0  0  0999 V2000
   26.4493  -23.9250  -16.3423 N   0  0  0  0  0  0  0  0  0  0  0  0
   27.1396  -25.1573  -16.6875 C   0  0  1  0  0  0  0  0  0  0  0  0
   26.5718  -25.6007  -18.0297 C   0  0  0  0  0  0  0  0  0  0  0  0
   25.2122  -26.1538  -17.9002 C   0  0  0  0  0  0  0  0  0  0  0  0
   24.0556  -25.4983  -18.2792 C   0  0  0  0  0  0  0  0  0  0  0  0
   23.0179  -26.3248  -18.0025 N   0  0  0  0  0  0  0  0  0  0  0  0
   23.5151  -27.4678  -17.4642 C   0  0  0  0  0  0  0  0  0  0  0  0
   22.8785  -28.6003  -17.0222 C   0  0  0  0  0  0  0  0  0  0  0  0
   23.6076  -29.6474  -16.5071 C   0  0  0  0  0  0  0  0  0  0  0  0
   24.9795  -29.5957  -16.4193 C   0  0  0  0  0  0  0  0  0  0  0  0
   25.6011  -28.4585  -16.8644 C   0  0  0  0  0  0  0  0  0  0  0  0
   24.8801  -27.3961  -17.3853 C   0  0  0  0  0  0  0  0  0  0  0  0
   28.6195  -24.9009  -16.8195 C   0  0  0  0  0  0  0  0  0  0  0  0
   29.0479  -23.7660  -17.1449 O   0  0  0  0  0  0  0  0  0  0  0  0
   29.5555  -25.9315  -16.5803 N   0  0  0  0  0  0  0  0  0  0  0  0
   30.9981  -25.6058  -16.5289 C   0  0  1  0  0  0  0  0  0  0  0  0
   31.4178  -25.5257  -15.0867 C   0  0  0  0  0  0  0  0  0  0  0  0
   33.1892  -25.4927  -14.8289 S   0  0  0  0  0  0  0  0  0  0  0  0
   31.7611  -26.5302  -17.3669 C   0  0  0  0  0  0  0  0  0  0  0  0
   31.4231  -27.7700  -17.2488 O   0  0  0  0  0  0  0  0  0  0  0  0
   32.8019  -26.2430  -18.2763 N   0  0  0  0  0  0  0  0  0  0  0  0
   33.2066  -24.8321  -18.4953 C   0  0  0  0  0  0  0  0  0  0  0  0
   33.8046  -24.8415  -19.8854 C   0  0  0  0  0  0  0  0  0  0  0  0
   34.4656  -26.1717  -20.0055 C   0  0  0  0  0  0  0  0  0  0  0  0
   33.6424  -27.0657  -19.0985 C   0  0  1  0  0  0  0  0  0  0  0  0
   34.5594  -27.9354  -18.2854 C   0  0  0  0  0  0  0  0  0  0  0  0
   35.1552  -28.8688  -18.8589 O   0  0  0  0  0  0  0  0  0  0  0  0
   34.7494  -27.7218  -16.9423 O   0  0  0  0  0  0  0  0  0  0  0  0
  2  3  1  0
  2  1  1  6
  3  4  1  0
  4 12  1  0
  4  5  2  0
  5  6  1  0
  7  6  1  0
  7  8  2  0
  9  8  1  0
 10  9  2  0
 11 12  2  0
 11 10  1  0
 12  7  1  0
 13  2  1  0
 13 15  1  0
 14 13  2  0
 16 15  1  0
 16 17  1  1
 18 17  1  0
 19 16  1  0
 20 19  2  0
 21 19  1  0
 21 25  1  0
 22 21  1  0
 23 22  1  0
 23 24  1  0
 24 25  1  0
 25 26  1  1
 26 28  1  0
 27 26  2  0
M  END
$$$$
