GTD.pdb
     RDKit          3D

 20 19  0  0  1  0  0  0  0  0999 V2000
   16.0095  -13.7036  -14.4846 N   0  0  0  0  0  0  0  0  0  0  0  0
   15.8795  -12.2945  -14.6441 C   0  0  0  0  0  0  0  0  0  0  0  0
   17.2380  -11.7266  -14.9375 C   0  0  0  0  0  0  0  0  0  0  0  0
   18.2861  -12.3965  -14.7468 O   0  0  0  0  0  0  0  0  0  0  0  0
   18.5066  -11.0734  -18.0255 C   0  0  0  0  0  0  0  0  0  0  0  0
   18.7146   -9.7154  -17.3849 C   0  0  1  0  0  0  0  0  0  0  0  0
   17.6809   -8.8907  -17.8521 O   0  0  0  0  0  0  0  0  0  0  0  0
   18.6453   -9.8604  -15.8773 C   0  0  2  0  0  0  0  0  0  0  0  0
   17.3935  -10.4067  -15.4435 N   0  0  0  0  0  0  0  0  0  0  0  0
   18.8914   -8.5584  -15.2088 C   0  0  0  0  0  0  0  0  0  0  0  0
   17.9328   -7.8975  -14.6838 O   0  0  0  0  0  0  0  0  0  0  0  0
   20.1746   -7.9745  -15.1104 N   0  0  0  0  0  0  0  0  0  0  0  0
   20.3766   -6.6467  -14.4646 C   0  0  1  0  0  0  0  0  0  0  0  0
   21.7141   -6.7047  -13.8080 C   0  0  0  0  0  0  0  0  0  0  0  0
   22.0865   -5.4484  -13.1511 C   0  0  0  0  0  0  0  0  0  0  0  0
   23.2244   -4.9679  -13.2905 O   0  0  0  0  0  0  0  0  0  0  0  0
   20.2527   -5.6047  -15.5184 C   0  0  0  0  0  0  0  0  0  0  0  0
   20.1574   -6.0380  -16.8504 O   0  0  0  0  0  0  0  0  0  0  0  0
   21.1936   -4.7471  -12.3519 O   0  0  0  0  0  0  0  0  0  0  0  0
   20.2286   -4.3821  -15.2941 O   0  0  0  0  0  0  0  0  0  0  0  0
  2  1  1  0
  3  2  1  0
  4  3  2  0
  6  5  1  6
  6  8  1  0
  7  6  1  0
  8  9  1  6
  9  3  1  0
 10 11  2  0
 10  8  1  0
 12 10  1  0
 13 12  1  0
 13 14  1  6
 15 16  2  0
 15 14  1  0
 17 13  1  0
 18 17  1  0
 19 15  1  0
 20 17  2  0
M  END
$$$$
