GTD.pdb
     RDKit          3D

 20 19  0  0  1  0  0  0  0  0999 V2000
   21.9738  -13.7721  -17.1868 N   0  0  0  0  0  0  0  0  0  0  0  0
   22.6498  -12.6625  -17.7698 C   0  0  0  0  0  0  0  0  0  0  0  0
   22.9213  -11.6560  -16.6894 C   0  0  0  0  0  0  0  0  0  0  0  0
   22.2767  -11.6612  -15.6085 O   0  0  0  0  0  0  0  0  0  0  0  0
   26.2713  -10.9095  -15.1516 C   0  0  0  0  0  0  0  0  0  0  0  0
   25.7343   -9.5692  -15.6130 C   0  0  1  0  0  0  0  0  0  0  0  0
   26.3980   -9.2637  -16.8102 O   0  0  0  0  0  0  0  0  0  0  0  0
   24.2401   -9.6838  -15.8422 C   0  0  2  0  0  0  0  0  0  0  0  0
   23.9198  -10.6555  -16.8456 N   0  0  0  0  0  0  0  0  0  0  0  0
   23.6578   -8.3675  -16.2041 C   0  0  0  0  0  0  0  0  0  0  0  0
   23.4752   -8.0432  -17.4259 O   0  0  0  0  0  0  0  0  0  0  0  0
   23.2749   -7.4050  -15.2427 N   0  0  0  0  0  0  0  0  0  0  0  0
   22.7334   -6.0765  -15.6462 C   0  0  1  0  0  0  0  0  0  0  0  0
   21.6643   -5.7483  -14.6601 C   0  0  0  0  0  0  0  0  0  0  0  0
   21.0996   -4.4090  -14.8495 C   0  0  0  0  0  0  0  0  0  0  0  0
   20.2937   -4.1799  -15.7677 O   0  0  0  0  0  0  0  0  0  0  0  0
   23.8653   -5.1122  -15.6710 C   0  0  0  0  0  0  0  0  0  0  0  0
   23.7678   -4.0207  -16.5485 O   0  0  0  0  0  0  0  0  0  0  0  0
   21.4368   -3.3480  -14.0199 O   0  0  0  0  0  0  0  0  0  0  0  0
   24.8854   -5.2126  -14.9676 O   0  0  0  0  0  0  0  0  0  0  0  0
  2  1  1  0
  3  2  1  0
  4  3  2  0
  6  5  1  6
  6  8  1  0
  7  6  1  0
  8  9  1  6
  9  3  1  0
 10 11  2  0
 10  8  1  0
 12 10  1  0
 13 12  1  0
 13 14  1  1
 15 16  2  0
 15 14  1  0
 17 13  1  0
 18 17  1  0
 19 15  1  0
 20 17  2  0
M  END
$$$$
