GTD.pdb
     RDKit          3D

 20 19  0  0  1  0  0  0  0  0999 V2000
   17.1049  -14.4430  -14.9320 N   0  0  0  0  0  0  0  0  0  0  0  0
   16.8305  -13.1250  -14.4676 C   0  0  0  0  0  0  0  0  0  0  0  0
   17.6726  -12.1635  -15.2554 C   0  0  0  0  0  0  0  0  0  0  0  0
   18.5487  -12.5662  -16.0641 O   0  0  0  0  0  0  0  0  0  0  0  0
   16.9266  -10.4302  -17.9051 C   0  0  0  0  0  0  0  0  0  0  0  0
   17.3937   -9.2653  -17.0551 C   0  0  1  0  0  0  0  0  0  0  0  0
   16.2378   -8.6270  -16.5822 O   0  0  0  0  0  0  0  0  0  0  0  0
   18.2252   -9.7922  -15.9021 C   0  0  2  0  0  0  0  0  0  0  0  0
   17.5127  -10.7571  -15.1180 N   0  0  0  0  0  0  0  0  0  0  0  0
   18.6955   -8.6812  -15.0378 C   0  0  0  0  0  0  0  0  0  0  0  0
   18.1295   -8.4333  -13.9200 O   0  0  0  0  0  0  0  0  0  0  0  0
   19.7770   -7.8406  -15.3856 N   0  0  0  0  0  0  0  0  0  0  0  0
   20.2067   -6.7210  -14.5008 C   0  0  1  0  0  0  0  0  0  0  0  0
   21.6977   -6.7336  -14.5115 C   0  0  0  0  0  0  0  0  0  0  0  0
   22.2870   -5.6419  -13.7309 C   0  0  0  0  0  0  0  0  0  0  0  0
   22.1023   -5.5621  -12.5043 O   0  0  0  0  0  0  0  0  0  0  0  0
   19.5976   -5.4688  -15.0230 C   0  0  0  0  0  0  0  0  0  0  0  0
   18.9009   -5.5453  -16.2394 O   0  0  0  0  0  0  0  0  0  0  0  0
   23.0694   -4.6587  -14.3215 O   0  0  0  0  0  0  0  0  0  0  0  0
   19.6671   -4.3663  -14.4528 O   0  0  0  0  0  0  0  0  0  0  0  0
  2  1  1  0
  3  2  1  0
  4  3  2  0
  6  5  1  6
  6  8  1  0
  7  6  1  0
  8  9  1  1
  9  3  1  0
 10 11  2  0
 10  8  1  0
 12 10  1  0
 13 12  1  0
 13 14  1  6
 15 16  2  0
 15 14  1  0
 17 13  1  0
 18 17  1  0
 19 15  1  0
 20 17  2  0
M  END
$$$$
