GTD.pdb
     RDKit          3D

 20 19  0  0  1  0  0  0  0  0999 V2000
   12.9689  -13.3044  -11.1593 N   0  0  0  0  0  0  0  0  0  0  0  0
   13.4013  -12.1218  -11.8245 C   0  0  0  0  0  0  0  0  0  0  0  0
   14.2751  -11.3447  -10.8827 C   0  0  0  0  0  0  0  0  0  0  0  0
   14.5310  -11.7653   -9.7246 O   0  0  0  0  0  0  0  0  0  0  0  0
   17.6720  -10.6550  -11.1775 C   0  0  0  0  0  0  0  0  0  0  0  0
   17.1286   -9.2526  -10.9888 C   0  0  1  0  0  0  0  0  0  0  0  0
   17.1207   -8.6533  -12.2569 O   0  0  0  0  0  0  0  0  0  0  0  0
   15.7234   -9.3348  -10.4257 C   0  0  2  0  0  0  0  0  0  0  0  0
   14.8488  -10.1005  -11.2636 N   0  0  0  0  0  0  0  0  0  0  0  0
   15.1608   -7.9789  -10.2071 C   0  0  0  0  0  0  0  0  0  0  0  0
   14.3356   -7.4680  -11.0374 O   0  0  0  0  0  0  0  0  0  0  0  0
   15.4932   -7.1788   -9.0906 N   0  0  0  0  0  0  0  0  0  0  0  0
   15.0407   -5.7626   -8.9873 C   0  0  1  0  0  0  0  0  0  0  0  0
   14.6196   -5.5648   -7.5706 C   0  0  0  0  0  0  0  0  0  0  0  0
   14.1428   -4.2059   -7.2975 C   0  0  0  0  0  0  0  0  0  0  0  0
   13.9248   -3.4073   -8.2248 O   0  0  0  0  0  0  0  0  0  0  0  0
   16.1656   -4.8926   -9.4226 C   0  0  0  0  0  0  0  0  0  0  0  0
   15.8461   -3.7379  -10.1543 O   0  0  0  0  0  0  0  0  0  0  0  0
   13.9163   -3.7554   -6.0039 O   0  0  0  0  0  0  0  0  0  0  0  0
   17.3628   -5.1235   -9.1803 O   0  0  0  0  0  0  0  0  0  0  0  0
  2  1  1  0
  3  2  1  0
  4  3  2  0
  6  5  1  6
  6  8  1  0
  7  6  1  0
  8  9  1  6
  9  3  1  0
 10 11  2  0
 10  8  1  0
 12 10  1  0
 13 12  1  0
 13 14  1  1
 15 16  2  0
 15 14  1  0
 17 13  1  0
 18 17  1  0
 19 15  1  0
 20 17  2  0
M  END
$$$$
