GTD.pdb
     RDKit          3D

 20 19  0  0  1  0  0  0  0  0999 V2000
   12.6956   -9.9909   -8.4777 N   0  0  0  0  0  0  0  0  0  0  0  0
   14.0412   -9.5859   -8.2468 C   0  0  0  0  0  0  0  0  0  0  0  0
   14.3914   -8.5235   -9.2482 C   0  0  0  0  0  0  0  0  0  0  0  0
   13.7049   -8.3479  -10.2882 O   0  0  0  0  0  0  0  0  0  0  0  0
   14.1748   -5.0870   -8.9455 C   0  0  0  0  0  0  0  0  0  0  0  0
   15.6402   -5.2396   -9.3019 C   0  0  1  0  0  0  0  0  0  0  0  0
   16.3564   -5.1372   -8.1004 O   0  0  0  0  0  0  0  0  0  0  0  0
   15.8581   -6.5964   -9.9423 C   0  0  2  0  0  0  0  0  0  0  0  0
   15.5149   -7.6722   -9.0600 N   0  0  0  0  0  0  0  0  0  0  0  0
   17.2608   -6.7445  -10.4039 C   0  0  0  0  0  0  0  0  0  0  0  0
   18.1593   -7.2237   -9.6329 O   0  0  0  0  0  0  0  0  0  0  0  0
   17.6879   -6.3731  -11.6988 N   0  0  0  0  0  0  0  0  0  0  0  0
   19.1269   -6.4148  -12.0842 C   0  0  1  0  0  0  0  0  0  0  0  0
   19.4503   -7.8508  -12.3224 C   0  0  0  0  0  0  0  0  0  0  0  0
   20.7826   -8.0515  -12.8995 C   0  0  0  0  0  0  0  0  0  0  0  0
   21.7293   -7.3058  -12.5948 O   0  0  0  0  0  0  0  0  0  0  0  0
   19.3055   -5.5381  -13.2721 C   0  0  0  0  0  0  0  0  0  0  0  0
   18.1505   -4.9921  -13.8542 O   0  0  0  0  0  0  0  0  0  0  0  0
   21.0431   -9.0731  -13.8029 O   0  0  0  0  0  0  0  0  0  0  0  0
   20.4068   -5.2611  -13.7779 O   0  0  0  0  0  0  0  0  0  0  0  0
  2  1  1  0
  3  2  1  0
  4  3  2  0
  6  5  1  1
  6  8  1  0
  7  6  1  0
  8  9  1  1
  9  3  1  0
 10 11  2  0
 10  8  1  0
 12 10  1  0
 13 12  1  0
 13 14  1  6
 15 16  2  0
 15 14  1  0
 17 13  1  0
 18 17  1  0
 19 15  1  0
 20 17  2  0
M  END
$$$$
