GTD.pdb
     RDKit          3D

 20 19  0  0  1  0  0  0  0  0999 V2000
   19.5798  -13.2657  -16.9981 N   0  0  0  0  0  0  0  0  0  0  0  0
   19.0221  -11.9571  -16.9306 C   0  0  0  0  0  0  0  0  0  0  0  0
   19.8840  -11.1241  -16.0265 C   0  0  0  0  0  0  0  0  0  0  0  0
   19.7470  -11.1542  -14.7759 O   0  0  0  0  0  0  0  0  0  0  0  0
   23.4373  -11.2246  -15.4075 C   0  0  0  0  0  0  0  0  0  0  0  0
   23.2097   -9.8124  -15.9093 C   0  0  1  0  0  0  0  0  0  0  0  0
   23.5659   -9.8081  -17.2658 O   0  0  0  0  0  0  0  0  0  0  0  0
   21.7469   -9.4529  -15.7377 C   0  0  2  0  0  0  0  0  0  0  0  0
   20.8912  -10.2669  -16.5493 N   0  0  0  0  0  0  0  0  0  0  0  0
   21.5163   -8.0174  -16.0357 C   0  0  0  0  0  0  0  0  0  0  0  0
   21.0376   -7.6484  -17.1608 O   0  0  0  0  0  0  0  0  0  0  0  0
   21.8050   -6.9846  -15.1154 N   0  0  0  0  0  0  0  0  0  0  0  0
   21.5829   -5.5519  -15.4604 C   0  0  1  0  0  0  0  0  0  0  0  0
   20.1079   -5.3385  -15.4132 C   0  0  0  0  0  0  0  0  0  0  0  0
   19.7262   -3.9306  -15.5566 C   0  0  0  0  0  0  0  0  0  0  0  0
   20.3660   -3.1683  -16.3013 O   0  0  0  0  0  0  0  0  0  0  0  0
   22.3557   -4.7261  -14.4948 C   0  0  0  0  0  0  0  0  0  0  0  0
   22.4323   -3.3456  -14.7384 O   0  0  0  0  0  0  0  0  0  0  0  0
   18.6442   -3.3919  -14.8734 O   0  0  0  0  0  0  0  0  0  0  0  0
   22.9341   -5.1798  -13.4923 O   0  0  0  0  0  0  0  0  0  0  0  0
  2  1  1  0
  3  2  1  0
  4  3  2  0
  6  5  1  6
  6  8  1  0
  7  6  1  0
  8  9  1  6
  9  3  1  0
 10 11  2  0
 10  8  1  0
 12 10  1  0
 13 12  1  0
 13 14  1  1
 15 16  2  0
 15 14  1  0
 17 13  1  0
 18 17  1  0
 19 15  1  0
 20 17  2  0
M  END
$$$$
