GTD.pdb
     RDKit          3D

 20 19  0  0  1  0  0  0  0  0999 V2000
   14.4696  -12.3682  -14.2453 N   0  0  0  0  0  0  0  0  0  0  0  0
   14.8147  -11.0288  -14.5846 C   0  0  0  0  0  0  0  0  0  0  0  0
   16.3006  -10.8734  -14.4355 C   0  0  0  0  0  0  0  0  0  0  0  0
   16.9480  -11.5304  -13.5794 O   0  0  0  0  0  0  0  0  0  0  0  0
   18.7773  -11.8631  -16.5989 C   0  0  0  0  0  0  0  0  0  0  0  0
   19.1266  -10.3946  -16.4601 C   0  0  1  0  0  0  0  0  0  0  0  0
   18.6374   -9.7572  -17.6097 O   0  0  0  0  0  0  0  0  0  0  0  0
   18.4618   -9.8403  -15.2154 C   0  0  2  0  0  0  0  0  0  0  0  0
   17.0359   -9.9759  -15.2578 N   0  0  0  0  0  0  0  0  0  0  0  0
   18.8318   -8.4182  -15.0066 C   0  0  0  0  0  0  0  0  0  0  0  0
   18.0051   -7.4793  -15.2643 O   0  0  0  0  0  0  0  0  0  0  0  0
   20.0960   -8.0156  -14.5199 N   0  0  0  0  0  0  0  0  0  0  0  0
   20.4422   -6.5756  -14.3542 C   0  0  1  0  0  0  0  0  0  0  0  0
   21.4594   -6.5169  -13.2655 C   0  0  0  0  0  0  0  0  0  0  0  0
   21.9495   -5.1594  -13.0099 C   0  0  0  0  0  0  0  0  0  0  0  0
   21.1594   -4.2290  -12.7747 O   0  0  0  0  0  0  0  0  0  0  0  0
   20.9170   -6.0675  -15.6687 C   0  0  0  0  0  0  0  0  0  0  0  0
   21.4449   -7.0028  -16.5728 O   0  0  0  0  0  0  0  0  0  0  0  0
   23.3044   -4.8560  -13.0193 O   0  0  0  0  0  0  0  0  0  0  0  0
   20.8757   -4.8738  -16.0137 O   0  0  0  0  0  0  0  0  0  0  0  0
  2  1  1  0
  3  2  1  0
  4  3  2  0
  6  5  1  6
  6  8  1  0
  7  6  1  0
  8  9  1  6
  9  3  1  0
 10 11  2  0
 10  8  1  0
 12 10  1  0
 13 12  1  0
 13 14  1  1
 15 16  2  0
 15 14  1  0
 17 13  1  0
 18 17  1  0
 19 15  1  0
 20 17  2  0
M  END
$$$$
