GTD.pdb
     RDKit          3D

 20 19  0  0  1  0  0  0  0  0999 V2000
   15.1020  -12.9457  -15.3662 N   0  0  0  0  0  0  0  0  0  0  0  0
   15.5787  -11.6653  -15.7680 C   0  0  0  0  0  0  0  0  0  0  0  0
   16.9947  -11.5193  -15.2909 C   0  0  0  0  0  0  0  0  0  0  0  0
   17.3640  -11.9751  -14.1775 O   0  0  0  0  0  0  0  0  0  0  0  0
   20.0825  -12.8176  -16.5270 C   0  0  0  0  0  0  0  0  0  0  0  0
   20.3326  -11.3228  -16.5529 C   0  0  1  0  0  0  0  0  0  0  0  0
   20.1700  -10.9135  -17.8844 O   0  0  0  0  0  0  0  0  0  0  0  0
   19.3253  -10.6340  -15.6532 C   0  0  2  0  0  0  0  0  0  0  0  0
   17.9760  -10.8588  -16.0803 N   0  0  0  0  0  0  0  0  0  0  0  0
   19.5975   -9.1773  -15.5721 C   0  0  0  0  0  0  0  0  0  0  0  0
   18.8917   -8.3392  -16.2285 O   0  0  0  0  0  0  0  0  0  0  0  0
   20.6334   -8.6310  -14.7811 N   0  0  0  0  0  0  0  0  0  0  0  0
   20.9209   -7.1687  -14.7794 C   0  0  1  0  0  0  0  0  0  0  0  0
   21.5572   -6.8734  -13.4636 C   0  0  0  0  0  0  0  0  0  0  0  0
   21.9738   -5.4746  -13.3280 C   0  0  0  0  0  0  0  0  0  0  0  0
   21.1879   -4.5466  -13.5853 O   0  0  0  0  0  0  0  0  0  0  0  0
   21.7778   -6.8721  -15.9581 C   0  0  0  0  0  0  0  0  0  0  0  0
   21.7201   -5.5746  -16.4912 O   0  0  0  0  0  0  0  0  0  0  0  0
   23.2519   -5.1283  -12.9106 O   0  0  0  0  0  0  0  0  0  0  0  0
   22.5364   -7.6966  -16.4968 O   0  0  0  0  0  0  0  0  0  0  0  0
  2  1  1  0
  3  2  1  0
  4  3  2  0
  6  5  1  6
  6  8  1  0
  7  6  1  0
  8  9  1  6
  9  3  1  0
 10 11  2  0
 10  8  1  0
 12 10  1  0
 13 12  1  0
 13 14  1  1
 15 16  2  0
 15 14  1  0
 17 13  1  0
 18 17  1  0
 19 15  1  0
 20 17  2  0
M  END
$$$$
