GTD.pdb
     RDKit          3D

 20 19  0  0  1  0  0  0  0  0999 V2000
   27.2899  -11.5122  -16.0368 N   0  0  0  0  0  0  0  0  0  0  0  0
   26.2592  -11.1033  -15.1432 C   0  0  0  0  0  0  0  0  0  0  0  0
   25.3156  -10.2069  -15.8916 C   0  0  0  0  0  0  0  0  0  0  0  0
   25.5927   -9.7720  -17.0396 O   0  0  0  0  0  0  0  0  0  0  0  0
   22.1920  -10.9371  -17.2302 C   0  0  0  0  0  0  0  0  0  0  0  0
   21.8434   -9.7544  -16.3485 C   0  0  1  0  0  0  0  0  0  0  0  0
   21.2573  -10.2804  -15.1879 O   0  0  0  0  0  0  0  0  0  0  0  0
   23.1109   -8.9938  -16.0119 C   0  0  2  0  0  0  0  0  0  0  0  0
   24.0691   -9.8136  -15.3312 N   0  0  0  0  0  0  0  0  0  0  0  0
   22.8053   -7.7886  -15.2015 C   0  0  0  0  0  0  0  0  0  0  0  0
   22.9367   -7.8001  -13.9311 O   0  0  0  0  0  0  0  0  0  0  0  0
   22.3577   -6.5737  -15.7680 N   0  0  0  0  0  0  0  0  0  0  0  0
   22.0164   -5.3988  -14.9171 C   0  0  1  0  0  0  0  0  0  0  0  0
   22.2998   -4.1915  -15.7451 C   0  0  0  0  0  0  0  0  0  0  0  0
   21.8996   -2.9411  -15.0933 C   0  0  0  0  0  0  0  0  0  0  0  0
   22.1869   -2.7205  -13.9042 O   0  0  0  0  0  0  0  0  0  0  0  0
   20.5965   -5.5381  -14.4974 C   0  0  0  0  0  0  0  0  0  0  0  0
   19.8410   -6.5590  -15.0957 O   0  0  0  0  0  0  0  0  0  0  0  0
   21.1890   -1.9580  -15.7688 O   0  0  0  0  0  0  0  0  0  0  0  0
   20.0413   -4.8114  -13.6553 O   0  0  0  0  0  0  0  0  0  0  0  0
  2  1  1  0
  3  2  1  0
  4  3  2  0
  6  5  1  6
  6  8  1  0
  7  6  1  0
  8  9  1  1
  9  3  1  0
 10 11  2  0
 10  8  1  0
 12 10  1  0
 13 12  1  0
 13 14  1  6
 15 16  2  0
 15 14  1  0
 17 13  1  0
 18 17  1  0
 19 15  1  0
 20 17  2  0
M  END
$$$$
