GTD.pdb
     RDKit          3D

 20 19  0  0  1  0  0  0  0  0999 V2000
   24.1216  -13.7196  -18.4002 N   0  0  0  0  0  0  0  0  0  0  0  0
   23.8025  -12.3846  -18.7794 C   0  0  0  0  0  0  0  0  0  0  0  0
   23.7535  -11.5416  -17.5379 C   0  0  0  0  0  0  0  0  0  0  0  0
   23.1943  -11.9501  -16.4871 O   0  0  0  0  0  0  0  0  0  0  0  0
   26.4486  -10.4914  -15.5395 C   0  0  0  0  0  0  0  0  0  0  0  0
   25.7836   -9.1645  -15.8475 C   0  0  1  0  0  0  0  0  0  0  0  0
   26.5513   -8.5564  -16.8515 O   0  0  0  0  0  0  0  0  0  0  0  0
   24.3696   -9.4171  -16.3325 C   0  0  2  0  0  0  0  0  0  0  0  0
   24.3385  -10.2460  -17.5010 N   0  0  0  0  0  0  0  0  0  0  0  0
   23.6645   -8.1381  -16.5968 C   0  0  0  0  0  0  0  0  0  0  0  0
   23.6927   -7.5991  -17.7544 O   0  0  0  0  0  0  0  0  0  0  0  0
   22.9310   -7.4452  -15.6073 N   0  0  0  0  0  0  0  0  0  0  0  0
   22.2594   -6.1482  -15.9037 C   0  0  1  0  0  0  0  0  0  0  0  0
   20.7943   -6.4238  -15.8720 C   0  0  0  0  0  0  0  0  0  0  0  0
   19.9791   -5.2175  -16.0411 C   0  0  0  0  0  0  0  0  0  0  0  0
   20.1217   -4.4846  -17.0349 O   0  0  0  0  0  0  0  0  0  0  0  0
   22.7213   -5.1561  -14.8968 C   0  0  0  0  0  0  0  0  0  0  0  0
   23.5746   -5.6136  -13.8802 O   0  0  0  0  0  0  0  0  0  0  0  0
   19.0215   -4.8440  -15.1077 O   0  0  0  0  0  0  0  0  0  0  0  0
   22.4004   -3.9550  -14.8998 O   0  0  0  0  0  0  0  0  0  0  0  0
  2  1  1  0
  3  2  1  0
  4  3  2  0
  6  5  1  6
  6  8  1  0
  7  6  1  0
  8  9  1  6
  9  3  1  0
 10 11  2  0
 10  8  1  0
 12 10  1  0
 13 12  1  0
 13 14  1  1
 15 16  2  0
 15 14  1  0
 17 13  1  0
 18 17  1  0
 19 15  1  0
 20 17  2  0
M  END
$$$$
