GTD.pdb
     RDKit          3D

 20 19  0  0  1  0  0  0  0  0999 V2000
   20.9868  -17.8199  -15.3757 N   0  0  0  0  0  0  0  0  0  0  0  0
   21.0951  -16.6522  -16.1835 C   0  0  0  0  0  0  0  0  0  0  0  0
   21.6420  -15.5414  -15.3343 C   0  0  0  0  0  0  0  0  0  0  0  0
   21.5243  -15.5522  -14.0814 O   0  0  0  0  0  0  0  0  0  0  0  0
   24.9595  -14.3782  -14.6769 C   0  0  0  0  0  0  0  0  0  0  0  0
   24.2934  -13.1465  -15.2573 C   0  0  1  0  0  0  0  0  0  0  0  0
   24.7028  -13.0644  -16.5963 O   0  0  0  0  0  0  0  0  0  0  0  0
   22.7883  -13.3045  -15.1653 C   0  0  2  0  0  0  0  0  0  0  0  0
   22.3161  -14.4314  -15.9139 N   0  0  0  0  0  0  0  0  0  0  0  0
   22.0983  -12.0697  -15.6145 C   0  0  0  0  0  0  0  0  0  0  0  0
   21.5987  -11.9854  -16.7870 O   0  0  0  0  0  0  0  0  0  0  0  0
   21.9510  -10.9286  -14.7938 N   0  0  0  0  0  0  0  0  0  0  0  0
   21.2344   -9.7134  -15.2740 C   0  0  1  0  0  0  0  0  0  0  0  0
   20.1732   -9.4326  -14.2648 C   0  0  0  0  0  0  0  0  0  0  0  0
   19.4458   -8.1875  -14.5274 C   0  0  0  0  0  0  0  0  0  0  0  0
   18.9855   -7.9428  -15.6559 O   0  0  0  0  0  0  0  0  0  0  0  0
   22.2371   -8.6265  -15.4320 C   0  0  0  0  0  0  0  0  0  0  0  0
   21.8177   -7.4445  -16.0629 O   0  0  0  0  0  0  0  0  0  0  0  0
   19.2412   -7.2360  -13.5372 O   0  0  0  0  0  0  0  0  0  0  0  0
   23.4154   -8.6997  -15.0426 O   0  0  0  0  0  0  0  0  0  0  0  0
  2  1  1  0
  3  2  1  0
  4  3  2  0
  6  5  1  6
  6  8  1  0
  7  6  1  0
  8  9  1  6
  9  3  1  0
 10 11  2  0
 10  8  1  0
 12 10  1  0
 13 12  1  0
 13 14  1  1
 15 16  2  0
 15 14  1  0
 17 13  1  0
 18 17  1  0
 19 15  1  0
 20 17  2  0
M  END
$$$$
