GTD.pdb
     RDKit          3D

 20 19  0  0  1  0  0  0  0  0999 V2000
   23.3748  -13.1918  -19.4080 N   0  0  0  0  0  0  0  0  0  0  0  0
   23.9446  -11.8866  -19.4118 C   0  0  0  0  0  0  0  0  0  0  0  0
   23.7147  -11.2687  -18.0630 C   0  0  0  0  0  0  0  0  0  0  0  0
   22.7996  -11.6750  -17.3006 O   0  0  0  0  0  0  0  0  0  0  0  0
   26.2692  -10.8255  -15.3963 C   0  0  0  0  0  0  0  0  0  0  0  0
   25.6593   -9.4473  -15.5585 C   0  0  1  0  0  0  0  0  0  0  0  0
   26.5857   -8.6832  -16.2831 O   0  0  0  0  0  0  0  0  0  0  0  0
   24.3525   -9.5675  -16.3178 C   0  0  2  0  0  0  0  0  0  0  0  0
   24.5241  -10.1978  -17.5932 N   0  0  0  0  0  0  0  0  0  0  0  0
   23.7157   -8.2378  -16.4887 C   0  0  0  0  0  0  0  0  0  0  0  0
   23.9666   -7.5156  -17.5118 O   0  0  0  0  0  0  0  0  0  0  0  0
   22.8091   -7.6928  -15.5516 N   0  0  0  0  0  0  0  0  0  0  0  0
   22.2145   -6.3396  -15.7421 C   0  0  1  0  0  0  0  0  0  0  0  0
   20.7922   -6.5631  -16.1301 C   0  0  0  0  0  0  0  0  0  0  0  0
   20.0108   -5.3243  -16.1870 C   0  0  0  0  0  0  0  0  0  0  0  0
   20.4210   -4.3395  -16.8250 O   0  0  0  0  0  0  0  0  0  0  0  0
   22.3955   -5.5807  -14.4760 C   0  0  0  0  0  0  0  0  0  0  0  0
   22.9087   -6.2773  -13.3705 O   0  0  0  0  0  0  0  0  0  0  0  0
   18.7905   -5.1977  -15.5371 O   0  0  0  0  0  0  0  0  0  0  0  0
   22.1220   -4.3759  -14.3374 O   0  0  0  0  0  0  0  0  0  0  0  0
  2  1  1  0
  3  2  1  0
  4  3  2  0
  6  5  1  6
  6  8  1  0
  7  6  1  0
  8  9  1  6
  9  3  1  0
 10 11  2  0
 10  8  1  0
 12 10  1  0
 13 12  1  0
 13 14  1  1
 15 16  2  0
 15 14  1  0
 17 13  1  0
 18 17  1  0
 19 15  1  0
 20 17  2  0
M  END
$$$$
