GTD.pdb
     RDKit          3D

 20 19  0  0  1  0  0  0  0  0999 V2000
   16.2686  -11.7194  -14.3254 N   0  0  0  0  0  0  0  0  0  0  0  0
   16.7006  -11.8007  -15.6799 C   0  0  0  0  0  0  0  0  0  0  0  0
   18.1414  -11.3827  -15.7403 C   0  0  0  0  0  0  0  0  0  0  0  0
   19.0092  -11.9032  -14.9923 O   0  0  0  0  0  0  0  0  0  0  0  0
   20.3718  -11.4635  -18.6404 C   0  0  0  0  0  0  0  0  0  0  0  0
   20.4709  -10.0277  -18.1645 C   0  0  1  0  0  0  0  0  0  0  0  0
   19.6854   -9.2621  -19.0385 O   0  0  0  0  0  0  0  0  0  0  0  0
   19.9411   -9.9355  -16.7470 C   0  0  2  0  0  0  0  0  0  0  0  0
   18.5824  -10.3801  -16.6474 N   0  0  0  0  0  0  0  0  0  0  0  0
   20.0632   -8.5514  -16.2255 C   0  0  0  0  0  0  0  0  0  0  0  0
   19.0764   -7.7419  -16.2726 O   0  0  0  0  0  0  0  0  0  0  0  0
   21.2533   -8.0465  -15.6546 N   0  0  0  0  0  0  0  0  0  0  0  0
   21.3334   -6.6540  -15.1297 C   0  0  1  0  0  0  0  0  0  0  0  0
   21.6946   -6.7750  -13.6881 C   0  0  0  0  0  0  0  0  0  0  0  0
   21.9299   -5.4794  -13.0442 C   0  0  0  0  0  0  0  0  0  0  0  0
   23.0695   -5.1477  -12.6747 O   0  0  0  0  0  0  0  0  0  0  0  0
   22.3260   -5.9137  -15.9533 C   0  0  0  0  0  0  0  0  0  0  0  0
   23.0042   -6.6313  -16.9513 O   0  0  0  0  0  0  0  0  0  0  0  0
   20.9005   -4.5749  -12.8208 O   0  0  0  0  0  0  0  0  0  0  0  0
   22.5904   -4.7071  -15.8133 O   0  0  0  0  0  0  0  0  0  0  0  0
  2  1  1  0
  3  2  1  0
  4  3  2  0
  6  5  1  6
  6  8  1  0
  7  6  1  0
  8  9  1  6
  9  3  1  0
 10 11  2  0
 10  8  1  0
 12 10  1  0
 13 12  1  0
 13 14  1  1
 15 16  2  0
 15 14  1  0
 17 13  1  0
 18 17  1  0
 19 15  1  0
 20 17  2  0
M  END
$$$$
