GTD.pdb
     RDKit          3D

 20 19  0  0  1  0  0  0  0  0999 V2000
   16.3972  -11.4200  -15.4584 N   0  0  0  0  0  0  0  0  0  0  0  0
   16.9118  -10.2911  -16.1576 C   0  0  0  0  0  0  0  0  0  0  0  0
   18.0493   -9.7218  -15.3600 C   0  0  0  0  0  0  0  0  0  0  0  0
   18.0398   -9.7311  -14.1016 O   0  0  0  0  0  0  0  0  0  0  0  0
   21.5696  -10.6986  -15.3566 C   0  0  0  0  0  0  0  0  0  0  0  0
   21.6117   -9.2203  -15.6892 C   0  0  1  0  0  0  0  0  0  0  0  0
   21.8082   -9.1280  -17.0748 O   0  0  0  0  0  0  0  0  0  0  0  0
   20.2952   -8.5827  -15.2905 C   0  0  2  0  0  0  0  0  0  0  0  0
   19.1843   -9.1488  -15.9970 N   0  0  0  0  0  0  0  0  0  0  0  0
   20.3347   -7.1136  -15.4974 C   0  0  0  0  0  0  0  0  0  0  0  0
   19.6501   -6.5616  -16.4236 O   0  0  0  0  0  0  0  0  0  0  0  0
   21.1157   -6.2453  -14.7015 N   0  0  0  0  0  0  0  0  0  0  0  0
   21.1964   -4.7861  -14.9930 C   0  0  1  0  0  0  0  0  0  0  0  0
   20.0609   -4.1543  -14.2616 C   0  0  0  0  0  0  0  0  0  0  0  0
   20.0685   -2.6908  -14.3429 C   0  0  0  0  0  0  0  0  0  0  0  0
   19.9057   -2.1109  -15.4302 O   0  0  0  0  0  0  0  0  0  0  0  0
   22.5410   -4.3114  -14.5708 C   0  0  0  0  0  0  0  0  0  0  0  0
   23.0877   -3.2169  -15.2595 O   0  0  0  0  0  0  0  0  0  0  0  0
   20.2562   -1.8959  -13.2201 O   0  0  0  0  0  0  0  0  0  0  0  0
   23.2061   -4.8206  -13.6522 O   0  0  0  0  0  0  0  0  0  0  0  0
  2  1  1  0
  3  2  1  0
  4  3  2  0
  6  5  1  6
  6  8  1  0
  7  6  1  0
  8  9  1  6
  9  3  1  0
 10 11  2  0
 10  8  1  0
 12 10  1  0
 13 12  1  0
 13 14  1  1
 15 16  2  0
 15 14  1  0
 17 13  1  0
 18 17  1  0
 19 15  1  0
 20 17  2  0
M  END
$$$$
