GTD.pdb
     RDKit          3D

 20 19  0  0  1  0  0  0  0  0999 V2000
   18.2999  -13.7635  -16.3989 N   0  0  0  0  0  0  0  0  0  0  0  0
   18.7041  -12.5415  -17.0083 C   0  0  0  0  0  0  0  0  0  0  0  0
   19.6027  -11.8129  -16.0512 C   0  0  0  0  0  0  0  0  0  0  0  0
   19.5459  -12.0169  -14.8107 O   0  0  0  0  0  0  0  0  0  0  0  0
   23.0314  -12.0046  -15.4857 C   0  0  0  0  0  0  0  0  0  0  0  0
   22.8815  -10.5343  -15.8225 C   0  0  1  0  0  0  0  0  0  0  0  0
   23.2781  -10.3884  -17.1599 O   0  0  0  0  0  0  0  0  0  0  0  0
   21.4315  -10.1284  -15.6458 C   0  0  2  0  0  0  0  0  0  0  0  0
   20.5553  -10.8620  -16.5104 N   0  0  0  0  0  0  0  0  0  0  0  0
   21.2597   -8.6706  -15.8649 C   0  0  0  0  0  0  0  0  0  0  0  0
   20.6660   -8.2279  -16.9054 O   0  0  0  0  0  0  0  0  0  0  0  0
   21.7313   -7.6953  -14.9573 N   0  0  0  0  0  0  0  0  0  0  0  0
   21.5717   -6.2389  -15.2297 C   0  0  1  0  0  0  0  0  0  0  0  0
   21.4479   -5.5797  -13.8980 C   0  0  0  0  0  0  0  0  0  0  0  0
   21.3732   -4.1184  -13.9850 C   0  0  0  0  0  0  0  0  0  0  0  0
   20.5110   -3.5639  -14.6879 O   0  0  0  0  0  0  0  0  0  0  0  0
   22.7437   -5.7945  -16.0301 C   0  0  0  0  0  0  0  0  0  0  0  0
   22.5703   -4.6845  -16.8720 O   0  0  0  0  0  0  0  0  0  0  0  0
   22.2538   -3.2977  -13.2931 O   0  0  0  0  0  0  0  0  0  0  0  0
   23.8595   -6.3417  -15.9999 O   0  0  0  0  0  0  0  0  0  0  0  0
  2  1  1  0
  3  2  1  0
  4  3  2  0
  6  5  1  6
  6  8  1  0
  7  6  1  0
  8  9  1  6
  9  3  1  0
 10 11  2  0
 10  8  1  0
 12 10  1  0
 13 12  1  0
 13 14  1  1
 15 16  2  0
 15 14  1  0
 17 13  1  0
 18 17  1  0
 19 15  1  0
 20 17  2  0
M  END
$$$$
