AKP.pdb
     RDKit          3D

 22 22  0  0  1  0  0  0  0  0999 V2000
    8.5204  -12.4427   19.7596 C   0  0  0  0  0  0  0  0  0  0  0  0
    8.4071  -13.9691   19.8215 C   0  0  2  0  0  0  0  0  0  0  0  0
    7.6592  -14.3918   18.6719 N   0  0  0  0  0  0  0  0  0  0  0  0
    7.6321  -14.3005   21.0683 C   0  0  0  0  0  0  0  0  0  0  0  0
    6.3844  -14.1952   21.1053 O   0  0  0  0  0  0  0  0  0  0  0  0
    8.3164  -14.7400   22.2253 N   0  0  0  0  0  0  0  0  0  0  0  0
    7.6603  -15.1017   23.4763 C   0  0  1  0  0  0  0  0  0  0  0  0
    7.7898  -16.5969   23.5547 C   0  0  0  0  0  0  0  0  0  0  0  0
    7.3091  -17.2209   24.8057 C   0  0  0  0  0  0  0  0  0  0  0  0
    7.5095  -18.7442   24.6907 C   0  0  0  0  0  0  0  0  0  0  0  0
    6.9861  -19.4018   25.9332 C   0  0  0  0  0  0  0  0  0  0  0  0
    7.2252  -20.8497   25.8497 N   0  0  0  0  0  0  0  0  0  0  0  0
    8.1989  -14.4360   24.6663 C   0  0  0  0  0  0  0  0  0  0  0  0
    9.4919  -14.5238   24.7947 O   0  0  0  0  0  0  0  0  0  0  0  0
    7.5600  -13.7294   25.6793 N   0  0  0  0  0  0  0  0  0  0  0  0
    6.1813  -13.4264   25.8874 C   0  0  0  0  0  0  0  0  0  0  0  0
    6.3155  -11.9295   26.2537 C   0  0  0  0  0  0  0  0  0  0  0  0
    7.3583  -12.0388   27.3439 C   0  0  0  0  0  0  0  0  0  0  0  0
    8.2503  -13.1368   26.8406 C   0  0  1  0  0  0  0  0  0  0  0  0
    8.4310  -14.1369   27.9120 C   0  0  0  0  0  0  0  0  0  0  0  0
    9.2803  -13.7981   28.9556 O   0  0  0  0  0  0  0  0  0  0  0  0
    7.8721  -15.2548   27.9339 O   0  0  0  0  0  0  0  0  0  0  0  0
  2  1  1  6
  2  4  1  0
  3  2  1  0
  4  5  2  0
  6  4  1  0
  6  7  1  0
  7 13  1  0
  7  8  1  1
  9 10  1  0
  9  8  1  0
 10 11  1  0
 11 12  1  0
 13 14  2  0
 13 15  1  0
 15 19  1  0
 15 16  1  0
 17 16  1  0
 18 17  1  0
 18 19  1  0
 19 20  1  1
 20 21  1  0
 22 20  2  0
M  END
$$$$
