AKP.pdb
     RDKit          3D

 22 22  0  0  1  0  0  0  0  0999 V2000
   10.7936  -18.6048   26.4088 C   0  0  0  0  0  0  0  0  0  0  0  0
   11.0480  -18.2782   24.9340 C   0  0  2  0  0  0  0  0  0  0  0  0
   12.4562  -18.4229   24.6982 N   0  0  0  0  0  0  0  0  0  0  0  0
   10.6549  -16.8398   24.7300 C   0  0  0  0  0  0  0  0  0  0  0  0
   11.3062  -15.9073   25.2548 O   0  0  0  0  0  0  0  0  0  0  0  0
    9.5303  -16.5249   23.9322 N   0  0  0  0  0  0  0  0  0  0  0  0
    8.9961  -15.1783   23.7662 C   0  0  1  0  0  0  0  0  0  0  0  0
    8.3130  -15.2030   22.4278 C   0  0  0  0  0  0  0  0  0  0  0  0
    7.7523  -13.9153   21.9664 C   0  0  0  0  0  0  0  0  0  0  0  0
    8.0154  -13.7913   20.4534 C   0  0  0  0  0  0  0  0  0  0  0  0
    7.5775  -12.4333   19.9903 C   0  0  0  0  0  0  0  0  0  0  0  0
    7.6521  -12.3770   18.5233 N   0  0  0  0  0  0  0  0  0  0  0  0
    8.0981  -14.7382   24.8383 C   0  0  0  0  0  0  0  0  0  0  0  0
    7.5056  -15.7062   25.4770 O   0  0  0  0  0  0  0  0  0  0  0  0
    7.7732  -13.4618   25.2844 N   0  0  0  0  0  0  0  0  0  0  0  0
    8.1112  -12.1738   24.7721 C   0  0  0  0  0  0  0  0  0  0  0  0
    8.5097  -11.4834   26.0978 C   0  0  0  0  0  0  0  0  0  0  0  0
    7.2780  -11.8004   26.9166 C   0  0  0  0  0  0  0  0  0  0  0  0
    6.9208  -13.1841   26.4560 C   0  0  1  0  0  0  0  0  0  0  0  0
    5.4916  -13.2122   26.0853 C   0  0  0  0  0  0  0  0  0  0  0  0
    5.1910  -13.2633   24.7317 O   0  0  0  0  0  0  0  0  0  0  0  0
    4.5500  -13.1929   26.9072 O   0  0  0  0  0  0  0  0  0  0  0  0
  2  1  1  1
  2  4  1  0
  3  2  1  0
  4  5  2  0
  6  4  1  0
  6  7  1  0
  7 13  1  0
  7  8  1  6
  9 10  1  0
  9  8  1  0
 10 11  1  0
 11 12  1  0
 13 14  2  0
 13 15  1  0
 15 19  1  0
 15 16  1  0
 17 16  1  0
 18 17  1  0
 18 19  1  0
 19 20  1  6
 20 21  1  0
 22 20  2  0
M  END
$$$$
