AKP.pdb
     RDKit          3D

 22 22  0  0  1  0  0  0  0  0999 V2000
    8.7094  -12.3941   19.7343 C   0  0  0  0  0  0  0  0  0  0  0  0
    8.3050  -13.8707   19.6851 C   0  0  2  0  0  0  0  0  0  0  0  0
    7.4237  -14.0382   18.5648 N   0  0  0  0  0  0  0  0  0  0  0  0
    7.5538  -14.1615   20.9564 C   0  0  0  0  0  0  0  0  0  0  0  0
    6.3414  -13.8700   21.0762 O   0  0  0  0  0  0  0  0  0  0  0  0
    8.2206  -14.7755   22.0421 N   0  0  0  0  0  0  0  0  0  0  0  0
    7.5796  -15.1242   23.3046 C   0  0  1  0  0  0  0  0  0  0  0  0
    7.6906  -16.6207   23.3862 C   0  0  0  0  0  0  0  0  0  0  0  0
    7.1879  -17.2374   24.6322 C   0  0  0  0  0  0  0  0  0  0  0  0
    7.3355  -18.7657   24.5054 C   0  0  0  0  0  0  0  0  0  0  0  0
    6.8271  -19.4122   25.7599 C   0  0  0  0  0  0  0  0  0  0  0  0
    7.0388  -20.8643   25.6739 N   0  0  0  0  0  0  0  0  0  0  0  0
    8.1458  -14.4617   24.4835 C   0  0  0  0  0  0  0  0  0  0  0  0
    9.4471  -14.4156   24.5034 O   0  0  0  0  0  0  0  0  0  0  0  0
    7.5257  -13.8772   25.5824 N   0  0  0  0  0  0  0  0  0  0  0  0
    6.1459  -13.7369   25.9174 C   0  0  0  0  0  0  0  0  0  0  0  0
    6.1530  -12.2530   26.3544 C   0  0  0  0  0  0  0  0  0  0  0  0
    7.2916  -12.2983   27.3492 C   0  0  0  0  0  0  0  0  0  0  0  0
    8.2473  -13.2674   26.7154 C   0  0  1  0  0  0  0  0  0  0  0  0
    8.6238  -14.2906   27.7115 C   0  0  0  0  0  0  0  0  0  0  0  0
    9.5556  -13.9243   28.6720 O   0  0  0  0  0  0  0  0  0  0  0  0
    8.1591  -15.4507   27.7400 O   0  0  0  0  0  0  0  0  0  0  0  0
  2  1  1  1
  2  4  1  0
  3  2  1  0
  4  5  2  0
  6  4  1  0
  6  7  1  0
  7 13  1  0
  7  8  1  1
  9 10  1  0
  9  8  1  0
 10 11  1  0
 11 12  1  0
 13 14  2  0
 13 15  1  0
 15 19  1  0
 15 16  1  0
 17 16  1  0
 18 17  1  0
 18 19  1  0
 19 20  1  1
 20 21  1  0
 22 20  2  0
M  END
$$$$
