AKP.pdb
     RDKit          3D

 22 22  0  0  1  0  0  0  0  0999 V2000
    8.6101  -12.6329   19.9147 C   0  0  0  0  0  0  0  0  0  0  0  0
    8.1082  -14.0793   19.8653 C   0  0  2  0  0  0  0  0  0  0  0  0
    7.1380  -14.1622   18.8111 N   0  0  0  0  0  0  0  0  0  0  0  0
    7.4352  -14.3544   21.1831 C   0  0  0  0  0  0  0  0  0  0  0  0
    6.2513  -14.0035   21.3941 O   0  0  0  0  0  0  0  0  0  0  0  0
    8.1445  -15.0213   22.2089 N   0  0  0  0  0  0  0  0  0  0  0  0
    7.6021  -15.2946   23.5346 C   0  0  1  0  0  0  0  0  0  0  0  0
    7.7769  -16.7758   23.7186 C   0  0  0  0  0  0  0  0  0  0  0  0
    7.3581  -17.3164   25.0293 C   0  0  0  0  0  0  0  0  0  0  0  0
    7.5772  -18.8414   25.0122 C   0  0  0  0  0  0  0  0  0  0  0  0
    6.9875  -19.4345   26.2574 C   0  0  0  0  0  0  0  0  0  0  0  0
    7.1023  -20.8986   26.1952 N   0  0  0  0  0  0  0  0  0  0  0  0
    8.2181  -14.5251   24.6200 C   0  0  0  0  0  0  0  0  0  0  0  0
    9.5199  -14.5544   24.6304 O   0  0  0  0  0  0  0  0  0  0  0  0
    7.6445  -13.7724   25.6388 N   0  0  0  0  0  0  0  0  0  0  0  0
    6.2894  -13.3963   25.8796 C   0  0  0  0  0  0  0  0  0  0  0  0
    6.5096  -11.9031   26.2187 C   0  0  0  0  0  0  0  0  0  0  0  0
    7.5758  -12.0502   27.2817 C   0  0  0  0  0  0  0  0  0  0  0  0
    8.3963  -13.1995   26.7715 C   0  0  1  0  0  0  0  0  0  0  0  0
    8.5559  -14.1922   27.8530 C   0  0  0  0  0  0  0  0  0  0  0  0
    9.4767  -13.8991   28.8486 O   0  0  0  0  0  0  0  0  0  0  0  0
    7.9195  -15.2658   27.9235 O   0  0  0  0  0  0  0  0  0  0  0  0
  2  1  1  1
  2  4  1  0
  3  2  1  0
  4  5  2  0
  6  4  1  0
  6  7  1  0
  7 13  1  0
  7  8  1  1
  9 10  1  0
  9  8  1  0
 10 11  1  0
 11 12  1  0
 13 14  2  0
 13 15  1  0
 15 19  1  0
 15 16  1  0
 17 16  1  0
 18 17  1  0
 18 19  1  0
 19 20  1  1
 20 21  1  0
 22 20  2  0
M  END
$$$$
