AKP.pdb
     RDKit          3D

 22 22  0  0  1  0  0  0  0  0999 V2000
    8.2874  -12.4058   19.8284 C   0  0  0  0  0  0  0  0  0  0  0  0
    8.2801  -13.9376   19.8388 C   0  0  2  0  0  0  0  0  0  0  0  0
    7.5299  -14.3719   18.6951 N   0  0  0  0  0  0  0  0  0  0  0  0
    7.5655  -14.3635   21.0931 C   0  0  0  0  0  0  0  0  0  0  0  0
    6.3146  -14.3999   21.1480 O   0  0  0  0  0  0  0  0  0  0  0  0
    8.3118  -14.7315   22.2367 N   0  0  0  0  0  0  0  0  0  0  0  0
    7.7189  -15.1016   23.5165 C   0  0  1  0  0  0  0  0  0  0  0  0
    7.8844  -16.5932   23.5946 C   0  0  0  0  0  0  0  0  0  0  0  0
    7.3900  -17.2327   24.8324 C   0  0  0  0  0  0  0  0  0  0  0  0
    7.5815  -18.7554   24.6960 C   0  0  0  0  0  0  0  0  0  0  0  0
    6.9209  -19.4376   25.8572 C   0  0  0  0  0  0  0  0  0  0  0  0
    7.0607  -20.8929   25.7046 N   0  0  0  0  0  0  0  0  0  0  0  0
    8.2944  -14.4189   24.6794 C   0  0  0  0  0  0  0  0  0  0  0  0
    9.5940  -14.4686   24.7454 O   0  0  0  0  0  0  0  0  0  0  0  0
    7.6844  -13.7302   25.7220 N   0  0  0  0  0  0  0  0  0  0  0  0
    6.3139  -13.4163   25.9652 C   0  0  0  0  0  0  0  0  0  0  0  0
    6.4737  -11.9306   26.3654 C   0  0  0  0  0  0  0  0  0  0  0  0
    7.5366  -12.0792   27.4314 C   0  0  0  0  0  0  0  0  0  0  0  0
    8.4048  -13.1748   26.8835 C   0  0  1  0  0  0  0  0  0  0  0  0
    8.5944  -14.2033   27.9260 C   0  0  0  0  0  0  0  0  0  0  0  0
    9.4890  -13.9115   28.9457 O   0  0  0  0  0  0  0  0  0  0  0  0
    8.0050  -15.3055   27.9439 O   0  0  0  0  0  0  0  0  0  0  0  0
  2  1  1  1
  2  4  1  0
  3  2  1  0
  4  5  2  0
  6  4  1  0
  6  7  1  0
  7 13  1  0
  7  8  1  1
  9 10  1  0
  9  8  1  0
 10 11  1  0
 11 12  1  0
 13 14  2  0
 13 15  1  0
 15 19  1  0
 15 16  1  0
 17 16  1  0
 18 17  1  0
 18 19  1  0
 19 20  1  1
 20 21  1  0
 22 20  2  0
M  END
$$$$
