AKP.pdb
     RDKit          3D

 22 22  0  0  1  0  0  0  0  0999 V2000
   12.2124  -17.0263   21.7076 C   0  0  0  0  0  0  0  0  0  0  0  0
   10.9001  -16.8819   20.9307 C   0  0  2  0  0  0  0  0  0  0  0  0
   11.2047  -16.2291   19.6895 N   0  0  0  0  0  0  0  0  0  0  0  0
   10.0010  -15.9963   21.7507 C   0  0  0  0  0  0  0  0  0  0  0  0
   10.1209  -14.7495   21.7287 O   0  0  0  0  0  0  0  0  0  0  0  0
    8.9986  -16.5732   22.5648 N   0  0  0  0  0  0  0  0  0  0  0  0
    8.0283  -15.8050   23.3361 C   0  0  1  0  0  0  0  0  0  0  0  0
    6.8699  -16.7425   23.5305 C   0  0  0  0  0  0  0  0  0  0  0  0
    6.1114  -17.0915   22.3106 C   0  0  0  0  0  0  0  0  0  0  0  0
    4.9842  -18.0640   22.7075 C   0  0  0  0  0  0  0  0  0  0  0  0
    4.1658  -18.3866   21.4925 C   0  0  0  0  0  0  0  0  0  0  0  0
    3.1517  -19.3900   21.8467 N   0  0  0  0  0  0  0  0  0  0  0  0
    8.5341  -15.2785   24.6075 C   0  0  0  0  0  0  0  0  0  0  0  0
    9.6356  -15.8358   25.0221 O   0  0  0  0  0  0  0  0  0  0  0  0
    8.0333  -14.2863   25.4432 N   0  0  0  0  0  0  0  0  0  0  0  0
    6.8643  -13.4746   25.3414 C   0  0  0  0  0  0  0  0  0  0  0  0
    7.4893  -12.1050   25.6969 C   0  0  0  0  0  0  0  0  0  0  0  0
    8.1797  -12.4813   26.9892 C   0  0  0  0  0  0  0  0  0  0  0  0
    8.6609  -13.8766   26.7139 C   0  0  1  0  0  0  0  0  0  0  0  0
    8.2345  -14.7579   27.8194 C   0  0  0  0  0  0  0  0  0  0  0  0
    8.9856  -14.7172   28.9853 O   0  0  0  0  0  0  0  0  0  0  0  0
    7.2507  -15.5274   27.7677 O   0  0  0  0  0  0  0  0  0  0  0  0
  2  1  1  1
  2  4  1  0
  3  2  1  0
  4  5  2  0
  6  4  1  0
  6  7  1  0
  7 13  1  0
  7  8  1  1
  9 10  1  0
  9  8  1  0
 10 11  1  0
 11 12  1  0
 13 14  2  0
 13 15  1  0
 15 19  1  0
 15 16  1  0
 17 16  1  0
 18 17  1  0
 18 19  1  0
 19 20  1  1
 20 21  1  0
 22 20  2  0
M  END
$$$$
