AKP.pdb
     RDKit          3D

 22 22  0  0  1  0  0  0  0  0999 V2000
   11.2761  -21.2040   18.6574 C   0  0  0  0  0  0  0  0  0  0  0  0
   10.5981  -19.9275   18.1501 C   0  0  2  0  0  0  0  0  0  0  0  0
   11.2838  -19.5216   16.9565 N   0  0  0  0  0  0  0  0  0  0  0  0
   10.7873  -18.8791   19.2132 C   0  0  0  0  0  0  0  0  0  0  0  0
   11.9303  -18.4851   19.5415 O   0  0  0  0  0  0  0  0  0  0  0  0
    9.6595  -18.3221   19.8597 N   0  0  0  0  0  0  0  0  0  0  0  0
    9.7331  -17.3050   20.9020 C   0  0  1  0  0  0  0  0  0  0  0  0
    8.4516  -16.5314   20.7690 C   0  0  0  0  0  0  0  0  0  0  0  0
    8.2632  -15.8108   19.4920 C   0  0  0  0  0  0  0  0  0  0  0  0
    7.9735  -14.3320   19.8130 C   0  0  0  0  0  0  0  0  0  0  0  0
    7.7154  -13.5948   18.5324 C   0  0  0  0  0  0  0  0  0  0  0  0
    7.3450  -12.2063   18.8416 N   0  0  0  0  0  0  0  0  0  0  0  0
    9.9256  -17.8289   22.2577 C   0  0  0  0  0  0  0  0  0  0  0  0
    9.4563  -19.0293   22.4438 O   0  0  0  0  0  0  0  0  0  0  0  0
   10.5232  -17.2576   23.3758 N   0  0  0  0  0  0  0  0  0  0  0  0
   11.0323  -15.9438   23.6003 C   0  0  0  0  0  0  0  0  0  0  0  0
   12.3736  -16.3163   24.2750 C   0  0  0  0  0  0  0  0  0  0  0  0
   11.8548  -17.2458   25.3498 C   0  0  0  0  0  0  0  0  0  0  0  0
   10.7315  -17.9608   24.6559 C   0  0  1  0  0  0  0  0  0  0  0  0
    9.5220  -17.8869   25.4998 C   0  0  0  0  0  0  0  0  0  0  0  0
    9.5019  -18.6702   26.6449 O   0  0  0  0  0  0  0  0  0  0  0  0
    8.5293  -17.1705   25.2472 O   0  0  0  0  0  0  0  0  0  0  0  0
  2  1  1  1
  2  4  1  0
  3  2  1  0
  4  5  2  0
  6  4  1  0
  6  7  1  0
  7 13  1  0
  7  8  1  1
  9 10  1  0
  9  8  1  0
 10 11  1  0
 11 12  1  0
 13 14  2  0
 13 15  1  0
 15 19  1  0
 15 16  1  0
 17 16  1  0
 18 17  1  0
 18 19  1  0
 19 20  1  1
 20 21  1  0
 22 20  2  0
M  END
$$$$
