AKP.pdb
     RDKit          3D

 22 22  0  0  1  0  0  0  0  0999 V2000
    9.0408  -12.4580   19.7519 C   0  0  0  0  0  0  0  0  0  0  0  0
    8.6508  -13.9336   19.6227 C   0  0  2  0  0  0  0  0  0  0  0  0
    7.9679  -14.0898   18.3701 N   0  0  0  0  0  0  0  0  0  0  0  0
    7.6990  -14.2352   20.7489 C   0  0  0  0  0  0  0  0  0  0  0  0
    6.5336  -14.6365   20.5251 O   0  0  0  0  0  0  0  0  0  0  0  0
    8.1190  -14.0654   22.0886 N   0  0  0  0  0  0  0  0  0  0  0  0
    7.4949  -14.7220   23.2313 C   0  0  1  0  0  0  0  0  0  0  0  0
    7.6199  -16.1911   22.9401 C   0  0  0  0  0  0  0  0  0  0  0  0
    6.3528  -16.9519   22.9078 C   0  0  0  0  0  0  0  0  0  0  0  0
    6.6881  -18.4326   22.6452 C   0  0  0  0  0  0  0  0  0  0  0  0
    5.4208  -19.2345   22.6778 C   0  0  0  0  0  0  0  0  0  0  0  0
    5.7154  -20.6183   22.2788 N   0  0  0  0  0  0  0  0  0  0  0  0
    8.0681  -14.3646   24.5325 C   0  0  0  0  0  0  0  0  0  0  0  0
    9.3325  -14.6483   24.6612 O   0  0  0  0  0  0  0  0  0  0  0  0
    7.4869  -13.7758   25.6502 N   0  0  0  0  0  0  0  0  0  0  0  0
    6.1299  -13.4398   25.9358 C   0  0  0  0  0  0  0  0  0  0  0  0
    6.3473  -12.0161   26.5005 C   0  0  0  0  0  0  0  0  0  0  0  0
    7.4057  -12.3247   27.5363 C   0  0  0  0  0  0  0  0  0  0  0  0
    8.2303  -13.3832   26.8625 C   0  0  1  0  0  0  0  0  0  0  0  0
    8.3823  -14.5296   27.7808 C   0  0  0  0  0  0  0  0  0  0  0  0
    9.2727  -14.3811   28.8345 O   0  0  0  0  0  0  0  0  0  0  0  0
    7.7651  -15.6106   27.6666 O   0  0  0  0  0  0  0  0  0  0  0  0
  2  1  1  1
  2  4  1  0
  3  2  1  0
  4  5  2  0
  6  4  1  0
  6  7  1  0
  7 13  1  0
  7  8  1  6
  9 10  1  0
  9  8  1  0
 10 11  1  0
 11 12  1  0
 13 14  2  0
 13 15  1  0
 15 19  1  0
 15 16  1  0
 17 16  1  0
 18 17  1  0
 18 19  1  0
 19 20  1  1
 20 21  1  0
 22 20  2  0
M  END
$$$$
