AKP.pdb
     RDKit          3D

 22 22  0  0  1  0  0  0  0  0999 V2000
    8.5413  -12.6624   19.8878 C   0  0  0  0  0  0  0  0  0  0  0  0
    8.1730  -14.1492   19.8987 C   0  0  2  0  0  0  0  0  0  0  0  0
    7.2681  -14.3763   18.8083 N   0  0  0  0  0  0  0  0  0  0  0  0
    7.4620  -14.4147   21.1984 C   0  0  0  0  0  0  0  0  0  0  0  0
    6.2654  -14.0832   21.3642 O   0  0  0  0  0  0  0  0  0  0  0  0
    8.1494  -15.0500   22.2587 N   0  0  0  0  0  0  0  0  0  0  0  0
    7.5697  -15.3079   23.5716 C   0  0  1  0  0  0  0  0  0  0  0  0
    7.7251  -16.7893   23.7711 C   0  0  0  0  0  0  0  0  0  0  0  0
    7.3296  -17.3059   25.0986 C   0  0  0  0  0  0  0  0  0  0  0  0
    7.5363  -18.8327   25.1010 C   0  0  0  0  0  0  0  0  0  0  0  0
    7.2181  -19.3674   26.4659 C   0  0  0  0  0  0  0  0  0  0  0  0
    7.1852  -20.8360   26.4127 N   0  0  0  0  0  0  0  0  0  0  0  0
    8.1645  -14.5361   24.6670 C   0  0  0  0  0  0  0  0  0  0  0  0
    9.4655  -14.5755   24.7103 O   0  0  0  0  0  0  0  0  0  0  0  0
    7.5717  -13.7721   25.6663 N   0  0  0  0  0  0  0  0  0  0  0  0
    6.2068  -13.4290   25.9009 C   0  0  0  0  0  0  0  0  0  0  0  0
    6.3842  -11.9212   26.1974 C   0  0  0  0  0  0  0  0  0  0  0  0
    7.4567  -12.0072   27.2606 C   0  0  0  0  0  0  0  0  0  0  0  0
    8.3092  -13.1460   26.7800 C   0  0  1  0  0  0  0  0  0  0  0  0
    8.5005  -14.1029   27.8884 C   0  0  0  0  0  0  0  0  0  0  0  0
    9.3987  -13.7454   28.8836 O   0  0  0  0  0  0  0  0  0  0  0  0
    7.9093  -15.2004   27.9816 O   0  0  0  0  0  0  0  0  0  0  0  0
  2  1  1  1
  2  4  1  0
  3  2  1  0
  4  5  2  0
  6  4  1  0
  6  7  1  0
  7 13  1  0
  7  8  1  1
  9 10  1  0
  9  8  1  0
 10 11  1  0
 11 12  1  0
 13 14  2  0
 13 15  1  0
 15 19  1  0
 15 16  1  0
 17 16  1  0
 18 17  1  0
 18 19  1  0
 19 20  1  1
 20 21  1  0
 22 20  2  0
M  END
$$$$
