AKP.pdb
     RDKit          3D

 22 22  0  0  1  0  0  0  0  0999 V2000
   10.1763  -12.7763   19.8760 C   0  0  0  0  0  0  0  0  0  0  0  0
    9.0190  -13.7498   19.6323 C   0  0  2  0  0  0  0  0  0  0  0  0
    8.2573  -13.2441   18.5260 N   0  0  0  0  0  0  0  0  0  0  0  0
    8.1655  -13.7346   20.8719 C   0  0  0  0  0  0  0  0  0  0  0  0
    7.3641  -12.7987   21.0978 O   0  0  0  0  0  0  0  0  0  0  0  0
    8.2630  -14.7926   21.8054 N   0  0  0  0  0  0  0  0  0  0  0  0
    7.4366  -14.9075   23.0012 C   0  0  1  0  0  0  0  0  0  0  0  0
    7.0097  -16.3481   23.0309 C   0  0  0  0  0  0  0  0  0  0  0  0
    6.1136  -16.7776   21.9365 C   0  0  0  0  0  0  0  0  0  0  0  0
    5.8409  -18.2849   22.1023 C   0  0  0  0  0  0  0  0  0  0  0  0
    4.9085  -18.7358   21.0171 C   0  0  0  0  0  0  0  0  0  0  0  0
    4.6046  -20.1617   21.2043 N   0  0  0  0  0  0  0  0  0  0  0  0
    8.0973  -14.4998   24.2449 C   0  0  0  0  0  0  0  0  0  0  0  0
    9.3782  -14.7325   24.2766 O   0  0  0  0  0  0  0  0  0  0  0  0
    7.5844  -13.9090   25.3944 N   0  0  0  0  0  0  0  0  0  0  0  0
    6.2705  -13.4491   25.7077 C   0  0  0  0  0  0  0  0  0  0  0  0
    6.6359  -12.0843   26.3376 C   0  0  0  0  0  0  0  0  0  0  0  0
    7.6608  -12.5499   27.3481 C   0  0  0  0  0  0  0  0  0  0  0  0
    8.3690  -13.6539   26.6174 C   0  0  1  0  0  0  0  0  0  0  0  0
    8.4054  -14.8529   27.4788 C   0  0  0  0  0  0  0  0  0  0  0  0
    9.2826  -14.8321   28.5536 O   0  0  0  0  0  0  0  0  0  0  0  0
    7.7026  -15.8710   27.2994 O   0  0  0  0  0  0  0  0  0  0  0  0
  2  1  1  1
  2  4  1  0
  3  2  1  0
  4  5  2  0
  6  4  1  0
  6  7  1  0
  7 13  1  0
  7  8  1  1
  9 10  1  0
  9  8  1  0
 10 11  1  0
 11 12  1  0
 13 14  2  0
 13 15  1  0
 15 19  1  0
 15 16  1  0
 17 16  1  0
 18 17  1  0
 18 19  1  0
 19 20  1  1
 20 21  1  0
 22 20  2  0
M  END
$$$$
