FKF.pdb
     RDKit          3D

 32 33  0  0  1  0  0  0  0  0999 V2000
    6.2438  -15.9603   25.4990 N   0  0  0  0  0  0  0  0  0  0  0  0
    6.9575  -15.1499   24.5361 C   0  0  1  0  0  0  0  0  0  0  0  0
    7.7030  -14.0164   25.1594 C   0  0  0  0  0  0  0  0  0  0  0  0
    6.9283  -13.1395   26.0222 C   0  0  0  0  0  0  0  0  0  0  0  0
    7.4154  -11.9620   26.5497 C   0  0  0  0  0  0  0  0  0  0  0  0
    6.6389  -11.1537   27.3729 C   0  0  0  0  0  0  0  0  0  0  0  0
    5.3555  -11.5034   27.6888 C   0  0  0  0  0  0  0  0  0  0  0  0
    4.8504  -12.6699   27.1755 C   0  0  0  0  0  0  0  0  0  0  0  0
    5.6325  -13.4724   26.3537 C   0  0  0  0  0  0  0  0  0  0  0  0
    7.7768  -16.0525   23.7027 C   0  0  0  0  0  0  0  0  0  0  0  0
    7.9171  -17.2699   24.0109 O   0  0  0  0  0  0  0  0  0  0  0  0
    8.4595  -15.6398   22.5115 N   0  0  0  0  0  0  0  0  0  0  0  0
    9.7633  -16.1720   22.1471 C   0  0  1  0  0  0  0  0  0  0  0  0
   10.2216  -15.3184   20.9534 C   0  0  0  0  0  0  0  0  0  0  0  0
    8.9576  -14.8654   20.2355 C   0  0  0  0  0  0  0  0  0  0  0  0
    9.2945  -13.9790   19.0612 C   0  0  0  0  0  0  0  0  0  0  0  0
    7.9668  -13.6620   18.3662 C   0  0  0  0  0  0  0  0  0  0  0  0
    8.2924  -12.8274   17.2075 N   0  0  0  0  0  0  0  0  0  0  0  0
   10.7382  -16.1602   23.2276 C   0  0  0  0  0  0  0  0  0  0  0  0
   11.1354  -15.0970   23.7602 O   0  0  0  0  0  0  0  0  0  0  0  0
   11.2719  -17.3811   23.7119 N   0  0  0  0  0  0  0  0  0  0  0  0
   11.6827  -17.5694   25.0891 C   0  0  1  0  0  0  0  0  0  0  0  0
   10.4973  -17.5045   26.0335 C   0  0  0  0  0  0  0  0  0  0  0  0
   10.4777  -16.2128   26.7624 C   0  0  0  0  0  0  0  0  0  0  0  0
   10.8744  -16.1862   28.0897 C   0  0  0  0  0  0  0  0  0  0  0  0
   10.8616  -14.9837   28.7860 C   0  0  0  0  0  0  0  0  0  0  0  0
   10.4664  -13.8064   28.2037 C   0  0  0  0  0  0  0  0  0  0  0  0
   10.0701  -13.8225   26.8844 C   0  0  0  0  0  0  0  0  0  0  0  0
   10.0857  -15.0235   26.1980 C   0  0  0  0  0  0  0  0  0  0  0  0
   12.3905  -18.8624   25.2047 C   0  0  0  0  0  0  0  0  0  0  0  0
   12.3629  -19.8130   24.1928 O   0  0  0  0  0  0  0  0  0  0  0  0
   13.0452  -19.1357   26.2407 O   0  0  0  0  0  0  0  0  0  0  0  0
  2  1  1  1
  2 10  1  0
  2  3  1  0
  3  4  1  0
  4  9  1  0
  4  5  2  0
  5  6  1  0
  6  7  2  0
  8  7  1  0
  9  8  2  0
 10 12  1  0
 10 11  2  0
 12 13  1  0
 13 19  1  0
 13 14  1  6
 15 14  1  0
 16 15  1  0
 17 16  1  0
 18 17  1  0
 19 20  2  0
 19 21  1  0
 21 22  1  0
 22 30  1  0
 22 23  1  1
 23 24  1  0
 24 25  2  0
 24 29  1  0
 25 26  1  0
 26 27  2  0
 28 27  1  0
 29 28  2  0
 30 31  1  0
 32 30  2  0
M  END
$$$$
