FKF.pdb
     RDKit          3D

 32 33  0  0  1  0  0  0  0  0999 V2000
    6.7357  -15.9654   25.4169 N   0  0  0  0  0  0  0  0  0  0  0  0
    7.2874  -15.4699   24.1747 C   0  0  1  0  0  0  0  0  0  0  0  0
    7.7550  -14.0547   24.2622 C   0  0  0  0  0  0  0  0  0  0  0  0
    6.9613  -13.1700   25.0992 C   0  0  0  0  0  0  0  0  0  0  0  0
    5.8465  -13.5787   25.8007 C   0  0  0  0  0  0  0  0  0  0  0  0
    5.1152  -12.6969   26.5890 C   0  0  0  0  0  0  0  0  0  0  0  0
    5.4810  -11.3839   26.6951 C   0  0  0  0  0  0  0  0  0  0  0  0
    6.5862  -10.9554   26.0064 C   0  0  0  0  0  0  0  0  0  0  0  0
    7.3119  -11.8425   25.2207 C   0  0  0  0  0  0  0  0  0  0  0  0
    8.3044  -16.4359   23.7131 C   0  0  0  0  0  0  0  0  0  0  0  0
    8.5535  -17.4816   24.3774 O   0  0  0  0  0  0  0  0  0  0  0  0
    9.0700  -16.2769   22.5115 N   0  0  0  0  0  0  0  0  0  0  0  0
   10.0594  -17.2575   22.0929 C   0  0  1  0  0  0  0  0  0  0  0  0
   10.0490  -17.2018   20.5564 C   0  0  0  0  0  0  0  0  0  0  0  0
    8.7394  -17.8375   20.1099 C   0  0  0  0  0  0  0  0  0  0  0  0
    8.6360  -17.8544   18.6042 C   0  0  0  0  0  0  0  0  0  0  0  0
    7.2774  -18.4796   18.2730 C   0  0  0  0  0  0  0  0  0  0  0  0
    7.0814  -18.3099   16.8315 N   0  0  0  0  0  0  0  0  0  0  0  0
   11.3915  -17.0328   22.6341 C   0  0  0  0  0  0  0  0  0  0  0  0
   12.3170  -17.8686   22.5050 O   0  0  0  0  0  0  0  0  0  0  0  0
   11.6768  -15.8345   23.3359 N   0  0  0  0  0  0  0  0  0  0  0  0
   11.7882  -15.7751   24.7798 C   0  0  1  0  0  0  0  0  0  0  0  0
   10.4254  -15.8446   25.4427 C   0  0  0  0  0  0  0  0  0  0  0  0
   10.5336  -15.5611   26.8947 C   0  0  0  0  0  0  0  0  0  0  0  0
   10.6047  -16.6233   27.7814 C   0  0  0  0  0  0  0  0  0  0  0  0
   10.7064  -16.3740   29.1446 C   0  0  0  0  0  0  0  0  0  0  0  0
   10.7397  -15.1009   29.6540 C   0  0  0  0  0  0  0  0  0  0  0  0
   10.6697  -14.0380   28.7805 C   0  0  0  0  0  0  0  0  0  0  0  0
   10.5685  -14.2945   27.4248 C   0  0  0  0  0  0  0  0  0  0  0  0
   12.6640  -16.8748   25.2377 C   0  0  0  0  0  0  0  0  0  0  0  0
   12.3460  -18.2099   25.0260 O   0  0  0  0  0  0  0  0  0  0  0  0
   13.7362  -16.6217   25.8402 O   0  0  0  0  0  0  0  0  0  0  0  0
  2  1  1  1
  2 10  1  0
  2  3  1  0
  3  4  1  0
  4  9  1  0
  4  5  2  0
  5  6  1  0
  6  7  2  0
  8  7  1  0
  9  8  2  0
 10 12  1  0
 10 11  2  0
 12 13  1  0
 13 19  1  0
 13 14  1  6
 15 14  1  0
 16 15  1  0
 17 16  1  0
 18 17  1  0
 19 20  2  0
 19 21  1  0
 21 22  1  0
 22 30  1  0
 22 23  1  1
 23 24  1  0
 24 25  2  0
 24 29  1  0
 25 26  1  0
 26 27  2  0
 28 27  1  0
 29 28  2  0
 30 31  1  0
 32 30  2  0
M  END
$$$$
