FKF.pdb
     RDKit          3D

 32 33  0  0  1  0  0  0  0  0999 V2000
    8.7627  -16.4355   21.6120 N   0  0  0  0  0  0  0  0  0  0  0  0
    7.9282  -15.5234   22.3634 C   0  0  1  0  0  0  0  0  0  0  0  0
    6.8249  -14.9308   21.5506 C   0  0  0  0  0  0  0  0  0  0  0  0
    7.2315  -14.1558   20.3898 C   0  0  0  0  0  0  0  0  0  0  0  0
    7.9139  -12.9600   20.4706 C   0  0  0  0  0  0  0  0  0  0  0  0
    8.2821  -12.2504   19.3327 C   0  0  0  0  0  0  0  0  0  0  0  0
    7.9768  -12.7196   18.0854 C   0  0  0  0  0  0  0  0  0  0  0  0
    7.2988  -13.9065   17.9812 C   0  0  0  0  0  0  0  0  0  0  0  0
    6.9341  -14.6099   19.1228 C   0  0  0  0  0  0  0  0  0  0  0  0
    7.4947  -16.2150   23.5941 C   0  0  0  0  0  0  0  0  0  0  0  0
    6.6313  -15.6978   24.3581 O   0  0  0  0  0  0  0  0  0  0  0  0
    7.9980  -17.4902   24.0133 N   0  0  0  0  0  0  0  0  0  0  0  0
    7.5200  -18.1486   25.2191 C   0  0  1  0  0  0  0  0  0  0  0  0
    7.8492  -19.6367   25.0166 C   0  0  0  0  0  0  0  0  0  0  0  0
    7.2570  -20.3763   26.2085 C   0  0  0  0  0  0  0  0  0  0  0  0
    7.5796  -21.8492   26.1416 C   0  0  0  0  0  0  0  0  0  0  0  0
    6.9287  -22.4888   27.3719 C   0  0  0  0  0  0  0  0  0  0  0  0
    7.2160  -23.9230   27.2965 N   0  0  0  0  0  0  0  0  0  0  0  0
    8.0931  -17.6298   26.4520 C   0  0  0  0  0  0  0  0  0  0  0  0
    7.6726  -17.9719   27.5824 O   0  0  0  0  0  0  0  0  0  0  0  0
    9.1654  -16.7038   26.3987 N   0  0  0  0  0  0  0  0  0  0  0  0
    9.7246  -16.0779   27.5803 C   0  0  1  0  0  0  0  0  0  0  0  0
    8.7083  -15.1846   28.2663 C   0  0  0  0  0  0  0  0  0  0  0  0
    8.2257  -14.1317   27.3397 C   0  0  0  0  0  0  0  0  0  0  0  0
    9.0571  -13.0621   27.0493 C   0  0  0  0  0  0  0  0  0  0  0  0
    8.6193  -12.0677   26.1830 C   0  0  0  0  0  0  0  0  0  0  0  0
    7.3802  -12.1035   25.5961 C   0  0  0  0  0  0  0  0  0  0  0  0
    6.5460  -13.1629   25.8785 C   0  0  0  0  0  0  0  0  0  0  0  0
    6.9892  -14.1488   26.7419 C   0  0  0  0  0  0  0  0  0  0  0  0
   10.2148  -17.1323   28.4937 C   0  0  0  0  0  0  0  0  0  0  0  0
   10.7959  -16.8364   29.7197 O   0  0  0  0  0  0  0  0  0  0  0  0
   10.1149  -18.3428   28.1753 O   0  0  0  0  0  0  0  0  0  0  0  0
  2  1  1  6
  2 10  1  0
  2  3  1  0
  3  4  1  0
  4  9  1  0
  4  5  2  0
  5  6  1  0
  6  7  2  0
  8  7  1  0
  9  8  2  0
 10 12  1  0
 10 11  2  0
 12 13  1  0
 13 19  1  0
 13 14  1  6
 15 14  1  0
 16 15  1  0
 17 16  1  0
 18 17  1  0
 19 20  2  0
 19 21  1  0
 21 22  1  0
 22 30  1  0
 22 23  1  1
 23 24  1  0
 24 25  2  0
 24 29  1  0
 25 26  1  0
 26 27  2  0
 28 27  1  0
 29 28  2  0
 30 31  1  0
 32 30  2  0
M  END
$$$$
