FKF.pdb
     RDKit          3D

 32 33  0  0  1  0  0  0  0  0999 V2000
    6.2711  -18.8656   23.2479 N   0  0  0  0  0  0  0  0  0  0  0  0
    6.8296  -17.5312   23.2250 C   0  0  1  0  0  0  0  0  0  0  0  0
    6.0909  -16.5697   24.0961 C   0  0  0  0  0  0  0  0  0  0  0  0
    6.5961  -15.2068   24.1155 C   0  0  0  0  0  0  0  0  0  0  0  0
    6.7942  -14.4821   25.2721 C   0  0  0  0  0  0  0  0  0  0  0  0
    7.2784  -13.1788   25.2439 C   0  0  0  0  0  0  0  0  0  0  0  0
    7.5766  -12.5679   24.0577 C   0  0  0  0  0  0  0  0  0  0  0  0
    7.3874  -13.2695   22.8953 C   0  0  0  0  0  0  0  0  0  0  0  0
    6.9031  -14.5715   22.9314 C   0  0  0  0  0  0  0  0  0  0  0  0
    8.2759  -17.6404   23.5022 C   0  0  0  0  0  0  0  0  0  0  0  0
    8.7038  -18.3872   24.4273 O   0  0  0  0  0  0  0  0  0  0  0  0
    9.2853  -16.9334   22.7695 N   0  0  0  0  0  0  0  0  0  0  0  0
   10.6949  -17.0233   23.1171 C   0  0  1  0  0  0  0  0  0  0  0  0
   11.4124  -16.1140   22.1062 C   0  0  0  0  0  0  0  0  0  0  0  0
   12.9051  -16.2920   22.3484 C   0  0  0  0  0  0  0  0  0  0  0  0
   13.4116  -17.5487   21.6833 C   0  0  0  0  0  0  0  0  0  0  0  0
   14.9164  -17.6075   21.9633 C   0  0  0  0  0  0  0  0  0  0  0  0
   15.3948  -18.8735   21.4034 N   0  0  0  0  0  0  0  0  0  0  0  0
   10.9978  -16.6510   24.4910 C   0  0  0  0  0  0  0  0  0  0  0  0
   11.6229  -15.6031   24.7790 O   0  0  0  0  0  0  0  0  0  0  0  0
   10.5818  -17.4863   25.5583 N   0  0  0  0  0  0  0  0  0  0  0  0
   10.8910  -17.2037   26.9458 C   0  0  1  0  0  0  0  0  0  0  0  0
    9.6434  -16.8358   27.7266 C   0  0  0  0  0  0  0  0  0  0  0  0
    9.3374  -15.3922   27.5761 C   0  0  0  0  0  0  0  0  0  0  0  0
    8.2114  -15.0169   26.8613 C   0  0  0  0  0  0  0  0  0  0  0  0
    7.9113  -13.6684   26.7115 C   0  0  0  0  0  0  0  0  0  0  0  0
    8.6961  -12.6810   27.2504 C   0  0  0  0  0  0  0  0  0  0  0  0
    9.8179  -13.0440   27.9629 C   0  0  0  0  0  0  0  0  0  0  0  0
   10.1098  -14.3885   28.1075 C   0  0  0  0  0  0  0  0  0  0  0  0
   11.5648  -18.3806   27.5351 C   0  0  0  0  0  0  0  0  0  0  0  0
   11.8026  -19.5381   26.8058 O   0  0  0  0  0  0  0  0  0  0  0  0
   11.9448  -18.3596   28.7317 O   0  0  0  0  0  0  0  0  0  0  0  0
  2  1  1  1
  2 10  1  0
  2  3  1  0
  3  4  1  0
  4  9  1  0
  4  5  2  0
  5  6  1  0
  6  7  2  0
  8  7  1  0
  9  8  2  0
 10 12  1  0
 10 11  2  0
 12 13  1  0
 13 19  1  0
 13 14  1  6
 15 14  1  0
 16 15  1  0
 17 16  1  0
 18 17  1  0
 19 20  2  0
 19 21  1  0
 21 22  1  0
 22 30  1  0
 22 23  1  1
 23 24  1  0
 24 25  2  0
 24 29  1  0
 25 26  1  0
 26 27  2  0
 28 27  1  0
 29 28  2  0
 30 31  1  0
 32 30  2  0
M  END
$$$$
