FKF.pdb
     RDKit          3D

 32 33  0  0  1  0  0  0  0  0999 V2000
    6.5545  -17.3640   25.7288 N   0  0  0  0  0  0  0  0  0  0  0  0
    6.4278  -17.4563   24.2906 C   0  0  1  0  0  0  0  0  0  0  0  0
    5.4001  -16.5295   23.7303 C   0  0  0  0  0  0  0  0  0  0  0  0
    5.4207  -15.1685   24.2407 C   0  0  0  0  0  0  0  0  0  0  0  0
    4.6728  -14.7461   25.3197 C   0  0  0  0  0  0  0  0  0  0  0  0
    4.7222  -13.4325   25.7737 C   0  0  0  0  0  0  0  0  0  0  0  0
    5.5211  -12.5088   25.1593 C   0  0  0  0  0  0  0  0  0  0  0  0
    6.2734  -12.9065   24.0845 C   0  0  0  0  0  0  0  0  0  0  0  0
    6.2188  -14.2209   23.6367 C   0  0  0  0  0  0  0  0  0  0  0  0
    7.7772  -17.3184   23.7069 C   0  0  0  0  0  0  0  0  0  0  0  0
    8.3228  -18.2838   23.1010 O   0  0  0  0  0  0  0  0  0  0  0  0
    8.5576  -16.1177   23.7738 N   0  0  0  0  0  0  0  0  0  0  0  0
    9.8625  -16.0106   23.1399 C   0  0  1  0  0  0  0  0  0  0  0  0
    9.9009  -14.5929   22.5463 C   0  0  0  0  0  0  0  0  0  0  0  0
    8.9608  -14.6003   21.3485 C   0  0  0  0  0  0  0  0  0  0  0  0
    9.0119  -13.2813   20.6167 C   0  0  0  0  0  0  0  0  0  0  0  0
    7.9428  -13.3545   19.5222 C   0  0  0  0  0  0  0  0  0  0  0  0
    8.0269  -12.0984   18.7736 N   0  0  0  0  0  0  0  0  0  0  0  0
   10.9844  -16.2541   24.0343 C   0  0  0  0  0  0  0  0  0  0  0  0
   12.1753  -16.1119   23.6693 O   0  0  0  0  0  0  0  0  0  0  0  0
   10.7476  -16.6673   25.3696 N   0  0  0  0  0  0  0  0  0  0  0  0
   11.7963  -17.1658   26.2371 C   0  0  1  0  0  0  0  0  0  0  0  0
   11.5615  -16.7575   27.6793 C   0  0  0  0  0  0  0  0  0  0  0  0
   11.4519  -15.2828   27.7955 C   0  0  0  0  0  0  0  0  0  0  0  0
   12.5796  -14.5078   27.5776 C   0  0  0  0  0  0  0  0  0  0  0  0
   12.4929  -13.1249   27.6827 C   0  0  0  0  0  0  0  0  0  0  0  0
   11.3196  -12.4882   27.9979 C   0  0  0  0  0  0  0  0  0  0  0  0
   10.1928  -13.2501   28.2164 C   0  0  0  0  0  0  0  0  0  0  0  0
   10.2872  -14.6261   28.1098 C   0  0  0  0  0  0  0  0  0  0  0  0
   11.8708  -18.6362   26.1014 C   0  0  0  0  0  0  0  0  0  0  0  0
   10.9817  -19.3513   25.3100 O   0  0  0  0  0  0  0  0  0  0  0  0
   12.7571  -19.2844   26.7105 O   0  0  0  0  0  0  0  0  0  0  0  0
  2  1  1  1
  2 10  1  0
  2  3  1  0
  3  4  1  0
  4  9  1  0
  4  5  2  0
  5  6  1  0
  6  7  2  0
  8  7  1  0
  9  8  2  0
 10 12  1  0
 10 11  2  0
 12 13  1  0
 13 19  1  0
 13 14  1  1
 15 14  1  0
 16 15  1  0
 17 16  1  0
 18 17  1  0
 19 20  2  0
 19 21  1  0
 21 22  1  0
 22 30  1  0
 22 23  1  1
 23 24  1  0
 24 25  2  0
 24 29  1  0
 25 26  1  0
 26 27  2  0
 28 27  1  0
 29 28  2  0
 30 31  1  0
 32 30  2  0
M  END
$$$$
