FKF.pdb
     RDKit          3D

 32 33  0  0  1  0  0  0  0  0999 V2000
   10.6572  -18.2101   19.2854 N   0  0  0  0  0  0  0  0  0  0  0  0
   10.1339  -18.3254   20.6292 C   0  0  1  0  0  0  0  0  0  0  0  0
   11.1440  -18.8152   21.6134 C   0  0  0  0  0  0  0  0  0  0  0  0
   11.6996  -20.1337   21.3566 C   0  0  0  0  0  0  0  0  0  0  0  0
   10.9412  -21.2843   21.2996 C   0  0  0  0  0  0  0  0  0  0  0  0
   11.5154  -22.5265   21.0526 C   0  0  0  0  0  0  0  0  0  0  0  0
   12.8629  -22.6487   20.8563 C   0  0  0  0  0  0  0  0  0  0  0  0
   13.6364  -21.5181   20.9085 C   0  0  0  0  0  0  0  0  0  0  0  0
   13.0554  -20.2802   21.1560 C   0  0  0  0  0  0  0  0  0  0  0  0
    9.4939  -17.0412   20.9782 C   0  0  0  0  0  0  0  0  0  0  0  0
    9.4119  -16.1069   20.1314 O   0  0  0  0  0  0  0  0  0  0  0  0
    8.9282  -16.7540   22.2638 N   0  0  0  0  0  0  0  0  0  0  0  0
    8.1481  -15.5514   22.5110 C   0  0  1  0  0  0  0  0  0  0  0  0
    7.0172  -15.5902   21.4702 C   0  0  0  0  0  0  0  0  0  0  0  0
    6.1973  -16.8380   21.7694 C   0  0  0  0  0  0  0  0  0  0  0  0
    5.0927  -17.0113   20.7556 C   0  0  0  0  0  0  0  0  0  0  0  0
    4.3232  -18.2698   21.1682 C   0  0  0  0  0  0  0  0  0  0  0  0
    2.9055  -17.9028   21.1892 N   0  0  0  0  0  0  0  0  0  0  0  0
    7.6326  -15.4404   23.8674 C   0  0  0  0  0  0  0  0  0  0  0  0
    6.8619  -14.5157   24.2177 O   0  0  0  0  0  0  0  0  0  0  0  0
    8.0005  -16.3994   24.8445 N   0  0  0  0  0  0  0  0  0  0  0  0
    8.9190  -16.1079   25.9271 C   0  0  1  0  0  0  0  0  0  0  0  0
    8.1931  -15.5318   27.1282 C   0  0  0  0  0  0  0  0  0  0  0  0
    7.7133  -14.1578   26.8414 C   0  0  0  0  0  0  0  0  0  0  0  0
    8.6441  -13.1525   26.6348 C   0  0  0  0  0  0  0  0  0  0  0  0
    8.2103  -11.8602   26.3651 C   0  0  0  0  0  0  0  0  0  0  0  0
    6.8794  -11.5361   26.2944 C   0  0  0  0  0  0  0  0  0  0  0  0
    5.9462  -12.5287   26.4984 C   0  0  0  0  0  0  0  0  0  0  0  0
    6.3860  -13.8126   26.7664 C   0  0  0  0  0  0  0  0  0  0  0  0
    9.6471  -17.3446   26.2830 C   0  0  0  0  0  0  0  0  0  0  0  0
   10.5460  -17.3947   27.3402 O   0  0  0  0  0  0  0  0  0  0  0  0
    9.4656  -18.3982   25.6245 O   0  0  0  0  0  0  0  0  0  0  0  0
  2  1  1  6
  2 10  1  0
  2  3  1  0
  3  4  1  0
  4  9  1  0
  4  5  2  0
  5  6  1  0
  6  7  2  0
  8  7  1  0
  9  8  2  0
 10 12  1  0
 10 11  2  0
 12 13  1  0
 13 19  1  0
 13 14  1  6
 15 14  1  0
 16 15  1  0
 17 16  1  0
 18 17  1  0
 19 20  2  0
 19 21  1  0
 21 22  1  0
 22 30  1  0
 22 23  1  1
 23 24  1  0
 24 25  2  0
 24 29  1  0
 25 26  1  0
 26 27  2  0
 28 27  1  0
 29 28  2  0
 30 31  1  0
 32 30  2  0
M  END
$$$$
