FKF.pdb
     RDKit          3D

 32 33  0  0  1  0  0  0  0  0999 V2000
    5.6256  -19.3750   22.3089 N   0  0  0  0  0  0  0  0  0  0  0  0
    5.9500  -18.2906   23.2099 C   0  0  1  0  0  0  0  0  0  0  0  0
    6.0721  -18.7252   24.6330 C   0  0  0  0  0  0  0  0  0  0  0  0
    6.5741  -17.7288   25.5648 C   0  0  0  0  0  0  0  0  0  0  0  0
    7.7931  -17.8250   26.2026 C   0  0  0  0  0  0  0  0  0  0  0  0
    8.2335  -16.8478   27.0887 C   0  0  0  0  0  0  0  0  0  0  0  0
    7.4650  -15.7499   27.3589 C   0  0  0  0  0  0  0  0  0  0  0  0
    6.2493  -15.6334   26.7362 C   0  0  0  0  0  0  0  0  0  0  0  0
    5.8160  -16.6140   25.8520 C   0  0  0  0  0  0  0  0  0  0  0  0
    7.1310  -17.5889   22.6681 C   0  0  0  0  0  0  0  0  0  0  0  0
    8.1483  -18.2333   22.2852 O   0  0  0  0  0  0  0  0  0  0  0  0
    7.2216  -16.1646   22.5331 N   0  0  0  0  0  0  0  0  0  0  0  0
    8.4028  -15.5162   21.9849 C   0  0  1  0  0  0  0  0  0  0  0  0
    7.8922  -14.1899   21.3984 C   0  0  0  0  0  0  0  0  0  0  0  0
    7.9308  -14.3439   19.8840 C   0  0  0  0  0  0  0  0  0  0  0  0
    7.5012  -13.0674   19.2027 C   0  0  0  0  0  0  0  0  0  0  0  0
    7.5420  -13.3481   17.6974 C   0  0  0  0  0  0  0  0  0  0  0  0
    8.9508  -13.5447   17.3488 N   0  0  0  0  0  0  0  0  0  0  0  0
    9.4724  -15.3061   22.9491 C   0  0  0  0  0  0  0  0  0  0  0  0
   10.5951  -14.8577   22.6173 O   0  0  0  0  0  0  0  0  0  0  0  0
    9.2613  -15.6117   24.3173 N   0  0  0  0  0  0  0  0  0  0  0  0
   10.2619  -15.3783   25.3396 C   0  0  1  0  0  0  0  0  0  0  0  0
    9.6753  -14.6423   26.5296 C   0  0  0  0  0  0  0  0  0  0  0  0
    8.7973  -13.5345   26.0801 C   0  0  0  0  0  0  0  0  0  0  0  0
    7.6107  -13.3032   26.7569 C   0  0  0  0  0  0  0  0  0  0  0  0
    6.7774  -12.2691   26.3479 C   0  0  0  0  0  0  0  0  0  0  0  0
    7.0872  -11.4576   25.2864 C   0  0  0  0  0  0  0  0  0  0  0  0
    8.2648  -11.6796   24.6069 C   0  0  0  0  0  0  0  0  0  0  0  0
    9.0890  -12.7110   25.0202 C   0  0  0  0  0  0  0  0  0  0  0  0
   10.8434  -16.6758   25.7451 C   0  0  0  0  0  0  0  0  0  0  0  0
   11.9096  -16.7634   26.6305 O   0  0  0  0  0  0  0  0  0  0  0  0
   10.3774  -17.7489   25.2892 O   0  0  0  0  0  0  0  0  0  0  0  0
  2  1  1  6
  2 10  1  0
  2  3  1  0
  3  4  1  0
  4  9  1  0
  4  5  2  0
  5  6  1  0
  6  7  2  0
  8  7  1  0
  9  8  2  0
 10 12  1  0
 10 11  2  0
 12 13  1  0
 13 19  1  0
 13 14  1  1
 15 14  1  0
 16 15  1  0
 17 16  1  0
 18 17  1  0
 19 20  2  0
 19 21  1  0
 21 22  1  0
 22 30  1  0
 22 23  1  1
 23 24  1  0
 24 25  2  0
 24 29  1  0
 25 26  1  0
 26 27  2  0
 28 27  1  0
 29 28  2  0
 30 31  1  0
 32 30  2  0
M  END
$$$$
