FKF.pdb
     RDKit          3D

 32 33  0  0  1  0  0  0  0  0999 V2000
    5.9903  -18.0844   24.6856 N   0  0  0  0  0  0  0  0  0  0  0  0
    6.3119  -16.6747   24.6379 C   0  0  1  0  0  0  0  0  0  0  0  0
    6.2346  -16.0086   25.9718 C   0  0  0  0  0  0  0  0  0  0  0  0
    6.1724  -14.5563   25.9584 C   0  0  0  0  0  0  0  0  0  0  0  0
    5.0067  -13.8401   26.1327 C   0  0  0  0  0  0  0  0  0  0  0  0
    4.9931  -12.4497   26.1109 C   0  0  0  0  0  0  0  0  0  0  0  0
    6.1455  -11.7410   25.9141 C   0  0  0  0  0  0  0  0  0  0  0  0
    7.3163  -12.4323   25.7386 C   0  0  0  0  0  0  0  0  0  0  0  0
    7.3220  -13.8217   25.7616 C   0  0  0  0  0  0  0  0  0  0  0  0
    7.6055  -16.5282   23.9410 C   0  0  0  0  0  0  0  0  0  0  0  0
    8.4320  -17.4832   23.9015 O   0  0  0  0  0  0  0  0  0  0  0  0
    8.0208  -15.3308   23.2708 N   0  0  0  0  0  0  0  0  0  0  0  0
    9.1781  -15.3027   22.3901 C   0  0  1  0  0  0  0  0  0  0  0  0
    9.0864  -13.9549   21.6560 C   0  0  0  0  0  0  0  0  0  0  0  0
    8.2972  -14.2110   20.3793 C   0  0  0  0  0  0  0  0  0  0  0  0
    8.1908  -12.9534   19.5516 C   0  0  0  0  0  0  0  0  0  0  0  0
    7.4531  -13.3443   18.2673 C   0  0  0  0  0  0  0  0  0  0  0  0
    8.4147  -14.0790   17.4422 N   0  0  0  0  0  0  0  0  0  0  0  0
   10.4537  -15.4625   23.0721 C   0  0  0  0  0  0  0  0  0  0  0  0
   11.4342  -14.7155   22.8431 O   0  0  0  0  0  0  0  0  0  0  0  0
   10.6177  -16.4917   24.0333 N   0  0  0  0  0  0  0  0  0  0  0  0
   11.8925  -16.7941   24.6531 C   0  0  1  0  0  0  0  0  0  0  0  0
   12.5058  -15.5598   25.2870 C   0  0  0  0  0  0  0  0  0  0  0  0
   11.9738  -15.3543   26.6563 C   0  0  0  0  0  0  0  0  0  0  0  0
   11.3925  -16.4245   27.3170 C   0  0  0  0  0  0  0  0  0  0  0  0
   10.8895  -16.2478   28.6002 C   0  0  0  0  0  0  0  0  0  0  0  0
   10.9463  -15.0398   29.2474 C   0  0  0  0  0  0  0  0  0  0  0  0
   11.5223  -13.9696   28.5988 C   0  0  0  0  0  0  0  0  0  0  0  0
   12.0208  -14.1535   27.3215 C   0  0  0  0  0  0  0  0  0  0  0  0
   11.6968  -17.8682   25.6503 C   0  0  0  0  0  0  0  0  0  0  0  0
   12.7632  -18.4845   26.2916 O   0  0  0  0  0  0  0  0  0  0  0  0
   10.5393  -18.2549   25.9458 O   0  0  0  0  0  0  0  0  0  0  0  0
  2  1  1  1
  2 10  1  0
  2  3  1  0
  3  4  1  0
  4  9  1  0
  4  5  2  0
  5  6  1  0
  6  7  2  0
  8  7  1  0
  9  8  2  0
 10 12  1  0
 10 11  2  0
 12 13  1  0
 13 19  1  0
 13 14  1  1
 15 14  1  0
 16 15  1  0
 17 16  1  0
 18 17  1  0
 19 20  2  0
 19 21  1  0
 21 22  1  0
 22 30  1  0
 22 23  1  1
 23 24  1  0
 24 25  2  0
 24 29  1  0
 25 26  1  0
 26 27  2  0
 28 27  1  0
 29 28  2  0
 30 31  1  0
 32 30  2  0
M  END
$$$$
