FKF.pdb
     RDKit          3D

 32 33  0  0  1  0  0  0  0  0999 V2000
    5.7677  -19.9985   22.2409 N   0  0  0  0  0  0  0  0  0  0  0  0
    6.0211  -18.9299   23.1826 C   0  0  1  0  0  0  0  0  0  0  0  0
    6.4507  -19.4197   24.5260 C   0  0  0  0  0  0  0  0  0  0  0  0
    6.6943  -18.3980   25.5310 C   0  0  0  0  0  0  0  0  0  0  0  0
    5.7681  -17.4398   25.8862 C   0  0  0  0  0  0  0  0  0  0  0  0
    6.0445  -16.4791   26.8529 C   0  0  0  0  0  0  0  0  0  0  0  0
    7.2547  -16.4531   27.4885 C   0  0  0  0  0  0  0  0  0  0  0  0
    8.1907  -17.3962   27.1513 C   0  0  0  0  0  0  0  0  0  0  0  0
    7.9072  -18.3530   26.1842 C   0  0  0  0  0  0  0  0  0  0  0  0
    6.9446  -17.9715   22.5430 C   0  0  0  0  0  0  0  0  0  0  0  0
    8.0099  -18.3681   21.9911 O   0  0  0  0  0  0  0  0  0  0  0  0
    6.7193  -16.5566   22.4936 N   0  0  0  0  0  0  0  0  0  0  0  0
    7.5388  -15.6740   21.6778 C   0  0  1  0  0  0  0  0  0  0  0  0
    6.6861  -14.4100   21.4799 C   0  0  0  0  0  0  0  0  0  0  0  0
    7.4957  -13.4778   20.5888 C   0  0  0  0  0  0  0  0  0  0  0  0
    7.2179  -13.7521   19.1308 C   0  0  0  0  0  0  0  0  0  0  0  0
    8.0996  -12.7847   18.3352 C   0  0  0  0  0  0  0  0  0  0  0  0
    7.8779  -13.0879   16.9195 N   0  0  0  0  0  0  0  0  0  0  0  0
    8.8402  -15.3653   22.2512 C   0  0  0  0  0  0  0  0  0  0  0  0
    9.8347  -15.0823   21.5423 O   0  0  0  0  0  0  0  0  0  0  0  0
    9.0142  -15.3786   23.6582 N   0  0  0  0  0  0  0  0  0  0  0  0
   10.2757  -15.0631   24.2984 C   0  0  1  0  0  0  0  0  0  0  0  0
   10.1984  -13.7509   25.0559 C   0  0  0  0  0  0  0  0  0  0  0  0
    8.9003  -13.6296   25.7634 C   0  0  0  0  0  0  0  0  0  0  0  0
    7.7399  -13.5015   25.0173 C   0  0  0  0  0  0  0  0  0  0  0  0
    6.5161  -13.3869   25.6656 C   0  0  0  0  0  0  0  0  0  0  0  0
    6.4101  -13.3958   27.0331 C   0  0  0  0  0  0  0  0  0  0  0  0
    7.5582  -13.5227   27.7838 C   0  0  0  0  0  0  0  0  0  0  0  0
    8.7726  -13.6363   27.1310 C   0  0  0  0  0  0  0  0  0  0  0  0
   10.6496  -16.1783   25.1945 C   0  0  0  0  0  0  0  0  0  0  0  0
    9.8472  -17.3007   25.3517 O   0  0  0  0  0  0  0  0  0  0  0  0
   11.7219  -16.1349   25.8462 O   0  0  0  0  0  0  0  0  0  0  0  0
  2  1  1  6
  2 10  1  0
  2  3  1  0
  3  4  1  0
  4  9  1  0
  4  5  2  0
  5  6  1  0
  6  7  2  0
  8  7  1  0
  9  8  2  0
 10 12  1  0
 10 11  2  0
 12 13  1  0
 13 19  1  0
 13 14  1  1
 15 14  1  0
 16 15  1  0
 17 16  1  0
 18 17  1  0
 19 20  2  0
 19 21  1  0
 21 22  1  0
 22 30  1  0
 22 23  1  1
 23 24  1  0
 24 25  2  0
 24 29  1  0
 25 26  1  0
 26 27  2  0
 28 27  1  0
 29 28  2  0
 30 31  1  0
 32 30  2  0
M  END
$$$$
