FKF.pdb
     RDKit          3D

 32 33  0  0  1  0  0  0  0  0999 V2000
    7.4015  -16.9218   21.8896 N   0  0  0  0  0  0  0  0  0  0  0  0
    8.5835  -16.1635   22.2375 C   0  0  1  0  0  0  0  0  0  0  0  0
    8.2758  -14.7862   22.7249 C   0  0  0  0  0  0  0  0  0  0  0  0
    7.6708  -13.8860   21.7569 C   0  0  0  0  0  0  0  0  0  0  0  0
    6.3113  -13.7979   21.5416 C   0  0  0  0  0  0  0  0  0  0  0  0
    5.7754  -12.9228   20.6031 C   0  0  0  0  0  0  0  0  0  0  0  0
    6.5862  -12.1139   19.8565 C   0  0  0  0  0  0  0  0  0  0  0  0
    7.9409  -12.1847   20.0537 C   0  0  0  0  0  0  0  0  0  0  0  0
    8.4692  -13.0617   20.9934 C   0  0  0  0  0  0  0  0  0  0  0  0
    9.3942  -16.9849   23.1587 C   0  0  0  0  0  0  0  0  0  0  0  0
    8.8441  -17.7761   23.9761 O   0  0  0  0  0  0  0  0  0  0  0  0
   10.8269  -16.9576   23.2026 N   0  0  0  0  0  0  0  0  0  0  0  0
   11.5752  -17.5413   24.3050 C   0  0  1  0  0  0  0  0  0  0  0  0
   12.9929  -17.7598   23.7516 C   0  0  0  0  0  0  0  0  0  0  0  0
   12.8338  -18.5308   22.4482 C   0  0  0  0  0  0  0  0  0  0  0  0
   14.1802  -18.8724   21.8578 C   0  0  0  0  0  0  0  0  0  0  0  0
   13.9005  -19.6764   20.5844 C   0  0  0  0  0  0  0  0  0  0  0  0
   15.2023  -19.9551   19.9738 N   0  0  0  0  0  0  0  0  0  0  0  0
   11.5848  -16.7342   25.5159 C   0  0  0  0  0  0  0  0  0  0  0  0
   12.6097  -16.1288   25.9096 O   0  0  0  0  0  0  0  0  0  0  0  0
   10.4062  -16.6129   26.2944 N   0  0  0  0  0  0  0  0  0  0  0  0
   10.4264  -16.3085   27.7114 C   0  0  1  0  0  0  0  0  0  0  0  0
    9.0965  -15.7443   28.1747 C   0  0  0  0  0  0  0  0  0  0  0  0
    8.7670  -14.5026   27.4333 C   0  0  0  0  0  0  0  0  0  0  0  0
    7.6499  -14.4880   26.6137 C   0  0  0  0  0  0  0  0  0  0  0  0
    7.3280  -13.3323   25.9125 C   0  0  0  0  0  0  0  0  0  0  0  0
    8.0823  -12.1901   26.0008 C   0  0  0  0  0  0  0  0  0  0  0  0
    9.1950  -12.1946   26.8131 C   0  0  0  0  0  0  0  0  0  0  0  0
    9.5088  -13.3490   27.5078 C   0  0  0  0  0  0  0  0  0  0  0  0
   10.7785  -17.5345   28.4591 C   0  0  0  0  0  0  0  0  0  0  0  0
   10.6686  -18.7998   27.8976 O   0  0  0  0  0  0  0  0  0  0  0  0
   11.1931  -17.4580   29.6419 O   0  0  0  0  0  0  0  0  0  0  0  0
  2  1  1  1
  2 10  1  0
  2  3  1  0
  3  4  1  0
  4  9  1  0
  4  5  2  0
  5  6  1  0
  6  7  2  0
  8  7  1  0
  9  8  2  0
 10 12  1  0
 10 11  2  0
 12 13  1  0
 13 19  1  0
 13 14  1  6
 15 14  1  0
 16 15  1  0
 17 16  1  0
 18 17  1  0
 19 20  2  0
 19 21  1  0
 21 22  1  0
 22 30  1  0
 22 23  1  1
 23 24  1  0
 24 25  2  0
 24 29  1  0
 25 26  1  0
 26 27  2  0
 28 27  1  0
 29 28  2  0
 30 31  1  0
 32 30  2  0
M  END
$$$$
