FKF.pdb
     RDKit          3D

 32 33  0  0  1  0  0  0  0  0999 V2000
    6.7577  -17.7232   19.9312 N   0  0  0  0  0  0  0  0  0  0  0  0
    7.2992  -16.7539   20.8588 C   0  0  1  0  0  0  0  0  0  0  0  0
    6.3864  -15.5972   21.0996 C   0  0  0  0  0  0  0  0  0  0  0  0
    6.9175  -14.2846   20.7704 C   0  0  0  0  0  0  0  0  0  0  0  0
    7.2706  -13.3444   21.7156 C   0  0  0  0  0  0  0  0  0  0  0  0
    7.7738  -12.0992   21.3552 C   0  0  0  0  0  0  0  0  0  0  0  0
    7.9364  -11.7634   20.0399 C   0  0  0  0  0  0  0  0  0  0  0  0
    7.5919  -12.6826   19.0831 C   0  0  0  0  0  0  0  0  0  0  0  0
    7.0897  -13.9250   19.4509 C   0  0  0  0  0  0  0  0  0  0  0  0
    7.7239  -17.4775   22.0740 C   0  0  0  0  0  0  0  0  0  0  0  0
    7.2148  -18.5942   22.3744 O   0  0  0  0  0  0  0  0  0  0  0  0
    8.7179  -16.9923   22.9861 N   0  0  0  0  0  0  0  0  0  0  0  0
    9.1969  -17.7939   24.1014 C   0  0  1  0  0  0  0  0  0  0  0  0
   10.0916  -18.8689   23.4629 C   0  0  0  0  0  0  0  0  0  0  0  0
    9.1925  -20.0630   23.1728 C   0  0  0  0  0  0  0  0  0  0  0  0
    9.9997  -21.2331   22.6654 C   0  0  0  0  0  0  0  0  0  0  0  0
    8.9954  -22.3486   22.3597 C   0  0  0  0  0  0  0  0  0  0  0  0
    9.7727  -23.4795   21.8479 N   0  0  0  0  0  0  0  0  0  0  0  0
    9.9047  -17.0365   25.1228 C   0  0  0  0  0  0  0  0  0  0  0  0
   10.9704  -16.4213   24.8827 O   0  0  0  0  0  0  0  0  0  0  0  0
    9.3909  -16.9775   26.4428 N   0  0  0  0  0  0  0  0  0  0  0  0
   10.0593  -16.2702   27.5169 C   0  0  1  0  0  0  0  0  0  0  0  0
    9.0838  -15.4232   28.3123 C   0  0  0  0  0  0  0  0  0  0  0  0
    8.5097  -14.3496   27.4650 C   0  0  0  0  0  0  0  0  0  0  0  0
    7.3102  -14.5811   26.8113 C   0  0  0  0  0  0  0  0  0  0  0  0
    6.7596  -13.5851   26.0138 C   0  0  0  0  0  0  0  0  0  0  0  0
    7.3647  -12.3657   25.8460 C   0  0  0  0  0  0  0  0  0  0  0  0
    8.5577  -12.1258   26.4918 C   0  0  0  0  0  0  0  0  0  0  0  0
    9.0993  -13.1224   27.2838 C   0  0  0  0  0  0  0  0  0  0  0  0
   10.7458  -17.2529   28.3825 C   0  0  0  0  0  0  0  0  0  0  0  0
   11.6599  -16.8696   29.3550 O   0  0  0  0  0  0  0  0  0  0  0  0
   10.5134  -18.4803   28.2554 O   0  0  0  0  0  0  0  0  0  0  0  0
  2  1  1  6
  2 10  1  0
  2  3  1  0
  3  4  1  0
  4  9  1  0
  4  5  2  0
  5  6  1  0
  6  7  2  0
  8  7  1  0
  9  8  2  0
 10 12  1  0
 10 11  2  0
 12 13  1  0
 13 19  1  0
 13 14  1  6
 15 14  1  0
 16 15  1  0
 17 16  1  0
 18 17  1  0
 19 20  2  0
 19 21  1  0
 21 22  1  0
 22 30  1  0
 22 23  1  1
 23 24  1  0
 24 25  2  0
 24 29  1  0
 25 26  1  0
 26 27  2  0
 28 27  1  0
 29 28  2  0
 30 31  1  0
 32 30  2  0
M  END
$$$$
