FKF.pdb
     RDKit          3D

 32 33  0  0  1  0  0  0  0  0999 V2000
    5.5785  -17.5380   21.6528 N   0  0  0  0  0  0  0  0  0  0  0  0
    6.6497  -16.5826   21.4718 C   0  0  1  0  0  0  0  0  0  0  0  0
    6.1860  -15.1641   21.5157 C   0  0  0  0  0  0  0  0  0  0  0  0
    7.1461  -14.1639   21.0785 C   0  0  0  0  0  0  0  0  0  0  0  0
    7.8025  -13.3082   21.9381 C   0  0  0  0  0  0  0  0  0  0  0  0
    8.7130  -12.3643   21.4755 C   0  0  0  0  0  0  0  0  0  0  0  0
    8.9896  -12.2531   20.1413 C   0  0  0  0  0  0  0  0  0  0  0  0
    8.3487  -13.0936   19.2684 C   0  0  0  0  0  0  0  0  0  0  0  0
    7.4400  -14.0343   19.7381 C   0  0  0  0  0  0  0  0  0  0  0  0
    7.7230  -16.9183   22.4288 C   0  0  0  0  0  0  0  0  0  0  0  0
    7.4554  -17.1896   23.6335 O   0  0  0  0  0  0  0  0  0  0  0  0
    9.1140  -16.9651   22.0849 N   0  0  0  0  0  0  0  0  0  0  0  0
   10.1274  -17.4038   23.0317 C   0  0  1  0  0  0  0  0  0  0  0  0
   11.4358  -17.4406   22.2251 C   0  0  0  0  0  0  0  0  0  0  0  0
   12.4610  -18.1527   23.0970 C   0  0  0  0  0  0  0  0  0  0  0  0
   13.7891  -18.2587   22.3878 C   0  0  0  0  0  0  0  0  0  0  0  0
   14.6949  -19.0989   23.2932 C   0  0  0  0  0  0  0  0  0  0  0  0
   16.0067  -19.1436   22.6435 N   0  0  0  0  0  0  0  0  0  0  0  0
   10.2441  -16.5651   24.2154 C   0  0  0  0  0  0  0  0  0  0  0  0
   10.5135  -15.3426   24.1465 O   0  0  0  0  0  0  0  0  0  0  0  0
   10.0507  -17.1274   25.5024 N   0  0  0  0  0  0  0  0  0  0  0  0
   10.0318  -16.3323   26.7141 C   0  0  1  0  0  0  0  0  0  0  0  0
    8.6543  -16.3261   27.3498 C   0  0  0  0  0  0  0  0  0  0  0  0
    7.9423  -15.0608   27.0458 C   0  0  0  0  0  0  0  0  0  0  0  0
    6.6918  -15.1216   26.4523 C   0  0  0  0  0  0  0  0  0  0  0  0
    6.0122  -13.9450   26.1612 C   0  0  0  0  0  0  0  0  0  0  0  0
    6.5373  -12.7094   26.4419 C   0  0  0  0  0  0  0  0  0  0  0  0
    7.7801  -12.6384   27.0320 C   0  0  0  0  0  0  0  0  0  0  0  0
    8.4503  -13.8142   27.3186 C   0  0  0  0  0  0  0  0  0  0  0  0
   11.0508  -16.8584   27.6475 C   0  0  0  0  0  0  0  0  0  0  0  0
   11.8388  -17.9589   27.3375 O   0  0  0  0  0  0  0  0  0  0  0  0
   11.2303  -16.3112   28.7633 O   0  0  0  0  0  0  0  0  0  0  0  0
  2  1  1  1
  2 10  1  0
  2  3  1  0
  3  4  1  0
  4  9  1  0
  4  5  2  0
  5  6  1  0
  6  7  2  0
  8  7  1  0
  9  8  2  0
 10 12  1  0
 10 11  2  0
 12 13  1  0
 13 19  1  0
 13 14  1  6
 15 14  1  0
 16 15  1  0
 17 16  1  0
 18 17  1  0
 19 20  2  0
 19 21  1  0
 21 22  1  0
 22 30  1  0
 22 23  1  1
 23 24  1  0
 24 25  2  0
 24 29  1  0
 25 26  1  0
 26 27  2  0
 28 27  1  0
 29 28  2  0
 30 31  1  0
 32 30  2  0
M  END
$$$$
