FKF.pdb
     RDKit          3D

 32 33  0  0  1  0  0  0  0  0999 V2000
    6.5778  -20.1283   25.5583 N   0  0  0  0  0  0  0  0  0  0  0  0
    6.6720  -18.7365   25.1746 C   0  0  1  0  0  0  0  0  0  0  0  0
    7.1992  -17.8610   26.2631 C   0  0  0  0  0  0  0  0  0  0  0  0
    7.0651  -16.4289   26.0527 C   0  0  0  0  0  0  0  0  0  0  0  0
    5.8522  -15.7880   25.9106 C   0  0  0  0  0  0  0  0  0  0  0  0
    5.7706  -14.4145   25.7092 C   0  0  0  0  0  0  0  0  0  0  0  0
    6.9007  -13.6477   25.6450 C   0  0  0  0  0  0  0  0  0  0  0  0
    8.1175  -14.2636   25.7837 C   0  0  0  0  0  0  0  0  0  0  0  0
    8.1910  -15.6367   25.9847 C   0  0  0  0  0  0  0  0  0  0  0  0
    7.4168  -18.6667   23.9015 C   0  0  0  0  0  0  0  0  0  0  0  0
    8.4749  -19.3363   23.7323 O   0  0  0  0  0  0  0  0  0  0  0  0
    7.0166  -17.8614   22.7850 N   0  0  0  0  0  0  0  0  0  0  0  0
    7.6858  -17.9442   21.4961 C   0  0  1  0  0  0  0  0  0  0  0  0
    6.7113  -17.2950   20.4997 C   0  0  0  0  0  0  0  0  0  0  0  0
    7.2690  -17.5681   19.1095 C   0  0  0  0  0  0  0  0  0  0  0  0
    7.1013  -16.3629   18.2165 C   0  0  0  0  0  0  0  0  0  0  0  0
    7.6817  -16.7527   16.8536 C   0  0  0  0  0  0  0  0  0  0  0  0
    7.2667  -15.7112   15.9112 N   0  0  0  0  0  0  0  0  0  0  0  0
    8.9969  -17.3137   21.4605 C   0  0  0  0  0  0  0  0  0  0  0  0
    9.8149  -17.5205   20.5332 O   0  0  0  0  0  0  0  0  0  0  0  0
    9.3856  -16.4310   22.4996 N   0  0  0  0  0  0  0  0  0  0  0  0
   10.6363  -15.6987   22.4838 C   0  0  1  0  0  0  0  0  0  0  0  0
   10.4012  -14.2014   22.5508 C   0  0  0  0  0  0  0  0  0  0  0  0
    9.5269  -13.7577   21.4377 C   0  0  0  0  0  0  0  0  0  0  0  0
    8.2085  -13.4306   21.7108 C   0  0  0  0  0  0  0  0  0  0  0  0
    7.3769  -13.0131   20.6787 C   0  0  0  0  0  0  0  0  0  0  0  0
    7.8154  -12.9108   19.3831 C   0  0  0  0  0  0  0  0  0  0  0  0
    9.1247  -13.2338   19.1014 C   0  0  0  0  0  0  0  0  0  0  0  0
    9.9462  -13.6485   20.1343 C   0  0  0  0  0  0  0  0  0  0  0  0
   11.4755  -16.1607   23.6101 C   0  0  0  0  0  0  0  0  0  0  0  0
   11.0026  -17.0465   24.5692 O   0  0  0  0  0  0  0  0  0  0  0  0
   12.6579  -15.7547   23.7271 O   0  0  0  0  0  0  0  0  0  0  0  0
  2  1  1  1
  2 10  1  0
  2  3  1  0
  3  4  1  0
  4  9  1  0
  4  5  2  0
  5  6  1  0
  6  7  2  0
  8  7  1  0
  9  8  2  0
 10 12  1  0
 10 11  2  0
 12 13  1  0
 13 19  1  0
 13 14  1  6
 15 14  1  0
 16 15  1  0
 17 16  1  0
 18 17  1  0
 19 20  2  0
 19 21  1  0
 21 22  1  0
 22 30  1  0
 22 23  1  1
 23 24  1  0
 24 25  2  0
 24 29  1  0
 25 26  1  0
 26 27  2  0
 28 27  1  0
 29 28  2  0
 30 31  1  0
 32 30  2  0
M  END
$$$$
