FKF.pdb
     RDKit          3D

 32 33  0  0  1  0  0  0  0  0999 V2000
    5.8957  -16.6875   25.1581 N   0  0  0  0  0  0  0  0  0  0  0  0
    6.9216  -15.7479   24.7610 C   0  0  1  0  0  0  0  0  0  0  0  0
    7.3423  -14.8355   25.8653 C   0  0  0  0  0  0  0  0  0  0  0  0
    6.8670  -13.4644   25.7777 C   0  0  0  0  0  0  0  0  0  0  0  0
    7.4372  -12.5090   24.9628 C   0  0  0  0  0  0  0  0  0  0  0  0
    6.9504  -11.2073   24.9116 C   0  0  0  0  0  0  0  0  0  0  0  0
    5.8807  -10.8291   25.6744 C   0  0  0  0  0  0  0  0  0  0  0  0
    5.2981  -11.7625   26.4920 C   0  0  0  0  0  0  0  0  0  0  0  0
    5.7902  -13.0613   26.5379 C   0  0  0  0  0  0  0  0  0  0  0  0
    8.0171  -16.5121   24.1313 C   0  0  0  0  0  0  0  0  0  0  0  0
    8.3328  -17.6602   24.5544 O   0  0  0  0  0  0  0  0  0  0  0  0
    8.7897  -16.0343   23.0223 N   0  0  0  0  0  0  0  0  0  0  0  0
   10.0751  -16.6175   22.6706 C   0  0  1  0  0  0  0  0  0  0  0  0
   10.4853  -15.9175   21.3646 C   0  0  0  0  0  0  0  0  0  0  0  0
    9.3643  -16.1738   20.3665 C   0  0  0  0  0  0  0  0  0  0  0  0
    9.7119  -15.6088   19.0108 C   0  0  0  0  0  0  0  0  0  0  0  0
    8.4520  -15.7471   18.1507 C   0  0  0  0  0  0  0  0  0  0  0  0
    8.3616  -17.1582   17.7688 N   0  0  0  0  0  0  0  0  0  0  0  0
   11.0949  -16.4841   23.7001 C   0  0  0  0  0  0  0  0  0  0  0  0
   11.8200  -15.4660   23.7973 O   0  0  0  0  0  0  0  0  0  0  0  0
   11.2944  -17.5288   24.6376 N   0  0  0  0  0  0  0  0  0  0  0  0
   12.3082  -17.4755   25.6720 C   0  0  1  0  0  0  0  0  0  0  0  0
   11.6956  -17.6047   27.0539 C   0  0  0  0  0  0  0  0  0  0  0  0
   10.7506  -16.4915   27.3145 C   0  0  0  0  0  0  0  0  0  0  0  0
    9.5062  -16.5124   26.7055 C   0  0  0  0  0  0  0  0  0  0  0  0
    8.6098  -15.4768   26.9397 C   0  0  0  0  0  0  0  0  0  0  0  0
    8.9121  -14.4206   27.7610 C   0  0  0  0  0  0  0  0  0  0  0  0
   10.1468  -14.3907   28.3712 C   0  0  0  0  0  0  0  0  0  0  0  0
   11.0336  -15.4253   28.1329 C   0  0  0  0  0  0  0  0  0  0  0  0
   13.3015  -18.5423   25.4239 C   0  0  0  0  0  0  0  0  0  0  0  0
   13.1167  -19.5112   24.4464 O   0  0  0  0  0  0  0  0  0  0  0  0
   14.3551  -18.5976   26.1046 O   0  0  0  0  0  0  0  0  0  0  0  0
  2  1  1  1
  2 10  1  0
  2  3  1  0
  3  4  1  0
  4  9  1  0
  4  5  2  0
  5  6  1  0
  6  7  2  0
  8  7  1  0
  9  8  2  0
 10 12  1  0
 10 11  2  0
 12 13  1  0
 13 19  1  0
 13 14  1  6
 15 14  1  0
 16 15  1  0
 17 16  1  0
 18 17  1  0
 19 20  2  0
 19 21  1  0
 21 22  1  0
 22 30  1  0
 22 23  1  1
 23 24  1  0
 24 25  2  0
 24 29  1  0
 25 26  1  0
 26 27  2  0
 28 27  1  0
 29 28  2  0
 30 31  1  0
 32 30  2  0
M  END
$$$$
