FKF.pdb
     RDKit          3D

 32 33  0  0  1  0  0  0  0  0999 V2000
    7.0706  -17.8767   19.0059 N   0  0  0  0  0  0  0  0  0  0  0  0
    7.4893  -16.7456   19.8048 C   0  0  1  0  0  0  0  0  0  0  0  0
    6.5105  -15.6184   19.7866 C   0  0  0  0  0  0  0  0  0  0  0  0
    6.7557  -14.5436   20.7342 C   0  0  0  0  0  0  0  0  0  0  0  0
    7.4187  -13.3779   20.4120 C   0  0  0  0  0  0  0  0  0  0  0  0
    7.6328  -12.3754   21.3518 C   0  0  0  0  0  0  0  0  0  0  0  0
    7.1889  -12.5142   22.6374 C   0  0  0  0  0  0  0  0  0  0  0  0
    6.5272  -13.6649   22.9800 C   0  0  0  0  0  0  0  0  0  0  0  0
    6.3170  -14.6622   22.0354 C   0  0  0  0  0  0  0  0  0  0  0  0
    7.8407  -17.2455   21.1491 C   0  0  0  0  0  0  0  0  0  0  0  0
    7.3842  -18.3455   21.5712 O   0  0  0  0  0  0  0  0  0  0  0  0
    8.7021  -16.5500   22.0600 N   0  0  0  0  0  0  0  0  0  0  0  0
    9.5753  -17.2553   22.9853 C   0  0  1  0  0  0  0  0  0  0  0  0
   10.3886  -18.2203   22.1073 C   0  0  0  0  0  0  0  0  0  0  0  0
   11.3068  -18.9899   23.0470 C   0  0  0  0  0  0  0  0  0  0  0  0
   12.1116  -20.0180   22.2899 C   0  0  0  0  0  0  0  0  0  0  0  0
   12.9820  -20.7331   23.3278 C   0  0  0  0  0  0  0  0  0  0  0  0
   13.7542  -21.7422   22.5993 N   0  0  0  0  0  0  0  0  0  0  0  0
   10.4349  -16.3877   23.7767 C   0  0  0  0  0  0  0  0  0  0  0  0
   11.6809  -16.5232   23.8041 O   0  0  0  0  0  0  0  0  0  0  0  0
    9.8666  -15.3456   24.5521 N   0  0  0  0  0  0  0  0  0  0  0  0
    9.7750  -15.4001   25.9976 C   0  0  1  0  0  0  0  0  0  0  0  0
    8.3730  -15.0719   26.4755 C   0  0  0  0  0  0  0  0  0  0  0  0
    8.0033  -13.6846   26.1026 C   0  0  0  0  0  0  0  0  0  0  0  0
    6.6836  -13.4046   25.7872 C   0  0  0  0  0  0  0  0  0  0  0  0
    6.3216  -12.1098   25.4359 C   0  0  0  0  0  0  0  0  0  0  0  0
    7.2312  -11.0843   25.3884 C   0  0  0  0  0  0  0  0  0  0  0  0
    8.5459  -11.3526   25.7002 C   0  0  0  0  0  0  0  0  0  0  0  0
    8.8983  -12.6441   26.0489 C   0  0  0  0  0  0  0  0  0  0  0  0
   10.1965  -16.7420   26.4535 C   0  0  0  0  0  0  0  0  0  0  0  0
    9.5217  -17.8960   26.0777 O   0  0  0  0  0  0  0  0  0  0  0  0
   11.1937  -16.8712   27.2055 O   0  0  0  0  0  0  0  0  0  0  0  0
  2  1  1  6
  2 10  1  0
  2  3  1  0
  3  4  1  0
  4  9  1  0
  4  5  2  0
  5  6  1  0
  6  7  2  0
  8  7  1  0
  9  8  2  0
 10 12  1  0
 10 11  2  0
 12 13  1  0
 13 19  1  0
 13 14  1  6
 15 14  1  0
 16 15  1  0
 17 16  1  0
 18 17  1  0
 19 20  2  0
 19 21  1  0
 21 22  1  0
 22 30  1  0
 22 23  1  6
 23 24  1  0
 24 25  2  0
 24 29  1  0
 25 26  1  0
 26 27  2  0
 28 27  1  0
 29 28  2  0
 30 31  1  0
 32 30  2  0
M  END
$$$$
