FRW.pdb
     RDKit          3D

 37 39  0  0  1  0  0  0  0  0999 V2000
   30.3869  -22.2597  -14.5500 N   0  0  0  0  0  0  0  0  0  0  0  0
   29.3152  -21.7362  -13.7277 C   0  0  1  0  0  0  0  0  0  0  0  0
   29.8537  -20.7353  -12.7643 C   0  0  0  0  0  0  0  0  0  0  0  0
   30.6940  -21.4734  -11.7821 C   0  0  0  0  0  0  0  0  0  0  0  0
   30.1864  -22.0259  -10.6242 C   0  0  0  0  0  0  0  0  0  0  0  0
   30.9648  -22.7099   -9.7219 C   0  0  0  0  0  0  0  0  0  0  0  0
   32.3007  -22.8678   -9.9493 C   0  0  0  0  0  0  0  0  0  0  0  0
   32.8414  -22.3221  -11.1082 C   0  0  0  0  0  0  0  0  0  0  0  0
   32.0505  -21.6426  -11.9988 C   0  0  0  0  0  0  0  0  0  0  0  0
   28.2738  -21.1955  -14.6393 C   0  0  0  0  0  0  0  0  0  0  0  0
   28.5077  -20.3651  -15.5525 O   0  0  0  0  0  0  0  0  0  0  0  0
   26.1570  -25.5776  -15.4905 N   0  0  0  0  0  0  0  0  0  0  0  0
   26.5007  -25.9756  -16.8175 C   0  0  0  0  0  0  0  0  0  0  0  0
   27.0599  -27.0951  -17.0418 N   0  0  0  0  0  0  0  0  0  0  0  0
   26.2046  -25.0964  -17.9134 N   0  0  0  0  0  0  0  0  0  0  0  0
   25.5815  -23.8097  -17.7039 C   0  0  0  0  0  0  0  0  0  0  0  0
   26.5270  -22.9078  -16.9926 C   0  0  0  0  0  0  0  0  0  0  0  0
   25.9401  -21.5215  -16.8584 C   0  0  0  0  0  0  0  0  0  0  0  0
   25.8580  -21.1600  -15.4249 C   0  0  2  0  0  0  0  0  0  0  0  0
   26.8935  -21.5762  -14.5584 N   0  0  0  0  0  0  0  0  0  0  0  0
   24.5552  -21.3938  -14.7684 C   0  0  0  0  0  0  0  0  0  0  0  0
   24.2432  -22.5668  -14.4466 O   0  0  0  0  0  0  0  0  0  0  0  0
   27.3214  -27.3933  -17.9962 N   0  0  0  0  0  0  0  0  0  0  0  0
   23.6190  -20.3865  -14.4685 C   0  0  1  0  0  0  0  0  0  0  0  0
   22.4611  -20.5799  -13.5869 C   0  0  0  0  0  0  0  0  0  0  0  0
   22.9009  -21.0161  -12.2259 C   0  0  0  0  0  0  0  0  0  0  0  0
   23.9611  -20.1538  -11.6784 C   0  0  0  0  0  0  0  0  0  0  0  0
   24.5303  -19.1017  -12.4041 N   0  0  0  0  0  0  0  0  0  0  0  0
   25.4234  -18.4819  -11.6085 C   0  0  0  0  0  0  0  0  0  0  0  0
   25.4817  -19.0659  -10.3895 C   0  0  0  0  0  0  0  0  0  0  0  0
   26.2303  -18.8010   -9.2609 C   0  0  0  0  0  0  0  0  0  0  0  0
   26.0731  -19.5891   -8.1513 C   0  0  0  0  0  0  0  0  0  0  0  0
   25.1717  -20.6173   -8.2066 C   0  0  0  0  0  0  0  0  0  0  0  0
   24.4033  -20.9073   -9.3312 C   0  0  0  0  0  0  0  0  0  0  0  0
   24.5622  -20.1114  -10.4481 C   0  0  0  0  0  0  0  0  0  0  0  0
   21.5194  -19.4771  -13.6588 O   0  0  0  0  0  0  0  0  0  0  0  0
   21.6161  -18.3194  -14.3943 O   0  0  0  0  0  0  0  0  0  0  0  0
  2  1  1  6
  2  3  1  0
  3  4  1  0
  4  9  2  0
  5  6  2  0
  5  4  1  0
  6  7  1  0
  7  8  2  0
  9  8  1  0
 10 11  2  0
 10  2  1  0
 12 13  1  0
 13 14  2  0
 13 15  1  0
 15 16  1  0
 16 17  1  0
 17 18  1  0
 19 18  1  6
 19 20  1  0
 20 10  1  0
 21 19  1  0
 21 23  1  0
 22 21  2  0
 24 23  1  0
 24 35  1  0
 24 25  1  1
 26 25  1  0
 27 26  2  0
 28 29  1  0
 28 27  1  0
 29 34  2  0
 30 29  1  0
 30 31  2  0
 31 32  1  0
 32 33  2  0
 34 26  1  0
 34 33  1  0
 35 36  1  0
 37 35  2  0
M  END
$$$$
