FRW.pdb
     RDKit          3D

 37 39  0  0  1  0  0  0  0  0999 V2000
   22.9746  -17.8308  -17.1853 N   0  0  0  0  0  0  0  0  0  0  0  0
   24.0550  -18.0153  -16.2380 C   0  0  1  0  0  0  0  0  0  0  0  0
   23.6809  -17.4341  -14.9180 C   0  0  0  0  0  0  0  0  0  0  0  0
   23.5293  -15.9655  -15.1076 C   0  0  0  0  0  0  0  0  0  0  0  0
   22.3018  -15.3392  -15.1754 C   0  0  0  0  0  0  0  0  0  0  0  0
   22.1663  -13.9827  -15.3466 C   0  0  0  0  0  0  0  0  0  0  0  0
   23.2720  -13.1914  -15.4584 C   0  0  0  0  0  0  0  0  0  0  0  0
   24.5234  -13.7939  -15.3937 C   0  0  0  0  0  0  0  0  0  0  0  0
   24.6413  -15.1492  -15.2220 C   0  0  0  0  0  0  0  0  0  0  0  0
   24.3666  -19.4673  -16.1904 C   0  0  0  0  0  0  0  0  0  0  0  0
   23.5054  -20.3715  -16.3287 O   0  0  0  0  0  0  0  0  0  0  0  0
   30.8878  -22.7885  -14.1714 N   0  0  0  0  0  0  0  0  0  0  0  0
   30.8304  -23.6463  -15.3108 C   0  0  0  0  0  0  0  0  0  0  0  0
   31.2711  -24.8376  -15.2571 N   0  0  0  0  0  0  0  0  0  0  0  0
   30.2613  -23.1531  -16.5334 N   0  0  0  0  0  0  0  0  0  0  0  0
   29.7364  -21.8109  -16.6359 C   0  0  0  0  0  0  0  0  0  0  0  0
   28.4866  -21.7018  -15.8363 C   0  0  0  0  0  0  0  0  0  0  0  0
   27.2738  -21.7415  -16.7374 C   0  0  0  0  0  0  0  0  0  0  0  0
   26.0769  -21.3328  -15.9676 C   0  0  2  0  0  0  0  0  0  0  0  0
   25.6920  -19.9733  -15.9803 N   0  0  0  0  0  0  0  0  0  0  0  0
   25.9843  -21.8485  -14.5862 C   0  0  0  0  0  0  0  0  0  0  0  0
   26.6124  -22.8943  -14.2888 O   0  0  0  0  0  0  0  0  0  0  0  0
   31.2780  -25.4551  -16.0858 N   0  0  0  0  0  0  0  0  0  0  0  0
   25.2344  -21.2480  -13.5574 C   0  0  1  0  0  0  0  0  0  0  0  0
   25.0978  -21.8097  -12.2079 C   0  0  0  0  0  0  0  0  0  0  0  0
   26.4372  -22.1640  -11.6454 C   0  0  0  0  0  0  0  0  0  0  0  0
   26.7319  -21.4328  -10.4021 C   0  0  0  0  0  0  0  0  0  0  0  0
   25.7950  -20.6087   -9.7691 N   0  0  0  0  0  0  0  0  0  0  0  0
   26.3538  -20.1342   -8.6389 C   0  0  0  0  0  0  0  0  0  0  0  0
   27.6156  -20.5971   -8.4843 C   0  0  0  0  0  0  0  0  0  0  0  0
   28.5730  -20.3948   -7.5113 C   0  0  0  0  0  0  0  0  0  0  0  0
   29.7925  -21.0072   -7.6324 C   0  0  0  0  0  0  0  0  0  0  0  0
   30.0152  -21.8025   -8.7236 C   0  0  0  0  0  0  0  0  0  0  0  0
   29.0680  -22.0245   -9.7200 C   0  0  0  0  0  0  0  0  0  0  0  0
   27.8392  -21.4075   -9.5958 C   0  0  0  0  0  0  0  0  0  0  0  0
   24.2113  -21.0243  -11.3679 O   0  0  0  0  0  0  0  0  0  0  0  0
   23.6425  -21.3747  -10.1661 O   0  0  0  0  0  0  0  0  0  0  0  0
  2  1  1  6
  2  3  1  0
  3  4  1  0
  4  9  2  0
  5  6  2  0
  5  4  1  0
  6  7  1  0
  7  8  2  0
  9  8  1  0
 10 11  2  0
 10  2  1  0
 12 13  1  0
 13 14  2  0
 13 15  1  0
 15 16  1  0
 16 17  1  0
 17 18  1  0
 19 18  1  1
 19 20  1  0
 20 10  1  0
 21 19  1  0
 21 23  1  0
 22 21  2  0
 24 23  1  0
 24 35  1  0
 24 25  1  1
 26 25  1  0
 27 26  2  0
 28 29  1  0
 28 27  1  0
 29 34  2  0
 30 29  1  0
 30 31  2  0
 31 32  1  0
 32 33  2  0
 34 26  1  0
 34 33  1  0
 35 36  1  0
 37 35  2  0
M  END
$$$$
