FRW.pdb
     RDKit          3D

 37 39  0  0  1  0  0  0  0  0999 V2000
   24.1942  -19.5873  -17.9995 N   0  0  0  0  0  0  0  0  0  0  0  0
   23.1311  -18.9799  -17.2252 C   0  0  1  0  0  0  0  0  0  0  0  0
   22.1010  -18.4054  -18.1356 C   0  0  0  0  0  0  0  0  0  0  0  0
   22.7687  -17.3568  -18.9543 C   0  0  0  0  0  0  0  0  0  0  0  0
   22.9057  -17.4470  -20.3243 C   0  0  0  0  0  0  0  0  0  0  0  0
   23.5193  -16.4749  -21.0769 C   0  0  0  0  0  0  0  0  0  0  0  0
   24.0263  -15.3599  -20.4760 C   0  0  0  0  0  0  0  0  0  0  0  0
   23.9031  -15.2405  -19.0963 C   0  0  0  0  0  0  0  0  0  0  0  0
   23.2875  -16.2197  -18.3597 C   0  0  0  0  0  0  0  0  0  0  0  0
   22.6054  -20.0141  -16.2968 C   0  0  0  0  0  0  0  0  0  0  0  0
   22.2368  -21.1581  -16.6620 O   0  0  0  0  0  0  0  0  0  0  0  0
   27.9659  -20.7952  -12.7609 N   0  0  0  0  0  0  0  0  0  0  0  0
   27.1486  -21.1072  -11.6329 C   0  0  0  0  0  0  0  0  0  0  0  0
   27.5053  -20.7848  -10.4560 N   0  0  0  0  0  0  0  0  0  0  0  0
   25.9032  -21.7923  -11.8358 N   0  0  0  0  0  0  0  0  0  0  0  0
   25.1768  -21.6883  -13.0805 C   0  0  0  0  0  0  0  0  0  0  0  0
   24.1957  -20.5733  -12.9936 C   0  0  0  0  0  0  0  0  0  0  0  0
   22.7970  -21.1103  -12.7946 C   0  0  0  0  0  0  0  0  0  0  0  0
   21.9514  -20.7148  -13.9439 C   0  0  2  0  0  0  0  0  0  0  0  0
   22.4698  -19.7977  -14.8855 N   0  0  0  0  0  0  0  0  0  0  0  0
   20.5556  -20.3470  -13.6288 C   0  0  0  0  0  0  0  0  0  0  0  0
   20.3450  -19.4682  -12.7569 O   0  0  0  0  0  0  0  0  0  0  0  0
   26.9410  -21.0342   -9.6268 N   0  0  0  0  0  0  0  0  0  0  0  0
   19.4220  -20.9137  -14.2411 C   0  0  1  0  0  0  0  0  0  0  0  0
   18.0515  -20.4288  -14.0362 C   0  0  0  0  0  0  0  0  0  0  0  0
   17.9452  -18.9802  -14.3917 C   0  0  0  0  0  0  0  0  0  0  0  0
   18.1254  -18.7444  -15.8337 C   0  0  0  0  0  0  0  0  0  0  0  0
   17.6641  -19.6350  -16.8091 N   0  0  0  0  0  0  0  0  0  0  0  0
   17.9368  -19.1068  -18.0180 C   0  0  0  0  0  0  0  0  0  0  0  0
   18.5574  -17.9103  -17.9012 C   0  0  0  0  0  0  0  0  0  0  0  0
   19.0299  -17.0074  -18.8317 C   0  0  0  0  0  0  0  0  0  0  0  0
   19.6347  -15.8557  -18.4021 C   0  0  0  0  0  0  0  0  0  0  0  0
   19.7477  -15.6443  -17.0548 C   0  0  0  0  0  0  0  0  0  0  0  0
   19.2802  -16.5373  -16.0939 C   0  0  0  0  0  0  0  0  0  0  0  0
   18.6699  -17.6969  -16.5286 C   0  0  0  0  0  0  0  0  0  0  0  0
   17.0568  -21.3251  -14.5978 O   0  0  0  0  0  0  0  0  0  0  0  0
   15.6926  -21.2997  -14.4276 O   0  0  0  0  0  0  0  0  0  0  0  0
  2  1  1  6
  2  3  1  0
  3  4  1  0
  4  9  2  0
  5  6  2  0
  5  4  1  0
  6  7  1  0
  7  8  2  0
  9  8  1  0
 10 11  2  0
 10  2  1  0
 12 13  1  0
 13 14  2  0
 13 15  1  0
 15 16  1  0
 16 17  1  0
 17 18  1  0
 19 18  1  1
 19 20  1  0
 20 10  1  0
 21 19  1  0
 21 23  1  0
 22 21  2  0
 24 23  1  0
 24 35  1  0
 24 25  1  1
 26 25  1  0
 27 26  2  0
 28 29  1  0
 28 27  1  0
 29 34  2  0
 30 29  1  0
 30 31  2  0
 31 32  1  0
 32 33  2  0
 34 26  1  0
 34 33  1  0
 35 36  1  0
 37 35  2  0
M  END
$$$$
