FRW.pdb
     RDKit          3D

 37 39  0  0  1  0  0  0  0  0999 V2000
   26.6841  -20.1099  -18.0214 N   0  0  0  0  0  0  0  0  0  0  0  0
   26.8459  -19.8402  -16.6072 C   0  0  1  0  0  0  0  0  0  0  0  0
   26.7311  -18.3770  -16.3505 C   0  0  0  0  0  0  0  0  0  0  0  0
   27.8596  -17.7131  -17.0587 C   0  0  0  0  0  0  0  0  0  0  0  0
   29.1698  -18.1292  -16.9406 C   0  0  0  0  0  0  0  0  0  0  0  0
   30.2081  -17.5160  -17.5992 C   0  0  0  0  0  0  0  0  0  0  0  0
   29.9689  -16.4469  -18.4123 C   0  0  0  0  0  0  0  0  0  0  0  0
   28.6583  -16.0044  -18.5515 C   0  0  0  0  0  0  0  0  0  0  0  0
   27.6332  -16.6279  -17.8875 C   0  0  0  0  0  0  0  0  0  0  0  0
   25.8451  -20.6604  -15.8769 C   0  0  0  0  0  0  0  0  0  0  0  0
   24.7198  -20.9678  -16.3431 O   0  0  0  0  0  0  0  0  0  0  0  0
   24.7680  -21.6759   -8.3734 N   0  0  0  0  0  0  0  0  0  0  0  0
   25.8136  -20.7086   -8.2814 C   0  0  0  0  0  0  0  0  0  0  0  0
   25.8394  -19.8594   -7.3356 N   0  0  0  0  0  0  0  0  0  0  0  0
   26.8526  -20.7008   -9.2724 N   0  0  0  0  0  0  0  0  0  0  0  0
   26.8772  -21.6631  -10.3501 C   0  0  0  0  0  0  0  0  0  0  0  0
   26.2087  -21.0873  -11.5479 C   0  0  0  0  0  0  0  0  0  0  0  0
   25.5191  -22.1712  -12.3442 C   0  0  0  0  0  0  0  0  0  0  0  0
   25.0888  -21.6221  -13.6503 C   0  0  2  0  0  0  0  0  0  0  0  0
   26.0753  -21.1807  -14.5604 N   0  0  0  0  0  0  0  0  0  0  0  0
   23.9907  -20.6345  -13.6111 C   0  0  0  0  0  0  0  0  0  0  0  0
   24.2388  -19.4716  -13.2075 O   0  0  0  0  0  0  0  0  0  0  0  0
   26.5860  -19.1488   -7.2600 N   0  0  0  0  0  0  0  0  0  0  0  0
   22.6637  -20.8988  -13.9988 C   0  0  1  0  0  0  0  0  0  0  0  0
   21.6163  -19.8739  -14.0879 C   0  0  0  0  0  0  0  0  0  0  0  0
   22.0771  -18.7190  -14.9186 C   0  0  0  0  0  0  0  0  0  0  0  0
   20.9688  -18.0739  -15.6418 C   0  0  0  0  0  0  0  0  0  0  0  0
   19.8092  -17.6230  -15.0020 N   0  0  0  0  0  0  0  0  0  0  0  0
   19.0232  -17.0388  -15.9271 C   0  0  0  0  0  0  0  0  0  0  0  0
   19.5966  -17.0771  -17.1519 C   0  0  0  0  0  0  0  0  0  0  0  0
   19.1883  -16.6243  -18.3899 C   0  0  0  0  0  0  0  0  0  0  0  0
   20.0000  -16.8180  -19.4763 C   0  0  0  0  0  0  0  0  0  0  0  0
   21.1947  -17.4590  -19.2893 C   0  0  0  0  0  0  0  0  0  0  0  0
   21.6319  -17.9259  -18.0524 C   0  0  0  0  0  0  0  0  0  0  0  0
   20.8132  -17.7289  -16.9584 C   0  0  0  0  0  0  0  0  0  0  0  0
   20.3145  -20.4373  -14.3978 O   0  0  0  0  0  0  0  0  0  0  0  0
   19.0786  -20.0181  -13.9649 O   0  0  0  0  0  0  0  0  0  0  0  0
  2  1  1  6
  2  3  1  0
  3  4  1  0
  4  9  2  0
  5  6  2  0
  5  4  1  0
  6  7  1  0
  7  8  2  0
  9  8  1  0
 10 11  2  0
 10  2  1  0
 12 13  1  0
 13 14  2  0
 13 15  1  0
 15 16  1  0
 16 17  1  0
 17 18  1  0
 19 18  1  1
 19 20  1  0
 20 10  1  0
 21 19  1  0
 21 23  1  0
 22 21  2  0
 24 23  1  0
 24 35  1  0
 24 25  1  1
 26 25  1  0
 27 26  2  0
 28 29  1  0
 28 27  1  0
 29 34  2  0
 30 29  1  0
 30 31  2  0
 31 32  1  0
 32 33  2  0
 34 26  1  0
 34 33  1  0
 35 36  1  0
 37 35  2  0
M  END
$$$$
