FRW.pdb
     RDKit          3D

 37 39  0  0  1  0  0  0  0  0999 V2000
   26.9041  -19.4792  -17.0497 N   0  0  0  0  0  0  0  0  0  0  0  0
   26.3558  -18.8174  -15.8834 C   0  0  1  0  0  0  0  0  0  0  0  0
   25.4469  -17.7139  -16.3033 C   0  0  0  0  0  0  0  0  0  0  0  0
   26.2972  -16.5298  -16.6041 C   0  0  0  0  0  0  0  0  0  0  0  0
   26.6637  -16.1739  -17.8858 C   0  0  0  0  0  0  0  0  0  0  0  0
   27.4457  -15.0778  -18.1595 C   0  0  0  0  0  0  0  0  0  0  0  0
   27.8966  -14.2859  -17.1442 C   0  0  0  0  0  0  0  0  0  0  0  0
   27.5435  -14.6191  -15.8413 C   0  0  0  0  0  0  0  0  0  0  0  0
   26.7620  -15.7163  -15.5853 C   0  0  0  0  0  0  0  0  0  0  0  0
   25.6980  -19.8546  -15.0471 C   0  0  0  0  0  0  0  0  0  0  0  0
   25.1216  -20.8676  -15.5158 O   0  0  0  0  0  0  0  0  0  0  0  0
   28.0381  -21.3397   -8.8103 N   0  0  0  0  0  0  0  0  0  0  0  0
   26.9183  -20.5995   -8.3247 C   0  0  0  0  0  0  0  0  0  0  0  0
   27.0768  -19.6052   -7.5485 N   0  0  0  0  0  0  0  0  0  0  0  0
   25.5945  -20.9852   -8.7251 N   0  0  0  0  0  0  0  0  0  0  0  0
   25.3338  -22.2651   -9.3429 C   0  0  0  0  0  0  0  0  0  0  0  0
   24.8302  -22.0571  -10.7272 C   0  0  0  0  0  0  0  0  0  0  0  0
   25.5713  -20.9234  -11.3978 C   0  0  0  0  0  0  0  0  0  0  0  0
   25.0160  -20.7080  -12.7534 C   0  0  2  0  0  0  0  0  0  0  0  0
   25.6612  -19.7925  -13.6148 N   0  0  0  0  0  0  0  0  0  0  0  0
   23.5555  -20.4995  -12.8328 C   0  0  0  0  0  0  0  0  0  0  0  0
   22.8696  -20.6291  -11.7890 O   0  0  0  0  0  0  0  0  0  0  0  0
   26.2743  -19.0833   -7.1590 N   0  0  0  0  0  0  0  0  0  0  0  0
   22.8594  -20.1594  -14.0080 C   0  0  1  0  0  0  0  0  0  0  0  0
   21.4047  -19.9724  -14.0736 C   0  0  0  0  0  0  0  0  0  0  0  0
   21.0689  -18.6667  -14.7205 C   0  0  0  0  0  0  0  0  0  0  0  0
   21.3543  -18.6691  -16.1648 C   0  0  0  0  0  0  0  0  0  0  0  0
   21.8745  -19.7841  -16.8310 N   0  0  0  0  0  0  0  0  0  0  0  0
   21.9685  -19.4808  -18.1402 C   0  0  0  0  0  0  0  0  0  0  0  0
   21.5395  -18.2209  -18.3833 C   0  0  0  0  0  0  0  0  0  0  0  0
   21.4484  -17.4708  -19.5380 C   0  0  0  0  0  0  0  0  0  0  0  0
   20.9691  -16.1893  -19.4695 C   0  0  0  0  0  0  0  0  0  0  0  0
   20.5964  -15.6990  -18.2474 C   0  0  0  0  0  0  0  0  0  0  0  0
   20.6772  -16.4329  -17.0667 C   0  0  0  0  0  0  0  0  0  0  0  0
   21.1594  -17.7246  -17.1377 C   0  0  0  0  0  0  0  0  0  0  0  0
   20.7158  -21.1529  -14.5637 O   0  0  0  0  0  0  0  0  0  0  0  0
   21.2488  -22.2488  -15.2004 O   0  0  0  0  0  0  0  0  0  0  0  0
  2  1  1  6
  2  3  1  0
  3  4  1  0
  4  9  2  0
  5  6  2  0
  5  4  1  0
  6  7  1  0
  7  8  2  0
  9  8  1  0
 10 11  2  0
 10  2  1  0
 12 13  1  0
 13 14  2  0
 13 15  1  0
 15 16  1  0
 16 17  1  0
 17 18  1  0
 19 18  1  1
 19 20  1  0
 20 10  1  0
 21 19  1  0
 21 23  1  0
 22 21  2  0
 24 23  1  0
 24 35  1  0
 24 25  1  1
 26 25  1  0
 27 26  2  0
 28 29  1  0
 28 27  1  0
 29 34  2  0
 30 29  1  0
 30 31  2  0
 31 32  1  0
 32 33  2  0
 34 26  1  0
 34 33  1  0
 35 36  1  0
 37 35  2  0
M  END
$$$$
