FRW.pdb
     RDKit          3D

 37 39  0  0  1  0  0  0  0  0999 V2000
   27.4071  -21.8614  -17.0500 N   0  0  0  0  0  0  0  0  0  0  0  0
   27.0954  -20.8616  -16.0490 C   0  0  1  0  0  0  0  0  0  0  0  0
   26.4075  -19.7020  -16.6832 C   0  0  0  0  0  0  0  0  0  0  0  0
   27.4153  -18.9903  -17.5159 C   0  0  0  0  0  0  0  0  0  0  0  0
   27.2022  -18.6659  -18.8399 C   0  0  0  0  0  0  0  0  0  0  0  0
   28.1337  -18.0054  -19.6040 C   0  0  0  0  0  0  0  0  0  0  0  0
   29.3313  -17.6401  -19.0621 C   0  0  0  0  0  0  0  0  0  0  0  0
   29.5751  -17.9531  -17.7296 C   0  0  0  0  0  0  0  0  0  0  0  0
   28.6346  -18.6125  -16.9806 C   0  0  0  0  0  0  0  0  0  0  0  0
   26.2997  -21.5257  -14.9844 C   0  0  0  0  0  0  0  0  0  0  0  0
   25.3346  -22.2969  -15.2120 O   0  0  0  0  0  0  0  0  0  0  0  0
   23.9758  -20.1138   -6.3980 N   0  0  0  0  0  0  0  0  0  0  0  0
   24.4119  -21.4192   -6.7767 C   0  0  0  0  0  0  0  0  0  0  0  0
   24.1202  -22.4373   -6.0735 N   0  0  0  0  0  0  0  0  0  0  0  0
   25.1884  -21.5805   -7.9736 N   0  0  0  0  0  0  0  0  0  0  0  0
   25.3874  -20.4889   -8.8991 C   0  0  0  0  0  0  0  0  0  0  0  0
   24.9069  -20.8864  -10.2498 C   0  0  0  0  0  0  0  0  0  0  0  0
   26.0721  -21.2335  -11.1477 C   0  0  0  0  0  0  0  0  0  0  0  0
   25.6040  -21.3136  -12.5501 C   0  0  2  0  0  0  0  0  0  0  0  0
   26.5639  -21.3445  -13.5865 N   0  0  0  0  0  0  0  0  0  0  0  0
   24.5157  -20.3880  -12.9268 C   0  0  0  0  0  0  0  0  0  0  0  0
   24.7177  -19.1517  -12.8405 O   0  0  0  0  0  0  0  0  0  0  0  0
   24.4017  -23.3919   -6.3517 N   0  0  0  0  0  0  0  0  0  0  0  0
   23.2469  -20.7903  -13.3845 C   0  0  2  0  0  0  0  0  0  0  0  0
   22.0894  -19.8928  -13.4846 C   0  0  0  0  0  0  0  0  0  0  0  0
   21.8155  -19.5416  -14.9120 C   0  0  0  0  0  0  0  0  0  0  0  0
   21.4524  -20.7194  -15.7172 C   0  0  0  0  0  0  0  0  0  0  0  0
   20.3380  -21.5158  -15.4324 N   0  0  0  0  0  0  0  0  0  0  0  0
   20.2555  -22.4708  -16.3790 C   0  0  0  0  0  0  0  0  0  0  0  0
   21.2574  -22.3548  -17.2807 C   0  0  0  0  0  0  0  0  0  0  0  0
   21.5937  -23.0832  -18.4034 C   0  0  0  0  0  0  0  0  0  0  0  0
   22.6961  -22.7221  -19.1321 C   0  0  0  0  0  0  0  0  0  0  0  0
   23.4272  -21.6435  -18.7138 C   0  0  0  0  0  0  0  0  0  0  0  0
   23.1113  -20.8907  -17.5857 C   0  0  0  0  0  0  0  0  0  0  0  0
   21.9993  -21.2552  -16.8532 C   0  0  0  0  0  0  0  0  0  0  0  0
   20.9657  -20.3464  -12.6849 O   0  0  0  0  0  0  0  0  0  0  0  0
   20.7465  -21.5950  -12.1523 O   0  0  0  0  0  0  0  0  0  0  0  0
  2  1  1  6
  2  3  1  0
  3  4  1  0
  4  9  2  0
  5  6  2  0
  5  4  1  0
  6  7  1  0
  7  8  2  0
  9  8  1  0
 10 11  2  0
 10  2  1  0
 12 13  1  0
 13 14  2  0
 13 15  1  0
 15 16  1  0
 16 17  1  0
 17 18  1  0
 19 18  1  1
 19 20  1  0
 20 10  1  0
 21 19  1  0
 21 23  1  0
 22 21  2  0
 24 23  1  0
 24 35  1  0
 24 25  1  6
 26 25  1  0
 27 26  2  0
 28 29  1  0
 28 27  1  0
 29 34  2  0
 30 29  1  0
 30 31  2  0
 31 32  1  0
 32 33  2  0
 34 26  1  0
 34 33  1  0
 35 36  1  0
 37 35  2  0
M  END
$$$$
