FRW.pdb
     RDKit          3D

 37 39  0  0  1  0  0  0  0  0999 V2000
   27.3540  -20.6284  -18.9433 N   0  0  0  0  0  0  0  0  0  0  0  0
   27.0180  -20.6978  -17.5357 C   0  0  1  0  0  0  0  0  0  0  0  0
   26.7974  -19.3268  -16.9958 C   0  0  0  0  0  0  0  0  0  0  0  0
   28.0634  -18.5671  -17.1848 C   0  0  0  0  0  0  0  0  0  0  0  0
   29.2875  -19.0245  -16.7422 C   0  0  0  0  0  0  0  0  0  0  0  0
   30.4545  -18.3220  -16.9221 C   0  0  0  0  0  0  0  0  0  0  0  0
   30.4382  -17.1168  -17.5614 C   0  0  0  0  0  0  0  0  0  0  0  0
   29.2191  -16.6296  -18.0192 C   0  0  0  0  0  0  0  0  0  0  0  0
   28.0635  -17.3435  -17.8319 C   0  0  0  0  0  0  0  0  0  0  0  0
   25.8421  -21.5957  -17.3991 C   0  0  0  0  0  0  0  0  0  0  0  0
   24.8214  -21.5258  -18.1281 O   0  0  0  0  0  0  0  0  0  0  0  0
   28.8249  -25.9664  -17.4229 N   0  0  0  0  0  0  0  0  0  0  0  0
   28.2291  -26.8443  -16.4680 C   0  0  0  0  0  0  0  0  0  0  0  0
   28.9128  -27.3405  -15.5180 N   0  0  0  0  0  0  0  0  0  0  0  0
   26.8345  -27.1659  -16.5838 N   0  0  0  0  0  0  0  0  0  0  0  0
   26.0444  -26.7130  -17.7055 C   0  0  0  0  0  0  0  0  0  0  0  0
   25.7722  -25.2569  -17.5681 C   0  0  0  0  0  0  0  0  0  0  0  0
   24.9470  -24.9848  -16.3314 C   0  0  0  0  0  0  0  0  0  0  0  0
   24.6896  -23.5307  -16.2234 C   0  0  2  0  0  0  0  0  0  0  0  0
   25.7650  -22.6340  -16.4128 N   0  0  0  0  0  0  0  0  0  0  0  0
   23.8972  -23.0951  -15.0550 C   0  0  0  0  0  0  0  0  0  0  0  0
   24.5006  -22.6430  -14.0509 O   0  0  0  0  0  0  0  0  0  0  0  0
   28.5289  -28.0657  -14.8897 N   0  0  0  0  0  0  0  0  0  0  0  0
   22.4927  -23.1468  -14.9776 C   0  0  1  0  0  0  0  0  0  0  0  0
   21.7183  -22.6856  -13.8186 C   0  0  0  0  0  0  0  0  0  0  0  0
   22.2804  -21.4078  -13.2827 C   0  0  0  0  0  0  0  0  0  0  0  0
   21.9976  -20.2612  -14.1618 C   0  0  0  0  0  0  0  0  0  0  0  0
   20.6985  -19.8173  -14.4314 N   0  0  0  0  0  0  0  0  0  0  0  0
   20.7855  -18.7279  -15.2192 C   0  0  0  0  0  0  0  0  0  0  0  0
   22.0749  -18.4215  -15.4909 C   0  0  0  0  0  0  0  0  0  0  0  0
   22.6602  -17.4212  -16.2400 C   0  0  0  0  0  0  0  0  0  0  0  0
   24.0256  -17.3692  -16.3396 C   0  0  0  0  0  0  0  0  0  0  0  0
   24.7618  -18.3201  -15.6864 C   0  0  0  0  0  0  0  0  0  0  0  0
   24.1983  -19.3400  -14.9239 C   0  0  0  0  0  0  0  0  0  0  0  0
   22.8223  -19.3903  -14.8237 C   0  0  0  0  0  0  0  0  0  0  0  0
   20.2864  -22.7342  -14.0541 O   0  0  0  0  0  0  0  0  0  0  0  0
   19.2704  -22.7683  -13.1282 O   0  0  0  0  0  0  0  0  0  0  0  0
  2  1  1  6
  2  3  1  0
  3  4  1  0
  4  9  2  0
  5  6  2  0
  5  4  1  0
  6  7  1  0
  7  8  2  0
  9  8  1  0
 10 11  2  0
 10  2  1  0
 12 13  1  0
 13 14  2  0
 13 15  1  0
 15 16  1  0
 16 17  1  0
 17 18  1  0
 19 18  1  1
 19 20  1  0
 20 10  1  0
 21 19  1  0
 21 23  1  0
 22 21  2  0
 24 23  1  0
 24 35  1  0
 24 25  1  1
 26 25  1  0
 27 26  2  0
 28 29  1  0
 28 27  1  0
 29 34  2  0
 30 29  1  0
 30 31  2  0
 31 32  1  0
 32 33  2  0
 34 26  1  0
 34 33  1  0
 35 36  1  0
 37 35  2  0
M  END
$$$$
