FRW.pdb
     RDKit          3D

 37 39  0  0  1  0  0  0  0  0999 V2000
   28.0998  -20.9441  -10.2579 N   0  0  0  0  0  0  0  0  0  0  0  0
   26.7460  -20.8368   -9.7534 C   0  0  1  0  0  0  0  0  0  0  0  0
   26.6022  -19.5980   -8.9381 C   0  0  0  0  0  0  0  0  0  0  0  0
   27.5720  -19.6930   -7.8130 C   0  0  0  0  0  0  0  0  0  0  0  0
   28.5751  -20.6390   -7.7633 C   0  0  0  0  0  0  0  0  0  0  0  0
   29.4708  -20.7209   -6.7246 C   0  0  0  0  0  0  0  0  0  0  0  0
   29.3935  -19.8452   -5.6813 C   0  0  0  0  0  0  0  0  0  0  0  0
   28.3930  -18.8800   -5.7032 C   0  0  0  0  0  0  0  0  0  0  0  0
   27.5071  -18.8117   -6.7477 C   0  0  0  0  0  0  0  0  0  0  0  0
   25.8267  -20.9013  -10.9189 C   0  0  0  0  0  0  0  0  0  0  0  0
   24.7988  -20.1890  -11.0381 O   0  0  0  0  0  0  0  0  0  0  0  0
   26.9206  -25.5843  -15.9432 N   0  0  0  0  0  0  0  0  0  0  0  0
   25.5247  -25.7286  -16.2044 C   0  0  0  0  0  0  0  0  0  0  0  0
   24.9407  -26.8467  -16.0465 N   0  0  0  0  0  0  0  0  0  0  0  0
   24.7717  -24.5895  -16.6482 N   0  0  0  0  0  0  0  0  0  0  0  0
   25.3555  -23.2686  -16.6958 C   0  0  0  0  0  0  0  0  0  0  0  0
   24.8693  -22.4667  -15.5409 C   0  0  0  0  0  0  0  0  0  0  0  0
   25.7591  -22.6747  -14.3371 C   0  0  0  0  0  0  0  0  0  0  0  0
   25.2814  -21.8265  -13.2214 C   0  0  2  0  0  0  0  0  0  0  0  0
   26.0316  -21.7914  -12.0246 N   0  0  0  0  0  0  0  0  0  0  0  0
   23.8460  -21.9360  -12.8890 C   0  0  0  0  0  0  0  0  0  0  0  0
   23.4470  -22.9483  -12.2622 O   0  0  0  0  0  0  0  0  0  0  0  0
   23.9582  -26.9945  -16.3309 N   0  0  0  0  0  0  0  0  0  0  0  0
   22.8723  -20.9767  -13.2248 C   0  0  2  0  0  0  0  0  0  0  0  0
   21.4658  -21.0574  -12.8120 C   0  0  0  0  0  0  0  0  0  0  0  0
   21.0439  -19.7978  -12.1255 C   0  0  0  0  0  0  0  0  0  0  0  0
   21.0897  -18.6309  -13.0219 C   0  0  0  0  0  0  0  0  0  0  0  0
   21.9182  -18.5743  -14.1479 N   0  0  0  0  0  0  0  0  0  0  0  0
   21.6860  -17.4063  -14.7778 C   0  0  0  0  0  0  0  0  0  0  0  0
   20.7464  -16.6791  -14.1308 C   0  0  0  0  0  0  0  0  0  0  0  0
   20.1866  -15.4424  -14.3789 C   0  0  0  0  0  0  0  0  0  0  0  0
   19.2386  -14.9507  -13.5209 C   0  0  0  0  0  0  0  0  0  0  0  0
   18.8811  -15.7122  -12.4415 C   0  0  0  0  0  0  0  0  0  0  0  0
   19.4288  -16.9627  -12.1667 C   0  0  0  0  0  0  0  0  0  0  0  0
   20.3832  -17.4572  -13.0331 C   0  0  0  0  0  0  0  0  0  0  0  0
   20.6057  -21.5575  -13.8695 O   0  0  0  0  0  0  0  0  0  0  0  0
   20.9121  -21.7591  -15.1946 O   0  0  0  0  0  0  0  0  0  0  0  0
  2  1  1  6
  2  3  1  0
  3  4  1  0
  4  9  2  0
  5  6  2  0
  5  4  1  0
  6  7  1  0
  7  8  2  0
  9  8  1  0
 10 11  2  0
 10  2  1  0
 12 13  1  0
 13 14  2  0
 13 15  1  0
 15 16  1  0
 16 17  1  0
 17 18  1  0
 19 18  1  6
 19 20  1  0
 20 10  1  0
 21 19  1  0
 21 23  1  0
 22 21  2  0
 24 23  1  0
 24 35  1  0
 24 25  1  6
 26 25  1  0
 27 26  2  0
 28 29  1  0
 28 27  1  0
 29 34  2  0
 30 29  1  0
 30 31  2  0
 31 32  1  0
 32 33  2  0
 34 26  1  0
 34 33  1  0
 35 36  1  0
 37 35  2  0
M  END
$$$$
