FRW.pdb
     RDKit          3D

 37 39  0  0  1  0  0  0  0  0999 V2000
   27.8157  -21.3854  -14.9644 N   0  0  0  0  0  0  0  0  0  0  0  0
   26.7018  -20.6719  -14.3737 C   0  0  1  0  0  0  0  0  0  0  0  0
   27.2045  -19.5723  -13.5030 C   0  0  0  0  0  0  0  0  0  0  0  0
   27.9258  -20.2035  -12.3642 C   0  0  0  0  0  0  0  0  0  0  0  0
   29.3007  -20.1977  -12.2495 C   0  0  0  0  0  0  0  0  0  0  0  0
   29.9625  -20.7783  -11.1946 C   0  0  0  0  0  0  0  0  0  0  0  0
   29.2610  -21.3958  -10.2007 C   0  0  0  0  0  0  0  0  0  0  0  0
   27.8736  -21.4177  -10.2883 C   0  0  0  0  0  0  0  0  0  0  0  0
   27.2284  -20.8332  -11.3478 C   0  0  0  0  0  0  0  0  0  0  0  0
   25.8264  -20.2105  -15.4821 C   0  0  0  0  0  0  0  0  0  0  0  0
   26.1625  -19.3373  -16.3205 O   0  0  0  0  0  0  0  0  0  0  0  0
   25.6932  -24.6981  -15.3328 N   0  0  0  0  0  0  0  0  0  0  0  0
   24.4499  -24.8630  -14.6510 C   0  0  0  0  0  0  0  0  0  0  0  0
   24.4062  -25.3429  -13.4746 N   0  0  0  0  0  0  0  0  0  0  0  0
   23.2326  -24.4755  -15.3066 N   0  0  0  0  0  0  0  0  0  0  0  0
   23.2279  -23.9895  -16.6673 C   0  0  0  0  0  0  0  0  0  0  0  0
   22.5388  -22.6723  -16.7239 C   0  0  0  0  0  0  0  0  0  0  0  0
   23.2865  -21.7196  -17.6282 C   0  0  0  0  0  0  0  0  0  0  0  0
   23.7095  -20.5337  -16.8492 C   0  0  2  0  0  0  0  0  0  0  0  0
   24.5053  -20.7252  -15.6975 N   0  0  0  0  0  0  0  0  0  0  0  0
   22.6558  -19.5424  -16.5493 C   0  0  0  0  0  0  0  0  0  0  0  0
   21.9245  -19.1365  -17.4859 O   0  0  0  0  0  0  0  0  0  0  0  0
   23.5147  -25.6174  -13.0297 N   0  0  0  0  0  0  0  0  0  0  0  0
   22.4014  -19.0078  -15.2723 C   0  0  2  0  0  0  0  0  0  0  0  0
   21.2980  -18.0863  -14.9746 C   0  0  0  0  0  0  0  0  0  0  0  0
   21.6625  -16.6864  -15.3532 C   0  0  0  0  0  0  0  0  0  0  0  0
   20.5510  -15.7439  -15.1439 C   0  0  0  0  0  0  0  0  0  0  0  0
   19.8360  -15.6723  -13.9435 N   0  0  0  0  0  0  0  0  0  0  0  0
   18.9296  -14.6821  -14.0568 C   0  0  0  0  0  0  0  0  0  0  0  0
   19.0008  -14.0893  -15.2709 C   0  0  0  0  0  0  0  0  0  0  0  0
   18.2934  -13.0552  -15.8492 C   0  0  0  0  0  0  0  0  0  0  0  0
   18.5936  -12.6704  -17.1293 C   0  0  0  0  0  0  0  0  0  0  0  0
   19.5921  -13.3331  -17.7901 C   0  0  0  0  0  0  0  0  0  0  0  0
   20.3220  -14.3792  -17.2315 C   0  0  0  0  0  0  0  0  0  0  0  0
   20.0190  -14.7649  -15.9410 C   0  0  0  0  0  0  0  0  0  0  0  0
   20.0168  -18.5876  -15.4387 O   0  0  0  0  0  0  0  0  0  0  0  0
   19.5412  -18.6495  -16.7273 O   0  0  0  0  0  0  0  0  0  0  0  0
  2  1  1  6
  2  3  1  0
  3  4  1  0
  4  9  2  0
  5  6  2  0
  5  4  1  0
  6  7  1  0
  7  8  2  0
  9  8  1  0
 10 11  2  0
 10  2  1  0
 12 13  1  0
 13 14  2  0
 13 15  1  0
 15 16  1  0
 16 17  1  0
 17 18  1  0
 19 18  1  1
 19 20  1  0
 20 10  1  0
 21 19  1  0
 21 23  1  0
 22 21  2  0
 24 23  1  0
 24 35  1  0
 24 25  1  6
 26 25  1  0
 27 26  2  0
 28 29  1  0
 28 27  1  0
 29 34  2  0
 30 29  1  0
 30 31  2  0
 31 32  1  0
 32 33  2  0
 34 26  1  0
 34 33  1  0
 35 36  1  0
 37 35  2  0
M  END
$$$$
