FRW.pdb
     RDKit          3D

 37 39  0  0  1  0  0  0  0  0999 V2000
   21.4668  -21.7146  -17.6480 N   0  0  0  0  0  0  0  0  0  0  0  0
   22.2751  -20.7976  -16.8704 C   0  0  1  0  0  0  0  0  0  0  0  0
   21.4724  -20.2361  -15.7478 C   0  0  0  0  0  0  0  0  0  0  0  0
   20.5422  -19.2296  -16.3285 C   0  0  0  0  0  0  0  0  0  0  0  0
   20.9531  -17.9817  -16.7501 C   0  0  0  0  0  0  0  0  0  0  0  0
   20.0918  -17.0568  -17.2892 C   0  0  0  0  0  0  0  0  0  0  0  0
   18.7670  -17.3519  -17.4276 C   0  0  0  0  0  0  0  0  0  0  0  0
   18.3228  -18.6020  -17.0117 C   0  0  0  0  0  0  0  0  0  0  0  0
   19.1956  -19.5140  -16.4761 C   0  0  0  0  0  0  0  0  0  0  0  0
   23.4911  -21.5314  -16.4336 C   0  0  0  0  0  0  0  0  0  0  0  0
   23.5044  -22.7552  -16.1504 O   0  0  0  0  0  0  0  0  0  0  0  0
   29.8400  -26.0001  -16.3380 N   0  0  0  0  0  0  0  0  0  0  0  0
   28.6854  -25.8714  -17.1674 C   0  0  0  0  0  0  0  0  0  0  0  0
   27.9467  -26.8741  -17.4226 N   0  0  0  0  0  0  0  0  0  0  0  0
   28.3548  -24.5865  -17.7166 N   0  0  0  0  0  0  0  0  0  0  0  0
   28.9587  -23.3725  -17.2174 C   0  0  0  0  0  0  0  0  0  0  0  0
   28.0573  -22.7427  -16.2153 C   0  0  0  0  0  0  0  0  0  0  0  0
   26.8731  -22.0970  -16.8972 C   0  0  0  0  0  0  0  0  0  0  0  0
   25.9692  -21.5251  -15.8734 C   0  0  2  0  0  0  0  0  0  0  0  0
   24.7725  -20.9027  -16.2944 N   0  0  0  0  0  0  0  0  0  0  0  0
   26.6078  -20.6916  -14.8341 C   0  0  0  0  0  0  0  0  0  0  0  0
   26.5264  -19.4420  -14.9280 O   0  0  0  0  0  0  0  0  0  0  0  0
   27.1254  -26.8027  -18.0459 N   0  0  0  0  0  0  0  0  0  0  0  0
   27.3127  -21.1970  -13.7255 C   0  0  2  0  0  0  0  0  0  0  0  0
   27.9058  -20.3559  -12.6786 C   0  0  0  0  0  0  0  0  0  0  0  0
   26.9518  -19.2835  -12.2593 C   0  0  0  0  0  0  0  0  0  0  0  0
   25.9079  -19.7880  -11.3521 C   0  0  0  0  0  0  0  0  0  0  0  0
   26.1243  -19.9813   -9.9834 N   0  0  0  0  0  0  0  0  0  0  0  0
   24.9667  -20.3960   -9.4330 C   0  0  0  0  0  0  0  0  0  0  0  0
   23.9886  -20.4911  -10.3628 C   0  0  0  0  0  0  0  0  0  0  0  0
   22.6633  -20.8688  -10.2902 C   0  0  0  0  0  0  0  0  0  0  0  0
   21.9034  -20.8730  -11.4301 C   0  0  0  0  0  0  0  0  0  0  0  0
   22.4942  -20.4993  -12.6066 C   0  0  0  0  0  0  0  0  0  0  0  0
   23.8283  -20.1136  -12.7092 C   0  0  0  0  0  0  0  0  0  0  0  0
   24.5923  -20.1088  -11.5593 C   0  0  0  0  0  0  0  0  0  0  0  0
   28.5298  -21.1381  -11.6265 O   0  0  0  0  0  0  0  0  0  0  0  0
   29.5545  -20.7730  -10.7856 O   0  0  0  0  0  0  0  0  0  0  0  0
  2  1  1  1
  2  3  1  0
  3  4  1  0
  4  9  2  0
  5  6  2  0
  5  4  1  0
  6  7  1  0
  7  8  2  0
  9  8  1  0
 10 11  2  0
 10  2  1  0
 12 13  1  0
 13 14  2  0
 13 15  1  0
 15 16  1  0
 16 17  1  0
 17 18  1  0
 19 18  1  6
 19 20  1  0
 20 10  1  0
 21 19  1  0
 21 23  1  0
 22 21  2  0
 24 23  1  0
 24 35  1  0
 24 25  1  6
 26 25  1  0
 27 26  2  0
 28 29  1  0
 28 27  1  0
 29 34  2  0
 30 29  1  0
 30 31  2  0
 31 32  1  0
 32 33  2  0
 34 26  1  0
 34 33  1  0
 35 36  1  0
 37 35  2  0
M  END
$$$$
