FRW.pdb
     RDKit          3D

 37 39  0  0  1  0  0  0  0  0999 V2000
   24.5663  -17.2990  -18.8093 N   0  0  0  0  0  0  0  0  0  0  0  0
   23.8393  -17.2565  -17.5569 C   0  0  1  0  0  0  0  0  0  0  0  0
   22.5453  -16.5415  -17.7423 C   0  0  0  0  0  0  0  0  0  0  0  0
   22.8637  -15.1144  -18.0212 C   0  0  0  0  0  0  0  0  0  0  0  0
   22.6794  -14.5311  -19.2579 C   0  0  0  0  0  0  0  0  0  0  0  0
   22.9709  -13.2124  -19.5102 C   0  0  0  0  0  0  0  0  0  0  0  0
   23.4657  -12.4171  -18.5181 C   0  0  0  0  0  0  0  0  0  0  0  0
   23.6621  -12.9767  -17.2606 C   0  0  0  0  0  0  0  0  0  0  0  0
   23.3656  -14.2947  -17.0253 C   0  0  0  0  0  0  0  0  0  0  0  0
   23.6917  -18.6547  -17.0764 C   0  0  0  0  0  0  0  0  0  0  0  0
   23.6740  -19.6558  -17.8351 O   0  0  0  0  0  0  0  0  0  0  0  0
   27.5204  -20.1351  -11.4316 N   0  0  0  0  0  0  0  0  0  0  0  0
   26.8612  -21.3929  -11.5759 C   0  0  0  0  0  0  0  0  0  0  0  0
   26.3978  -22.0096  -10.5653 N   0  0  0  0  0  0  0  0  0  0  0  0
   26.7179  -21.9647  -12.8851 N   0  0  0  0  0  0  0  0  0  0  0  0
   26.9028  -21.1741  -14.0803 C   0  0  0  0  0  0  0  0  0  0  0  0
   25.6983  -20.3326  -14.3128 C   0  0  0  0  0  0  0  0  0  0  0  0
   24.6117  -21.1354  -14.9905 C   0  0  0  0  0  0  0  0  0  0  0  0
   23.4067  -20.2906  -15.1536 C   0  0  2  0  0  0  0  0  0  0  0  0
   23.5545  -18.9915  -15.6891 N   0  0  0  0  0  0  0  0  0  0  0  0
   22.4895  -20.2350  -13.9966 C   0  0  0  0  0  0  0  0  0  0  0  0
   22.8960  -19.7148  -12.9285 O   0  0  0  0  0  0  0  0  0  0  0  0
   25.9510  -22.9377  -10.6497 N   0  0  0  0  0  0  0  0  0  0  0  0
   21.1709  -20.7273  -13.9976 C   0  0  1  0  0  0  0  0  0  0  0  0
   20.2482  -20.6010  -12.8626 C   0  0  0  0  0  0  0  0  0  0  0  0
   20.2162  -19.1922  -12.3624 C   0  0  0  0  0  0  0  0  0  0  0  0
   19.5263  -18.2843  -13.2937 C   0  0  0  0  0  0  0  0  0  0  0  0
   18.8774  -18.7354  -14.4482 N   0  0  0  0  0  0  0  0  0  0  0  0
   18.3069  -17.6725  -15.0478 C   0  0  0  0  0  0  0  0  0  0  0  0
   18.5419  -16.5345  -14.3548 C   0  0  0  0  0  0  0  0  0  0  0  0
   18.1786  -15.2199  -14.5651 C   0  0  0  0  0  0  0  0  0  0  0  0
   18.5803  -14.2618  -13.6721 C   0  0  0  0  0  0  0  0  0  0  0  0
   19.3331  -14.6496  -12.5971 C   0  0  0  0  0  0  0  0  0  0  0  0
   19.7140  -15.9680  -12.3600 C   0  0  0  0  0  0  0  0  0  0  0  0
   19.3073  -16.9324  -13.2603 C   0  0  0  0  0  0  0  0  0  0  0  0
   18.9717  -21.2464  -13.1118 O   0  0  0  0  0  0  0  0  0  0  0  0
   17.9636  -21.5170  -12.2167 O   0  0  0  0  0  0  0  0  0  0  0  0
  2  1  1  6
  2  3  1  0
  3  4  1  0
  4  9  2  0
  5  6  2  0
  5  4  1  0
  6  7  1  0
  7  8  2  0
  9  8  1  0
 10 11  2  0
 10  2  1  0
 12 13  1  0
 13 14  2  0
 13 15  1  0
 15 16  1  0
 16 17  1  0
 17 18  1  0
 19 18  1  1
 19 20  1  0
 20 10  1  0
 21 19  1  0
 21 23  1  0
 22 21  2  0
 24 23  1  0
 24 35  1  0
 24 25  1  1
 26 25  1  0
 27 26  2  0
 28 29  1  0
 28 27  1  0
 29 34  2  0
 30 29  1  0
 30 31  2  0
 31 32  1  0
 32 33  2  0
 34 26  1  0
 34 33  1  0
 35 36  1  0
 37 35  2  0
M  END
$$$$
