FRW.pdb
     RDKit          3D

 37 39  0  0  1  0  0  0  0  0999 V2000
   27.2712  -19.7080  -16.5211 N   0  0  0  0  0  0  0  0  0  0  0  0
   27.2545  -19.0621  -15.2244 C   0  0  1  0  0  0  0  0  0  0  0  0
   26.2288  -17.9816  -15.2060 C   0  0  0  0  0  0  0  0  0  0  0  0
   26.6800  -16.9264  -16.1540 C   0  0  0  0  0  0  0  0  0  0  0  0
   27.7656  -16.1107  -15.9094 C   0  0  0  0  0  0  0  0  0  0  0  0
   28.1811  -15.1403  -16.7890 C   0  0  0  0  0  0  0  0  0  0  0  0
   27.5143  -14.9479  -17.9636 C   0  0  0  0  0  0  0  0  0  0  0  0
   26.4160  -15.7550  -18.2383 C   0  0  0  0  0  0  0  0  0  0  0  0
   26.0145  -16.7193  -17.3499 C   0  0  0  0  0  0  0  0  0  0  0  0
   27.0369  -20.1170  -14.2008 C   0  0  0  0  0  0  0  0  0  0  0  0
   26.1131  -20.9664  -14.2585 O   0  0  0  0  0  0  0  0  0  0  0  0
   31.3797  -21.9796   -7.7697 N   0  0  0  0  0  0  0  0  0  0  0  0
   32.0860  -22.4095   -8.9333 C   0  0  0  0  0  0  0  0  0  0  0  0
   32.9341  -23.3547   -8.8732 N   0  0  0  0  0  0  0  0  0  0  0  0
   31.8283  -21.7642  -10.1898 N   0  0  0  0  0  0  0  0  0  0  0  0
   30.8118  -20.7460  -10.3228 C   0  0  0  0  0  0  0  0  0  0  0  0
   30.0158  -20.9940  -11.5549 C   0  0  0  0  0  0  0  0  0  0  0  0
   28.7355  -21.7252  -11.2224 C   0  0  0  0  0  0  0  0  0  0  0  0
   27.6024  -21.0703  -11.9148 C   0  0  2  0  0  0  0  0  0  0  0  0
   27.8701  -20.2625  -13.0427 N   0  0  0  0  0  0  0  0  0  0  0  0
   26.6208  -20.3834  -11.0503 C   0  0  0  0  0  0  0  0  0  0  0  0
   26.7136  -19.1400  -10.9012 O   0  0  0  0  0  0  0  0  0  0  0  0
   33.4648  -23.6657   -9.7037 N   0  0  0  0  0  0  0  0  0  0  0  0
   25.5693  -21.0245  -10.3687 C   0  0  2  0  0  0  0  0  0  0  0  0
   24.1580  -20.6388  -10.4908 C   0  0  0  0  0  0  0  0  0  0  0  0
   23.8173  -20.3259  -11.9127 C   0  0  0  0  0  0  0  0  0  0  0  0
   22.3982  -19.9725  -12.0822 C   0  0  0  0  0  0  0  0  0  0  0  0
   21.7297  -19.0941  -11.2226 N   0  0  0  0  0  0  0  0  0  0  0  0
   20.4712  -18.9420  -11.6785 C   0  0  0  0  0  0  0  0  0  0  0  0
   20.2636  -19.6740  -12.7973 C   0  0  0  0  0  0  0  0  0  0  0  0
   19.1619  -19.8470  -13.6101 C   0  0  0  0  0  0  0  0  0  0  0  0
   19.2530  -20.6778  -14.6957 C   0  0  0  0  0  0  0  0  0  0  0  0
   20.4438  -21.3092  -14.9331 C   0  0  0  0  0  0  0  0  0  0  0  0
   21.5709  -21.1530  -14.1303 C   0  0  0  0  0  0  0  0  0  0  0  0
   21.4777  -20.3146  -13.0374 C   0  0  0  0  0  0  0  0  0  0  0  0
   23.2727  -21.5435   -9.7794 O   0  0  0  0  0  0  0  0  0  0  0  0
   22.2601  -21.2325   -8.9028 O   0  0  0  0  0  0  0  0  0  0  0  0
  2  1  1  6
  2  3  1  0
  3  4  1  0
  4  9  2  0
  5  6  2  0
  5  4  1  0
  6  7  1  0
  7  8  2  0
  9  8  1  0
 10 11  2  0
 10  2  1  0
 12 13  1  0
 13 14  2  0
 13 15  1  0
 15 16  1  0
 16 17  1  0
 17 18  1  0
 19 18  1  1
 19 20  1  0
 20 10  1  0
 21 19  1  0
 21 23  1  0
 22 21  2  0
 24 23  1  0
 24 35  1  0
 24 25  1  6
 26 25  1  0
 27 26  2  0
 28 29  1  0
 28 27  1  0
 29 34  2  0
 30 29  1  0
 30 31  2  0
 31 32  1  0
 32 33  2  0
 34 26  1  0
 34 33  1  0
 35 36  1  0
 37 35  2  0
M  END
$$$$
