FRW.pdb
     RDKit          3D

 37 39  0  0  1  0  0  0  0  0999 V2000
   19.8784  -13.4537  -18.0007 N   0  0  0  0  0  0  0  0  0  0  0  0
   19.3128  -12.1254  -17.8807 C   0  0  1  0  0  0  0  0  0  0  0  0
   18.1296  -12.1546  -16.9756 C   0  0  0  0  0  0  0  0  0  0  0  0
   17.3657  -13.3942  -17.2849 C   0  0  0  0  0  0  0  0  0  0  0  0
   17.6520  -14.6161  -16.7117 C   0  0  0  0  0  0  0  0  0  0  0  0
   16.9419  -15.7572  -16.9971 C   0  0  0  0  0  0  0  0  0  0  0  0
   15.9033  -15.7160  -17.8808 C   0  0  0  0  0  0  0  0  0  0  0  0
   15.5907  -14.4985  -18.4747 C   0  0  0  0  0  0  0  0  0  0  0  0
   16.3092  -13.3686  -18.1787 C   0  0  0  0  0  0  0  0  0  0  0  0
   20.3965  -11.2159  -17.4266 C   0  0  0  0  0  0  0  0  0  0  0  0
   21.3726  -11.5866  -16.7280 O   0  0  0  0  0  0  0  0  0  0  0  0
   26.4972  -11.3601  -21.0246 N   0  0  0  0  0  0  0  0  0  0  0  0
   25.2303  -11.9382  -21.3381 C   0  0  0  0  0  0  0  0  0  0  0  0
   25.1202  -12.8240  -22.2434 N   0  0  0  0  0  0  0  0  0  0  0  0
   24.0656  -11.5126  -20.6143 N   0  0  0  0  0  0  0  0  0  0  0  0
   24.1503  -10.5392  -19.5498 C   0  0  0  0  0  0  0  0  0  0  0  0
   22.7829  -10.2115  -19.0640 C   0  0  0  0  0  0  0  0  0  0  0  0
   22.8492   -9.2592  -17.8921 C   0  0  0  0  0  0  0  0  0  0  0  0
   21.4751   -8.9159  -17.4605 C   0  0  2  0  0  0  0  0  0  0  0  0
   20.4267   -9.8186  -17.7478 N   0  0  0  0  0  0  0  0  0  0  0  0
   21.0240   -7.5408  -17.7580 C   0  0  0  0  0  0  0  0  0  0  0  0
   21.0575   -7.1384  -18.9469 O   0  0  0  0  0  0  0  0  0  0  0  0
   24.2090  -13.2478  -22.4847 N   0  0  0  0  0  0  0  0  0  0  0  0
   20.5497   -6.6294  -16.7958 C   0  0  1  0  0  0  0  0  0  0  0  0
   19.5882   -5.5585  -17.0854 C   0  0  0  0  0  0  0  0  0  0  0  0
   18.5378   -6.0351  -18.0371 C   0  0  0  0  0  0  0  0  0  0  0  0
   17.5216   -5.0051  -18.3088 C   0  0  0  0  0  0  0  0  0  0  0  0
   17.5184   -3.7593  -17.6722 N   0  0  0  0  0  0  0  0  0  0  0  0
   16.5001   -3.0360  -18.1769 C   0  0  0  0  0  0  0  0  0  0  0  0
   15.8219   -3.7341  -19.1167 C   0  0  0  0  0  0  0  0  0  0  0  0
   14.7250   -3.4300  -19.8969 C   0  0  0  0  0  0  0  0  0  0  0  0
   14.2474   -4.3653  -20.7766 C   0  0  0  0  0  0  0  0  0  0  0  0
   14.8827   -5.5754  -20.8475 C   0  0  0  0  0  0  0  0  0  0  0  0
   15.9908   -5.9091  -20.0730 C   0  0  0  0  0  0  0  0  0  0  0  0
   16.4715   -4.9650  -19.1878 C   0  0  0  0  0  0  0  0  0  0  0  0
   19.1369   -4.8791  -15.8842 O   0  0  0  0  0  0  0  0  0  0  0  0
   18.5650   -3.6337  -15.7723 O   0  0  0  0  0  0  0  0  0  0  0  0
  2  1  1  1
  2  3  1  0
  3  4  1  0
  4  9  2  0
  5  6  2  0
  5  4  1  0
  6  7  1  0
  7  8  2  0
  9  8  1  0
 10 11  2  0
 10  2  1  0
 12 13  1  0
 13 14  2  0
 13 15  1  0
 15 16  1  0
 16 17  1  0
 17 18  1  0
 19 18  1  6
 19 20  1  0
 20 10  1  0
 21 19  1  0
 21 23  1  0
 22 21  2  0
 24 23  1  0
 24 35  1  0
 24 25  1  6
 26 25  1  0
 27 26  2  0
 28 29  1  0
 28 27  1  0
 29 34  2  0
 30 29  1  0
 30 31  2  0
 31 32  1  0
 32 33  2  0
 34 26  1  0
 34 33  1  0
 35 36  1  0
 37 35  2  0
M  END
$$$$
