FRW.pdb
     RDKit          3D

 37 39  0  0  1  0  0  0  0  0999 V2000
   27.2222  -20.8940  -20.3545 N   0  0  0  0  0  0  0  0  0  0  0  0
   26.9435  -21.2723  -18.9840 C   0  0  1  0  0  0  0  0  0  0  0  0
   26.6064  -20.0642  -18.1798 C   0  0  0  0  0  0  0  0  0  0  0  0
   27.7973  -19.1715  -18.2009 C   0  0  0  0  0  0  0  0  0  0  0  0
   28.9962  -19.5037  -17.6044 C   0  0  0  0  0  0  0  0  0  0  0  0
   30.0944  -18.6784  -17.6295 C   0  0  0  0  0  0  0  0  0  0  0  0
   30.0312  -17.4713  -18.2622 C   0  0  0  0  0  0  0  0  0  0  0  0
   28.8361  -17.1086  -18.8730 C   0  0  0  0  0  0  0  0  0  0  0  0
   27.7493  -17.9442  -18.8391 C   0  0  0  0  0  0  0  0  0  0  0  0
   25.8681  -22.2973  -19.0116 C   0  0  0  0  0  0  0  0  0  0  0  0
   24.8618  -22.2339  -19.7609 O   0  0  0  0  0  0  0  0  0  0  0  0
   29.6839  -27.5167  -15.3610 N   0  0  0  0  0  0  0  0  0  0  0  0
   28.8059  -27.8178  -16.4455 C   0  0  0  0  0  0  0  0  0  0  0  0
   29.2472  -28.3250  -17.5245 N   0  0  0  0  0  0  0  0  0  0  0  0
   27.4027  -27.5458  -16.3095 N   0  0  0  0  0  0  0  0  0  0  0  0
   26.4817  -27.7577  -17.4025 C   0  0  0  0  0  0  0  0  0  0  0  0
   26.2096  -26.4633  -18.0834 C   0  0  0  0  0  0  0  0  0  0  0  0
   25.1378  -25.6912  -17.3489 C   0  0  0  0  0  0  0  0  0  0  0  0
   24.8571  -24.4309  -18.0736 C   0  0  2  0  0  0  0  0  0  0  0  0
   25.8816  -23.4634  -18.1769 N   0  0  0  0  0  0  0  0  0  0  0  0
   23.5868  -23.7558  -17.7369 C   0  0  0  0  0  0  0  0  0  0  0  0
   23.6298  -22.6189  -17.2054 O   0  0  0  0  0  0  0  0  0  0  0  0
   28.6288  -28.5192  -18.3295 N   0  0  0  0  0  0  0  0  0  0  0  0
   22.3081  -24.2959  -17.9704 C   0  0  1  0  0  0  0  0  0  0  0  0
   21.0546  -23.5856  -17.6888 C   0  0  0  0  0  0  0  0  0  0  0  0
   21.0999  -22.1960  -18.2393 C   0  0  0  0  0  0  0  0  0  0  0  0
   19.8474  -21.4598  -18.0013 C   0  0  0  0  0  0  0  0  0  0  0  0
   19.4644  -21.0089  -16.7335 N   0  0  0  0  0  0  0  0  0  0  0  0
   18.3068  -20.3322  -16.8641 C   0  0  0  0  0  0  0  0  0  0  0  0
   17.8958  -20.3086  -18.1528 C   0  0  0  0  0  0  0  0  0  0  0  0
   16.7936  -19.7561  -18.7726 C   0  0  0  0  0  0  0  0  0  0  0  0
   16.6390  -19.9062  -20.1255 C   0  0  0  0  0  0  0  0  0  0  0  0
   17.5925  -20.6047  -20.8152 C   0  0  0  0  0  0  0  0  0  0  0  0
   18.7142  -21.1725  -20.2163 C   0  0  0  0  0  0  0  0  0  0  0  0
   18.8690  -21.0192  -18.8530 C   0  0  0  0  0  0  0  0  0  0  0  0
   19.8829  -24.3849  -17.9992 O   0  0  0  0  0  0  0  0  0  0  0  0
   19.5691  -25.0159  -19.1799 O   0  0  0  0  0  0  0  0  0  0  0  0
  2  1  1  6
  2  3  1  0
  3  4  1  0
  4  9  2  0
  5  6  2  0
  5  4  1  0
  6  7  1  0
  7  8  2  0
  9  8  1  0
 10 11  2  0
 10  2  1  0
 12 13  1  0
 13 14  2  0
 13 15  1  0
 15 16  1  0
 16 17  1  0
 17 18  1  0
 19 18  1  1
 19 20  1  0
 20 10  1  0
 21 19  1  0
 21 23  1  0
 22 21  2  0
 24 23  1  0
 24 35  1  0
 24 25  1  1
 26 25  1  0
 27 26  2  0
 28 29  1  0
 28 27  1  0
 29 34  2  0
 30 29  1  0
 30 31  2  0
 31 32  1  0
 32 33  2  0
 34 26  1  0
 34 33  1  0
 35 36  1  0
 37 35  2  0
M  END
$$$$
