FRW.pdb
     RDKit          3D

 37 39  0  0  1  0  0  0  0  0999 V2000
   29.4819  -19.4685  -13.1806 N   0  0  0  0  0  0  0  0  0  0  0  0
   28.4741  -20.5087  -13.2151 C   0  0  1  0  0  0  0  0  0  0  0  0
   28.1434  -20.9446  -11.8292 C   0  0  0  0  0  0  0  0  0  0  0  0
   29.4234  -21.3066  -11.1613 C   0  0  0  0  0  0  0  0  0  0  0  0
   30.3201  -22.2096  -11.6945 C   0  0  0  0  0  0  0  0  0  0  0  0
   31.5025  -22.5382  -11.0766 C   0  0  0  0  0  0  0  0  0  0  0  0
   31.8353  -21.9661   -9.8836 C   0  0  0  0  0  0  0  0  0  0  0  0
   30.9516  -21.0518   -9.3213 C   0  0  0  0  0  0  0  0  0  0  0  0
   29.7756  -20.7345   -9.9512 C   0  0  0  0  0  0  0  0  0  0  0  0
   27.3111  -19.9812  -13.9746 C   0  0  0  0  0  0  0  0  0  0  0  0
   26.8475  -18.8230  -13.8269 O   0  0  0  0  0  0  0  0  0  0  0  0
   27.9225  -19.4982  -19.7764 N   0  0  0  0  0  0  0  0  0  0  0  0
   26.7702  -19.2279  -20.5744 C   0  0  0  0  0  0  0  0  0  0  0  0
   26.6886  -19.6486  -21.7713 N   0  0  0  0  0  0  0  0  0  0  0  0
   25.6871  -18.4723  -20.0109 N   0  0  0  0  0  0  0  0  0  0  0  0
   25.3968  -18.5064  -18.5958 C   0  0  0  0  0  0  0  0  0  0  0  0
   24.9388  -19.8692  -18.2135 C   0  0  0  0  0  0  0  0  0  0  0  0
   25.9760  -20.5576  -17.3564 C   0  0  0  0  0  0  0  0  0  0  0  0
   25.7135  -20.2556  -15.9309 C   0  0  2  0  0  0  0  0  0  0  0  0
   26.6052  -20.7542  -14.9548 N   0  0  0  0  0  0  0  0  0  0  0  0
   24.3257  -20.4604  -15.4672 C   0  0  0  0  0  0  0  0  0  0  0  0
   23.5150  -19.5049  -15.5482 O   0  0  0  0  0  0  0  0  0  0  0  0
   25.8677  -19.4472  -22.3661 N   0  0  0  0  0  0  0  0  0  0  0  0
   23.8310  -21.6649  -14.9328 C   0  0  2  0  0  0  0  0  0  0  0  0
   23.4876  -21.8538  -13.5180 C   0  0  0  0  0  0  0  0  0  0  0  0
   24.7135  -22.1392  -12.7107 C   0  0  0  0  0  0  0  0  0  0  0  0
   24.5858  -21.6767  -11.3188 C   0  0  0  0  0  0  0  0  0  0  0  0
   23.5254  -22.0578  -10.4895 N   0  0  0  0  0  0  0  0  0  0  0  0
   23.7295  -21.5120   -9.2749 C   0  0  0  0  0  0  0  0  0  0  0  0
   24.8702  -20.7850   -9.2498 C   0  0  0  0  0  0  0  0  0  0  0  0
   25.4885  -20.0496   -8.2592 C   0  0  0  0  0  0  0  0  0  0  0  0
   26.6613  -19.3994   -8.5393 C   0  0  0  0  0  0  0  0  0  0  0  0
   27.1780  -19.5057   -9.8021 C   0  0  0  0  0  0  0  0  0  0  0  0
   26.5761  -20.2404  -10.8204 C   0  0  0  0  0  0  0  0  0  0  0  0
   25.3949  -20.8960  -10.5361 C   0  0  0  0  0  0  0  0  0  0  0  0
   22.5913  -20.8243  -13.0231 O   0  0  0  0  0  0  0  0  0  0  0  0
   21.4339  -20.9780  -12.2968 O   0  0  0  0  0  0  0  0  0  0  0  0
  2  1  1  1
  2  3  1  0
  3  4  1  0
  4  9  2  0
  5  6  2  0
  5  4  1  0
  6  7  1  0
  7  8  2  0
  9  8  1  0
 10 11  2  0
 10  2  1  0
 12 13  1  0
 13 14  2  0
 13 15  1  0
 15 16  1  0
 16 17  1  0
 17 18  1  0
 19 18  1  6
 19 20  1  0
 20 10  1  0
 21 19  1  0
 21 23  1  0
 22 21  2  0
 24 23  1  0
 24 35  1  0
 24 25  1  6
 26 25  1  0
 27 26  2  0
 28 29  1  0
 28 27  1  0
 29 34  2  0
 30 29  1  0
 30 31  2  0
 31 32  1  0
 32 33  2  0
 34 26  1  0
 34 33  1  0
 35 36  1  0
 37 35  2  0
M  END
$$$$
