AYE.pdb
     RDKit          3D

 27 27  0  0  1  0  0  0  0  0999 V2000
    8.7827  -19.0222   19.3723 C   0  0  0  0  0  0  0  0  0  0  0  0
    8.5318  -17.5381   19.2299 C   0  0  2  0  0  0  0  0  0  0  0  0
    9.4904  -17.0282   18.2744 N   0  0  0  0  0  0  0  0  0  0  0  0
    8.6735  -16.8076   20.4885 C   0  0  0  0  0  0  0  0  0  0  0  0
    9.8292  -16.4843   20.8721 O   0  0  0  0  0  0  0  0  0  0  0  0
    7.3311  -12.1323   27.7203 O   0  0  0  0  0  0  0  0  0  0  0  0
    7.1342  -12.8413   26.5556 C   0  0  0  0  0  0  0  0  0  0  0  0
    7.4595  -12.2442   25.3383 C   0  0  0  0  0  0  0  0  0  0  0  0
    7.2707  -12.9353   24.1596 C   0  0  0  0  0  0  0  0  0  0  0  0
    6.7579  -14.2145   24.2301 C   0  0  0  0  0  0  0  0  0  0  0  0
    6.5556  -14.9520   22.9834 C   0  0  0  0  0  0  0  0  0  0  0  0
    7.8175  -15.6008   22.4659 C   0  0  2  0  0  0  0  0  0  0  0  0
    7.5877  -16.4316   21.3204 N   0  0  0  0  0  0  0  0  0  0  0  0
    8.4591  -16.4184   23.5477 C   0  0  0  0  0  0  0  0  0  0  0  0
    8.0343  -17.5508   23.8123 O   0  0  0  0  0  0  0  0  0  0  0  0
    6.4302  -14.8183   25.4435 C   0  0  0  0  0  0  0  0  0  0  0  0
    6.6220  -14.1205   26.6174 C   0  0  0  0  0  0  0  0  0  0  0  0
    9.5549  -15.9025   24.2749 N   0  0  0  0  0  0  0  0  0  0  0  0
   10.5121  -16.7046   24.9927 C   0  0  1  0  0  0  0  0  0  0  0  0
   11.8938  -16.3484   24.4289 C   0  0  0  0  0  0  0  0  0  0  0  0
   12.9004  -17.1749   25.2163 C   0  0  0  0  0  0  0  0  0  0  0  0
   14.2818  -16.8965   24.7788 C   0  0  0  0  0  0  0  0  0  0  0  0
   15.2363  -17.1047   25.5553 O   0  0  0  0  0  0  0  0  0  0  0  0
   10.4328  -16.4424   26.4304 C   0  0  0  0  0  0  0  0  0  0  0  0
   10.0533  -15.1987   26.8960 O   0  0  0  0  0  0  0  0  0  0  0  0
   14.5080  -16.4070   23.5114 O   0  0  0  0  0  0  0  0  0  0  0  0
   10.7106  -17.3505   27.2470 O   0  0  0  0  0  0  0  0  0  0  0  0
  2  1  1  1
  2  4  1  0
  3  2  1  0
  4 13  1  0
  5  4  2  0
  7  6  1  0
  8  7  2  0
  9  8  1  0
 10 16  1  0
 10  9  2  0
 11 10  1  0
 12 14  1  0
 12 11  1  1
 13 12  1  0
 14 15  2  0
 16 17  2  0
 17  7  1  0
 18 19  1  0
 18 14  1  0
 19 20  1  6
 20 21  1  0
 21 22  1  0
 22 23  2  0
 22 26  1  0
 24 25  1  0
 24 19  1  0
 27 24  2  0
M  END
$$$$
