AYE.pdb
     RDKit          3D

 27 27  0  0  1  0  0  0  0  0999 V2000
    8.5566  -18.3104   19.4348 C   0  0  0  0  0  0  0  0  0  0  0  0
    8.8929  -16.8417   19.3102 C   0  0  2  0  0  0  0  0  0  0  0  0
   10.1628  -16.7466   18.6246 N   0  0  0  0  0  0  0  0  0  0  0  0
    8.9924  -16.1630   20.6014 C   0  0  0  0  0  0  0  0  0  0  0  0
   10.0761  -16.2362   21.2400 O   0  0  0  0  0  0  0  0  0  0  0  0
    7.3676  -12.1304   28.1511 O   0  0  0  0  0  0  0  0  0  0  0  0
    7.2660  -12.5844   26.8544 C   0  0  0  0  0  0  0  0  0  0  0  0
    7.9761  -11.9264   25.8509 C   0  0  0  0  0  0  0  0  0  0  0  0
    7.8894  -12.3636   24.5454 C   0  0  0  0  0  0  0  0  0  0  0  0
    7.0889  -13.4550   24.2764 C   0  0  0  0  0  0  0  0  0  0  0  0
    6.9932  -13.9229   22.8940 C   0  0  0  0  0  0  0  0  0  0  0  0
    8.1077  -14.8662   22.5079 C   0  0  2  0  0  0  0  0  0  0  0  0
    7.9415  -15.4176   21.1951 N   0  0  0  0  0  0  0  0  0  0  0  0
    8.2068  -15.9838   23.5036 C   0  0  0  0  0  0  0  0  0  0  0  0
    7.4751  -16.9776   23.4046 O   0  0  0  0  0  0  0  0  0  0  0  0
    6.3758  -14.1181   25.2744 C   0  0  0  0  0  0  0  0  0  0  0  0
    6.4680  -13.6747   26.5770 C   0  0  0  0  0  0  0  0  0  0  0  0
    9.1370  -15.9119   24.5644 N   0  0  0  0  0  0  0  0  0  0  0  0
    9.5264  -17.0266   25.3894 C   0  0  1  0  0  0  0  0  0  0  0  0
   10.6510  -17.7543   24.6415 C   0  0  0  0  0  0  0  0  0  0  0  0
   11.0380  -18.9439   25.5084 C   0  0  0  0  0  0  0  0  0  0  0  0
   12.1656  -19.6919   24.9201 C   0  0  0  0  0  0  0  0  0  0  0  0
   12.8012  -20.5112   25.6145 O   0  0  0  0  0  0  0  0  0  0  0  0
    9.9655  -16.5667   26.7076 C   0  0  0  0  0  0  0  0  0  0  0  0
   10.0185  -17.4431   27.7738 O   0  0  0  0  0  0  0  0  0  0  0  0
   12.5092  -19.4792   23.6033 O   0  0  0  0  0  0  0  0  0  0  0  0
   10.2962  -15.3702   26.8732 O   0  0  0  0  0  0  0  0  0  0  0  0
  2  1  1  1
  2  4  1  0
  3  2  1  0
  4 13  1  0
  5  4  2  0
  7  6  1  0
  8  7  2  0
  9  8  1  0
 10 16  1  0
 10  9  2  0
 11 10  1  0
 12 14  1  0
 12 11  1  1
 13 12  1  0
 14 15  2  0
 16 17  2  0
 17  7  1  0
 18 19  1  0
 18 14  1  0
 19 20  1  6
 20 21  1  0
 21 22  1  0
 22 23  2  0
 22 26  1  0
 24 25  1  0
 24 19  1  0
 27 24  2  0
M  END
$$$$
