AYE.pdb
     RDKit          3D

 27 27  0  0  1  0  0  0  0  0999 V2000
    9.9390  -20.0258   20.4648 C   0  0  0  0  0  0  0  0  0  0  0  0
    9.5628  -18.6197   20.0560 C   0  0  2  0  0  0  0  0  0  0  0  0
   10.3935  -18.2616   18.9274 N   0  0  0  0  0  0  0  0  0  0  0  0
    9.7552  -17.6395   21.1238 C   0  0  0  0  0  0  0  0  0  0  0  0
   10.9075  -17.1638   21.3063 O   0  0  0  0  0  0  0  0  0  0  0  0
    7.4205  -11.9800   18.7135 O   0  0  0  0  0  0  0  0  0  0  0  0
    7.5503  -12.7828   19.8255 C   0  0  0  0  0  0  0  0  0  0  0  0
    8.6029  -12.5474   20.7092 C   0  0  0  0  0  0  0  0  0  0  0  0
    8.7523  -13.3386   21.8292 C   0  0  0  0  0  0  0  0  0  0  0  0
    7.8384  -14.3515   22.0371 C   0  0  0  0  0  0  0  0  0  0  0  0
    7.9920  -15.1935   23.2231 C   0  0  0  0  0  0  0  0  0  0  0  0
    9.0303  -16.2769   23.0517 C   0  0  2  0  0  0  0  0  0  0  0  0
    8.7228  -17.1792   21.9810 N   0  0  0  0  0  0  0  0  0  0  0  0
    9.1798  -17.0552   24.3254 C   0  0  0  0  0  0  0  0  0  0  0  0
    8.2428  -17.7421   24.7533 O   0  0  0  0  0  0  0  0  0  0  0  0
    6.7833  -14.5930   21.1581 C   0  0  0  0  0  0  0  0  0  0  0  0
    6.6410  -13.7973   20.0407 C   0  0  0  0  0  0  0  0  0  0  0  0
   10.3926  -17.0110   25.0485 N   0  0  0  0  0  0  0  0  0  0  0  0
   10.6474  -17.7378   26.2658 C   0  0  1  0  0  0  0  0  0  0  0  0
   12.1454  -18.0689   26.2738 C   0  0  0  0  0  0  0  0  0  0  0  0
   12.4124  -18.8626   25.0029 C   0  0  0  0  0  0  0  0  0  0  0  0
   13.8390  -19.2195   24.8833 C   0  0  0  0  0  0  0  0  0  0  0  0
   14.6509  -18.8463   25.7545 O   0  0  0  0  0  0  0  0  0  0  0  0
   10.2651  -16.9423   27.4333 C   0  0  0  0  0  0  0  0  0  0  0  0
    9.9350  -15.6083   27.2948 O   0  0  0  0  0  0  0  0  0  0  0  0
   14.2654  -19.9650   23.8065 O   0  0  0  0  0  0  0  0  0  0  0  0
   10.2361  -17.4724   28.5677 O   0  0  0  0  0  0  0  0  0  0  0  0
  2  1  1  1
  2  4  1  0
  3  2  1  0
  4 13  1  0
  5  4  2  0
  7  6  1  0
  8  7  2  0
  9  8  1  0
 10 16  1  0
 10  9  2  0
 11 10  1  0
 12 14  1  0
 12 11  1  1
 13 12  1  0
 14 15  2  0
 16 17  2  0
 17  7  1  0
 18 19  1  0
 18 14  1  0
 19 20  1  1
 20 21  1  0
 21 22  1  0
 22 23  2  0
 22 26  1  0
 24 25  1  0
 24 19  1  0
 27 24  2  0
M  END
$$$$
