AYE.pdb
     RDKit          3D

 27 27  0  0  1  0  0  0  0  0999 V2000
    7.6526  -17.6877   20.2045 C   0  0  0  0  0  0  0  0  0  0  0  0
    8.1942  -16.3027   20.4764 C   0  0  2  0  0  0  0  0  0  0  0  0
    9.1821  -16.0183   19.4590 N   0  0  0  0  0  0  0  0  0  0  0  0
    8.8130  -16.1759   21.7951 C   0  0  0  0  0  0  0  0  0  0  0  0
   10.0359  -16.4533   21.9174 O   0  0  0  0  0  0  0  0  0  0  0  0
   10.6758  -14.4148   30.1211 O   0  0  0  0  0  0  0  0  0  0  0  0
   10.0282  -14.5059   28.9086 C   0  0  0  0  0  0  0  0  0  0  0  0
    9.3161  -15.6667   28.6090 C   0  0  0  0  0  0  0  0  0  0  0  0
    8.6599  -15.7800   27.4009 C   0  0  0  0  0  0  0  0  0  0  0  0
    8.7341  -14.7218   26.5183 C   0  0  0  0  0  0  0  0  0  0  0  0
    8.0403  -14.8364   25.2358 C   0  0  0  0  0  0  0  0  0  0  0  0
    8.8445  -15.5705   24.1891 C   0  0  2  0  0  0  0  0  0  0  0  0
    8.1255  -15.7570   22.9631 N   0  0  0  0  0  0  0  0  0  0  0  0
    9.2789  -16.9067   24.7146 C   0  0  0  0  0  0  0  0  0  0  0  0
    8.4679  -17.8378   24.8053 O   0  0  0  0  0  0  0  0  0  0  0  0
    9.4442  -13.5580   26.8107 C   0  0  0  0  0  0  0  0  0  0  0  0
   10.0973  -13.4527   28.0207 C   0  0  0  0  0  0  0  0  0  0  0  0
   10.6189  -17.1145   25.1111 N   0  0  0  0  0  0  0  0  0  0  0  0
   11.1761  -18.3913   25.4774 C   0  0  1  0  0  0  0  0  0  0  0  0
   12.3686  -18.6339   24.5431 C   0  0  0  0  0  0  0  0  0  0  0  0
   12.3064  -20.1019   24.1465 C   0  0  0  0  0  0  0  0  0  0  0  0
   13.4269  -20.4652   23.2579 C   0  0  0  0  0  0  0  0  0  0  0  0
   14.2733  -19.6060   22.9375 O   0  0  0  0  0  0  0  0  0  0  0  0
   11.5835  -18.3944   26.8831 C   0  0  0  0  0  0  0  0  0  0  0  0
   11.6017  -19.5718   27.6048 O   0  0  0  0  0  0  0  0  0  0  0  0
   13.5303  -21.7555   22.7869 O   0  0  0  0  0  0  0  0  0  0  0  0
   11.9187  -17.3230   27.4384 O   0  0  0  0  0  0  0  0  0  0  0  0
  2  1  1  6
  2  4  1  0
  3  2  1  0
  4 13  1  0
  5  4  2  0
  7  6  1  0
  8  7  2  0
  9  8  1  0
 10 16  1  0
 10  9  2  0
 11 10  1  0
 12 14  1  0
 12 11  1  1
 13 12  1  0
 14 15  2  0
 16 17  2  0
 17  7  1  0
 18 19  1  0
 18 14  1  0
 19 20  1  6
 20 21  1  0
 21 22  1  0
 22 23  2  0
 22 26  1  0
 24 25  1  0
 24 19  1  0
 27 24  2  0
M  END
$$$$
