AYE.pdb
     RDKit          3D

 27 27  0  0  1  0  0  0  0  0999 V2000
    7.0800  -15.2373   19.8354 C   0  0  0  0  0  0  0  0  0  0  0  0
    7.2154  -13.9655   20.6417 C   0  0  2  0  0  0  0  0  0  0  0  0
    7.8589  -12.9847   19.7956 N   0  0  0  0  0  0  0  0  0  0  0  0
    8.0036  -14.1389   21.8609 C   0  0  0  0  0  0  0  0  0  0  0  0
    9.2550  -14.0084   21.7944 O   0  0  0  0  0  0  0  0  0  0  0  0
   10.8247  -15.0211   30.0497 O   0  0  0  0  0  0  0  0  0  0  0  0
   10.0164  -14.8741   28.9438 C   0  0  0  0  0  0  0  0  0  0  0  0
    9.8576  -13.6056   28.3872 C   0  0  0  0  0  0  0  0  0  0  0  0
    9.0531  -13.4349   27.2798 C   0  0  0  0  0  0  0  0  0  0  0  0
    8.4242  -14.5454   26.7548 C   0  0  0  0  0  0  0  0  0  0  0  0
    7.5699  -14.3702   25.5806 C   0  0  0  0  0  0  0  0  0  0  0  0
    8.3085  -14.5544   24.2761 C   0  0  2  0  0  0  0  0  0  0  0  0
    7.4526  -14.4477   23.1311 N   0  0  0  0  0  0  0  0  0  0  0  0
    8.9963  -15.8874   24.2557 C   0  0  0  0  0  0  0  0  0  0  0  0
    8.3510  -16.9219   24.0402 O   0  0  0  0  0  0  0  0  0  0  0  0
    8.5781  -15.8170   27.3058 C   0  0  0  0  0  0  0  0  0  0  0  0
    9.3842  -15.9791   28.4129 C   0  0  0  0  0  0  0  0  0  0  0  0
   10.3880  -15.9741   24.4824 N   0  0  0  0  0  0  0  0  0  0  0  0
   11.1679  -17.1766   24.3393 C   0  0  1  0  0  0  0  0  0  0  0  0
   12.3898  -16.8085   23.4878 C   0  0  0  0  0  0  0  0  0  0  0  0
   13.2481  -18.0630   23.4108 C   0  0  0  0  0  0  0  0  0  0  0  0
   14.3403  -17.9061   22.4312 C   0  0  0  0  0  0  0  0  0  0  0  0
   14.6090  -18.8347   21.6419 O   0  0  0  0  0  0  0  0  0  0  0  0
   11.5612  -17.6975   25.6493 C   0  0  0  0  0  0  0  0  0  0  0  0
   11.8002  -19.0466   25.8240 O   0  0  0  0  0  0  0  0  0  0  0  0
   15.0580  -16.7310   22.3956 O   0  0  0  0  0  0  0  0  0  0  0  0
   11.6828  -16.9167   26.6209 O   0  0  0  0  0  0  0  0  0  0  0  0
  2  1  1  6
  2  4  1  0
  3  2  1  0
  4 13  1  0
  5  4  2  0
  7  6  1  0
  8  7  2  0
  9  8  1  0
 10 16  1  0
 10  9  2  0
 11 10  1  0
 12 14  1  0
 12 11  1  1
 13 12  1  0
 14 15  2  0
 16 17  2  0
 17  7  1  0
 18 19  1  0
 18 14  1  0
 19 20  1  6
 20 21  1  0
 21 22  1  0
 22 23  2  0
 22 26  1  0
 24 25  1  0
 24 19  1  0
 27 24  2  0
M  END
$$$$
