AYE.pdb
     RDKit          3D

 27 27  0  0  1  0  0  0  0  0999 V2000
    8.9947  -18.8119   19.4363 C   0  0  0  0  0  0  0  0  0  0  0  0
    9.0111  -17.3061   19.3022 C   0  0  2  0  0  0  0  0  0  0  0  0
   10.1719  -16.9557   18.5137 N   0  0  0  0  0  0  0  0  0  0  0  0
    9.0785  -16.6149   20.5889 C   0  0  0  0  0  0  0  0  0  0  0  0
   10.2055  -16.4497   21.1272 O   0  0  0  0  0  0  0  0  0  0  0  0
    7.3864  -12.0889   27.8447 O   0  0  0  0  0  0  0  0  0  0  0  0
    7.2796  -12.6890   26.6093 C   0  0  0  0  0  0  0  0  0  0  0  0
    6.4475  -13.7988   26.4672 C   0  0  0  0  0  0  0  0  0  0  0  0
    6.3252  -14.4157   25.2395 C   0  0  0  0  0  0  0  0  0  0  0  0
    7.0436  -13.9025   24.1789 C   0  0  0  0  0  0  0  0  0  0  0  0
    6.9177  -14.5526   22.8748 C   0  0  0  0  0  0  0  0  0  0  0  0
    8.1291  -15.3738   22.5013 C   0  0  2  0  0  0  0  0  0  0  0  0
    7.9498  -16.1098   21.2843 N   0  0  0  0  0  0  0  0  0  0  0  0
    8.4688  -16.3267   23.6089 C   0  0  0  0  0  0  0  0  0  0  0  0
    7.7801  -17.3380   23.7983 O   0  0  0  0  0  0  0  0  0  0  0  0
    7.8776  -12.7932   24.3131 C   0  0  0  0  0  0  0  0  0  0  0  0
    7.9943  -12.1823   25.5440 C   0  0  0  0  0  0  0  0  0  0  0  0
    9.5788  -16.0781   24.4467 N   0  0  0  0  0  0  0  0  0  0  0  0
   10.0061  -16.9410   25.5179 C   0  0  1  0  0  0  0  0  0  0  0  0
   11.4616  -17.3230   25.2197 C   0  0  0  0  0  0  0  0  0  0  0  0
   11.4160  -18.2850   24.0411 C   0  0  0  0  0  0  0  0  0  0  0  0
   12.7706  -18.7234   23.6540 C   0  0  0  0  0  0  0  0  0  0  0  0
   13.6723  -18.7969   24.5136 O   0  0  0  0  0  0  0  0  0  0  0  0
    9.8804  -16.2642   26.8095 C   0  0  0  0  0  0  0  0  0  0  0  0
    9.9619  -16.9811   27.9872 O   0  0  0  0  0  0  0  0  0  0  0  0
   13.0305  -19.0494   22.3412 O   0  0  0  0  0  0  0  0  0  0  0  0
    9.6976  -15.0259   26.8503 O   0  0  0  0  0  0  0  0  0  0  0  0
  2  1  1  1
  2  4  1  0
  3  2  1  0
  4 13  1  0
  5  4  2  0
  7  6  1  0
  8  7  2  0
  9  8  1  0
 10 16  1  0
 10  9  2  0
 11 10  1  0
 12 14  1  0
 12 11  1  1
 13 12  1  0
 14 15  2  0
 16 17  2  0
 17  7  1  0
 18 19  1  0
 18 14  1  0
 19 20  1  6
 20 21  1  0
 21 22  1  0
 22 23  2  0
 22 26  1  0
 24 25  1  0
 24 19  1  0
 27 24  2  0
M  END
$$$$
