AYE.pdb
     RDKit          3D

 27 27  0  0  1  0  0  0  0  0999 V2000
    7.1281  -14.9486   19.3923 C   0  0  0  0  0  0  0  0  0  0  0  0
    7.1598  -13.7780   20.3486 C   0  0  2  0  0  0  0  0  0  0  0  0
    7.7462  -12.6600   19.6428 N   0  0  0  0  0  0  0  0  0  0  0  0
    7.9382  -14.0440   21.5574 C   0  0  0  0  0  0  0  0  0  0  0  0
    9.1954  -14.0009   21.4877 O   0  0  0  0  0  0  0  0  0  0  0  0
   10.7011  -14.7118   29.7749 O   0  0  0  0  0  0  0  0  0  0  0  0
    9.8953  -14.6303   28.6605 C   0  0  0  0  0  0  0  0  0  0  0  0
    9.3795  -15.8043   28.1129 C   0  0  0  0  0  0  0  0  0  0  0  0
    8.5704  -15.7468   26.9972 C   0  0  0  0  0  0  0  0  0  0  0  0
    8.2967  -14.5076   26.4549 C   0  0  0  0  0  0  0  0  0  0  0  0
    7.4393  -14.4407   25.2719 C   0  0  0  0  0  0  0  0  0  0  0  0
    8.2136  -14.4647   23.9753 C   0  0  2  0  0  0  0  0  0  0  0  0
    7.3712  -14.3516   22.8209 N   0  0  0  0  0  0  0  0  0  0  0  0
    9.0180  -15.7271   23.8774 C   0  0  0  0  0  0  0  0  0  0  0  0
    8.4719  -16.7958   23.5729 O   0  0  0  0  0  0  0  0  0  0  0  0
    8.8088  -13.3294   26.9968 C   0  0  0  0  0  0  0  0  0  0  0  0
    9.6169  -13.3956   28.1123 C   0  0  0  0  0  0  0  0  0  0  0  0
   10.4075  -15.7075   24.1320 N   0  0  0  0  0  0  0  0  0  0  0  0
   11.2757  -16.8521   24.0269 C   0  0  1  0  0  0  0  0  0  0  0  0
   12.5973  -16.3474   23.4334 C   0  0  0  0  0  0  0  0  0  0  0  0
   13.5294  -17.5496   23.3871 C   0  0  0  0  0  0  0  0  0  0  0  0
   14.8225  -17.2020   22.7674 C   0  0  0  0  0  0  0  0  0  0  0  0
   14.9051  -16.2162   22.0066 O   0  0  0  0  0  0  0  0  0  0  0  0
   11.4755  -17.4724   25.3374 C   0  0  0  0  0  0  0  0  0  0  0  0
   11.5240  -16.6972   26.4796 O   0  0  0  0  0  0  0  0  0  0  0  0
   15.9332  -17.9715   23.0347 O   0  0  0  0  0  0  0  0  0  0  0  0
   11.6039  -18.7149   25.4271 O   0  0  0  0  0  0  0  0  0  0  0  0
  2  1  1  6
  2  4  1  0
  3  2  1  0
  4 13  1  0
  5  4  2  0
  7  6  1  0
  8  7  2  0
  9  8  1  0
 10 16  1  0
 10  9  2  0
 11 10  1  0
 12 14  1  0
 12 11  1  1
 13 12  1  0
 14 15  2  0
 16 17  2  0
 17  7  1  0
 18 19  1  0
 18 14  1  0
 19 20  1  1
 20 21  1  0
 21 22  1  0
 22 23  2  0
 22 26  1  0
 24 25  1  0
 24 19  1  0
 27 24  2  0
M  END
$$$$
