AYE.pdb
     RDKit          3D

 27 27  0  0  1  0  0  0  0  0999 V2000
    8.3795  -15.6410   18.9212 C   0  0  0  0  0  0  0  0  0  0  0  0
    7.8947  -14.4970   19.7826 C   0  0  2  0  0  0  0  0  0  0  0  0
    8.4096  -13.2745   19.2062 N   0  0  0  0  0  0  0  0  0  0  0  0
    8.3375  -14.5961   21.1725 C   0  0  0  0  0  0  0  0  0  0  0  0
    9.4868  -14.1751   21.4715 O   0  0  0  0  0  0  0  0  0  0  0  0
    6.5930  -10.1265   27.2074 O   0  0  0  0  0  0  0  0  0  0  0  0
    6.6867  -11.3358   26.5542 C   0  0  0  0  0  0  0  0  0  0  0  0
    5.6645  -12.2705   26.7139 C   0  0  0  0  0  0  0  0  0  0  0  0
    5.7372  -13.4880   26.0694 C   0  0  0  0  0  0  0  0  0  0  0  0
    6.8383  -13.7399   25.2766 C   0  0  0  0  0  0  0  0  0  0  0  0
    6.9207  -15.0292   24.5909 C   0  0  0  0  0  0  0  0  0  0  0  0
    8.0350  -15.0903   23.5732 C   0  0  2  0  0  0  0  0  0  0  0  0
    7.5549  -15.1400   22.2234 N   0  0  0  0  0  0  0  0  0  0  0  0
    8.9055  -16.2844   23.8316 C   0  0  0  0  0  0  0  0  0  0  0  0
    8.4859  -17.4266   23.6033 O   0  0  0  0  0  0  0  0  0  0  0  0
    7.8644  -12.8103   25.1120 C   0  0  0  0  0  0  0  0  0  0  0  0
    7.7840  -11.5955   25.7599 C   0  0  0  0  0  0  0  0  0  0  0  0
   10.2134  -16.1156   24.3384 N   0  0  0  0  0  0  0  0  0  0  0  0
   11.0842  -17.1930   24.7331 C   0  0  1  0  0  0  0  0  0  0  0  0
   12.5152  -16.6425   24.6800 C   0  0  0  0  0  0  0  0  0  0  0  0
   12.9919  -16.8343   23.2474 C   0  0  0  0  0  0  0  0  0  0  0  0
   14.3591  -16.3110   23.0625 C   0  0  0  0  0  0  0  0  0  0  0  0
   14.5309  -15.1521   22.6327 O   0  0  0  0  0  0  0  0  0  0  0  0
   10.7406  -17.6723   26.0726 C   0  0  0  0  0  0  0  0  0  0  0  0
   11.1933  -18.8998   26.5151 O   0  0  0  0  0  0  0  0  0  0  0  0
   15.4395  -17.1091   23.3672 O   0  0  0  0  0  0  0  0  0  0  0  0
   10.0310  -16.9664   26.8253 O   0  0  0  0  0  0  0  0  0  0  0  0
  2  1  1  6
  2  4  1  0
  3  2  1  0
  4 13  1  0
  5  4  2  0
  7  6  1  0
  8  7  2  0
  9  8  1  0
 10 16  1  0
 10  9  2  0
 11 10  1  0
 12 14  1  0
 12 11  1  1
 13 12  1  0
 14 15  2  0
 16 17  2  0
 17  7  1  0
 18 19  1  0
 18 14  1  0
 19 20  1  1
 20 21  1  0
 21 22  1  0
 22 23  2  0
 22 26  1  0
 24 25  1  0
 24 19  1  0
 27 24  2  0
M  END
$$$$
