AYE.pdb
     RDKit          3D

 27 27  0  0  1  0  0  0  0  0999 V2000
    8.4130  -19.0875   19.6101 C   0  0  0  0  0  0  0  0  0  0  0  0
    8.5254  -17.6095   19.3124 C   0  0  2  0  0  0  0  0  0  0  0  0
    9.6467  -17.4341   18.4157 N   0  0  0  0  0  0  0  0  0  0  0  0
    8.7360  -16.7963   20.5091 C   0  0  0  0  0  0  0  0  0  0  0  0
    9.9021  -16.7007   20.9766 O   0  0  0  0  0  0  0  0  0  0  0  0
    7.7531  -12.1558   27.8228 O   0  0  0  0  0  0  0  0  0  0  0  0
    7.5548  -12.7131   26.5786 C   0  0  0  0  0  0  0  0  0  0  0  0
    6.5896  -13.7085   26.4306 C   0  0  0  0  0  0  0  0  0  0  0  0
    6.3739  -14.2807   25.1941 C   0  0  0  0  0  0  0  0  0  0  0  0
    7.1347  -13.8390   24.1310 C   0  0  0  0  0  0  0  0  0  0  0  0
    6.9103  -14.4422   22.8176 C   0  0  0  0  0  0  0  0  0  0  0  0
    7.9981  -15.4093   22.4146 C   0  0  2  0  0  0  0  0  0  0  0  0
    7.7070  -16.0974   21.1912 N   0  0  0  0  0  0  0  0  0  0  0  0
    8.2250  -16.4149   23.5044 C   0  0  0  0  0  0  0  0  0  0  0  0
    7.4696  -17.3883   23.6256 O   0  0  0  0  0  0  0  0  0  0  0  0
    8.1017  -12.8442   24.2711 C   0  0  0  0  0  0  0  0  0  0  0  0
    8.3111  -12.2773   25.5107 C   0  0  0  0  0  0  0  0  0  0  0  0
    9.3041  -16.2597   24.4029 N   0  0  0  0  0  0  0  0  0  0  0  0
    9.7268  -17.2546   25.3549 C   0  0  1  0  0  0  0  0  0  0  0  0
   10.9473  -17.9556   24.7443 C   0  0  0  0  0  0  0  0  0  0  0  0
   11.4175  -18.9685   25.7783 C   0  0  0  0  0  0  0  0  0  0  0  0
   12.6293  -19.6765   25.3229 C   0  0  0  0  0  0  0  0  0  0  0  0
   13.4339  -19.1076   24.5572 O   0  0  0  0  0  0  0  0  0  0  0  0
   10.0485  -16.6362   26.6418 C   0  0  0  0  0  0  0  0  0  0  0  0
   10.0310  -17.3844   27.8027 O   0  0  0  0  0  0  0  0  0  0  0  0
   12.8640  -20.9654   25.7483 O   0  0  0  0  0  0  0  0  0  0  0  0
   10.3421  -15.4198   26.6940 O   0  0  0  0  0  0  0  0  0  0  0  0
  2  1  1  1
  2  4  1  0
  3  2  1  0
  4 13  1  0
  5  4  2  0
  7  6  1  0
  8  7  2  0
  9  8  1  0
 10 16  1  0
 10  9  2  0
 11 10  1  0
 12 14  1  0
 12 11  1  1
 13 12  1  0
 14 15  2  0
 16 17  2  0
 17  7  1  0
 18 19  1  0
 18 14  1  0
 19 20  1  6
 20 21  1  0
 21 22  1  0
 22 23  2  0
 22 26  1  0
 24 25  1  0
 24 19  1  0
 27 24  2  0
M  END
$$$$
