AYE.pdb
     RDKit          3D

 27 27  0  0  1  0  0  0  0  0999 V2000
    9.0136  -18.4533   18.2145 C   0  0  0  0  0  0  0  0  0  0  0  0
    9.1178  -18.7628   19.6906 C   0  0  2  0  0  0  0  0  0  0  0  0
    7.7790  -19.0212   20.1729 N   0  0  0  0  0  0  0  0  0  0  0  0
    9.7054  -17.6719   20.4668 C   0  0  0  0  0  0  0  0  0  0  0  0
   10.9236  -17.3984   20.2976 O   0  0  0  0  0  0  0  0  0  0  0  0
    6.6556  -12.4953   17.5059 O   0  0  0  0  0  0  0  0  0  0  0  0
    7.1433  -13.0248   18.6805 C   0  0  0  0  0  0  0  0  0  0  0  0
    8.4009  -12.6249   19.1307 C   0  0  0  0  0  0  0  0  0  0  0  0
    8.9093  -13.1420   20.3041 C   0  0  0  0  0  0  0  0  0  0  0  0
    8.1407  -14.0519   21.0011 C   0  0  0  0  0  0  0  0  0  0  0  0
    8.6748  -14.6035   22.2460 C   0  0  0  0  0  0  0  0  0  0  0  0
    9.6234  -15.7579   22.0252 C   0  0  2  0  0  0  0  0  0  0  0  0
    8.9921  -16.8883   21.4100 N   0  0  0  0  0  0  0  0  0  0  0  0
   10.2332  -16.1819   23.3286 C   0  0  0  0  0  0  0  0  0  0  0  0
    9.5122  -16.5151   24.2784 O   0  0  0  0  0  0  0  0  0  0  0  0
    6.8824  -14.4567   20.5574 C   0  0  0  0  0  0  0  0  0  0  0  0
    6.3814  -13.9349   19.3832 C   0  0  0  0  0  0  0  0  0  0  0  0
   11.6372  -16.2048   23.4838 N   0  0  0  0  0  0  0  0  0  0  0  0
   12.3344  -16.9105   24.5281 C   0  0  1  0  0  0  0  0  0  0  0  0
   12.3074  -18.3964   24.1473 C   0  0  0  0  0  0  0  0  0  0  0  0
   11.7749  -19.1380   25.3651 C   0  0  0  0  0  0  0  0  0  0  0  0
   12.3163  -20.5087   25.4373 C   0  0  0  0  0  0  0  0  0  0  0  0
   13.2406  -20.8556   24.6740 O   0  0  0  0  0  0  0  0  0  0  0  0
   13.7045  -16.4137   24.6632 C   0  0  0  0  0  0  0  0  0  0  0  0
   14.3851  -16.5509   25.8573 O   0  0  0  0  0  0  0  0  0  0  0  0
   11.7949  -21.3983   26.3504 O   0  0  0  0  0  0  0  0  0  0  0  0
   14.2665  -15.8596   23.6908 O   0  0  0  0  0  0  0  0  0  0  0  0
  2  1  1  6
  2  4  1  0
  3  2  1  0
  4 13  1  0
  5  4  2  0
  7  6  1  0
  8  7  2  0
  9  8  1  0
 10 16  1  0
 10  9  2  0
 11 10  1  0
 12 14  1  0
 12 11  1  1
 13 12  1  0
 14 15  2  0
 16 17  2  0
 17  7  1  0
 18 19  1  0
 18 14  1  0
 19 20  1  6
 20 21  1  0
 21 22  1  0
 22 23  2  0
 22 26  1  0
 24 25  1  0
 24 19  1  0
 27 24  2  0
M  END
$$$$
