NYG.pdb
     RDKit          3D

 25 25  0  0  1  0  0  0  0  0999 V2000
    6.8588  -13.5798   18.5964 N   0  0  0  0  0  0  0  0  0  0  0  0
    8.1240  -13.9539   19.0954 C   0  0  0  0  0  0  0  0  0  0  0  0
    8.9987  -14.4138   18.3360 O   0  0  0  0  0  0  0  0  0  0  0  0
    8.4155  -13.7993   20.5326 C   0  0  0  0  0  0  0  0  0  0  0  0
    8.8324  -15.1485   21.0896 C   0  0  2  0  0  0  0  0  0  0  0  0
    7.6776  -16.0223   20.9643 N   0  0  0  0  0  0  0  0  0  0  0  0
    9.2659  -15.0529   22.4927 C   0  0  0  0  0  0  0  0  0  0  0  0
   10.1604  -14.2227   22.8031 O   0  0  0  0  0  0  0  0  0  0  0  0
    6.1990  -10.2947   26.7871 O   0  0  0  0  0  0  0  0  0  0  0  0
    6.6285  -11.5935   26.5383 C   0  0  0  0  0  0  0  0  0  0  0  0
    5.9540  -12.4480   25.6913 C   0  0  0  0  0  0  0  0  0  0  0  0
    6.3663  -13.7305   25.4369 C   0  0  0  0  0  0  0  0  0  0  0  0
    7.5072  -14.2287   26.0382 C   0  0  0  0  0  0  0  0  0  0  0  0
    7.9474  -15.6128   25.7691 C   0  0  0  0  0  0  0  0  0  0  0  0
    9.1890  -15.6974   24.9157 C   0  0  2  0  0  0  0  0  0  0  0  0
    8.7249  -15.8546   23.5293 N   0  0  0  0  0  0  0  0  0  0  0  0
   10.0025  -16.8771   25.2782 C   0  0  0  0  0  0  0  0  0  0  0  0
   10.6972  -16.8624   26.3355 O   0  0  0  0  0  0  0  0  0  0  0  0
    8.2009  -13.3778   26.8976 C   0  0  0  0  0  0  0  0  0  0  0  0
    7.7669  -12.0874   27.1397 C   0  0  0  0  0  0  0  0  0  0  0  0
   10.0494  -18.0424   24.4966 N   0  0  0  0  0  0  0  0  0  0  0  0
   11.2597  -18.4157   23.8008 C   0  0  0  0  0  0  0  0  0  0  0  0
   12.3304  -18.8216   24.7218 C   0  0  0  0  0  0  0  0  0  0  0  0
   13.4985  -18.4039   24.5298 O   0  0  0  0  0  0  0  0  0  0  0  0
   12.0712  -19.6540   25.7933 O   0  0  0  0  0  0  0  0  0  0  0  0
  1  2  1  0
  2  4  1  0
  2  3  2  0
  4  5  1  0
  5  7  1  0
  5  6  1  1
  7  8  2  0
  9 10  1  0
 10 20  2  0
 10 11  1  0
 11 12  2  0
 12 13  1  0
 13 14  1  0
 15 14  1  1
 15 17  1  0
 16 15  1  0
 16  7  1  0
 17 18  2  0
 17 21  1  0
 19 13  2  0
 20 19  1  0
 21 22  1  0
 22 23  1  0
 23 24  2  0
 23 25  1  0
M  END
$$$$
