NYG.pdb
     RDKit          3D

 25 25  0  0  1  0  0  0  0  0999 V2000
   11.9458  -17.9283   16.8647 N   0  0  0  0  0  0  0  0  0  0  0  0
   11.7651  -18.2105   18.2348 C   0  0  0  0  0  0  0  0  0  0  0  0
   12.1721  -19.2820   18.7244 O   0  0  0  0  0  0  0  0  0  0  0  0
   11.0867  -17.2266   19.0984 C   0  0  0  0  0  0  0  0  0  0  0  0
   11.1698  -17.7062   20.5363 C   0  0  2  0  0  0  0  0  0  0  0  0
   10.1610  -18.7421   20.6856 N   0  0  0  0  0  0  0  0  0  0  0  0
   10.9417  -16.6125   21.4940 C   0  0  0  0  0  0  0  0  0  0  0  0
   11.7425  -15.6410   21.5176 O   0  0  0  0  0  0  0  0  0  0  0  0
    7.0191  -12.9380   18.0226 O   0  0  0  0  0  0  0  0  0  0  0  0
    7.3212  -13.4437   19.2821 C   0  0  0  0  0  0  0  0  0  0  0  0
    6.9229  -14.6991   19.6921 C   0  0  0  0  0  0  0  0  0  0  0  0
    7.2140  -15.2100   20.9305 C   0  0  0  0  0  0  0  0  0  0  0  0
    7.9389  -14.4632   21.8405 C   0  0  0  0  0  0  0  0  0  0  0  0
    8.2466  -15.0114   23.1772 C   0  0  0  0  0  0  0  0  0  0  0  0
    9.6782  -15.4628   23.3308 C   0  0  2  0  0  0  0  0  0  0  0  0
    9.8552  -16.5909   22.4044 N   0  0  0  0  0  0  0  0  0  0  0  0
    9.9405  -15.9356   24.7066 C   0  0  0  0  0  0  0  0  0  0  0  0
    9.5738  -15.2349   25.6941 O   0  0  0  0  0  0  0  0  0  0  0  0
    8.3492  -13.1917   21.4419 C   0  0  0  0  0  0  0  0  0  0  0  0
    8.0445  -12.6962   20.1874 C   0  0  0  0  0  0  0  0  0  0  0  0
   10.5898  -17.1484   24.9870 N   0  0  0  0  0  0  0  0  0  0  0  0
   10.7735  -17.5885   26.3511 C   0  0  0  0  0  0  0  0  0  0  0  0
   11.4749  -18.8774   26.4320 C   0  0  0  0  0  0  0  0  0  0  0  0
   11.6888  -19.3920   27.5568 O   0  0  0  0  0  0  0  0  0  0  0  0
   11.9012  -19.5295   25.2914 O   0  0  0  0  0  0  0  0  0  0  0  0
  1  2  1  0
  2  4  1  0
  2  3  2  0
  4  5  1  0
  5  7  1  0
  5  6  1  6
  7  8  2  0
  9 10  1  0
 10 20  2  0
 10 11  1  0
 11 12  2  0
 12 13  1  0
 13 14  1  0
 15 14  1  1
 15 17  1  0
 16 15  1  0
 16  7  1  0
 17 18  2  0
 17 21  1  0
 19 13  2  0
 20 19  1  0
 21 22  1  0
 22 23  1  0
 23 24  2  0
 23 25  1  0
M  END
$$$$
