NYG.pdb
     RDKit          3D

 25 25  0  0  1  0  0  0  0  0999 V2000
    7.3775  -13.2755   17.4121 N   0  0  0  0  0  0  0  0  0  0  0  0
    8.2017  -14.0957   18.2105 C   0  0  0  0  0  0  0  0  0  0  0  0
    8.6837  -15.1512   17.7556 O   0  0  0  0  0  0  0  0  0  0  0  0
    8.4969  -13.7000   19.5999 C   0  0  0  0  0  0  0  0  0  0  0  0
    8.4945  -14.9450   20.4685 C   0  0  2  0  0  0  0  0  0  0  0  0
    7.1284  -15.4416   20.4757 N   0  0  0  0  0  0  0  0  0  0  0  0
    8.9546  -14.6605   21.8371 C   0  0  0  0  0  0  0  0  0  0  0  0
    9.6121  -13.6093   22.0570 O   0  0  0  0  0  0  0  0  0  0  0  0
    5.7731  -10.5493   26.9767 O   0  0  0  0  0  0  0  0  0  0  0  0
    6.3510  -11.7420   26.5566 C   0  0  0  0  0  0  0  0  0  0  0  0
    7.6792  -12.0410   26.7786 C   0  0  0  0  0  0  0  0  0  0  0  0
    8.2617  -13.2128   26.3702 C   0  0  0  0  0  0  0  0  0  0  0  0
    7.5167  -14.1660   25.7009 C   0  0  0  0  0  0  0  0  0  0  0  0
    8.1464  -15.4257   25.2550 C   0  0  0  0  0  0  0  0  0  0  0  0
    9.2642  -15.2243   24.2617 C   0  0  2  0  0  0  0  0  0  0  0  0
    8.6951  -15.5158   22.9375 N   0  0  0  0  0  0  0  0  0  0  0  0
   10.3755  -16.1653   24.5158 C   0  0  0  0  0  0  0  0  0  0  0  0
   11.0747  -16.0461   25.5634 O   0  0  0  0  0  0  0  0  0  0  0  0
    6.1723  -13.8794   25.4681 C   0  0  0  0  0  0  0  0  0  0  0  0
    5.6053  -12.6906   25.8891 C   0  0  0  0  0  0  0  0  0  0  0  0
   10.7077  -17.2102   23.6389 N   0  0  0  0  0  0  0  0  0  0  0  0
   11.8170  -18.0904   23.9270 C   0  0  0  0  0  0  0  0  0  0  0  0
   11.4893  -19.0809   24.9620 C   0  0  0  0  0  0  0  0  0  0  0  0
   10.3384  -19.0893   25.4632 O   0  0  0  0  0  0  0  0  0  0  0  0
   12.4266  -20.0007   25.3903 O   0  0  0  0  0  0  0  0  0  0  0  0
  1  2  1  0
  2  4  1  0
  2  3  2  0
  4  5  1  0
  5  7  1  0
  5  6  1  1
  7  8  2  0
  9 10  1  0
 10 20  2  0
 10 11  1  0
 11 12  2  0
 12 13  1  0
 13 14  1  0
 15 14  1  1
 15 17  1  0
 16 15  1  0
 16  7  1  0
 17 18  2  0
 17 21  1  0
 19 13  2  0
 20 19  1  0
 21 22  1  0
 22 23  1  0
 23 24  2  0
 23 25  1  0
M  END
$$$$
