NYG.pdb
     RDKit          3D

 25 25  0  0  1  0  0  0  0  0999 V2000
    8.1933  -19.4191   17.0221 N   0  0  0  0  0  0  0  0  0  0  0  0
    9.3636  -19.4123   17.8094 C   0  0  0  0  0  0  0  0  0  0  0  0
   10.1084  -20.4106   17.8538 O   0  0  0  0  0  0  0  0  0  0  0  0
    9.7103  -18.2100   18.5894 C   0  0  0  0  0  0  0  0  0  0  0  0
    9.9306  -18.6178   20.0350 C   0  0  2  0  0  0  0  0  0  0  0  0
    8.6656  -19.1526   20.5111 N   0  0  0  0  0  0  0  0  0  0  0  0
   10.3642  -17.4831   20.8656 C   0  0  0  0  0  0  0  0  0  0  0  0
   11.4326  -16.8833   20.5750 O   0  0  0  0  0  0  0  0  0  0  0  0
    7.0250  -12.7537   17.9180 O   0  0  0  0  0  0  0  0  0  0  0  0
    7.4717  -13.2893   19.1209 C   0  0  0  0  0  0  0  0  0  0  0  0
    6.6088  -13.7522   20.0923 C   0  0  0  0  0  0  0  0  0  0  0  0
    7.0355  -14.2827   21.2822 C   0  0  0  0  0  0  0  0  0  0  0  0
    8.3866  -14.3756   21.5600 C   0  0  0  0  0  0  0  0  0  0  0  0
    8.8459  -14.9410   22.8451 C   0  0  0  0  0  0  0  0  0  0  0  0
   10.0674  -15.8178   22.7178 C   0  0  2  0  0  0  0  0  0  0  0  0
    9.6359  -17.0208   21.9906 N   0  0  0  0  0  0  0  0  0  0  0  0
   10.5695  -16.2240   24.0474 C   0  0  0  0  0  0  0  0  0  0  0  0
   10.7350  -15.3542   24.9510 O   0  0  0  0  0  0  0  0  0  0  0  0
    9.2727  -13.9118   20.5885 C   0  0  0  0  0  0  0  0  0  0  0  0
    8.8201  -13.3804   19.3949 C   0  0  0  0  0  0  0  0  0  0  0  0
   10.8812  -17.5537   24.3729 N   0  0  0  0  0  0  0  0  0  0  0  0
   11.2780  -17.9108   25.7158 C   0  0  0  0  0  0  0  0  0  0  0  0
   11.6532  -19.3272   25.8288 C   0  0  0  0  0  0  0  0  0  0  0  0
   11.6603  -20.0458   24.7997 O   0  0  0  0  0  0  0  0  0  0  0  0
   11.9974  -19.8781   27.0479 O   0  0  0  0  0  0  0  0  0  0  0  0
  1  2  1  0
  2  4  1  0
  2  3  2  0
  4  5  1  0
  5  7  1  0
  5  6  1  1
  7  8  2  0
  9 10  1  0
 10 20  2  0
 10 11  1  0
 11 12  2  0
 12 13  1  0
 13 14  1  0
 15 14  1  1
 15 17  1  0
 16 15  1  0
 16  7  1  0
 17 18  2  0
 17 21  1  0
 19 13  2  0
 20 19  1  0
 21 22  1  0
 22 23  1  0
 23 24  2  0
 23 25  1  0
M  END
$$$$
