NYG.pdb
     RDKit          3D

 25 25  0  0  1  0  0  0  0  0999 V2000
    9.9659  -16.9713   18.8233 N   0  0  0  0  0  0  0  0  0  0  0  0
    9.6133  -15.6289   19.0745 C   0  0  0  0  0  0  0  0  0  0  0  0
    9.5911  -14.7917   18.1514 O   0  0  0  0  0  0  0  0  0  0  0  0
    9.2670  -15.2105   20.4453 C   0  0  0  0  0  0  0  0  0  0  0  0
    9.4273  -16.4033   21.3704 C   0  0  2  0  0  0  0  0  0  0  0  0
    8.2489  -17.2335   21.1827 N   0  0  0  0  0  0  0  0  0  0  0  0
    9.5589  -15.9931   22.7775 C   0  0  0  0  0  0  0  0  0  0  0  0
   10.4923  -15.2135   23.1043 O   0  0  0  0  0  0  0  0  0  0  0  0
    6.4152  -10.2671   26.3459 O   0  0  0  0  0  0  0  0  0  0  0  0
    6.6987  -11.6222   26.2175 C   0  0  0  0  0  0  0  0  0  0  0  0
    7.5280  -12.2923   27.0926 C   0  0  0  0  0  0  0  0  0  0  0  0
    7.8158  -13.6278   26.9779 C   0  0  0  0  0  0  0  0  0  0  0  0
    7.2689  -14.3735   25.9502 C   0  0  0  0  0  0  0  0  0  0  0  0
    7.5846  -15.8110   25.8230 C   0  0  0  0  0  0  0  0  0  0  0  0
    8.9347  -16.0811   25.2054 C   0  0  2  0  0  0  0  0  0  0  0  0
    8.6811  -16.4326   23.8003 N   0  0  0  0  0  0  0  0  0  0  0  0
    9.6008  -17.2238   25.8655 C   0  0  0  0  0  0  0  0  0  0  0  0
    8.9189  -18.0414   26.5490 O   0  0  0  0  0  0  0  0  0  0  0  0
    6.4284  -13.7112   25.0565 C   0  0  0  0  0  0  0  0  0  0  0  0
    6.1516  -12.3632   25.1912 C   0  0  0  0  0  0  0  0  0  0  0  0
   10.9818  -17.4595   25.7749 N   0  0  0  0  0  0  0  0  0  0  0  0
   11.7634  -17.7292   26.9601 C   0  0  0  0  0  0  0  0  0  0  0  0
   11.5292  -19.0808   27.4875 C   0  0  0  0  0  0  0  0  0  0  0  0
   10.6624  -19.8104   26.9472 O   0  0  0  0  0  0  0  0  0  0  0  0
   12.2472  -19.5590   28.5664 O   0  0  0  0  0  0  0  0  0  0  0  0
  1  2  1  0
  2  4  1  0
  2  3  2  0
  4  5  1  0
  5  7  1  0
  5  6  1  1
  7  8  2  0
  9 10  1  0
 10 20  2  0
 10 11  1  0
 11 12  2  0
 12 13  1  0
 13 14  1  0
 15 14  1  1
 15 17  1  0
 16 15  1  0
 16  7  1  0
 17 18  2  0
 17 21  1  0
 19 13  2  0
 20 19  1  0
 21 22  1  0
 22 23  1  0
 23 24  2  0
 23 25  1  0
M  END
$$$$
