NYG.pdb
     RDKit          3D

 25 25  0  0  1  0  0  0  0  0999 V2000
    7.8126  -21.5745   16.1649 N   0  0  0  0  0  0  0  0  0  0  0  0
    8.0757  -20.6228   15.1576 C   0  0  0  0  0  0  0  0  0  0  0  0
    7.5797  -20.7436   14.0206 O   0  0  0  0  0  0  0  0  0  0  0  0
    8.9479  -19.4711   15.4529 C   0  0  0  0  0  0  0  0  0  0  0  0
    8.0893  -18.2218   15.5327 C   0  0  2  0  0  0  0  0  0  0  0  0
    8.1927  -17.5656   14.2398 N   0  0  0  0  0  0  0  0  0  0  0  0
    8.5276  -17.3225   16.6119 C   0  0  0  0  0  0  0  0  0  0  0  0
    9.7275  -16.9420   16.6438 O   0  0  0  0  0  0  0  0  0  0  0  0
    8.0932  -11.8234   23.6349 O   0  0  0  0  0  0  0  0  0  0  0  0
    7.8074  -12.6933   22.5886 C   0  0  0  0  0  0  0  0  0  0  0  0
    7.8862  -12.3124   21.2652 C   0  0  0  0  0  0  0  0  0  0  0  0
    7.6076  -13.1595   20.2240 C   0  0  0  0  0  0  0  0  0  0  0  0
    7.2260  -14.4654   20.4701 C   0  0  0  0  0  0  0  0  0  0  0  0
    6.9193  -15.3760   19.3482 C   0  0  0  0  0  0  0  0  0  0  0  0
    8.1457  -15.9039   18.6452 C   0  0  2  0  0  0  0  0  0  0  0  0
    7.6621  -16.8539   17.6323 N   0  0  0  0  0  0  0  0  0  0  0  0
    9.0275  -16.6254   19.5868 C   0  0  0  0  0  0  0  0  0  0  0  0
    8.7531  -17.8142   19.9216 O   0  0  0  0  0  0  0  0  0  0  0  0
    7.1412  -14.8666   21.8027 C   0  0  0  0  0  0  0  0  0  0  0  0
    7.4270  -13.9951   22.8374 C   0  0  0  0  0  0  0  0  0  0  0  0
   10.1813  -16.0524   20.1449 N   0  0  0  0  0  0  0  0  0  0  0  0
   11.0253  -16.8136   21.0374 C   0  0  0  0  0  0  0  0  0  0  0  0
   10.9741  -16.3115   22.4177 C   0  0  0  0  0  0  0  0  0  0  0  0
   10.2763  -16.9173   23.2672 O   0  0  0  0  0  0  0  0  0  0  0  0
   11.6809  -15.1857   22.7931 O   0  0  0  0  0  0  0  0  0  0  0  0
  1  2  1  0
  2  4  1  0
  2  3  2  0
  4  5  1  0
  5  7  1  0
  5  6  1  6
  7  8  2  0
  9 10  1  0
 10 20  2  0
 10 11  1  0
 11 12  2  0
 12 13  1  0
 13 14  1  0
 15 14  1  1
 15 17  1  0
 16 15  1  0
 16  7  1  0
 17 18  2  0
 17 21  1  0
 19 13  2  0
 20 19  1  0
 21 22  1  0
 22 23  1  0
 23 24  2  0
 23 25  1  0
M  END
$$$$
