NYG.pdb
     RDKit          3D

 25 25  0  0  1  0  0  0  0  0999 V2000
    8.0955  -14.1496   16.5512 N   0  0  0  0  0  0  0  0  0  0  0  0
    7.9156  -15.0466   17.6247 C   0  0  0  0  0  0  0  0  0  0  0  0
    7.0454  -15.9373   17.5728 O   0  0  0  0  0  0  0  0  0  0  0  0
    8.7670  -14.9296   18.8229 C   0  0  0  0  0  0  0  0  0  0  0  0
    8.0036  -14.1602   19.8858 C   0  0  2  0  0  0  0  0  0  0  0  0
    7.8587  -12.8018   19.3890 N   0  0  0  0  0  0  0  0  0  0  0  0
    8.7031  -14.1716   21.1804 C   0  0  0  0  0  0  0  0  0  0  0  0
    9.6410  -13.3549   21.3780 O   0  0  0  0  0  0  0  0  0  0  0  0
    6.1818  -10.3894   27.0545 O   0  0  0  0  0  0  0  0  0  0  0  0
    6.6255  -11.5607   26.4508 C   0  0  0  0  0  0  0  0  0  0  0  0
    6.1375  -12.0005   25.2379 C   0  0  0  0  0  0  0  0  0  0  0  0
    6.5661  -13.1529   24.6315 C   0  0  0  0  0  0  0  0  0  0  0  0
    7.5317  -13.9396   25.2317 C   0  0  0  0  0  0  0  0  0  0  0  0
    7.9883  -15.1848   24.5813 C   0  0  0  0  0  0  0  0  0  0  0  0
    9.0525  -14.9650   23.5343 C   0  0  2  0  0  0  0  0  0  0  0  0
    8.3753  -15.0632   22.2328 N   0  0  0  0  0  0  0  0  0  0  0  0
   10.0920  -16.0134   23.6064 C   0  0  0  0  0  0  0  0  0  0  0  0
   10.7556  -16.1703   24.6720 O   0  0  0  0  0  0  0  0  0  0  0  0
    8.0354  -13.5093   26.4585 C   0  0  0  0  0  0  0  0  0  0  0  0
    7.5887  -12.3432   27.0521 C   0  0  0  0  0  0  0  0  0  0  0  0
   10.3925  -16.8665   22.5326 N   0  0  0  0  0  0  0  0  0  0  0  0
   11.4402  -17.8553   22.6469 C   0  0  0  0  0  0  0  0  0  0  0  0
   11.6254  -18.6184   21.4047 C   0  0  0  0  0  0  0  0  0  0  0  0
   12.5221  -19.4951   21.3491 O   0  0  0  0  0  0  0  0  0  0  0  0
   10.8292  -18.3859   20.3002 O   0  0  0  0  0  0  0  0  0  0  0  0
  1  2  1  0
  2  4  1  0
  2  3  2  0
  4  5  1  0
  5  7  1  0
  5  6  1  6
  7  8  2  0
  9 10  1  0
 10 20  2  0
 10 11  1  0
 11 12  2  0
 12 13  1  0
 13 14  1  0
 15 14  1  1
 15 17  1  0
 16 15  1  0
 16  7  1  0
 17 18  2  0
 17 21  1  0
 19 13  2  0
 20 19  1  0
 21 22  1  0
 22 23  1  0
 23 24  2  0
 23 25  1  0
M  END
$$$$
