NYG.pdb
     RDKit          3D

 25 25  0  0  1  0  0  0  0  0999 V2000
    6.8438  -13.4778   18.1360 N   0  0  0  0  0  0  0  0  0  0  0  0
    8.0525  -14.0216   18.6187 C   0  0  0  0  0  0  0  0  0  0  0  0
    8.7571  -14.7521   17.8953 O   0  0  0  0  0  0  0  0  0  0  0  0
    8.4880  -13.7226   19.9953 C   0  0  0  0  0  0  0  0  0  0  0  0
    8.8418  -15.0277   20.6852 C   0  0  2  0  0  0  0  0  0  0  0  0
    7.6513  -15.8602   20.6308 N   0  0  0  0  0  0  0  0  0  0  0  0
    9.2676  -14.8148   22.0776 C   0  0  0  0  0  0  0  0  0  0  0  0
   10.1492  -13.9501   22.3240 O   0  0  0  0  0  0  0  0  0  0  0  0
    5.8390  -10.4801   27.0111 O   0  0  0  0  0  0  0  0  0  0  0  0
    6.3911  -11.6995   26.6347 C   0  0  0  0  0  0  0  0  0  0  0  0
    6.1401  -12.2802   25.4090 C   0  0  0  0  0  0  0  0  0  0  0  0
    6.6777  -13.4814   25.0250 C   0  0  0  0  0  0  0  0  0  0  0  0
    7.5160  -14.1750   25.8780 C   0  0  0  0  0  0  0  0  0  0  0  0
    8.0898  -15.4726   25.4667 C   0  0  0  0  0  0  0  0  0  0  0  0
    9.2655  -15.3440   24.5296 C   0  0  2  0  0  0  0  0  0  0  0  0
    8.7332  -15.5392   23.1729 N   0  0  0  0  0  0  0  0  0  0  0  0
   10.2737  -16.3914   24.7968 C   0  0  0  0  0  0  0  0  0  0  0  0
   10.9282  -16.3743   25.8794 O   0  0  0  0  0  0  0  0  0  0  0  0
    7.7800  -13.6019   27.1213 C   0  0  0  0  0  0  0  0  0  0  0  0
    7.2268  -12.3888   27.4879 C   0  0  0  0  0  0  0  0  0  0  0  0
   10.5535  -17.4305   23.8950 N   0  0  0  0  0  0  0  0  0  0  0  0
   11.5594  -18.4219   24.2010 C   0  0  0  0  0  0  0  0  0  0  0  0
   11.0523  -19.4750   25.0918 C   0  0  0  0  0  0  0  0  0  0  0  0
    9.8643  -19.4215   25.4937 O   0  0  0  0  0  0  0  0  0  0  0  0
   11.8615  -20.5203   25.4924 O   0  0  0  0  0  0  0  0  0  0  0  0
  1  2  1  0
  2  4  1  0
  2  3  2  0
  4  5  1  0
  5  7  1  0
  5  6  1  1
  7  8  2  0
  9 10  1  0
 10 20  2  0
 10 11  1  0
 11 12  2  0
 12 13  1  0
 13 14  1  0
 15 14  1  1
 15 17  1  0
 16 15  1  0
 16  7  1  0
 17 18  2  0
 17 21  1  0
 19 13  2  0
 20 19  1  0
 21 22  1  0
 22 23  1  0
 23 24  2  0
 23 25  1  0
M  END
$$$$
