NYG.pdb
     RDKit          3D

 25 25  0  0  1  0  0  0  0  0999 V2000
   11.3138  -17.8353   17.4913 N   0  0  0  0  0  0  0  0  0  0  0  0
   10.0506  -17.7348   18.1110 C   0  0  0  0  0  0  0  0  0  0  0  0
    9.1333  -18.5274   17.8215 O   0  0  0  0  0  0  0  0  0  0  0  0
    9.8121  -16.6798   19.1131 C   0  0  0  0  0  0  0  0  0  0  0  0
   10.0855  -17.2519   20.4924 C   0  0  2  0  0  0  0  0  0  0  0  0
    9.1333  -18.3327   20.6879 N   0  0  0  0  0  0  0  0  0  0  0  0
    9.9451  -16.2346   21.5464 C   0  0  0  0  0  0  0  0  0  0  0  0
   10.7264  -15.2471   21.5536 O   0  0  0  0  0  0  0  0  0  0  0  0
    6.2355  -10.9915   27.6527 O   0  0  0  0  0  0  0  0  0  0  0  0
    6.5148  -11.9804   26.7160 C   0  0  0  0  0  0  0  0  0  0  0  0
    6.3109  -13.3208   26.9698 C   0  0  0  0  0  0  0  0  0  0  0  0
    6.5817  -14.3059   26.0557 C   0  0  0  0  0  0  0  0  0  0  0  0
    7.0839  -13.9819   24.8090 C   0  0  0  0  0  0  0  0  0  0  0  0
    7.3820  -15.0441   23.8267 C   0  0  0  0  0  0  0  0  0  0  0  0
    8.8570  -15.2386   23.5753 C   0  0  2  0  0  0  0  0  0  0  0  0
    8.9654  -16.3051   22.5687 N   0  0  0  0  0  0  0  0  0  0  0  0
    9.5513  -15.6768   24.8045 C   0  0  0  0  0  0  0  0  0  0  0  0
    9.5258  -14.9460   25.8369 O   0  0  0  0  0  0  0  0  0  0  0  0
    7.2961  -12.6312   24.5363 C   0  0  0  0  0  0  0  0  0  0  0  0
    7.0158  -11.6539   25.4735 C   0  0  0  0  0  0  0  0  0  0  0  0
   10.2552  -16.8883   24.8940 N   0  0  0  0  0  0  0  0  0  0  0  0
   11.0182  -17.2124   26.0776 C   0  0  0  0  0  0  0  0  0  0  0  0
   11.7539  -18.4770   25.9384 C   0  0  0  0  0  0  0  0  0  0  0  0
   11.5306  -19.4109   26.7468 O   0  0  0  0  0  0  0  0  0  0  0  0
   12.6853  -18.6527   24.9336 O   0  0  0  0  0  0  0  0  0  0  0  0
  1  2  1  0
  2  4  1  0
  2  3  2  0
  4  5  1  0
  5  7  1  0
  5  6  1  1
  7  8  2  0
  9 10  1  0
 10 20  2  0
 10 11  1  0
 11 12  2  0
 12 13  1  0
 13 14  1  0
 15 14  1  1
 15 17  1  0
 16 15  1  0
 16  7  1  0
 17 18  2  0
 17 21  1  0
 19 13  2  0
 20 19  1  0
 21 22  1  0
 22 23  1  0
 23 24  2  0
 23 25  1  0
M  END
$$$$
