NYG.pdb
     RDKit          3D

 25 25  0  0  1  0  0  0  0  0999 V2000
    7.8260  -14.7246   16.9981 N   0  0  0  0  0  0  0  0  0  0  0  0
    7.7509  -15.3645   18.2529 C   0  0  0  0  0  0  0  0  0  0  0  0
    6.8454  -16.1854   18.4972 O   0  0  0  0  0  0  0  0  0  0  0  0
    8.7553  -15.0589   19.2883 C   0  0  0  0  0  0  0  0  0  0  0  0
    8.0675  -14.3334   20.4306 C   0  0  2  0  0  0  0  0  0  0  0  0
    7.9918  -12.9337   20.0456 N   0  0  0  0  0  0  0  0  0  0  0  0
    8.7983  -14.4881   21.6985 C   0  0  0  0  0  0  0  0  0  0  0  0
    9.8589  -13.8337   21.8788 O   0  0  0  0  0  0  0  0  0  0  0  0
    5.9639  -10.4795   27.0366 O   0  0  0  0  0  0  0  0  0  0  0  0
    6.4473  -11.6926   26.5591 C   0  0  0  0  0  0  0  0  0  0  0  0
    5.7049  -12.5145   25.7369 C   0  0  0  0  0  0  0  0  0  0  0  0
    6.1690  -13.7126   25.2589 C   0  0  0  0  0  0  0  0  0  0  0  0
    7.4358  -14.1537   25.5937 C   0  0  0  0  0  0  0  0  0  0  0  0
    7.9331  -15.4479   25.0840 C   0  0  0  0  0  0  0  0  0  0  0  0
    9.0297  -15.3121   24.0564 C   0  0  2  0  0  0  0  0  0  0  0  0
    8.3689  -15.3449   22.7432 N   0  0  0  0  0  0  0  0  0  0  0  0
    9.9760  -16.4447   24.1376 C   0  0  0  0  0  0  0  0  0  0  0  0
   10.5774  -16.6864   25.2241 O   0  0  0  0  0  0  0  0  0  0  0  0
    8.1995  -13.3347   26.4244 C   0  0  0  0  0  0  0  0  0  0  0  0
    7.7112  -12.1297   26.8950 C   0  0  0  0  0  0  0  0  0  0  0  0
   10.2524  -17.2890   23.0505 N   0  0  0  0  0  0  0  0  0  0  0  0
   11.1635  -18.4015   23.1934 C   0  0  0  0  0  0  0  0  0  0  0  0
   12.4999  -18.1003   22.6614 C   0  0  0  0  0  0  0  0  0  0  0  0
   13.0436  -18.9088   21.8698 O   0  0  0  0  0  0  0  0  0  0  0  0
   13.1650  -16.9435   23.0185 O   0  0  0  0  0  0  0  0  0  0  0  0
  1  2  1  0
  2  4  1  0
  2  3  2  0
  4  5  1  0
  5  7  1  0
  5  6  1  6
  7  8  2  0
  9 10  1  0
 10 20  2  0
 10 11  1  0
 11 12  2  0
 12 13  1  0
 13 14  1  0
 15 14  1  1
 15 17  1  0
 16 15  1  0
 16  7  1  0
 17 18  2  0
 17 21  1  0
 19 13  2  0
 20 19  1  0
 21 22  1  0
 22 23  1  0
 23 24  2  0
 23 25  1  0
M  END
$$$$
