QCC.pdb
     RDKit          3D

 22 21  0  0  1  0  0  0  0  0999 V2000
   17.4886  -10.3542  -19.0553 N   0  0  0  0  0  0  0  0  0  0  0  0
   18.5373  -11.3328  -19.0622 C   0  0  0  0  0  0  0  0  0  0  0  0
   18.5981  -12.0899  -20.0499 O   0  0  0  0  0  0  0  0  0  0  0  0
   19.4449  -11.3583  -17.9133 C   0  0  0  0  0  0  0  0  0  0  0  0
   19.1946  -10.3731  -16.8391 C   0  0  0  0  0  0  0  0  0  0  0  0
   20.2595   -9.3940  -16.5300 C   0  0  2  0  0  0  0  0  0  0  0  0
   21.5374   -9.9590  -16.1702 N   0  0  0  0  0  0  0  0  0  0  0  0
   19.8316   -8.3282  -15.5813 C   0  0  0  0  0  0  0  0  0  0  0  0
   19.0898   -8.6591  -14.6212 O   0  0  0  0  0  0  0  0  0  0  0  0
   20.2166   -6.9967  -15.7151 N   0  0  0  0  0  0  0  0  0  0  0  0
   19.8786   -5.9293  -14.7741 C   0  0  1  0  0  0  0  0  0  0  0  0
   20.4770   -6.2184  -13.4216 C   0  0  0  0  0  0  0  0  0  0  0  0
   22.2655   -6.3696  -13.5706 S   0  0  0  0  0  0  0  0  0  0  0  0
   20.3326   -4.6725  -15.3702 C   0  0  0  0  0  0  0  0  0  0  0  0
   21.1318   -4.7348  -16.3709 O   0  0  0  0  0  0  0  0  0  0  0  0
   19.9824   -3.3676  -14.9622 N   0  0  0  0  0  0  0  0  0  0  0  0
   20.1745   -2.2424  -15.8617 C   0  0  1  0  0  0  0  0  0  0  0  0
   19.4194   -2.4211  -17.1600 C   0  0  0  0  0  0  0  0  0  0  0  0
   20.5434   -3.3109  -18.2949 S   0  0  0  0  0  0  0  0  0  0  0  0
   19.7522   -0.9881  -15.1957 C   0  0  0  0  0  0  0  0  0  0  0  0
   18.8067   -1.0200  -14.3864 O   0  0  0  0  0  0  0  0  0  0  0  0
   20.3841    0.2162  -15.4525 O   0  0  0  0  0  0  0  0  0  0  0  0
  1  2  1  0
  2  3  2  0
  4  5  1  0
  4  2  1  0
  6  8  1  0
  6  5  1  0
  6  7  1  1
  8 10  1  0
  8  9  2  0
 10 11  1  0
 11 14  1  0
 11 12  1  1
 13 12  1  0
 14 16  1  0
 14 15  2  0
 16 17  1  0
 17 20  1  0
 17 18  1  6
 19 18  1  0
 20 22  1  0
 21 20  2  0
M  END
$$$$
