QCC.pdb
     RDKit          3D

 22 21  0  0  1  0  0  0  0  0999 V2000
   18.0859  -15.5638  -15.3406 N   0  0  0  0  0  0  0  0  0  0  0  0
   18.8980  -16.1493  -16.3679 C   0  0  0  0  0  0  0  0  0  0  0  0
   18.4445  -17.1585  -16.9411 O   0  0  0  0  0  0  0  0  0  0  0  0
   20.1852  -15.5134  -16.6558 C   0  0  0  0  0  0  0  0  0  0  0  0
   20.4547  -14.2168  -15.9975 C   0  0  0  0  0  0  0  0  0  0  0  0
   20.2814  -12.9821  -16.7936 C   0  0  2  0  0  0  0  0  0  0  0  0
   21.0720  -12.9033  -17.9979 N   0  0  0  0  0  0  0  0  0  0  0  0
   20.3682  -11.7344  -15.9843 C   0  0  0  0  0  0  0  0  0  0  0  0
   20.0970  -11.8089  -14.7586 O   0  0  0  0  0  0  0  0  0  0  0  0
   20.7335  -10.5048  -16.5261 N   0  0  0  0  0  0  0  0  0  0  0  0
   20.9310   -9.2768  -15.7567 C   0  0  1  0  0  0  0  0  0  0  0  0
   22.3406   -8.7735  -15.9316 C   0  0  0  0  0  0  0  0  0  0  0  0
   22.5418   -7.2170  -15.0480 S   0  0  0  0  0  0  0  0  0  0  0  0
   19.9024   -8.3300  -16.1887 C   0  0  0  0  0  0  0  0  0  0  0  0
   19.7583   -8.1301  -17.4470 O   0  0  0  0  0  0  0  0  0  0  0  0
   19.0278   -7.5949  -15.3603 N   0  0  0  0  0  0  0  0  0  0  0  0
   18.0560   -6.6859  -15.9446 C   0  0  1  0  0  0  0  0  0  0  0  0
   16.6545   -6.9596  -15.4459 C   0  0  0  0  0  0  0  0  0  0  0  0
   16.2554   -8.6749  -15.9378 S   0  0  0  0  0  0  0  0  0  0  0  0
   18.4367   -5.2848  -15.6495 C   0  0  0  0  0  0  0  0  0  0  0  0
   19.4779   -5.0625  -15.0039 O   0  0  0  0  0  0  0  0  0  0  0  0
   17.6624   -4.2193  -16.0744 O   0  0  0  0  0  0  0  0  0  0  0  0
  1  2  1  0
  2  3  2  0
  4  5  1  0
  4  2  1  0
  6  8  1  0
  6  5  1  0
  6  7  1  6
  8 10  1  0
  8  9  2  0
 10 11  1  0
 11 14  1  0
 11 12  1  6
 13 12  1  0
 14 16  1  0
 14 15  2  0
 16 17  1  0
 17 20  1  0
 17 18  1  1
 19 18  1  0
 20 22  1  0
 21 20  2  0
M  END
$$$$
