QCC.pdb
     RDKit          3D

 22 21  0  0  1  0  0  0  0  0999 V2000
   23.4666  -16.5639  -20.6183 N   0  0  0  0  0  0  0  0  0  0  0  0
   23.2836  -16.7428  -19.2069 C   0  0  0  0  0  0  0  0  0  0  0  0
   22.3589  -17.4968  -18.8474 O   0  0  0  0  0  0  0  0  0  0  0  0
   24.1959  -16.0284  -18.3116 C   0  0  0  0  0  0  0  0  0  0  0  0
   23.6373  -14.8854  -17.5577 C   0  0  0  0  0  0  0  0  0  0  0  0
   23.9891  -13.5190  -18.0022 C   0  0  2  0  0  0  0  0  0  0  0  0
   25.1939  -13.4126  -18.7888 N   0  0  0  0  0  0  0  0  0  0  0  0
   23.9422  -12.5067  -16.9103 C   0  0  0  0  0  0  0  0  0  0  0  0
   22.9484  -12.5190  -16.1398 O   0  0  0  0  0  0  0  0  0  0  0  0
   24.9437  -11.5597  -16.7128 N   0  0  0  0  0  0  0  0  0  0  0  0
   24.9586  -10.5696  -15.6364 C   0  0  1  0  0  0  0  0  0  0  0  0
   26.3779  -10.2335  -15.2575 C   0  0  0  0  0  0  0  0  0  0  0  0
   27.2487   -9.5787  -16.6917 S   0  0  0  0  0  0  0  0  0  0  0  0
   24.1777   -9.4218  -16.0987 C   0  0  0  0  0  0  0  0  0  0  0  0
   24.1094   -9.2092  -17.3613 O   0  0  0  0  0  0  0  0  0  0  0  0
   23.4718   -8.5004  -15.2959 N   0  0  0  0  0  0  0  0  0  0  0  0
   22.6924   -7.4392  -15.9111 C   0  0  1  0  0  0  0  0  0  0  0  0
   21.5714   -7.9848  -16.7676 C   0  0  0  0  0  0  0  0  0  0  0  0
   20.5602   -6.5482  -17.2742 S   0  0  0  0  0  0  0  0  0  0  0  0
   22.1443   -6.5457  -14.8641 C   0  0  0  0  0  0  0  0  0  0  0  0
   21.9871   -6.9880  -13.7110 O   0  0  0  0  0  0  0  0  0  0  0  0
   21.8037   -5.2326  -15.1385 O   0  0  0  0  0  0  0  0  0  0  0  0
  1  2  1  0
  2  3  2  0
  4  5  1  0
  4  2  1  0
  6  8  1  0
  6  5  1  0
  6  7  1  1
  8 10  1  0
  8  9  2  0
 10 11  1  0
 11 14  1  0
 11 12  1  6
 13 12  1  0
 14 16  1  0
 14 15  2  0
 16 17  1  0
 17 20  1  0
 17 18  1  1
 19 18  1  0
 20 22  1  0
 21 20  2  0
M  END
$$$$
