QCC.pdb
     RDKit          3D

 22 21  0  0  1  0  0  0  0  0999 V2000
   18.6987  -11.0660  -16.8487 N   0  0  0  0  0  0  0  0  0  0  0  0
   18.0158  -12.2268  -16.3551 C   0  0  0  0  0  0  0  0  0  0  0  0
   18.1665  -13.2861  -16.9937 O   0  0  0  0  0  0  0  0  0  0  0  0
   17.2038  -12.0698  -15.1467 C   0  0  0  0  0  0  0  0  0  0  0  0
   17.1039  -10.7083  -14.5782 C   0  0  0  0  0  0  0  0  0  0  0  0
   16.2757  -10.5180  -13.3674 C   0  0  2  0  0  0  0  0  0  0  0  0
   14.9160  -10.9906  -13.4643 N   0  0  0  0  0  0  0  0  0  0  0  0
   16.3508   -9.1408  -12.8046 C   0  0  0  0  0  0  0  0  0  0  0  0
   15.5009   -8.2996  -13.1939 O   0  0  0  0  0  0  0  0  0  0  0  0
   17.3137   -8.7542  -11.8760 N   0  0  0  0  0  0  0  0  0  0  0  0
   17.4492   -7.4072  -11.3224 C   0  0  1  0  0  0  0  0  0  0  0  0
   17.2763   -7.4394   -9.8258 C   0  0  0  0  0  0  0  0  0  0  0  0
   17.9093   -5.9126   -9.1102 S   0  0  0  0  0  0  0  0  0  0  0  0
   18.7461   -6.8915  -11.7614 C   0  0  0  0  0  0  0  0  0  0  0  0
   19.7963   -7.5564  -11.4466 O   0  0  0  0  0  0  0  0  0  0  0  0
   18.9805   -5.7193  -12.5116 N   0  0  0  0  0  0  0  0  0  0  0  0
   20.3319   -5.3616  -12.9090 C   0  0  1  0  0  0  0  0  0  0  0  0
   20.7449   -6.0498  -14.1911 C   0  0  0  0  0  0  0  0  0  0  0  0
   22.4254   -5.4461  -14.5849 S   0  0  0  0  0  0  0  0  0  0  0  0
   20.4388   -3.8920  -13.0629 C   0  0  0  0  0  0  0  0  0  0  0  0
   19.4290   -3.2417  -13.3911 O   0  0  0  0  0  0  0  0  0  0  0  0
   21.6337   -3.2267  -12.8505 O   0  0  0  0  0  0  0  0  0  0  0  0
  1  2  1  0
  2  3  2  0
  4  5  1  0
  4  2  1  0
  6  8  1  0
  6  5  1  0
  6  7  1  6
  8 10  1  0
  8  9  2  0
 10 11  1  0
 11 14  1  0
 11 12  1  1
 13 12  1  0
 14 16  1  0
 14 15  2  0
 16 17  1  0
 17 20  1  0
 17 18  1  6
 19 18  1  0
 20 22  1  0
 21 20  2  0
M  END
$$$$
