QCC.pdb
     RDKit          3D

 22 21  0  0  1  0  0  0  0  0999 V2000
   21.3603  -19.0843  -13.9807 N   0  0  0  0  0  0  0  0  0  0  0  0
   22.3210  -19.0481  -15.0453 C   0  0  0  0  0  0  0  0  0  0  0  0
   22.9184  -20.1103  -15.3046 O   0  0  0  0  0  0  0  0  0  0  0  0
   22.5164  -17.7715  -15.7355 C   0  0  0  0  0  0  0  0  0  0  0  0
   21.5985  -16.6685  -15.3778 C   0  0  0  0  0  0  0  0  0  0  0  0
   20.8089  -16.0408  -16.4599 C   0  0  2  0  0  0  0  0  0  0  0  0
   20.3947  -16.9266  -17.5207 N   0  0  0  0  0  0  0  0  0  0  0  0
   21.4108  -14.7829  -16.9839 C   0  0  0  0  0  0  0  0  0  0  0  0
   22.4633  -14.8748  -17.6662 O   0  0  0  0  0  0  0  0  0  0  0  0
   20.8599  -13.5256  -16.7502 N   0  0  0  0  0  0  0  0  0  0  0  0
   21.3250  -12.2813  -17.3622 C   0  0  1  0  0  0  0  0  0  0  0  0
   20.3372  -11.8093  -18.3978 C   0  0  0  0  0  0  0  0  0  0  0  0
   20.8987  -12.2988  -20.0376 S   0  0  0  0  0  0  0  0  0  0  0  0
   21.5510  -11.3275  -16.2760 C   0  0  0  0  0  0  0  0  0  0  0  0
   20.6287  -11.1870  -15.3964 O   0  0  0  0  0  0  0  0  0  0  0  0
   22.6957  -10.5261  -16.0784 N   0  0  0  0  0  0  0  0  0  0  0  0
   22.7607   -9.6052  -14.9561 C   0  0  1  0  0  0  0  0  0  0  0  0
   24.1847   -9.3549  -14.5118 C   0  0  0  0  0  0  0  0  0  0  0  0
   24.8403  -10.9641  -13.9427 S   0  0  0  0  0  0  0  0  0  0  0  0
   22.1077   -8.3252  -15.3169 C   0  0  0  0  0  0  0  0  0  0  0  0
   21.8994   -7.4790  -14.4277 O   0  0  0  0  0  0  0  0  0  0  0  0
   21.7247   -8.0493  -16.6179 O   0  0  0  0  0  0  0  0  0  0  0  0
  1  2  1  0
  2  3  2  0
  4  5  1  0
  4  2  1  0
  6  8  1  0
  6  5  1  0
  6  7  1  6
  8 10  1  0
  8  9  2  0
 10 11  1  0
 11 14  1  0
 11 12  1  6
 13 12  1  0
 14 16  1  0
 14 15  2  0
 16 17  1  0
 17 20  1  0
 17 18  1  6
 19 18  1  0
 20 22  1  0
 21 20  2  0
M  END
$$$$
