QCC.pdb
     RDKit          3D

 22 21  0  0  1  0  0  0  0  0999 V2000
   20.9865  -11.9095  -16.3387 N   0  0  0  0  0  0  0  0  0  0  0  0
   20.1420  -12.5837  -17.2820 C   0  0  0  0  0  0  0  0  0  0  0  0
   20.6085  -13.5983  -17.8348 O   0  0  0  0  0  0  0  0  0  0  0  0
   18.8080  -12.0259  -17.5134 C   0  0  0  0  0  0  0  0  0  0  0  0
   18.4388  -10.8251  -16.7332 C   0  0  0  0  0  0  0  0  0  0  0  0
   17.7292  -11.0192  -15.4498 C   0  0  2  0  0  0  0  0  0  0  0  0
   16.4311  -11.6416  -15.5457 N   0  0  0  0  0  0  0  0  0  0  0  0
   17.7040   -9.8010  -14.5928 C   0  0  0  0  0  0  0  0  0  0  0  0
   16.7807   -8.9684  -14.7820 O   0  0  0  0  0  0  0  0  0  0  0  0
   18.6514   -9.5522  -13.6032 N   0  0  0  0  0  0  0  0  0  0  0  0
   18.6600   -8.3799  -12.7287 C   0  0  1  0  0  0  0  0  0  0  0  0
   18.4777   -8.7997  -11.2929 C   0  0  0  0  0  0  0  0  0  0  0  0
   16.7809   -9.3445  -11.0321 S   0  0  0  0  0  0  0  0  0  0  0  0
   19.9089   -7.6623  -12.9857 C   0  0  0  0  0  0  0  0  0  0  0  0
   21.0126   -8.2734  -12.7565 O   0  0  0  0  0  0  0  0  0  0  0  0
   20.0426   -6.3437  -13.4705 N   0  0  0  0  0  0  0  0  0  0  0  0
   21.3605   -5.7871  -13.7264 C   0  0  1  0  0  0  0  0  0  0  0  0
   21.7792   -5.9654  -15.1688 C   0  0  0  0  0  0  0  0  0  0  0  0
   21.9534   -7.7654  -15.4390 S   0  0  0  0  0  0  0  0  0  0  0  0
   21.3788   -4.3505  -13.3649 C   0  0  0  0  0  0  0  0  0  0  0  0
   20.2999   -3.7385  -13.2575 O   0  0  0  0  0  0  0  0  0  0  0  0
   22.5662   -3.6744  -13.1444 O   0  0  0  0  0  0  0  0  0  0  0  0
  1  2  1  0
  2  3  2  0
  4  5  1  0
  4  2  1  0
  6  8  1  0
  6  5  1  0
  6  7  1  6
  8 10  1  0
  8  9  2  0
 10 11  1  0
 11 14  1  0
 11 12  1  1
 13 12  1  0
 14 16  1  0
 14 15  2  0
 16 17  1  0
 17 20  1  0
 17 18  1  6
 19 18  1  0
 20 22  1  0
 21 20  2  0
M  END
$$$$
