QCC.pdb
     RDKit          3D

 22 21  0  0  1  0  0  0  0  0999 V2000
   22.1670  -21.0773  -18.4178 N   0  0  0  0  0  0  0  0  0  0  0  0
   22.9119  -21.0696  -19.6436 C   0  0  0  0  0  0  0  0  0  0  0  0
   23.5116  -22.1186  -19.9477 O   0  0  0  0  0  0  0  0  0  0  0  0
   22.9034  -19.8352  -20.4313 C   0  0  0  0  0  0  0  0  0  0  0  0
   22.0153  -18.7485  -19.9652 C   0  0  0  0  0  0  0  0  0  0  0  0
   22.6080  -17.4114  -19.7434 C   0  0  2  0  0  0  0  0  0  0  0  0
   23.6154  -17.3417  -18.7128 N   0  0  0  0  0  0  0  0  0  0  0  0
   21.5965  -16.3258  -19.6118 C   0  0  0  0  0  0  0  0  0  0  0  0
   20.7602  -16.1859  -20.5406 O   0  0  0  0  0  0  0  0  0  0  0  0
   21.5422  -15.4710  -18.5139 N   0  0  0  0  0  0  0  0  0  0  0  0
   20.5344  -14.4304  -18.3126 C   0  0  1  0  0  0  0  0  0  0  0  0
   20.1385  -14.3627  -16.8601 C   0  0  0  0  0  0  0  0  0  0  0  0
   19.1648  -15.8154  -16.4296 S   0  0  0  0  0  0  0  0  0  0  0  0
   21.0942  -13.1841  -18.8363 C   0  0  0  0  0  0  0  0  0  0  0  0
   22.3156  -12.9094  -18.5591 O   0  0  0  0  0  0  0  0  0  0  0  0
   20.4296  -12.2269  -19.6324 N   0  0  0  0  0  0  0  0  0  0  0  0
   21.1436  -11.0614  -20.1261 C   0  0  1  0  0  0  0  0  0  0  0  0
   21.2204  -11.0433  -21.6366 C   0  0  0  0  0  0  0  0  0  0  0  0
   21.9847   -9.4475  -22.0975 S   0  0  0  0  0  0  0  0  0  0  0  0
   20.4905   -9.8257  -19.6348 C   0  0  0  0  0  0  0  0  0  0  0  0
   19.2719   -9.8441  -19.3801 O   0  0  0  0  0  0  0  0  0  0  0  0
   21.2031   -8.6532  -19.4529 O   0  0  0  0  0  0  0  0  0  0  0  0
  1  2  1  0
  2  3  2  0
  4  5  1  0
  4  2  1  0
  6  8  1  0
  6  5  1  0
  6  7  1  1
  8 10  1  0
  8  9  2  0
 10 11  1  0
 11 14  1  0
 11 12  1  1
 13 12  1  0
 14 16  1  0
 14 15  2  0
 16 17  1  0
 17 20  1  0
 17 18  1  6
 19 18  1  0
 20 22  1  0
 21 20  2  0
M  END
$$$$
