QCC.pdb
     RDKit          3D

 22 21  0  0  1  0  0  0  0  0999 V2000
   14.1330  -12.8199  -17.1861 N   0  0  0  0  0  0  0  0  0  0  0  0
   15.1670  -13.5561  -17.8542 C   0  0  0  0  0  0  0  0  0  0  0  0
   14.8550  -14.6646  -18.3302 O   0  0  0  0  0  0  0  0  0  0  0  0
   16.4958  -12.9446  -17.9216 C   0  0  0  0  0  0  0  0  0  0  0  0
   16.6941  -11.6870  -17.1692 C   0  0  0  0  0  0  0  0  0  0  0  0
   18.0531  -11.1038  -17.1331 C   0  0  2  0  0  0  0  0  0  0  0  0
   19.1300  -12.0483  -16.9604 N   0  0  0  0  0  0  0  0  0  0  0  0
   18.1772   -9.9390  -16.2127 C   0  0  0  0  0  0  0  0  0  0  0  0
   17.3385   -9.0088  -16.3256 O   0  0  0  0  0  0  0  0  0  0  0  0
   19.1735   -9.8421  -15.2448 N   0  0  0  0  0  0  0  0  0  0  0  0
   19.2754   -8.7720  -14.2530 C   0  0  1  0  0  0  0  0  0  0  0  0
   19.6367   -9.3429  -12.9060 C   0  0  0  0  0  0  0  0  0  0  0  0
   19.9218   -8.0028  -11.7370 S   0  0  0  0  0  0  0  0  0  0  0  0
   20.2418   -7.8012  -14.7673 C   0  0  0  0  0  0  0  0  0  0  0  0
   21.3006   -8.2487  -15.3354 O   0  0  0  0  0  0  0  0  0  0  0  0
   20.1399   -6.3948  -14.7108 N   0  0  0  0  0  0  0  0  0  0  0  0
   21.2192   -5.5611  -15.2129 C   0  0  1  0  0  0  0  0  0  0  0  0
   20.7681   -4.6805  -16.3569 C   0  0  0  0  0  0  0  0  0  0  0  0
   22.1850   -3.6011  -16.7698 S   0  0  0  0  0  0  0  0  0  0  0  0
   21.7651   -4.7295  -14.1150 C   0  0  0  0  0  0  0  0  0  0  0  0
   21.0053   -4.3555  -13.2024 O   0  0  0  0  0  0  0  0  0  0  0  0
   23.0983   -4.3595  -14.0811 O   0  0  0  0  0  0  0  0  0  0  0  0
  1  2  1  0
  2  3  2  0
  4  5  1  0
  4  2  1  0
  6  8  1  0
  6  5  1  0
  6  7  1  1
  8 10  1  0
  8  9  2  0
 10 11  1  0
 11 14  1  0
 11 12  1  1
 13 12  1  0
 14 16  1  0
 14 15  2  0
 16 17  1  0
 17 20  1  0
 17 18  1  6
 19 18  1  0
 20 22  1  0
 21 20  2  0
M  END
$$$$
