QCC.pdb
     RDKit          3D

 22 21  0  0  1  0  0  0  0  0999 V2000
   16.2963  -13.8982  -13.4089 N   0  0  0  0  0  0  0  0  0  0  0  0
   16.0097  -13.7915  -14.8104 C   0  0  0  0  0  0  0  0  0  0  0  0
   15.0938  -14.5089  -15.2567 O   0  0  0  0  0  0  0  0  0  0  0  0
   16.8132  -12.8514  -15.5944 C   0  0  0  0  0  0  0  0  0  0  0  0
   17.8817  -12.1224  -14.8775 C   0  0  0  0  0  0  0  0  0  0  0  0
   18.5778  -11.0288  -15.5902 C   0  0  2  0  0  0  0  0  0  0  0  0
   19.5964  -11.4450  -16.5234 N   0  0  0  0  0  0  0  0  0  0  0  0
   19.0531   -9.9399  -14.6915 C   0  0  0  0  0  0  0  0  0  0  0  0
   20.2902   -9.7205  -14.6374 O   0  0  0  0  0  0  0  0  0  0  0  0
   18.1911   -9.1657  -13.9191 N   0  0  0  0  0  0  0  0  0  0  0  0
   18.6044   -8.0534  -13.0642 C   0  0  1  0  0  0  0  0  0  0  0  0
   19.3437   -7.0202  -13.8748 C   0  0  0  0  0  0  0  0  0  0  0  0
   18.3137   -6.4787  -15.2495 S   0  0  0  0  0  0  0  0  0  0  0  0
   17.3990   -7.5455  -12.4086 C   0  0  0  0  0  0  0  0  0  0  0  0
   16.3355   -7.4239  -13.1144 O   0  0  0  0  0  0  0  0  0  0  0  0
   17.2678   -7.1666  -11.0555 N   0  0  0  0  0  0  0  0  0  0  0  0
   16.0367   -6.5570  -10.5813 C   0  0  1  0  0  0  0  0  0  0  0  0
   15.8293   -6.7805   -9.0998 C   0  0  0  0  0  0  0  0  0  0  0  0
   15.5831   -8.5785   -8.8765 S   0  0  0  0  0  0  0  0  0  0  0  0
   16.0457   -5.1061  -10.8809 C   0  0  0  0  0  0  0  0  0  0  0  0
   15.0210   -4.4347  -10.6585 O   0  0  0  0  0  0  0  0  0  0  0  0
   17.1655   -4.4812  -11.4015 O   0  0  0  0  0  0  0  0  0  0  0  0
  1  2  1  0
  2  3  2  0
  4  5  1  0
  4  2  1  0
  6  8  1  0
  6  5  1  0
  6  7  1  1
  8 10  1  0
  8  9  2  0
 10 11  1  0
 11 14  1  0
 11 12  1  6
 13 12  1  0
 14 16  1  0
 14 15  2  0
 16 17  1  0
 17 20  1  0
 17 18  1  1
 19 18  1  0
 20 22  1  0
 21 20  2  0
M  END
$$$$
