QCC.pdb
     RDKit          3D

 22 21  0  0  1  0  0  0  0  0999 V2000
   20.3387  -13.1744  -16.3156 N   0  0  0  0  0  0  0  0  0  0  0  0
   19.2150  -13.9260  -15.8361 C   0  0  0  0  0  0  0  0  0  0  0  0
   19.4085  -15.1292  -15.5763 O   0  0  0  0  0  0  0  0  0  0  0  0
   17.9411  -13.2184  -15.6916 C   0  0  0  0  0  0  0  0  0  0  0  0
   17.9147  -11.7960  -16.0955 C   0  0  0  0  0  0  0  0  0  0  0  0
   16.6615  -11.0371  -15.8913 C   0  0  2  0  0  0  0  0  0  0  0  0
   15.4668  -11.6601  -16.4073 N   0  0  0  0  0  0  0  0  0  0  0  0
   16.7614   -9.6044  -16.2871 C   0  0  0  0  0  0  0  0  0  0  0  0
   16.1464   -9.2359  -17.3203 O   0  0  0  0  0  0  0  0  0  0  0  0
   17.5001   -8.6698  -15.5662 N   0  0  0  0  0  0  0  0  0  0  0  0
   17.5379   -7.2352  -15.8485 C   0  0  1  0  0  0  0  0  0  0  0  0
   16.1773   -6.6253  -15.6297 C   0  0  0  0  0  0  0  0  0  0  0  0
   16.3137   -4.8294  -15.6172 S   0  0  0  0  0  0  0  0  0  0  0  0
   18.5902   -6.6607  -15.0098 C   0  0  0  0  0  0  0  0  0  0  0  0
   18.5917   -6.9525  -13.7613 O   0  0  0  0  0  0  0  0  0  0  0  0
   19.6306   -5.8031  -15.4269 N   0  0  0  0  0  0  0  0  0  0  0  0
   20.6416   -5.3633  -14.4801 C   0  0  1  0  0  0  0  0  0  0  0  0
   22.0182   -5.8721  -14.8459 C   0  0  0  0  0  0  0  0  0  0  0  0
   23.1882   -5.0824  -13.6837 S   0  0  0  0  0  0  0  0  0  0  0  0
   20.6496   -3.8838  -14.4034 C   0  0  0  0  0  0  0  0  0  0  0  0
   20.4562   -3.2219  -15.4401 O   0  0  0  0  0  0  0  0  0  0  0  0
   20.8668   -3.2218  -13.2075 O   0  0  0  0  0  0  0  0  0  0  0  0
  1  2  1  0
  2  3  2  0
  4  5  1  0
  4  2  1  0
  6  8  1  0
  6  5  1  0
  6  7  1  6
  8 10  1  0
  8  9  2  0
 10 11  1  0
 11 14  1  0
 11 12  1  1
 13 12  1  0
 14 16  1  0
 14 15  2  0
 16 17  1  0
 17 20  1  0
 17 18  1  6
 19 18  1  0
 20 22  1  0
 21 20  2  0
M  END
$$$$
