QCC.pdb
     RDKit          3D

 22 21  0  0  1  0  0  0  0  0999 V2000
   18.1718  -13.8464  -15.9914 N   0  0  0  0  0  0  0  0  0  0  0  0
   19.0571  -14.5764  -16.8522 C   0  0  0  0  0  0  0  0  0  0  0  0
   19.4286  -15.6993  -16.4605 O   0  0  0  0  0  0  0  0  0  0  0  0
   19.4464  -13.9435  -18.1140 C   0  0  0  0  0  0  0  0  0  0  0  0
   18.8137  -12.6463  -18.4367 C   0  0  0  0  0  0  0  0  0  0  0  0
   19.5653  -11.4095  -18.1307 C   0  0  2  0  0  0  0  0  0  0  0  0
   20.8297  -11.6002  -17.4625 N   0  0  0  0  0  0  0  0  0  0  0  0
   18.7392  -10.3570  -17.4758 C   0  0  0  0  0  0  0  0  0  0  0  0
   17.5888  -10.1417  -17.9361 O   0  0  0  0  0  0  0  0  0  0  0  0
   19.1862   -9.6121  -16.3876 N   0  0  0  0  0  0  0  0  0  0  0  0
   18.3976   -8.5997  -15.6860 C   0  0  1  0  0  0  0  0  0  0  0  0
   18.6268   -8.6987  -14.1998 C   0  0  0  0  0  0  0  0  0  0  0  0
   17.5351   -9.9491  -13.5008 S   0  0  0  0  0  0  0  0  0  0  0  0
   18.7576   -7.3025  -16.2592 C   0  0  0  0  0  0  0  0  0  0  0  0
   20.0021   -7.0052  -16.3418 O   0  0  0  0  0  0  0  0  0  0  0  0
   17.8718   -6.3174  -16.7455 N   0  0  0  0  0  0  0  0  0  0  0  0
   18.3882   -5.1197  -17.3866 C   0  0  1  0  0  0  0  0  0  0  0  0
   17.4256   -4.5691  -18.4151 C   0  0  0  0  0  0  0  0  0  0  0  0
   17.2051   -5.8788  -19.6718 S   0  0  0  0  0  0  0  0  0  0  0  0
   18.6846   -4.0895  -16.3639 C   0  0  0  0  0  0  0  0  0  0  0  0
   18.3314   -4.2852  -15.1862 O   0  0  0  0  0  0  0  0  0  0  0  0
   19.3441   -2.9166  -16.6877 O   0  0  0  0  0  0  0  0  0  0  0  0
  1  2  1  0
  2  3  2  0
  4  5  1  0
  4  2  1  0
  6  8  1  0
  6  5  1  0
  6  7  1  1
  8 10  1  0
  8  9  2  0
 10 11  1  0
 11 14  1  0
 11 12  1  1
 13 12  1  0
 14 16  1  0
 14 15  2  0
 16 17  1  0
 17 20  1  0
 17 18  1  6
 19 18  1  0
 20 22  1  0
 21 20  2  0
M  END
$$$$
