QCC.pdb
     RDKit          3D

 22 21  0  0  1  0  0  0  0  0999 V2000
   14.9593  -13.9235  -14.9557 N   0  0  0  0  0  0  0  0  0  0  0  0
   15.8987  -14.4481  -15.9044 C   0  0  0  0  0  0  0  0  0  0  0  0
   15.9862  -15.6883  -15.9873 O   0  0  0  0  0  0  0  0  0  0  0  0
   16.6709  -13.4859  -16.6931 C   0  0  0  0  0  0  0  0  0  0  0  0
   16.4967  -12.0549  -16.3627 C   0  0  0  0  0  0  0  0  0  0  0  0
   17.6233  -11.3473  -15.7159 C   0  0  2  0  0  0  0  0  0  0  0  0
   18.2774  -12.0652  -14.6490 N   0  0  0  0  0  0  0  0  0  0  0  0
   17.3037   -9.9437  -15.3324 C   0  0  0  0  0  0  0  0  0  0  0  0
   16.7828   -9.2007  -16.2031 O   0  0  0  0  0  0  0  0  0  0  0  0
   17.5564   -9.4297  -14.0633 N   0  0  0  0  0  0  0  0  0  0  0  0
   17.2158   -8.0764  -13.6255 C   0  0  1  0  0  0  0  0  0  0  0  0
   15.7211   -7.9299  -13.5013 C   0  0  0  0  0  0  0  0  0  0  0  0
   15.0899   -9.1385  -12.3245 S   0  0  0  0  0  0  0  0  0  0  0  0
   17.9438   -7.8325  -12.3800 C   0  0  0  0  0  0  0  0  0  0  0  0
   18.1080   -8.8176  -11.5757 O   0  0  0  0  0  0  0  0  0  0  0  0
   18.5018   -6.6089  -11.9519 N   0  0  0  0  0  0  0  0  0  0  0  0
   19.1675   -6.5182  -10.6633 C   0  0  1  0  0  0  0  0  0  0  0  0
   20.6063   -6.0722  -10.8003 C   0  0  0  0  0  0  0  0  0  0  0  0
   21.4404   -7.3252  -11.8383 S   0  0  0  0  0  0  0  0  0  0  0  0
   18.4280   -5.5871   -9.7794 C   0  0  0  0  0  0  0  0  0  0  0  0
   17.6009   -4.8032  -10.2810 O   0  0  0  0  0  0  0  0  0  0  0  0
   18.6354   -5.5690   -8.4112 O   0  0  0  0  0  0  0  0  0  0  0  0
  1  2  1  0
  2  3  2  0
  4  5  1  0
  4  2  1  0
  6  8  1  0
  6  5  1  0
  6  7  1  1
  8 10  1  0
  8  9  2  0
 10 11  1  0
 11 14  1  0
 11 12  1  1
 13 12  1  0
 14 16  1  0
 14 15  2  0
 16 17  1  0
 17 20  1  0
 17 18  1  6
 19 18  1  0
 20 22  1  0
 21 20  2  0
M  END
$$$$
