QCC.pdb
     RDKit          3D

 22 21  0  0  1  0  0  0  0  0999 V2000
   28.6108  -21.0986  -18.6411 N   0  0  0  0  0  0  0  0  0  0  0  0
   29.1049  -21.8215  -17.5050 C   0  0  0  0  0  0  0  0  0  0  0  0
   29.5221  -22.9779  -17.7080 O   0  0  0  0  0  0  0  0  0  0  0  0
   29.0787  -21.1417  -16.2083 C   0  0  0  0  0  0  0  0  0  0  0  0
   27.8517  -20.3881  -15.8710 C   0  0  0  0  0  0  0  0  0  0  0  0
   26.7221  -21.1297  -15.2692 C   0  0  2  0  0  0  0  0  0  0  0  0
   26.2692  -22.2811  -16.0113 N   0  0  0  0  0  0  0  0  0  0  0  0
   25.5921  -20.2550  -14.8482 C   0  0  0  0  0  0  0  0  0  0  0  0
   25.8526  -19.2760  -14.1031 O   0  0  0  0  0  0  0  0  0  0  0  0
   24.2754  -20.4771  -15.2431 N   0  0  0  0  0  0  0  0  0  0  0  0
   23.1419  -19.6203  -14.8964 C   0  0  1  0  0  0  0  0  0  0  0  0
   22.6842  -18.8472  -16.1062 C   0  0  0  0  0  0  0  0  0  0  0  0
   21.1679  -17.9563  -15.7175 S   0  0  0  0  0  0  0  0  0  0  0  0
   22.1128  -20.4841  -14.3169 C   0  0  0  0  0  0  0  0  0  0  0  0
   21.8167  -21.5669  -14.9365 O   0  0  0  0  0  0  0  0  0  0  0  0
   21.3923  -20.2587  -13.1245 N   0  0  0  0  0  0  0  0  0  0  0  0
   20.3830  -21.2087  -12.6876 C   0  0  1  0  0  0  0  0  0  0  0  0
   19.9209  -20.9325  -11.2741 C   0  0  0  0  0  0  0  0  0  0  0  0
   18.6992  -22.2301  -10.8656 S   0  0  0  0  0  0  0  0  0  0  0  0
   19.2285  -21.1787  -13.6156 C   0  0  0  0  0  0  0  0  0  0  0  0
   18.8121  -20.0810  -14.0300 O   0  0  0  0  0  0  0  0  0  0  0  0
   18.6035  -22.3414  -14.0316 O   0  0  0  0  0  0  0  0  0  0  0  0
  1  2  1  0
  2  3  2  0
  4  5  1  0
  4  2  1  0
  6  8  1  0
  6  5  1  0
  6  7  1  6
  8 10  1  0
  8  9  2  0
 10 11  1  0
 11 14  1  0
 11 12  1  6
 13 12  1  0
 14 16  1  0
 14 15  2  0
 16 17  1  0
 17 20  1  0
 17 18  1  1
 19 18  1  0
 20 22  1  0
 21 20  2  0
M  END
$$$$
