QCC.pdb
     RDKit          3D

 22 21  0  0  1  0  0  0  0  0999 V2000
   20.9778  -20.3232  -13.4262 N   0  0  0  0  0  0  0  0  0  0  0  0
   20.9773  -21.5689  -12.7152 C   0  0  0  0  0  0  0  0  0  0  0  0
   21.3854  -21.5486  -11.5380 O   0  0  0  0  0  0  0  0  0  0  0  0
   20.4978  -22.7540  -13.4292 C   0  0  0  0  0  0  0  0  0  0  0  0
   20.1309  -22.5774  -14.8509 C   0  0  0  0  0  0  0  0  0  0  0  0
   21.2165  -22.5783  -15.8558 C   0  0  2  0  0  0  0  0  0  0  0  0
   22.5539  -22.4704  -15.3254 N   0  0  0  0  0  0  0  0  0  0  0  0
   20.9841  -21.6344  -16.9846 C   0  0  0  0  0  0  0  0  0  0  0  0
   20.1168  -21.9444  -17.8409 O   0  0  0  0  0  0  0  0  0  0  0  0
   21.6815  -20.4375  -17.1261 N   0  0  0  0  0  0  0  0  0  0  0  0
   21.4919  -19.4825  -18.2175 C   0  0  1  0  0  0  0  0  0  0  0  0
   21.4164  -18.0789  -17.6741 C   0  0  0  0  0  0  0  0  0  0  0  0
   21.9345  -18.0687  -15.9492 S   0  0  0  0  0  0  0  0  0  0  0  0
   22.5835  -19.6954  -19.1682 C   0  0  0  0  0  0  0  0  0  0  0  0
   23.7709  -19.8257  -18.7023 O   0  0  0  0  0  0  0  0  0  0  0  0
   22.4777  -19.7781  -20.5731 N   0  0  0  0  0  0  0  0  0  0  0  0
   23.6562  -20.0383  -21.3826 C   0  0  1  0  0  0  0  0  0  0  0  0
   24.3130  -21.3515  -21.0194 C   0  0  0  0  0  0  0  0  0  0  0  0
   25.7433  -21.5434  -22.1422 S   0  0  0  0  0  0  0  0  0  0  0  0
   23.2918  -20.0314  -22.8186 C   0  0  0  0  0  0  0  0  0  0  0  0
   24.1915  -20.1350  -23.6730 O   0  0  0  0  0  0  0  0  0  0  0  0
   21.9760  -19.9127  -23.2312 O   0  0  0  0  0  0  0  0  0  0  0  0
  1  2  1  0
  2  3  2  0
  4  5  1  0
  4  2  1  0
  6  8  1  0
  6  5  1  0
  6  7  1  1
  8 10  1  0
  8  9  2  0
 10 11  1  0
 11 14  1  0
 11 12  1  1
 13 12  1  0
 14 16  1  0
 14 15  2  0
 16 17  1  0
 17 20  1  0
 17 18  1  1
 19 18  1  0
 20 22  1  0
 21 20  2  0
M  END
$$$$
