QCC.pdb
     RDKit          3D

 22 21  0  0  1  0  0  0  0  0999 V2000
   15.5348  -11.7502  -18.9152 N   0  0  0  0  0  0  0  0  0  0  0  0
   15.9625  -12.3647  -17.6916 C   0  0  0  0  0  0  0  0  0  0  0  0
   15.0715  -12.7441  -16.9075 O   0  0  0  0  0  0  0  0  0  0  0  0
   17.4039  -12.4951  -17.4692 C   0  0  0  0  0  0  0  0  0  0  0  0
   17.9962  -11.6586  -16.4031 C   0  0  0  0  0  0  0  0  0  0  0  0
   19.4581  -11.7337  -16.1901 C   0  0  2  0  0  0  0  0  0  0  0  0
   19.9413  -12.9719  -15.6288 N   0  0  0  0  0  0  0  0  0  0  0  0
   20.0200  -10.5448  -15.4901 C   0  0  0  0  0  0  0  0  0  0  0  0
   19.7555  -10.4025  -14.2689 O   0  0  0  0  0  0  0  0  0  0  0  0
   20.8165   -9.5974  -16.1280 N   0  0  0  0  0  0  0  0  0  0  0  0
   21.3763   -8.4073  -15.4881 C   0  0  1  0  0  0  0  0  0  0  0  0
   22.8775   -8.5143  -15.4120 C   0  0  0  0  0  0  0  0  0  0  0  0
   23.3344   -9.7818  -14.2167 S   0  0  0  0  0  0  0  0  0  0  0  0
   20.8991   -7.2492  -16.2444 C   0  0  0  0  0  0  0  0  0  0  0  0
   20.8937   -7.3265  -17.5243 O   0  0  0  0  0  0  0  0  0  0  0  0
   20.4307   -6.0277  -15.7150 N   0  0  0  0  0  0  0  0  0  0  0  0
   19.9244   -4.9919  -16.5996 C   0  0  1  0  0  0  0  0  0  0  0  0
   18.8326   -4.1742  -15.9460 C   0  0  0  0  0  0  0  0  0  0  0  0
   17.4555   -5.3275  -15.6044 S   0  0  0  0  0  0  0  0  0  0  0  0
   21.0344   -4.1091  -17.0279 C   0  0  0  0  0  0  0  0  0  0  0  0
   22.1759   -4.3053  -16.5713 O   0  0  0  0  0  0  0  0  0  0  0  0
   20.8314   -3.0728  -17.9226 O   0  0  0  0  0  0  0  0  0  0  0  0
  1  2  1  0
  2  3  2  0
  4  5  1  0
  4  2  1  0
  6  8  1  0
  6  5  1  0
  6  7  1  1
  8 10  1  0
  8  9  2  0
 10 11  1  0
 11 14  1  0
 11 12  1  6
 13 12  1  0
 14 16  1  0
 14 15  2  0
 16 17  1  0
 17 20  1  0
 17 18  1  1
 19 18  1  0
 20 22  1  0
 21 20  2  0
M  END
$$$$
