EDF.pdb
     RDKit          3D

 29 29  0  0  1  0  0  0  0  0999 V2000
   26.6190  -19.7464  -15.8088 N   0  0  0  0  0  0  0  0  0  0  0  0
   27.4287  -19.7873  -14.6272 C   0  0  1  0  0  0  0  0  0  0  0  0
   28.6826  -19.0064  -14.6775 C   0  0  0  0  0  0  0  0  0  0  0  0
   28.6400  -17.6902  -15.3816 C   0  0  0  0  0  0  0  0  0  0  0  0
   29.0408  -17.6908  -16.7809 C   0  0  0  0  0  0  0  0  0  0  0  0
   30.0519  -18.2613  -17.2422 O   0  0  0  0  0  0  0  0  0  0  0  0
   26.6005  -19.5183  -13.4240 C   0  0  0  0  0  0  0  0  0  0  0  0
   26.4583  -18.3249  -13.0623 O   0  0  0  0  0  0  0  0  0  0  0  0
   28.2193  -16.9879  -17.6981 O   0  0  0  0  0  0  0  0  0  0  0  0
   25.9684  -20.5255  -12.6700 N   0  0  0  0  0  0  0  0  0  0  0  0
   25.1346  -20.2677  -11.4962 C   0  0  1  0  0  0  0  0  0  0  0  0
   23.9322  -21.1530  -11.6111 C   0  0  0  0  0  0  0  0  0  0  0  0
   22.8756  -20.8887  -10.6257 C   0  0  0  0  0  0  0  0  0  0  0  0
   22.6929  -19.6591  -10.3340 O   0  0  0  0  0  0  0  0  0  0  0  0
   25.8581  -20.7054  -10.2524 C   0  0  0  0  0  0  0  0  0  0  0  0
   26.3082  -21.8785  -10.2101 O   0  0  0  0  0  0  0  0  0  0  0  0
   22.0814  -21.8069   -9.9992 O   0  0  0  0  0  0  0  0  0  0  0  0
   26.0484  -19.8655   -9.1493 N   0  0  0  0  0  0  0  0  0  0  0  0
   26.7882  -20.2955   -7.9461 C   0  0  1  0  0  0  0  0  0  0  0  0
   27.3668  -19.1203   -7.2358 C   0  0  0  0  0  0  0  0  0  0  0  0
   28.0697  -19.5513   -6.0205 C   0  0  0  0  0  0  0  0  0  0  0  0
   27.5933  -19.1263   -4.7820 C   0  0  0  0  0  0  0  0  0  0  0  0
   28.1547  -19.4810   -3.5913 C   0  0  0  0  0  0  0  0  0  0  0  0
   29.2686  -20.3147   -3.5857 C   0  0  0  0  0  0  0  0  0  0  0  0
   29.7595  -20.7495   -4.8039 C   0  0  0  0  0  0  0  0  0  0  0  0
   29.1729  -20.3758   -5.9868 C   0  0  0  0  0  0  0  0  0  0  0  0
   25.8481  -21.0406   -7.1027 C   0  0  0  0  0  0  0  0  0  0  0  0
   24.4957  -20.8028   -7.1874 O   0  0  0  0  0  0  0  0  0  0  0  0
   26.2650  -21.8992   -6.2979 O   0  0  0  0  0  0  0  0  0  0  0  0
  2  1  1  6
  2  3  1  0
  2  7  1  0
  3  4  1  0
  4  5  1  0
  5  9  1  0
  5  6  2  0
  7 10  1  0
  7  8  2  0
 10 11  1  0
 11 12  1  6
 13 12  1  0
 13 17  1  0
 14 13  2  0
 15 11  1  0
 15 16  2  0
 18 15  1  0
 19 18  1  0
 19 20  1  1
 21 20  1  0
 21 22  2  0
 23 22  1  0
 24 23  2  0
 25 26  2  0
 25 24  1  0
 26 21  1  0
 27 19  1  0
 28 27  1  0
 29 27  2  0
M  END
$$$$
