EDF.pdb
     RDKit          3D

 29 29  0  0  1  0  0  0  0  0999 V2000
   18.9804  -11.5727  -16.6520 N   0  0  0  0  0  0  0  0  0  0  0  0
   20.3670  -11.2115  -16.6326 C   0  0  1  0  0  0  0  0  0  0  0  0
   21.2805  -12.1220  -17.3543 C   0  0  0  0  0  0  0  0  0  0  0  0
   20.6618  -13.2448  -18.1202 C   0  0  0  0  0  0  0  0  0  0  0  0
   21.2371  -13.5330  -19.4258 C   0  0  0  0  0  0  0  0  0  0  0  0
   20.5950  -13.8989  -20.4330 O   0  0  0  0  0  0  0  0  0  0  0  0
   20.5332   -9.7809  -16.9954 C   0  0  0  0  0  0  0  0  0  0  0  0
   21.6984   -9.3517  -17.1781 O   0  0  0  0  0  0  0  0  0  0  0  0
   22.6400  -13.3875  -19.5703 O   0  0  0  0  0  0  0  0  0  0  0  0
   19.4587   -8.8833  -17.1450 N   0  0  0  0  0  0  0  0  0  0  0  0
   19.6135   -7.4739  -17.5043 C   0  0  1  0  0  0  0  0  0  0  0  0
   18.2943   -7.0127  -18.0427 C   0  0  0  0  0  0  0  0  0  0  0  0
   17.9994   -7.4537  -19.4124 C   0  0  0  0  0  0  0  0  0  0  0  0
   16.7737   -7.7209  -19.6504 O   0  0  0  0  0  0  0  0  0  0  0  0
   19.8674   -6.6585  -16.2663 C   0  0  0  0  0  0  0  0  0  0  0  0
   19.0522   -6.7565  -15.3142 O   0  0  0  0  0  0  0  0  0  0  0  0
   18.8859   -7.6052  -20.4407 O   0  0  0  0  0  0  0  0  0  0  0  0
   20.9661   -5.8018  -16.1333 N   0  0  0  0  0  0  0  0  0  0  0  0
   21.2474   -5.0642  -14.8857 C   0  0  1  0  0  0  0  0  0  0  0  0
   22.5748   -5.4536  -14.3319 C   0  0  0  0  0  0  0  0  0  0  0  0
   22.5592   -6.8581  -13.9032 C   0  0  0  0  0  0  0  0  0  0  0  0
   23.3234   -7.7849  -14.6092 C   0  0  0  0  0  0  0  0  0  0  0  0
   23.3988   -9.1077  -14.2876 C   0  0  0  0  0  0  0  0  0  0  0  0
   22.6804   -9.5845  -13.1957 C   0  0  0  0  0  0  0  0  0  0  0  0
   21.9143   -8.6823  -12.4793 C   0  0  0  0  0  0  0  0  0  0  0  0
   21.8582   -7.3561  -12.8269 C   0  0  0  0  0  0  0  0  0  0  0  0
   21.1813   -3.6342  -15.2035 C   0  0  0  0  0  0  0  0  0  0  0  0
   21.0103   -3.2157  -16.5028 O   0  0  0  0  0  0  0  0  0  0  0  0
   21.2798   -2.7804  -14.2979 O   0  0  0  0  0  0  0  0  0  0  0  0
  2  1  1  6
  2  3  1  0
  2  7  1  0
  3  4  1  0
  4  5  1  0
  5  9  1  0
  5  6  2  0
  7 10  1  0
  7  8  2  0
 10 11  1  0
 11 12  1  1
 13 12  1  0
 13 17  1  0
 14 13  2  0
 15 11  1  0
 15 16  2  0
 18 15  1  0
 19 18  1  0
 19 20  1  6
 21 20  1  0
 21 22  2  0
 23 22  1  0
 24 23  2  0
 25 26  2  0
 25 24  1  0
 26 21  1  0
 27 19  1  0
 28 27  1  0
 29 27  2  0
M  END
$$$$
