EDF.pdb
     RDKit          3D

 29 29  0  0  1  0  0  0  0  0999 V2000
   14.4119  -13.3041  -15.2375 N   0  0  0  0  0  0  0  0  0  0  0  0
   14.5084  -12.2918  -16.2473 C   0  0  1  0  0  0  0  0  0  0  0  0
   13.6887  -11.0817  -16.0275 C   0  0  0  0  0  0  0  0  0  0  0  0
   13.4791  -10.6458  -14.6147 C   0  0  0  0  0  0  0  0  0  0  0  0
   12.7755   -9.3860  -14.4230 C   0  0  0  0  0  0  0  0  0  0  0  0
   12.2140   -8.7281  -15.3243 O   0  0  0  0  0  0  0  0  0  0  0  0
   15.9325  -12.0055  -16.5571 C   0  0  0  0  0  0  0  0  0  0  0  0
   16.8070  -12.4665  -15.7838 O   0  0  0  0  0  0  0  0  0  0  0  0
   12.7208   -8.8596  -13.1077 O   0  0  0  0  0  0  0  0  0  0  0  0
   16.3532  -11.2480  -17.6669 N   0  0  0  0  0  0  0  0  0  0  0  0
   17.7464  -10.8910  -17.9335 C   0  0  1  0  0  0  0  0  0  0  0  0
   17.8081  -10.3950  -19.3452 C   0  0  0  0  0  0  0  0  0  0  0  0
   19.1518  -10.0292  -19.8119 C   0  0  0  0  0  0  0  0  0  0  0  0
   20.0963  -10.7918  -19.4160 O   0  0  0  0  0  0  0  0  0  0  0  0
   18.1492   -9.7308  -17.0652 C   0  0  0  0  0  0  0  0  0  0  0  0
   17.2722   -8.8807  -16.7673 O   0  0  0  0  0  0  0  0  0  0  0  0
   19.4902   -8.9749  -20.6122 O   0  0  0  0  0  0  0  0  0  0  0  0
   19.4509   -9.5615  -16.5800 N   0  0  0  0  0  0  0  0  0  0  0  0
   19.8314   -8.4264  -15.7159 C   0  0  1  0  0  0  0  0  0  0  0  0
   21.1933   -8.6311  -15.1472 C   0  0  0  0  0  0  0  0  0  0  0  0
   21.5634   -7.5018  -14.2843 C   0  0  0  0  0  0  0  0  0  0  0  0
   21.2855   -7.5783  -12.9211 C   0  0  0  0  0  0  0  0  0  0  0  0
   21.6026   -6.5994  -12.0266 C   0  0  0  0  0  0  0  0  0  0  0  0
   22.2408   -5.4477  -12.4760 C   0  0  0  0  0  0  0  0  0  0  0  0
   22.5270   -5.3495  -13.8261 C   0  0  0  0  0  0  0  0  0  0  0  0
   22.1957   -6.3517  -14.7028 C   0  0  0  0  0  0  0  0  0  0  0  0
   19.7535   -7.2128  -16.5354 C   0  0  0  0  0  0  0  0  0  0  0  0
   19.2546   -6.0450  -16.0064 O   0  0  0  0  0  0  0  0  0  0  0  0
   20.1391   -7.2263  -17.7227 O   0  0  0  0  0  0  0  0  0  0  0  0
  2  1  1  1
  2  3  1  0
  2  7  1  0
  3  4  1  0
  4  5  1  0
  5  9  1  0
  5  6  2  0
  7 10  1  0
  7  8  2  0
 10 11  1  0
 11 12  1  6
 13 12  1  0
 13 17  1  0
 14 13  2  0
 15 11  1  0
 15 16  2  0
 18 15  1  0
 19 18  1  0
 19 20  1  6
 21 20  1  0
 21 22  2  0
 23 22  1  0
 24 23  2  0
 25 26  2  0
 25 24  1  0
 26 21  1  0
 27 19  1  0
 28 27  1  0
 29 27  2  0
M  END
$$$$
