EDF.pdb
     RDKit          3D

 29 29  0  0  1  0  0  0  0  0999 V2000
   17.8926  -12.1335  -21.0408 N   0  0  0  0  0  0  0  0  0  0  0  0
   17.1083  -11.2445  -20.2358 C   0  0  1  0  0  0  0  0  0  0  0  0
   16.1951  -11.8875  -19.2677 C   0  0  0  0  0  0  0  0  0  0  0  0
   16.8160  -12.5871  -18.1036 C   0  0  0  0  0  0  0  0  0  0  0  0
   15.9300  -13.4125  -17.2960 C   0  0  0  0  0  0  0  0  0  0  0  0
   14.7111  -13.5853  -17.5084 O   0  0  0  0  0  0  0  0  0  0  0  0
   17.9694  -10.1903  -19.6416 C   0  0  0  0  0  0  0  0  0  0  0  0
   19.1672  -10.4764  -19.3993 O   0  0  0  0  0  0  0  0  0  0  0  0
   16.4923  -14.0762  -16.1763 O   0  0  0  0  0  0  0  0  0  0  0  0
   17.5169   -8.8924  -19.3365 N   0  0  0  0  0  0  0  0  0  0  0  0
   18.3724   -7.8306  -18.8072 C   0  0  1  0  0  0  0  0  0  0  0  0
   17.5497   -6.5795  -18.7793 C   0  0  0  0  0  0  0  0  0  0  0  0
   18.2707   -5.3773  -18.3410 C   0  0  0  0  0  0  0  0  0  0  0  0
   19.4068   -5.1878  -18.8921 O   0  0  0  0  0  0  0  0  0  0  0  0
   18.7274   -8.1291  -17.3766 C   0  0  0  0  0  0  0  0  0  0  0  0
   17.9128   -8.7973  -16.6906 O   0  0  0  0  0  0  0  0  0  0  0  0
   17.8585   -4.4562  -17.4201 O   0  0  0  0  0  0  0  0  0  0  0  0
   19.9187   -7.6960  -16.7835 N   0  0  0  0  0  0  0  0  0  0  0  0
   20.2751   -8.0289  -15.3899 C   0  0  1  0  0  0  0  0  0  0  0  0
   21.7493   -7.9467  -15.1895 C   0  0  0  0  0  0  0  0  0  0  0  0
   22.1118   -8.4261  -13.8495 C   0  0  0  0  0  0  0  0  0  0  0  0
   22.8645   -9.5930  -13.7339 C   0  0  0  0  0  0  0  0  0  0  0  0
   23.2731  -10.1168  -12.5434 C   0  0  0  0  0  0  0  0  0  0  0  0
   22.9316   -9.4675  -11.3612 C   0  0  0  0  0  0  0  0  0  0  0  0
   22.1843   -8.3066  -11.4513 C   0  0  0  0  0  0  0  0  0  0  0  0
   21.7875   -7.8030  -12.6645 C   0  0  0  0  0  0  0  0  0  0  0  0
   19.5485   -7.0964  -14.5222 C   0  0  0  0  0  0  0  0  0  0  0  0
   19.0351   -7.5201  -13.3183 O   0  0  0  0  0  0  0  0  0  0  0  0
   19.3877   -5.9073  -14.8669 O   0  0  0  0  0  0  0  0  0  0  0  0
  2  1  1  1
  2  3  1  0
  2  7  1  0
  3  4  1  0
  4  5  1  0
  5  9  1  0
  5  6  2  0
  7 10  1  0
  7  8  2  0
 10 11  1  0
 11 12  1  1
 13 12  1  0
 13 17  1  0
 14 13  2  0
 15 11  1  0
 15 16  2  0
 18 15  1  0
 19 18  1  0
 19 20  1  6
 21 20  1  0
 21 22  2  0
 23 22  1  0
 24 23  2  0
 25 26  2  0
 25 24  1  0
 26 21  1  0
 27 19  1  0
 28 27  1  0
 29 27  2  0
M  END
$$$$
