EDF.pdb
     RDKit          3D

 29 29  0  0  1  0  0  0  0  0999 V2000
   22.6423  -12.4120  -17.8760 N   0  0  0  0  0  0  0  0  0  0  0  0
   21.4523  -11.7735  -18.3554 C   0  0  1  0  0  0  0  0  0  0  0  0
   20.1790  -12.2931  -17.8138 C   0  0  0  0  0  0  0  0  0  0  0  0
   19.9770  -12.2024  -16.3370 C   0  0  0  0  0  0  0  0  0  0  0  0
   18.7741  -12.8283  -15.8080 C   0  0  0  0  0  0  0  0  0  0  0  0
   18.0257  -13.6034  -16.4401 O   0  0  0  0  0  0  0  0  0  0  0  0
   21.5863  -10.2971  -18.2653 C   0  0  0  0  0  0  0  0  0  0  0  0
   22.5806   -9.8326  -17.6563 O   0  0  0  0  0  0  0  0  0  0  0  0
   18.4196  -12.5370  -14.4664 O   0  0  0  0  0  0  0  0  0  0  0  0
   20.6623   -9.3936  -18.8241 N   0  0  0  0  0  0  0  0  0  0  0  0
   20.8263   -7.9402  -18.8078 C   0  0  1  0  0  0  0  0  0  0  0  0
   19.7527   -7.3693  -19.6820 C   0  0  0  0  0  0  0  0  0  0  0  0
   19.8252   -5.9154  -19.8775 C   0  0  0  0  0  0  0  0  0  0  0  0
   21.0039   -5.4306  -19.9549 O   0  0  0  0  0  0  0  0  0  0  0  0
   20.5619   -7.4140  -17.4239 C   0  0  0  0  0  0  0  0  0  0  0  0
   19.7303   -8.0253  -16.7061 O   0  0  0  0  0  0  0  0  0  0  0  0
   18.7795   -5.0426  -19.9834 O   0  0  0  0  0  0  0  0  0  0  0  0
   21.1994   -6.2801  -16.9079 N   0  0  0  0  0  0  0  0  0  0  0  0
   21.0205   -5.8394  -15.5103 C   0  0  1  0  0  0  0  0  0  0  0  0
   22.3269   -5.8170  -14.7940 C   0  0  0  0  0  0  0  0  0  0  0  0
   22.8049   -7.1852  -14.5570 C   0  0  0  0  0  0  0  0  0  0  0  0
   23.8446   -7.6794  -15.3421 C   0  0  0  0  0  0  0  0  0  0  0  0
   24.3791   -8.9251  -15.1958 C   0  0  0  0  0  0  0  0  0  0  0  0
   23.8746   -9.7709  -14.2131 C   0  0  0  0  0  0  0  0  0  0  0  0
   22.8418   -9.3017  -13.4210 C   0  0  0  0  0  0  0  0  0  0  0  0
   22.3242   -8.0424  -13.5916 C   0  0  0  0  0  0  0  0  0  0  0  0
   20.3918   -4.5152  -15.5505 C   0  0  0  0  0  0  0  0  0  0  0  0
   20.0382   -3.8754  -14.3851 O   0  0  0  0  0  0  0  0  0  0  0  0
   20.1702   -3.9539  -16.6434 O   0  0  0  0  0  0  0  0  0  0  0  0
  2  1  1  1
  2  3  1  0
  2  7  1  0
  3  4  1  0
  4  5  1  0
  5  9  1  0
  5  6  2  0
  7 10  1  0
  7  8  2  0
 10 11  1  0
 11 12  1  6
 13 12  1  0
 13 17  1  0
 14 13  2  0
 15 11  1  0
 15 16  2  0
 18 15  1  0
 19 18  1  0
 19 20  1  6
 21 20  1  0
 21 22  2  0
 23 22  1  0
 24 23  2  0
 25 26  2  0
 25 24  1  0
 26 21  1  0
 27 19  1  0
 28 27  1  0
 29 27  2  0
M  END
$$$$
