EDF.pdb
     RDKit          3D

 29 29  0  0  1  0  0  0  0  0999 V2000
   22.8449  -15.6273  -18.3889 N   0  0  0  0  0  0  0  0  0  0  0  0
   24.1028  -14.9413  -18.4136 C   0  0  1  0  0  0  0  0  0  0  0  0
   25.0790  -15.4206  -19.4145 C   0  0  0  0  0  0  0  0  0  0  0  0
   25.1572  -16.8946  -19.6413 C   0  0  0  0  0  0  0  0  0  0  0  0
   26.0735  -17.3425  -20.6797 C   0  0  0  0  0  0  0  0  0  0  0  0
   26.1681  -16.8467  -21.8224 O   0  0  0  0  0  0  0  0  0  0  0  0
   23.8892  -13.4717  -18.4376 C   0  0  0  0  0  0  0  0  0  0  0  0
   24.8847  -12.7294  -18.2553 O   0  0  0  0  0  0  0  0  0  0  0  0
   26.9302  -18.4299  -20.3732 O   0  0  0  0  0  0  0  0  0  0  0  0
   22.6354  -12.8683  -18.6529 N   0  0  0  0  0  0  0  0  0  0  0  0
   22.4299  -11.4242  -18.7618 C   0  0  1  0  0  0  0  0  0  0  0  0
   21.1259  -11.2204  -19.4695 C   0  0  0  0  0  0  0  0  0  0  0  0
   21.1733  -11.4317  -20.9222 C   0  0  0  0  0  0  0  0  0  0  0  0
   20.2091  -12.1127  -21.4090 O   0  0  0  0  0  0  0  0  0  0  0  0
   22.2585  -10.8300  -17.3909 C   0  0  0  0  0  0  0  0  0  0  0  0
   21.2835  -11.2137  -16.6961 O   0  0  0  0  0  0  0  0  0  0  0  0
   22.1263  -10.9826  -21.7920 O   0  0  0  0  0  0  0  0  0  0  0  0
   23.1341   -9.8747  -16.8623 N   0  0  0  0  0  0  0  0  0  0  0  0
   22.9446   -9.2835  -15.5228 C   0  0  1  0  0  0  0  0  0  0  0  0
   23.9690   -9.7977  -14.5707 C   0  0  0  0  0  0  0  0  0  0  0  0
   25.2205  -10.0984  -15.2777 C   0  0  0  0  0  0  0  0  0  0  0  0
   25.9264   -9.0527  -15.8692 C   0  0  0  0  0  0  0  0  0  0  0  0
   27.1068   -9.2141  -16.5319 C   0  0  0  0  0  0  0  0  0  0  0  0
   27.6595  -10.4865  -16.6376 C   0  0  0  0  0  0  0  0  0  0  0  0
   26.9763  -11.5407  -16.0577 C   0  0  0  0  0  0  0  0  0  0  0  0
   25.7895  -11.3474  -15.3966 C   0  0  0  0  0  0  0  0  0  0  0  0
   23.0184   -7.8272  -15.6775 C   0  0  0  0  0  0  0  0  0  0  0  0
   23.3454   -7.2706  -16.8924 O   0  0  0  0  0  0  0  0  0  0  0  0
   22.7854   -7.0761  -14.7079 O   0  0  0  0  0  0  0  0  0  0  0  0
  2  1  1  6
  2  3  1  0
  2  7  1  0
  3  4  1  0
  4  5  1  0
  5  9  1  0
  5  6  2  0
  7 10  1  0
  7  8  2  0
 10 11  1  0
 11 12  1  6
 13 12  1  0
 13 17  1  0
 14 13  2  0
 15 11  1  0
 15 16  2  0
 18 15  1  0
 19 18  1  0
 19 20  1  1
 21 20  1  0
 21 22  2  0
 23 22  1  0
 24 23  2  0
 25 26  2  0
 25 24  1  0
 26 21  1  0
 27 19  1  0
 28 27  1  0
 29 27  2  0
M  END
$$$$
