EDF.pdb
     RDKit          3D

 29 29  0  0  1  0  0  0  0  0999 V2000
   21.1451  -10.7310  -19.8474 N   0  0  0  0  0  0  0  0  0  0  0  0
   21.9432   -9.6305  -19.3940 C   0  0  1  0  0  0  0  0  0  0  0  0
   22.7084   -8.9161  -20.4373 C   0  0  0  0  0  0  0  0  0  0  0  0
   23.3757   -9.7460  -21.4841 C   0  0  0  0  0  0  0  0  0  0  0  0
   24.3064   -9.0541  -22.3636 C   0  0  0  0  0  0  0  0  0  0  0  0
   24.5915   -7.8394  -22.3014 O   0  0  0  0  0  0  0  0  0  0  0  0
   21.1420   -8.7378  -18.5182 C   0  0  0  0  0  0  0  0  0  0  0  0
   19.8995   -8.7035  -18.6920 O   0  0  0  0  0  0  0  0  0  0  0  0
   24.9434   -9.8173  -23.3745 O   0  0  0  0  0  0  0  0  0  0  0  0
   21.6984   -7.9311  -17.5071 N   0  0  0  0  0  0  0  0  0  0  0  0
   20.9179   -7.0416  -16.6474 C   0  0  1  0  0  0  0  0  0  0  0  0
   21.3480   -7.3079  -15.2378 C   0  0  0  0  0  0  0  0  0  0  0  0
   20.6601   -6.5018  -14.2207 C   0  0  0  0  0  0  0  0  0  0  0  0
   21.4126   -5.9916  -13.3242 O   0  0  0  0  0  0  0  0  0  0  0  0
   21.2823   -5.6105  -16.9320 C   0  0  0  0  0  0  0  0  0  0  0  0
   22.4813   -5.2631  -16.7828 O   0  0  0  0  0  0  0  0  0  0  0  0
   19.3208   -6.2458  -14.1361 O   0  0  0  0  0  0  0  0  0  0  0  0
   20.3472   -4.6580  -17.3527 N   0  0  0  0  0  0  0  0  0  0  0  0
   20.6893   -3.2307  -17.5125 C   0  0  1  0  0  0  0  0  0  0  0  0
   20.0043   -2.6554  -18.7041 C   0  0  0  0  0  0  0  0  0  0  0  0
   20.3936   -1.2518  -18.8910 C   0  0  0  0  0  0  0  0  0  0  0  0
   19.4557   -0.2540  -18.6331 C   0  0  0  0  0  0  0  0  0  0  0  0
   19.7144    1.0791  -18.7538 C   0  0  0  0  0  0  0  0  0  0  0  0
   20.9802    1.4930  -19.1562 C   0  0  0  0  0  0  0  0  0  0  0  0
   21.9282    0.5198  -19.4179 C   0  0  0  0  0  0  0  0  0  0  0  0
   21.6386   -0.8151  -19.2874 C   0  0  0  0  0  0  0  0  0  0  0  0
   20.3013   -2.5507  -16.2726 C   0  0  0  0  0  0  0  0  0  0  0  0
   21.0250   -1.4756  -15.8110 O   0  0  0  0  0  0  0  0  0  0  0  0
   19.3097   -2.9403  -15.6218 O   0  0  0  0  0  0  0  0  0  0  0  0
  2  1  1  6
  2  3  1  0
  2  7  1  0
  3  4  1  0
  4  5  1  0
  5  9  1  0
  5  6  2  0
  7 10  1  0
  7  8  2  0
 10 11  1  0
 11 12  1  1
 13 12  1  0
 13 17  1  0
 14 13  2  0
 15 11  1  0
 15 16  2  0
 18 15  1  0
 19 18  1  0
 19 20  1  6
 21 20  1  0
 21 22  2  0
 23 22  1  0
 24 23  2  0
 25 26  2  0
 25 24  1  0
 26 21  1  0
 27 19  1  0
 28 27  1  0
 29 27  2  0
M  END
$$$$
