EDF.pdb
     RDKit          3D

 29 29  0  0  1  0  0  0  0  0999 V2000
   24.3569   -4.3492  -17.1406 N   0  0  0  0  0  0  0  0  0  0  0  0
   23.9195   -3.9654  -15.8310 C   0  0  1  0  0  0  0  0  0  0  0  0
   23.3047   -2.6257  -15.7235 C   0  0  0  0  0  0  0  0  0  0  0  0
   22.7541   -2.0242  -16.9745 C   0  0  0  0  0  0  0  0  0  0  0  0
   23.0214   -0.6089  -17.1850 C   0  0  0  0  0  0  0  0  0  0  0  0
   22.1775    0.3072  -17.0898 O   0  0  0  0  0  0  0  0  0  0  0  0
   23.1100   -5.0497  -15.2186 C   0  0  0  0  0  0  0  0  0  0  0  0
   22.6752   -4.8735  -14.0544 O   0  0  0  0  0  0  0  0  0  0  0  0
   24.3461   -0.2358  -17.5259 O   0  0  0  0  0  0  0  0  0  0  0  0
   22.8048   -6.2597  -15.8705 N   0  0  0  0  0  0  0  0  0  0  0  0
   22.0111   -7.3336  -15.2735 C   0  0  1  0  0  0  0  0  0  0  0  0
   20.5708   -6.9708  -15.4648 C   0  0  0  0  0  0  0  0  0  0  0  0
   19.6130   -7.9758  -14.9852 C   0  0  0  0  0  0  0  0  0  0  0  0
   18.6062   -8.1797  -15.7437 O   0  0  0  0  0  0  0  0  0  0  0  0
   22.2255   -8.6103  -16.0390 C   0  0  0  0  0  0  0  0  0  0  0  0
   22.3156   -8.5429  -17.2911 O   0  0  0  0  0  0  0  0  0  0  0  0
   19.6865   -8.7029  -13.8309 O   0  0  0  0  0  0  0  0  0  0  0  0
   22.3276   -9.8602  -15.4177 N   0  0  0  0  0  0  0  0  0  0  0  0
   22.6133  -11.0971  -16.1715 C   0  0  1  0  0  0  0  0  0  0  0  0
   23.7035  -11.8731  -15.5161 C   0  0  0  0  0  0  0  0  0  0  0  0
   25.0166  -11.3722  -15.9423 C   0  0  0  0  0  0  0  0  0  0  0  0
   25.8331  -10.7438  -15.0043 C   0  0  0  0  0  0  0  0  0  0  0  0
   27.0765  -10.2598  -15.2846 C   0  0  0  0  0  0  0  0  0  0  0  0
   27.5820  -10.3884  -16.5744 C   0  0  0  0  0  0  0  0  0  0  0  0
   26.7889  -11.0092  -17.5230 C   0  0  0  0  0  0  0  0  0  0  0  0
   25.5409  -11.4869  -17.2111 C   0  0  0  0  0  0  0  0  0  0  0  0
   21.3624  -11.8588  -16.2446 C   0  0  0  0  0  0  0  0  0  0  0  0
   21.2677  -12.9684  -17.0524 O   0  0  0  0  0  0  0  0  0  0  0  0
   20.3691  -11.5084  -15.5743 O   0  0  0  0  0  0  0  0  0  0  0  0
  2  1  1  6
  2  3  1  0
  2  7  1  0
  3  4  1  0
  4  5  1  0
  5  9  1  0
  5  6  2  0
  7 10  1  0
  7  8  2  0
 10 11  1  0
 11 12  1  6
 13 12  1  0
 13 17  1  0
 14 13  2  0
 15 11  1  0
 15 16  2  0
 18 15  1  0
 19 18  1  0
 19 20  1  1
 21 20  1  0
 21 22  2  0
 23 22  1  0
 24 23  2  0
 25 26  2  0
 25 24  1  0
 26 21  1  0
 27 19  1  0
 28 27  1  0
 29 27  2  0
M  END
$$$$
