EDF.pdb
     RDKit          3D

 29 29  0  0  1  0  0  0  0  0999 V2000
   16.1762  -10.1624  -19.1314 N   0  0  0  0  0  0  0  0  0  0  0  0
   16.6018  -10.0525  -17.7674 C   0  0  1  0  0  0  0  0  0  0  0  0
   17.2276  -11.2596  -17.1881 C   0  0  0  0  0  0  0  0  0  0  0  0
   16.3147  -12.3030  -16.6332 C   0  0  0  0  0  0  0  0  0  0  0  0
   16.2442  -12.3972  -15.1824 C   0  0  0  0  0  0  0  0  0  0  0  0
   15.6196  -11.6128  -14.4374 O   0  0  0  0  0  0  0  0  0  0  0  0
   17.3942   -8.8115  -17.5721 C   0  0  0  0  0  0  0  0  0  0  0  0
   18.2931   -8.5497  -18.4081 O   0  0  0  0  0  0  0  0  0  0  0  0
   16.9398  -13.4647  -14.5605 O   0  0  0  0  0  0  0  0  0  0  0  0
   17.1926   -7.9162  -16.5044 N   0  0  0  0  0  0  0  0  0  0  0  0
   18.0059   -6.7228  -16.2721 C   0  0  1  0  0  0  0  0  0  0  0  0
   17.1936   -5.7998  -15.4171 C   0  0  0  0  0  0  0  0  0  0  0  0
   17.8801   -4.5638  -15.0194 C   0  0  0  0  0  0  0  0  0  0  0  0
   17.6189   -4.1461  -13.8414 O   0  0  0  0  0  0  0  0  0  0  0  0
   19.2194   -7.0844  -15.4605 C   0  0  0  0  0  0  0  0  0  0  0  0
   19.1241   -8.0343  -14.6426 O   0  0  0  0  0  0  0  0  0  0  0  0
   18.7546   -3.8270  -15.7669 O   0  0  0  0  0  0  0  0  0  0  0  0
   20.4403   -6.4106  -15.5786 N   0  0  0  0  0  0  0  0  0  0  0  0
   21.7038   -6.9656  -15.0539 C   0  0  1  0  0  0  0  0  0  0  0  0
   22.3283   -7.8838  -16.0475 C   0  0  0  0  0  0  0  0  0  0  0  0
   23.6193   -8.3760  -15.5497 C   0  0  0  0  0  0  0  0  0  0  0  0
   24.7918   -7.8734  -16.1104 C   0  0  0  0  0  0  0  0  0  0  0  0
   26.0420   -8.2439  -15.7124 C   0  0  0  0  0  0  0  0  0  0  0  0
   26.1821   -9.1760  -14.6891 C   0  0  0  0  0  0  0  0  0  0  0  0
   25.0315   -9.6890  -14.1169 C   0  0  0  0  0  0  0  0  0  0  0  0
   23.7861   -9.2967  -14.5387 C   0  0  0  0  0  0  0  0  0  0  0  0
   22.5741   -5.8306  -14.7299 C   0  0  0  0  0  0  0  0  0  0  0  0
   22.4843   -4.6573  -15.4426 O   0  0  0  0  0  0  0  0  0  0  0  0
   23.4065   -5.9169  -13.8035 O   0  0  0  0  0  0  0  0  0  0  0  0
  2  1  1  6
  2  3  1  0
  2  7  1  0
  3  4  1  0
  4  5  1  0
  5  9  1  0
  5  6  2  0
  7 10  1  0
  7  8  2  0
 10 11  1  0
 11 12  1  1
 13 12  1  0
 13 17  1  0
 14 13  2  0
 15 11  1  0
 15 16  2  0
 18 15  1  0
 19 18  1  0
 19 20  1  6
 21 20  1  0
 21 22  2  0
 23 22  1  0
 24 23  2  0
 25 26  2  0
 25 24  1  0
 26 21  1  0
 27 19  1  0
 28 27  1  0
 29 27  2  0
M  END
$$$$
