EDF.pdb
     RDKit          3D

 29 29  0  0  1  0  0  0  0  0999 V2000
   21.2355  -17.7350  -14.9607 N   0  0  0  0  0  0  0  0  0  0  0  0
   21.0928  -19.1051  -15.3560 C   0  0  1  0  0  0  0  0  0  0  0  0
   20.5369  -19.3318  -16.7066 C   0  0  0  0  0  0  0  0  0  0  0  0
   20.6873  -18.2284  -17.7015 C   0  0  0  0  0  0  0  0  0  0  0  0
   19.9700  -16.9948  -17.4142 C   0  0  0  0  0  0  0  0  0  0  0  0
   20.5011  -15.8902  -17.1731 O   0  0  0  0  0  0  0  0  0  0  0  0
   22.3479  -19.8530  -15.0888 C   0  0  0  0  0  0  0  0  0  0  0  0
   22.2559  -20.9844  -14.5532 O   0  0  0  0  0  0  0  0  0  0  0  0
   18.5532  -17.0473  -17.4066 O   0  0  0  0  0  0  0  0  0  0  0  0
   23.6303  -19.3639  -15.4025 N   0  0  0  0  0  0  0  0  0  0  0  0
   24.8676  -20.1140  -15.1878 C   0  0  1  0  0  0  0  0  0  0  0  0
   25.8996  -19.5250  -16.0993 C   0  0  0  0  0  0  0  0  0  0  0  0
   25.6985  -19.8125  -17.5255 C   0  0  0  0  0  0  0  0  0  0  0  0
   25.7412  -21.0474  -17.8473 O   0  0  0  0  0  0  0  0  0  0  0  0
   25.3660  -19.8827  -13.7878 C   0  0  0  0  0  0  0  0  0  0  0  0
   25.6044  -18.7011  -13.4309 O   0  0  0  0  0  0  0  0  0  0  0  0
   25.4743  -18.9105  -18.5268 O   0  0  0  0  0  0  0  0  0  0  0  0
   25.5736  -20.9224  -12.8742 N   0  0  0  0  0  0  0  0  0  0  0  0
   26.1635  -20.6966  -11.5397 C   0  0  1  0  0  0  0  0  0  0  0  0
   25.1516  -20.1260  -10.6065 C   0  0  0  0  0  0  0  0  0  0  0  0
   25.7460  -19.8982   -9.2830 C   0  0  0  0  0  0  0  0  0  0  0  0
   25.5622  -20.8577   -8.2895 C   0  0  0  0  0  0  0  0  0  0  0  0
   26.0847  -20.7589   -7.0341 C   0  0  0  0  0  0  0  0  0  0  0  0
   26.8492  -19.6453   -6.7009 C   0  0  0  0  0  0  0  0  0  0  0  0
   27.0453  -18.6791   -7.6717 C   0  0  0  0  0  0  0  0  0  0  0  0
   26.5068  -18.8062   -8.9273 C   0  0  0  0  0  0  0  0  0  0  0  0
   26.6800  -21.9863  -11.0704 C   0  0  0  0  0  0  0  0  0  0  0  0
   27.8400  -22.0464  -10.3332 O   0  0  0  0  0  0  0  0  0  0  0  0
   26.0726  -23.0444  -11.3351 O   0  0  0  0  0  0  0  0  0  0  0  0
  2  1  1  6
  2  3  1  0
  2  7  1  0
  3  4  1  0
  4  5  1  0
  5  9  1  0
  5  6  2  0
  7 10  1  0
  7  8  2  0
 10 11  1  0
 11 12  1  6
 13 12  1  0
 13 17  1  0
 14 13  2  0
 15 11  1  0
 15 16  2  0
 18 15  1  0
 19 18  1  0
 19 20  1  1
 21 20  1  0
 21 22  2  0
 23 22  1  0
 24 23  2  0
 25 26  2  0
 25 24  1  0
 26 21  1  0
 27 19  1  0
 28 27  1  0
 29 27  2  0
M  END
$$$$
