EDF.pdb
     RDKit          3D

 29 29  0  0  1  0  0  0  0  0999 V2000
   26.8658  -20.1910  -15.5856 N   0  0  0  0  0  0  0  0  0  0  0  0
   27.4137  -19.2783  -14.6262 C   0  0  1  0  0  0  0  0  0  0  0  0
   27.7863  -17.9452  -15.1443 C   0  0  0  0  0  0  0  0  0  0  0  0
   28.7331  -17.9008  -16.2982 C   0  0  0  0  0  0  0  0  0  0  0  0
   28.2871  -18.5406  -17.5272 C   0  0  0  0  0  0  0  0  0  0  0  0
   27.7219  -17.9614  -18.4788 O   0  0  0  0  0  0  0  0  0  0  0  0
   26.5621  -19.2345  -13.4101 C   0  0  0  0  0  0  0  0  0  0  0  0
   26.3392  -18.1152  -12.8879 O   0  0  0  0  0  0  0  0  0  0  0  0
   28.5106  -19.9345  -17.6588 O   0  0  0  0  0  0  0  0  0  0  0  0
   25.9933  -20.3761  -12.8136 N   0  0  0  0  0  0  0  0  0  0  0  0
   25.1199  -20.3377  -11.6409 C   0  0  1  0  0  0  0  0  0  0  0  0
   24.0664  -21.3821  -11.8462 C   0  0  0  0  0  0  0  0  0  0  0  0
   22.9583  -20.9763  -12.7206 C   0  0  0  0  0  0  0  0  0  0  0  0
   22.7498  -21.7323  -13.7283 O   0  0  0  0  0  0  0  0  0  0  0  0
   25.8905  -20.7562  -10.4190 C   0  0  0  0  0  0  0  0  0  0  0  0
   26.5171  -21.8453  -10.4574 O   0  0  0  0  0  0  0  0  0  0  0  0
   22.1411  -19.8919  -12.5700 O   0  0  0  0  0  0  0  0  0  0  0  0
   25.9369  -19.9875   -9.2504 N   0  0  0  0  0  0  0  0  0  0  0  0
   26.6864  -20.4145   -8.0522 C   0  0  1  0  0  0  0  0  0  0  0  0
   27.4268  -19.2663   -7.4574 C   0  0  0  0  0  0  0  0  0  0  0  0
   28.0608  -19.6646   -6.1940 C   0  0  0  0  0  0  0  0  0  0  0  0
   27.5175  -19.2062   -4.9956 C   0  0  0  0  0  0  0  0  0  0  0  0
   28.0117  -19.5289   -3.7666 C   0  0  0  0  0  0  0  0  0  0  0  0
   29.1221  -20.3625   -3.6771 C   0  0  0  0  0  0  0  0  0  0  0  0
   29.6787  -20.8301   -4.8543 C   0  0  0  0  0  0  0  0  0  0  0  0
   29.1589  -20.4882   -6.0773 C   0  0  0  0  0  0  0  0  0  0  0  0
   25.7152  -20.9883   -7.1152 C   0  0  0  0  0  0  0  0  0  0  0  0
   26.1174  -21.8958   -6.1627 O   0  0  0  0  0  0  0  0  0  0  0  0
   24.5122  -20.6595   -7.1719 O   0  0  0  0  0  0  0  0  0  0  0  0
  2  1  1  6
  2  3  1  0
  2  7  1  0
  3  4  1  0
  4  5  1  0
  5  9  1  0
  5  6  2  0
  7 10  1  0
  7  8  2  0
 10 11  1  0
 11 12  1  6
 13 12  1  0
 13 17  1  0
 14 13  2  0
 15 11  1  0
 15 16  2  0
 18 15  1  0
 19 18  1  0
 19 20  1  1
 21 20  1  0
 21 22  2  0
 23 22  1  0
 24 23  2  0
 25 26  2  0
 25 24  1  0
 26 21  1  0
 27 19  1  0
 28 27  1  0
 29 27  2  0
M  END
$$$$
