EDF.pdb
     RDKit          3D

 29 29  0  0  1  0  0  0  0  0999 V2000
   22.1316  -21.6977  -17.2206 N   0  0  0  0  0  0  0  0  0  0  0  0
   22.6896  -20.6274  -16.4481 C   0  0  1  0  0  0  0  0  0  0  0  0
   21.7157  -19.7225  -15.8025 C   0  0  0  0  0  0  0  0  0  0  0  0
   20.6666  -19.1139  -16.6738 C   0  0  0  0  0  0  0  0  0  0  0  0
   19.2868  -19.4575  -16.3629 C   0  0  0  0  0  0  0  0  0  0  0  0
   18.6732  -19.1173  -15.3294 O   0  0  0  0  0  0  0  0  0  0  0  0
   23.7325  -21.1453  -15.5261 C   0  0  0  0  0  0  0  0  0  0  0  0
   23.4809  -22.1927  -14.8819 O   0  0  0  0  0  0  0  0  0  0  0  0
   18.5781  -20.2420  -17.3077 O   0  0  0  0  0  0  0  0  0  0  0  0
   24.9833  -20.5275  -15.3361 N   0  0  0  0  0  0  0  0  0  0  0  0
   25.9860  -20.9876  -14.3756 C   0  0  1  0  0  0  0  0  0  0  0  0
   27.3100  -20.4656  -14.8420 C   0  0  0  0  0  0  0  0  0  0  0  0
   27.9015  -21.2023  -15.9666 C   0  0  0  0  0  0  0  0  0  0  0  0
   27.9454  -20.5691  -17.0745 O   0  0  0  0  0  0  0  0  0  0  0  0
   25.7355  -20.3528  -13.0354 C   0  0  0  0  0  0  0  0  0  0  0  0
   25.5221  -19.1145  -12.9965 O   0  0  0  0  0  0  0  0  0  0  0  0
   28.4012  -22.4737  -15.9502 O   0  0  0  0  0  0  0  0  0  0  0  0
   25.7307  -21.0800  -11.8397 N   0  0  0  0  0  0  0  0  0  0  0  0
   25.4718  -20.4480  -10.5307 C   0  0  1  0  0  0  0  0  0  0  0  0
   24.2789  -21.0579   -9.8784 C   0  0  0  0  0  0  0  0  0  0  0  0
   23.0485  -20.6247  -10.5530 C   0  0  0  0  0  0  0  0  0  0  0  0
   22.5151  -21.4278  -11.5590 C   0  0  0  0  0  0  0  0  0  0  0  0
   21.3691  -21.1335  -12.2365 C   0  0  0  0  0  0  0  0  0  0  0  0
   20.6736  -19.9698  -11.9240 C   0  0  0  0  0  0  0  0  0  0  0  0
   21.1844  -19.1565  -10.9280 C   0  0  0  0  0  0  0  0  0  0  0  0
   22.3405  -19.4791  -10.2630 C   0  0  0  0  0  0  0  0  0  0  0  0
   26.6848  -20.6115   -9.7232 C   0  0  0  0  0  0  0  0  0  0  0  0
   26.7725  -20.0431   -8.4734 O   0  0  0  0  0  0  0  0  0  0  0  0
   27.6519  -21.2683  -10.1613 O   0  0  0  0  0  0  0  0  0  0  0  0
  2  1  1  1
  2  3  1  0
  2  7  1  0
  3  4  1  0
  4  5  1  0
  5  9  1  0
  5  6  2  0
  7 10  1  0
  7  8  2  0
 10 11  1  0
 11 12  1  6
 13 12  1  0
 13 17  1  0
 14 13  2  0
 15 11  1  0
 15 16  2  0
 18 15  1  0
 19 18  1  0
 19 20  1  1
 21 20  1  0
 21 22  2  0
 23 22  1  0
 24 23  2  0
 25 26  2  0
 25 24  1  0
 26 21  1  0
 27 19  1  0
 28 27  1  0
 29 27  2  0
M  END
$$$$
