EDF.pdb
     RDKit          3D

 29 29  0  0  1  0  0  0  0  0999 V2000
   28.1315  -20.3261  -15.9626 N   0  0  0  0  0  0  0  0  0  0  0  0
   28.3177  -19.0771  -15.2851 C   0  0  1  0  0  0  0  0  0  0  0  0
   28.3133  -17.8724  -16.1412 C   0  0  0  0  0  0  0  0  0  0  0  0
   27.1086  -17.6445  -16.9937 C   0  0  0  0  0  0  0  0  0  0  0  0
   27.3365  -17.5639  -18.4291 C   0  0  0  0  0  0  0  0  0  0  0  0
   27.6228  -16.5229  -19.0574 O   0  0  0  0  0  0  0  0  0  0  0  0
   27.4105  -18.9853  -14.1127 C   0  0  0  0  0  0  0  0  0  0  0  0
   27.4959  -17.9693  -13.3808 O   0  0  0  0  0  0  0  0  0  0  0  0
   27.2254  -18.7623  -19.1785 O   0  0  0  0  0  0  0  0  0  0  0  0
   26.4633  -19.9722  -13.7791 N   0  0  0  0  0  0  0  0  0  0  0  0
   25.5064  -19.8499  -12.6796 C   0  0  1  0  0  0  0  0  0  0  0  0
   24.1857  -20.3339  -13.1937 C   0  0  0  0  0  0  0  0  0  0  0  0
   23.0906  -20.2916  -12.2158 C   0  0  0  0  0  0  0  0  0  0  0  0
   22.1837  -21.1772  -12.3695 O   0  0  0  0  0  0  0  0  0  0  0  0
   25.8892  -20.7853  -11.5658 C   0  0  0  0  0  0  0  0  0  0  0  0
   26.0851  -21.9946  -11.8481 O   0  0  0  0  0  0  0  0  0  0  0  0
   22.9443  -19.4175  -11.1762 O   0  0  0  0  0  0  0  0  0  0  0  0
   26.0347  -20.3663  -10.2385 N   0  0  0  0  0  0  0  0  0  0  0  0
   26.4022  -21.2954   -9.1515 C   0  0  1  0  0  0  0  0  0  0  0  0
   27.7795  -21.0111   -8.6591 C   0  0  0  0  0  0  0  0  0  0  0  0
   27.7280  -20.2717   -7.3913 C   0  0  0  0  0  0  0  0  0  0  0  0
   28.1565  -20.9046   -6.2262 C   0  0  0  0  0  0  0  0  0  0  0  0
   28.1710  -20.3078   -5.0005 C   0  0  0  0  0  0  0  0  0  0  0  0
   27.7378  -18.9912   -4.8796 C   0  0  0  0  0  0  0  0  0  0  0  0
   27.3077  -18.3422   -6.0234 C   0  0  0  0  0  0  0  0  0  0  0  0
   27.3047  -18.9691   -7.2440 C   0  0  0  0  0  0  0  0  0  0  0  0
   25.3973  -21.1446   -8.0943 C   0  0  0  0  0  0  0  0  0  0  0  0
   25.3834  -22.0015   -7.0181 O   0  0  0  0  0  0  0  0  0  0  0  0
   24.5429  -20.2367   -8.1594 O   0  0  0  0  0  0  0  0  0  0  0  0
  2  1  1  6
  2  3  1  0
  2  7  1  0
  3  4  1  0
  4  5  1  0
  5  9  1  0
  5  6  2  0
  7 10  1  0
  7  8  2  0
 10 11  1  0
 11 12  1  6
 13 12  1  0
 13 17  1  0
 14 13  2  0
 15 11  1  0
 15 16  2  0
 18 15  1  0
 19 18  1  0
 19 20  1  1
 21 20  1  0
 21 22  2  0
 23 22  1  0
 24 23  2  0
 25 26  2  0
 25 24  1  0
 26 21  1  0
 27 19  1  0
 28 27  1  0
 29 27  2  0
M  END
$$$$
