GKI.pdb
     RDKit          3D

 22 21  0  0  1  0  0  0  0  0999 V2000
    6.3143  -21.0640   23.2773 N   0  0  0  0  0  0  0  0  0  0  0  0
    6.0774  -19.8603   24.0329 C   0  0  0  0  0  0  0  0  0  0  0  0
    7.1150  -18.8375   23.7912 C   0  0  0  0  0  0  0  0  0  0  0  0
    8.3190  -19.1627   23.9906 O   0  0  0  0  0  0  0  0  0  0  0  0
    6.7200  -17.5512   23.3515 N   0  0  0  0  0  0  0  0  0  0  0  0
    7.7246  -16.5295   23.1494 C   0  0  1  0  0  0  0  0  0  0  0  0
    7.1520  -15.4527   22.2671 C   0  0  0  0  0  0  0  0  0  0  0  0
    8.1524  -14.5180   21.6803 C   0  0  0  0  0  0  0  0  0  0  0  0
    7.6793  -13.8589   20.4121 C   0  0  0  0  0  0  0  0  0  0  0  0
    8.7842  -12.9984   19.8357 C   0  0  0  0  0  0  0  0  0  0  0  0
    8.3646  -12.2067   18.7200 N   0  0  0  0  0  0  0  0  0  0  0  0
    8.2277  -16.0120   24.4484 C   0  0  0  0  0  0  0  0  0  0  0  0
    7.5885  -16.2686   25.4838 O   0  0  0  0  0  0  0  0  0  0  0  0
    9.7077  -13.3863   29.1252 C   0  0  0  0  0  0  0  0  0  0  0  0
   10.3483  -14.2362   28.0683 C   0  0  0  0  0  0  0  0  0  0  0  0
    9.5282  -14.2817   26.7962 C   0  0  2  0  0  0  0  0  0  0  0  0
    8.1282  -14.7835   27.0930 C   0  0  0  0  0  0  0  0  0  0  0  0
   10.1360  -15.2194   25.7774 C   0  0  2  0  0  0  0  0  0  0  0  0
    9.4178  -15.2328   24.5413 N   0  0  0  0  0  0  0  0  0  0  0  0
   10.1081  -16.5868   26.3560 C   0  0  0  0  0  0  0  0  0  0  0  0
    9.0184  -17.2230   26.3026 O   0  0  0  0  0  0  0  0  0  0  0  0
   11.2258  -17.1768   26.9437 O   0  0  0  0  0  0  0  0  0  0  0  0
  2  3  1  0
  2  1  1  0
  3  4  2  0
  5  6  1  0
  5  3  1  0
  7  8  1  0
  6  7  1  6
  9 10  1  0
  9  8  1  0
 10 11  1  0
 12  6  1  0
 12 19  1  0
 13 12  2  0
 15 14  1  0
 16 15  1  0
 16 17  1  1
 18 19  1  6
 18 16  1  0
 20 18  1  0
 21 20  2  0
 22 20  1  0
M  END
$$$$
