GKI.pdb
     RDKit          3D

 22 21  0  0  1  0  0  0  0  0999 V2000
    8.4632  -12.2236   18.3791 N   0  0  0  0  0  0  0  0  0  0  0  0
    8.9324  -13.5111   18.8244 C   0  0  0  0  0  0  0  0  0  0  0  0
    8.1494  -14.0249   19.9664 C   0  0  0  0  0  0  0  0  0  0  0  0
    7.3287  -13.2391   20.5178 O   0  0  0  0  0  0  0  0  0  0  0  0
    8.3500  -15.3609   20.3891 N   0  0  0  0  0  0  0  0  0  0  0  0
    7.6100  -15.8657   21.5255 C   0  0  1  0  0  0  0  0  0  0  0  0
    7.5586  -17.3679   21.4437 C   0  0  0  0  0  0  0  0  0  0  0  0
    6.6746  -18.0257   22.4460 C   0  0  0  0  0  0  0  0  0  0  0  0
    5.6819  -18.9762   21.8316 C   0  0  0  0  0  0  0  0  0  0  0  0
    4.8325  -19.6056   22.9159 C   0  0  0  0  0  0  0  0  0  0  0  0
    3.8890  -20.5590   22.4172 N   0  0  0  0  0  0  0  0  0  0  0  0
    8.1893  -15.3712   22.8015 C   0  0  0  0  0  0  0  0  0  0  0  0
    9.4222  -15.4172   22.9575 O   0  0  0  0  0  0  0  0  0  0  0  0
    7.0469  -11.4025   27.3871 C   0  0  0  0  0  0  0  0  0  0  0  0
    7.8431  -12.5295   26.7994 C   0  0  0  0  0  0  0  0  0  0  0  0
    7.1528  -13.1565   25.6065 C   0  0  2  0  0  0  0  0  0  0  0  0
    5.8570  -13.8158   26.0377 C   0  0  0  0  0  0  0  0  0  0  0  0
    8.0107  -14.2252   24.9672 C   0  0  2  0  0  0  0  0  0  0  0  0
    7.3752  -14.8475   23.8479 N   0  0  0  0  0  0  0  0  0  0  0  0
    8.2755  -15.2612   25.9977 C   0  0  0  0  0  0  0  0  0  0  0  0
    9.1336  -14.9974   26.8861 O   0  0  0  0  0  0  0  0  0  0  0  0
    7.6186  -16.4904   26.0132 O   0  0  0  0  0  0  0  0  0  0  0  0
  2  3  1  0
  2  1  1  0
  3  4  2  0
  5  6  1  0
  5  3  1  0
  7  8  1  0
  6  7  1  1
  9 10  1  0
  9  8  1  0
 10 11  1  0
 12  6  1  0
 12 19  1  0
 13 12  2  0
 15 14  1  0
 16 15  1  0
 16 17  1  1
 18 19  1  6
 18 16  1  0
 20 18  1  0
 21 20  2  0
 22 20  1  0
M  END
$$$$
