GKI.pdb
     RDKit          3D

 22 21  0  0  1  0  0  0  0  0999 V2000
    7.2022  -12.9618   18.9343 N   0  0  0  0  0  0  0  0  0  0  0  0
    7.9411  -14.0860   19.4503 C   0  0  0  0  0  0  0  0  0  0  0  0
    7.3957  -14.5687   20.7351 C   0  0  0  0  0  0  0  0  0  0  0  0
    6.7601  -13.7449   21.4509 O   0  0  0  0  0  0  0  0  0  0  0  0
    7.6064  -15.9189   21.1048 N   0  0  0  0  0  0  0  0  0  0  0  0
    7.1079  -16.3934   22.3777 C   0  0  1  0  0  0  0  0  0  0  0  0
    7.0755  -17.8981   22.3567 C   0  0  0  0  0  0  0  0  0  0  0  0
    6.6559  -18.5393   23.6340 C   0  0  0  0  0  0  0  0  0  0  0  0
    6.5854  -20.0409   23.5514 C   0  0  0  0  0  0  0  0  0  0  0  0
    6.0928  -20.6064   24.8672 C   0  0  0  0  0  0  0  0  0  0  0  0
    5.8530  -22.0166   24.8255 N   0  0  0  0  0  0  0  0  0  0  0  0
    7.9085  -15.8435   23.5025 C   0  0  0  0  0  0  0  0  0  0  0  0
    9.1410  -15.7452   23.3689 O   0  0  0  0  0  0  0  0  0  0  0  0
    5.8455  -11.6623   26.1055 C   0  0  0  0  0  0  0  0  0  0  0  0
    6.8006  -12.6099   25.4426 C   0  0  0  0  0  0  0  0  0  0  0  0
    7.3408  -13.6452   26.4064 C   0  0  2  0  0  0  0  0  0  0  0  0
    8.2957  -12.9973   27.3904 C   0  0  0  0  0  0  0  0  0  0  0  0
    8.1069  -14.7302   25.6835 C   0  0  2  0  0  0  0  0  0  0  0  0
    7.3064  -15.4271   24.7256 N   0  0  0  0  0  0  0  0  0  0  0  0
    8.5767  -15.7012   26.7041 C   0  0  0  0  0  0  0  0  0  0  0  0
    7.8390  -16.6969   26.9483 O   0  0  0  0  0  0  0  0  0  0  0  0
    9.7827  -15.5497   27.3862 O   0  0  0  0  0  0  0  0  0  0  0  0
  2  3  1  0
  2  1  1  0
  3  4  2  0
  5  6  1  0
  5  3  1  0
  7  8  1  0
  6  7  1  6
  9 10  1  0
  9  8  1  0
 10 11  1  0
 12  6  1  0
 12 19  1  0
 13 12  2  0
 15 14  1  0
 16 15  1  0
 16 17  1  1
 18 19  1  6
 18 16  1  0
 20 18  1  0
 21 20  2  0
 22 20  1  0
M  END
$$$$
