GKI.pdb
     RDKit          3D

 22 21  0  0  1  0  0  0  0  0999 V2000
    7.7315  -12.7111   18.5876 N   0  0  0  0  0  0  0  0  0  0  0  0
    8.4442  -13.8489   19.1105 C   0  0  0  0  0  0  0  0  0  0  0  0
    7.9276  -14.2727   20.4276 C   0  0  0  0  0  0  0  0  0  0  0  0
    7.2694  -13.4302   21.0999 O   0  0  0  0  0  0  0  0  0  0  0  0
    8.1895  -15.5900   20.8749 N   0  0  0  0  0  0  0  0  0  0  0  0
    7.6409  -16.0340   22.1381 C   0  0  1  0  0  0  0  0  0  0  0  0
    7.6731  -17.5383   22.1801 C   0  0  0  0  0  0  0  0  0  0  0  0
    7.1181  -18.1481   23.4207 C   0  0  0  0  0  0  0  0  0  0  0  0
    7.1102  -19.6533   23.3922 C   0  0  0  0  0  0  0  0  0  0  0  0
    6.4373  -20.1883   24.6390 C   0  0  0  0  0  0  0  0  0  0  0  0
    6.4615  -21.6163   24.7296 N   0  0  0  0  0  0  0  0  0  0  0  0
    8.3534  -15.4039   23.2799 C   0  0  0  0  0  0  0  0  0  0  0  0
    9.5953  -15.3450   23.2524 O   0  0  0  0  0  0  0  0  0  0  0  0
    6.0436  -11.8557   27.2143 C   0  0  0  0  0  0  0  0  0  0  0  0
    6.3995  -12.9479   26.2498 C   0  0  0  0  0  0  0  0  0  0  0  0
    7.8284  -12.8365   25.7615 C   0  0  2  0  0  0  0  0  0  0  0  0
    7.8887  -11.9872   24.5066 C   0  0  0  0  0  0  0  0  0  0  0  0
    8.4041  -14.1915   25.4161 C   0  0  2  0  0  0  0  0  0  0  0  0
    7.6567  -14.8670   24.4017 N   0  0  0  0  0  0  0  0  0  0  0  0
    8.3786  -15.0158   26.6511 C   0  0  0  0  0  0  0  0  0  0  0  0
    9.0959  -14.6404   27.6205 O   0  0  0  0  0  0  0  0  0  0  0  0
    7.6025  -16.1675   26.7697 O   0  0  0  0  0  0  0  0  0  0  0  0
  2  3  1  0
  2  1  1  0
  3  4  2  0
  5  6  1  0
  5  3  1  0
  7  8  1  0
  6  7  1  1
  9 10  1  0
  9  8  1  0
 10 11  1  0
 12  6  1  0
 12 19  1  0
 13 12  2  0
 15 14  1  0
 16 15  1  0
 16 17  1  6
 18 19  1  6
 18 16  1  0
 20 18  1  0
 21 20  2  0
 22 20  1  0
M  END
$$$$
