GKI.pdb
     RDKit          3D

 22 21  0  0  1  0  0  0  0  0999 V2000
   11.1767  -19.3284   21.5624 N   0  0  0  0  0  0  0  0  0  0  0  0
    9.8991  -18.9310   22.0970 C   0  0  0  0  0  0  0  0  0  0  0  0
    9.7664  -17.4631   22.1901 C   0  0  0  0  0  0  0  0  0  0  0  0
   10.7977  -16.7970   22.4863 O   0  0  0  0  0  0  0  0  0  0  0  0
    8.5033  -16.8724   21.9461 N   0  0  0  0  0  0  0  0  0  0  0  0
    8.3340  -15.4490   22.1442 C   0  0  1  0  0  0  0  0  0  0  0  0
    7.1153  -14.9944   21.3865 C   0  0  0  0  0  0  0  0  0  0  0  0
    7.3039  -13.7670   20.5638 C   0  0  0  0  0  0  0  0  0  0  0  0
    7.7133  -14.0586   19.1448 C   0  0  0  0  0  0  0  0  0  0  0  0
    7.9839  -12.7621   18.4102 C   0  0  0  0  0  0  0  0  0  0  0  0
    8.2529  -12.9439   17.0165 N   0  0  0  0  0  0  0  0  0  0  0  0
    8.2788  -15.1147   23.5911 C   0  0  0  0  0  0  0  0  0  0  0  0
    7.8080  -15.9511   24.3818 O   0  0  0  0  0  0  0  0  0  0  0  0
    6.2725  -11.5430   27.6899 C   0  0  0  0  0  0  0  0  0  0  0  0
    7.4564  -12.3873   27.3223 C   0  0  0  0  0  0  0  0  0  0  0  0
    7.4267  -12.8125   25.8693 C   0  0  2  0  0  0  0  0  0  0  0  0
    6.2176  -13.6887   25.6043 C   0  0  0  0  0  0  0  0  0  0  0  0
    8.6540  -13.6155   25.5008 C   0  0  2  0  0  0  0  0  0  0  0  0
    8.7483  -13.8674   24.0967 N   0  0  0  0  0  0  0  0  0  0  0  0
    8.5661  -14.9170   26.2105 C   0  0  0  0  0  0  0  0  0  0  0  0
    8.8674  -14.9366   27.4369 O   0  0  0  0  0  0  0  0  0  0  0  0
    8.1689  -16.0930   25.5766 O   0  0  0  0  0  0  0  0  0  0  0  0
  2  3  1  0
  2  1  1  0
  3  4  2  0
  5  6  1  0
  5  3  1  0
  7  8  1  0
  6  7  1  6
  9 10  1  0
  9  8  1  0
 10 11  1  0
 12  6  1  0
 12 19  1  0
 13 12  2  0
 15 14  1  0
 16 15  1  0
 16 17  1  1
 18 19  1  6
 18 16  1  0
 20 18  1  0
 21 20  2  0
 22 20  1  0
M  END
$$$$
