GKI.pdb
     RDKit          3D

 22 21  0  0  1  0  0  0  0  0999 V2000
    5.6616  -20.1740   23.7081 N   0  0  0  0  0  0  0  0  0  0  0  0
    5.3016  -18.7892   23.8769 C   0  0  0  0  0  0  0  0  0  0  0  0
    6.3635  -17.8763   23.4078 C   0  0  0  0  0  0  0  0  0  0  0  0
    7.5540  -18.2970   23.4325 O   0  0  0  0  0  0  0  0  0  0  0  0
    6.0053  -16.5835   22.9557 N   0  0  0  0  0  0  0  0  0  0  0  0
    7.0442  -15.6472   22.5843 C   0  0  1  0  0  0  0  0  0  0  0  0
    6.4347  -14.5485   21.7552 C   0  0  0  0  0  0  0  0  0  0  0  0
    7.4081  -13.5876   21.1653 C   0  0  0  0  0  0  0  0  0  0  0  0
    7.8799  -13.9856   19.7921 C   0  0  0  0  0  0  0  0  0  0  0  0
    8.9082  -12.9922   19.2930 C   0  0  0  0  0  0  0  0  0  0  0  0
    9.4118  -13.3019   17.9897 N   0  0  0  0  0  0  0  0  0  0  0  0
    7.7610  -15.1423   23.7842 C   0  0  0  0  0  0  0  0  0  0  0  0
    7.2406  -14.2337   24.4549 O   0  0  0  0  0  0  0  0  0  0  0  0
    9.1361  -14.4076   28.9728 C   0  0  0  0  0  0  0  0  0  0  0  0
    9.8306  -14.3647   27.6441 C   0  0  0  0  0  0  0  0  0  0  0  0
    9.0364  -15.0634   26.5608 C   0  0  2  0  0  0  0  0  0  0  0  0
    8.8524  -16.5282   26.9079 C   0  0  0  0  0  0  0  0  0  0  0  0
    9.7451  -15.0026   25.2263 C   0  0  2  0  0  0  0  0  0  0  0  0
    9.0235  -15.6679   24.1867 N   0  0  0  0  0  0  0  0  0  0  0  0
   11.0624  -15.6685   25.3892 C   0  0  0  0  0  0  0  0  0  0  0  0
   11.1579  -16.8743   25.0257 O   0  0  0  0  0  0  0  0  0  0  0  0
   12.1736  -15.0157   25.9201 O   0  0  0  0  0  0  0  0  0  0  0  0
  2  3  1  0
  2  1  1  0
  3  4  2  0
  5  6  1  0
  5  3  1  0
  7  8  1  0
  6  7  1  1
  9 10  1  0
  9  8  1  0
 10 11  1  0
 12  6  1  0
 12 19  1  0
 13 12  2  0
 15 14  1  0
 16 15  1  0
 16 17  1  1
 18 19  1  6
 18 16  1  0
 20 18  1  0
 21 20  2  0
 22 20  1  0
M  END
$$$$
