GKI.pdb
     RDKit          3D

 22 21  0  0  1  0  0  0  0  0999 V2000
    8.1156  -12.2208   18.3536 N   0  0  0  0  0  0  0  0  0  0  0  0
    9.0563  -13.1229   18.9679 C   0  0  0  0  0  0  0  0  0  0  0  0
    8.4397  -13.9205   20.0473 C   0  0  0  0  0  0  0  0  0  0  0  0
    7.3450  -13.5132   20.5275 O   0  0  0  0  0  0  0  0  0  0  0  0
    9.0950  -15.0938   20.4922 N   0  0  0  0  0  0  0  0  0  0  0  0
    8.5363  -15.8451   21.5955 C   0  0  1  0  0  0  0  0  0  0  0  0
    9.0045  -17.2723   21.4982 C   0  0  0  0  0  0  0  0  0  0  0  0
    8.5402  -18.1662   22.5956 C   0  0  0  0  0  0  0  0  0  0  0  0
    7.9689  -19.4684   22.1014 C   0  0  0  0  0  0  0  0  0  0  0  0
    8.4446  -19.7363   20.6888 C   0  0  0  0  0  0  0  0  0  0  0  0
    7.8789  -20.9180   20.1131 N   0  0  0  0  0  0  0  0  0  0  0  0
    8.8703  -15.2098   22.8968 C   0  0  0  0  0  0  0  0  0  0  0  0
   10.0317  -14.8082   23.0869 O   0  0  0  0  0  0  0  0  0  0  0  0
    6.5695  -11.3858   26.9825 C   0  0  0  0  0  0  0  0  0  0  0  0
    7.6139  -12.3956   26.6096 C   0  0  0  0  0  0  0  0  0  0  0  0
    7.2039  -13.2272   25.4124 C   0  0  2  0  0  0  0  0  0  0  0  0
    5.9069  -13.9580   25.7013 C   0  0  0  0  0  0  0  0  0  0  0  0
    8.2451  -14.2722   25.0798 C   0  0  2  0  0  0  0  0  0  0  0  0
    7.9010  -15.0482   23.9294 N   0  0  0  0  0  0  0  0  0  0  0  0
    8.3549  -15.1815   26.2488 C   0  0  0  0  0  0  0  0  0  0  0  0
    7.8167  -16.3204   26.1572 O   0  0  0  0  0  0  0  0  0  0  0  0
    9.0207  -14.8228   27.4196 O   0  0  0  0  0  0  0  0  0  0  0  0
  2  3  1  0
  2  1  1  0
  3  4  2  0
  5  6  1  0
  5  3  1  0
  7  8  1  0
  6  7  1  1
  9 10  1  0
  9  8  1  0
 10 11  1  0
 12  6  1  0
 12 19  1  0
 13 12  2  0
 15 14  1  0
 16 15  1  0
 16 17  1  1
 18 19  1  6
 18 16  1  0
 20 18  1  0
 21 20  2  0
 22 20  1  0
M  END
$$$$
