GKI.pdb
     RDKit          3D

 22 21  0  0  1  0  0  0  0  0999 V2000
    7.9397  -12.3185   18.4747 N   0  0  0  0  0  0  0  0  0  0  0  0
    8.6985  -13.4133   19.0239 C   0  0  0  0  0  0  0  0  0  0  0  0
    8.1494  -13.8804   20.3130 C   0  0  0  0  0  0  0  0  0  0  0  0
    7.3328  -13.1260   20.9122 O   0  0  0  0  0  0  0  0  0  0  0  0
    8.5574  -15.1392   20.8157 N   0  0  0  0  0  0  0  0  0  0  0  0
    7.9163  -15.6743   21.9975 C   0  0  1  0  0  0  0  0  0  0  0  0
    7.9802  -17.1774   21.9467 C   0  0  0  0  0  0  0  0  0  0  0  0
    7.2923  -17.8003   20.7815 C   0  0  0  0  0  0  0  0  0  0  0  0
    7.6844  -19.2363   20.5566 C   0  0  0  0  0  0  0  0  0  0  0  0
    6.9604  -19.7839   19.3443 C   0  0  0  0  0  0  0  0  0  0  0  0
    7.3335  -21.1264   19.0179 N   0  0  0  0  0  0  0  0  0  0  0  0
    8.5166  -15.1071   23.2330 C   0  0  0  0  0  0  0  0  0  0  0  0
    9.7502  -14.9599   23.2868 O   0  0  0  0  0  0  0  0  0  0  0  0
    5.5185  -11.8633   26.7473 C   0  0  0  0  0  0  0  0  0  0  0  0
    6.2203  -13.1072   26.2890 C   0  0  0  0  0  0  0  0  0  0  0  0
    7.6655  -12.8459   25.9207 C   0  0  2  0  0  0  0  0  0  0  0  0
    7.7433  -11.8581   24.7725 C   0  0  0  0  0  0  0  0  0  0  0  0
    8.3619  -14.1115   25.4736 C   0  0  2  0  0  0  0  0  0  0  0  0
    7.7217  -14.7284   24.3540 N   0  0  0  0  0  0  0  0  0  0  0  0
    8.3385  -15.0614   26.6149 C   0  0  0  0  0  0  0  0  0  0  0  0
    8.9632  -14.7334   27.6625 O   0  0  0  0  0  0  0  0  0  0  0  0
    7.6613  -16.2786   26.5654 O   0  0  0  0  0  0  0  0  0  0  0  0
  2  3  1  0
  2  1  1  0
  3  4  2  0
  5  6  1  0
  5  3  1  0
  7  8  1  0
  6  7  1  1
  9 10  1  0
  9  8  1  0
 10 11  1  0
 12  6  1  0
 12 19  1  0
 13 12  2  0
 15 14  1  0
 16 15  1  0
 16 17  1  6
 18 19  1  6
 18 16  1  0
 20 18  1  0
 21 20  2  0
 22 20  1  0
M  END
$$$$
