GKI.pdb
     RDKit          3D

 22 21  0  0  1  0  0  0  0  0999 V2000
    8.1269  -12.0254   18.7397 N   0  0  0  0  0  0  0  0  0  0  0  0
    8.6222  -13.3374   19.0704 C   0  0  0  0  0  0  0  0  0  0  0  0
    7.9992  -13.8753   20.2966 C   0  0  0  0  0  0  0  0  0  0  0  0
    7.2509  -13.1060   20.9622 O   0  0  0  0  0  0  0  0  0  0  0  0
    8.2647  -15.2151   20.6690 N   0  0  0  0  0  0  0  0  0  0  0  0
    7.6002  -15.7764   21.8254 C   0  0  1  0  0  0  0  0  0  0  0  0
    7.5217  -17.2708   21.6631 C   0  0  0  0  0  0  0  0  0  0  0  0
    6.8822  -17.7369   20.4011 C   0  0  0  0  0  0  0  0  0  0  0  0
    6.8190  -19.2365   20.2842 C   0  0  0  0  0  0  0  0  0  0  0  0
    6.0800  -19.6238   19.0203 C   0  0  0  0  0  0  0  0  0  0  0  0
    6.1038  -21.0301   18.7563 N   0  0  0  0  0  0  0  0  0  0  0  0
    8.2757  -15.3615   23.0824 C   0  0  0  0  0  0  0  0  0  0  0  0
    9.5177  -15.3038   23.1043 O   0  0  0  0  0  0  0  0  0  0  0  0
    5.7758  -11.7240   26.3069 C   0  0  0  0  0  0  0  0  0  0  0  0
    6.7653  -12.4985   25.4881 C   0  0  0  0  0  0  0  0  0  0  0  0
    7.3878  -13.6367   26.2690 C   0  0  2  0  0  0  0  0  0  0  0  0
    8.2739  -13.0920   27.3726 C   0  0  0  0  0  0  0  0  0  0  0  0
    8.2526  -14.5079   25.3860 C   0  0  2  0  0  0  0  0  0  0  0  0
    7.5434  -15.0290   24.2593 N   0  0  0  0  0  0  0  0  0  0  0  0
    8.7311  -15.6456   26.2118 C   0  0  0  0  0  0  0  0  0  0  0  0
    9.6316  -15.4111   27.0659 O   0  0  0  0  0  0  0  0  0  0  0  0
    8.2262  -16.9375   26.0755 O   0  0  0  0  0  0  0  0  0  0  0  0
  2  3  1  0
  2  1  1  0
  3  4  2  0
  5  6  1  0
  5  3  1  0
  7  8  1  0
  6  7  1  6
  9 10  1  0
  9  8  1  0
 10 11  1  0
 12  6  1  0
 12 19  1  0
 13 12  2  0
 15 14  1  0
 16 15  1  0
 16 17  1  1
 18 19  1  6
 18 16  1  0
 20 18  1  0
 21 20  2  0
 22 20  1  0
M  END
$$$$
