GKI.pdb
     RDKit          3D

 22 21  0  0  1  0  0  0  0  0999 V2000
    5.8723  -19.6993   23.1120 N   0  0  0  0  0  0  0  0  0  0  0  0
    5.7714  -18.3685   23.6549 C   0  0  0  0  0  0  0  0  0  0  0  0
    6.9163  -17.5202   23.2667 C   0  0  0  0  0  0  0  0  0  0  0  0
    8.0584  -18.0575   23.2240 O   0  0  0  0  0  0  0  0  0  0  0  0
    6.6869  -16.1567   22.9627 N   0  0  0  0  0  0  0  0  0  0  0  0
    7.8060  -15.3082   22.6140 C   0  0  1  0  0  0  0  0  0  0  0  0
    7.3212  -14.2166   21.6978 C   0  0  0  0  0  0  0  0  0  0  0  0
    7.3302  -14.5578   20.2479 C   0  0  0  0  0  0  0  0  0  0  0  0
    7.8324  -13.4381   19.3759 C   0  0  0  0  0  0  0  0  0  0  0  0
    7.6313  -13.7917   17.9171 C   0  0  0  0  0  0  0  0  0  0  0  0
    8.2044  -12.8382   17.0169 N   0  0  0  0  0  0  0  0  0  0  0  0
    8.4819  -14.7896   23.8316 C   0  0  0  0  0  0  0  0  0  0  0  0
    9.0949  -13.7098   23.7627 O   0  0  0  0  0  0  0  0  0  0  0  0
    6.5423  -11.9602   26.5426 C   0  0  0  0  0  0  0  0  0  0  0  0
    7.5429  -12.8830   25.9125 C   0  0  0  0  0  0  0  0  0  0  0  0
    8.0832  -13.8989   26.8968 C   0  0  2  0  0  0  0  0  0  0  0  0
    8.8641  -13.2017   27.9940 C   0  0  0  0  0  0  0  0  0  0  0  0
    9.0229  -14.8758   26.2265 C   0  0  2  0  0  0  0  0  0  0  0  0
    8.4477  -15.4918   25.0716 N   0  0  0  0  0  0  0  0  0  0  0  0
    9.3471  -15.9346   27.2160 C   0  0  0  0  0  0  0  0  0  0  0  0
    8.7584  -17.0458   27.0985 O   0  0  0  0  0  0  0  0  0  0  0  0
   10.2631  -15.7425   28.2488 O   0  0  0  0  0  0  0  0  0  0  0  0
  2  3  1  0
  2  1  1  0
  3  4  2  0
  5  6  1  0
  5  3  1  0
  7  8  1  0
  6  7  1  6
  9 10  1  0
  9  8  1  0
 10 11  1  0
 12  6  1  0
 12 19  1  0
 13 12  2  0
 15 14  1  0
 16 15  1  0
 16 17  1  1
 18 19  1  6
 18 16  1  0
 20 18  1  0
 21 20  2  0
 22 20  1  0
M  END
$$$$
