GKI.pdb
     RDKit          3D

 22 21  0  0  1  0  0  0  0  0999 V2000
    7.8503  -12.2318   18.8567 N   0  0  0  0  0  0  0  0  0  0  0  0
    8.5228  -13.4396   19.2628 C   0  0  0  0  0  0  0  0  0  0  0  0
    7.9475  -14.0091   20.4981 C   0  0  0  0  0  0  0  0  0  0  0  0
    7.1344  -13.2967   21.1509 O   0  0  0  0  0  0  0  0  0  0  0  0
    8.3280  -15.3143   20.8927 N   0  0  0  0  0  0  0  0  0  0  0  0
    7.6984  -15.9200   22.0463 C   0  0  1  0  0  0  0  0  0  0  0  0
    7.7167  -17.4159   21.8805 C   0  0  0  0  0  0  0  0  0  0  0  0
    6.9543  -17.9315   20.7093 C   0  0  0  0  0  0  0  0  0  0  0  0
    6.0965  -19.1249   21.0357 C   0  0  0  0  0  0  0  0  0  0  0  0
    5.4840  -19.6811   19.7673 C   0  0  0  0  0  0  0  0  0  0  0  0
    4.6473  -20.8201   19.9922 N   0  0  0  0  0  0  0  0  0  0  0  0
    8.3431  -15.4654   23.3057 C   0  0  0  0  0  0  0  0  0  0  0  0
    9.5847  -15.4257   23.3629 O   0  0  0  0  0  0  0  0  0  0  0  0
    6.0045  -11.4789   26.2198 C   0  0  0  0  0  0  0  0  0  0  0  0
    6.9108  -12.4144   25.4761 C   0  0  0  0  0  0  0  0  0  0  0  0
    7.4085  -13.5452   26.3515 C   0  0  2  0  0  0  0  0  0  0  0  0
    8.2608  -12.9980   27.4802 C   0  0  0  0  0  0  0  0  0  0  0  0
    8.2653  -14.5160   25.5703 C   0  0  2  0  0  0  0  0  0  0  0  0
    7.5818  -15.0750   24.4459 N   0  0  0  0  0  0  0  0  0  0  0  0
    8.6438  -15.6184   26.4904 C   0  0  0  0  0  0  0  0  0  0  0  0
    7.9038  -16.6416   26.5138 O   0  0  0  0  0  0  0  0  0  0  0  0
    9.7685  -15.5588   27.3115 O   0  0  0  0  0  0  0  0  0  0  0  0
  2  3  1  0
  2  1  1  0
  3  4  2  0
  5  6  1  0
  5  3  1  0
  7  8  1  0
  6  7  1  6
  9 10  1  0
  9  8  1  0
 10 11  1  0
 12  6  1  0
 12 19  1  0
 13 12  2  0
 15 14  1  0
 16 15  1  0
 16 17  1  1
 18 19  1  6
 18 16  1  0
 20 18  1  0
 21 20  2  0
 22 20  1  0
M  END
$$$$
