HPH.pdb
     RDKit          3D

 28 30  0  0  1  0  0  0  0  0999 V2000
   11.7273  -13.5209   19.0864 N   0  0  0  0  0  0  0  0  0  0  0  0
   10.3926  -14.0183   19.4176 C   0  0  1  0  0  0  0  0  0  0  0  0
   10.3078  -15.3810   18.7514 C   0  0  0  0  0  0  0  0  0  0  0  0
   10.2025  -15.2690   17.2861 C   0  0  0  0  0  0  0  0  0  0  0  0
    9.4570  -14.3369   16.6092 C   0  0  0  0  0  0  0  0  0  0  0  0
    9.6127  -14.5523   15.3010 N   0  0  0  0  0  0  0  0  0  0  0  0
   10.4388  -15.5984   15.1185 C   0  0  0  0  0  0  0  0  0  0  0  0
   10.7965  -16.0325   16.3638 N   0  0  0  0  0  0  0  0  0  0  0  0
   10.2371  -14.0452   20.8668 C   0  0  0  0  0  0  0  0  0  0  0  0
   11.3038  -14.0835   21.5685 O   0  0  0  0  0  0  0  0  0  0  0  0
    9.0020  -14.0311   21.5893 N   0  0  0  0  0  0  0  0  0  0  0  0
    7.7266  -14.0172   20.9166 C   0  0  0  0  0  0  0  0  0  0  0  0
    6.6768  -14.2207   21.9631 C   0  0  0  0  0  0  0  0  0  0  0  0
    7.3438  -13.6462   23.2249 C   0  0  0  0  0  0  0  0  0  0  0  0
    8.7828  -14.0444   22.9992 C   0  0  1  0  0  0  0  0  0  0  0  0
    9.1230  -15.3302   23.6401 C   0  0  0  0  0  0  0  0  0  0  0  0
    9.0410  -16.3728   22.9394 O   0  0  0  0  0  0  0  0  0  0  0  0
    9.5378  -15.4835   24.9896 N   0  0  0  0  0  0  0  0  0  0  0  0
   10.2161  -16.7095   25.4375 C   0  0  1  0  0  0  0  0  0  0  0  0
   11.3182  -16.2801   26.3603 C   0  0  0  0  0  0  0  0  0  0  0  0
   10.8400  -15.5844   27.5784 C   0  0  0  0  0  0  0  0  0  0  0  0
   10.4188  -14.2805   27.6235 C   0  0  0  0  0  0  0  0  0  0  0  0
   10.0609  -13.9909   28.8790 N   0  0  0  0  0  0  0  0  0  0  0  0
   10.2532  -15.0988   29.6201 C   0  0  0  0  0  0  0  0  0  0  0  0
   10.7296  -16.0690   28.8185 N   0  0  0  0  0  0  0  0  0  0  0  0
    9.2763  -17.5677   26.1974 C   0  0  0  0  0  0  0  0  0  0  0  0
    9.6318  -18.8121   26.6979 O   0  0  0  0  0  0  0  0  0  0  0  0
    8.1058  -17.1654   26.4051 O   0  0  0  0  0  0  0  0  0  0  0  0
  2  9  1  0
  2  1  1  1
  3  2  1  0
  4  3  1  0
  4  5  2  0
  6  5  1  0
  7  6  1  0
  8  7  2  0
  8  4  1  0
  9 10  2  0
 11  9  1  0
 12 11  1  0
 13 12  1  0
 13 14  1  0
 14 15  1  0
 15 11  1  0
 15 16  1  6
 17 16  2  0
 18 16  1  0
 19 18  1  0
 19 26  1  0
 19 20  1  1
 21 20  1  0
 21 22  2  0
 23 22  1  0
 24 23  1  0
 25 24  2  0
 25 21  1  0
 26 27  1  0
 28 26  2  0
M  END
$$$$
