HPH.pdb
     RDKit          3D

 28 30  0  0  1  0  0  0  0  0999 V2000
   10.3825  -17.4610   14.9441 N   0  0  0  0  0  0  0  0  0  0  0  0
   11.3247  -17.6019   16.0535 C   0  0  1  0  0  0  0  0  0  0  0  0
   12.3022  -16.4515   15.8835 C   0  0  0  0  0  0  0  0  0  0  0  0
   13.2226  -16.6767   14.7552 C   0  0  0  0  0  0  0  0  0  0  0  0
   14.3977  -17.3826   14.8134 C   0  0  0  0  0  0  0  0  0  0  0  0
   14.9506  -17.3680   13.5985 N   0  0  0  0  0  0  0  0  0  0  0  0
   14.1620  -16.6712   12.7602 C   0  0  0  0  0  0  0  0  0  0  0  0
   13.0912  -16.2481   13.4960 N   0  0  0  0  0  0  0  0  0  0  0  0
   10.5890  -17.5867   17.3120 C   0  0  0  0  0  0  0  0  0  0  0  0
    9.7013  -16.6801   17.4592 O   0  0  0  0  0  0  0  0  0  0  0  0
   10.7599  -18.4918   18.4071 N   0  0  0  0  0  0  0  0  0  0  0  0
   11.6760  -19.6034   18.3402 C   0  0  0  0  0  0  0  0  0  0  0  0
   11.7520  -20.1920   19.7137 C   0  0  0  0  0  0  0  0  0  0  0  0
   10.3772  -19.8389   20.3076 C   0  0  0  0  0  0  0  0  0  0  0  0
   10.1338  -18.4829   19.6893 C   0  0  1  0  0  0  0  0  0  0  0  0
   10.5778  -17.3750   20.5583 C   0  0  0  0  0  0  0  0  0  0  0  0
   11.7901  -17.0402   20.5058 O   0  0  0  0  0  0  0  0  0  0  0  0
    9.7413  -16.6545   21.4514 N   0  0  0  0  0  0  0  0  0  0  0  0
   10.2471  -15.4815   22.1810 C   0  0  1  0  0  0  0  0  0  0  0  0
    9.0838  -14.5516   22.3619 C   0  0  0  0  0  0  0  0  0  0  0  0
    8.5960  -13.9524   21.0973 C   0  0  0  0  0  0  0  0  0  0  0  0
    9.2312  -14.0496   19.8862 C   0  0  0  0  0  0  0  0  0  0  0  0
    8.5099  -13.3920   18.9721 N   0  0  0  0  0  0  0  0  0  0  0  0
    7.4306  -12.8845   19.5973 C   0  0  0  0  0  0  0  0  0  0  0  0
    7.4897  -13.2309   20.8962 N   0  0  0  0  0  0  0  0  0  0  0  0
   10.7388  -15.8830   23.5205 C   0  0  0  0  0  0  0  0  0  0  0  0
   10.6646  -17.1870   23.9887 O   0  0  0  0  0  0  0  0  0  0  0  0
   11.2464  -15.0177   24.2748 O   0  0  0  0  0  0  0  0  0  0  0  0
  2  9  1  0
  2  1  1  6
  3  2  1  0
  4  3  1  0
  4  5  2  0
  6  5  1  0
  7  6  1  0
  8  7  2  0
  8  4  1  0
  9 10  2  0
 11  9  1  0
 12 11  1  0
 13 12  1  0
 13 14  1  0
 14 15  1  0
 15 11  1  0
 15 16  1  1
 17 16  2  0
 18 16  1  0
 19 18  1  0
 19 26  1  0
 19 20  1  1
 21 20  1  0
 21 22  2  0
 23 22  1  0
 24 23  1  0
 25 24  2  0
 25 21  1  0
 26 27  1  0
 28 26  2  0
M  END
$$$$
