HPH.pdb
     RDKit          3D

 28 30  0  0  1  0  0  0  0  0999 V2000
    9.8995  -15.0388   21.4150 N   0  0  0  0  0  0  0  0  0  0  0  0
    8.8569  -14.2509   22.0713 C   0  0  1  0  0  0  0  0  0  0  0  0
    7.5941  -14.5357   21.2763 C   0  0  0  0  0  0  0  0  0  0  0  0
    7.7550  -14.1952   19.8518 C   0  0  0  0  0  0  0  0  0  0  0  0
    8.0459  -12.9486   19.3579 C   0  0  0  0  0  0  0  0  0  0  0  0
    8.1119  -13.0350   18.0274 N   0  0  0  0  0  0  0  0  0  0  0  0
    7.8711  -14.3044   17.6524 C   0  0  0  0  0  0  0  0  0  0  0  0
    7.6510  -15.0131   18.7998 N   0  0  0  0  0  0  0  0  0  0  0  0
    8.7827  -14.6305   23.4769 C   0  0  0  0  0  0  0  0  0  0  0  0
    9.5425  -15.5804   23.8667 O   0  0  0  0  0  0  0  0  0  0  0  0
    7.9403  -14.0419   24.4726 N   0  0  0  0  0  0  0  0  0  0  0  0
    6.9486  -13.0489   24.1408 C   0  0  0  0  0  0  0  0  0  0  0  0
    6.1258  -12.8234   25.3699 C   0  0  0  0  0  0  0  0  0  0  0  0
    7.1106  -13.1653   26.5015 C   0  0  0  0  0  0  0  0  0  0  0  0
    7.8899  -14.2972   25.8756 C   0  0  1  0  0  0  0  0  0  0  0  0
    7.3382  -15.6232   26.2176 C   0  0  0  0  0  0  0  0  0  0  0  0
    6.1331  -15.8470   25.9307 O   0  0  0  0  0  0  0  0  0  0  0  0
    8.0631  -16.6699   26.8464 N   0  0  0  0  0  0  0  0  0  0  0  0
    7.4133  -17.9478   27.1760 C   0  0  1  0  0  0  0  0  0  0  0  0
    6.9930  -18.5660   25.8753 C   0  0  0  0  0  0  0  0  0  0  0  0
    8.1237  -18.8794   24.9701 C   0  0  0  0  0  0  0  0  0  0  0  0
    8.2709  -18.3884   23.6986 C   0  0  0  0  0  0  0  0  0  0  0  0
    9.4012  -18.8796   23.1797 N   0  0  0  0  0  0  0  0  0  0  0  0
    9.9631  -19.6724   24.1120 C   0  0  0  0  0  0  0  0  0  0  0  0
    9.1768  -19.6676   25.2039 N   0  0  0  0  0  0  0  0  0  0  0  0
    8.3777  -18.8585   27.8376 C   0  0  0  0  0  0  0  0  0  0  0  0
    9.6913  -18.4985   28.1025 O   0  0  0  0  0  0  0  0  0  0  0  0
    8.0051  -20.0074   28.1787 O   0  0  0  0  0  0  0  0  0  0  0  0
  2  9  1  0
  2  1  1  6
  3  2  1  0
  4  3  1  0
  4  5  2  0
  6  5  1  0
  7  6  1  0
  8  7  2  0
  8  4  1  0
  9 10  2  0
 11  9  1  0
 12 11  1  0
 13 12  1  0
 13 14  1  0
 14 15  1  0
 15 11  1  0
 15 16  1  6
 17 16  2  0
 18 16  1  0
 19 18  1  0
 19 26  1  0
 19 20  1  6
 21 20  1  0
 21 22  2  0
 23 22  1  0
 24 23  1  0
 25 24  2  0
 25 21  1  0
 26 27  1  0
 28 26  2  0
M  END
$$$$
