HPH.pdb
     RDKit          3D

 28 30  0  0  1  0  0  0  0  0999 V2000
    7.9695  -16.8484   18.9499 N   0  0  0  0  0  0  0  0  0  0  0  0
    9.4215  -16.8370   19.1236 C   0  0  1  0  0  0  0  0  0  0  0  0
    9.9436  -15.9758   17.9863 C   0  0  0  0  0  0  0  0  0  0  0  0
    9.4020  -14.6066   18.0426 C   0  0  0  0  0  0  0  0  0  0  0  0
    8.3832  -14.1196   17.2633 C   0  0  0  0  0  0  0  0  0  0  0  0
    8.1751  -12.8452   17.6021 N   0  0  0  0  0  0  0  0  0  0  0  0
    9.0333  -12.4998   18.5789 C   0  0  0  0  0  0  0  0  0  0  0  0
    9.7894  -13.6073   18.8411 N   0  0  0  0  0  0  0  0  0  0  0  0
    9.7408  -16.3360   20.4548 C   0  0  0  0  0  0  0  0  0  0  0  0
   10.9252  -16.5401   20.8876 O   0  0  0  0  0  0  0  0  0  0  0  0
    8.8567  -15.6319   21.3324 N   0  0  0  0  0  0  0  0  0  0  0  0
    7.5796  -15.1323   20.8864 C   0  0  0  0  0  0  0  0  0  0  0  0
    6.8485  -14.6521   22.1002 C   0  0  0  0  0  0  0  0  0  0  0  0
    7.9940  -14.2616   23.0503 C   0  0  0  0  0  0  0  0  0  0  0  0
    9.0218  -15.3155   22.7139 C   0  0  1  0  0  0  0  0  0  0  0  0
    8.9427  -16.4901   23.6048 C   0  0  0  0  0  0  0  0  0  0  0  0
    8.2656  -17.4765   23.2134 O   0  0  0  0  0  0  0  0  0  0  0  0
    9.5732  -16.5951   24.8729 N   0  0  0  0  0  0  0  0  0  0  0  0
   10.5038  -17.6960   25.1657 C   0  0  1  0  0  0  0  0  0  0  0  0
   11.6264  -17.5865   24.1765 C   0  0  0  0  0  0  0  0  0  0  0  0
   12.6841  -18.6086   24.3582 C   0  0  0  0  0  0  0  0  0  0  0  0
   12.7083  -19.5438   25.3603 C   0  0  0  0  0  0  0  0  0  0  0  0
   13.8036  -20.2971   25.2146 N   0  0  0  0  0  0  0  0  0  0  0  0
   14.4650  -19.8440   24.1326 C   0  0  0  0  0  0  0  0  0  0  0  0
   13.7750  -18.8117   23.6140 N   0  0  0  0  0  0  0  0  0  0  0  0
   11.0646  -17.5451   26.5295 C   0  0  0  0  0  0  0  0  0  0  0  0
   11.2862  -18.6230   27.3747 O   0  0  0  0  0  0  0  0  0  0  0  0
   11.3565  -16.3998   26.9519 O   0  0  0  0  0  0  0  0  0  0  0  0
  2  9  1  0
  2  1  1  1
  3  2  1  0
  4  3  1  0
  4  5  2  0
  6  5  1  0
  7  6  1  0
  8  7  2  0
  8  4  1  0
  9 10  2  0
 11  9  1  0
 12 11  1  0
 13 12  1  0
 13 14  1  0
 14 15  1  0
 15 11  1  0
 15 16  1  1
 17 16  2  0
 18 16  1  0
 19 18  1  0
 19 26  1  0
 19 20  1  6
 21 20  1  0
 21 22  2  0
 23 22  1  0
 24 23  1  0
 25 24  2  0
 25 21  1  0
 26 27  1  0
 28 26  2  0
M  END
$$$$
