HPH.pdb
     RDKit          3D

 28 30  0  0  1  0  0  0  0  0999 V2000
    8.5292  -13.1514   18.7713 N   0  0  0  0  0  0  0  0  0  0  0  0
    8.7416  -14.5228   19.2326 C   0  0  1  0  0  0  0  0  0  0  0  0
   10.2323  -14.7637   19.0664 C   0  0  0  0  0  0  0  0  0  0  0  0
   10.5841  -15.0799   17.6710 C   0  0  0  0  0  0  0  0  0  0  0  0
    9.9839  -16.0395   16.8953 C   0  0  0  0  0  0  0  0  0  0  0  0
   10.5712  -16.0303   15.6965 N   0  0  0  0  0  0  0  0  0  0  0  0
   11.5334  -15.0901   15.6807 C   0  0  0  0  0  0  0  0  0  0  0  0
   11.5280  -14.5082   16.9170 N   0  0  0  0  0  0  0  0  0  0  0  0
    8.2600  -14.6474   20.6028 C   0  0  0  0  0  0  0  0  0  0  0  0
    8.4841  -13.6688   21.3926 O   0  0  0  0  0  0  0  0  0  0  0  0
    7.5548  -15.7622   21.1575 N   0  0  0  0  0  0  0  0  0  0  0  0
    7.2526  -16.9366   20.3771 C   0  0  0  0  0  0  0  0  0  0  0  0
    6.7115  -17.9632   21.3216 C   0  0  0  0  0  0  0  0  0  0  0  0
    6.0888  -17.1018   22.4341 C   0  0  0  0  0  0  0  0  0  0  0  0
    7.0589  -15.9455   22.4828 C   0  0  1  0  0  0  0  0  0  0  0  0
    8.1196  -16.1369   23.4916 C   0  0  0  0  0  0  0  0  0  0  0  0
    9.2032  -16.6521   23.1106 O   0  0  0  0  0  0  0  0  0  0  0  0
    8.0134  -15.7835   24.8629 N   0  0  0  0  0  0  0  0  0  0  0  0
    9.1602  -15.9300   25.7725 C   0  0  1  0  0  0  0  0  0  0  0  0
    8.9187  -14.9995   26.9243 C   0  0  0  0  0  0  0  0  0  0  0  0
    7.7414  -14.1179   26.7430 C   0  0  0  0  0  0  0  0  0  0  0  0
    7.0017  -14.0225   25.5926 C   0  0  0  0  0  0  0  0  0  0  0  0
    6.0210  -13.1348   25.7883 N   0  0  0  0  0  0  0  0  0  0  0  0
    6.1385  -12.6735   27.0480 C   0  0  0  0  0  0  0  0  0  0  0  0
    7.1922  -13.2788   27.6258 N   0  0  0  0  0  0  0  0  0  0  0  0
    9.2268  -17.3154   26.2955 C   0  0  0  0  0  0  0  0  0  0  0  0
   10.2918  -17.7828   27.0522 O   0  0  0  0  0  0  0  0  0  0  0  0
    8.2875  -18.1114   26.0518 O   0  0  0  0  0  0  0  0  0  0  0  0
  2  9  1  0
  2  1  1  1
  3  2  1  0
  4  3  1  0
  4  5  2  0
  6  5  1  0
  7  6  1  0
  8  7  2  0
  8  4  1  0
  9 10  2  0
 11  9  1  0
 12 11  1  0
 13 12  1  0
 13 14  1  0
 14 15  1  0
 15 11  1  0
 15 16  1  1
 17 16  2  0
 18 16  1  0
 19 18  1  0
 19 26  1  0
 19 20  1  1
 21 20  1  0
 21 22  2  0
 23 22  1  0
 24 23  1  0
 25 24  2  0
 25 21  1  0
 26 27  1  0
 28 26  2  0
M  END
$$$$
