HPH.pdb
     RDKit          3D

 28 30  0  0  1  0  0  0  0  0999 V2000
428342.687515748.2549121201.4453 N   0  0  0  0  0  0  0  0  0  0  0  0
428342.843815747.0830121200.6562 C   0  0  1  0  0  0  0  0  0  0  0  0
428342.000015747.3291121199.3828 C   0  0  0  0  0  0  0  0  0  0  0  0
428342.437515748.5127121198.6406 C   0  0  0  0  0  0  0  0  0  0  0  0
428342.656215749.7295121199.2188 C   0  0  0  0  0  0  0  0  0  0  0  0
428343.156215750.5674121198.1562 N   0  0  0  0  0  0  0  0  0  0  0  0
428343.093815749.8408121197.0859 C   0  0  0  0  0  0  0  0  0  0  0  0
428342.750015748.5908121197.3594 N   0  0  0  0  0  0  0  0  0  0  0  0
428344.218815746.8740121200.3906 C   0  0  0  0  0  0  0  0  0  0  0  0
428344.968815747.8506121200.0000 O   0  0  0  0  0  0  0  0  0  0  0  0
428345.062515745.6104121200.5312 N   0  0  0  0  0  0  0  0  0  0  0  0
428344.281215744.4150121200.9766 C   0  0  0  0  0  0  0  0  0  0  0  0
428345.312515743.2900121200.7422 C   0  0  0  0  0  0  0  0  0  0  0  0
428346.687515744.0283121200.9297 C   0  0  0  0  0  0  0  0  0  0  0  0
428346.375015745.3486121200.2812 C   0  0  1  0  0  0  0  0  0  0  0  0
428346.781215745.3643121198.8203 C   0  0  0  0  0  0  0  0  0  0  0  0
428347.812515744.7354121198.4688 O   0  0  0  0  0  0  0  0  0  0  0  0
428346.000015746.0654121197.8359 N   0  0  0  0  0  0  0  0  0  0  0  0
428346.187515747.4932121197.5312 C   0  0  1  0  0  0  0  0  0  0  0  0
428347.625015747.8369121198.0625 C   0  0  0  0  0  0  0  0  0  0  0  0
428348.593815747.8682121196.8906 C   0  0  0  0  0  0  0  0  0  0  0  0
428349.812515748.3857121197.0156 C   0  0  0  0  0  0  0  0  0  0  0  0
428350.468815748.3115121195.7344 N   0  0  0  0  0  0  0  0  0  0  0  0
428349.468815748.0107121194.9453 C   0  0  0  0  0  0  0  0  0  0  0  0
428348.468815747.6104121195.5781 N   0  0  0  0  0  0  0  0  0  0  0  0
428346.187515747.7764121196.1094 C   0  0  0  0  0  0  0  0  0  0  0  0
428345.781215748.9131121195.5312 O   0  0  0  0  0  0  0  0  0  0  0  0
428346.500015746.8486121195.2891 O   0  0  0  0  0  0  0  0  0  0  0  0
  2  9  1  0
  2  1  1  1
  3  2  1  0
  4  3  1  0
  4  5  2  0
  6  5  1  0
  7  6  1  0
  8  7  2  0
  8  4  1  0
  9 10  2  0
 11  9  1  0
 12 11  1  0
 13 12  1  0
 13 14  1  0
 14 15  1  0
 15 11  1  0
 15 16  1  6
 17 16  2  0
 18 16  1  0
 19 18  1  0
 19 26  1  0
 19 20  1  6
 21 20  1  0
 21 22  2  0
 23 22  1  0
 24 23  1  0
 25 24  2  0
 25 21  1  0
 26 27  1  0
 28 26  2  0
M  END
$$$$
