HPH.pdb
     RDKit          3D

 28 30  0  0  1  0  0  0  0  0999 V2000
   10.6975  -15.6370   16.0616 N   0  0  0  0  0  0  0  0  0  0  0  0
    9.4933  -15.2180   16.7777 C   0  0  1  0  0  0  0  0  0  0  0  0
    8.4700  -16.3028   16.4882 C   0  0  0  0  0  0  0  0  0  0  0  0
    8.0957  -16.3368   15.0635 C   0  0  0  0  0  0  0  0  0  0  0  0
    7.7841  -15.2439   14.2947 C   0  0  0  0  0  0  0  0  0  0  0  0
    7.4997  -15.6716   13.0625 N   0  0  0  0  0  0  0  0  0  0  0  0
    7.6202  -17.0109   13.0185 C   0  0  0  0  0  0  0  0  0  0  0  0
    7.9916  -17.4086   14.2719 N   0  0  0  0  0  0  0  0  0  0  0  0
    9.8102  -15.0499   18.1907 C   0  0  0  0  0  0  0  0  0  0  0  0
   10.7952  -15.7193   18.6526 O   0  0  0  0  0  0  0  0  0  0  0  0
    9.1263  -14.2036   19.1200 N   0  0  0  0  0  0  0  0  0  0  0  0
    8.0460  -13.3402   18.7112 C   0  0  0  0  0  0  0  0  0  0  0  0
    7.4391  -12.7772   19.9574 C   0  0  0  0  0  0  0  0  0  0  0  0
    8.6204  -12.7917   20.9432 C   0  0  0  0  0  0  0  0  0  0  0  0
    9.3322  -14.0559   20.5243 C   0  0  1  0  0  0  0  0  0  0  0  0
    8.9118  -15.2315   21.3121 C   0  0  0  0  0  0  0  0  0  0  0  0
    8.0436  -15.9922   20.8098 O   0  0  0  0  0  0  0  0  0  0  0  0
    9.4122  -15.5731   22.5964 N   0  0  0  0  0  0  0  0  0  0  0  0
    9.8427  -16.9467   22.8994 C   0  0  1  0  0  0  0  0  0  0  0  0
   11.0081  -17.2413   22.0017 C   0  0  0  0  0  0  0  0  0  0  0  0
   10.6983  -18.2023   20.9170 C   0  0  0  0  0  0  0  0  0  0  0  0
    9.4675  -18.7632   20.6928 C   0  0  0  0  0  0  0  0  0  0  0  0
    9.5560  -19.5782   19.6364 N   0  0  0  0  0  0  0  0  0  0  0  0
   10.8282  -19.5338   19.1968 C   0  0  0  0  0  0  0  0  0  0  0  0
   11.5208  -18.6907   19.9843 N   0  0  0  0  0  0  0  0  0  0  0  0
   10.2990  -17.0431   24.3064 C   0  0  0  0  0  0  0  0  0  0  0  0
    9.9732  -18.1105   25.1308 O   0  0  0  0  0  0  0  0  0  0  0  0
   11.0110  -16.1279   24.7868 O   0  0  0  0  0  0  0  0  0  0  0  0
  2  9  1  0
  2  1  1  6
  3  2  1  0
  4  3  1  0
  4  5  2  0
  6  5  1  0
  7  6  1  0
  8  7  2  0
  8  4  1  0
  9 10  2  0
 11  9  1  0
 12 11  1  0
 13 12  1  0
 13 14  1  0
 14 15  1  0
 15 11  1  0
 15 16  1  1
 17 16  2  0
 18 16  1  0
 19 18  1  0
 19 26  1  0
 19 20  1  6
 21 20  1  0
 21 22  2  0
 23 22  1  0
 24 23  1  0
 25 24  2  0
 25 21  1  0
 26 27  1  0
 28 26  2  0
M  END
$$$$
