HPH.pdb
     RDKit          3D

 28 30  0  0  1  0  0  0  0  0999 V2000
   10.2804  -14.2999   20.3789 N   0  0  0  0  0  0  0  0  0  0  0  0
    9.0557  -14.0857   21.1488 C   0  0  1  0  0  0  0  0  0  0  0  0
    7.9843  -14.8609   20.4010 C   0  0  0  0  0  0  0  0  0  0  0  0
    7.9126  -14.4676   18.9829 C   0  0  0  0  0  0  0  0  0  0  0  0
    7.7116  -13.1923   18.5183 C   0  0  0  0  0  0  0  0  0  0  0  0
    7.7078  -13.2332   17.1840 N   0  0  0  0  0  0  0  0  0  0  0  0
    7.9012  -14.5012   16.7781 C   0  0  0  0  0  0  0  0  0  0  0  0
    8.0267  -15.2563   17.9099 N   0  0  0  0  0  0  0  0  0  0  0  0
    9.2699  -14.5254   22.5221 C   0  0  0  0  0  0  0  0  0  0  0  0
   10.3159  -15.2198   22.7571 O   0  0  0  0  0  0  0  0  0  0  0  0
    8.4224  -14.2548   23.6429 N   0  0  0  0  0  0  0  0  0  0  0  0
    7.2033  -13.4960   23.5099 C   0  0  0  0  0  0  0  0  0  0  0  0
    6.4807  -13.5951   24.8162 C   0  0  0  0  0  0  0  0  0  0  0  0
    7.6275  -13.8061   25.8200 C   0  0  0  0  0  0  0  0  0  0  0  0
    8.5745  -14.6536   25.0044 C   0  0  1  0  0  0  0  0  0  0  0  0
    8.3747  -16.0997   25.2246 C   0  0  0  0  0  0  0  0  0  0  0  0
    8.0322  -16.8000   24.2362 O   0  0  0  0  0  0  0  0  0  0  0  0
    8.5399  -16.7652   26.4681 N   0  0  0  0  0  0  0  0  0  0  0  0
    9.6866  -17.6562   26.7024 C   0  0  1  0  0  0  0  0  0  0  0  0
   10.8928  -16.7767   26.8513 C   0  0  0  0  0  0  0  0  0  0  0  0
   10.7521  -15.7435   27.9043 C   0  0  0  0  0  0  0  0  0  0  0  0
   11.2977  -15.8225   29.1596 C   0  0  0  0  0  0  0  0  0  0  0  0
   10.9684  -14.7183   29.8382 N   0  0  0  0  0  0  0  0  0  0  0  0
   10.2230  -13.9491   29.0219 C   0  0  0  0  0  0  0  0  0  0  0  0
   10.0949  -14.5820   27.8413 N   0  0  0  0  0  0  0  0  0  0  0  0
    9.4997  -18.4125   27.9635 C   0  0  0  0  0  0  0  0  0  0  0  0
   10.3680  -19.4133   28.3755 O   0  0  0  0  0  0  0  0  0  0  0  0
    8.5190  -18.1479   28.7006 O   0  0  0  0  0  0  0  0  0  0  0  0
  2  9  1  0
  2  1  1  6
  3  2  1  0
  4  3  1  0
  4  5  2  0
  6  5  1  0
  7  6  1  0
  8  7  2  0
  8  4  1  0
  9 10  2  0
 11  9  1  0
 12 11  1  0
 13 12  1  0
 13 14  1  0
 14 15  1  0
 15 11  1  0
 15 16  1  6
 17 16  2  0
 18 16  1  0
 19 18  1  0
 19 26  1  0
 19 20  1  1
 21 20  1  0
 21 22  2  0
 23 22  1  0
 24 23  1  0
 25 24  2  0
 25 21  1  0
 26 27  1  0
 28 26  2  0
M  END
$$$$
