HPH.pdb
     RDKit          3D

 28 30  0  0  1  0  0  0  0  0999 V2000
  242.4505  126.3576  293.5164 N   0  0  0  0  0  0  0  0  0  0  0  0
  242.9175  125.0854  292.9672 C   0  0  1  0  0  0  0  0  0  0  0  0
  244.2513  125.4079  292.3156 C   0  0  0  0  0  0  0  0  0  0  0  0
  244.0780  126.0919  291.0221 C   0  0  0  0  0  0  0  0  0  0  0  0
  245.0774  126.6880  290.2951 C   0  0  0  0  0  0  0  0  0  0  0  0
  244.5358  127.1982  289.1867 N   0  0  0  0  0  0  0  0  0  0  0  0
  243.2144  126.9460  289.1817 C   0  0  0  0  0  0  0  0  0  0  0  0
  242.9461  126.2569  290.3307 N   0  0  0  0  0  0  0  0  0  0  0  0
  242.9930  124.0997  294.0388 C   0  0  0  0  0  0  0  0  0  0  0  0
  244.0847  123.4474  294.1573 O   0  0  0  0  0  0  0  0  0  0  0  0
  241.9613  123.7873  294.9799 N   0  0  0  0  0  0  0  0  0  0  0  0
  242.2606  123.3767  296.3294 C   0  0  0  0  0  0  0  0  0  0  0  0
  240.9642  123.3445  297.0756 C   0  0  0  0  0  0  0  0  0  0  0  0
  239.9420  123.0583  295.9619 C   0  0  0  0  0  0  0  0  0  0  0  0
  240.5450  123.8267  294.8103 C   0  0  1  0  0  0  0  0  0  0  0  0
  239.9997  125.1936  294.6928 C   0  0  0  0  0  0  0  0  0  0  0  0
  240.6549  126.0285  294.0159 O   0  0  0  0  0  0  0  0  0  0  0  0
  238.7894  125.6418  295.2851 N   0  0  0  0  0  0  0  0  0  0  0  0
  237.6419  126.0371  294.4539 C   0  0  1  0  0  0  0  0  0  0  0  0
  238.2005  126.7525  293.2595 C   0  0  0  0  0  0  0  0  0  0  0  0
  238.8316  125.8525  292.2656 C   0  0  0  0  0  0  0  0  0  0  0  0
  240.1337  125.9372  291.8449 C   0  0  0  0  0  0  0  0  0  0  0  0
  240.3562  124.9701  290.9488 N   0  0  0  0  0  0  0  0  0  0  0  0
  239.2084  124.2811  290.8036 C   0  0  0  0  0  0  0  0  0  0  0  0
  238.2806  124.8260  291.6116 N   0  0  0  0  0  0  0  0  0  0  0  0
  236.9122  124.8361  293.9818 C   0  0  0  0  0  0  0  0  0  0  0  0
  237.3727  123.5448  294.1948 O   0  0  0  0  0  0  0  0  0  0  0  0
  235.8303  124.9775  293.3613 O   0  0  0  0  0  0  0  0  0  0  0  0
  2  9  1  0
  2  1  1  1
  3  2  1  0
  4  3  1  0
  4  5  2  0
  6  5  1  0
  7  6  1  0
  8  7  2  0
  8  4  1  0
  9 10  2  0
 11  9  1  0
 12 11  1  0
 13 12  1  0
 13 14  1  0
 14 15  1  0
 15 11  1  0
 15 16  1  1
 17 16  2  0
 18 16  1  0
 19 18  1  0
 19 26  1  0
 19 20  1  6
 21 20  1  0
 21 22  2  0
 23 22  1  0
 24 23  1  0
 25 24  2  0
 25 21  1  0
 26 27  1  0
 28 26  2  0
M  END
$$$$
