HPH.pdb
     RDKit          3D

 28 30  0  0  1  0  0  0  0  0999 V2000
    9.0133  -14.3476   15.2063 N   0  0  0  0  0  0  0  0  0  0  0  0
    8.4876  -15.0629   16.3684 C   0  0  1  0  0  0  0  0  0  0  0  0
    8.6841  -16.5337   16.0429 C   0  0  0  0  0  0  0  0  0  0  0  0
    8.1999  -17.4046   17.1283 C   0  0  0  0  0  0  0  0  0  0  0  0
    6.9296  -17.9117   17.2371 C   0  0  0  0  0  0  0  0  0  0  0  0
    6.8723  -18.6516   18.3467 N   0  0  0  0  0  0  0  0  0  0  0  0
    8.0724  -18.6339   18.9545 C   0  0  0  0  0  0  0  0  0  0  0  0
    8.8868  -17.8534   18.1833 N   0  0  0  0  0  0  0  0  0  0  0  0
    9.1868  -14.6119   17.5654 C   0  0  0  0  0  0  0  0  0  0  0  0
   10.4616  -14.5531   17.5105 O   0  0  0  0  0  0  0  0  0  0  0  0
    8.5862  -14.2235   18.8048 N   0  0  0  0  0  0  0  0  0  0  0  0
    7.1550  -14.1778   18.9759 C   0  0  0  0  0  0  0  0  0  0  0  0
    6.8948  -13.9454   20.4308 C   0  0  0  0  0  0  0  0  0  0  0  0
    8.1549  -13.1859   20.8809 C   0  0  0  0  0  0  0  0  0  0  0  0
    9.2123  -13.8491   20.0311 C   0  0  1  0  0  0  0  0  0  0  0  0
    9.8763  -14.9707   20.7244 C   0  0  0  0  0  0  0  0  0  0  0  0
    9.3472  -16.1094   20.6346 O   0  0  0  0  0  0  0  0  0  0  0  0
   11.0698  -14.8656   21.4867 N   0  0  0  0  0  0  0  0  0  0  0  0
   11.7429  -16.0656   22.0070 C   0  0  1  0  0  0  0  0  0  0  0  0
   13.2124  -15.7638   22.0214 C   0  0  0  0  0  0  0  0  0  0  0  0
   13.7673  -15.4340   20.6874 C   0  0  0  0  0  0  0  0  0  0  0  0
   13.5689  -16.1732   19.5500 C   0  0  0  0  0  0  0  0  0  0  0  0
   14.2142  -15.5820   18.5389 N   0  0  0  0  0  0  0  0  0  0  0  0
   14.8140  -14.4811   19.0306 C   0  0  0  0  0  0  0  0  0  0  0  0
   14.5366  -14.3969   20.3446 N   0  0  0  0  0  0  0  0  0  0  0  0
   11.3066  -16.3367   23.3975 C   0  0  0  0  0  0  0  0  0  0  0  0
   11.7172  -17.4544   24.1097 O   0  0  0  0  0  0  0  0  0  0  0  0
   10.5329  -15.5300   23.9683 O   0  0  0  0  0  0  0  0  0  0  0  0
  2  9  1  0
  2  1  1  6
  3  2  1  0
  4  3  1  0
  4  5  2  0
  6  5  1  0
  7  6  1  0
  8  7  2  0
  8  4  1  0
  9 10  2  0
 11  9  1  0
 12 11  1  0
 13 12  1  0
 13 14  1  0
 14 15  1  0
 15 11  1  0
 15 16  1  1
 17 16  2  0
 18 16  1  0
 19 18  1  0
 19 26  1  0
 19 20  1  1
 21 20  1  0
 21 22  2  0
 23 22  1  0
 24 23  1  0
 25 24  2  0
 25 21  1  0
 26 27  1  0
 28 26  2  0
M  END
$$$$
