HPH.pdb
     RDKit          3D

 28 30  0  0  1  0  0  0  0  0999 V2000
   10.8414  -15.5785   16.1032 N   0  0  0  0  0  0  0  0  0  0  0  0
    9.5676  -15.3730   16.7916 C   0  0  1  0  0  0  0  0  0  0  0  0
    8.7676  -16.6348   16.5166 C   0  0  0  0  0  0  0  0  0  0  0  0
    8.4057  -16.7548   15.0933 C   0  0  0  0  0  0  0  0  0  0  0  0
    7.7661  -15.7954   14.3496 C   0  0  0  0  0  0  0  0  0  0  0  0
    7.6123  -16.2662   13.1100 N   0  0  0  0  0  0  0  0  0  0  0  0
    8.1362  -17.5032   13.0367 C   0  0  0  0  0  0  0  0  0  0  0  0
    8.6256  -17.7918   14.2794 N   0  0  0  0  0  0  0  0  0  0  0  0
    9.8222  -15.1165   18.2039 C   0  0  0  0  0  0  0  0  0  0  0  0
   10.8304  -15.6972   18.7311 O   0  0  0  0  0  0  0  0  0  0  0  0
    9.0528  -14.2727   19.0663 N   0  0  0  0  0  0  0  0  0  0  0  0
    7.9281  -13.5114   18.5815 C   0  0  0  0  0  0  0  0  0  0  0  0
    7.2456  -12.9275   19.7780 C   0  0  0  0  0  0  0  0  0  0  0  0
    8.3942  -12.8054   20.7944 C   0  0  0  0  0  0  0  0  0  0  0  0
    9.2048  -14.0362   20.4653 C   0  0  1  0  0  0  0  0  0  0  0  0
    8.8432  -15.1951   21.3053 C   0  0  0  0  0  0  0  0  0  0  0  0
    8.2796  -16.1710   20.7444 O   0  0  0  0  0  0  0  0  0  0  0  0
    9.0829  -15.2960   22.7014 N   0  0  0  0  0  0  0  0  0  0  0  0
    9.7884  -16.4571   23.2654 C   0  0  1  0  0  0  0  0  0  0  0  0
   11.1541  -16.4753   22.6448 C   0  0  0  0  0  0  0  0  0  0  0  0
   11.3671  -17.5995   21.7031 C   0  0  0  0  0  0  0  0  0  0  0  0
   10.4405  -18.5678   21.4140 C   0  0  0  0  0  0  0  0  0  0  0  0
   10.9726  -19.4167   20.5283 N   0  0  0  0  0  0  0  0  0  0  0  0
   12.2216  -18.9907   20.2598 C   0  0  0  0  0  0  0  0  0  0  0  0
   12.4560  -17.8794   20.9814 N   0  0  0  0  0  0  0  0  0  0  0  0
    9.9420  -16.3018   24.7316 C   0  0  0  0  0  0  0  0  0  0  0  0
    9.6680  -17.3244   25.6286 O   0  0  0  0  0  0  0  0  0  0  0  0
   10.3358  -15.2046   25.1966 O   0  0  0  0  0  0  0  0  0  0  0  0
  2  9  1  0
  2  1  1  6
  3  2  1  0
  4  3  1  0
  4  5  2  0
  6  5  1  0
  7  6  1  0
  8  7  2  0
  8  4  1  0
  9 10  2  0
 11  9  1  0
 12 11  1  0
 13 12  1  0
 13 14  1  0
 14 15  1  0
 15 11  1  0
 15 16  1  1
 17 16  2  0
 18 16  1  0
 19 18  1  0
 19 26  1  0
 19 20  1  6
 21 20  1  0
 21 22  2  0
 23 22  1  0
 24 23  1  0
 25 24  2  0
 25 21  1  0
 26 27  1  0
 28 26  2  0
M  END
$$$$
