HPH.pdb
     RDKit          3D

 28 30  0  0  1  0  0  0  0  0999 V2000
   11.2658  -14.1358   16.9609 N   0  0  0  0  0  0  0  0  0  0  0  0
    9.9669  -14.5187   17.5130 C   0  0  1  0  0  0  0  0  0  0  0  0
    9.6425  -15.8510   16.8590 C   0  0  0  0  0  0  0  0  0  0  0  0
    9.5496  -15.7337   15.3932 C   0  0  0  0  0  0  0  0  0  0  0  0
    8.5389  -15.1105   14.7056 C   0  0  0  0  0  0  0  0  0  0  0  0
    8.8027  -15.2096   13.4008 N   0  0  0  0  0  0  0  0  0  0  0  0
    9.9566  -15.8802   13.2309 C   0  0  0  0  0  0  0  0  0  0  0  0
   10.4081  -16.1990   14.4806 N   0  0  0  0  0  0  0  0  0  0  0  0
   10.0599  -14.5678   18.9670 C   0  0  0  0  0  0  0  0  0  0  0  0
   11.1668  -14.9605   19.4690 O   0  0  0  0  0  0  0  0  0  0  0  0
    9.0302  -14.2165   19.8966 N   0  0  0  0  0  0  0  0  0  0  0  0
    7.7566  -13.6982   19.4621 C   0  0  0  0  0  0  0  0  0  0  0  0
    6.8697  -13.6486   20.6660 C   0  0  0  0  0  0  0  0  0  0  0  0
    7.8753  -13.4761   21.8177 C   0  0  0  0  0  0  0  0  0  0  0  0
    9.0318  -14.3100   21.3204 C   0  0  1  0  0  0  0  0  0  0  0  0
    8.9888  -15.6973   21.8236 C   0  0  0  0  0  0  0  0  0  0  0  0
    8.5442  -16.5862   21.0511 O   0  0  0  0  0  0  0  0  0  0  0  0
    9.4117  -16.1091   23.1152 N   0  0  0  0  0  0  0  0  0  0  0  0
   10.4961  -17.0896   23.2788 C   0  0  1  0  0  0  0  0  0  0  0  0
   11.7273  -16.4745   22.6818 C   0  0  0  0  0  0  0  0  0  0  0  0
   12.9443  -17.3064   22.8342 C   0  0  0  0  0  0  0  0  0  0  0  0
   13.0136  -18.4721   23.5525 C   0  0  0  0  0  0  0  0  0  0  0  0
   14.2599  -18.9500   23.4713 N   0  0  0  0  0  0  0  0  0  0  0  0
   14.9713  -18.0966   22.7103 C   0  0  0  0  0  0  0  0  0  0  0  0
   14.1608  -17.0943   22.3243 N   0  0  0  0  0  0  0  0  0  0  0  0
   10.7483  -17.3407   24.7177 C   0  0  0  0  0  0  0  0  0  0  0  0
   10.0651  -16.6781   25.7274 O   0  0  0  0  0  0  0  0  0  0  0  0
   11.6137  -18.1856   25.0528 O   0  0  0  0  0  0  0  0  0  0  0  0
  2  9  1  0
  2  1  1  6
  3  2  1  0
  4  3  1  0
  4  5  2  0
  6  5  1  0
  7  6  1  0
  8  7  2  0
  8  4  1  0
  9 10  2  0
 11  9  1  0
 12 11  1  0
 13 12  1  0
 13 14  1  0
 14 15  1  0
 15 11  1  0
 15 16  1  6
 17 16  2  0
 18 16  1  0
 19 18  1  0
 19 26  1  0
 19 20  1  1
 21 20  1  0
 21 22  2  0
 23 22  1  0
 24 23  1  0
 25 24  2  0
 25 21  1  0
 26 27  1  0
 28 26  2  0
M  END
$$$$
