HPH.pdb
     RDKit          3D

 28 30  0  0  1  0  0  0  0  0999 V2000
   10.1324  -15.6666   15.6254 N   0  0  0  0  0  0  0  0  0  0  0  0
    9.0509  -15.7240   16.6080 C   0  0  1  0  0  0  0  0  0  0  0  0
    8.6530  -17.1890   16.6650 C   0  0  0  0  0  0  0  0  0  0  0  0
    8.0062  -17.6301   15.4168 C   0  0  0  0  0  0  0  0  0  0  0  0
    6.8248  -17.1440   14.9159 C   0  0  0  0  0  0  0  0  0  0  0  0
    6.5637  -17.7849   13.7744 N   0  0  0  0  0  0  0  0  0  0  0  0
    7.5459  -18.6705   13.5278 C   0  0  0  0  0  0  0  0  0  0  0  0
    8.4353  -18.5613   14.5594 N   0  0  0  0  0  0  0  0  0  0  0  0
    9.5244  -15.1784   17.8742 C   0  0  0  0  0  0  0  0  0  0  0  0
   10.7292  -15.4392   18.2090 O   0  0  0  0  0  0  0  0  0  0  0  0
    8.7721  -14.3727   18.7866 N   0  0  0  0  0  0  0  0  0  0  0  0
    7.4176  -13.9661   18.5048 C   0  0  0  0  0  0  0  0  0  0  0  0
    6.8827  -13.3309   19.7494 C   0  0  0  0  0  0  0  0  0  0  0  0
    8.1546  -12.7871   20.4230 C   0  0  0  0  0  0  0  0  0  0  0  0
    9.1551  -13.8589   20.0615 C   0  0  1  0  0  0  0  0  0  0  0  0
    9.2786  -14.8952   21.1057 C   0  0  0  0  0  0  0  0  0  0  0  0
    8.4086  -15.8046   21.1332 O   0  0  0  0  0  0  0  0  0  0  0  0
   10.3060  -14.9473   22.0846 N   0  0  0  0  0  0  0  0  0  0  0  0
   10.3653  -16.0460   23.0609 C   0  0  1  0  0  0  0  0  0  0  0  0
   11.8175  -16.2908   23.3471 C   0  0  0  0  0  0  0  0  0  0  0  0
   12.5292  -17.0008   22.2583 C   0  0  0  0  0  0  0  0  0  0  0  0
   11.9297  -17.5412   21.1501 C   0  0  0  0  0  0  0  0  0  0  0  0
   12.8727  -18.1011   20.3850 N   0  0  0  0  0  0  0  0  0  0  0  0
   14.0556  -17.9173   21.0018 C   0  0  0  0  0  0  0  0  0  0  0  0
   13.8382  -17.2440   22.1464 N   0  0  0  0  0  0  0  0  0  0  0  0
    9.6996  -15.6471   24.3238 C   0  0  0  0  0  0  0  0  0  0  0  0
    9.1205  -14.3995   24.5067 O   0  0  0  0  0  0  0  0  0  0  0  0
    9.6495  -16.4616   25.2773 O   0  0  0  0  0  0  0  0  0  0  0  0
  2  9  1  0
  2  1  1  6
  3  2  1  0
  4  3  1  0
  4  5  2  0
  6  5  1  0
  7  6  1  0
  8  7  2  0
  8  4  1  0
  9 10  2  0
 11  9  1  0
 12 11  1  0
 13 12  1  0
 13 14  1  0
 14 15  1  0
 15 11  1  0
 15 16  1  1
 17 16  2  0
 18 16  1  0
 19 18  1  0
 19 26  1  0
 19 20  1  1
 21 20  1  0
 21 22  2  0
 23 22  1  0
 24 23  1  0
 25 24  2  0
 25 21  1  0
 26 27  1  0
 28 26  2  0
M  END
$$$$
