HPH.pdb
     RDKit          3D

 28 30  0  0  1  0  0  0  0  0999 V2000
    9.8742  -14.8376   20.9962 N   0  0  0  0  0  0  0  0  0  0  0  0
    8.7057  -14.2668   21.6649 C   0  0  1  0  0  0  0  0  0  0  0  0
    7.5142  -14.7823   20.8760 C   0  0  0  0  0  0  0  0  0  0  0  0
    7.6175  -14.4459   19.4452 C   0  0  0  0  0  0  0  0  0  0  0  0
    7.7806  -13.1836   18.9327 C   0  0  0  0  0  0  0  0  0  0  0  0
    7.8314  -13.2799   17.6022 N   0  0  0  0  0  0  0  0  0  0  0  0
    7.7052  -14.5709   17.2454 C   0  0  0  0  0  0  0  0  0  0  0  0
    7.5730  -15.2828   18.4042 N   0  0  0  0  0  0  0  0  0  0  0  0
    8.7160  -14.6620   23.0681 C   0  0  0  0  0  0  0  0  0  0  0  0
    9.5786  -15.5346   23.4234 O   0  0  0  0  0  0  0  0  0  0  0  0
    7.8530  -14.1670   24.0966 N   0  0  0  0  0  0  0  0  0  0  0  0
    6.8010  -13.2209   23.8178 C   0  0  0  0  0  0  0  0  0  0  0  0
    5.9816  -13.0968   25.0635 C   0  0  0  0  0  0  0  0  0  0  0  0
    6.9985  -13.4281   26.1696 C   0  0  0  0  0  0  0  0  0  0  0  0
    7.8348  -14.4845   25.4876 C   0  0  1  0  0  0  0  0  0  0  0  0
    7.3657  -15.8540   25.7772 C   0  0  0  0  0  0  0  0  0  0  0  0
    6.1863  -16.1495   25.4513 O   0  0  0  0  0  0  0  0  0  0  0  0
    8.1437  -16.8681   26.3962 N   0  0  0  0  0  0  0  0  0  0  0  0
    7.5572  -18.1765   26.7246 C   0  0  1  0  0  0  0  0  0  0  0  0
    7.5625  -18.9815   25.4587 C   0  0  0  0  0  0  0  0  0  0  0  0
    8.9138  -19.1819   24.8842 C   0  0  0  0  0  0  0  0  0  0  0  0
    9.8259  -18.1840   24.6565 C   0  0  0  0  0  0  0  0  0  0  0  0
   10.9305  -18.7268   24.1333 N   0  0  0  0  0  0  0  0  0  0  0  0
   10.7199  -20.0530   24.0311 C   0  0  0  0  0  0  0  0  0  0  0  0
    9.4851  -20.3241   24.4920 N   0  0  0  0  0  0  0  0  0  0  0  0
    8.3934  -18.8764   27.7286 C   0  0  0  0  0  0  0  0  0  0  0  0
    8.0701  -20.1267   28.2360 O   0  0  0  0  0  0  0  0  0  0  0  0
    9.4416  -18.3276   28.1472 O   0  0  0  0  0  0  0  0  0  0  0  0
  2  9  1  0
  2  1  1  6
  3  2  1  0
  4  3  1  0
  4  5  2  0
  6  5  1  0
  7  6  1  0
  8  7  2  0
  8  4  1  0
  9 10  2  0
 11  9  1  0
 12 11  1  0
 13 12  1  0
 13 14  1  0
 14 15  1  0
 15 11  1  0
 15 16  1  6
 17 16  2  0
 18 16  1  0
 19 18  1  0
 19 26  1  0
 19 20  1  6
 21 20  1  0
 21 22  2  0
 23 22  1  0
 24 23  1  0
 25 24  2  0
 25 21  1  0
 26 27  1  0
 28 26  2  0
M  END
$$$$
