HPH.pdb
     RDKit          3D

 28 30  0  0  1  0  0  0  0  0999 V2000
    9.9414  -15.1747   21.1245 N   0  0  0  0  0  0  0  0  0  0  0  0
    8.8729  -14.4470   21.8080 C   0  0  1  0  0  0  0  0  0  0  0  0
    7.6218  -14.7385   20.9971 C   0  0  0  0  0  0  0  0  0  0  0  0
    7.7776  -14.3401   19.5871 C   0  0  0  0  0  0  0  0  0  0  0  0
    8.0687  -13.0747   19.1436 C   0  0  0  0  0  0  0  0  0  0  0  0
    8.1292  -13.1065   17.8105 N   0  0  0  0  0  0  0  0  0  0  0  0
    7.8846  -14.3590   17.3847 C   0  0  0  0  0  0  0  0  0  0  0  0
    7.6679  -15.1138   18.5029 N   0  0  0  0  0  0  0  0  0  0  0  0
    8.8068  -14.8855   23.1967 C   0  0  0  0  0  0  0  0  0  0  0  0
    9.5654  -15.8539   23.5407 O   0  0  0  0  0  0  0  0  0  0  0  0
    7.9736  -14.3365   24.2224 N   0  0  0  0  0  0  0  0  0  0  0  0
    6.9599  -13.3521   23.9342 C   0  0  0  0  0  0  0  0  0  0  0  0
    6.1565  -13.1716   25.1834 C   0  0  0  0  0  0  0  0  0  0  0  0
    7.1676  -13.5255   26.2878 C   0  0  0  0  0  0  0  0  0  0  0  0
    7.9534  -14.6280   25.6190 C   0  0  1  0  0  0  0  0  0  0  0  0
    7.4298  -15.9713   25.9368 C   0  0  0  0  0  0  0  0  0  0  0  0
    6.1867  -16.0925   26.0938 O   0  0  0  0  0  0  0  0  0  0  0  0
    8.2212  -17.1418   26.0792 N   0  0  0  0  0  0  0  0  0  0  0  0
    7.9346  -18.1244   27.1357 C   0  0  1  0  0  0  0  0  0  0  0  0
    7.7589  -19.4500   26.4556 C   0  0  0  0  0  0  0  0  0  0  0  0
    7.2287  -19.3475   25.0755 C   0  0  0  0  0  0  0  0  0  0  0  0
    6.8947  -18.1753   24.4479 C   0  0  0  0  0  0  0  0  0  0  0  0
    6.4533  -18.4604   23.2182 N   0  0  0  0  0  0  0  0  0  0  0  0
    6.5073  -19.7977   23.0691 C   0  0  0  0  0  0  0  0  0  0  0  0
    6.9822  -20.3335   24.2084 N   0  0  0  0  0  0  0  0  0  0  0  0
    9.0823  -18.2248   28.0684 C   0  0  0  0  0  0  0  0  0  0  0  0
   10.2364  -17.4682   27.9242 O   0  0  0  0  0  0  0  0  0  0  0  0
    9.0225  -19.0237   29.0345 O   0  0  0  0  0  0  0  0  0  0  0  0
  2  9  1  0
  2  1  1  6
  3  2  1  0
  4  3  1  0
  4  5  2  0
  6  5  1  0
  7  6  1  0
  8  7  2  0
  8  4  1  0
  9 10  2  0
 11  9  1  0
 12 11  1  0
 13 12  1  0
 13 14  1  0
 14 15  1  0
 15 11  1  0
 15 16  1  6
 17 16  2  0
 18 16  1  0
 19 18  1  0
 19 26  1  0
 19 20  1  6
 21 20  1  0
 21 22  2  0
 23 22  1  0
 24 23  1  0
 25 24  2  0
 25 21  1  0
 26 27  1  0
 28 26  2  0
M  END
$$$$
