HCP.pdb
     RDKit          3D

 24 25  0  0  1  0  0  0  0  0999 V2000
    9.8780  -15.7155   20.6461 N   0  0  0  0  0  0  0  0  0  0  0  0
    8.8699  -16.0454   21.6507 C   0  0  1  0  0  0  0  0  0  0  0  0
    9.0150  -17.5237   21.9198 C   0  0  0  0  0  0  0  0  0  0  0  0
    8.3950  -18.2466   20.7750 C   0  0  0  0  0  0  0  0  0  0  0  0
    7.0848  -18.6471   20.6267 C   0  0  0  0  0  0  0  0  0  0  0  0
    6.9291  -19.2782   19.4333 N   0  0  0  0  0  0  0  0  0  0  0  0
    8.1361  -19.2693   18.8442 C   0  0  0  0  0  0  0  0  0  0  0  0
    9.0157  -18.6583   19.6332 N   0  0  0  0  0  0  0  0  0  0  0  0
    9.0393  -15.1906   22.8225 C   0  0  0  0  0  0  0  0  0  0  0  0
   10.1870  -14.9862   23.2950 O   0  0  0  0  0  0  0  0  0  0  0  0
    7.9631  -14.5364   23.5089 N   0  0  0  0  0  0  0  0  0  0  0  0
    8.0842  -14.0363   24.8488 C   0  0  1  0  0  0  0  0  0  0  0  0
    6.6851  -13.5257   25.2364 C   0  0  0  0  0  0  0  0  0  0  0  0
    6.7642  -13.0817   26.9926 S   0  0  0  0  0  0  0  0  0  0  0  0
    8.5286  -14.9671   25.8742 C   0  0  0  0  0  0  0  0  0  0  0  0
    8.2619  -16.2257   25.6841 O   0  0  0  0  0  0  0  0  0  0  0  0
    9.2187  -14.7120   27.0705 N   0  0  0  0  0  0  0  0  0  0  0  0
    9.0395  -13.5602   27.9789 C   0  0  0  0  0  0  0  0  0  0  0  0
   10.4313  -13.1975   28.3805 C   0  0  0  0  0  0  0  0  0  0  0  0
   11.1683  -14.5039   28.3974 C   0  0  0  0  0  0  0  0  0  0  0  0
   10.2417  -15.5026   27.6957 C   0  0  1  0  0  0  0  0  0  0  0  0
    9.6573  -16.3509   28.7895 C   0  0  0  0  0  0  0  0  0  0  0  0
    8.4637  -16.2366   29.1423 O   0  0  0  0  0  0  0  0  0  0  0  0
   10.4312  -17.2957   29.4468 O   0  0  0  0  0  0  0  0  0  0  0  0
  2  1  1  6
  3  2  1  0
  3  4  1  0
  4  5  2  0
  5  6  1  0
  7  6  1  0
  8  4  1  0
  8  7  2  0
  9  2  1  0
  9 10  2  0
 11  9  1  0
 12 11  1  0
 12 15  1  0
 12 13  1  1
 14 13  1  0
 15 17  1  0
 16 15  2  0
 17 21  1  0
 17 18  1  0
 19 18  1  0
 20 19  1  0
 20 21  1  0
 21 22  1  1
 22 23  2  0
 22 24  1  0
M  END
$$$$
