HCP.pdb
     RDKit          3D

 24 25  0  0  1  0  0  0  0  0999 V2000
   10.1313  -15.8568   20.8064 N   0  0  0  0  0  0  0  0  0  0  0  0
    9.0907  -16.2102   21.7691 C   0  0  1  0  0  0  0  0  0  0  0  0
    9.2760  -17.6787   22.0658 C   0  0  0  0  0  0  0  0  0  0  0  0
    8.7696  -18.4371   20.8886 C   0  0  0  0  0  0  0  0  0  0  0  0
    7.4767  -18.8295   20.6173 C   0  0  0  0  0  0  0  0  0  0  0  0
    7.4384  -19.5028   19.4375 N   0  0  0  0  0  0  0  0  0  0  0  0
    8.7006  -19.5280   18.9791 C   0  0  0  0  0  0  0  0  0  0  0  0
    9.5010  -18.8971   19.8342 N   0  0  0  0  0  0  0  0  0  0  0  0
    9.1756  -15.3348   22.9349 C   0  0  0  0  0  0  0  0  0  0  0  0
   10.2931  -15.0785   23.4526 O   0  0  0  0  0  0  0  0  0  0  0  0
    8.0459  -14.7160   23.5658 N   0  0  0  0  0  0  0  0  0  0  0  0
    8.0872  -14.2020   24.9053 C   0  0  1  0  0  0  0  0  0  0  0  0
    6.6454  -13.7808   25.2400 C   0  0  0  0  0  0  0  0  0  0  0  0
    6.6229  -13.3694   27.0058 S   0  0  0  0  0  0  0  0  0  0  0  0
    8.5541  -15.0968   25.9526 C   0  0  0  0  0  0  0  0  0  0  0  0
    8.3485  -16.3688   25.7767 O   0  0  0  0  0  0  0  0  0  0  0  0
    9.2094  -14.7934   27.1572 N   0  0  0  0  0  0  0  0  0  0  0  0
    8.9688  -13.6321   28.0389 C   0  0  0  0  0  0  0  0  0  0  0  0
   10.3375  -13.2100   28.4610 C   0  0  0  0  0  0  0  0  0  0  0  0
   11.1219  -14.4873   28.5185 C   0  0  0  0  0  0  0  0  0  0  0  0
   10.2477  -15.5332   27.8183 C   0  0  1  0  0  0  0  0  0  0  0  0
    9.6725  -16.3818   28.9167 C   0  0  0  0  0  0  0  0  0  0  0  0
    8.4669  -16.3102   29.2387 O   0  0  0  0  0  0  0  0  0  0  0  0
   10.4686  -17.2790   29.6129 O   0  0  0  0  0  0  0  0  0  0  0  0
  2  1  1  6
  3  2  1  0
  3  4  1  0
  4  5  2  0
  5  6  1  0
  7  6  1  0
  8  4  1  0
  8  7  2  0
  9  2  1  0
  9 10  2  0
 11  9  1  0
 12 11  1  0
 12 15  1  0
 12 13  1  1
 14 13  1  0
 15 17  1  0
 16 15  2  0
 17 21  1  0
 17 18  1  0
 19 18  1  0
 20 19  1  0
 20 21  1  0
 21 22  1  1
 22 23  2  0
 22 24  1  0
M  END
$$$$
