HCP.pdb
     RDKit          3D

 24 25  0  0  1  0  0  0  0  0999 V2000
    9.9720  -15.6901   20.7840 N   0  0  0  0  0  0  0  0  0  0  0  0
    8.8329  -15.8025   21.6918 C   0  0  1  0  0  0  0  0  0  0  0  0
    8.6709  -17.2754   21.9800 C   0  0  0  0  0  0  0  0  0  0  0  0
    7.7402  -17.8284   20.9574 C   0  0  0  0  0  0  0  0  0  0  0  0
    7.7930  -17.6845   19.5879 C   0  0  0  0  0  0  0  0  0  0  0  0
    6.7537  -18.3468   19.0154 N   0  0  0  0  0  0  0  0  0  0  0  0
    6.0597  -18.8988   20.0242 C   0  0  0  0  0  0  0  0  0  0  0  0
    6.6374  -18.5970   21.1839 N   0  0  0  0  0  0  0  0  0  0  0  0
    9.0539  -14.9690   22.8704 C   0  0  0  0  0  0  0  0  0  0  0  0
   10.1875  -14.9317   23.4144 O   0  0  0  0  0  0  0  0  0  0  0  0
    8.0462  -14.1548   23.4859 N   0  0  0  0  0  0  0  0  0  0  0  0
    8.0626  -13.8178   24.8810 C   0  0  1  0  0  0  0  0  0  0  0  0
    6.6198  -13.4156   25.2347 C   0  0  0  0  0  0  0  0  0  0  0  0
    6.5839  -13.1388   27.0262 S   0  0  0  0  0  0  0  0  0  0  0  0
    8.4891  -14.8482   25.8146 C   0  0  0  0  0  0  0  0  0  0  0  0
    8.2308  -16.0810   25.4911 O   0  0  0  0  0  0  0  0  0  0  0  0
    9.1538  -14.7161   27.0448 N   0  0  0  0  0  0  0  0  0  0  0  0
    8.9579  -13.6592   28.0588 C   0  0  0  0  0  0  0  0  0  0  0  0
   10.3415  -13.3446   28.5240 C   0  0  0  0  0  0  0  0  0  0  0  0
   11.0746  -14.6497   28.4271 C   0  0  0  0  0  0  0  0  0  0  0  0
   10.1609  -15.5696   27.6103 C   0  0  1  0  0  0  0  0  0  0  0  0
    9.5506  -16.5193   28.6018 C   0  0  0  0  0  0  0  0  0  0  0  0
    8.3657  -16.4003   28.9814 O   0  0  0  0  0  0  0  0  0  0  0  0
   10.2899  -17.5669   29.1306 O   0  0  0  0  0  0  0  0  0  0  0  0
  2  1  1  6
  3  2  1  0
  3  4  1  0
  4  5  2  0
  5  6  1  0
  7  6  1  0
  8  4  1  0
  8  7  2  0
  9  2  1  0
  9 10  2  0
 11  9  1  0
 12 11  1  0
 12 15  1  0
 12 13  1  1
 14 13  1  0
 15 17  1  0
 16 15  2  0
 17 21  1  0
 17 18  1  0
 19 18  1  0
 20 19  1  0
 20 21  1  0
 21 22  1  1
 22 23  2  0
 22 24  1  0
M  END
$$$$
