HCP.pdb
     RDKit          3D

 24 25  0  0  1  0  0  0  0  0999 V2000
    8.5326  -15.8235   20.3427 N   0  0  0  0  0  0  0  0  0  0  0  0
    8.1208  -14.5289   20.8802 C   0  0  1  0  0  0  0  0  0  0  0  0
    7.0117  -14.0364   19.9824 C   0  0  0  0  0  0  0  0  0  0  0  0
    7.5547  -13.9775   18.5970 C   0  0  0  0  0  0  0  0  0  0  0  0
    8.2906  -12.9709   18.0103 C   0  0  0  0  0  0  0  0  0  0  0  0
    8.5911  -13.3079   16.7287 N   0  0  0  0  0  0  0  0  0  0  0  0
    8.0447  -14.5172   16.5211 C   0  0  0  0  0  0  0  0  0  0  0  0
    7.4257  -14.9252   17.6256 N   0  0  0  0  0  0  0  0  0  0  0  0
    7.7528  -14.6702   22.2864 C   0  0  0  0  0  0  0  0  0  0  0  0
    7.3838  -13.6653   22.9469 O   0  0  0  0  0  0  0  0  0  0  0  0
    7.7769  -15.9093   23.0082 N   0  0  0  0  0  0  0  0  0  0  0  0
    7.5274  -15.9932   24.4193 C   0  0  1  0  0  0  0  0  0  0  0  0
    7.0844  -17.4431   24.6837 C   0  0  0  0  0  0  0  0  0  0  0  0
    6.9847  -17.6337   26.4841 S   0  0  0  0  0  0  0  0  0  0  0  0
    8.6312  -15.6846   25.3147 C   0  0  0  0  0  0  0  0  0  0  0  0
    9.7910  -16.1928   25.0184 O   0  0  0  0  0  0  0  0  0  0  0  0
    8.6402  -14.9029   26.4815 N   0  0  0  0  0  0  0  0  0  0  0  0
    7.4737  -14.3232   27.1793 C   0  0  0  0  0  0  0  0  0  0  0  0
    7.9319  -12.9584   27.5757 C   0  0  0  0  0  0  0  0  0  0  0  0
    9.3999  -13.1185   27.8393 C   0  0  0  0  0  0  0  0  0  0  0  0
    9.7673  -14.4939   27.2721 C   0  0  1  0  0  0  0  0  0  0  0  0
    9.9291  -15.3941   28.4642 C   0  0  0  0  0  0  0  0  0  0  0  0
    9.0771  -16.2622   28.7518 O   0  0  0  0  0  0  0  0  0  0  0  0
   11.0390  -15.2886   29.2891 O   0  0  0  0  0  0  0  0  0  0  0  0
  2  1  1  6
  3  2  1  0
  3  4  1  0
  4  5  2  0
  5  6  1  0
  7  6  1  0
  8  4  1  0
  8  7  2  0
  9  2  1  0
  9 10  2  0
 11  9  1  0
 12 11  1  0
 12 15  1  0
 12 13  1  6
 14 13  1  0
 15 17  1  0
 16 15  2  0
 17 21  1  0
 17 18  1  0
 19 18  1  0
 20 19  1  0
 20 21  1  0
 21 22  1  1
 22 23  2  0
 22 24  1  0
M  END
$$$$
