HCP.pdb
     RDKit          3D

 24 25  0  0  1  0  0  0  0  0999 V2000
    9.5276  -17.7814   21.7896 N   0  0  0  0  0  0  0  0  0  0  0  0
   10.2014  -16.6410   22.4060 C   0  0  1  0  0  0  0  0  0  0  0  0
   10.9000  -15.9111   21.2844 C   0  0  0  0  0  0  0  0  0  0  0  0
   11.9732  -16.8074   20.7718 C   0  0  0  0  0  0  0  0  0  0  0  0
   13.0619  -17.3106   21.4502 C   0  0  0  0  0  0  0  0  0  0  0  0
   13.8017  -18.0904   20.6188 N   0  0  0  0  0  0  0  0  0  0  0  0
   13.1754  -18.0712   19.4307 C   0  0  0  0  0  0  0  0  0  0  0  0
   12.0865  -17.3111   19.5101 N   0  0  0  0  0  0  0  0  0  0  0  0
    9.2357  -15.8377   23.1509 C   0  0  0  0  0  0  0  0  0  0  0  0
    8.3323  -15.2096   22.5412 O   0  0  0  0  0  0  0  0  0  0  0  0
    9.2292  -15.6987   24.5784 N   0  0  0  0  0  0  0  0  0  0  0  0
    8.1239  -15.1360   25.3007 C   0  0  1  0  0  0  0  0  0  0  0  0
    6.8818  -15.9275   24.8547 C   0  0  0  0  0  0  0  0  0  0  0  0
    7.0831  -17.6114   25.4961 S   0  0  0  0  0  0  0  0  0  0  0  0
    8.1862  -15.1685   26.7535 C   0  0  0  0  0  0  0  0  0  0  0  0
    7.0571  -15.2739   27.3901 O   0  0  0  0  0  0  0  0  0  0  0  0
    9.3055  -15.1012   27.5991 N   0  0  0  0  0  0  0  0  0  0  0  0
    9.3904  -14.4455   28.9207 C   0  0  0  0  0  0  0  0  0  0  0  0
   10.7289  -13.7836   28.9097 C   0  0  0  0  0  0  0  0  0  0  0  0
   11.5873  -14.6891   28.0770 C   0  0  0  0  0  0  0  0  0  0  0  0
   10.6144  -15.6545   27.3914 C   0  0  1  0  0  0  0  0  0  0  0  0
   10.7566  -16.9599   28.1217 C   0  0  0  0  0  0  0  0  0  0  0  0
   11.8662  -17.5188   28.2575 O   0  0  0  0  0  0  0  0  0  0  0  0
    9.6509  -17.5902   28.6728 O   0  0  0  0  0  0  0  0  0  0  0  0
  2  1  1  6
  3  2  1  0
  3  4  1  0
  4  5  2  0
  5  6  1  0
  7  6  1  0
  8  4  1  0
  8  7  2  0
  9  2  1  0
  9 10  2  0
 11  9  1  0
 12 11  1  0
 12 15  1  0
 12 13  1  6
 14 13  1  0
 15 17  1  0
 16 15  2  0
 17 21  1  0
 17 18  1  0
 19 18  1  0
 20 19  1  0
 20 21  1  0
 21 22  1  1
 22 23  2  0
 22 24  1  0
M  END
$$$$
