HCP.pdb
     RDKit          3D

 24 25  0  0  1  0  0  0  0  0999 V2000
    7.2211  -16.9169   19.5860 N   0  0  0  0  0  0  0  0  0  0  0  0
    8.2813  -16.4117   20.4550 C   0  0  1  0  0  0  0  0  0  0  0  0
    8.9812  -15.3260   19.6738 C   0  0  0  0  0  0  0  0  0  0  0  0
    9.8421  -15.9937   18.6587 C   0  0  0  0  0  0  0  0  0  0  0  0
   11.0701  -16.5921   18.8409 C   0  0  0  0  0  0  0  0  0  0  0  0
   11.5222  -17.0839   17.6577 N   0  0  0  0  0  0  0  0  0  0  0  0
   10.5800  -16.7924   16.7459 C   0  0  0  0  0  0  0  0  0  0  0  0
    9.5760  -16.1440   17.3302 N   0  0  0  0  0  0  0  0  0  0  0  0
    7.7143  -15.9800   21.7296 C   0  0  0  0  0  0  0  0  0  0  0  0
    7.0460  -14.9164   21.7960 O   0  0  0  0  0  0  0  0  0  0  0  0
    7.8602  -16.6960   22.9638 N   0  0  0  0  0  0  0  0  0  0  0  0
    7.3489  -16.2071   24.2127 C   0  0  1  0  0  0  0  0  0  0  0  0
    6.9252  -17.4523   25.0115 C   0  0  0  0  0  0  0  0  0  0  0  0
    6.5948  -16.8937   26.7045 S   0  0  0  0  0  0  0  0  0  0  0  0
    8.2466  -15.4186   25.0420 C   0  0  0  0  0  0  0  0  0  0  0  0
    9.5141  -15.7015   24.9735 O   0  0  0  0  0  0  0  0  0  0  0  0
    7.9504  -14.3717   25.9301 N   0  0  0  0  0  0  0  0  0  0  0  0
    6.6147  -13.8410   26.2741 C   0  0  0  0  0  0  0  0  0  0  0  0
    6.8161  -12.3623   26.3247 C   0  0  0  0  0  0  0  0  0  0  0  0
    8.2236  -12.1929   26.8150 C   0  0  0  0  0  0  0  0  0  0  0  0
    8.8593  -13.5836   26.7144 C   0  0  1  0  0  0  0  0  0  0  0  0
    8.9255  -14.1020   28.1232 C   0  0  0  0  0  0  0  0  0  0  0  0
    8.1386  -14.9803   28.5372 O   0  0  0  0  0  0  0  0  0  0  0  0
    9.8707  -13.6176   29.0151 O   0  0  0  0  0  0  0  0  0  0  0  0
  2  1  1  6
  3  2  1  0
  3  4  1  0
  4  5  2  0
  5  6  1  0
  7  6  1  0
  8  4  1  0
  8  7  2  0
  9  2  1  0
  9 10  2  0
 11  9  1  0
 12 11  1  0
 12 15  1  0
 12 13  1  1
 14 13  1  0
 15 17  1  0
 16 15  2  0
 17 21  1  0
 17 18  1  0
 19 18  1  0
 20 19  1  0
 20 21  1  0
 21 22  1  1
 22 23  2  0
 22 24  1  0
M  END
$$$$
