HCP.pdb
     RDKit          3D

 24 25  0  0  1  0  0  0  0  0999 V2000
    9.9930  -14.4608   20.8238 N   0  0  0  0  0  0  0  0  0  0  0  0
    8.6802  -14.1469   21.3827 C   0  0  1  0  0  0  0  0  0  0  0  0
    7.7351  -15.1945   20.8457 C   0  0  0  0  0  0  0  0  0  0  0  0
    7.5519  -14.9246   19.3927 C   0  0  0  0  0  0  0  0  0  0  0  0
    7.3347  -13.7148   18.7697 C   0  0  0  0  0  0  0  0  0  0  0  0
    7.2209  -13.9020   17.4286 N   0  0  0  0  0  0  0  0  0  0  0  0
    7.3667  -15.2209   17.2205 C   0  0  0  0  0  0  0  0  0  0  0  0
    7.5641  -15.8390   18.3818 N   0  0  0  0  0  0  0  0  0  0  0  0
    8.7629  -14.0864   22.8394 C   0  0  0  0  0  0  0  0  0  0  0  0
    9.6923  -14.6798   23.4447 O   0  0  0  0  0  0  0  0  0  0  0  0
    7.8360  -13.3776   23.6735 N   0  0  0  0  0  0  0  0  0  0  0  0
    7.9192  -13.3797   25.1064 C   0  0  1  0  0  0  0  0  0  0  0  0
    6.4962  -13.0833   25.6119 C   0  0  0  0  0  0  0  0  0  0  0  0
    6.5557  -13.1944   27.4207 S   0  0  0  0  0  0  0  0  0  0  0  0
    8.3853  -14.5983   25.7491 C   0  0  0  0  0  0  0  0  0  0  0  0
    8.0532  -15.7244   25.1897 O   0  0  0  0  0  0  0  0  0  0  0  0
    9.1584  -14.7532   26.9114 N   0  0  0  0  0  0  0  0  0  0  0  0
    9.2366  -13.8310   28.0635 C   0  0  0  0  0  0  0  0  0  0  0  0
   10.6866  -13.8209   28.4198 C   0  0  0  0  0  0  0  0  0  0  0  0
   11.1634  -15.2036   28.0869 C   0  0  0  0  0  0  0  0  0  0  0  0
   10.0374  -15.8339   27.2602 C   0  0  1  0  0  0  0  0  0  0  0  0
    9.3471  -16.7975   28.1835 C   0  0  0  0  0  0  0  0  0  0  0  0
    8.2027  -16.5714   28.6322 O   0  0  0  0  0  0  0  0  0  0  0  0
    9.9640  -17.9782   28.5693 O   0  0  0  0  0  0  0  0  0  0  0  0
  2  1  1  6
  3  2  1  0
  3  4  1  0
  4  5  2  0
  5  6  1  0
  7  6  1  0
  8  4  1  0
  8  7  2  0
  9  2  1  0
  9 10  2  0
 11  9  1  0
 12 11  1  0
 12 15  1  0
 12 13  1  1
 14 13  1  0
 15 17  1  0
 16 15  2  0
 17 21  1  0
 17 18  1  0
 19 18  1  0
 20 19  1  0
 20 21  1  0
 21 22  1  1
 22 23  2  0
 22 24  1  0
M  END
$$$$
