HCP.pdb
     RDKit          3D

 24 25  0  0  1  0  0  0  0  0999 V2000
    7.4656  -15.5965   20.2384 N   0  0  0  0  0  0  0  0  0  0  0  0
    8.6655  -15.7963   21.0477 C   0  0  1  0  0  0  0  0  0  0  0  0
    9.8338  -15.4491   20.1570 C   0  0  0  0  0  0  0  0  0  0  0  0
   10.2766  -16.7071   19.4945 C   0  0  0  0  0  0  0  0  0  0  0  0
    9.4978  -17.7126   18.9638 C   0  0  0  0  0  0  0  0  0  0  0  0
   10.2928  -18.6878   18.4506 N   0  0  0  0  0  0  0  0  0  0  0  0
   11.5582  -18.2898   18.6617 C   0  0  0  0  0  0  0  0  0  0  0  0
   11.5605  -17.1129   19.2819 N   0  0  0  0  0  0  0  0  0  0  0  0
    8.5743  -15.0070   22.2730 C   0  0  0  0  0  0  0  0  0  0  0  0
    8.2794  -13.7854   22.2173 O   0  0  0  0  0  0  0  0  0  0  0  0
    8.8014  -15.5284   23.5897 N   0  0  0  0  0  0  0  0  0  0  0  0
    8.4228  -14.8242   24.7818 C   0  0  1  0  0  0  0  0  0  0  0  0
    6.9096  -14.5719   24.6599 C   0  0  0  0  0  0  0  0  0  0  0  0
    6.3582  -13.9440   26.2690 S   0  0  0  0  0  0  0  0  0  0  0  0
    8.6732  -15.4798   26.0558 C   0  0  0  0  0  0  0  0  0  0  0  0
    8.2165  -16.6893   26.1967 O   0  0  0  0  0  0  0  0  0  0  0  0
    9.3488  -14.9973   27.1886 N   0  0  0  0  0  0  0  0  0  0  0  0
    8.9709  -13.8443   28.0322 C   0  0  0  0  0  0  0  0  0  0  0  0
   10.2705  -13.1689   28.3232 C   0  0  0  0  0  0  0  0  0  0  0  0
   11.2695  -14.2866   28.3763 C   0  0  0  0  0  0  0  0  0  0  0  0
   10.5454  -15.5070   27.7975 C   0  0  1  0  0  0  0  0  0  0  0  0
   10.2080  -16.3751   28.9765 C   0  0  0  0  0  0  0  0  0  0  0  0
    9.0329  -16.5027   29.3830 O   0  0  0  0  0  0  0  0  0  0  0  0
   11.1989  -17.0680   29.6557 O   0  0  0  0  0  0  0  0  0  0  0  0
  2  1  1  6
  3  2  1  0
  3  4  1  0
  4  5  2  0
  5  6  1  0
  7  6  1  0
  8  4  1  0
  8  7  2  0
  9  2  1  0
  9 10  2  0
 11  9  1  0
 12 11  1  0
 12 15  1  0
 12 13  1  6
 14 13  1  0
 15 17  1  0
 16 15  2  0
 17 21  1  0
 17 18  1  0
 19 18  1  0
 20 19  1  0
 20 21  1  0
 21 22  1  1
 22 23  2  0
 22 24  1  0
M  END
$$$$
