HCP.pdb
     RDKit          3D

 24 25  0  0  1  0  0  0  0  0999 V2000
    7.8223  -17.9010   20.1908 N   0  0  0  0  0  0  0  0  0  0  0  0
    8.1127  -16.5095   20.5280 C   0  0  1  0  0  0  0  0  0  0  0  0
    7.6781  -15.6905   19.3367 C   0  0  0  0  0  0  0  0  0  0  0  0
    8.5858  -16.0334   18.2070 C   0  0  0  0  0  0  0  0  0  0  0  0
    9.9596  -15.9380   18.1562 C   0  0  0  0  0  0  0  0  0  0  0  0
   10.4046  -16.3512   16.9405 N   0  0  0  0  0  0  0  0  0  0  0  0
    9.3129  -16.7010   16.2407 C   0  0  0  0  0  0  0  0  0  0  0  0
    8.2253  -16.5161   16.9842 N   0  0  0  0  0  0  0  0  0  0  0  0
    7.4580  -16.1568   21.7849 C   0  0  0  0  0  0  0  0  0  0  0  0
    6.3869  -15.4973   21.7760 O   0  0  0  0  0  0  0  0  0  0  0  0
    7.9530  -16.5139   23.0828 N   0  0  0  0  0  0  0  0  0  0  0  0
    7.3826  -16.0092   24.2994 C   0  0  1  0  0  0  0  0  0  0  0  0
    7.0053  -17.2464   25.1332 C   0  0  0  0  0  0  0  0  0  0  0  0
    5.8705  -18.2294   24.1166 S   0  0  0  0  0  0  0  0  0  0  0  0
    8.2139  -15.1436   25.1210 C   0  0  0  0  0  0  0  0  0  0  0  0
    9.5018  -15.2519   24.9764 O   0  0  0  0  0  0  0  0  0  0  0  0
    7.8327  -14.1835   26.0726 N   0  0  0  0  0  0  0  0  0  0  0  0
    6.4581  -13.7836   26.4393 C   0  0  0  0  0  0  0  0  0  0  0  0
    6.5413  -12.3001   26.5872 C   0  0  0  0  0  0  0  0  0  0  0  0
    7.9294  -12.0523   27.0990 C   0  0  0  0  0  0  0  0  0  0  0  0
    8.6739  -13.3789   26.9138 C   0  0  1  0  0  0  0  0  0  0  0  0
    8.7767  -13.9812   28.2865 C   0  0  0  0  0  0  0  0  0  0  0  0
    8.0440  -14.9285   28.6444 O   0  0  0  0  0  0  0  0  0  0  0  0
    9.6962  -13.5003   29.2066 O   0  0  0  0  0  0  0  0  0  0  0  0
  2  1  1  6
  3  2  1  0
  3  4  1  0
  4  5  2  0
  5  6  1  0
  7  6  1  0
  8  4  1  0
  8  7  2  0
  9  2  1  0
  9 10  2  0
 11  9  1  0
 12 11  1  0
 12 15  1  0
 12 13  1  1
 14 13  1  0
 15 17  1  0
 16 15  2  0
 17 21  1  0
 17 18  1  0
 19 18  1  0
 20 19  1  0
 20 21  1  0
 21 22  1  1
 22 23  2  0
 22 24  1  0
M  END
$$$$
