HCP.pdb
     RDKit          3D

 24 25  0  0  1  0  0  0  0  0999 V2000
    8.3064  -16.0386   20.9231 N   0  0  0  0  0  0  0  0  0  0  0  0
    9.6015  -15.5548   21.3954 C   0  0  1  0  0  0  0  0  0  0  0  0
   10.1472  -14.6771   20.2950 C   0  0  0  0  0  0  0  0  0  0  0  0
    8.9947  -14.2516   19.4534 C   0  0  0  0  0  0  0  0  0  0  0  0
    8.3306  -13.0442   19.4623 C   0  0  0  0  0  0  0  0  0  0  0  0
    7.3346  -13.0603   18.5380 N   0  0  0  0  0  0  0  0  0  0  0  0
    7.3804  -14.2712   17.9586 C   0  0  0  0  0  0  0  0  0  0  0  0
    8.3641  -14.9882   18.4953 N   0  0  0  0  0  0  0  0  0  0  0  0
    9.4421  -14.8903   22.6860 C   0  0  0  0  0  0  0  0  0  0  0  0
   10.4209  -14.3116   23.2240 O   0  0  0  0  0  0  0  0  0  0  0  0
    8.2126  -14.8388   23.4229 N   0  0  0  0  0  0  0  0  0  0  0  0
    8.1420  -14.4081   24.7903 C   0  0  1  0  0  0  0  0  0  0  0  0
    6.6438  -14.3490   25.1370 C   0  0  0  0  0  0  0  0  0  0  0  0
    6.5363  -13.9476   26.9018 S   0  0  0  0  0  0  0  0  0  0  0  0
    8.8073  -15.2316   25.7876 C   0  0  0  0  0  0  0  0  0  0  0  0
    8.8987  -16.5043   25.5362 O   0  0  0  0  0  0  0  0  0  0  0  0
    9.3812  -14.8570   27.0135 N   0  0  0  0  0  0  0  0  0  0  0  0
    9.0880  -13.6443   27.8054 C   0  0  0  0  0  0  0  0  0  0  0  0
   10.4273  -13.1994   28.2933 C   0  0  0  0  0  0  0  0  0  0  0  0
   11.1990  -14.4720   28.4806 C   0  0  0  0  0  0  0  0  0  0  0  0
   10.3684  -15.5570   27.7868 C   0  0  1  0  0  0  0  0  0  0  0  0
    9.7156  -16.3370   28.8926 C   0  0  0  0  0  0  0  0  0  0  0  0
    8.4881  -16.2592   29.1149 O   0  0  0  0  0  0  0  0  0  0  0  0
   10.4617  -17.1752   29.7076 O   0  0  0  0  0  0  0  0  0  0  0  0
  2  1  1  6
  3  2  1  0
  3  4  1  0
  4  5  2  0
  5  6  1  0
  7  6  1  0
  8  4  1  0
  8  7  2  0
  9  2  1  0
  9 10  2  0
 11  9  1  0
 12 11  1  0
 12 15  1  0
 12 13  1  1
 14 13  1  0
 15 17  1  0
 16 15  2  0
 17 21  1  0
 17 18  1  0
 19 18  1  0
 20 19  1  0
 20 21  1  0
 21 22  1  1
 22 23  2  0
 22 24  1  0
M  END
$$$$
