HCP.pdb
     RDKit          3D

 24 25  0  0  1  0  0  0  0  0999 V2000
    9.4685  -15.2887   20.5187 N   0  0  0  0  0  0  0  0  0  0  0  0
    8.6280  -15.7677   21.6135 C   0  0  1  0  0  0  0  0  0  0  0  0
    8.9313  -17.2392   21.7611 C   0  0  0  0  0  0  0  0  0  0  0  0
    8.2024  -17.9539   20.6770 C   0  0  0  0  0  0  0  0  0  0  0  0
    7.2303  -17.4619   19.8332 C   0  0  0  0  0  0  0  0  0  0  0  0
    6.8205  -18.4401   18.9836 N   0  0  0  0  0  0  0  0  0  0  0  0
    7.5345  -19.5333   19.2984 C   0  0  0  0  0  0  0  0  0  0  0  0
    8.3597  -19.2557   20.3043 N   0  0  0  0  0  0  0  0  0  0  0  0
    8.8718  -14.9694   22.8118 C   0  0  0  0  0  0  0  0  0  0  0  0
   10.0384  -14.8542   23.2677 O   0  0  0  0  0  0  0  0  0  0  0  0
    7.8513  -14.2761   23.5432 N   0  0  0  0  0  0  0  0  0  0  0  0
    7.9985  -13.9028   24.9213 C   0  0  1  0  0  0  0  0  0  0  0  0
    6.6090  -13.4261   25.3799 C   0  0  0  0  0  0  0  0  0  0  0  0
    6.7262  -13.1304   27.1649 S   0  0  0  0  0  0  0  0  0  0  0  0
    8.4567  -14.9261   25.8478 C   0  0  0  0  0  0  0  0  0  0  0  0
    8.1338  -16.1560   25.5751 O   0  0  0  0  0  0  0  0  0  0  0  0
    9.2132  -14.7897   27.0232 N   0  0  0  0  0  0  0  0  0  0  0  0
    9.1986  -13.6554   27.9702 C   0  0  0  0  0  0  0  0  0  0  0  0
   10.6359  -13.4653   28.3277 C   0  0  0  0  0  0  0  0  0  0  0  0
   11.2193  -14.8464   28.2789 C   0  0  0  0  0  0  0  0  0  0  0  0
   10.1607  -15.7107   27.5856 C   0  0  1  0  0  0  0  0  0  0  0  0
    9.5224  -16.5229   28.6766 C   0  0  0  0  0  0  0  0  0  0  0  0
   10.1512  -17.4164   29.2837 O   0  0  0  0  0  0  0  0  0  0  0  0
    8.2040  -16.3037   29.0473 O   0  0  0  0  0  0  0  0  0  0  0  0
  2  1  1  6
  3  2  1  0
  3  4  1  0
  4  5  2  0
  5  6  1  0
  7  6  1  0
  8  4  1  0
  8  7  2  0
  9  2  1  0
  9 10  2  0
 11  9  1  0
 12 11  1  0
 12 15  1  0
 12 13  1  1
 14 13  1  0
 15 17  1  0
 16 15  2  0
 17 21  1  0
 17 18  1  0
 19 18  1  0
 20 19  1  0
 20 21  1  0
 21 22  1  1
 22 23  2  0
 22 24  1  0
M  END
$$$$
