HCP.pdb
     RDKit          3D

 24 25  0  0  1  0  0  0  0  0999 V2000
    8.1188  -16.6319   21.2365 N   0  0  0  0  0  0  0  0  0  0  0  0
    9.4244  -16.1041   21.6255 C   0  0  1  0  0  0  0  0  0  0  0  0
    9.9815  -15.4202   20.4005 C   0  0  0  0  0  0  0  0  0  0  0  0
    8.8487  -14.7313   19.7225 C   0  0  0  0  0  0  0  0  0  0  0  0
    8.2411  -15.0583   18.5296 C   0  0  0  0  0  0  0  0  0  0  0  0
    7.2441  -14.1741   18.2637 N   0  0  0  0  0  0  0  0  0  0  0  0
    7.2329  -13.3031   19.2861 C   0  0  0  0  0  0  0  0  0  0  0  0
    8.1831  -13.6248   20.1598 N   0  0  0  0  0  0  0  0  0  0  0  0
    9.2823  -15.2425   22.7961 C   0  0  0  0  0  0  0  0  0  0  0  0
   10.2849  -14.6473   23.2680 O   0  0  0  0  0  0  0  0  0  0  0  0
    8.0447  -15.0072   23.4817 N   0  0  0  0  0  0  0  0  0  0  0  0
    7.9824  -14.5496   24.8407 C   0  0  1  0  0  0  0  0  0  0  0  0
    6.4900  -14.5450   25.2162 C   0  0  0  0  0  0  0  0  0  0  0  0
    6.3867  -13.9327   26.9197 S   0  0  0  0  0  0  0  0  0  0  0  0
    8.7007  -15.3224   25.8418 C   0  0  0  0  0  0  0  0  0  0  0  0
    8.9292  -16.5733   25.5693 O   0  0  0  0  0  0  0  0  0  0  0  0
    9.1989  -14.9179   27.0911 N   0  0  0  0  0  0  0  0  0  0  0  0
    8.7707  -13.7508   27.8900 C   0  0  0  0  0  0  0  0  0  0  0  0
   10.0475  -13.1939   28.4281 C   0  0  0  0  0  0  0  0  0  0  0  0
   10.9265  -14.3937   28.6226 C   0  0  0  0  0  0  0  0  0  0  0  0
   10.2213  -15.5380   27.8866 C   0  0  1  0  0  0  0  0  0  0  0  0
    9.6083  -16.3932   28.9591 C   0  0  0  0  0  0  0  0  0  0  0  0
   10.3112  -17.0562   29.7519 O   0  0  0  0  0  0  0  0  0  0  0  0
    8.2313  -16.4733   29.1040 O   0  0  0  0  0  0  0  0  0  0  0  0
  2  1  1  6
  3  2  1  0
  3  4  1  0
  4  5  2  0
  5  6  1  0
  7  6  1  0
  8  4  1  0
  8  7  2  0
  9  2  1  0
  9 10  2  0
 11  9  1  0
 12 11  1  0
 12 15  1  0
 12 13  1  1
 14 13  1  0
 15 17  1  0
 16 15  2  0
 17 21  1  0
 17 18  1  0
 19 18  1  0
 20 19  1  0
 20 21  1  0
 21 22  1  1
 22 23  2  0
 22 24  1  0
M  END
$$$$
