HCP.pdb
     RDKit          3D

 24 25  0  0  1  0  0  0  0  0999 V2000
   10.6476  -17.0657   20.4467 N   0  0  0  0  0  0  0  0  0  0  0  0
   10.7195  -15.7216   21.0146 C   0  0  1  0  0  0  0  0  0  0  0  0
   10.7385  -14.7718   19.8414 C   0  0  0  0  0  0  0  0  0  0  0  0
   12.0201  -14.9890   19.1148 C   0  0  0  0  0  0  0  0  0  0  0  0
   13.2822  -14.5580   19.4619 C   0  0  0  0  0  0  0  0  0  0  0  0
   14.1809  -14.9675   18.5286 N   0  0  0  0  0  0  0  0  0  0  0  0
   13.4804  -15.6489   17.6072 C   0  0  0  0  0  0  0  0  0  0  0  0
   12.1940  -15.6680   17.9457 N   0  0  0  0  0  0  0  0  0  0  0  0
    9.6156  -15.5182   21.9489 C   0  0  0  0  0  0  0  0  0  0  0  0
    8.6643  -14.7531   21.6459 O   0  0  0  0  0  0  0  0  0  0  0  0
    9.5198  -16.1434   23.2362 N   0  0  0  0  0  0  0  0  0  0  0  0
    8.4930  -15.8183   24.1850 C   0  0  1  0  0  0  0  0  0  0  0  0
    7.5483  -17.0328   24.2166 C   0  0  0  0  0  0  0  0  0  0  0  0
    6.5884  -16.9021   25.7493 S   0  0  0  0  0  0  0  0  0  0  0  0
    8.9076  -15.5292   25.5487 C   0  0  0  0  0  0  0  0  0  0  0  0
    9.9594  -16.1536   25.9905 O   0  0  0  0  0  0  0  0  0  0  0  0
    8.3334  -14.6580   26.4889 N   0  0  0  0  0  0  0  0  0  0  0  0
    6.9425  -14.1596   26.5143 C   0  0  0  0  0  0  0  0  0  0  0  0
    7.0808  -12.7234   26.8991 C   0  0  0  0  0  0  0  0  0  0  0  0
    8.2740  -12.6928   27.8076 C   0  0  0  0  0  0  0  0  0  0  0  0
    8.9472  -14.0594   27.6410 C   0  0  1  0  0  0  0  0  0  0  0  0
    8.6052  -14.8337   28.8823 C   0  0  0  0  0  0  0  0  0  0  0  0
    7.7509  -15.7461   28.8725 O   0  0  0  0  0  0  0  0  0  0  0  0
    9.2330  -14.5578   30.0878 O   0  0  0  0  0  0  0  0  0  0  0  0
  2  1  1  6
  3  2  1  0
  3  4  1  0
  4  5  2  0
  5  6  1  0
  7  6  1  0
  8  4  1  0
  8  7  2  0
  9  2  1  0
  9 10  2  0
 11  9  1  0
 12 11  1  0
 12 15  1  0
 12 13  1  1
 14 13  1  0
 15 17  1  0
 16 15  2  0
 17 21  1  0
 17 18  1  0
 19 18  1  0
 20 19  1  0
 20 21  1  0
 21 22  1  1
 22 23  2  0
 22 24  1  0
M  END
$$$$
