HCP.pdb
     RDKit          3D

 24 25  0  0  1  0  0  0  0  0999 V2000
    8.1044  -17.2187   19.4172 N   0  0  0  0  0  0  0  0  0  0  0  0
    8.8881  -17.0773   20.6420 C   0  0  1  0  0  0  0  0  0  0  0  0
   10.2009  -16.4565   20.2298 C   0  0  0  0  0  0  0  0  0  0  0  0
   11.0037  -17.5176   19.5612 C   0  0  0  0  0  0  0  0  0  0  0  0
   11.5356  -17.5126   18.2900 C   0  0  0  0  0  0  0  0  0  0  0  0
   12.2017  -18.6756   18.0656 N   0  0  0  0  0  0  0  0  0  0  0  0
   12.0838  -19.3985   19.1915 C   0  0  0  0  0  0  0  0  0  0  0  0
   11.3731  -18.7195   20.0879 N   0  0  0  0  0  0  0  0  0  0  0  0
    8.1319  -16.3113   21.6289 C   0  0  0  0  0  0  0  0  0  0  0  0
    7.6074  -15.2134   21.3098 O   0  0  0  0  0  0  0  0  0  0  0  0
    7.9275  -16.7219   22.9879 N   0  0  0  0  0  0  0  0  0  0  0  0
    7.2435  -15.9082   23.9525 C   0  0  1  0  0  0  0  0  0  0  0  0
    6.2864  -16.8540   24.6992 C   0  0  0  0  0  0  0  0  0  0  0  0
    7.3207  -17.9300   25.7289 S   0  0  0  0  0  0  0  0  0  0  0  0
    8.0552  -15.2117   24.9381 C   0  0  0  0  0  0  0  0  0  0  0  0
    9.3363  -15.4331   24.9101 O   0  0  0  0  0  0  0  0  0  0  0  0
    7.6606  -14.3135   25.9432 N   0  0  0  0  0  0  0  0  0  0  0  0
    6.2844  -14.0330   26.4027 C   0  0  0  0  0  0  0  0  0  0  0  0
    6.2638  -12.5526   26.5975 C   0  0  0  0  0  0  0  0  0  0  0  0
    7.6576  -12.2136   27.0363 C   0  0  0  0  0  0  0  0  0  0  0  0
    8.4877  -13.4721   26.7620 C   0  0  1  0  0  0  0  0  0  0  0  0
    8.7186  -14.1062   28.1044 C   0  0  0  0  0  0  0  0  0  0  0  0
    9.4745  -13.5877   28.9541 O   0  0  0  0  0  0  0  0  0  0  0  0
    8.0940  -15.2967   28.4451 O   0  0  0  0  0  0  0  0  0  0  0  0
  2  1  1  6
  3  2  1  0
  3  4  1  0
  4  5  2  0
  5  6  1  0
  7  6  1  0
  8  4  1  0
  8  7  2  0
  9  2  1  0
  9 10  2  0
 11  9  1  0
 12 11  1  0
 12 15  1  0
 12 13  1  1
 14 13  1  0
 15 17  1  0
 16 15  2  0
 17 21  1  0
 17 18  1  0
 19 18  1  0
 20 19  1  0
 20 21  1  0
 21 22  1  1
 22 23  2  0
 22 24  1  0
M  END
$$$$
