EVD.pdb
     RDKit          3D

 25 24  0  0  1  0  0  0  0  0999 V2000
   18.5811  -13.1968  -17.6137 N   0  0  0  0  0  0  0  0  0  0  0  0
   19.4936  -12.1083  -17.8741 C   0  0  1  0  0  0  0  0  0  0  0  0
   18.8955  -11.1051  -18.8443 C   0  0  0  0  0  0  0  0  0  0  0  0
   18.5926  -11.7591  -20.1781 C   0  0  0  0  0  0  0  0  0  0  0  0
   17.9883  -10.7674  -21.0776 C   0  0  0  0  0  0  0  0  0  0  0  0
   17.6720   -9.6104  -20.6886 O   0  0  0  0  0  0  0  0  0  0  0  0
   19.8841  -11.3651  -16.6510 C   0  0  0  0  0  0  0  0  0  0  0  0
   19.0982  -11.2679  -15.6558 O   0  0  0  0  0  0  0  0  0  0  0  0
   17.7472  -11.0875  -22.3967 O   0  0  0  0  0  0  0  0  0  0  0  0
   23.8838  -10.3613  -15.9884 C   0  0  0  0  0  0  0  0  0  0  0  0
   22.8866  -10.5493  -14.8610 C   0  0  1  0  0  0  0  0  0  0  0  0
   23.2536   -9.6920  -13.6512 C   0  0  0  0  0  0  0  0  0  0  0  0
   21.5447  -10.0782  -15.3447 C   0  0  2  0  0  0  0  0  0  0  0  0
   21.1581  -10.7473  -16.5814 N   0  0  0  0  0  0  0  0  0  0  0  0
   21.6737   -8.6149  -15.6701 C   0  0  0  0  0  0  0  0  0  0  0  0
   22.0628   -8.1979  -16.7777 O   0  0  0  0  0  0  0  0  0  0  0  0
   21.3315   -7.7118  -14.6579 N   0  0  0  0  0  0  0  0  0  0  0  0
   21.3804   -6.2431  -14.8408 C   0  0  1  0  0  0  0  0  0  0  0  0
   19.9860   -5.8586  -15.2081 C   0  0  0  0  0  0  0  0  0  0  0  0
   19.7182   -4.4436  -15.3886 C   0  0  0  0  0  0  0  0  0  0  0  0
   20.7117   -3.6707  -15.4378 O   0  0  0  0  0  0  0  0  0  0  0  0
   21.8671   -5.6955  -13.5653 C   0  0  0  0  0  0  0  0  0  0  0  0
   22.7254   -4.6227  -13.5515 O   0  0  0  0  0  0  0  0  0  0  0  0
   18.4612   -3.8978  -15.5077 O   0  0  0  0  0  0  0  0  0  0  0  0
   21.5100   -6.1963  -12.4763 O   0  0  0  0  0  0  0  0  0  0  0  0
  2  1  1  1
  2  7  1  0
  3  2  1  0
  4  3  1  0
  5  4  1  0
  6  5  2  0
  7  8  2  0
  9  5  1  0
 11 10  1  6
 11 12  1  0
 13 11  1  0
 14  7  1  0
 13 14  1  6
 15 17  1  0
 15 13  1  0
 16 15  2  0
 18 22  1  0
 18 19  1  1
 18 17  1  0
 19 20  1  0
 20 21  2  0
 20 24  1  0
 22 23  1  0
 25 22  2  0
M  END
$$$$
