EVD.pdb
     RDKit          3D

 25 24  0  0  1  0  0  0  0  0999 V2000
   21.0228   -9.7068  -17.4658 N   0  0  0  0  0  0  0  0  0  0  0  0
   20.7366   -8.7227  -16.4484 C   0  0  1  0  0  0  0  0  0  0  0  0
   22.0075   -8.2420  -15.7707 C   0  0  0  0  0  0  0  0  0  0  0  0
   22.5948   -9.3291  -14.8923 C   0  0  0  0  0  0  0  0  0  0  0  0
   21.8304   -9.4057  -13.6402 C   0  0  0  0  0  0  0  0  0  0  0  0
   21.0671  -10.3741  -13.3759 O   0  0  0  0  0  0  0  0  0  0  0  0
   20.0321   -7.5265  -16.9714 C   0  0  0  0  0  0  0  0  0  0  0  0
   20.2714   -7.0730  -18.1352 O   0  0  0  0  0  0  0  0  0  0  0  0
   21.9320   -8.3971  -12.7058 O   0  0  0  0  0  0  0  0  0  0  0  0
   16.2020   -4.5802  -16.9434 C   0  0  0  0  0  0  0  0  0  0  0  0
   16.8614   -5.8773  -16.5149 C   0  0  1  0  0  0  0  0  0  0  0  0
   16.3948   -7.0457  -17.3811 C   0  0  0  0  0  0  0  0  0  0  0  0
   18.3423   -5.7367  -16.7243 C   0  0  2  0  0  0  0  0  0  0  0  0
   19.0705   -6.8689  -16.1636 N   0  0  0  0  0  0  0  0  0  0  0  0
   18.7892   -4.5186  -15.9625 C   0  0  0  0  0  0  0  0  0  0  0  0
   19.0328   -4.5339  -14.7409 O   0  0  0  0  0  0  0  0  0  0  0  0
   18.9267   -3.3336  -16.6935 N   0  0  0  0  0  0  0  0  0  0  0  0
   19.3864   -2.0635  -16.0865 C   0  0  1  0  0  0  0  0  0  0  0  0
   20.6033   -1.6884  -16.8647 C   0  0  0  0  0  0  0  0  0  0  0  0
   21.2065   -0.4025  -16.5657 C   0  0  0  0  0  0  0  0  0  0  0  0
   20.6918    0.2731  -15.6354 O   0  0  0  0  0  0  0  0  0  0  0  0
   18.2552   -1.1305  -16.2021 C   0  0  0  0  0  0  0  0  0  0  0  0
   17.8690   -0.3693  -15.1255 O   0  0  0  0  0  0  0  0  0  0  0  0
   22.2932    0.1207  -17.2271 O   0  0  0  0  0  0  0  0  0  0  0  0
   17.6277   -1.0161  -17.2780 O   0  0  0  0  0  0  0  0  0  0  0  0
  2  1  1  6
  2  7  1  0
  3  2  1  0
  4  3  1  0
  5  4  1  0
  6  5  2  0
  7  8  2  0
  9  5  1  0
 11 10  1  6
 11 12  1  0
 13 11  1  0
 14  7  1  0
 13 14  1  1
 15 17  1  0
 15 13  1  0
 16 15  2  0
 18 22  1  0
 18 19  1  6
 18 17  1  0
 19 20  1  0
 20 21  2  0
 20 24  1  0
 22 23  1  0
 25 22  2  0
M  END
$$$$
