EVD.pdb
     RDKit          3D

 25 24  0  0  1  0  0  0  0  0999 V2000
   17.5553  -13.1416  -15.7737 N   0  0  0  0  0  0  0  0  0  0  0  0
   17.3162  -11.7260  -15.9294 C   0  0  1  0  0  0  0  0  0  0  0  0
   16.1332  -11.2697  -15.0941 C   0  0  0  0  0  0  0  0  0  0  0  0
   14.8491  -11.9118  -15.5811 C   0  0  0  0  0  0  0  0  0  0  0  0
   13.7382  -11.4880  -14.7186 C   0  0  0  0  0  0  0  0  0  0  0  0
   13.4289  -12.1091  -13.6656 O   0  0  0  0  0  0  0  0  0  0  0  0
   18.4797  -10.8892  -15.5464 C   0  0  0  0  0  0  0  0  0  0  0  0
   19.2571  -11.2295  -14.5991 O   0  0  0  0  0  0  0  0  0  0  0  0
   12.9915  -10.3773  -15.0493 O   0  0  0  0  0  0  0  0  0  0  0  0
   21.3795  -10.3961  -17.3565 C   0  0  0  0  0  0  0  0  0  0  0  0
   20.8978   -8.9728  -17.1496 C   0  0  1  0  0  0  0  0  0  0  0  0
   20.0915   -8.4831  -18.3510 C   0  0  0  0  0  0  0  0  0  0  0  0
   19.9742   -8.9627  -15.9649 C   0  0  2  0  0  0  0  0  0  0  0  0
   18.7380   -9.6834  -16.2457 N   0  0  0  0  0  0  0  0  0  0  0  0
   19.5883   -7.5311  -15.7093 C   0  0  0  0  0  0  0  0  0  0  0  0
   18.5214   -7.0329  -16.1163 O   0  0  0  0  0  0  0  0  0  0  0  0
   20.4939   -6.7554  -14.9774 N   0  0  0  0  0  0  0  0  0  0  0  0
   20.2849   -5.3140  -14.7100 C   0  0  1  0  0  0  0  0  0  0  0  0
   20.9401   -5.0727  -13.3911 C   0  0  0  0  0  0  0  0  0  0  0  0
   22.3744   -5.2834  -13.3192 C   0  0  0  0  0  0  0  0  0  0  0  0
   22.9378   -5.7654  -14.3374 O   0  0  0  0  0  0  0  0  0  0  0  0
   20.8858   -4.6030  -15.8488 C   0  0  0  0  0  0  0  0  0  0  0  0
   21.5748   -5.2950  -16.8153 O   0  0  0  0  0  0  0  0  0  0  0  0
   23.1501   -4.9938  -12.2207 O   0  0  0  0  0  0  0  0  0  0  0  0
   20.7811   -3.3612  -15.9550 O   0  0  0  0  0  0  0  0  0  0  0  0
  2  1  1  1
  2  7  1  0
  3  2  1  0
  4  3  1  0
  5  4  1  0
  6  5  2  0
  7  8  2  0
  9  5  1  0
 11 10  1  6
 11 12  1  0
 13 11  1  0
 14  7  1  0
 13 14  1  6
 15 17  1  0
 15 13  1  0
 16 15  2  0
 18 22  1  0
 18 19  1  1
 18 17  1  0
 19 20  1  0
 20 21  2  0
 20 24  1  0
 22 23  1  0
 25 22  2  0
M  END
$$$$
