EVD.pdb
     RDKit          3D

 25 24  0  0  1  0  0  0  0  0999 V2000
   19.6823  -13.7819  -17.4429 N   0  0  0  0  0  0  0  0  0  0  0  0
   20.2116  -12.5205  -17.9055 C   0  0  1  0  0  0  0  0  0  0  0  0
   19.3570  -11.9359  -19.0161 C   0  0  0  0  0  0  0  0  0  0  0  0
   19.3106  -12.8698  -20.2095 C   0  0  0  0  0  0  0  0  0  0  0  0
   18.5306  -12.2430  -21.2849 C   0  0  0  0  0  0  0  0  0  0  0  0
   18.0233  -11.0946  -21.1669 O   0  0  0  0  0  0  0  0  0  0  0  0
   20.3097  -11.4979  -16.8353 C   0  0  0  0  0  0  0  0  0  0  0  0
   19.4522  -11.4355  -15.8982 O   0  0  0  0  0  0  0  0  0  0  0  0
   18.3304  -12.9122  -22.4735 O   0  0  0  0  0  0  0  0  0  0  0  0
   22.8584   -8.4530  -14.1197 C   0  0  0  0  0  0  0  0  0  0  0  0
   22.8466   -9.5260  -15.1918 C   0  0  1  0  0  0  0  0  0  0  0  0
   23.1395  -10.9025  -14.5978 C   0  0  0  0  0  0  0  0  0  0  0  0
   21.4640   -9.5830  -15.7765 C   0  0  2  0  0  0  0  0  0  0  0  0
   21.3786  -10.5667  -16.8497 N   0  0  0  0  0  0  0  0  0  0  0  0
   21.1851   -8.2422  -16.3996 C   0  0  0  0  0  0  0  0  0  0  0  0
   21.2100   -8.0473  -17.6298 O   0  0  0  0  0  0  0  0  0  0  0  0
   20.8875   -7.1910  -15.5256 N   0  0  0  0  0  0  0  0  0  0  0  0
   20.4415   -5.8587  -15.9934 C   0  0  1  0  0  0  0  0  0  0  0  0
   19.1840   -6.1231  -16.7523 C   0  0  0  0  0  0  0  0  0  0  0  0
   18.4315   -4.9673  -17.2045 C   0  0  0  0  0  0  0  0  0  0  0  0
   19.0281   -3.8580  -17.2116 O   0  0  0  0  0  0  0  0  0  0  0  0
   20.2828   -5.0400  -14.7817 C   0  0  0  0  0  0  0  0  0  0  0  0
   20.7401   -3.7447  -14.7531 O   0  0  0  0  0  0  0  0  0  0  0  0
   17.1211   -5.0054  -17.6213 O   0  0  0  0  0  0  0  0  0  0  0  0
   19.7322   -5.5080  -13.7609 O   0  0  0  0  0  0  0  0  0  0  0  0
  2  1  1  1
  2  7  1  0
  3  2  1  0
  4  3  1  0
  5  4  1  0
  6  5  2  0
  7  8  2  0
  9  5  1  0
 11 10  1  1
 11 12  1  0
 13 11  1  0
 14  7  1  0
 13 14  1  6
 15 17  1  0
 15 13  1  0
 16 15  2  0
 18 22  1  0
 18 19  1  1
 18 17  1  0
 19 20  1  0
 20 21  2  0
 20 24  1  0
 22 23  1  0
 25 22  2  0
M  END
$$$$
