EVD.pdb
     RDKit          3D

 25 24  0  0  1  0  0  0  0  0999 V2000
   13.6008  -12.0451  -11.5703 N   0  0  0  0  0  0  0  0  0  0  0  0
   14.8461  -11.3168  -11.6345 C   0  0  1  0  0  0  0  0  0  0  0  0
   15.4624  -11.3959  -13.0198 C   0  0  0  0  0  0  0  0  0  0  0  0
   15.7961  -12.8300  -13.3808 C   0  0  0  0  0  0  0  0  0  0  0  0
   16.4697  -12.8568  -14.6859 C   0  0  0  0  0  0  0  0  0  0  0  0
   15.8307  -12.8866  -15.7726 O   0  0  0  0  0  0  0  0  0  0  0  0
   14.7034   -9.8802  -11.2929 C   0  0  0  0  0  0  0  0  0  0  0  0
   13.7617   -9.1750  -11.7759 O   0  0  0  0  0  0  0  0  0  0  0  0
   17.8467  -12.8509  -14.7529 O   0  0  0  0  0  0  0  0  0  0  0  0
   15.3847   -6.2170   -8.2482 C   0  0  0  0  0  0  0  0  0  0  0  0
   15.3902   -7.7038   -8.5485 C   0  0  1  0  0  0  0  0  0  0  0  0
   14.1064   -8.3705   -8.0577 C   0  0  0  0  0  0  0  0  0  0  0  0
   15.4342   -7.8761  -10.0402 C   0  0  2  0  0  0  0  0  0  0  0  0
   15.6318   -9.2726  -10.4105 N   0  0  0  0  0  0  0  0  0  0  0  0
   16.6364   -7.1240  -10.5431 C   0  0  0  0  0  0  0  0  0  0  0  0
   17.7826   -7.6117  -10.5623 O   0  0  0  0  0  0  0  0  0  0  0  0
   16.4175   -5.8207  -11.0024 N   0  0  0  0  0  0  0  0  0  0  0  0
   17.4074   -5.0784  -11.8159 C   0  0  1  0  0  0  0  0  0  0  0  0
   17.6123   -5.9224  -13.0295 C   0  0  0  0  0  0  0  0  0  0  0  0
   18.4709   -5.3849  -14.0690 C   0  0  0  0  0  0  0  0  0  0  0  0
   18.9311   -4.2255  -13.8940 O   0  0  0  0  0  0  0  0  0  0  0  0
   16.8127   -3.7562  -12.0641 C   0  0  0  0  0  0  0  0  0  0  0  0
   17.5229   -2.6121  -11.7914 O   0  0  0  0  0  0  0  0  0  0  0  0
   18.8105   -6.0539  -15.2220 O   0  0  0  0  0  0  0  0  0  0  0  0
   15.6546   -3.6519  -12.5248 O   0  0  0  0  0  0  0  0  0  0  0  0
  2  1  1  6
  2  7  1  0
  3  2  1  0
  4  3  1  0
  5  4  1  0
  6  5  2  0
  7  8  2  0
  9  5  1  0
 11 10  1  6
 11 12  1  0
 13 11  1  0
 14  7  1  0
 13 14  1  1
 15 17  1  0
 15 13  1  0
 16 15  2  0
 18 22  1  0
 18 19  1  6
 18 17  1  0
 19 20  1  0
 20 21  2  0
 20 24  1  0
 22 23  1  0
 25 22  2  0
M  END
$$$$
