EVD.pdb
     RDKit          3D

 25 24  0  0  1  0  0  0  0  0999 V2000
   14.7754  -11.5189  -12.2704 N   0  0  0  0  0  0  0  0  0  0  0  0
   15.6693  -10.4371  -11.9302 C   0  0  1  0  0  0  0  0  0  0  0  0
   16.3425   -9.8664  -13.1658 C   0  0  0  0  0  0  0  0  0  0  0  0
   17.2183  -10.9086  -13.8330 C   0  0  0  0  0  0  0  0  0  0  0  0
   17.8608  -10.3171  -15.0141 C   0  0  0  0  0  0  0  0  0  0  0  0
   17.5454  -10.6492  -16.1890 O   0  0  0  0  0  0  0  0  0  0  0  0
   14.9935   -9.3148  -11.2340 C   0  0  0  0  0  0  0  0  0  0  0  0
   13.8396   -8.9143  -11.5885 O   0  0  0  0  0  0  0  0  0  0  0  0
   18.8460   -9.3649  -14.8606 O   0  0  0  0  0  0  0  0  0  0  0  0
   14.2317   -6.5767   -7.3722 C   0  0  0  0  0  0  0  0  0  0  0  0
   14.7787   -7.8360   -8.0170 C   0  0  1  0  0  0  0  0  0  0  0  0
   13.7909   -8.9942   -7.8906 C   0  0  0  0  0  0  0  0  0  0  0  0
   14.9571   -7.5666   -9.4841 C   0  0  2  0  0  0  0  0  0  0  0  0
   15.6402   -8.6696  -10.1500 N   0  0  0  0  0  0  0  0  0  0  0  0
   15.8537   -6.3652   -9.6135 C   0  0  0  0  0  0  0  0  0  0  0  0
   17.0929   -6.4284   -9.5029 O   0  0  0  0  0  0  0  0  0  0  0  0
   15.2309   -5.1390   -9.8704 N   0  0  0  0  0  0  0  0  0  0  0  0
   15.9867   -3.8944  -10.1392 C   0  0  1  0  0  0  0  0  0  0  0  0
   16.2449   -3.9157  -11.6089 C   0  0  0  0  0  0  0  0  0  0  0  0
   16.9187   -2.7623  -12.1767 C   0  0  0  0  0  0  0  0  0  0  0  0
   17.2308   -1.8312  -11.3879 O   0  0  0  0  0  0  0  0  0  0  0  0
   15.1306   -2.7949   -9.6682 C   0  0  0  0  0  0  0  0  0  0  0  0
   15.6867   -1.6794   -9.0902 O   0  0  0  0  0  0  0  0  0  0  0  0
   17.2347   -2.6222  -13.5081 O   0  0  0  0  0  0  0  0  0  0  0  0
   13.8869   -2.8577   -9.7846 O   0  0  0  0  0  0  0  0  0  0  0  0
  2  1  1  6
  2  7  1  0
  3  2  1  0
  4  3  1  0
  5  4  1  0
  6  5  2  0
  7  8  2  0
  9  5  1  0
 11 10  1  1
 11 12  1  0
 13 11  1  0
 14  7  1  0
 13 14  1  6
 15 17  1  0
 15 13  1  0
 16 15  2  0
 18 22  1  0
 18 19  1  6
 18 17  1  0
 19 20  1  0
 20 21  2  0
 20 24  1  0
 22 23  1  0
 25 22  2  0
M  END
$$$$
