EVD.pdb
     RDKit          3D

 25 24  0  0  1  0  0  0  0  0999 V2000
   15.0724  -11.9801  -10.4479 N   0  0  0  0  0  0  0  0  0  0  0  0
   14.2038  -11.3568  -11.4187 C   0  0  1  0  0  0  0  0  0  0  0  0
   12.7432  -11.6432  -11.1187 C   0  0  0  0  0  0  0  0  0  0  0  0
   12.5328  -13.1139  -10.8166 C   0  0  0  0  0  0  0  0  0  0  0  0
   12.2805  -13.8348  -12.0714 C   0  0  0  0  0  0  0  0  0  0  0  0
   12.0803  -13.2361  -13.1630 O   0  0  0  0  0  0  0  0  0  0  0  0
   14.3628   -9.8834  -11.4872 C   0  0  0  0  0  0  0  0  0  0  0  0
   13.7150   -9.1858  -12.3305 O   0  0  0  0  0  0  0  0  0  0  0  0
   12.2554  -15.2131  -12.0833 O   0  0  0  0  0  0  0  0  0  0  0  0
   15.7367   -7.7378   -8.3195 C   0  0  0  0  0  0  0  0  0  0  0  0
   15.0766   -7.0515   -9.5002 C   0  0  1  0  0  0  0  0  0  0  0  0
   15.5817   -5.6186   -9.6584 C   0  0  0  0  0  0  0  0  0  0  0  0
   15.4642   -7.7959  -10.7462 C   0  0  2  0  0  0  0  0  0  0  0  0
   15.2534   -9.2311  -10.5977 N   0  0  0  0  0  0  0  0  0  0  0  0
   16.9422   -7.5971  -10.9458 C   0  0  0  0  0  0  0  0  0  0  0  0
   17.8038   -8.2839  -10.3645 O   0  0  0  0  0  0  0  0  0  0  0  0
   17.3278   -6.5858  -11.8324 N   0  0  0  0  0  0  0  0  0  0  0  0
   18.7208   -6.4213  -12.3071 C   0  0  1  0  0  0  0  0  0  0  0  0
   19.0746   -7.7386  -12.9128 C   0  0  0  0  0  0  0  0  0  0  0  0
   20.3481   -7.8257  -13.6036 C   0  0  0  0  0  0  0  0  0  0  0  0
   21.1029   -6.8188  -13.5499 O   0  0  0  0  0  0  0  0  0  0  0  0
   18.6948   -5.2869  -13.2431 C   0  0  0  0  0  0  0  0  0  0  0  0
   19.7027   -4.3532  -13.2322 O   0  0  0  0  0  0  0  0  0  0  0  0
   20.7789   -8.9266  -14.3069 O   0  0  0  0  0  0  0  0  0  0  0  0
   17.7576   -5.1534  -14.0606 O   0  0  0  0  0  0  0  0  0  0  0  0
  2  1  1  1
  2  7  1  0
  3  2  1  0
  4  3  1  0
  5  4  1  0
  6  5  2  0
  7  8  2  0
  9  5  1  0
 11 10  1  1
 11 12  1  0
 13 11  1  0
 14  7  1  0
 13 14  1  1
 15 17  1  0
 15 13  1  0
 16 15  2  0
 18 22  1  0
 18 19  1  6
 18 17  1  0
 19 20  1  0
 20 21  2  0
 20 24  1  0
 22 23  1  0
 25 22  2  0
M  END
$$$$
