EVD.pdb
     RDKit          3D

 25 24  0  0  1  0  0  0  0  0999 V2000
   15.4926  -12.8090  -16.4713 N   0  0  0  0  0  0  0  0  0  0  0  0
   16.7478  -12.1383  -16.2263 C   0  0  1  0  0  0  0  0  0  0  0  0
   17.9252  -12.9900  -16.6664 C   0  0  0  0  0  0  0  0  0  0  0  0
   18.0410  -14.2348  -15.8087 C   0  0  0  0  0  0  0  0  0  0  0  0
   19.2185  -15.0054  -16.2301 C   0  0  0  0  0  0  0  0  0  0  0  0
   19.1364  -16.2038  -16.6139 O   0  0  0  0  0  0  0  0  0  0  0  0
   16.8600  -10.8322  -16.9207 C   0  0  0  0  0  0  0  0  0  0  0  0
   16.4891  -10.6904  -18.1290 O   0  0  0  0  0  0  0  0  0  0  0  0
   20.4677  -14.4226  -16.2139 O   0  0  0  0  0  0  0  0  0  0  0  0
   15.9840   -6.4188  -17.2977 C   0  0  0  0  0  0  0  0  0  0  0  0
   15.9292   -7.9023  -16.9862 C   0  0  1  0  0  0  0  0  0  0  0  0
   15.2641   -8.6798  -18.1203 C   0  0  0  0  0  0  0  0  0  0  0  0
   17.3401   -8.4058  -16.8744 C   0  0  2  0  0  0  0  0  0  0  0  0
   17.3908   -9.7133  -16.2307 N   0  0  0  0  0  0  0  0  0  0  0  0
   18.0854   -7.4558  -15.9766 C   0  0  0  0  0  0  0  0  0  0  0  0
   17.7342   -7.2114  -14.8066 O   0  0  0  0  0  0  0  0  0  0  0  0
   19.2195   -6.8385  -16.5153 N   0  0  0  0  0  0  0  0  0  0  0  0
   20.1903   -6.0820  -15.6919 C   0  0  1  0  0  0  0  0  0  0  0  0
   21.5143   -6.6953  -16.0052 C   0  0  0  0  0  0  0  0  0  0  0  0
   22.6802   -6.1055  -15.3729 C   0  0  0  0  0  0  0  0  0  0  0  0
   22.4917   -5.0948  -14.6452 O   0  0  0  0  0  0  0  0  0  0  0  0
   20.0416   -4.6734  -16.0883 C   0  0  0  0  0  0  0  0  0  0  0  0
   20.1339   -3.6736  -15.1504 O   0  0  0  0  0  0  0  0  0  0  0  0
   23.9652   -6.5748  -15.5166 O   0  0  0  0  0  0  0  0  0  0  0  0
   19.8282   -4.3636  -17.2812 O   0  0  0  0  0  0  0  0  0  0  0  0
  2  1  1  6
  2  7  1  0
  3  2  1  0
  4  3  1  0
  5  4  1  0
  6  5  2  0
  7  8  2  0
  9  5  1  0
 11 10  1  6
 11 12  1  0
 13 11  1  0
 14  7  1  0
 13 14  1  1
 15 17  1  0
 15 13  1  0
 16 15  2  0
 18 22  1  0
 18 19  1  6
 18 17  1  0
 19 20  1  0
 20 21  2  0
 20 24  1  0
 22 23  1  0
 25 22  2  0
M  END
$$$$
