EVD.pdb
     RDKit          3D

 25 24  0  0  1  0  0  0  0  0999 V2000
   15.1102  -16.1127  -15.3338 N   0  0  0  0  0  0  0  0  0  0  0  0
   16.0596  -15.1078  -14.9165 C   0  0  1  0  0  0  0  0  0  0  0  0
   17.4852  -15.5343  -15.2185 C   0  0  0  0  0  0  0  0  0  0  0  0
   17.6609  -17.0239  -14.9977 C   0  0  0  0  0  0  0  0  0  0  0  0
   19.0708  -17.3811  -15.2037 C   0  0  0  0  0  0  0  0  0  0  0  0
   19.4860  -17.8887  -16.2808 O   0  0  0  0  0  0  0  0  0  0  0  0
   15.8429  -13.7912  -15.5648 C   0  0  0  0  0  0  0  0  0  0  0  0
   15.7295  -13.6852  -16.8271 O   0  0  0  0  0  0  0  0  0  0  0  0
   19.9918  -17.1654  -14.2009 O   0  0  0  0  0  0  0  0  0  0  0  0
   13.1329  -11.9519  -15.8524 C   0  0  0  0  0  0  0  0  0  0  0  0
   14.0370  -10.9340  -15.1836 C   0  0  1  0  0  0  0  0  0  0  0  0
   13.8204  -10.9131  -13.6717 C   0  0  0  0  0  0  0  0  0  0  0  0
   15.4606  -11.3514  -15.4195 C   0  0  2  0  0  0  0  0  0  0  0  0
   15.7594  -12.6215  -14.7683 N   0  0  0  0  0  0  0  0  0  0  0  0
   16.3436  -10.3189  -14.7729 C   0  0  0  0  0  0  0  0  0  0  0  0
   16.8732  -10.4818  -13.6571 O   0  0  0  0  0  0  0  0  0  0  0  0
   16.5568   -9.1352  -15.4878 N   0  0  0  0  0  0  0  0  0  0  0  0
   17.3936   -8.0263  -14.9752 C   0  0  1  0  0  0  0  0  0  0  0  0
   18.0776   -7.4763  -16.1822 C   0  0  0  0  0  0  0  0  0  0  0  0
   18.9014   -6.2964  -15.9928 C   0  0  0  0  0  0  0  0  0  0  0  0
   18.9873   -5.8351  -14.8238 O   0  0  0  0  0  0  0  0  0  0  0  0
   16.4677   -7.1021  -14.3028 C   0  0  0  0  0  0  0  0  0  0  0  0
   16.8108   -6.5232  -13.1050 O   0  0  0  0  0  0  0  0  0  0  0  0
   19.5870   -5.6555  -16.9985 O   0  0  0  0  0  0  0  0  0  0  0  0
   15.3564   -6.8298  -14.8080 O   0  0  0  0  0  0  0  0  0  0  0  0
  2  1  1  6
  2  7  1  0
  3  2  1  0
  4  3  1  0
  5  4  1  0
  6  5  2  0
  7  8  2  0
  9  5  1  0
 11 10  1  6
 11 12  1  0
 13 11  1  0
 14  7  1  0
 13 14  1  1
 15 17  1  0
 15 13  1  0
 16 15  2  0
 18 22  1  0
 18 19  1  6
 18 17  1  0
 19 20  1  0
 20 21  2  0
 20 24  1  0
 22 23  1  0
 25 22  2  0
M  END
$$$$
