EVD.pdb
     RDKit          3D

 25 24  0  0  1  0  0  0  0  0999 V2000
   12.7184  -12.6468  -10.6606 N   0  0  0  0  0  0  0  0  0  0  0  0
   14.0310  -12.0774  -10.8563 C   0  0  1  0  0  0  0  0  0  0  0  0
   14.6779  -12.6022  -12.1258 C   0  0  0  0  0  0  0  0  0  0  0  0
   14.8129  -14.1115  -12.0784 C   0  0  0  0  0  0  0  0  0  0  0  0
   15.4600  -14.5788  -13.3116 C   0  0  0  0  0  0  0  0  0  0  0  0
   16.7125  -14.5744  -13.4577 O   0  0  0  0  0  0  0  0  0  0  0  0
   14.0209  -10.5965  -10.9421 C   0  0  0  0  0  0  0  0  0  0  0  0
   12.9628   -9.9576  -11.2417 O   0  0  0  0  0  0  0  0  0  0  0  0
   14.6948  -15.0419  -14.3607 O   0  0  0  0  0  0  0  0  0  0  0  0
   12.9579   -8.5747   -9.5761 C   0  0  0  0  0  0  0  0  0  0  0  0
   14.3282   -7.9308   -9.4840 C   0  0  1  0  0  0  0  0  0  0  0  0
   15.0562   -8.3626   -8.2125 C   0  0  0  0  0  0  0  0  0  0  0  0
   15.1474   -8.4138  -10.6469 C   0  0  2  0  0  0  0  0  0  0  0  0
   15.2112   -9.8701  -10.6865 N   0  0  0  0  0  0  0  0  0  0  0  0
   16.5556   -7.9276  -10.4361 C   0  0  0  0  0  0  0  0  0  0  0  0
   17.4977   -8.6861  -10.1376 O   0  0  0  0  0  0  0  0  0  0  0  0
   16.7782   -6.5551  -10.5918 N   0  0  0  0  0  0  0  0  0  0  0  0
   18.1261   -5.9779  -10.7985 C   0  0  1  0  0  0  0  0  0  0  0  0
   18.6804   -6.7159  -11.9713 C   0  0  0  0  0  0  0  0  0  0  0  0
   19.9909   -6.3108  -12.4457 C   0  0  0  0  0  0  0  0  0  0  0  0
   20.5405   -5.3396  -11.8614 O   0  0  0  0  0  0  0  0  0  0  0  0
   17.9185   -4.5365  -11.0051 C   0  0  0  0  0  0  0  0  0  0  0  0
   18.6853   -3.6195  -10.3278 O   0  0  0  0  0  0  0  0  0  0  0  0
   20.6643   -6.9133  -13.4829 O   0  0  0  0  0  0  0  0  0  0  0  0
   17.0428   -4.1233  -11.7968 O   0  0  0  0  0  0  0  0  0  0  0  0
  2  1  1  6
  2  7  1  0
  3  2  1  0
  4  3  1  0
  5  4  1  0
  6  5  2  0
  7  8  2  0
  9  5  1  0
 11 10  1  6
 11 12  1  0
 13 11  1  0
 14  7  1  0
 13 14  1  1
 15 17  1  0
 15 13  1  0
 16 15  2  0
 18 22  1  0
 18 19  1  6
 18 17  1  0
 19 20  1  0
 20 21  2  0
 20 24  1  0
 22 23  1  0
 25 22  2  0
M  END
$$$$
