EVD.pdb
     RDKit          3D

 25 24  0  0  1  0  0  0  0  0999 V2000
   20.1802  -12.8673  -17.6175 N   0  0  0  0  0  0  0  0  0  0  0  0
   20.6328  -11.4966  -17.5770 C   0  0  1  0  0  0  0  0  0  0  0  0
   19.4693  -10.5344  -17.4164 C   0  0  0  0  0  0  0  0  0  0  0  0
   18.5590  -10.5817  -18.6279 C   0  0  0  0  0  0  0  0  0  0  0  0
   18.9908   -9.5667  -19.5980 C   0  0  0  0  0  0  0  0  0  0  0  0
   19.8917   -8.7244  -19.3349 O   0  0  0  0  0  0  0  0  0  0  0  0
   21.5879  -11.2269  -16.4743 C   0  0  0  0  0  0  0  0  0  0  0  0
   21.4430  -11.7579  -15.3278 O   0  0  0  0  0  0  0  0  0  0  0  0
   18.4065   -9.5105  -20.8454 O   0  0  0  0  0  0  0  0  0  0  0  0
   25.9689   -9.7798  -14.9652 C   0  0  0  0  0  0  0  0  0  0  0  0
   25.0567  -10.1415  -16.1218 C   0  0  1  0  0  0  0  0  0  0  0  0
   25.3576  -11.5451  -16.6437 C   0  0  0  0  0  0  0  0  0  0  0  0
   23.6435  -10.1538  -15.6124 C   0  0  2  0  0  0  0  0  0  0  0  0
   22.6879  -10.3601  -16.6944 N   0  0  0  0  0  0  0  0  0  0  0  0
   23.3602   -8.7902  -15.0431 C   0  0  0  0  0  0  0  0  0  0  0  0
   24.1035   -8.2339  -14.2125 O   0  0  0  0  0  0  0  0  0  0  0  0
   22.2004   -8.1489  -15.4914 N   0  0  0  0  0  0  0  0  0  0  0  0
   21.8354   -6.7721  -15.0861 C   0  0  1  0  0  0  0  0  0  0  0  0
   22.8845   -5.9047  -15.6978 C   0  0  0  0  0  0  0  0  0  0  0  0
   23.5635   -4.9712  -14.8178 C   0  0  0  0  0  0  0  0  0  0  0  0
   23.0842   -4.8147  -13.6635 O   0  0  0  0  0  0  0  0  0  0  0  0
   20.4700   -6.5544  -15.5878 C   0  0  0  0  0  0  0  0  0  0  0  0
   19.5553   -5.8588  -14.8347 O   0  0  0  0  0  0  0  0  0  0  0  0
   24.6856   -4.2532  -15.1607 O   0  0  0  0  0  0  0  0  0  0  0  0
   20.1200   -6.9981  -16.7035 O   0  0  0  0  0  0  0  0  0  0  0  0
  2  1  1  1
  2  7  1  0
  3  2  1  0
  4  3  1  0
  5  4  1  0
  6  5  2  0
  7  8  2  0
  9  5  1  0
 11 10  1  1
 11 12  1  0
 13 11  1  0
 14  7  1  0
 13 14  1  6
 15 17  1  0
 15 13  1  0
 16 15  2  0
 18 22  1  0
 18 19  1  6
 18 17  1  0
 19 20  1  0
 20 21  2  0
 20 24  1  0
 22 23  1  0
 25 22  2  0
M  END
$$$$
