EVD.pdb
     RDKit          3D

 25 24  0  0  1  0  0  0  0  0999 V2000
   21.1968  -13.1767  -16.8353 N   0  0  0  0  0  0  0  0  0  0  0  0
   21.7170  -12.0201  -16.1448 C   0  0  1  0  0  0  0  0  0  0  0  0
   23.1672  -11.7619  -16.5130 C   0  0  0  0  0  0  0  0  0  0  0  0
   24.0691  -12.8374  -15.9400 C   0  0  0  0  0  0  0  0  0  0  0  0
   25.4457  -12.6104  -16.3993 C   0  0  0  0  0  0  0  0  0  0  0  0
   26.2297  -11.8176  -15.8103 O   0  0  0  0  0  0  0  0  0  0  0  0
   20.9584  -10.7773  -16.4287 C   0  0  0  0  0  0  0  0  0  0  0  0
   20.8322  -10.3346  -17.6143 O   0  0  0  0  0  0  0  0  0  0  0  0
   25.9215  -13.2734  -17.5105 O   0  0  0  0  0  0  0  0  0  0  0  0
   17.4657   -7.6805  -15.4425 C   0  0  0  0  0  0  0  0  0  0  0  0
   18.1359   -9.0382  -15.3517 C   0  0  1  0  0  0  0  0  0  0  0  0
   17.5662  -10.0050  -16.3880 C   0  0  0  0  0  0  0  0  0  0  0  0
   19.5931   -8.8590  -15.6697 C   0  0  2  0  0  0  0  0  0  0  0  0
   20.3583  -10.0616  -15.3622 N   0  0  0  0  0  0  0  0  0  0  0  0
   20.1183   -7.7738  -14.7695 C   0  0  0  0  0  0  0  0  0  0  0  0
   20.4405   -7.9734  -13.5828 O   0  0  0  0  0  0  0  0  0  0  0  0
   20.2367   -6.4957  -15.3263 N   0  0  0  0  0  0  0  0  0  0  0  0
   20.7849   -5.3410  -14.5787 C   0  0  1  0  0  0  0  0  0  0  0  0
   21.9874   -4.9205  -15.3560 C   0  0  0  0  0  0  0  0  0  0  0  0
   22.7137   -3.7612  -14.8710 C   0  0  0  0  0  0  0  0  0  0  0  0
   22.2974   -3.2222  -13.8115 O   0  0  0  0  0  0  0  0  0  0  0  0
   19.6994   -4.3503  -14.5173 C   0  0  0  0  0  0  0  0  0  0  0  0
   19.5185   -3.5861  -13.3899 O   0  0  0  0  0  0  0  0  0  0  0  0
   23.8164   -3.2184  -15.4888 O   0  0  0  0  0  0  0  0  0  0  0  0
   18.9252   -4.1887  -15.4863 O   0  0  0  0  0  0  0  0  0  0  0  0
  2  1  1  6
  2  7  1  0
  3  2  1  0
  4  3  1  0
  5  4  1  0
  6  5  2  0
  7  8  2  0
  9  5  1  0
 11 10  1  6
 11 12  1  0
 13 11  1  0
 14  7  1  0
 13 14  1  1
 15 17  1  0
 15 13  1  0
 16 15  2  0
 18 22  1  0
 18 19  1  6
 18 17  1  0
 19 20  1  0
 20 21  2  0
 20 24  1  0
 22 23  1  0
 25 22  2  0
M  END
$$$$
