EVD.pdb
     RDKit          3D

 25 24  0  0  1  0  0  0  0  0999 V2000
   24.7921  -18.8820  -19.6394 N   0  0  0  0  0  0  0  0  0  0  0  0
   24.6325  -18.3275  -18.3156 C   0  0  1  0  0  0  0  0  0  0  0  0
   23.1753  -18.0259  -18.0141 C   0  0  0  0  0  0  0  0  0  0  0  0
   22.9202  -16.5315  -18.0248 C   0  0  0  0  0  0  0  0  0  0  0  0
   21.5304  -16.2745  -17.6246 C   0  0  0  0  0  0  0  0  0  0  0  0
   21.2361  -15.5015  -16.6728 O   0  0  0  0  0  0  0  0  0  0  0  0
   25.1330  -19.2202  -17.2417 C   0  0  0  0  0  0  0  0  0  0  0  0
   25.0257  -20.4846  -17.3278 O   0  0  0  0  0  0  0  0  0  0  0  0
   20.4937  -16.8877  -18.2953 O   0  0  0  0  0  0  0  0  0  0  0  0
   28.1681  -19.9961  -13.5572 C   0  0  0  0  0  0  0  0  0  0  0  0
   27.7128  -19.1280  -14.7148 C   0  0  1  0  0  0  0  0  0  0  0  0
   28.6035  -19.3296  -15.9392 C   0  0  0  0  0  0  0  0  0  0  0  0
   26.3268  -19.5595  -15.1016 C   0  0  2  0  0  0  0  0  0  0  0  0
   25.7449  -18.6608  -16.0917 N   0  0  0  0  0  0  0  0  0  0  0  0
   25.4661  -19.4588  -13.8716 C   0  0  0  0  0  0  0  0  0  0  0  0
   24.7547  -18.4674  -13.6206 O   0  0  0  0  0  0  0  0  0  0  0  0
   25.4917  -20.5480  -12.9939 N   0  0  0  0  0  0  0  0  0  0  0  0
   24.5879  -20.6607  -11.8262 C   0  0  1  0  0  0  0  0  0  0  0  0
   23.2405  -20.9230  -12.4118 C   0  0  0  0  0  0  0  0  0  0  0  0
   22.0934  -20.7059  -11.5495 C   0  0  0  0  0  0  0  0  0  0  0  0
   22.3078  -20.1732  -10.4284 O   0  0  0  0  0  0  0  0  0  0  0  0
   25.1347  -21.7466  -10.9984 C   0  0  0  0  0  0  0  0  0  0  0  0
   25.8043  -22.7954  -11.5810 O   0  0  0  0  0  0  0  0  0  0  0  0
   20.7998  -21.0418  -11.8749 O   0  0  0  0  0  0  0  0  0  0  0  0
   24.9987  -21.7338   -9.7551 O   0  0  0  0  0  0  0  0  0  0  0  0
  2  1  1  6
  2  7  1  0
  3  2  1  0
  4  3  1  0
  5  4  1  0
  6  5  2  0
  7  8  2  0
  9  5  1  0
 11 10  1  1
 11 12  1  0
 13 11  1  0
 14  7  1  0
 13 14  1  6
 15 17  1  0
 15 13  1  0
 16 15  2  0
 18 22  1  0
 18 19  1  6
 18 17  1  0
 19 20  1  0
 20 21  2  0
 20 24  1  0
 22 23  1  0
 25 22  2  0
M  END
$$$$
