EVD.pdb
     RDKit          3D

 25 24  0  0  1  0  0  0  0  0999 V2000
   20.9567  -14.7155  -18.1185 N   0  0  0  0  0  0  0  0  0  0  0  0
   20.1302  -14.5545  -16.9453 C   0  0  1  0  0  0  0  0  0  0  0  0
   20.0203  -15.8517  -16.1638 C   0  0  0  0  0  0  0  0  0  0  0  0
   19.4725  -16.9631  -17.0375 C   0  0  0  0  0  0  0  0  0  0  0  0
   18.6824  -17.8845  -16.2102 C   0  0  0  0  0  0  0  0  0  0  0  0
   19.0323  -19.0797  -16.0123 O   0  0  0  0  0  0  0  0  0  0  0  0
   20.6316  -13.5152  -16.0130 C   0  0  0  0  0  0  0  0  0  0  0  0
   20.0425  -13.2731  -14.9121 O   0  0  0  0  0  0  0  0  0  0  0  0
   17.5136  -17.4535  -15.6196 O   0  0  0  0  0  0  0  0  0  0  0  0
   24.0596  -10.4605  -14.4494 C   0  0  0  0  0  0  0  0  0  0  0  0
   23.6965  -11.6923  -15.2566 C   0  0  1  0  0  0  0  0  0  0  0  0
   24.0416  -12.9715  -14.4965 C   0  0  0  0  0  0  0  0  0  0  0  0
   22.2086  -11.6900  -15.4635 C   0  0  2  0  0  0  0  0  0  0  0  0
   21.7910  -12.7715  -16.3482 N   0  0  0  0  0  0  0  0  0  0  0  0
   21.8548  -10.4042  -16.1603 C   0  0  0  0  0  0  0  0  0  0  0  0
   22.2826  -10.1055  -17.2915 O   0  0  0  0  0  0  0  0  0  0  0  0
   21.0039   -9.5300  -15.4754 N   0  0  0  0  0  0  0  0  0  0  0  0
   20.6393   -8.1919  -15.9945 C   0  0  1  0  0  0  0  0  0  0  0  0
   19.1570   -8.1145  -15.8398 C   0  0  0  0  0  0  0  0  0  0  0  0
   18.5215   -6.8595  -16.1975 C   0  0  0  0  0  0  0  0  0  0  0  0
   19.2489   -5.9735  -16.7196 O   0  0  0  0  0  0  0  0  0  0  0  0
   21.4054   -7.2270  -15.1910 C   0  0  0  0  0  0  0  0  0  0  0  0
   21.9499   -6.1105  -15.7781 O   0  0  0  0  0  0  0  0  0  0  0  0
   17.1890   -6.5784  -16.0042 O   0  0  0  0  0  0  0  0  0  0  0  0
   21.5742   -7.4068  -13.9648 O   0  0  0  0  0  0  0  0  0  0  0  0
  2  1  1  6
  2  7  1  0
  3  2  1  0
  4  3  1  0
  5  4  1  0
  6  5  2  0
  7  8  2  0
  9  5  1  0
 11 10  1  1
 11 12  1  0
 13 11  1  0
 14  7  1  0
 13 14  1  6
 15 17  1  0
 15 13  1  0
 16 15  2  0
 18 22  1  0
 18 19  1  1
 18 17  1  0
 19 20  1  0
 20 21  2  0
 20 24  1  0
 22 23  1  0
 25 22  2  0
M  END
$$$$
