EVD.pdb
     RDKit          3D

 25 24  0  0  1  0  0  0  0  0999 V2000
   19.9908  -13.9521  -17.0451 N   0  0  0  0  0  0  0  0  0  0  0  0
   20.2607  -12.5761  -17.3901 C   0  0  1  0  0  0  0  0  0  0  0  0
   18.9761  -11.8055  -17.6375 C   0  0  0  0  0  0  0  0  0  0  0  0
   18.1896  -12.4201  -18.7787 C   0  0  0  0  0  0  0  0  0  0  0  0
   16.9681  -11.6355  -19.0027 C   0  0  0  0  0  0  0  0  0  0  0  0
   15.8245  -12.1658  -19.0371 O   0  0  0  0  0  0  0  0  0  0  0  0
   21.0214  -11.8480  -16.3452 C   0  0  0  0  0  0  0  0  0  0  0  0
   20.6446  -11.8481  -15.1305 O   0  0  0  0  0  0  0  0  0  0  0  0
   17.0469  -10.2714  -19.1856 O   0  0  0  0  0  0  0  0  0  0  0  0
   24.9656   -9.7532  -14.5725 C   0  0  0  0  0  0  0  0  0  0  0  0
   24.3413  -10.6339  -15.6381 C   0  0  1  0  0  0  0  0  0  0  0  0
   24.4985  -12.1135  -15.2926 C   0  0  0  0  0  0  0  0  0  0  0  0
   22.8678  -10.3438  -15.6756 C   0  0  2  0  0  0  0  0  0  0  0  0
   22.1941  -11.1343  -16.6991 N   0  0  0  0  0  0  0  0  0  0  0  0
   22.7048   -8.9011  -16.0704 C   0  0  0  0  0  0  0  0  0  0  0  0
   22.8331   -8.4998  -17.2428 O   0  0  0  0  0  0  0  0  0  0  0  0
   22.3945   -7.9990  -15.0470 N   0  0  0  0  0  0  0  0  0  0  0  0
   22.2107   -6.5486  -15.2824 C   0  0  1  0  0  0  0  0  0  0  0  0
   21.0983   -6.4619  -16.2735 C   0  0  0  0  0  0  0  0  0  0  0  0
   20.5447   -5.1449  -16.5296 C   0  0  0  0  0  0  0  0  0  0  0  0
   21.3473   -4.2418  -16.8858 O   0  0  0  0  0  0  0  0  0  0  0  0
   21.9245   -5.9609  -13.9647 C   0  0  0  0  0  0  0  0  0  0  0  0
   21.7159   -6.7692  -12.8734 O   0  0  0  0  0  0  0  0  0  0  0  0
   19.2128   -4.8228  -16.4089 O   0  0  0  0  0  0  0  0  0  0  0  0
   21.8653   -4.7204  -13.8167 O   0  0  0  0  0  0  0  0  0  0  0  0
  2  1  1  1
  2  7  1  0
  3  2  1  0
  4  3  1  0
  5  4  1  0
  6  5  2  0
  7  8  2  0
  9  5  1  0
 11 10  1  1
 11 12  1  0
 13 11  1  0
 14  7  1  0
 13 14  1  6
 15 17  1  0
 15 13  1  0
 16 15  2  0
 18 22  1  0
 18 19  1  6
 18 17  1  0
 19 20  1  0
 20 21  2  0
 20 24  1  0
 22 23  1  0
 25 22  2  0
M  END
$$$$
