NQD.pdb
     RDKit          3D

 26 25  0  0  1  0  0  0  0  0999 V2000
   23.8486   -9.8930  -14.2519 N   0  0  0  0  0  0  0  0  0  0  0  0
   22.6124   -9.5535  -13.6120 C   0  0  0  0  0  0  0  0  0  0  0  0
   22.4465   -9.9794  -12.4400 O   0  0  0  0  0  0  0  0  0  0  0  0
   21.6396   -8.7418  -14.3631 C   0  0  0  0  0  0  0  0  0  0  0  0
   20.2927   -9.3562  -14.4074 C   0  0  2  0  0  0  0  0  0  0  0  0
   20.2785  -10.6153  -15.0818 N   0  0  0  0  0  0  0  0  0  0  0  0
   19.2573   -8.4323  -14.9754 C   0  0  0  0  0  0  0  0  0  0  0  0
   19.3110   -8.2406  -16.1938 O   0  0  0  0  0  0  0  0  0  0  0  0
   13.4032   -7.8778  -12.8781 N   0  0  0  0  0  0  0  0  0  0  0  0
   13.5068   -6.7411  -13.7101 C   0  0  0  0  0  0  0  0  0  0  0  0
   12.5033   -6.0505  -13.9391 O   0  0  0  0  0  0  0  0  0  0  0  0
   14.8203   -6.3565  -14.3195 C   0  0  0  0  0  0  0  0  0  0  0  0
   15.9248   -7.3095  -13.9833 C   0  0  0  0  0  0  0  0  0  0  0  0
   17.2840   -6.9272  -14.4995 C   0  0  2  0  0  0  0  0  0  0  0  0
   18.3134   -7.8495  -14.1338 N   0  0  0  0  0  0  0  0  0  0  0  0
   17.5986   -5.5180  -14.3073 C   0  0  0  0  0  0  0  0  0  0  0  0
   17.9883   -5.1295  -13.1602 O   0  0  0  0  0  0  0  0  0  0  0  0
   17.5064   -4.5180  -15.3059 N   0  0  0  0  0  0  0  0  0  0  0  0
   17.8720   -3.1249  -14.9968 C   0  0  1  0  0  0  0  0  0  0  0  0
   18.3487   -2.4140  -16.2137 C   0  0  0  0  0  0  0  0  0  0  0  0
   19.8100   -2.5705  -16.3476 C   0  0  0  0  0  0  0  0  0  0  0  0
   20.4732   -3.1252  -15.4042 O   0  0  0  0  0  0  0  0  0  0  0  0
   16.6181   -2.5091  -14.4637 C   0  0  0  0  0  0  0  0  0  0  0  0
   15.5223   -2.8382  -14.9907 O   0  0  0  0  0  0  0  0  0  0  0  0
   20.5704   -2.1620  -17.4283 O   0  0  0  0  0  0  0  0  0  0  0  0
   16.5855   -1.6028  -13.4301 O   0  0  0  0  0  0  0  0  0  0  0  0
  1  2  1  0
  2  3  2  0
  4  2  1  0
  5  4  1  0
  5  6  1  6
  7 15  1  0
  7  5  1  0
  8  7  2  0
  9 10  1  0
 10 12  1  0
 11 10  2  0
 13 12  1  0
 14 13  1  1
 14 15  1  0
 16 14  1  0
 16 17  2  0
 18 16  1  0
 19 18  1  0
 19 20  1  6
 20 21  1  0
 21 25  1  0
 22 21  2  0
 23 19  1  0
 24 23  2  0
 26 23  1  0
M  END
$$$$
