NQD.pdb
     RDKit          3D

 26 25  0  0  1  0  0  0  0  0999 V2000
   13.6360  -12.9061  -14.4888 N   0  0  0  0  0  0  0  0  0  0  0  0
   14.8261  -12.9632  -13.6928 C   0  0  0  0  0  0  0  0  0  0  0  0
   14.7915  -13.7029  -12.6759 O   0  0  0  0  0  0  0  0  0  0  0  0
   15.9870  -12.1625  -14.1179 C   0  0  0  0  0  0  0  0  0  0  0  0
   15.7162  -11.3597  -15.3327 C   0  0  2  0  0  0  0  0  0  0  0  0
   15.4505  -12.1645  -16.4825 N   0  0  0  0  0  0  0  0  0  0  0  0
   16.7986  -10.3615  -15.6157 C   0  0  0  0  0  0  0  0  0  0  0  0
   17.9569  -10.7558  -15.4512 O   0  0  0  0  0  0  0  0  0  0  0  0
   15.6743   -5.3443  -19.3748 N   0  0  0  0  0  0  0  0  0  0  0  0
   17.0077   -5.1225  -18.9651 C   0  0  0  0  0  0  0  0  0  0  0  0
   17.6396   -4.1567  -19.4172 O   0  0  0  0  0  0  0  0  0  0  0  0
   17.6696   -6.0418  -17.9846 C   0  0  0  0  0  0  0  0  0  0  0  0
   16.7705   -7.1417  -17.5122 C   0  0  0  0  0  0  0  0  0  0  0  0
   17.3580   -8.0491  -16.4674 C   0  0  2  0  0  0  0  0  0  0  0  0
   16.4630   -9.0770  -16.0360 N   0  0  0  0  0  0  0  0  0  0  0  0
   18.0578   -7.3332  -15.4092 C   0  0  0  0  0  0  0  0  0  0  0  0
   17.4038   -6.9728  -14.3791 O   0  0  0  0  0  0  0  0  0  0  0  0
   19.4326   -6.9936  -15.4251 N   0  0  0  0  0  0  0  0  0  0  0  0
   20.0399   -6.3046  -14.2735 C   0  0  1  0  0  0  0  0  0  0  0  0
   21.5044   -6.5589  -14.2090 C   0  0  0  0  0  0  0  0  0  0  0  0
   22.0835   -5.8698  -13.0396 C   0  0  0  0  0  0  0  0  0  0  0  0
   22.9163   -4.9150  -13.2195 O   0  0  0  0  0  0  0  0  0  0  0  0
   19.7493   -4.8551  -14.4976 C   0  0  0  0  0  0  0  0  0  0  0  0
   19.6065   -4.4527  -15.6827 O   0  0  0  0  0  0  0  0  0  0  0  0
   21.8120   -6.1602  -11.7148 O   0  0  0  0  0  0  0  0  0  0  0  0
   19.6274   -3.9300  -13.4877 O   0  0  0  0  0  0  0  0  0  0  0  0
  1  2  1  0
  2  3  2  0
  4  2  1  0
  5  4  1  0
  5  6  1  6
  7 15  1  0
  7  5  1  0
  8  7  2  0
  9 10  1  0
 10 12  1  0
 11 10  2  0
 13 12  1  0
 14 13  1  1
 14 15  1  0
 16 14  1  0
 16 17  2  0
 18 16  1  0
 19 18  1  0
 19 20  1  6
 20 21  1  0
 21 25  1  0
 22 21  2  0
 23 19  1  0
 24 23  2  0
 26 23  1  0
M  END
$$$$
