NQD.pdb
     RDKit          3D

 26 25  0  0  1  0  0  0  0  0999 V2000
   13.2781  -10.1883  -15.5336 N   0  0  0  0  0  0  0  0  0  0  0  0
   14.5161  -10.1063  -16.2502 C   0  0  0  0  0  0  0  0  0  0  0  0
   14.5391  -10.6163  -17.3999 O   0  0  0  0  0  0  0  0  0  0  0  0
   15.6558   -9.4399  -15.5969 C   0  0  0  0  0  0  0  0  0  0  0  0
   16.9378  -10.1478  -15.8183 C   0  0  2  0  0  0  0  0  0  0  0  0
   16.9509  -11.4615  -15.2577 N   0  0  0  0  0  0  0  0  0  0  0  0
   18.1212   -9.3542  -15.3515 C   0  0  0  0  0  0  0  0  0  0  0  0
   17.9564   -8.6861  -14.3265 O   0  0  0  0  0  0  0  0  0  0  0  0
   24.0242  -10.4824  -17.6011 N   0  0  0  0  0  0  0  0  0  0  0  0
   24.1987   -9.2921  -16.8609 C   0  0  0  0  0  0  0  0  0  0  0  0
   25.3249   -8.7826  -16.7684 O   0  0  0  0  0  0  0  0  0  0  0  0
   23.0347   -8.6335  -16.1860 C   0  0  0  0  0  0  0  0  0  0  0  0
   21.7449   -9.3645  -16.3942 C   0  0  0  0  0  0  0  0  0  0  0  0
   20.5389   -8.7376  -15.7521 C   0  0  2  0  0  0  0  0  0  0  0  0
   19.3133   -9.4017  -16.0696 N   0  0  0  0  0  0  0  0  0  0  0  0
   20.5182   -7.2850  -15.8587 C   0  0  0  0  0  0  0  0  0  0  0  0
   20.3272   -6.7586  -17.0012 O   0  0  0  0  0  0  0  0  0  0  0  0
   20.6969   -6.3851  -14.7799 N   0  0  0  0  0  0  0  0  0  0  0  0
   20.6220   -4.9315  -15.0060 C   0  0  1  0  0  0  0  0  0  0  0  0
   19.3692   -4.3652  -14.4373 C   0  0  0  0  0  0  0  0  0  0  0  0
   19.3584   -2.8991  -14.6053 C   0  0  0  0  0  0  0  0  0  0  0  0
   19.8077   -2.3857  -15.6880 O   0  0  0  0  0  0  0  0  0  0  0  0
   21.8295   -4.3748  -14.3223 C   0  0  0  0  0  0  0  0  0  0  0  0
   22.3661   -5.0587  -13.4106 O   0  0  0  0  0  0  0  0  0  0  0  0
   18.8975   -1.9831  -13.6772 O   0  0  0  0  0  0  0  0  0  0  0  0
   22.3938   -3.1584  -14.6272 O   0  0  0  0  0  0  0  0  0  0  0  0
  1  2  1  0
  2  3  2  0
  4  2  1  0
  5  4  1  0
  5  6  1  1
  7 15  1  0
  7  5  1  0
  8  7  2  0
  9 10  1  0
 10 12  1  0
 11 10  2  0
 13 12  1  0
 14 13  1  6
 14 15  1  0
 16 14  1  0
 16 17  2  0
 18 16  1  0
 19 18  1  0
 19 20  1  1
 20 21  1  0
 21 25  1  0
 22 21  2  0
 23 19  1  0
 24 23  2  0
 26 23  1  0
M  END
$$$$
