NQD.pdb
     RDKit          3D

 26 25  0  0  1  0  0  0  0  0999 V2000
   27.8714  -16.7314  -18.1948 N   0  0  0  0  0  0  0  0  0  0  0  0
   28.9678  -17.2270  -17.4168 C   0  0  0  0  0  0  0  0  0  0  0  0
   30.1196  -16.8586  -17.7634 O   0  0  0  0  0  0  0  0  0  0  0  0
   28.6700  -18.1196  -16.2836 C   0  0  0  0  0  0  0  0  0  0  0  0
   27.2228  -18.3998  -16.1391 C   0  0  2  0  0  0  0  0  0  0  0  0
   26.4866  -17.2791  -15.6470 N   0  0  0  0  0  0  0  0  0  0  0  0
   26.9531  -19.6223  -15.3140 C   0  0  0  0  0  0  0  0  0  0  0  0
   27.3883  -20.6868  -15.7631 O   0  0  0  0  0  0  0  0  0  0  0  0
   25.4907  -19.6518   -9.2336 N   0  0  0  0  0  0  0  0  0  0  0  0
   25.5814  -21.0311   -9.5243 C   0  0  0  0  0  0  0  0  0  0  0  0
   25.3281  -21.8653   -8.6433 O   0  0  0  0  0  0  0  0  0  0  0  0
   25.9786  -21.5003  -10.8905 C   0  0  0  0  0  0  0  0  0  0  0  0
   26.3048  -20.3771  -11.8250 C   0  0  0  0  0  0  0  0  0  0  0  0
   25.8532  -20.5703  -13.2459 C   0  0  2  0  0  0  0  0  0  0  0  0
   26.2471  -19.5091  -14.1191 N   0  0  0  0  0  0  0  0  0  0  0  0
   24.4657  -20.9999  -13.3567 C   0  0  0  0  0  0  0  0  0  0  0  0
   24.0976  -22.0451  -12.7316 O   0  0  0  0  0  0  0  0  0  0  0  0
   23.4667  -20.3437  -14.1164 N   0  0  0  0  0  0  0  0  0  0  0  0
   22.0901  -20.8672  -14.1413 C   0  0  1  0  0  0  0  0  0  0  0  0
   21.4748  -20.8196  -12.7876 C   0  0  0  0  0  0  0  0  0  0  0  0
   20.0746  -21.2810  -12.8551 C   0  0  0  0  0  0  0  0  0  0  0  0
   19.1258  -20.4464  -12.6535 O   0  0  0  0  0  0  0  0  0  0  0  0
   21.3611  -19.9823  -15.1011 C   0  0  0  0  0  0  0  0  0  0  0  0
   21.8591  -18.8567  -15.3693 O   0  0  0  0  0  0  0  0  0  0  0  0
   19.6622  -22.5741  -13.1217 O   0  0  0  0  0  0  0  0  0  0  0  0
   20.1768  -20.3210  -15.7121 O   0  0  0  0  0  0  0  0  0  0  0  0
  1  2  1  0
  2  3  2  0
  4  2  1  0
  5  4  1  0
  5  6  1  1
  7 15  1  0
  7  5  1  0
  8  7  2  0
  9 10  1  0
 10 12  1  0
 11 10  2  0
 13 12  1  0
 14 13  1  1
 14 15  1  0
 16 14  1  0
 16 17  2  0
 18 16  1  0
 19 18  1  0
 19 20  1  1
 20 21  1  0
 21 25  1  0
 22 21  2  0
 23 19  1  0
 24 23  2  0
 26 23  1  0
M  END
$$$$
