NQD.pdb
     RDKit          3D

 26 25  0  0  1  0  0  0  0  0999 V2000
   13.7434  -11.6370  -13.8759 N   0  0  0  0  0  0  0  0  0  0  0  0
   14.3532  -10.5921  -14.6436 C   0  0  0  0  0  0  0  0  0  0  0  0
   13.7496  -10.2302  -15.6863 O   0  0  0  0  0  0  0  0  0  0  0  0
   15.6248  -10.0259  -14.1621 C   0  0  0  0  0  0  0  0  0  0  0  0
   16.6241   -9.8592  -15.2425 C   0  0  2  0  0  0  0  0  0  0  0  0
   17.0691  -11.1036  -15.7843 N   0  0  0  0  0  0  0  0  0  0  0  0
   17.7871   -9.0101  -14.8246 C   0  0  0  0  0  0  0  0  0  0  0  0
   18.6407   -9.5649  -14.1262 O   0  0  0  0  0  0  0  0  0  0  0  0
   21.3683   -7.0401  -12.7239 N   0  0  0  0  0  0  0  0  0  0  0  0
   21.9269   -6.2724  -13.7696 C   0  0  0  0  0  0  0  0  0  0  0  0
   22.8276   -5.4572  -13.5234 O   0  0  0  0  0  0  0  0  0  0  0  0
   21.4445   -6.4337  -15.1788 C   0  0  0  0  0  0  0  0  0  0  0  0
   20.2851   -7.3732  -15.2984 C   0  0  0  0  0  0  0  0  0  0  0  0
   18.9360   -6.7685  -15.0262 C   0  0  2  0  0  0  0  0  0  0  0  0
   17.8518   -7.6785  -15.2267 N   0  0  0  0  0  0  0  0  0  0  0  0
   18.7685   -5.4450  -15.6113 C   0  0  0  0  0  0  0  0  0  0  0  0
   18.7610   -5.3334  -16.8786 O   0  0  0  0  0  0  0  0  0  0  0  0
   18.6106   -4.2432  -14.8788 N   0  0  0  0  0  0  0  0  0  0  0  0
   18.3216   -2.9800  -15.5792 C   0  0  1  0  0  0  0  0  0  0  0  0
   17.5326   -2.0587  -14.7176 C   0  0  0  0  0  0  0  0  0  0  0  0
   16.1483   -2.5532  -14.5880 C   0  0  0  0  0  0  0  0  0  0  0  0
   15.7563   -3.5277  -15.3190 O   0  0  0  0  0  0  0  0  0  0  0  0
   19.6636   -2.4058  -15.9029 C   0  0  0  0  0  0  0  0  0  0  0  0
   20.6857   -2.9950  -15.4614 O   0  0  0  0  0  0  0  0  0  0  0  0
   15.1892   -2.0528  -13.7262 O   0  0  0  0  0  0  0  0  0  0  0  0
   19.8534   -1.2706  -16.6554 O   0  0  0  0  0  0  0  0  0  0  0  0
  1  2  1  0
  2  3  2  0
  4  2  1  0
  5  4  1  0
  5  6  1  1
  7 15  1  0
  7  5  1  0
  8  7  2  0
  9 10  1  0
 10 12  1  0
 11 10  2  0
 13 12  1  0
 14 13  1  6
 14 15  1  0
 16 14  1  0
 16 17  2  0
 18 16  1  0
 19 18  1  0
 19 20  1  1
 20 21  1  0
 21 25  1  0
 22 21  2  0
 23 19  1  0
 24 23  2  0
 26 23  1  0
M  END
$$$$
