NQD.pdb
     RDKit          3D

 26 25  0  0  1  0  0  0  0  0999 V2000
   26.3341  -33.7988   -2.6398 N   0  0  0  0  0  0  0  0  0  0  0  0
   26.0128  -32.4040   -2.7050 C   0  0  0  0  0  0  0  0  0  0  0  0
   26.1103  -31.8531   -3.8318 O   0  0  0  0  0  0  0  0  0  0  0  0
   25.5974  -31.7265   -1.4648 C   0  0  0  0  0  0  0  0  0  0  0  0
   25.5076  -32.6492   -0.3097 C   0  0  2  0  0  0  0  0  0  0  0  0
   24.3967  -33.5427   -0.3976 N   0  0  0  0  0  0  0  0  0  0  0  0
   25.5124  -31.9276    1.0047 C   0  0  0  0  0  0  0  0  0  0  0  0
   26.5007  -31.2242    1.2339 O   0  0  0  0  0  0  0  0  0  0  0  0
   20.5855  -29.1513    3.4015 N   0  0  0  0  0  0  0  0  0  0  0  0
   21.5128  -29.0299    4.4600 C   0  0  0  0  0  0  0  0  0  0  0  0
   21.2610  -28.2855    5.4186 O   0  0  0  0  0  0  0  0  0  0  0  0
   22.8008  -29.7949    4.4400 C   0  0  0  0  0  0  0  0  0  0  0  0
   22.9798  -30.6105    3.1975 C   0  0  0  0  0  0  0  0  0  0  0  0
   24.2491  -31.4134    3.1319 C   0  0  2  0  0  0  0  0  0  0  0  0
   24.4402  -32.0775    1.8804 N   0  0  0  0  0  0  0  0  0  0  0  0
   24.4818  -32.2226    4.3206 C   0  0  0  0  0  0  0  0  0  0  0  0
   23.9646  -33.3835    4.3805 O   0  0  0  0  0  0  0  0  0  0  0  0
   25.2491  -31.8234    5.4420 N   0  0  0  0  0  0  0  0  0  0  0  0
   25.4387  -32.7434    6.5766 C   0  0  1  0  0  0  0  0  0  0  0  0
   26.6022  -32.3343    7.4088 C   0  0  0  0  0  0  0  0  0  0  0  0
   27.8456  -32.8944    6.8449 C   0  0  0  0  0  0  0  0  0  0  0  0
   27.7852  -33.6517    5.8151 O   0  0  0  0  0  0  0  0  0  0  0  0
   24.1621  -32.6647    7.3510 C   0  0  0  0  0  0  0  0  0  0  0  0
   23.3214  -31.7849    7.0255 O   0  0  0  0  0  0  0  0  0  0  0  0
   29.1219  -32.6808    7.3331 O   0  0  0  0  0  0  0  0  0  0  0  0
   23.8465  -33.4955    8.4003 O   0  0  0  0  0  0  0  0  0  0  0  0
  1  2  1  0
  2  3  2  0
  4  2  1  0
  5  4  1  0
  5  6  1  6
  7 15  1  0
  7  5  1  0
  8  7  2  0
  9 10  1  0
 10 12  1  0
 11 10  2  0
 13 12  1  0
 14 13  1  6
 14 15  1  0
 16 14  1  0
 16 17  2  0
 18 16  1  0
 19 18  1  0
 19 20  1  1
 20 21  1  0
 21 25  1  0
 22 21  2  0
 23 19  1  0
 24 23  2  0
 26 23  1  0
M  END
$$$$
