NQD.pdb
     RDKit          3D

 26 25  0  0  1  0  0  0  0  0999 V2000
   15.9826  -13.7525  -14.5742 N   0  0  0  0  0  0  0  0  0  0  0  0
   17.3081  -14.1904  -14.8970 C   0  0  0  0  0  0  0  0  0  0  0  0
   17.5687  -15.4038  -14.6919 O   0  0  0  0  0  0  0  0  0  0  0  0
   18.2557  -13.2010  -15.4382 C   0  0  0  0  0  0  0  0  0  0  0  0
   17.6743  -11.8421  -15.5331 C   0  0  2  0  0  0  0  0  0  0  0  0
   16.5910  -11.7651  -16.4608 N   0  0  0  0  0  0  0  0  0  0  0  0
   18.7059  -10.7941  -15.8256 C   0  0  0  0  0  0  0  0  0  0  0  0
   19.7036  -10.7971  -15.0984 O   0  0  0  0  0  0  0  0  0  0  0  0
   19.3482   -7.9930  -21.3839 N   0  0  0  0  0  0  0  0  0  0  0  0
   20.0415   -7.0747  -20.5646 C   0  0  0  0  0  0  0  0  0  0  0  0
   20.7537   -6.2019  -21.0818 O   0  0  0  0  0  0  0  0  0  0  0  0
   19.9240   -7.1407  -19.0726 C   0  0  0  0  0  0  0  0  0  0  0  0
   19.0213   -8.2387  -18.6029 C   0  0  0  0  0  0  0  0  0  0  0  0
   19.3547   -8.8134  -17.2543 C   0  0  2  0  0  0  0  0  0  0  0  0
   18.5013   -9.8931  -16.8673 N   0  0  0  0  0  0  0  0  0  0  0  0
   19.5921   -7.7978  -16.2373 C   0  0  0  0  0  0  0  0  0  0  0  0
   18.6007   -7.3497  -15.5777 O   0  0  0  0  0  0  0  0  0  0  0  0
   20.8569   -7.2511  -15.9100 N   0  0  0  0  0  0  0  0  0  0  0  0
   21.0007   -6.3582  -14.7473 C   0  0  1  0  0  0  0  0  0  0  0  0
   22.4167   -6.2917  -14.2955 C   0  0  0  0  0  0  0  0  0  0  0  0
   22.5257   -5.4205  -13.1094 C   0  0  0  0  0  0  0  0  0  0  0  0
   22.8059   -4.1812  -13.2615 O   0  0  0  0  0  0  0  0  0  0  0  0
   20.5197   -5.0258  -15.2257 C   0  0  0  0  0  0  0  0  0  0  0  0
   20.7768   -4.6908  -16.4125 O   0  0  0  0  0  0  0  0  0  0  0  0
   22.3524   -5.8185  -11.7961 O   0  0  0  0  0  0  0  0  0  0  0  0
   19.8113   -4.1395  -14.4489 O   0  0  0  0  0  0  0  0  0  0  0  0
  1  2  1  0
  2  3  2  0
  4  2  1  0
  5  4  1  0
  5  6  1  6
  7 15  1  0
  7  5  1  0
  8  7  2  0
  9 10  1  0
 10 12  1  0
 11 10  2  0
 13 12  1  0
 14 13  1  6
 14 15  1  0
 16 14  1  0
 16 17  2  0
 18 16  1  0
 19 18  1  0
 19 20  1  6
 20 21  1  0
 21 25  1  0
 22 21  2  0
 23 19  1  0
 24 23  2  0
 26 23  1  0
M  END
$$$$
