NQD.pdb
     RDKit          3D

 26 25  0  0  1  0  0  0  0  0999 V2000
   38.9913  -12.3490   -6.3198 N   0  0  0  0  0  0  0  0  0  0  0  0
   38.1262  -11.4496   -5.6157 C   0  0  0  0  0  0  0  0  0  0  0  0
   37.2843  -11.9675   -4.8375 O   0  0  0  0  0  0  0  0  0  0  0  0
   38.2839  -10.0043   -5.8513 C   0  0  0  0  0  0  0  0  0  0  0  0
   39.3060   -9.6988   -6.8788 C   0  0  2  0  0  0  0  0  0  0  0  0
   40.5780  -10.2791   -6.5866 N   0  0  0  0  0  0  0  0  0  0  0  0
   39.4355   -8.2284   -7.1422 C   0  0  0  0  0  0  0  0  0  0  0  0
   38.3799   -7.6150   -7.3252 O   0  0  0  0  0  0  0  0  0  0  0  0
   44.6253   -4.9637   -5.4283 N   0  0  0  0  0  0  0  0  0  0  0  0
   43.6370   -5.5886   -4.6361 C   0  0  0  0  0  0  0  0  0  0  0  0
   43.8474   -5.7883   -3.4310 O   0  0  0  0  0  0  0  0  0  0  0  0
   42.3310   -6.0121   -5.2358 C   0  0  0  0  0  0  0  0  0  0  0  0
   42.2747   -5.8148   -6.7187 C   0  0  0  0  0  0  0  0  0  0  0  0
   40.9984   -6.2569   -7.3787 C   0  0  2  0  0  0  0  0  0  0  0  0
   40.6965   -7.6385   -7.1694 N   0  0  0  0  0  0  0  0  0  0  0  0
   40.8615   -5.7789   -8.7479 C   0  0  0  0  0  0  0  0  0  0  0  0
   41.4219   -6.4347   -9.6832 O   0  0  0  0  0  0  0  0  0  0  0  0
   40.1448   -4.6223   -9.1405 N   0  0  0  0  0  0  0  0  0  0  0  0
   39.4763   -4.5734  -10.4522 C   0  0  1  0  0  0  0  0  0  0  0  0
   38.7547   -5.8439  -10.7330 C   0  0  0  0  0  0  0  0  0  0  0  0
   38.0563   -5.7496  -12.0295 C   0  0  0  0  0  0  0  0  0  0  0  0
   38.1083   -4.6580  -12.6953 O   0  0  0  0  0  0  0  0  0  0  0  0
   38.5293   -3.4203  -10.3567 C   0  0  0  0  0  0  0  0  0  0  0  0
   37.8642   -3.1096  -11.3804 O   0  0  0  0  0  0  0  0  0  0  0  0
   37.3189   -6.7570  -12.6249 O   0  0  0  0  0  0  0  0  0  0  0  0
   38.3376   -2.6746   -9.2174 O   0  0  0  0  0  0  0  0  0  0  0  0
  1  2  1  0
  2  3  2  0
  4  2  1  0
  5  4  1  0
  5  6  1  1
  7 15  1  0
  7  5  1  0
  8  7  2  0
  9 10  1  0
 10 12  1  0
 11 10  2  0
 13 12  1  0
 14 13  1  6
 14 15  1  0
 16 14  1  0
 16 17  2  0
 18 16  1  0
 19 18  1  0
 19 20  1  1
 20 21  1  0
 21 25  1  0
 22 21  2  0
 23 19  1  0
 24 23  2  0
 26 23  1  0
M  END
$$$$
