NQD.pdb
     RDKit          3D

 26 25  0  0  1  0  0  0  0  0999 V2000
   28.3276  -11.8569  -16.8844 N   0  0  0  0  0  0  0  0  0  0  0  0
   28.2282  -10.5065  -16.4160 C   0  0  0  0  0  0  0  0  0  0  0  0
   29.2758   -9.9920  -15.9464 O   0  0  0  0  0  0  0  0  0  0  0  0
   26.9244   -9.8287  -16.5171 C   0  0  0  0  0  0  0  0  0  0  0  0
   25.8498  -10.7225  -17.0074 C   0  0  2  0  0  0  0  0  0  0  0  0
   26.1234  -11.2619  -18.3013 N   0  0  0  0  0  0  0  0  0  0  0  0
   24.4995  -10.0716  -16.9725 C   0  0  0  0  0  0  0  0  0  0  0  0
   24.3954   -9.0050  -17.5855 O   0  0  0  0  0  0  0  0  0  0  0  0
   19.3004  -13.1431  -14.7237 N   0  0  0  0  0  0  0  0  0  0  0  0
   18.7888  -11.9074  -15.1779 C   0  0  0  0  0  0  0  0  0  0  0  0
   17.5647  -11.7127  -15.1881 O   0  0  0  0  0  0  0  0  0  0  0  0
   19.7109  -10.8236  -15.6465 C   0  0  0  0  0  0  0  0  0  0  0  0
   21.1442  -11.2530  -15.6957 C   0  0  0  0  0  0  0  0  0  0  0  0
   22.1178  -10.1962  -16.1375 C   0  0  2  0  0  0  0  0  0  0  0  0
   23.4577  -10.6759  -16.2738 N   0  0  0  0  0  0  0  0  0  0  0  0
   21.9657   -8.9365  -15.4220 C   0  0  0  0  0  0  0  0  0  0  0  0
   22.6086   -8.7682  -14.3370 O   0  0  0  0  0  0  0  0  0  0  0  0
   21.1466   -7.8575  -15.8348 N   0  0  0  0  0  0  0  0  0  0  0  0
   21.0644   -6.6339  -15.0189 C   0  0  1  0  0  0  0  0  0  0  0  0
   21.9616   -5.5736  -15.5523 C   0  0  0  0  0  0  0  0  0  0  0  0
   21.7939   -4.3330  -14.7709 C   0  0  0  0  0  0  0  0  0  0  0  0
   21.3914   -4.4017  -13.5582 O   0  0  0  0  0  0  0  0  0  0  0  0
   19.6297   -6.2197  -15.0929 C   0  0  0  0  0  0  0  0  0  0  0  0
   18.9641   -6.5570  -16.1078 O   0  0  0  0  0  0  0  0  0  0  0  0
   22.0333   -3.0505  -15.2304 O   0  0  0  0  0  0  0  0  0  0  0  0
   18.9882   -5.4911  -14.1190 O   0  0  0  0  0  0  0  0  0  0  0  0
  1  2  1  0
  2  3  2  0
  4  2  1  0
  5  4  1  0
  5  6  1  6
  7 15  1  0
  7  5  1  0
  8  7  2  0
  9 10  1  0
 10 12  1  0
 11 10  2  0
 13 12  1  0
 14 13  1  1
 14 15  1  0
 16 14  1  0
 16 17  2  0
 18 16  1  0
 19 18  1  0
 19 20  1  6
 20 21  1  0
 21 25  1  0
 22 21  2  0
 23 19  1  0
 24 23  2  0
 26 23  1  0
M  END
$$$$
