NQD.pdb
     RDKit          3D

 26 25  0  0  1  0  0  0  0  0999 V2000
   14.0373  -14.8213  -12.0697 N   0  0  0  0  0  0  0  0  0  0  0  0
   15.3444  -14.8312  -12.6566 C   0  0  0  0  0  0  0  0  0  0  0  0
   16.0639  -15.8352  -12.4183 O   0  0  0  0  0  0  0  0  0  0  0  0
   15.7444  -13.6807  -13.4848 C   0  0  0  0  0  0  0  0  0  0  0  0
   14.6717  -12.6679  -13.6160 C   0  0  2  0  0  0  0  0  0  0  0  0
   13.5112  -13.1708  -14.2796 N   0  0  0  0  0  0  0  0  0  0  0  0
   15.1515  -11.4020  -14.2607 C   0  0  0  0  0  0  0  0  0  0  0  0
   15.3115  -11.4431  -15.4841 O   0  0  0  0  0  0  0  0  0  0  0  0
   12.9592   -5.8527  -13.3289 N   0  0  0  0  0  0  0  0  0  0  0  0
   14.2400   -5.4793  -13.7927 C   0  0  0  0  0  0  0  0  0  0  0  0
   14.4716   -4.2959  -14.0796 O   0  0  0  0  0  0  0  0  0  0  0  0
   15.3275   -6.4993  -13.9399 C   0  0  0  0  0  0  0  0  0  0  0  0
   14.9131   -7.8673  -13.4950 C   0  0  0  0  0  0  0  0  0  0  0  0
   15.8172   -8.9869  -13.9300 C   0  0  2  0  0  0  0  0  0  0  0  0
   15.3889  -10.2742  -13.4793 N   0  0  0  0  0  0  0  0  0  0  0  0
   17.2316   -8.6901  -13.7475 C   0  0  0  0  0  0  0  0  0  0  0  0
   17.7085   -8.6880  -12.5679 O   0  0  0  0  0  0  0  0  0  0  0  0
   18.1446   -8.3958  -14.7894 N   0  0  0  0  0  0  0  0  0  0  0  0
   19.5717   -8.1889  -14.4889 C   0  0  1  0  0  0  0  0  0  0  0  0
   20.4336   -8.9398  -15.4411 C   0  0  0  0  0  0  0  0  0  0  0  0
   21.8555   -8.6687  -15.1537 C   0  0  0  0  0  0  0  0  0  0  0  0
   22.1741   -8.0468  -14.0817 O   0  0  0  0  0  0  0  0  0  0  0  0
   19.7797   -6.7136  -14.6148 C   0  0  0  0  0  0  0  0  0  0  0  0
   20.9267   -6.2514  -14.3753 O   0  0  0  0  0  0  0  0  0  0  0  0
   22.9243   -9.0283  -15.9546 O   0  0  0  0  0  0  0  0  0  0  0  0
   18.7940   -5.8260  -14.9773 O   0  0  0  0  0  0  0  0  0  0  0  0
  1  2  1  0
  2  3  2  0
  4  2  1  0
  5  4  1  0
  5  6  1  6
  7 15  1  0
  7  5  1  0
  8  7  2  0
  9 10  1  0
 10 12  1  0
 11 10  2  0
 13 12  1  0
 14 13  1  1
 14 15  1  0
 16 14  1  0
 16 17  2  0
 18 16  1  0
 19 18  1  0
 19 20  1  6
 20 21  1  0
 21 25  1  0
 22 21  2  0
 23 19  1  0
 24 23  2  0
 26 23  1  0
M  END
$$$$
