NQD.pdb
     RDKit          3D

 26 25  0  0  1  0  0  0  0  0999 V2000
   13.6797   -5.8150   -6.3192 N   0  0  0  0  0  0  0  0  0  0  0  0
   13.9072   -5.9306   -7.7291 C   0  0  0  0  0  0  0  0  0  0  0  0
   13.0417   -5.4195   -8.4855 O   0  0  0  0  0  0  0  0  0  0  0  0
   15.1214   -6.6299   -8.1833 C   0  0  0  0  0  0  0  0  0  0  0  0
   14.8215   -7.8243   -9.0062 C   0  0  2  0  0  0  0  0  0  0  0  0
   14.1904   -8.8673   -8.2618 N   0  0  0  0  0  0  0  0  0  0  0  0
   16.0271   -8.3391   -9.7339 C   0  0  0  0  0  0  0  0  0  0  0  0
   16.8863   -8.8895   -9.0388 O   0  0  0  0  0  0  0  0  0  0  0  0
   15.8627  -11.6571  -14.7945 N   0  0  0  0  0  0  0  0  0  0  0  0
   17.2113  -11.2409  -14.8501 C   0  0  0  0  0  0  0  0  0  0  0  0
   17.9842  -11.7605  -15.6680 O   0  0  0  0  0  0  0  0  0  0  0  0
   17.7206  -10.1729  -13.9311 C   0  0  0  0  0  0  0  0  0  0  0  0
   16.6765   -9.6650  -12.9860 C   0  0  0  0  0  0  0  0  0  0  0  0
   17.1592   -8.6687  -11.9688 C   0  0  2  0  0  0  0  0  0  0  0  0
   16.1235   -8.1790  -11.1137 N   0  0  0  0  0  0  0  0  0  0  0  0
   18.0498   -7.6601  -12.5269 C   0  0  0  0  0  0  0  0  0  0  0  0
   17.5454   -6.5867  -12.9874 O   0  0  0  0  0  0  0  0  0  0  0  0
   19.4595   -7.7701  -12.6055 N   0  0  0  0  0  0  0  0  0  0  0  0
   20.2608   -6.6617  -13.1524 C   0  0  1  0  0  0  0  0  0  0  0  0
   21.6809   -6.7640  -12.7207 C   0  0  0  0  0  0  0  0  0  0  0  0
   22.4595   -5.6436  -13.2832 C   0  0  0  0  0  0  0  0  0  0  0  0
   23.0946   -5.8069  -14.3821 O   0  0  0  0  0  0  0  0  0  0  0  0
   20.1332   -6.7926  -14.6363 C   0  0  0  0  0  0  0  0  0  0  0  0
   20.0868   -7.9505  -15.1302 O   0  0  0  0  0  0  0  0  0  0  0  0
   22.5827   -4.3845  -12.7242 O   0  0  0  0  0  0  0  0  0  0  0  0
   20.0626   -5.7246  -15.4995 O   0  0  0  0  0  0  0  0  0  0  0  0
  1  2  1  0
  2  3  2  0
  4  2  1  0
  5  4  1  0
  5  6  1  1
  7 15  1  0
  7  5  1  0
  8  7  2  0
  9 10  1  0
 10 12  1  0
 11 10  2  0
 13 12  1  0
 14 13  1  6
 14 15  1  0
 16 14  1  0
 16 17  2  0
 18 16  1  0
 19 18  1  0
 19 20  1  6
 20 21  1  0
 21 25  1  0
 22 21  2  0
 23 19  1  0
 24 23  2  0
 26 23  1  0
M  END
$$$$
