NQD.pdb
     RDKit          3D

 26 25  0  0  1  0  0  0  0  0999 V2000
   18.1689  -13.5523  -17.2995 N   0  0  0  0  0  0  0  0  0  0  0  0
   18.4400  -13.6635  -15.8970 C   0  0  0  0  0  0  0  0  0  0  0  0
   17.7431  -14.4868  -15.2497 O   0  0  0  0  0  0  0  0  0  0  0  0
   19.5006  -12.8173  -15.3237 C   0  0  0  0  0  0  0  0  0  0  0  0
   20.1346  -11.9328  -16.3284 C   0  0  2  0  0  0  0  0  0  0  0  0
   21.0006  -12.6365  -17.2201 N   0  0  0  0  0  0  0  0  0  0  0  0
   20.8407  -10.7666  -15.7043 C   0  0  0  0  0  0  0  0  0  0  0  0
   20.2362  -10.1892  -14.7959 O   0  0  0  0  0  0  0  0  0  0  0  0
   27.0768  -10.1231  -16.6123 N   0  0  0  0  0  0  0  0  0  0  0  0
   26.4277  -11.0390  -15.7550 C   0  0  0  0  0  0  0  0  0  0  0  0
   27.0498  -12.0137  -15.3087 O   0  0  0  0  0  0  0  0  0  0  0  0
   24.9917  -10.8447  -15.3745 C   0  0  0  0  0  0  0  0  0  0  0  0
   24.4050   -9.5814  -15.9232 C   0  0  0  0  0  0  0  0  0  0  0  0
   22.9454   -9.3700  -15.6315 C   0  0  2  0  0  0  0  0  0  0  0  0
   22.1032  -10.3969  -16.1608 N   0  0  0  0  0  0  0  0  0  0  0  0
   22.5021   -8.0027  -15.8679 C   0  0  0  0  0  0  0  0  0  0  0  0
   22.1842   -7.6590  -17.0509 O   0  0  0  0  0  0  0  0  0  0  0  0
   22.3916   -6.9979  -14.8760 N   0  0  0  0  0  0  0  0  0  0  0  0
   21.8621   -5.6679  -15.2230 C   0  0  1  0  0  0  0  0  0  0  0  0
   20.4174   -5.7409  -15.5710 C   0  0  0  0  0  0  0  0  0  0  0  0
   19.8754   -4.3809  -15.7565 C   0  0  0  0  0  0  0  0  0  0  0  0
   20.5465   -3.5212  -16.4260 O   0  0  0  0  0  0  0  0  0  0  0  0
   22.0855   -4.8359  -14.0009 C   0  0  0  0  0  0  0  0  0  0  0  0
   22.4453   -5.4168  -12.9427 O   0  0  0  0  0  0  0  0  0  0  0  0
   18.6703   -3.9171  -15.2609 O   0  0  0  0  0  0  0  0  0  0  0  0
   21.9224   -3.4712  -13.9591 O   0  0  0  0  0  0  0  0  0  0  0  0
  1  2  1  0
  2  3  2  0
  4  2  1  0
  5  4  1  0
  5  6  1  1
  7 15  1  0
  7  5  1  0
  8  7  2  0
  9 10  1  0
 10 12  1  0
 11 10  2  0
 13 12  1  0
 14 13  1  6
 14 15  1  0
 16 14  1  0
 16 17  2  0
 18 16  1  0
 19 18  1  0
 19 20  1  1
 20 21  1  0
 21 25  1  0
 22 21  2  0
 23 19  1  0
 24 23  2  0
 26 23  1  0
M  END
$$$$
