EFH.pdb
     RDKit          3D

 31 32  0  0  1  0  0  0  0  0999 V2000
    8.1689  -12.5071   19.5935 N   0  0  0  0  0  0  0  0  0  0  0  0
    7.3923  -13.5665   20.2607 C   0  0  1  0  0  0  0  0  0  0  0  0
    7.3485  -14.7266   19.3263 C   0  0  0  0  0  0  0  0  0  0  0  0
    8.3452  -14.6130   18.2324 C   0  0  0  0  0  0  0  0  0  0  0  0
    8.2510  -15.7323   17.2812 C   0  0  0  0  0  0  0  0  0  0  0  0
    7.2347  -15.9600   16.5798 O   0  0  0  0  0  0  0  0  0  0  0  0
    8.2392  -13.9819   21.4387 C   0  0  0  0  0  0  0  0  0  0  0  0
    9.5070  -13.8759   21.3780 O   0  0  0  0  0  0  0  0  0  0  0  0
    9.3077  -16.6254   17.0989 O   0  0  0  0  0  0  0  0  0  0  0  0
    7.6852  -14.4970   22.6403 N   0  0  0  0  0  0  0  0  0  0  0  0
    8.5050  -14.8696   23.7852 C   0  0  1  0  0  0  0  0  0  0  0  0
    7.6125  -14.9309   24.9755 C   0  0  0  0  0  0  0  0  0  0  0  0
    7.2447  -13.6278   25.5463 C   0  0  0  0  0  0  0  0  0  0  0  0
    5.9367  -13.2615   25.7489 C   0  0  0  0  0  0  0  0  0  0  0  0
    5.5711  -12.0420   26.2848 C   0  0  0  0  0  0  0  0  0  0  0  0
    6.5625  -11.1363   26.6389 C   0  0  0  0  0  0  0  0  0  0  0  0
    7.8826  -11.4786   26.4463 C   0  0  0  0  0  0  0  0  0  0  0  0
    8.2140  -12.7174   25.9033 C   0  0  0  0  0  0  0  0  0  0  0  0
    9.1928  -16.1346   23.4629 C   0  0  0  0  0  0  0  0  0  0  0  0
    9.0965  -16.6677   22.3196 O   0  0  0  0  0  0  0  0  0  0  0  0
    9.9993  -16.8299   24.4041 N   0  0  0  0  0  0  0  0  0  0  0  0
   11.3902  -17.2445   24.0466 C   0  0  1  0  0  0  0  0  0  0  0  0
   12.1500  -16.0302   23.6592 C   0  0  0  0  0  0  0  0  0  0  0  0
   12.4173  -15.8310   22.2338 C   0  0  0  0  0  0  0  0  0  0  0  0
   11.7286  -16.1469   21.0973 C   0  0  0  0  0  0  0  0  0  0  0  0
   12.4446  -15.6604   20.0490 N   0  0  0  0  0  0  0  0  0  0  0  0
   13.5326  -15.0647   20.5011 C   0  0  0  0  0  0  0  0  0  0  0  0
   13.5268  -15.1618   21.8277 N   0  0  0  0  0  0  0  0  0  0  0  0
   11.9612  -17.8741   25.2966 C   0  0  0  0  0  0  0  0  0  0  0  0
   12.9317  -18.8155   25.3580 O   0  0  0  0  0  0  0  0  0  0  0  0
   11.4701  -17.4671   26.4073 O   0  0  0  0  0  0  0  0  0  0  0  0
  2  1  1  6
  2  3  1  0
  3  4  1  0
  5  4  1  0
  6  5  2  0
  7  2  1  0
  8  7  2  0
  9  5  1  0
 10  7  1  0
 11 12  1  1
 11 10  1  0
 12 13  1  0
 13 18  2  0
 14 15  2  0
 14 13  1  0
 15 16  1  0
 16 17  2  0
 18 17  1  0
 19 11  1  0
 20 19  2  0
 21 19  1  0
 22 21  1  0
 23 24  1  0
 22 23  1  1
 24 25  2  0
 25 26  1  0
 27 26  1  0
 28 24  1  0
 28 27  2  0
 29 22  1  0
 29 30  1  0
 31 29  2  0
M  END
$$$$
