EFH.pdb
     RDKit          3D

 31 32  0  0  1  0  0  0  0  0999 V2000
    9.9420  -17.6777   16.6819 N   0  0  0  0  0  0  0  0  0  0  0  0
    8.9998  -18.2807   17.6406 C   0  0  1  0  0  0  0  0  0  0  0  0
    9.3534  -19.7245   17.7471 C   0  0  0  0  0  0  0  0  0  0  0  0
    9.8515  -20.2835   16.4656 C   0  0  0  0  0  0  0  0  0  0  0  0
   10.1885  -21.7118   16.5801 C   0  0  0  0  0  0  0  0  0  0  0  0
   10.6514  -22.3913   15.6311 O   0  0  0  0  0  0  0  0  0  0  0  0
    9.3392  -17.6454   18.9667 C   0  0  0  0  0  0  0  0  0  0  0  0
   10.5577  -17.4673   19.2920 O   0  0  0  0  0  0  0  0  0  0  0  0
   10.0095  -22.4097   17.7752 O   0  0  0  0  0  0  0  0  0  0  0  0
    8.3492  -17.2254   19.8938 N   0  0  0  0  0  0  0  0  0  0  0  0
    8.6774  -16.5242   21.1276 C   0  0  1  0  0  0  0  0  0  0  0  0
    7.4608  -15.7823   21.5596 C   0  0  0  0  0  0  0  0  0  0  0  0
    7.5209  -14.3258   21.3754 C   0  0  0  0  0  0  0  0  0  0  0  0
    7.2988  -13.7334   20.1565 C   0  0  0  0  0  0  0  0  0  0  0  0
    7.3500  -12.3665   19.9635 C   0  0  0  0  0  0  0  0  0  0  0  0
    7.6384  -11.5431   21.0439 C   0  0  0  0  0  0  0  0  0  0  0  0
    7.8654  -12.1114   22.2777 C   0  0  0  0  0  0  0  0  0  0  0  0
    7.8054  -13.4938   22.4351 C   0  0  0  0  0  0  0  0  0  0  0  0
    9.1734  -17.5171   22.0998 C   0  0  0  0  0  0  0  0  0  0  0  0
    9.2206  -18.7502   21.8209 O   0  0  0  0  0  0  0  0  0  0  0  0
    9.6254  -17.1586   23.3986 N   0  0  0  0  0  0  0  0  0  0  0  0
   10.9889  -17.5596   23.8614 C   0  0  1  0  0  0  0  0  0  0  0  0
   11.9862  -16.9435   22.9517 C   0  0  0  0  0  0  0  0  0  0  0  0
   12.7809  -17.8453   22.1162 C   0  0  0  0  0  0  0  0  0  0  0  0
   12.4891  -18.9905   21.4313 C   0  0  0  0  0  0  0  0  0  0  0  0
   13.6219  -19.3649   20.7794 N   0  0  0  0  0  0  0  0  0  0  0  0
   14.5829  -18.4976   21.0386 C   0  0  0  0  0  0  0  0  0  0  0  0
   14.0836  -17.5693   21.8500 N   0  0  0  0  0  0  0  0  0  0  0  0
   11.1179  -17.0167   25.2662 C   0  0  0  0  0  0  0  0  0  0  0  0
   10.5120  -15.9149   25.7672 O   0  0  0  0  0  0  0  0  0  0  0  0
   11.8809  -17.6749   26.0569 O   0  0  0  0  0  0  0  0  0  0  0  0
  2  1  1  6
  2  3  1  0
  3  4  1  0
  5  4  1  0
  6  5  2  0
  7  2  1  0
  8  7  2  0
  9  5  1  0
 10  7  1  0
 11 12  1  1
 11 10  1  0
 12 13  1  0
 13 18  2  0
 14 15  2  0
 14 13  1  0
 15 16  1  0
 16 17  2  0
 18 17  1  0
 19 11  1  0
 20 19  2  0
 21 19  1  0
 22 21  1  0
 23 24  1  0
 22 23  1  6
 24 25  2  0
 25 26  1  0
 27 26  1  0
 28 24  1  0
 28 27  2  0
 29 22  1  0
 29 30  1  0
 31 29  2  0
M  END
$$$$
