EFH.pdb
     RDKit          3D

 31 32  0  0  1  0  0  0  0  0999 V2000
    8.9124  -16.3025   19.2910 N   0  0  0  0  0  0  0  0  0  0  0  0
    9.3310  -17.0769   20.4724 C   0  0  1  0  0  0  0  0  0  0  0  0
   10.7314  -17.5225   20.2253 C   0  0  0  0  0  0  0  0  0  0  0  0
   10.8193  -18.9693   19.9058 C   0  0  0  0  0  0  0  0  0  0  0  0
   12.2140  -19.4258   19.7918 C   0  0  0  0  0  0  0  0  0  0  0  0
   12.6506  -20.0765   18.8106 O   0  0  0  0  0  0  0  0  0  0  0  0
    9.3810  -16.0703   21.5957 C   0  0  0  0  0  0  0  0  0  0  0  0
    9.8091  -14.8915   21.3732 O   0  0  0  0  0  0  0  0  0  0  0  0
   13.1532  -19.1568   20.7883 O   0  0  0  0  0  0  0  0  0  0  0  0
    8.9666  -16.3740   22.9193 N   0  0  0  0  0  0  0  0  0  0  0  0
    8.9217  -15.3727   23.9762 C   0  0  1  0  0  0  0  0  0  0  0  0
    7.6964  -14.5529   23.7661 C   0  0  0  0  0  0  0  0  0  0  0  0
    7.3959  -13.5953   24.8392 C   0  0  0  0  0  0  0  0  0  0  0  0
    6.4267  -13.8347   25.7823 C   0  0  0  0  0  0  0  0  0  0  0  0
    6.1302  -12.9476   26.7987 C   0  0  0  0  0  0  0  0  0  0  0  0
    6.8377  -11.7555   26.8814 C   0  0  0  0  0  0  0  0  0  0  0  0
    7.8152  -11.4903   25.9481 C   0  0  0  0  0  0  0  0  0  0  0  0
    8.0870  -12.4084   24.9368 C   0  0  0  0  0  0  0  0  0  0  0  0
    8.9812  -16.0737   25.2731 C   0  0  0  0  0  0  0  0  0  0  0  0
    8.0507  -16.8418   25.6537 O   0  0  0  0  0  0  0  0  0  0  0  0
   10.0745  -15.9341   26.1704 N   0  0  0  0  0  0  0  0  0  0  0  0
   10.1273  -16.7404   27.4279 C   0  0  1  0  0  0  0  0  0  0  0  0
   11.3901  -17.5196   27.4254 C   0  0  0  0  0  0  0  0  0  0  0  0
   11.5207  -18.5843   26.4292 C   0  0  0  0  0  0  0  0  0  0  0  0
   10.6898  -19.0681   25.4589 C   0  0  0  0  0  0  0  0  0  0  0  0
   11.3751  -20.0352   24.7930 N   0  0  0  0  0  0  0  0  0  0  0  0
   12.5812  -20.1559   25.3161 C   0  0  0  0  0  0  0  0  0  0  0  0
   12.6815  -19.2790   26.3112 N   0  0  0  0  0  0  0  0  0  0  0  0
   10.1044  -15.7356   28.5569 C   0  0  0  0  0  0  0  0  0  0  0  0
   10.1214  -14.3871   28.4410 O   0  0  0  0  0  0  0  0  0  0  0  0
   10.0636  -16.2201   29.7418 O   0  0  0  0  0  0  0  0  0  0  0  0
  2  1  1  6
  2  3  1  0
  3  4  1  0
  5  4  1  0
  6  5  2  0
  7  2  1  0
  8  7  2  0
  9  5  1  0
 10  7  1  0
 11 12  1  1
 11 10  1  0
 12 13  1  0
 13 18  2  0
 14 15  2  0
 14 13  1  0
 15 16  1  0
 16 17  2  0
 18 17  1  0
 19 11  1  0
 20 19  2  0
 21 19  1  0
 22 21  1  0
 23 24  1  0
 22 23  1  6
 24 25  2  0
 25 26  1  0
 27 26  1  0
 28 24  1  0
 28 27  2  0
 29 22  1  0
 29 30  1  0
 31 29  2  0
M  END
$$$$
