EFH.pdb
     RDKit          3D

 31 32  0  0  1  0  0  0  0  0999 V2000
   10.7072  -16.9895   19.8769 N   0  0  0  0  0  0  0  0  0  0  0  0
    9.4427  -17.2422   20.5894 C   0  0  1  0  0  0  0  0  0  0  0  0
    9.4538  -18.6752   20.9984 C   0  0  0  0  0  0  0  0  0  0  0  0
   10.4020  -19.4877   20.1962 C   0  0  0  0  0  0  0  0  0  0  0  0
    9.8210  -20.7798   19.7966 C   0  0  0  0  0  0  0  0  0  0  0  0
    8.6921  -20.8935   19.2587 O   0  0  0  0  0  0  0  0  0  0  0  0
    9.5414  -16.4230   21.8530 C   0  0  0  0  0  0  0  0  0  0  0  0
   10.6818  -16.1858   22.3684 O   0  0  0  0  0  0  0  0  0  0  0  0
   10.5048  -21.9798   19.9961 O   0  0  0  0  0  0  0  0  0  0  0  0
    8.4038  -15.8896   22.5143 N   0  0  0  0  0  0  0  0  0  0  0  0
    8.5076  -15.0571   23.7050 C   0  0  1  0  0  0  0  0  0  0  0  0
    7.3266  -14.1504   23.7232 C   0  0  0  0  0  0  0  0  0  0  0  0
    7.2171  -13.2935   24.9118 C   0  0  0  0  0  0  0  0  0  0  0  0
    6.2278  -13.4658   25.8486 C   0  0  0  0  0  0  0  0  0  0  0  0
    6.1089  -12.6714   26.9724 C   0  0  0  0  0  0  0  0  0  0  0  0
    7.0257  -11.6482   27.1753 C   0  0  0  0  0  0  0  0  0  0  0  0
    8.0280  -11.4536   26.2510 C   0  0  0  0  0  0  0  0  0  0  0  0
    8.1170  -12.2743   25.1294 C   0  0  0  0  0  0  0  0  0  0  0  0
    8.6216  -15.9468   24.8765 C   0  0  0  0  0  0  0  0  0  0  0  0
    7.6639  -16.6897   25.2392 O   0  0  0  0  0  0  0  0  0  0  0  0
    9.8006  -16.0274   25.6660 N   0  0  0  0  0  0  0  0  0  0  0  0
    9.8740  -16.9751   26.8195 C   0  0  1  0  0  0  0  0  0  0  0  0
   11.0898  -17.8100   26.6560 C   0  0  0  0  0  0  0  0  0  0  0  0
   11.1034  -18.7675   25.5488 C   0  0  0  0  0  0  0  0  0  0  0  0
   10.1432  -19.2229   24.6906 C   0  0  0  0  0  0  0  0  0  0  0  0
   10.7545  -20.0718   23.8223 N   0  0  0  0  0  0  0  0  0  0  0  0
   12.0392  -20.1483   24.1166 C   0  0  0  0  0  0  0  0  0  0  0  0
   12.2632  -19.3598   25.1641 N   0  0  0  0  0  0  0  0  0  0  0  0
    9.9657  -16.1075   28.0539 C   0  0  0  0  0  0  0  0  0  0  0  0
    9.9960  -14.7549   28.0922 O   0  0  0  0  0  0  0  0  0  0  0  0
   10.0185  -16.7256   29.1745 O   0  0  0  0  0  0  0  0  0  0  0  0
  2  1  1  6
  2  3  1  0
  3  4  1  0
  5  4  1  0
  6  5  2  0
  7  2  1  0
  8  7  2  0
  9  5  1  0
 10  7  1  0
 11 12  1  1
 11 10  1  0
 12 13  1  0
 13 18  2  0
 14 15  2  0
 14 13  1  0
 15 16  1  0
 16 17  2  0
 18 17  1  0
 19 11  1  0
 20 19  2  0
 21 19  1  0
 22 21  1  0
 23 24  1  0
 22 23  1  6
 24 25  2  0
 25 26  1  0
 27 26  1  0
 28 24  1  0
 28 27  2  0
 29 22  1  0
 29 30  1  0
 31 29  2  0
M  END
$$$$
