EFH.pdb
     RDKit          3D

 31 32  0  0  1  0  0  0  0  0999 V2000
   10.7248  -16.5249   19.2799 N   0  0  0  0  0  0  0  0  0  0  0  0
    9.3827  -16.6269   19.8789 C   0  0  1  0  0  0  0  0  0  0  0  0
    9.1166  -18.0760   20.1035 C   0  0  0  0  0  0  0  0  0  0  0  0
   10.3495  -18.8366   20.4268 C   0  0  0  0  0  0  0  0  0  0  0  0
   10.0885  -20.2787   20.5641 C   0  0  0  0  0  0  0  0  0  0  0  0
   10.7214  -21.0239   21.3521 O   0  0  0  0  0  0  0  0  0  0  0  0
    9.5177  -15.9882   21.2395 C   0  0  0  0  0  0  0  0  0  0  0  0
   10.6604  -15.9196   21.7981 O   0  0  0  0  0  0  0  0  0  0  0  0
    9.1017  -20.9162   19.8111 O   0  0  0  0  0  0  0  0  0  0  0  0
    8.4127  -15.4465   21.9477 N   0  0  0  0  0  0  0  0  0  0  0  0
    8.5473  -14.8373   23.2639 C   0  0  1  0  0  0  0  0  0  0  0  0
    7.3540  -13.9741   23.4832 C   0  0  0  0  0  0  0  0  0  0  0  0
    7.2841  -13.3308   24.8024 C   0  0  0  0  0  0  0  0  0  0  0  0
    8.0811  -12.2642   25.1387 C   0  0  0  0  0  0  0  0  0  0  0  0
    8.0296  -11.6458   26.3728 C   0  0  0  0  0  0  0  0  0  0  0  0
    7.1349  -12.1151   27.3257 C   0  0  0  0  0  0  0  0  0  0  0  0
    6.3239  -13.1838   27.0143 C   0  0  0  0  0  0  0  0  0  0  0  0
    6.4033  -13.7826   25.7595 C   0  0  0  0  0  0  0  0  0  0  0  0
    8.7176  -15.9188   24.2531 C   0  0  0  0  0  0  0  0  0  0  0  0
    7.9014  -16.8825   24.3274 O   0  0  0  0  0  0  0  0  0  0  0  0
    9.7969  -15.9493   25.1772 N   0  0  0  0  0  0  0  0  0  0  0  0
    9.9167  -17.0672   26.1622 C   0  0  1  0  0  0  0  0  0  0  0  0
   11.3008  -17.5976   26.0943 C   0  0  0  0  0  0  0  0  0  0  0  0
   11.6670  -18.3698   24.9058 C   0  0  0  0  0  0  0  0  0  0  0  0
   10.9744  -18.7750   23.8004 C   0  0  0  0  0  0  0  0  0  0  0  0
   11.8558  -19.4220   22.9925 N   0  0  0  0  0  0  0  0  0  0  0  0
   13.0482  -19.4244   23.5592 C   0  0  0  0  0  0  0  0  0  0  0  0
   12.9459  -18.7876   24.7225 N   0  0  0  0  0  0  0  0  0  0  0  0
    9.6300  -16.4520   27.5129 C   0  0  0  0  0  0  0  0  0  0  0  0
    9.4673  -17.1104   28.6842 O   0  0  0  0  0  0  0  0  0  0  0  0
    9.5341  -15.1751   27.5416 O   0  0  0  0  0  0  0  0  0  0  0  0
  2  1  1  6
  2  3  1  0
  3  4  1  0
  5  4  1  0
  6  5  2  0
  7  2  1  0
  8  7  2  0
  9  5  1  0
 10  7  1  0
 11 12  1  1
 11 10  1  0
 12 13  1  0
 13 18  2  0
 14 15  2  0
 14 13  1  0
 15 16  1  0
 16 17  2  0
 18 17  1  0
 19 11  1  0
 20 19  2  0
 21 19  1  0
 22 21  1  0
 23 24  1  0
 22 23  1  1
 24 25  2  0
 25 26  1  0
 27 26  1  0
 28 24  1  0
 28 27  2  0
 29 22  1  0
 29 30  1  0
 31 29  2  0
M  END
$$$$
