EFH.pdb
     RDKit          3D

 31 32  0  0  1  0  0  0  0  0999 V2000
    9.2948  -18.1294   21.1350 N   0  0  0  0  0  0  0  0  0  0  0  0
   10.5129  -17.3126   21.2753 C   0  0  1  0  0  0  0  0  0  0  0  0
   10.7526  -16.6608   19.9567 C   0  0  0  0  0  0  0  0  0  0  0  0
   10.9628  -17.6453   18.8661 C   0  0  0  0  0  0  0  0  0  0  0  0
   11.2342  -16.9906   17.5760 C   0  0  0  0  0  0  0  0  0  0  0  0
   11.3589  -17.6175   16.4952 O   0  0  0  0  0  0  0  0  0  0  0  0
   10.1348  -16.2193   22.2445 C   0  0  0  0  0  0  0  0  0  0  0  0
   10.0205  -15.0189   21.8343 O   0  0  0  0  0  0  0  0  0  0  0  0
   11.3719  -15.6055   17.4758 O   0  0  0  0  0  0  0  0  0  0  0  0
    9.8939  -16.4629   23.6224 N   0  0  0  0  0  0  0  0  0  0  0  0
    9.4788  -15.4134   24.5433 C   0  0  1  0  0  0  0  0  0  0  0  0
    8.2324  -14.8064   23.9998 C   0  0  0  0  0  0  0  0  0  0  0  0
    7.6076  -13.7914   24.8592 C   0  0  0  0  0  0  0  0  0  0  0  0
    6.5170  -14.0705   25.6457 C   0  0  0  0  0  0  0  0  0  0  0  0
    5.9164  -13.1305   26.4604 C   0  0  0  0  0  0  0  0  0  0  0  0
    6.4297  -11.8406   26.4944 C   0  0  0  0  0  0  0  0  0  0  0  0
    7.5231  -11.5339   25.7151 C   0  0  0  0  0  0  0  0  0  0  0  0
    8.1029  -12.5075   24.9056 C   0  0  0  0  0  0  0  0  0  0  0  0
    9.3407  -16.0110   25.8853 C   0  0  0  0  0  0  0  0  0  0  0  0
    9.0883  -15.3025   26.9026 O   0  0  0  0  0  0  0  0  0  0  0  0
    9.4806  -17.4054   26.1215 N   0  0  0  0  0  0  0  0  0  0  0  0
    9.1965  -17.9747   27.4740 C   0  0  1  0  0  0  0  0  0  0  0  0
    8.5547  -19.3002   27.2929 C   0  0  0  0  0  0  0  0  0  0  0  0
    7.5987  -19.4392   26.1931 C   0  0  0  0  0  0  0  0  0  0  0  0
    7.0825  -18.5616   25.2824 C   0  0  0  0  0  0  0  0  0  0  0  0
    6.2731  -19.2752   24.4554 N   0  0  0  0  0  0  0  0  0  0  0  0
    6.2784  -20.5427   24.8246 C   0  0  0  0  0  0  0  0  0  0  0  0
    7.0808  -20.6547   25.8796 N   0  0  0  0  0  0  0  0  0  0  0  0
   10.5414  -18.1039   28.1519 C   0  0  0  0  0  0  0  0  0  0  0  0
   10.7724  -18.5150   29.4206 O   0  0  0  0  0  0  0  0  0  0  0  0
   11.5618  -17.7906   27.4438 O   0  0  0  0  0  0  0  0  0  0  0  0
  2  1  1  6
  2  3  1  0
  3  4  1  0
  5  4  1  0
  6  5  2  0
  7  2  1  0
  8  7  2  0
  9  5  1  0
 10  7  1  0
 11 12  1  6
 11 10  1  0
 12 13  1  0
 13 18  2  0
 14 15  2  0
 14 13  1  0
 15 16  1  0
 16 17  2  0
 18 17  1  0
 19 11  1  0
 20 19  2  0
 21 19  1  0
 22 21  1  0
 23 24  1  0
 22 23  1  6
 24 25  2  0
 25 26  1  0
 27 26  1  0
 28 24  1  0
 28 27  2  0
 29 22  1  0
 29 30  1  0
 31 29  2  0
M  END
$$$$
