EFH.pdb
     RDKit          3D

 31 32  0  0  1  0  0  0  0  0999 V2000
    8.0520  -15.0381   19.5509 N   0  0  0  0  0  0  0  0  0  0  0  0
    7.5618  -16.1202   20.4223 C   0  0  1  0  0  0  0  0  0  0  0  0
    8.1959  -17.3819   19.9459 C   0  0  0  0  0  0  0  0  0  0  0  0
    7.7507  -17.7619   18.5820 C   0  0  0  0  0  0  0  0  0  0  0  0
    8.8538  -18.3038   17.7720 C   0  0  0  0  0  0  0  0  0  0  0  0
   10.0419  -18.3640   18.1739 O   0  0  0  0  0  0  0  0  0  0  0  0
    8.1481  -15.8181   21.7796 C   0  0  0  0  0  0  0  0  0  0  0  0
    9.3422  -15.3848   21.8733 O   0  0  0  0  0  0  0  0  0  0  0  0
    8.6399  -18.7928   16.4827 O   0  0  0  0  0  0  0  0  0  0  0  0
    7.4226  -15.9953   22.9872 N   0  0  0  0  0  0  0  0  0  0  0  0
    7.9682  -15.6374   24.2895 C   0  0  1  0  0  0  0  0  0  0  0  0
    6.8293  -15.2241   25.1552 C   0  0  0  0  0  0  0  0  0  0  0  0
    6.9538  -13.8875   25.7527 C   0  0  0  0  0  0  0  0  0  0  0  0
    6.4415  -12.7659   25.1481 C   0  0  0  0  0  0  0  0  0  0  0  0
    6.5476  -11.5016   25.6942 C   0  0  0  0  0  0  0  0  0  0  0  0
    7.2001  -11.3445   26.9100 C   0  0  0  0  0  0  0  0  0  0  0  0
    7.7234  -12.4531   27.5377 C   0  0  0  0  0  0  0  0  0  0  0  0
    7.5974  -13.7127   26.9574 C   0  0  0  0  0  0  0  0  0  0  0  0
    8.7413  -16.7887   24.7935 C   0  0  0  0  0  0  0  0  0  0  0  0
    8.2918  -17.9693   24.7239 O   0  0  0  0  0  0  0  0  0  0  0  0
   10.0266  -16.6496   25.3837 N   0  0  0  0  0  0  0  0  0  0  0  0
   10.7511  -17.8475   25.9074 C   0  0  1  0  0  0  0  0  0  0  0  0
   12.1410  -17.8110   25.3894 C   0  0  0  0  0  0  0  0  0  0  0  0
   13.0682  -18.8317   25.8806 C   0  0  0  0  0  0  0  0  0  0  0  0
   12.9143  -19.9391   26.6653 C   0  0  0  0  0  0  0  0  0  0  0  0
   14.1284  -20.5461   26.7410 N   0  0  0  0  0  0  0  0  0  0  0  0
   15.0070  -19.8565   26.0372 C   0  0  0  0  0  0  0  0  0  0  0  0
   14.3743  -18.8123   25.5093 N   0  0  0  0  0  0  0  0  0  0  0  0
   10.7224  -17.7145   27.4129 C   0  0  0  0  0  0  0  0  0  0  0  0
   10.1382  -16.7243   28.1271 O   0  0  0  0  0  0  0  0  0  0  0  0
   11.3139  -18.6400   28.0718 O   0  0  0  0  0  0  0  0  0  0  0  0
  2  1  1  6
  2  3  1  0
  3  4  1  0
  5  4  1  0
  6  5  2  0
  7  2  1  0
  8  7  2  0
  9  5  1  0
 10  7  1  0
 11 12  1  1
 11 10  1  0
 12 13  1  0
 13 18  2  0
 14 15  2  0
 14 13  1  0
 15 16  1  0
 16 17  2  0
 18 17  1  0
 19 11  1  0
 20 19  2  0
 21 19  1  0
 22 21  1  0
 23 24  1  0
 22 23  1  6
 24 25  2  0
 25 26  1  0
 27 26  1  0
 28 24  1  0
 28 27  2  0
 29 22  1  0
 29 30  1  0
 31 29  2  0
M  END
$$$$
