EFH.pdb
     RDKit          3D

 31 32  0  0  1  0  0  0  0  0999 V2000
    9.2812  -18.5538   21.0317 N   0  0  0  0  0  0  0  0  0  0  0  0
    9.1663  -17.2339   20.3874 C   0  0  1  0  0  0  0  0  0  0  0  0
    7.9297  -17.2628   19.5561 C   0  0  0  0  0  0  0  0  0  0  0  0
    6.7728  -17.8477   20.2789 C   0  0  0  0  0  0  0  0  0  0  0  0
    5.5414  -17.8084   19.4735 C   0  0  0  0  0  0  0  0  0  0  0  0
    5.2277  -18.6993   18.6461 O   0  0  0  0  0  0  0  0  0  0  0  0
    8.9117  -16.2716   21.5217 C   0  0  0  0  0  0  0  0  0  0  0  0
    8.7706  -15.0290   21.2805 O   0  0  0  0  0  0  0  0  0  0  0  0
    4.6309  -16.7568   19.5842 O   0  0  0  0  0  0  0  0  0  0  0  0
    8.8189  -16.6871   22.8762 N   0  0  0  0  0  0  0  0  0  0  0  0
    8.6869  -15.7440   23.9784 C   0  0  1  0  0  0  0  0  0  0  0  0
    7.4447  -14.9558   23.7485 C   0  0  0  0  0  0  0  0  0  0  0  0
    7.1510  -13.9429   24.7717 C   0  0  0  0  0  0  0  0  0  0  0  0
    6.1442  -14.1037   25.6917 C   0  0  0  0  0  0  0  0  0  0  0  0
    5.8535  -13.1637   26.6612 C   0  0  0  0  0  0  0  0  0  0  0  0
    6.6068  -11.9985   26.7185 C   0  0  0  0  0  0  0  0  0  0  0  0
    7.6227  -11.8119   25.8074 C   0  0  0  0  0  0  0  0  0  0  0  0
    7.8874  -12.7816   24.8435 C   0  0  0  0  0  0  0  0  0  0  0  0
    8.7086  -16.5090   25.2399 C   0  0  0  0  0  0  0  0  0  0  0  0
    7.6415  -16.8180   25.8451 O   0  0  0  0  0  0  0  0  0  0  0  0
    9.9153  -16.9442   25.8517 N   0  0  0  0  0  0  0  0  0  0  0  0
    9.8763  -17.7532   27.1080 C   0  0  1  0  0  0  0  0  0  0  0  0
   10.5344  -19.0559   26.8403 C   0  0  0  0  0  0  0  0  0  0  0  0
    9.9874  -19.8750   25.7574 C   0  0  0  0  0  0  0  0  0  0  0  0
    8.8800  -19.7647   24.9653 C   0  0  0  0  0  0  0  0  0  0  0  0
    8.9149  -20.8000   24.0848 N   0  0  0  0  0  0  0  0  0  0  0  0
    9.9928  -21.5287   24.3086 C   0  0  0  0  0  0  0  0  0  0  0  0
   10.6527  -20.9761   25.3227 N   0  0  0  0  0  0  0  0  0  0  0  0
   10.6442  -16.9504   28.1330 C   0  0  0  0  0  0  0  0  0  0  0  0
   11.2360  -15.7482   27.9420 O   0  0  0  0  0  0  0  0  0  0  0  0
   10.7381  -17.4695   29.3002 O   0  0  0  0  0  0  0  0  0  0  0  0
  2  1  1  1
  2  3  1  0
  3  4  1  0
  5  4  1  0
  6  5  2  0
  7  2  1  0
  8  7  2  0
  9  5  1  0
 10  7  1  0
 11 12  1  6
 11 10  1  0
 12 13  1  0
 13 18  2  0
 14 15  2  0
 14 13  1  0
 15 16  1  0
 16 17  2  0
 18 17  1  0
 19 11  1  0
 20 19  2  0
 21 19  1  0
 22 21  1  0
 23 24  1  0
 22 23  1  6
 24 25  2  0
 25 26  1  0
 27 26  1  0
 28 24  1  0
 28 27  2  0
 29 22  1  0
 29 30  1  0
 31 29  2  0
M  END
$$$$
