NVN.pdb
     RDKit          3D

 24 23  0  0  1  0  0  0  0  0999 V2000
   27.3985  -17.2126  -18.9855 N   0  0  0  0  0  0  0  0  0  0  0  0
   26.1918  -16.4723  -18.8609 C   0  0  0  0  0  0  0  0  0  0  0  0
   25.3682  -16.5274  -19.8127 O   0  0  0  0  0  0  0  0  0  0  0  0
   25.8765  -15.6591  -17.6701 C   0  0  0  0  0  0  0  0  0  0  0  0
   25.0722  -14.4309  -18.0904 C   0  0  2  0  0  0  0  0  0  0  0  0
   25.7535  -13.7446  -19.1849 N   0  0  0  0  0  0  0  0  0  0  0  0
   24.9495  -13.5024  -16.9542 C   0  0  0  0  0  0  0  0  0  0  0  0
   24.4301  -13.9525  -15.8763 O   0  0  0  0  0  0  0  0  0  0  0  0
   27.6018  -11.4762  -15.4526 C   0  0  0  0  0  0  0  0  0  0  0  0
   26.4890  -10.5048  -15.7154 C   0  0  1  0  0  0  0  0  0  0  0  0
   26.8107   -9.7679  -17.0010 C   0  0  0  0  0  0  0  0  0  0  0  0
   25.1761  -11.2638  -15.8396 C   0  0  2  0  0  0  0  0  0  0  0  0
   25.3700  -12.1682  -16.9978 N   0  0  0  0  0  0  0  0  0  0  0  0
   24.1308  -10.2994  -16.2365 C   0  0  0  0  0  0  0  0  0  0  0  0
   23.7922  -10.2945  -17.4787 O   0  0  0  0  0  0  0  0  0  0  0  0
   19.9204   -7.9803  -17.9157 N   0  0  0  0  0  0  0  0  0  0  0  0
   20.0973   -8.4886  -16.6213 C   0  0  0  0  0  0  0  0  0  0  0  0
   19.2857   -8.1117  -15.7106 O   0  0  0  0  0  0  0  0  0  0  0  0
   21.1531   -9.4415  -16.1982 C   0  0  0  0  0  0  0  0  0  0  0  0
   22.3647   -8.5860  -15.8191 C   0  0  2  0  0  0  0  0  0  0  0  0
   23.4754   -9.3874  -15.3678 N   0  0  0  0  0  0  0  0  0  0  0  0
   21.8603   -7.7043  -14.7140 C   0  0  0  0  0  0  0  0  0  0  0  0
   21.1118   -6.7199  -14.9378 O   0  0  0  0  0  0  0  0  0  0  0  0
   22.2061   -7.9466  -13.3931 O   0  0  0  0  0  0  0  0  0  0  0  0
  1  2  1  0
  2  3  2  0
  4  2  1  0
  5  4  1  0
  5  6  1  6
  7  5  1  0
  7  8  2  0
 10  9  1  6
 10 11  1  0
 10 12  1  0
 12 13  1  6
 13  7  1  0
 14 12  1  0
 15 14  2  0
 16 17  1  0
 17 19  1  0
 17 18  2  0
 20 19  1  1
 20 21  1  0
 20 22  1  0
 21 14  1  0
 22 24  1  0
 23 22  2  0
M  END
$$$$
