NVN.pdb
     RDKit          3D

 24 23  0  0  1  0  0  0  0  0999 V2000
   17.4211  -12.2067  -19.1317 N   0  0  0  0  0  0  0  0  0  0  0  0
   17.3333  -10.8452  -18.7338 C   0  0  0  0  0  0  0  0  0  0  0  0
   16.6950  -10.0555  -19.4797 O   0  0  0  0  0  0  0  0  0  0  0  0
   17.9513  -10.3372  -17.4934 C   0  0  0  0  0  0  0  0  0  0  0  0
   18.7228  -11.4642  -16.8102 C   0  0  2  0  0  0  0  0  0  0  0  0
   17.7895  -12.3722  -16.1488 N   0  0  0  0  0  0  0  0  0  0  0  0
   19.6332  -10.9030  -15.7981 C   0  0  0  0  0  0  0  0  0  0  0  0
   19.1786  -10.7514  -14.6130 O   0  0  0  0  0  0  0  0  0  0  0  0
   24.1790   -9.8050  -14.3634 C   0  0  0  0  0  0  0  0  0  0  0  0
   23.1909  -10.5014  -15.2519 C   0  0  1  0  0  0  0  0  0  0  0  0
   23.2110  -11.9764  -14.9011 C   0  0  0  0  0  0  0  0  0  0  0  0
   21.8070   -9.9097  -15.0278 C   0  0  2  0  0  0  0  0  0  0  0  0
   20.9557  -10.5334  -16.0686 N   0  0  0  0  0  0  0  0  0  0  0  0
   21.8713   -8.4706  -15.3516 C   0  0  0  0  0  0  0  0  0  0  0  0
   22.1667   -8.1655  -16.5671 O   0  0  0  0  0  0  0  0  0  0  0  0
   21.7668   -3.4475  -15.7956 N   0  0  0  0  0  0  0  0  0  0  0  0
   20.5229   -4.0761  -15.6445 C   0  0  0  0  0  0  0  0  0  0  0  0
   19.4741   -3.4170  -15.9536 O   0  0  0  0  0  0  0  0  0  0  0  0
   20.3015   -5.4589  -15.1541 C   0  0  0  0  0  0  0  0  0  0  0  0
   21.6918   -6.0297  -14.8627 C   0  0  2  0  0  0  0  0  0  0  0  0
   21.6355   -7.4075  -14.4405 N   0  0  0  0  0  0  0  0  0  0  0  0
   22.2240   -5.1571  -13.7635 C   0  0  0  0  0  0  0  0  0  0  0  0
   21.9447   -5.3641  -12.5558 O   0  0  0  0  0  0  0  0  0  0  0  0
   23.0510   -4.0799  -14.0442 O   0  0  0  0  0  0  0  0  0  0  0  0
  1  2  1  0
  2  3  2  0
  4  2  1  0
  5  4  1  0
  5  6  1  1
  7  5  1  0
  7  8  2  0
 10  9  1  1
 10 11  1  0
 10 12  1  0
 12 13  1  6
 13  7  1  0
 14 12  1  0
 15 14  2  0
 16 17  1  0
 17 19  1  0
 17 18  2  0
 20 19  1  1
 20 21  1  0
 20 22  1  0
 21 14  1  0
 22 24  1  0
 23 22  2  0
M  END
$$$$
