NVN.pdb
     RDKit          3D

 24 23  0  0  1  0  0  0  0  0999 V2000
   20.7956  -17.5317  -18.8076 N   0  0  0  0  0  0  0  0  0  0  0  0
   19.8754  -16.5201  -18.4209 C   0  0  0  0  0  0  0  0  0  0  0  0
   18.7928  -16.4358  -19.0598 O   0  0  0  0  0  0  0  0  0  0  0  0
   20.1413  -15.5847  -17.3105 C   0  0  0  0  0  0  0  0  0  0  0  0
   21.4996  -15.9038  -16.6899 C   0  0  2  0  0  0  0  0  0  0  0  0
   21.4136  -17.1431  -15.9220 N   0  0  0  0  0  0  0  0  0  0  0  0
   21.9026  -14.8144  -15.7849 C   0  0  0  0  0  0  0  0  0  0  0  0
   21.2933  -14.7201  -14.6651 O   0  0  0  0  0  0  0  0  0  0  0  0
   25.2771  -11.4466  -14.5955 C   0  0  0  0  0  0  0  0  0  0  0  0
   24.8022  -12.6367  -15.3758 C   0  0  1  0  0  0  0  0  0  0  0  0
   25.6117  -13.8381  -14.9279 C   0  0  0  0  0  0  0  0  0  0  0  0
   23.3193  -12.8535  -15.1119 C   0  0  2  0  0  0  0  0  0  0  0  0
   22.9087  -13.8901  -16.0886 N   0  0  0  0  0  0  0  0  0  0  0  0
   22.6058  -11.6183  -15.4929 C   0  0  0  0  0  0  0  0  0  0  0  0
   22.7328  -11.2322  -16.7146 O   0  0  0  0  0  0  0  0  0  0  0  0
   17.7898   -7.8691  -14.8847 N   0  0  0  0  0  0  0  0  0  0  0  0
   19.0687   -8.3739  -15.1581 C   0  0  0  0  0  0  0  0  0  0  0  0
   19.7497   -7.8182  -16.0841 O   0  0  0  0  0  0  0  0  0  0  0  0
   19.7220   -9.5100  -14.4622 C   0  0  0  0  0  0  0  0  0  0  0  0
   21.0998   -9.6649  -15.1114 C   0  0  2  0  0  0  0  0  0  0  0  0
   21.7988  -10.8308  -14.6300 N   0  0  0  0  0  0  0  0  0  0  0  0
   21.8294   -8.4104  -14.7281 C   0  0  0  0  0  0  0  0  0  0  0  0
   22.3406   -8.2597  -13.5900 O   0  0  0  0  0  0  0  0  0  0  0  0
   21.9665   -7.3619  -15.6253 O   0  0  0  0  0  0  0  0  0  0  0  0
  1  2  1  0
  2  3  2  0
  4  2  1  0
  5  4  1  0
  5  6  1  1
  7  5  1  0
  7  8  2  0
 10  9  1  1
 10 11  1  0
 10 12  1  0
 12 13  1  6
 13  7  1  0
 14 12  1  0
 15 14  2  0
 16 17  1  0
 17 19  1  0
 17 18  2  0
 20 19  1  1
 20 21  1  0
 20 22  1  0
 21 14  1  0
 22 24  1  0
 23 22  2  0
M  END
$$$$
