NVN.pdb
     RDKit          3D

 24 23  0  0  1  0  0  0  0  0999 V2000
   16.8525  -12.0581  -19.3911 N   0  0  0  0  0  0  0  0  0  0  0  0
   16.6470  -10.6931  -19.0531 C   0  0  0  0  0  0  0  0  0  0  0  0
   15.9249  -10.0009  -19.8190 O   0  0  0  0  0  0  0  0  0  0  0  0
   17.2386  -10.0732  -17.8512 C   0  0  0  0  0  0  0  0  0  0  0  0
   18.0998  -11.1005  -17.1197 C   0  0  2  0  0  0  0  0  0  0  0  0
   17.2438  -12.0537  -16.4185 N   0  0  0  0  0  0  0  0  0  0  0  0
   18.9568  -10.4212  -16.1337 C   0  0  0  0  0  0  0  0  0  0  0  0
   18.4407  -10.1338  -15.0000 O   0  0  0  0  0  0  0  0  0  0  0  0
   23.4720   -9.7267  -14.4853 C   0  0  0  0  0  0  0  0  0  0  0  0
   22.4389  -10.3431  -15.3817 C   0  0  1  0  0  0  0  0  0  0  0  0
   22.2113  -11.7680  -14.9157 C   0  0  0  0  0  0  0  0  0  0  0  0
   21.1528   -9.5341  -15.2995 C   0  0  2  0  0  0  0  0  0  0  0  0
   20.2925  -10.0804  -16.3758 N   0  0  0  0  0  0  0  0  0  0  0  0
   21.4665   -8.1436  -15.6845 C   0  0  0  0  0  0  0  0  0  0  0  0
   21.5646   -7.9023  -16.9454 O   0  0  0  0  0  0  0  0  0  0  0  0
   21.3384   -3.4907  -17.7411 N   0  0  0  0  0  0  0  0  0  0  0  0
   20.9598   -3.8087  -16.4293 C   0  0  0  0  0  0  0  0  0  0  0  0
   20.9163   -2.8654  -15.5701 O   0  0  0  0  0  0  0  0  0  0  0  0
   20.5954   -5.1587  -15.9327 C   0  0  0  0  0  0  0  0  0  0  0  0
   21.8545   -5.7145  -15.2623 C   0  0  2  0  0  0  0  0  0  0  0  0
   21.6659   -7.0625  -14.7859 N   0  0  0  0  0  0  0  0  0  0  0  0
   22.1064   -4.7757  -14.1186 C   0  0  0  0  0  0  0  0  0  0  0  0
   21.4743   -4.8619  -13.0359 O   0  0  0  0  0  0  0  0  0  0  0  0
   23.0552   -3.7690  -14.2170 O   0  0  0  0  0  0  0  0  0  0  0  0
  1  2  1  0
  2  3  2  0
  4  2  1  0
  5  4  1  0
  5  6  1  1
  7  5  1  0
  7  8  2  0
 10  9  1  1
 10 11  1  0
 10 12  1  0
 12 13  1  6
 13  7  1  0
 14 12  1  0
 15 14  2  0
 16 17  1  0
 17 19  1  0
 17 18  2  0
 20 19  1  1
 20 21  1  0
 20 22  1  0
 21 14  1  0
 22 24  1  0
 23 22  2  0
M  END
$$$$
