NVN.pdb
     RDKit          3D

 24 23  0  0  1  0  0  0  0  0999 V2000
   19.1408  -24.8118   -7.0171 N   0  0  0  0  0  0  0  0  0  0  0  0
   18.5964  -24.3661   -8.2518 C   0  0  0  0  0  0  0  0  0  0  0  0
   17.6049  -24.9899   -8.7157 O   0  0  0  0  0  0  0  0  0  0  0  0
   19.1434  -23.2123   -8.9924 C   0  0  0  0  0  0  0  0  0  0  0  0
   20.3615  -22.6635   -8.2528 C   0  0  2  0  0  0  0  0  0  0  0  0
   19.9427  -22.0579   -6.9915 N   0  0  0  0  0  0  0  0  0  0  0  0
   21.0220  -21.6352   -9.0741 C   0  0  0  0  0  0  0  0  0  0  0  0
   20.4959  -20.4704   -9.0988 O   0  0  0  0  0  0  0  0  0  0  0  0
   24.9430  -20.0535  -11.5356 C   0  0  0  0  0  0  0  0  0  0  0  0
   24.2585  -21.0539  -10.6516 C   0  0  1  0  0  0  0  0  0  0  0  0
   24.7884  -20.8673   -9.2432 C   0  0  0  0  0  0  0  0  0  0  0  0
   22.7551  -20.8240  -10.7000 C   0  0  2  0  0  0  0  0  0  0  0  0
   22.1838  -21.8697   -9.8185 N   0  0  0  0  0  0  0  0  0  0  0  0
   22.2926  -21.1355  -12.0672 C   0  0  0  0  0  0  0  0  0  0  0  0
   21.4536  -22.1049  -12.1855 O   0  0  0  0  0  0  0  0  0  0  0  0
   19.9210  -19.7855  -16.3148 N   0  0  0  0  0  0  0  0  0  0  0  0
   19.7595  -19.1218  -15.0905 C   0  0  0  0  0  0  0  0  0  0  0  0
   18.7519  -18.3499  -14.9529 O   0  0  0  0  0  0  0  0  0  0  0  0
   20.6597  -19.2326  -13.9162 C   0  0  0  0  0  0  0  0  0  0  0  0
   21.7653  -20.2098  -14.3242 C   0  0  2  0  0  0  0  0  0  0  0  0
   22.6937  -20.4588  -13.2492 N   0  0  0  0  0  0  0  0  0  0  0  0
   22.4508  -19.5296  -15.4733 C   0  0  0  0  0  0  0  0  0  0  0  0
   21.9665  -19.5330  -16.6329 O   0  0  0  0  0  0  0  0  0  0  0  0
   23.6557  -18.8667  -15.2946 O   0  0  0  0  0  0  0  0  0  0  0  0
  1  2  1  0
  2  3  2  0
  4  2  1  0
  5  4  1  0
  5  6  1  1
  7  5  1  0
  7  8  2  0
 10  9  1  6
 10 11  1  0
 10 12  1  0
 12 13  1  1
 13  7  1  0
 14 12  1  0
 15 14  2  0
 16 17  1  0
 17 19  1  0
 17 18  2  0
 20 19  1  1
 20 21  1  0
 20 22  1  0
 21 14  1  0
 22 24  1  0
 23 22  2  0
M  END
$$$$
