NVN.pdb
     RDKit          3D

 24 23  0  0  1  0  0  0  0  0999 V2000
   15.7268  -12.2100  -15.5163 N   0  0  0  0  0  0  0  0  0  0  0  0
   16.6732  -11.5376  -14.6967 C   0  0  0  0  0  0  0  0  0  0  0  0
   16.9051  -12.0156  -13.5543 O   0  0  0  0  0  0  0  0  0  0  0  0
   17.3844  -10.3211  -15.1361 C   0  0  0  0  0  0  0  0  0  0  0  0
   16.7692   -9.8139  -16.4385 C   0  0  2  0  0  0  0  0  0  0  0  0
   17.0980  -10.7276  -17.5294 N   0  0  0  0  0  0  0  0  0  0  0  0
   17.3087   -8.4818  -16.7592 C   0  0  0  0  0  0  0  0  0  0  0  0
   18.3245   -8.4260  -17.5332 O   0  0  0  0  0  0  0  0  0  0  0  0
   16.4700   -3.6482  -16.9174 C   0  0  0  0  0  0  0  0  0  0  0  0
   16.0412   -5.0759  -16.7480 C   0  0  1  0  0  0  0  0  0  0  0  0
   15.1422   -5.4317  -17.9161 C   0  0  0  0  0  0  0  0  0  0  0  0
   17.2710   -5.9715  -16.7183 C   0  0  2  0  0  0  0  0  0  0  0  0
   16.7683   -7.2897  -16.2637 N   0  0  0  0  0  0  0  0  0  0  0  0
   18.1654   -5.4781  -15.6520 C   0  0  0  0  0  0  0  0  0  0  0  0
   17.9412   -5.9165  -14.4623 O   0  0  0  0  0  0  0  0  0  0  0  0
   22.2782   -4.3951  -12.9531 N   0  0  0  0  0  0  0  0  0  0  0  0
   22.1190   -5.5659  -13.7076 C   0  0  0  0  0  0  0  0  0  0  0  0
   22.8846   -6.5551  -13.4522 O   0  0  0  0  0  0  0  0  0  0  0  0
   21.1278   -5.7731  -14.7922 C   0  0  0  0  0  0  0  0  0  0  0  0
   20.3152   -4.4781  -14.8726 C   0  0  2  0  0  0  0  0  0  0  0  0
   19.2416   -4.5695  -15.8311 N   0  0  0  0  0  0  0  0  0  0  0  0
   21.3167   -3.4416  -15.2918 C   0  0  0  0  0  0  0  0  0  0  0  0
   22.1683   -2.9782  -14.4923 O   0  0  0  0  0  0  0  0  0  0  0  0
   21.3378   -2.9530  -16.5894 O   0  0  0  0  0  0  0  0  0  0  0  0
  1  2  1  0
  2  3  2  0
  4  2  1  0
  5  4  1  0
  5  6  1  6
  7  5  1  0
  7  8  2  0
 10  9  1  6
 10 11  1  0
 10 12  1  0
 12 13  1  1
 13  7  1  0
 14 12  1  0
 15 14  2  0
 16 17  1  0
 17 19  1  0
 17 18  2  0
 20 19  1  6
 20 21  1  0
 20 22  1  0
 21 14  1  0
 22 24  1  0
 23 22  2  0
M  END
$$$$
