NVN.pdb
     RDKit          3D

 24 23  0  0  1  0  0  0  0  0999 V2000
   27.0952  -21.1874  -15.8724 N   0  0  0  0  0  0  0  0  0  0  0  0
   26.0464  -20.3404  -15.4229 C   0  0  0  0  0  0  0  0  0  0  0  0
   26.0581  -19.9817  -14.2152 O   0  0  0  0  0  0  0  0  0  0  0  0
   24.9653  -19.8720  -16.3120 C   0  0  0  0  0  0  0  0  0  0  0  0
   23.6171  -20.0696  -15.6226 C   0  0  2  0  0  0  0  0  0  0  0  0
   23.3726  -21.4943  -15.4139 N   0  0  0  0  0  0  0  0  0  0  0  0
   22.5408  -19.5243  -16.4665 C   0  0  0  0  0  0  0  0  0  0  0  0
   22.2934  -20.1222  -17.5690 O   0  0  0  0  0  0  0  0  0  0  0  0
   18.3028  -17.4545  -17.0117 C   0  0  0  0  0  0  0  0  0  0  0  0
   19.4248  -18.1484  -16.2970 C   0  0  1  0  0  0  0  0  0  0  0  0
   19.1164  -19.6329  -16.2809 C   0  0  0  0  0  0  0  0  0  0  0  0
   20.7324  -17.8742  -17.0253 C   0  0  2  0  0  0  0  0  0  0  0  0
   21.7852  -18.3975  -16.1226 N   0  0  0  0  0  0  0  0  0  0  0  0
   20.9225  -16.4110  -17.0804 C   0  0  0  0  0  0  0  0  0  0  0  0
   20.7439  -15.7644  -15.9815 O   0  0  0  0  0  0  0  0  0  0  0  0
   21.6658  -11.4975  -18.1528 N   0  0  0  0  0  0  0  0  0  0  0  0
   21.9336  -12.1842  -19.3453 C   0  0  0  0  0  0  0  0  0  0  0  0
   22.2732  -11.5018  -20.3695 O   0  0  0  0  0  0  0  0  0  0  0  0
   21.8626  -13.6539  -19.5369 C   0  0  0  0  0  0  0  0  0  0  0  0
   21.3781  -14.2291  -18.2034 C   0  0  2  0  0  0  0  0  0  0  0  0
   21.2831  -15.6677  -18.2352 N   0  0  0  0  0  0  0  0  0  0  0  0
   20.0248  -13.6102  -18.0066 C   0  0  0  0  0  0  0  0  0  0  0  0
   19.8861  -12.4050  -17.6789 O   0  0  0  0  0  0  0  0  0  0  0  0
   18.8675  -14.3541  -18.1807 O   0  0  0  0  0  0  0  0  0  0  0  0
  1  2  1  0
  2  3  2  0
  4  2  1  0
  5  4  1  0
  5  6  1  6
  7  5  1  0
  7  8  2  0
 10  9  1  6
 10 11  1  0
 10 12  1  0
 12 13  1  1
 13  7  1  0
 14 12  1  0
 15 14  2  0
 16 17  1  0
 17 19  1  0
 17 18  2  0
 20 19  1  6
 20 21  1  0
 20 22  1  0
 21 14  1  0
 22 24  1  0
 23 22  2  0
M  END
$$$$
