NVN.pdb
     RDKit          3D

 24 23  0  0  1  0  0  0  0  0999 V2000
   20.9101  -13.1560  -20.8030 N   0  0  0  0  0  0  0  0  0  0  0  0
   20.4690  -11.8060  -20.8532 C   0  0  0  0  0  0  0  0  0  0  0  0
   20.3802  -11.2590  -21.9847 O   0  0  0  0  0  0  0  0  0  0  0  0
   20.1130  -11.0396  -19.6430 C   0  0  0  0  0  0  0  0  0  0  0  0
   20.3565  -11.9002  -18.4052 C   0  0  2  0  0  0  0  0  0  0  0  0
   19.3347  -12.9401  -18.3171 N   0  0  0  0  0  0  0  0  0  0  0  0
   20.2855  -11.0644  -17.1950 C   0  0  0  0  0  0  0  0  0  0  0  0
   19.1942  -11.0793  -16.5294 O   0  0  0  0  0  0  0  0  0  0  0  0
   22.6765   -8.8425  -13.5811 C   0  0  0  0  0  0  0  0  0  0  0  0
   22.5767   -9.7414  -14.7781 C   0  0  1  0  0  0  0  0  0  0  0  0
   22.6867  -11.1738  -14.2929 C   0  0  0  0  0  0  0  0  0  0  0  0
   21.2448   -9.5063  -15.4754 C   0  0  2  0  0  0  0  0  0  0  0  0
   21.3428  -10.2657  -16.7445 N   0  0  0  0  0  0  0  0  0  0  0  0
   21.1748   -8.0797  -15.8498 C   0  0  0  0  0  0  0  0  0  0  0  0
   22.0357   -7.6671  -16.7136 O   0  0  0  0  0  0  0  0  0  0  0  0
   19.3147   -3.7428  -17.6093 N   0  0  0  0  0  0  0  0  0  0  0  0
   19.0056   -5.0110  -18.1206 C   0  0  0  0  0  0  0  0  0  0  0  0
   18.4745   -5.0795  -19.2795 O   0  0  0  0  0  0  0  0  0  0  0  0
   19.2420   -6.3058  -17.4355 C   0  0  0  0  0  0  0  0  0  0  0  0
   19.8814   -5.9585  -16.0885 C   0  0  2  0  0  0  0  0  0  0  0  0
   20.2440   -7.1365  -15.3399 N   0  0  0  0  0  0  0  0  0  0  0  0
   18.8212   -5.1759  -15.3697 C   0  0  0  0  0  0  0  0  0  0  0  0
   17.7337   -5.6977  -15.0170 O   0  0  0  0  0  0  0  0  0  0  0  0
   19.0057   -3.8354  -15.0665 O   0  0  0  0  0  0  0  0  0  0  0  0
  1  2  1  0
  2  3  2  0
  4  2  1  0
  5  4  1  0
  5  6  1  1
  7  5  1  0
  7  8  2  0
 10  9  1  1
 10 11  1  0
 10 12  1  0
 12 13  1  6
 13  7  1  0
 14 12  1  0
 15 14  2  0
 16 17  1  0
 17 19  1  0
 17 18  2  0
 20 19  1  6
 20 21  1  0
 20 22  1  0
 21 14  1  0
 22 24  1  0
 23 22  2  0
M  END
$$$$
