NVN.pdb
     RDKit          3D

 24 23  0  0  1  0  0  0  0  0999 V2000
   16.6509  -11.4730  -18.3712 N   0  0  0  0  0  0  0  0  0  0  0  0
   16.2737  -10.5335  -17.3739 C   0  0  0  0  0  0  0  0  0  0  0  0
   15.1095  -10.0549  -17.4284 O   0  0  0  0  0  0  0  0  0  0  0  0
   17.1854  -10.1118  -16.2923 C   0  0  0  0  0  0  0  0  0  0  0  0
   18.5325  -10.8114  -16.4599 C   0  0  2  0  0  0  0  0  0  0  0  0
   18.4141  -12.2129  -16.0666 N   0  0  0  0  0  0  0  0  0  0  0  0
   19.5404  -10.1640  -15.6037 C   0  0  0  0  0  0  0  0  0  0  0  0
   19.4808  -10.3888  -14.3467 O   0  0  0  0  0  0  0  0  0  0  0  0
   23.9402   -8.2111  -15.0848 C   0  0  0  0  0  0  0  0  0  0  0  0
   22.8859   -9.0475  -15.7478 C   0  0  1  0  0  0  0  0  0  0  0  0
   23.2091  -10.5035  -15.4743 C   0  0  0  0  0  0  0  0  0  0  0  0
   21.5217   -8.6798  -15.1831 C   0  0  2  0  0  0  0  0  0  0  0  0
   20.5479   -9.3259  -16.0949 N   0  0  0  0  0  0  0  0  0  0  0  0
   21.3407   -7.2235  -15.3470 C   0  0  0  0  0  0  0  0  0  0  0  0
   21.3248   -6.7765  -16.5543 O   0  0  0  0  0  0  0  0  0  0  0  0
   20.7231   -2.1923  -15.0502 N   0  0  0  0  0  0  0  0  0  0  0  0
   19.7176   -2.8755  -14.3520 C   0  0  0  0  0  0  0  0  0  0  0  0
   18.6742   -2.2244  -14.0093 O   0  0  0  0  0  0  0  0  0  0  0  0
   19.7461   -4.3083  -13.9674 C   0  0  0  0  0  0  0  0  0  0  0  0
   21.0410   -4.8759  -14.5546 C   0  0  2  0  0  0  0  0  0  0  0  0
   21.1837   -6.2866  -14.2918 N   0  0  0  0  0  0  0  0  0  0  0  0
   22.1265   -4.0946  -13.8732 C   0  0  0  0  0  0  0  0  0  0  0  0
   22.5968   -4.4410  -12.7605 O   0  0  0  0  0  0  0  0  0  0  0  0
   22.6542   -2.9507  -14.4529 O   0  0  0  0  0  0  0  0  0  0  0  0
  1  2  1  0
  2  3  2  0
  4  2  1  0
  5  4  1  0
  5  6  1  1
  7  5  1  0
  7  8  2  0
 10  9  1  1
 10 11  1  0
 10 12  1  0
 12 13  1  6
 13  7  1  0
 14 12  1  0
 15 14  2  0
 16 17  1  0
 17 19  1  0
 17 18  2  0
 20 19  1  1
 20 21  1  0
 20 22  1  0
 21 14  1  0
 22 24  1  0
 23 22  2  0
M  END
$$$$
