NVN.pdb
     RDKit          3D

 24 23  0  0  1  0  0  0  0  0999 V2000
   22.2240  -15.5912  -19.9708 N   0  0  0  0  0  0  0  0  0  0  0  0
   21.2910  -14.5421  -19.7507 C   0  0  0  0  0  0  0  0  0  0  0  0
   20.3538  -14.4060  -20.5816 O   0  0  0  0  0  0  0  0  0  0  0  0
   21.3812  -13.6260  -18.5969 C   0  0  0  0  0  0  0  0  0  0  0  0
   22.5605  -14.0315  -17.7155 C   0  0  2  0  0  0  0  0  0  0  0  0
   22.2322  -15.2499  -16.9801 N   0  0  0  0  0  0  0  0  0  0  0  0
   22.8518  -12.9601  -16.7484 C   0  0  0  0  0  0  0  0  0  0  0  0
   22.1243  -12.8968  -15.6992 O   0  0  0  0  0  0  0  0  0  0  0  0
   25.9143   -9.3951  -15.2617 C   0  0  0  0  0  0  0  0  0  0  0  0
   25.5993  -10.6134  -16.0787 C   0  0  1  0  0  0  0  0  0  0  0  0
   26.4868  -11.7416  -15.5900 C   0  0  0  0  0  0  0  0  0  0  0  0
   24.1293  -10.9679  -15.9091 C   0  0  2  0  0  0  0  0  0  0  0  0
   23.8748  -12.0206  -16.9210 N   0  0  0  0  0  0  0  0  0  0  0  0
   23.3301   -9.7960  -16.3193 C   0  0  0  0  0  0  0  0  0  0  0  0
   23.4479   -9.4177  -17.5443 O   0  0  0  0  0  0  0  0  0  0  0  0
   18.4160   -6.5635  -16.1937 N   0  0  0  0  0  0  0  0  0  0  0  0
   19.7497   -6.5291  -15.7634 C   0  0  0  0  0  0  0  0  0  0  0  0
   20.4164   -5.4572  -15.9550 O   0  0  0  0  0  0  0  0  0  0  0  0
   20.4755   -7.6357  -15.0922 C   0  0  0  0  0  0  0  0  0  0  0  0
   21.6724   -7.9595  -15.9903 C   0  0  2  0  0  0  0  0  0  0  0  0
   22.4511   -9.0612  -15.4807 N   0  0  0  0  0  0  0  0  0  0  0  0
   22.4798   -6.6943  -15.9964 C   0  0  0  0  0  0  0  0  0  0  0  0
   23.1910   -6.3545  -15.0176 O   0  0  0  0  0  0  0  0  0  0  0  0
   22.4695   -5.8461  -17.0935 O   0  0  0  0  0  0  0  0  0  0  0  0
  1  2  1  0
  2  3  2  0
  4  2  1  0
  5  4  1  0
  5  6  1  1
  7  5  1  0
  7  8  2  0
 10  9  1  1
 10 11  1  0
 10 12  1  0
 12 13  1  6
 13  7  1  0
 14 12  1  0
 15 14  2  0
 16 17  1  0
 17 19  1  0
 17 18  2  0
 20 19  1  1
 20 21  1  0
 20 22  1  0
 21 14  1  0
 22 24  1  0
 23 22  2  0
M  END
$$$$
