NVN.pdb
     RDKit          3D

 24 23  0  0  1  0  0  0  0  0999 V2000
   12.8087  -13.4949    5.4013 N   0  0  0  0  0  0  0  0  0  0  0  0
   13.9731  -12.9909    6.0414 C   0  0  0  0  0  0  0  0  0  0  0  0
   13.8610  -11.9325    6.7157 O   0  0  0  0  0  0  0  0  0  0  0  0
   15.2857  -13.6594    5.9469 C   0  0  0  0  0  0  0  0  0  0  0  0
   16.3669  -12.6204    5.6581 C   0  0  2  0  0  0  0  0  0  0  0  0
   16.2883  -12.1999    4.2617 N   0  0  0  0  0  0  0  0  0  0  0  0
   17.6968  -13.2037    5.9016 C   0  0  0  0  0  0  0  0  0  0  0  0
   18.1953  -13.9422    4.9849 O   0  0  0  0  0  0  0  0  0  0  0  0
   21.8991  -12.7710    8.3657 C   0  0  0  0  0  0  0  0  0  0  0  0
   20.5575  -12.2979    7.8889 C   0  0  1  0  0  0  0  0  0  0  0  0
   20.7858  -11.1422    6.9342 C   0  0  0  0  0  0  0  0  0  0  0  0
   19.8378  -13.4429    7.1916 C   0  0  2  0  0  0  0  0  0  0  0  0
   18.4314  -12.9899    7.0735 N   0  0  0  0  0  0  0  0  0  0  0  0
   19.8259  -14.5980    8.1113 C   0  0  0  0  0  0  0  0  0  0  0  0
   19.2482  -14.4239    9.2486 O   0  0  0  0  0  0  0  0  0  0  0  0
   19.1286  -19.8664    9.7166 N   0  0  0  0  0  0  0  0  0  0  0  0
   20.3281  -19.3065    9.2550 C   0  0  0  0  0  0  0  0  0  0  0  0
   21.4163  -19.6683    9.8162 O   0  0  0  0  0  0  0  0  0  0  0  0
   20.4600  -18.3182    8.1560 C   0  0  0  0  0  0  0  0  0  0  0  0
   20.3277  -16.9407    8.8108 C   0  0  2  0  0  0  0  0  0  0  0  0
   20.3937  -15.8719    7.8449 N   0  0  0  0  0  0  0  0  0  0  0  0
   21.4880  -16.8727    9.7606 C   0  0  0  0  0  0  0  0  0  0  0  0
   22.6234  -16.4763    9.3961 O   0  0  0  0  0  0  0  0  0  0  0  0
   21.3471  -17.2491   11.0878 O   0  0  0  0  0  0  0  0  0  0  0  0
  1  2  1  0
  2  3  2  0
  4  2  1  0
  5  4  1  0
  5  6  1  6
  7  5  1  0
  7  8  2  0
 10  9  1  6
 10 11  1  0
 10 12  1  0
 12 13  1  1
 13  7  1  0
 14 12  1  0
 15 14  2  0
 16 17  1  0
 17 19  1  0
 17 18  2  0
 20 19  1  6
 20 21  1  0
 20 22  1  0
 21 14  1  0
 22 24  1  0
 23 22  2  0
M  END
$$$$
