NVN.pdb
     RDKit          3D

 24 23  0  0  1  0  0  0  0  0999 V2000
   19.8381  -14.8028  -18.6500 N   0  0  0  0  0  0  0  0  0  0  0  0
   20.4349  -15.2603  -17.4442 C   0  0  0  0  0  0  0  0  0  0  0  0
   20.0546  -16.3702  -16.9851 O   0  0  0  0  0  0  0  0  0  0  0  0
   21.4717  -14.4916  -16.7279 C   0  0  0  0  0  0  0  0  0  0  0  0
   21.7003  -13.1595  -17.4387 C   0  0  2  0  0  0  0  0  0  0  0  0
   22.5992  -13.3524  -18.5735 N   0  0  0  0  0  0  0  0  0  0  0  0
   22.3137  -12.1969  -16.5085 C   0  0  0  0  0  0  0  0  0  0  0  0
   21.6843  -11.9368  -15.4266 O   0  0  0  0  0  0  0  0  0  0  0  0
   26.2589   -9.5218  -15.2497 C   0  0  0  0  0  0  0  0  0  0  0  0
   25.6024  -10.6198  -16.0335 C   0  0  1  0  0  0  0  0  0  0  0  0
   26.2002  -11.9365  -15.5773 C   0  0  0  0  0  0  0  0  0  0  0  0
   24.1018  -10.5901  -15.7830 C   0  0  2  0  0  0  0  0  0  0  0  0
   23.5376  -11.5622  -16.7494 N   0  0  0  0  0  0  0  0  0  0  0  0
   23.6005   -9.2621  -16.1896 C   0  0  0  0  0  0  0  0  0  0  0  0
   23.4994   -9.0462  -17.4548 O   0  0  0  0  0  0  0  0  0  0  0  0
   21.0154   -5.4217  -18.1862 N   0  0  0  0  0  0  0  0  0  0  0  0
   20.7330   -5.9986  -16.9402 C   0  0  0  0  0  0  0  0  0  0  0  0
   19.9726   -5.3583  -16.1390 O   0  0  0  0  0  0  0  0  0  0  0  0
   21.2380   -7.3060  -16.4529 C   0  0  0  0  0  0  0  0  0  0  0  0
   22.5882   -7.0157  -15.7922 C   0  0  2  0  0  0  0  0  0  0  0  0
   23.2243   -8.2155  -15.3070 N   0  0  0  0  0  0  0  0  0  0  0  0
   22.2504   -6.0950  -14.6559 C   0  0  0  0  0  0  0  0  0  0  0  0
   21.9754   -6.5277  -13.5085 O   0  0  0  0  0  0  0  0  0  0  0  0
   22.2291   -4.7198  -14.8335 O   0  0  0  0  0  0  0  0  0  0  0  0
  1  2  1  0
  2  3  2  0
  4  2  1  0
  5  4  1  0
  5  6  1  6
  7  5  1  0
  7  8  2  0
 10  9  1  1
 10 11  1  0
 10 12  1  0
 12 13  1  6
 13  7  1  0
 14 12  1  0
 15 14  2  0
 16 17  1  0
 17 19  1  0
 17 18  2  0
 20 19  1  1
 20 21  1  0
 20 22  1  0
 21 14  1  0
 22 24  1  0
 23 22  2  0
M  END
$$$$
