YII.pdb
     RDKit          3D

 29 29  0  0  1  0  0  0  0  0999 V2000
   12.6702  -23.1362   17.1876 O   0  0  0  0  0  0  0  0  0  0  0  0
   12.5798  -22.0343   18.0582 C   0  0  0  0  0  0  0  0  0  0  0  0
   13.6602  -21.1961   18.2027 C   0  0  0  0  0  0  0  0  0  0  0  0
   13.5802  -20.1178   19.0509 C   0  0  0  0  0  0  0  0  0  0  0  0
   12.4503  -19.8404   19.7690 C   0  0  0  0  0  0  0  0  0  0  0  0
   12.3477  -18.6722   20.6951 C   0  0  0  0  0  0  0  0  0  0  0  0
   11.3688  -17.7088   20.0778 C   0  0  2  0  0  0  0  0  0  0  0  0
   11.9694  -17.1744   18.8797 N   0  0  0  0  0  0  0  0  0  0  0  0
   10.9627  -16.6350   21.0230 C   0  0  0  0  0  0  0  0  0  0  0  0
   11.8488  -15.8668   21.4752 O   0  0  0  0  0  0  0  0  0  0  0  0
   11.3865  -20.6948   19.6049 C   0  0  0  0  0  0  0  0  0  0  0  0
   11.4342  -21.7788   18.7670 C   0  0  0  0  0  0  0  0  0  0  0  0
    6.7279  -13.6395   20.1278 C   0  0  0  0  0  0  0  0  0  0  0  0
    8.0188  -14.1588   20.6672 C   0  0  0  0  0  0  0  0  0  0  0  0
    7.8333  -14.9811   21.9565 C   0  0  2  0  0  0  0  0  0  0  0  0
    7.0752  -14.0970   22.8810 C   0  0  0  0  0  0  0  0  0  0  0  0
    9.1960  -15.3924   22.3648 C   0  0  2  0  0  0  0  0  0  0  0  0
    9.6161  -16.4453   21.4328 N   0  0  0  0  0  0  0  0  0  0  0  0
    9.3858  -15.8110   23.7588 C   0  0  0  0  0  0  0  0  0  0  0  0
    9.4962  -17.0700   23.9824 O   0  0  0  0  0  0  0  0  0  0  0  0
   10.0450  -14.0656   29.7361 C   0  0  0  0  0  0  0  0  0  0  0  0
   10.2099  -15.0461   28.6087 C   0  0  0  0  0  0  0  0  0  0  0  0
    9.8324  -14.4570   27.2745 C   0  0  2  0  0  0  0  0  0  0  0  0
    8.4265  -13.8953   27.4224 C   0  0  0  0  0  0  0  0  0  0  0  0
    9.7838  -15.5195   26.2155 C   0  0  2  0  0  0  0  0  0  0  0  0
    9.4650  -14.9991   24.9003 N   0  0  0  0  0  0  0  0  0  0  0  0
    8.8916  -16.6215   26.5835 C   0  0  0  0  0  0  0  0  0  0  0  0
    9.2300  -17.7093   27.3339 O   0  0  0  0  0  0  0  0  0  0  0  0
    7.6872  -16.5733   26.1726 O   0  0  0  0  0  0  0  0  0  0  0  0
  2  1  1  0
  3  2  2  0
  4  3  1  0
  5 11  1  0
  5  4  2  0
  6  7  1  0
  6  5  1  0
  7  9  1  0
  7  8  1  6
  9 18  1  0
 10  9  2  0
 11 12  2  0
 12  2  1  0
 13 14  1  0
 15 14  1  0
 15 16  1  1
 17 18  1  6
 17 19  1  0
 17 15  1  0
 19 20  2  0
 22 23  1  0
 22 21  1  0
 23 25  1  0
 23 24  1  1
 25 27  1  0
 26 19  1  0
 25 26  1  6
 27 29  2  0
 27 28  1  0
M  END
$$$$
