YII.pdb
     RDKit          3D

 29 29  0  0  1  0  0  0  0  0999 V2000
   12.2392  -24.1602   20.4028 O   0  0  0  0  0  0  0  0  0  0  0  0
   12.1485  -22.8547   20.9204 C   0  0  0  0  0  0  0  0  0  0  0  0
   10.9183  -22.3495   21.2697 C   0  0  0  0  0  0  0  0  0  0  0  0
   10.8211  -21.0756   21.7759 C   0  0  0  0  0  0  0  0  0  0  0  0
   11.9172  -20.2769   21.9489 C   0  0  0  0  0  0  0  0  0  0  0  0
   11.8280  -18.8899   22.4978 C   0  0  0  0  0  0  0  0  0  0  0  0
   11.5224  -17.9790   21.3383 C   0  0  2  0  0  0  0  0  0  0  0  0
   12.7361  -17.8095   20.5767 N   0  0  0  0  0  0  0  0  0  0  0  0
   10.9559  -16.6766   21.7790 C   0  0  0  0  0  0  0  0  0  0  0  0
   11.7281  -15.8305   22.2963 O   0  0  0  0  0  0  0  0  0  0  0  0
   13.1333  -20.8077   21.5914 C   0  0  0  0  0  0  0  0  0  0  0  0
   13.2641  -22.0744   21.0838 C   0  0  0  0  0  0  0  0  0  0  0  0
    6.8202  -12.6579   20.1203 C   0  0  0  0  0  0  0  0  0  0  0  0
    7.7537  -13.1975   21.1520 C   0  0  0  0  0  0  0  0  0  0  0  0
    8.0131  -14.7065   20.9839 C   0  0  2  0  0  0  0  0  0  0  0  0
    6.6745  -15.3479   21.0739 C   0  0  0  0  0  0  0  0  0  0  0  0
    9.0115  -15.0558   22.0202 C   0  0  2  0  0  0  0  0  0  0  0  0
    9.5800  -16.3537   21.6382 N   0  0  0  0  0  0  0  0  0  0  0  0
    8.5602  -15.0645   23.4170 C   0  0  0  0  0  0  0  0  0  0  0  0
    8.3457  -16.2094   23.9559 O   0  0  0  0  0  0  0  0  0  0  0  0
    6.4318  -10.5993   26.1999 C   0  0  0  0  0  0  0  0  0  0  0  0
    7.4455  -11.6788   25.9424 C   0  0  0  0  0  0  0  0  0  0  0  0
    6.8432  -13.0585   25.9985 C   0  0  2  0  0  0  0  0  0  0  0  0
    6.4506  -13.3096   27.4466 C   0  0  0  0  0  0  0  0  0  0  0  0
    7.8556  -14.0997   25.6195 C   0  0  2  0  0  0  0  0  0  0  0  0
    8.3297  -13.9640   24.2561 N   0  0  0  0  0  0  0  0  0  0  0  0
    7.3727  -15.4573   25.8834 C   0  0  0  0  0  0  0  0  0  0  0  0
    6.4574  -16.1408   25.1376 O   0  0  0  0  0  0  0  0  0  0  0  0
    7.8409  -16.0676   26.8983 O   0  0  0  0  0  0  0  0  0  0  0  0
  2  1  1  0
  3  2  2  0
  4  3  1  0
  5 11  1  0
  5  4  2  0
  6  7  1  0
  6  5  1  0
  7  9  1  0
  7  8  1  1
  9 18  1  0
 10  9  2  0
 11 12  2  0
 12  2  1  0
 13 14  1  0
 15 14  1  0
 15 16  1  1
 17 18  1  6
 17 19  1  0
 17 15  1  0
 19 20  2  0
 22 23  1  0
 22 21  1  0
 23 25  1  0
 23 24  1  1
 25 27  1  0
 26 19  1  0
 25 26  1  6
 27 29  2  0
 27 28  1  0
M  END
$$$$
