YII.pdb
     RDKit          3D

 29 29  0  0  1  0  0  0  0  0999 V2000
   13.8144  -22.3737   17.9650 O   0  0  0  0  0  0  0  0  0  0  0  0
   13.3817  -21.3671   18.8481 C   0  0  0  0  0  0  0  0  0  0  0  0
   14.2965  -20.7442   19.6641 C   0  0  0  0  0  0  0  0  0  0  0  0
   13.8821  -19.7602   20.5293 C   0  0  0  0  0  0  0  0  0  0  0  0
   12.5747  -19.3692   20.6126 C   0  0  0  0  0  0  0  0  0  0  0  0
   12.1085  -18.3012   21.5481 C   0  0  0  0  0  0  0  0  0  0  0  0
   11.7730  -17.0983   20.7067 C   0  0  2  0  0  0  0  0  0  0  0  0
   13.0092  -16.5546   20.1987 N   0  0  0  0  0  0  0  0  0  0  0  0
   10.9878  -16.0849   21.4603 C   0  0  0  0  0  0  0  0  0  0  0  0
   11.5785  -15.3888   22.3241 O   0  0  0  0  0  0  0  0  0  0  0  0
   11.6828  -20.0088   19.7856 C   0  0  0  0  0  0  0  0  0  0  0  0
   12.0638  -20.9939   18.9117 C   0  0  0  0  0  0  0  0  0  0  0  0
    7.3106  -13.3317   18.8530 C   0  0  0  0  0  0  0  0  0  0  0  0
    8.3043  -13.6752   19.9119 C   0  0  0  0  0  0  0  0  0  0  0  0
    7.6863  -14.4962   21.0595 C   0  0  2  0  0  0  0  0  0  0  0  0
    6.6132  -13.6358   21.6246 C   0  0  0  0  0  0  0  0  0  0  0  0
    8.8171  -14.8529   21.9464 C   0  0  2  0  0  0  0  0  0  0  0  0
    9.6002  -15.8746   21.2416 N   0  0  0  0  0  0  0  0  0  0  0  0
    8.4945  -15.2808   23.3130 C   0  0  0  0  0  0  0  0  0  0  0  0
    8.5450  -16.5392   23.5601 O   0  0  0  0  0  0  0  0  0  0  0  0
    7.3960  -11.6001   27.3405 C   0  0  0  0  0  0  0  0  0  0  0  0
    8.1256  -12.7483   26.7013 C   0  0  0  0  0  0  0  0  0  0  0  0
    7.3029  -14.0101   26.6766 C   0  0  2  0  0  0  0  0  0  0  0  0
    7.3677  -14.6061   28.0747 C   0  0  0  0  0  0  0  0  0  0  0  0
    7.8933  -15.0150   25.7310 C   0  0  2  0  0  0  0  0  0  0  0  0
    8.1325  -14.4784   24.4055 N   0  0  0  0  0  0  0  0  0  0  0  0
    7.1015  -16.2461   25.6729 C   0  0  0  0  0  0  0  0  0  0  0  0
    7.3774  -17.4075   26.3332 O   0  0  0  0  0  0  0  0  0  0  0  0
    6.0576  -16.2471   24.9436 O   0  0  0  0  0  0  0  0  0  0  0  0
  2  1  1  0
  3  2  2  0
  4  3  1  0
  5 11  1  0
  5  4  2  0
  6  7  1  0
  6  5  1  0
  7  9  1  0
  7  8  1  1
  9 18  1  0
 10  9  2  0
 11 12  2  0
 12  2  1  0
 13 14  1  0
 15 14  1  0
 15 16  1  1
 17 18  1  6
 17 19  1  0
 17 15  1  0
 19 20  2  0
 22 23  1  0
 22 21  1  0
 23 25  1  0
 23 24  1  1
 25 27  1  0
 26 19  1  0
 25 26  1  6
 27 29  2  0
 27 28  1  0
M  END
$$$$
