YII.pdb
     RDKit          3D

 29 29  0  0  1  0  0  0  0  0999 V2000
    2.9145  -22.9024   23.2115 O   0  0  0  0  0  0  0  0  0  0  0  0
    3.9242  -21.9276   23.3142 C   0  0  0  0  0  0  0  0  0  0  0  0
    4.3146  -21.4864   24.5566 C   0  0  0  0  0  0  0  0  0  0  0  0
    5.2999  -20.5347   24.6655 C   0  0  0  0  0  0  0  0  0  0  0  0
    5.9180  -19.9998   23.5696 C   0  0  0  0  0  0  0  0  0  0  0  0
    6.9907  -18.9645   23.6714 C   0  0  0  0  0  0  0  0  0  0  0  0
    6.3368  -17.6308   23.4237 C   0  0  2  0  0  0  0  0  0  0  0  0
    6.0014  -17.5557   22.0225 N   0  0  0  0  0  0  0  0  0  0  0  0
    7.1951  -16.4943   23.8518 C   0  0  0  0  0  0  0  0  0  0  0  0
    8.2279  -16.2371   23.1833 O   0  0  0  0  0  0  0  0  0  0  0  0
    5.5077  -20.4592   22.3411 C   0  0  0  0  0  0  0  0  0  0  0  0
    4.5280  -21.4074   22.1984 C   0  0  0  0  0  0  0  0  0  0  0  0
    5.3191  -12.2452   26.5419 C   0  0  0  0  0  0  0  0  0  0  0  0
    6.2608  -13.0780   25.7377 C   0  0  0  0  0  0  0  0  0  0  0  0
    7.1363  -13.9941   26.6136 C   0  0  2  0  0  0  0  0  0  0  0  0
    7.9228  -13.0757   27.4792 C   0  0  0  0  0  0  0  0  0  0  0  0
    7.8845  -14.8522   25.6667 C   0  0  2  0  0  0  0  0  0  0  0  0
    6.8930  -15.6914   24.9837 N   0  0  0  0  0  0  0  0  0  0  0  0
    8.9807  -15.6625   26.2112 C   0  0  0  0  0  0  0  0  0  0  0  0
    8.6634  -16.6168   27.0087 O   0  0  0  0  0  0  0  0  0  0  0  0
   13.5597  -16.6801   23.4105 C   0  0  0  0  0  0  0  0  0  0  0  0
   12.3189  -16.7127   24.2582 C   0  0  0  0  0  0  0  0  0  0  0  0
   12.6131  -16.4812   25.7175 C   0  0  2  0  0  0  0  0  0  0  0  0
   13.4148  -17.6801   26.2012 C   0  0  0  0  0  0  0  0  0  0  0  0
   11.3444  -16.4353   26.5181 C   0  0  2  0  0  0  0  0  0  0  0  0
   10.3560  -15.5284   25.9681 N   0  0  0  0  0  0  0  0  0  0  0  0
   11.5976  -16.1536   27.9331 C   0  0  0  0  0  0  0  0  0  0  0  0
   11.8924  -17.0769   28.8931 O   0  0  0  0  0  0  0  0  0  0  0  0
   11.5408  -14.9407   28.3168 O   0  0  0  0  0  0  0  0  0  0  0  0
  2  1  1  0
  3  2  2  0
  4  3  1  0
  5 11  1  0
  5  4  2  0
  6  7  1  0
  6  5  1  0
  7  9  1  0
  7  8  1  6
  9 18  1  0
 10  9  2  0
 11 12  2  0
 12  2  1  0
 13 14  1  0
 15 14  1  0
 15 16  1  6
 17 18  1  1
 17 19  1  0
 17 15  1  0
 19 20  2  0
 22 23  1  0
 22 21  1  0
 23 25  1  0
 23 24  1  1
 25 27  1  0
 26 19  1  0
 25 26  1  6
 27 29  2  0
 27 28  1  0
M  END
$$$$
