YII.pdb
     RDKit          3D

 29 29  0  0  1  0  0  0  0  0999 V2000
    8.0325  -20.9658   16.8616 O   0  0  0  0  0  0  0  0  0  0  0  0
    8.4936  -20.2234   17.9646 C   0  0  0  0  0  0  0  0  0  0  0  0
    8.2345  -18.8746   18.0281 C   0  0  0  0  0  0  0  0  0  0  0  0
    8.6813  -18.1425   19.1018 C   0  0  0  0  0  0  0  0  0  0  0  0
    9.3851  -18.7112   20.1268 C   0  0  0  0  0  0  0  0  0  0  0  0
    9.8776  -17.9288   21.3008 C   0  0  0  0  0  0  0  0  0  0  0  0
    9.3518  -16.5265   21.1441 C   0  0  2  0  0  0  0  0  0  0  0  0
   10.0137  -15.9298   20.0094 N   0  0  0  0  0  0  0  0  0  0  0  0
    9.5278  -15.7175   22.3794 C   0  0  0  0  0  0  0  0  0  0  0  0
   10.6339  -15.1537   22.5751 O   0  0  0  0  0  0  0  0  0  0  0  0
    9.6293  -20.0605   20.0368 C   0  0  0  0  0  0  0  0  0  0  0  0
    9.1975  -20.8189   18.9795 C   0  0  0  0  0  0  0  0  0  0  0  0
    5.7686  -12.4288   24.2099 C   0  0  0  0  0  0  0  0  0  0  0  0
    7.0369  -13.1594   23.9190 C   0  0  0  0  0  0  0  0  0  0  0  0
    7.3298  -14.2688   24.9468 C   0  0  2  0  0  0  0  0  0  0  0  0
    7.1812  -13.6212   26.2772 C   0  0  0  0  0  0  0  0  0  0  0  0
    8.6647  -14.7999   24.5883 C   0  0  2  0  0  0  0  0  0  0  0  0
    8.4967  -15.5585   23.3432 N   0  0  0  0  0  0  0  0  0  0  0  0
    9.3703  -15.5933   25.6019 C   0  0  0  0  0  0  0  0  0  0  0  0
    9.1227  -16.8522   25.6370 O   0  0  0  0  0  0  0  0  0  0  0  0
   10.1818  -13.2496   30.1761 C   0  0  0  0  0  0  0  0  0  0  0  0
   10.8184  -13.9331   28.9984 C   0  0  0  0  0  0  0  0  0  0  0  0
   10.5630  -15.4178   28.9881 C   0  0  2  0  0  0  0  0  0  0  0  0
   11.5797  -16.0465   29.9289 C   0  0  0  0  0  0  0  0  0  0  0  0
   10.7991  -15.9915   27.6214 C   0  0  2  0  0  0  0  0  0  0  0  0
   10.2986  -15.1470   26.5545 N   0  0  0  0  0  0  0  0  0  0  0  0
   10.2872  -17.3590   27.5037 C   0  0  0  0  0  0  0  0  0  0  0  0
    8.9871  -17.7432   27.6566 O   0  0  0  0  0  0  0  0  0  0  0  0
   11.1199  -18.2840   27.2345 O   0  0  0  0  0  0  0  0  0  0  0  0
  2  1  1  0
  3  2  2  0
  4  3  1  0
  5 11  1  0
  5  4  2  0
  6  7  1  0
  6  5  1  0
  7  9  1  0
  7  8  1  6
  9 18  1  0
 10  9  2  0
 11 12  2  0
 12  2  1  0
 13 14  1  0
 15 14  1  0
 15 16  1  1
 17 18  1  6
 17 19  1  0
 17 15  1  0
 19 20  2  0
 22 23  1  0
 22 21  1  0
 23 25  1  0
 23 24  1  1
 25 27  1  0
 26 19  1  0
 25 26  1  6
 27 29  2  0
 27 28  1  0
M  END
$$$$
