YII.pdb
     RDKit          3D

 29 29  0  0  1  0  0  0  0  0999 V2000
    9.0005  -24.8728   21.9429 O   0  0  0  0  0  0  0  0  0  0  0  0
    9.1039  -23.5169   22.3054 C   0  0  0  0  0  0  0  0  0  0  0  0
    9.8651  -23.1642   23.3948 C   0  0  0  0  0  0  0  0  0  0  0  0
    9.9714  -21.8424   23.7553 C   0  0  0  0  0  0  0  0  0  0  0  0
    9.3399  -20.8472   23.0625 C   0  0  0  0  0  0  0  0  0  0  0  0
    9.4455  -19.4057   23.4419 C   0  0  0  0  0  0  0  0  0  0  0  0
    9.4463  -18.6147   22.1606 C   0  0  2  0  0  0  0  0  0  0  0  0
   10.5678  -19.0572   21.3679 N   0  0  0  0  0  0  0  0  0  0  0  0
    9.4812  -17.1481   22.4038 C   0  0  0  0  0  0  0  0  0  0  0  0
   10.5526  -16.6327   22.8115 O   0  0  0  0  0  0  0  0  0  0  0  0
    8.5862  -21.2288   21.9786 C   0  0  0  0  0  0  0  0  0  0  0  0
    8.4599  -22.5382   21.5929 C   0  0  0  0  0  0  0  0  0  0  0  0
    7.8682  -13.5267   19.0968 C   0  0  0  0  0  0  0  0  0  0  0  0
    8.5044  -14.1524   20.2929 C   0  0  0  0  0  0  0  0  0  0  0  0
    7.5648  -14.1866   21.5131 C   0  0  2  0  0  0  0  0  0  0  0  0
    7.1919  -12.7687   21.7618 C   0  0  0  0  0  0  0  0  0  0  0  0
    8.3175  -14.8936   22.5743 C   0  0  2  0  0  0  0  0  0  0  0  0
    8.3536  -16.3105   22.1936 N   0  0  0  0  0  0  0  0  0  0  0  0
    7.8531  -14.7273   23.9568 C   0  0  0  0  0  0  0  0  0  0  0  0
    6.7279  -15.2624   24.2650 O   0  0  0  0  0  0  0  0  0  0  0  0
   10.8842  -13.6788   28.6095 C   0  0  0  0  0  0  0  0  0  0  0  0
    9.8521  -14.2433   27.6738 C   0  0  0  0  0  0  0  0  0  0  0  0
    8.7925  -13.2358   27.3109 C   0  0  2  0  0  0  0  0  0  0  0  0
    7.9840  -12.9726   28.5724 C   0  0  0  0  0  0  0  0  0  0  0  0
    7.8530  -13.7947   26.2825 C   0  0  2  0  0  0  0  0  0  0  0  0
    8.4912  -14.0480   25.0055 N   0  0  0  0  0  0  0  0  0  0  0  0
    6.6551  -12.9665   26.1250 C   0  0  0  0  0  0  0  0  0  0  0  0
    6.5023  -11.9394   25.2402 O   0  0  0  0  0  0  0  0  0  0  0  0
    5.6572  -13.2164   26.8756 O   0  0  0  0  0  0  0  0  0  0  0  0
  2  1  1  0
  3  2  2  0
  4  3  1  0
  5 11  1  0
  5  4  2  0
  6  7  1  0
  6  5  1  0
  7  9  1  0
  7  8  1  6
  9 18  1  0
 10  9  2  0
 11 12  2  0
 12  2  1  0
 13 14  1  0
 15 14  1  0
 15 16  1  1
 17 18  1  6
 17 19  1  0
 17 15  1  0
 19 20  2  0
 22 23  1  0
 22 21  1  0
 23 25  1  0
 23 24  1  1
 25 27  1  0
 26 19  1  0
 25 26  1  6
 27 29  2  0
 27 28  1  0
M  END
$$$$
