YII.pdb
     RDKit          3D

 29 29  0  0  1  0  0  0  0  0999 V2000
    9.4558  -13.7699   15.5494 O   0  0  0  0  0  0  0  0  0  0  0  0
    8.8535  -14.0181   16.7968 C   0  0  0  0  0  0  0  0  0  0  0  0
    7.5685  -13.5855   17.0255 C   0  0  0  0  0  0  0  0  0  0  0  0
    6.9731  -13.8239   18.2409 C   0  0  0  0  0  0  0  0  0  0  0  0
    7.6181  -14.4853   19.2488 C   0  0  0  0  0  0  0  0  0  0  0  0
    6.9845  -14.7522   20.5755 C   0  0  0  0  0  0  0  0  0  0  0  0
    6.7986  -16.2428   20.6799 C   0  0  2  0  0  0  0  0  0  0  0  0
    5.7159  -16.6164   19.8024 N   0  0  0  0  0  0  0  0  0  0  0  0
    6.5577  -16.6840   22.0795 C   0  0  0  0  0  0  0  0  0  0  0  0
    5.4073  -16.5395   22.5647 O   0  0  0  0  0  0  0  0  0  0  0  0
    8.9009  -14.9060   18.9922 C   0  0  0  0  0  0  0  0  0  0  0  0
    9.5231  -14.6840   17.7910 C   0  0  0  0  0  0  0  0  0  0  0  0
    6.8246  -21.1783   24.0674 C   0  0  0  0  0  0  0  0  0  0  0  0
    6.6809  -19.7083   23.8538 C   0  0  0  0  0  0  0  0  0  0  0  0
    7.7660  -18.8953   24.5849 C   0  0  2  0  0  0  0  0  0  0  0  0
    7.7298  -19.3693   25.9939 C   0  0  0  0  0  0  0  0  0  0  0  0
    7.4360  -17.4743   24.3311 C   0  0  2  0  0  0  0  0  0  0  0  0
    7.5750  -17.2603   22.8859 N   0  0  0  0  0  0  0  0  0  0  0  0
    8.1794  -16.4622   25.0913 C   0  0  0  0  0  0  0  0  0  0  0  0
    9.3412  -16.1371   24.6532 O   0  0  0  0  0  0  0  0  0  0  0  0
    6.0826  -11.9382   27.1300 C   0  0  0  0  0  0  0  0  0  0  0  0
    7.0436  -12.9186   26.5177 C   0  0  0  0  0  0  0  0  0  0  0  0
    7.8086  -13.6984   27.5552 C   0  0  2  0  0  0  0  0  0  0  0  0
    8.7957  -12.7328   28.1933 C   0  0  0  0  0  0  0  0  0  0  0  0
    8.6042  -14.7996   26.9172 C   0  0  2  0  0  0  0  0  0  0  0  0
    7.7777  -15.7902   26.2555 N   0  0  0  0  0  0  0  0  0  0  0  0
    9.5325  -15.4250   27.8621 C   0  0  0  0  0  0  0  0  0  0  0  0
   10.8037  -15.0086   28.1302 O   0  0  0  0  0  0  0  0  0  0  0  0
    9.1303  -16.4519   28.4987 O   0  0  0  0  0  0  0  0  0  0  0  0
  2  1  1  0
  3  2  2  0
  4  3  1  0
  5 11  1  0
  5  4  2  0
  6  7  1  0
  6  5  1  0
  7  9  1  0
  7  8  1  6
  9 18  1  0
 10  9  2  0
 11 12  2  0
 12  2  1  0
 13 14  1  0
 15 14  1  0
 15 16  1  1
 17 18  1  6
 17 19  1  0
 17 15  1  0
 19 20  2  0
 22 23  1  0
 22 21  1  0
 23 25  1  0
 23 24  1  6
 25 27  1  0
 26 19  1  0
 25 26  1  1
 27 29  2  0
 27 28  1  0
M  END
$$$$
