YII.pdb
     RDKit          3D

 29 29  0  0  1  0  0  0  0  0999 V2000
   11.6015  -23.8927   17.3636 O   0  0  0  0  0  0  0  0  0  0  0  0
   11.3912  -22.5655   17.7815 C   0  0  0  0  0  0  0  0  0  0  0  0
   10.1182  -22.0458   17.7678 C   0  0  0  0  0  0  0  0  0  0  0  0
    9.9043  -20.7507   18.1744 C   0  0  0  0  0  0  0  0  0  0  0  0
   10.9236  -19.9446   18.5991 C   0  0  0  0  0  0  0  0  0  0  0  0
   10.7072  -18.5345   19.0441 C   0  0  0  0  0  0  0  0  0  0  0  0
   10.6666  -18.5519   20.5493 C   0  0  2  0  0  0  0  0  0  0  0  0
    9.5054  -19.3077   20.9521 N   0  0  0  0  0  0  0  0  0  0  0  0
   10.6673  -17.1824   21.1289 C   0  0  0  0  0  0  0  0  0  0  0  0
   11.6104  -16.4060   20.8330 O   0  0  0  0  0  0  0  0  0  0  0  0
   12.1848  -20.4902   18.6022 C   0  0  0  0  0  0  0  0  0  0  0  0
   12.4317  -21.7782   18.2029 C   0  0  0  0  0  0  0  0  0  0  0  0
    6.5196  -14.1416   20.9346 C   0  0  0  0  0  0  0  0  0  0  0  0
    7.9118  -14.6438   21.1249 C   0  0  0  0  0  0  0  0  0  0  0  0
    8.2478  -14.9099   22.6045 C   0  0  2  0  0  0  0  0  0  0  0  0
    7.9493  -13.6357   23.3107 C   0  0  0  0  0  0  0  0  0  0  0  0
    9.6497  -15.3866   22.6139 C   0  0  2  0  0  0  0  0  0  0  0  0
    9.6462  -16.7201   22.0011 N   0  0  0  0  0  0  0  0  0  0  0  0
   10.3507  -15.3971   23.9036 C   0  0  0  0  0  0  0  0  0  0  0  0
   11.2624  -14.5114   24.0819 O   0  0  0  0  0  0  0  0  0  0  0  0
   10.0298  -13.1496   28.8494 C   0  0  0  0  0  0  0  0  0  0  0  0
   10.6240  -14.3863   28.2357 C   0  0  0  0  0  0  0  0  0  0  0  0
   10.0325  -14.6996   26.8860 C   0  0  2  0  0  0  0  0  0  0  0  0
    8.5447  -14.9333   27.1001 C   0  0  0  0  0  0  0  0  0  0  0  0
   10.6119  -15.9674   26.3295 C   0  0  2  0  0  0  0  0  0  0  0  0
   10.1496  -16.2645   24.9879 N   0  0  0  0  0  0  0  0  0  0  0  0
   10.4073  -17.1058   27.2283 C   0  0  0  0  0  0  0  0  0  0  0  0
   11.1038  -17.3567   28.3742 O   0  0  0  0  0  0  0  0  0  0  0  0
    9.4999  -17.9463   26.9254 O   0  0  0  0  0  0  0  0  0  0  0  0
  2  1  1  0
  3  2  2  0
  4  3  1  0
  5 11  1  0
  5  4  2  0
  6  7  1  0
  6  5  1  0
  7  9  1  0
  7  8  1  6
  9 18  1  0
 10  9  2  0
 11 12  2  0
 12  2  1  0
 13 14  1  0
 15 14  1  0
 15 16  1  1
 17 18  1  1
 17 19  1  0
 17 15  1  0
 19 20  2  0
 22 23  1  0
 22 21  1  0
 23 25  1  0
 23 24  1  1
 25 27  1  0
 26 19  1  0
 25 26  1  6
 27 29  2  0
 27 28  1  0
M  END
$$$$
