YII.pdb
     RDKit          3D

 29 29  0  0  1  0  0  0  0  0999 V2000
   14.8130  -21.5734   16.6387 O   0  0  0  0  0  0  0  0  0  0  0  0
   14.2654  -20.4627   17.3072 C   0  0  0  0  0  0  0  0  0  0  0  0
   13.4035  -19.6271   16.6368 C   0  0  0  0  0  0  0  0  0  0  0  0
   12.8644  -18.5404   17.2824 C   0  0  0  0  0  0  0  0  0  0  0  0
   13.1557  -18.2518   18.5867 C   0  0  0  0  0  0  0  0  0  0  0  0
   12.5778  -17.0742   19.3025 C   0  0  0  0  0  0  0  0  0  0  0  0
   11.7835  -17.6137   20.4625 C   0  0  2  0  0  0  0  0  0  0  0  0
   10.6824  -18.3775   19.9280 N   0  0  0  0  0  0  0  0  0  0  0  0
   11.3211  -16.5369   21.3780 C   0  0  0  0  0  0  0  0  0  0  0  0
   12.1638  -15.7062   21.8016 O   0  0  0  0  0  0  0  0  0  0  0  0
   14.0197  -19.1039   19.2317 C   0  0  0  0  0  0  0  0  0  0  0  0
   14.5744  -20.1961   18.6163 C   0  0  0  0  0  0  0  0  0  0  0  0
    6.8432  -13.9046   20.4537 C   0  0  0  0  0  0  0  0  0  0  0  0
    8.1842  -14.2756   20.9931 C   0  0  0  0  0  0  0  0  0  0  0  0
    8.0934  -15.0662   22.3120 C   0  0  2  0  0  0  0  0  0  0  0  0
    7.2928  -14.2115   23.2284 C   0  0  0  0  0  0  0  0  0  0  0  0
    9.4930  -15.3596   22.6964 C   0  0  2  0  0  0  0  0  0  0  0  0
    9.9677  -16.4121   21.7905 N   0  0  0  0  0  0  0  0  0  0  0  0
    9.7488  -15.7111   24.0984 C   0  0  0  0  0  0  0  0  0  0  0  0
    9.3444  -16.8623   24.4967 O   0  0  0  0  0  0  0  0  0  0  0  0
   10.5937  -13.4574   29.8094 C   0  0  0  0  0  0  0  0  0  0  0  0
   10.6414  -14.6007   28.8348 C   0  0  0  0  0  0  0  0  0  0  0  0
   10.4351  -14.1521   27.4115 C   0  0  2  0  0  0  0  0  0  0  0  0
    9.0518  -13.5231   27.3436 C   0  0  0  0  0  0  0  0  0  0  0  0
   10.4431  -15.3248   26.4748 C   0  0  2  0  0  0  0  0  0  0  0  0
   10.3909  -14.9390   25.0782 N   0  0  0  0  0  0  0  0  0  0  0  0
    9.3942  -16.2944   26.7997 C   0  0  0  0  0  0  0  0  0  0  0  0
    9.5650  -17.4560   27.4944 O   0  0  0  0  0  0  0  0  0  0  0  0
    8.2101  -16.0436   26.4041 O   0  0  0  0  0  0  0  0  0  0  0  0
  2  1  1  0
  3  2  2  0
  4  3  1  0
  5 11  1  0
  5  4  2  0
  6  7  1  0
  6  5  1  0
  7  9  1  0
  7  8  1  6
  9 18  1  0
 10  9  2  0
 11 12  2  0
 12  2  1  0
 13 14  1  0
 15 14  1  0
 15 16  1  1
 17 18  1  6
 17 19  1  0
 17 15  1  0
 19 20  2  0
 22 23  1  0
 22 21  1  0
 23 25  1  0
 23 24  1  1
 25 27  1  0
 26 19  1  0
 25 26  1  6
 27 29  2  0
 27 28  1  0
M  END
$$$$
