YII.pdb
     RDKit          3D

 29 29  0  0  1  0  0  0  0  0999 V2000
    4.8635  -23.6533   24.6711 O   0  0  0  0  0  0  0  0  0  0  0  0
    5.5865  -22.4697   24.4332 C   0  0  0  0  0  0  0  0  0  0  0  0
    6.8437  -22.3253   24.9709 C   0  0  0  0  0  0  0  0  0  0  0  0
    7.5563  -21.1726   24.7433 C   0  0  0  0  0  0  0  0  0  0  0  0
    7.0568  -20.1461   23.9909 C   0  0  0  0  0  0  0  0  0  0  0  0
    7.8190  -18.8867   23.7343 C   0  0  0  0  0  0  0  0  0  0  0  0
    7.9695  -18.7625   22.2412 C   0  0  2  0  0  0  0  0  0  0  0  0
    8.8041  -19.8490   21.7885 N   0  0  0  0  0  0  0  0  0  0  0  0
    8.5130  -17.4384   21.8378 C   0  0  0  0  0  0  0  0  0  0  0  0
    9.7483  -17.3345   21.6305 O   0  0  0  0  0  0  0  0  0  0  0  0
    5.7984  -20.3179   23.4662 C   0  0  0  0  0  0  0  0  0  0  0  0
    5.0618  -21.4551   23.6745 C   0  0  0  0  0  0  0  0  0  0  0  0
    7.2692  -13.4316   18.6797 C   0  0  0  0  0  0  0  0  0  0  0  0
    7.8857  -14.3187   19.7092 C   0  0  0  0  0  0  0  0  0  0  0  0
    7.3863  -14.0090   21.1331 C   0  0  2  0  0  0  0  0  0  0  0  0
    7.6061  -12.5499   21.3179 C   0  0  0  0  0  0  0  0  0  0  0  0
    8.1269  -14.9319   22.0232 C   0  0  2  0  0  0  0  0  0  0  0  0
    7.6919  -16.2905   21.6786 N   0  0  0  0  0  0  0  0  0  0  0  0
    8.0338  -14.6956   23.4690 C   0  0  0  0  0  0  0  0  0  0  0  0
    6.9867  -15.1342   24.0679 O   0  0  0  0  0  0  0  0  0  0  0  0
    6.1447  -11.5147   27.5021 C   0  0  0  0  0  0  0  0  0  0  0  0
    7.3657  -12.3626   27.2794 C   0  0  0  0  0  0  0  0  0  0  0  0
    7.4588  -12.8768   25.8664 C   0  0  2  0  0  0  0  0  0  0  0  0
    6.2481  -13.7700   25.6416 C   0  0  0  0  0  0  0  0  0  0  0  0
    8.6839  -13.7248   25.6856 C   0  0  2  0  0  0  0  0  0  0  0  0
    8.9580  -14.0417   24.2977 N   0  0  0  0  0  0  0  0  0  0  0  0
    8.6410  -14.9347   26.5103 C   0  0  0  0  0  0  0  0  0  0  0  0
    8.4425  -16.2061   26.0572 O   0  0  0  0  0  0  0  0  0  0  0  0
    8.8020  -14.8033   27.7667 O   0  0  0  0  0  0  0  0  0  0  0  0
  2  1  1  0
  3  2  2  0
  4  3  1  0
  5 11  1  0
  5  4  2  0
  6  7  1  0
  6  5  1  0
  7  9  1  0
  7  8  1  1
  9 18  1  0
 10  9  2  0
 11 12  2  0
 12  2  1  0
 13 14  1  0
 15 14  1  0
 15 16  1  1
 17 18  1  1
 17 19  1  0
 17 15  1  0
 19 20  2  0
 22 23  1  0
 22 21  1  0
 23 25  1  0
 23 24  1  1
 25 27  1  0
 26 19  1  0
 25 26  1  6
 27 29  2  0
 27 28  1  0
M  END
$$$$
