YII.pdb
     RDKit          3D

 29 29  0  0  1  0  0  0  0  0999 V2000
    5.4834  -22.5411   28.7552 O   0  0  0  0  0  0  0  0  0  0  0  0
    6.1887  -21.7363   27.8414 C   0  0  0  0  0  0  0  0  0  0  0  0
    7.2956  -22.2464   27.2048 C   0  0  0  0  0  0  0  0  0  0  0  0
    7.9899  -21.4670   26.3110 C   0  0  0  0  0  0  0  0  0  0  0  0
    7.6179  -20.1830   26.0245 C   0  0  0  0  0  0  0  0  0  0  0  0
    8.3622  -19.3229   25.0553 C   0  0  0  0  0  0  0  0  0  0  0  0
    7.4649  -19.1312   23.8614 C   0  0  2  0  0  0  0  0  0  0  0  0
    7.3294  -20.4064   23.2001 N   0  0  0  0  0  0  0  0  0  0  0  0
    7.9695  -18.0781   22.9406 C   0  0  0  0  0  0  0  0  0  0  0  0
    8.8506  -18.3880   22.0997 O   0  0  0  0  0  0  0  0  0  0  0  0
    6.5083  -19.6995   26.6753 C   0  0  0  0  0  0  0  0  0  0  0  0
    5.7940  -20.4510   27.5722 C   0  0  0  0  0  0  0  0  0  0  0  0
    7.3021  -12.4844   20.5867 C   0  0  0  0  0  0  0  0  0  0  0  0
    8.1390  -13.5535   21.2060 C   0  0  0  0  0  0  0  0  0  0  0  0
    7.2935  -14.6778   21.8336 C   0  0  2  0  0  0  0  0  0  0  0  0
    6.3164  -13.9883   22.7173 C   0  0  0  0  0  0  0  0  0  0  0  0
    8.2645  -15.5965   22.4707 C   0  0  2  0  0  0  0  0  0  0  0  0
    7.4951  -16.7398   22.9756 N   0  0  0  0  0  0  0  0  0  0  0  0
    9.1356  -15.0411   23.5134 C   0  0  0  0  0  0  0  0  0  0  0  0
    8.9275  -13.8239   23.8635 O   0  0  0  0  0  0  0  0  0  0  0  0
    8.9886  -12.6437   27.6602 C   0  0  0  0  0  0  0  0  0  0  0  0
    9.9483  -13.1648   26.6274 C   0  0  0  0  0  0  0  0  0  0  0  0
    9.7911  -14.6443   26.3909 C   0  0  2  0  0  0  0  0  0  0  0  0
   10.0897  -15.3362   27.7123 C   0  0  0  0  0  0  0  0  0  0  0  0
   10.7948  -15.1352   25.3887 C   0  0  2  0  0  0  0  0  0  0  0  0
   10.1852  -15.6795   24.1912 N   0  0  0  0  0  0  0  0  0  0  0  0
   11.7447  -16.0805   25.9804 C   0  0  0  0  0  0  0  0  0  0  0  0
   11.6840  -17.4402   25.8880 O   0  0  0  0  0  0  0  0  0  0  0  0
   12.7213  -15.6041   26.6444 O   0  0  0  0  0  0  0  0  0  0  0  0
  2  1  1  0
  3  2  2  0
  4  3  1  0
  5 11  1  0
  5  4  2  0
  6  7  1  0
  6  5  1  0
  7  9  1  0
  7  8  1  6
  9 18  1  0
 10  9  2  0
 11 12  2  0
 12  2  1  0
 13 14  1  0
 15 14  1  0
 15 16  1  1
 17 18  1  1
 17 19  1  0
 17 15  1  0
 19 20  2  0
 22 23  1  0
 22 21  1  0
 23 25  1  0
 23 24  1  1
 25 27  1  0
 26 19  1  0
 25 26  1  6
 27 29  2  0
 27 28  1  0
M  END
$$$$
