YII.pdb
     RDKit          3D

 29 29  0  0  1  0  0  0  0  0999 V2000
   10.0828  -13.1329   17.3828 O   0  0  0  0  0  0  0  0  0  0  0  0
    9.1905  -13.5545   18.3860 C   0  0  0  0  0  0  0  0  0  0  0  0
    7.8826  -13.1320   18.3489 C   0  0  0  0  0  0  0  0  0  0  0  0
    7.0048  -13.5392   19.3247 C   0  0  0  0  0  0  0  0  0  0  0  0
    7.3864  -14.3614   20.3483 C   0  0  0  0  0  0  0  0  0  0  0  0
    6.4442  -14.8128   21.4166 C   0  0  0  0  0  0  0  0  0  0  0  0
    6.6163  -16.3027   21.5511 C   0  0  2  0  0  0  0  0  0  0  0  0
    5.6359  -16.9397   20.7056 N   0  0  0  0  0  0  0  0  0  0  0  0
    6.5119  -16.7568   22.9633 C   0  0  0  0  0  0  0  0  0  0  0  0
    5.4787  -16.4596   23.6145 O   0  0  0  0  0  0  0  0  0  0  0  0
    8.6991  -14.7678   20.3599 C   0  0  0  0  0  0  0  0  0  0  0  0
    9.5995  -14.3797   19.4018 C   0  0  0  0  0  0  0  0  0  0  0  0
    6.9109  -21.4549   24.4802 C   0  0  0  0  0  0  0  0  0  0  0  0
    6.7277  -19.9740   24.4618 C   0  0  0  0  0  0  0  0  0  0  0  0
    7.8586  -19.2286   25.1955 C   0  0  2  0  0  0  0  0  0  0  0  0
    7.8691  -19.7882   26.5732 C   0  0  0  0  0  0  0  0  0  0  0  0
    7.5494  -17.7886   25.0430 C   0  0  2  0  0  0  0  0  0  0  0  0
    7.5320  -17.5109   23.6020 N   0  0  0  0  0  0  0  0  0  0  0  0
    8.4066  -16.8345   25.7569 C   0  0  0  0  0  0  0  0  0  0  0  0
    9.6109  -16.6992   25.3343 O   0  0  0  0  0  0  0  0  0  0  0  0
    6.6558  -12.1788   27.8577 C   0  0  0  0  0  0  0  0  0  0  0  0
    7.5251  -13.2046   27.1859 C   0  0  0  0  0  0  0  0  0  0  0  0
    8.3759  -13.9687   28.1667 C   0  0  2  0  0  0  0  0  0  0  0  0
    9.4856  -13.0289   28.6133 C   0  0  0  0  0  0  0  0  0  0  0  0
    9.0247  -15.1495   27.5054 C   0  0  2  0  0  0  0  0  0  0  0  0
    8.0746  -16.0351   26.8611 N   0  0  0  0  0  0  0  0  0  0  0  0
    9.8983  -15.8826   28.4247 C   0  0  0  0  0  0  0  0  0  0  0  0
   11.2434  -15.7031   28.5656 O   0  0  0  0  0  0  0  0  0  0  0  0
    9.3680  -16.7715   29.1664 O   0  0  0  0  0  0  0  0  0  0  0  0
  2  1  1  0
  3  2  2  0
  4  3  1  0
  5 11  1  0
  5  4  2  0
  6  7  1  0
  6  5  1  0
  7  9  1  0
  7  8  1  6
  9 18  1  0
 10  9  2  0
 11 12  2  0
 12  2  1  0
 13 14  1  0
 15 14  1  0
 15 16  1  1
 17 18  1  6
 17 19  1  0
 17 15  1  0
 19 20  2  0
 22 23  1  0
 22 21  1  0
 23 25  1  0
 23 24  1  6
 25 27  1  0
 26 19  1  0
 25 26  1  1
 27 29  2  0
 27 28  1  0
M  END
$$$$
