YII.pdb
     RDKit          3D

 29 29  0  0  1  0  0  0  0  0999 V2000
    8.2183  -12.6029   16.4703 O   0  0  0  0  0  0  0  0  0  0  0  0
    8.0224  -13.1394   17.7564 C   0  0  0  0  0  0  0  0  0  0  0  0
    7.8891  -14.4995   17.9088 C   0  0  0  0  0  0  0  0  0  0  0  0
    7.6976  -15.0314   19.1614 C   0  0  0  0  0  0  0  0  0  0  0  0
    7.6333  -14.2493   20.2809 C   0  0  0  0  0  0  0  0  0  0  0  0
    7.4256  -14.8124   21.6494 C   0  0  0  0  0  0  0  0  0  0  0  0
    7.4194  -16.3118   21.5095 C   0  0  2  0  0  0  0  0  0  0  0  0
    6.0641  -16.7254   21.2379 N   0  0  0  0  0  0  0  0  0  0  0  0
    7.9789  -16.9918   22.7078 C   0  0  0  0  0  0  0  0  0  0  0  0
    7.2266  -17.1806   23.6968 O   0  0  0  0  0  0  0  0  0  0  0  0
    7.7697  -12.8941   20.0987 C   0  0  0  0  0  0  0  0  0  0  0  0
    7.9618  -12.3322   18.8631 C   0  0  0  0  0  0  0  0  0  0  0  0
   12.9595  -19.3072   22.0979 C   0  0  0  0  0  0  0  0  0  0  0  0
   11.9541  -18.4050   22.7320 C   0  0  0  0  0  0  0  0  0  0  0  0
   10.7995  -19.1792   23.3956 C   0  0  2  0  0  0  0  0  0  0  0  0
   10.2725  -20.0818   22.3378 C   0  0  0  0  0  0  0  0  0  0  0  0
    9.8853  -18.1456   23.9327 C   0  0  2  0  0  0  0  0  0  0  0  0
    9.3267  -17.4343   22.7769 N   0  0  0  0  0  0  0  0  0  0  0  0
   10.4326  -17.2069   24.9196 C   0  0  0  0  0  0  0  0  0  0  0  0
   11.3726  -16.4262   24.5269 O   0  0  0  0  0  0  0  0  0  0  0  0
    9.9499  -12.7105   28.6710 C   0  0  0  0  0  0  0  0  0  0  0  0
   10.6544  -14.0191   28.4458 C   0  0  0  0  0  0  0  0  0  0  0  0
    9.9422  -14.8908   27.4446 C   0  0  2  0  0  0  0  0  0  0  0  0
    8.6280  -15.3132   28.0838 C   0  0  0  0  0  0  0  0  0  0  0  0
   10.7291  -16.1383   27.1665 C   0  0  2  0  0  0  0  0  0  0  0  0
   10.0543  -17.0478   26.2613 N   0  0  0  0  0  0  0  0  0  0  0  0
   11.1363  -16.8171   28.3991 C   0  0  0  0  0  0  0  0  0  0  0  0
   10.6918  -18.0336   28.8276 O   0  0  0  0  0  0  0  0  0  0  0  0
   11.9816  -16.2302   29.1491 O   0  0  0  0  0  0  0  0  0  0  0  0
  2  1  1  0
  3  2  2  0
  4  3  1  0
  5 11  1  0
  5  4  2  0
  6  7  1  0
  6  5  1  0
  7  9  1  0
  7  8  1  1
  9 18  1  0
 10  9  2  0
 11 12  2  0
 12  2  1  0
 13 14  1  0
 15 14  1  0
 15 16  1  6
 17 18  1  6
 17 19  1  0
 17 15  1  0
 19 20  2  0
 22 23  1  0
 22 21  1  0
 23 25  1  0
 23 24  1  1
 25 27  1  0
 26 19  1  0
 25 26  1  6
 27 29  2  0
 27 28  1  0
M  END
$$$$
