MTP.pdb
     RDKit          3D

 23 23  0  0  1  0  0  0  0  0999 V2000
   18.5803  -18.0601  -15.8092 C   0  0  0  0  0  0  0  0  0  0  0  0
   18.3493  -19.6456  -14.9548 S   0  0  0  0  0  0  0  0  0  0  0  0
   19.9150  -20.5686  -15.1788 C   0  0  0  0  0  0  0  0  0  0  0  0
   21.0534  -19.6008  -14.9983 C   0  0  0  0  0  0  0  0  0  0  0  0
   22.3985  -20.1403  -15.3389 C   0  0  2  0  0  0  0  0  0  0  0  0
   22.6865  -21.4106  -14.7430 N   0  0  0  0  0  0  0  0  0  0  0  0
   23.5121  -19.1504  -15.1710 C   0  0  0  0  0  0  0  0  0  0  0  0
   24.0284  -19.0512  -14.0460 O   0  0  0  0  0  0  0  0  0  0  0  0
   26.7835  -19.3085  -16.7078 C   0  0  0  0  0  0  0  0  0  0  0  0
   26.0869  -18.0930  -17.1742 C   0  0  1  0  0  0  0  0  0  0  0  0
   25.3472  -18.4769  -18.3249 O   0  0  0  0  0  0  0  0  0  0  0  0
   25.0792  -17.4565  -16.2624 C   0  0  2  0  0  0  0  0  0  0  0  0
   23.9299  -18.3801  -16.2772 N   0  0  0  0  0  0  0  0  0  0  0  0
   24.6149  -16.1297  -16.6169 C   0  0  0  0  0  0  0  0  0  0  0  0
   23.5126  -16.1055  -17.3005 O   0  0  0  0  0  0  0  0  0  0  0  0
   25.1451  -14.8724  -16.3501 N   0  0  0  0  0  0  0  0  0  0  0  0
   26.4312  -14.6016  -15.7141 C   0  0  0  0  0  0  0  0  0  0  0  0
   26.0677  -13.4531  -14.7586 C   0  0  0  0  0  0  0  0  0  0  0  0
   24.8992  -12.7601  -15.4267 C   0  0  0  0  0  0  0  0  0  0  0  0
   24.6499  -13.5702  -16.6580 C   0  0  1  0  0  0  0  0  0  0  0  0
   25.3354  -12.9788  -17.8528 C   0  0  0  0  0  0  0  0  0  0  0  0
   26.4345  -13.6143  -18.3637 O   0  0  0  0  0  0  0  0  0  0  0  0
   24.8956  -11.9393  -18.3400 O   0  0  0  0  0  0  0  0  0  0  0  0
  2  3  1  0
  2  1  1  0
  4  3  1  0
  5  4  1  0
  5  7  1  0
  5  6  1  1
  7 13  1  0
  7  8  2  0
 10  9  1  1
 10 12  1  0
 11 10  1  0
 12 14  1  0
 12 13  1  6
 14 16  1  0
 14 15  2  0
 16 17  1  0
 17 18  1  0
 19 18  1  0
 20 16  1  0
 20 19  1  0
 20 21  1  6
 22 21  1  0
 23 21  2  0
M  END
$$$$
