MTP.pdb
     RDKit          3D

 23 23  0  0  1  0  0  0  0  0999 V2000
   27.1960  -20.7515   -7.0599 C   0  0  0  0  0  0  0  0  0  0  0  0
   25.4461  -20.4565   -7.4447 S   0  0  0  0  0  0  0  0  0  0  0  0
   25.1668  -21.1869   -9.1006 C   0  0  0  0  0  0  0  0  0  0  0  0
   26.0302  -20.4458  -10.0857 C   0  0  0  0  0  0  0  0  0  0  0  0
   25.9832  -20.9656  -11.4799 C   0  0  2  0  0  0  0  0  0  0  0  0
   26.2846  -22.3612  -11.5936 N   0  0  0  0  0  0  0  0  0  0  0  0
   26.7321  -20.1237  -12.4693 C   0  0  0  0  0  0  0  0  0  0  0  0
   27.9090  -19.8317  -12.2013 O   0  0  0  0  0  0  0  0  0  0  0  0
   28.1344  -21.0696  -15.2671 C   0  0  0  0  0  0  0  0  0  0  0  0
   27.1576  -20.0576  -15.7165 C   0  0  1  0  0  0  0  0  0  0  0  0
   25.9575  -20.7633  -15.9999 O   0  0  0  0  0  0  0  0  0  0  0  0
   26.7538  -18.9813  -14.7520 C   0  0  2  0  0  0  0  0  0  0  0  0
   26.0871  -19.7008  -13.6511 N   0  0  0  0  0  0  0  0  0  0  0  0
   25.8579  -17.9546  -15.2471 C   0  0  0  0  0  0  0  0  0  0  0  0
   24.6057  -18.1466  -14.9675 O   0  0  0  0  0  0  0  0  0  0  0  0
   26.1064  -16.7939  -15.9710 N   0  0  0  0  0  0  0  0  0  0  0  0
   27.4027  -16.3693  -16.4917 C   0  0  0  0  0  0  0  0  0  0  0  0
   27.3888  -14.8663  -16.1674 C   0  0  0  0  0  0  0  0  0  0  0  0
   25.9220  -14.4916  -16.1717 C   0  0  0  0  0  0  0  0  0  0  0  0
   25.2164  -15.7819  -16.4395 C   0  0  1  0  0  0  0  0  0  0  0  0
   24.9017  -15.9439  -17.8962 C   0  0  0  0  0  0  0  0  0  0  0  0
   23.9044  -15.1832  -18.4435 O   0  0  0  0  0  0  0  0  0  0  0  0
   25.5439  -16.7557  -18.5594 O   0  0  0  0  0  0  0  0  0  0  0  0
  2  3  1  0
  2  1  1  0
  4  3  1  0
  5  4  1  0
  5  7  1  0
  5  6  1  1
  7 13  1  0
  7  8  2  0
 10  9  1  1
 10 12  1  0
 11 10  1  0
 12 14  1  0
 12 13  1  1
 14 16  1  0
 14 15  2  0
 16 17  1  0
 17 18  1  0
 19 18  1  0
 20 16  1  0
 20 19  1  0
 20 21  1  6
 22 21  1  0
 23 21  2  0
M  END
$$$$
