MTP.pdb
     RDKit          3D

 23 23  0  0  1  0  0  0  0  0999 V2000
   32.1878  -21.6295   -9.9581 C   0  0  0  0  0  0  0  0  0  0  0  0
   33.0632  -22.4388  -11.3277 S   0  0  0  0  0  0  0  0  0  0  0  0
   31.8834  -22.4703  -12.7279 C   0  0  0  0  0  0  0  0  0  0  0  0
   30.7328  -21.5628  -12.3849 C   0  0  0  0  0  0  0  0  0  0  0  0
   29.7304  -21.3792  -13.4703 C   0  0  2  0  0  0  0  0  0  0  0  0
   30.3028  -21.0974  -14.7526 N   0  0  0  0  0  0  0  0  0  0  0  0
   28.6099  -20.4490  -13.1134 C   0  0  0  0  0  0  0  0  0  0  0  0
   28.8174  -19.2297  -13.2248 O   0  0  0  0  0  0  0  0  0  0  0  0
   25.6081  -19.1698  -14.2006 C   0  0  0  0  0  0  0  0  0  0  0  0
   25.2738  -19.9851  -13.0158 C   0  0  1  0  0  0  0  0  0  0  0  0
   24.9672  -21.2843  -13.5021 O   0  0  0  0  0  0  0  0  0  0  0  0
   26.3366  -20.2021  -11.9788 C   0  0  2  0  0  0  0  0  0  0  0  0
   27.3789  -20.9803  -12.6731 N   0  0  0  0  0  0  0  0  0  0  0  0
   25.9487  -20.9124  -10.7760 C   0  0  0  0  0  0  0  0  0  0  0  0
   26.0252  -22.2047  -10.8608 O   0  0  0  0  0  0  0  0  0  0  0  0
   25.5088  -20.4496   -9.5409 N   0  0  0  0  0  0  0  0  0  0  0  0
   25.2728  -19.0540   -9.1828 C   0  0  0  0  0  0  0  0  0  0  0  0
   25.8789  -18.9904   -7.7712 C   0  0  0  0  0  0  0  0  0  0  0  0
   25.7371  -20.3988   -7.2344 C   0  0  0  0  0  0  0  0  0  0  0  0
   25.1240  -21.1603   -8.3652 C   0  0  1  0  0  0  0  0  0  0  0  0
   23.6339  -21.2462   -8.2255 C   0  0  0  0  0  0  0  0  0  0  0  0
   23.1092  -22.0182   -7.2247 O   0  0  0  0  0  0  0  0  0  0  0  0
   22.9233  -20.6250   -9.0132 O   0  0  0  0  0  0  0  0  0  0  0  0
  2  3  1  0
  2  1  1  0
  4  3  1  0
  5  4  1  0
  5  7  1  0
  5  6  1  6
  7 13  1  0
  7  8  2  0
 10  9  1  6
 10 12  1  0
 11 10  1  0
 12 14  1  0
 12 13  1  6
 14 16  1  0
 14 15  2  0
 16 17  1  0
 17 18  1  0
 19 18  1  0
 20 16  1  0
 20 19  1  0
 20 21  1  1
 22 21  1  0
 23 21  2  0
M  END
$$$$
