MTP.pdb
     RDKit          3D

 23 23  0  0  1  0  0  0  0  0999 V2000
   18.9773  -16.6611  -16.9936 C   0  0  0  0  0  0  0  0  0  0  0  0
   19.8696  -15.1508  -17.4624 S   0  0  0  0  0  0  0  0  0  0  0  0
   21.6290  -15.6352  -17.6162 C   0  0  0  0  0  0  0  0  0  0  0  0
   21.9008  -16.7199  -16.6089 C   0  0  0  0  0  0  0  0  0  0  0  0
   23.3037  -17.2173  -16.5823 C   0  0  2  0  0  0  0  0  0  0  0  0
   23.9273  -17.2760  -17.8704 N   0  0  0  0  0  0  0  0  0  0  0  0
   23.4893  -18.4739  -15.7856 C   0  0  0  0  0  0  0  0  0  0  0  0
   22.4746  -19.1344  -15.5090 O   0  0  0  0  0  0  0  0  0  0  0  0
   27.2760  -20.2960  -15.9979 C   0  0  0  0  0  0  0  0  0  0  0  0
   25.9740  -20.8776  -15.6150 C   0  0  1  0  0  0  0  0  0  0  0  0
   26.2660  -22.0917  -14.9372 O   0  0  0  0  0  0  0  0  0  0  0  0
   25.1016  -20.1071  -14.6678 C   0  0  2  0  0  0  0  0  0  0  0  0
   24.7869  -18.8582  -15.3859 N   0  0  0  0  0  0  0  0  0  0  0  0
   25.6670  -19.7714  -13.3758 C   0  0  0  0  0  0  0  0  0  0  0  0
   26.2896  -18.6340  -13.3351 O   0  0  0  0  0  0  0  0  0  0  0  0
   25.6576  -20.4570  -12.1662 N   0  0  0  0  0  0  0  0  0  0  0  0
   25.1118  -21.7925  -11.9419 C   0  0  0  0  0  0  0  0  0  0  0  0
   24.3877  -21.6086  -10.5979 C   0  0  0  0  0  0  0  0  0  0  0  0
   25.1526  -20.5018   -9.9040 C   0  0  0  0  0  0  0  0  0  0  0  0
   26.2000  -20.1055  -10.8942 C   0  0  1  0  0  0  0  0  0  0  0  0
   27.4999  -20.8031  -10.6278 C   0  0  0  0  0  0  0  0  0  0  0  0
   28.2127  -20.4640   -9.5099 O   0  0  0  0  0  0  0  0  0  0  0  0
   27.8925  -21.6575  -11.4197 O   0  0  0  0  0  0  0  0  0  0  0  0
  2  3  1  0
  2  1  1  0
  4  3  1  0
  5  4  1  0
  5  7  1  0
  5  6  1  6
  7 13  1  0
  7  8  2  0
 10  9  1  1
 10 12  1  0
 11 10  1  0
 12 14  1  0
 12 13  1  6
 14 16  1  0
 14 15  2  0
 16 17  1  0
 17 18  1  0
 19 18  1  0
 20 16  1  0
 20 19  1  0
 20 21  1  1
 22 21  1  0
 23 21  2  0
M  END
$$$$
