MTP.pdb
     RDKit          3D

 23 23  0  0  1  0  0  0  0  0999 V2000
   28.0717  -18.5167   -6.4552 C   0  0  0  0  0  0  0  0  0  0  0  0
   27.1766  -19.9329   -5.7550 S   0  0  0  0  0  0  0  0  0  0  0  0
   26.0065  -20.4783   -7.0539 C   0  0  0  0  0  0  0  0  0  0  0  0
   26.4992  -19.9487   -8.3736 C   0  0  0  0  0  0  0  0  0  0  0  0
   25.6014  -20.2103   -9.5319 C   0  0  2  0  0  0  0  0  0  0  0  0
   24.6400  -21.2471   -9.3034 N   0  0  0  0  0  0  0  0  0  0  0  0
   26.3210  -20.3585  -10.8390 C   0  0  0  0  0  0  0  0  0  0  0  0
   27.3417  -21.0657  -10.8563 O   0  0  0  0  0  0  0  0  0  0  0  0
   26.7021  -22.3433  -13.0094 C   0  0  0  0  0  0  0  0  0  0  0  0
   26.0861  -21.2292  -13.7575 C   0  0  1  0  0  0  0  0  0  0  0  0
   24.6830  -21.3561  -13.5736 O   0  0  0  0  0  0  0  0  0  0  0  0
   26.4055  -19.8255  -13.3340 C   0  0  2  0  0  0  0  0  0  0  0  0
   25.8225  -19.7033  -11.9851 N   0  0  0  0  0  0  0  0  0  0  0  0
   25.8902  -18.7535  -14.1628 C   0  0  0  0  0  0  0  0  0  0  0  0
   24.7267  -18.3037  -13.8063 O   0  0  0  0  0  0  0  0  0  0  0  0
   26.4272  -18.1185  -15.2770 N   0  0  0  0  0  0  0  0  0  0  0  0
   27.6076  -18.5469  -16.0220 C   0  0  0  0  0  0  0  0  0  0  0  0
   28.3219  -17.2074  -16.2662 C   0  0  0  0  0  0  0  0  0  0  0  0
   27.2082  -16.1821  -16.2847 C   0  0  0  0  0  0  0  0  0  0  0  0
   25.9743  -16.9785  -16.0057 C   0  0  1  0  0  0  0  0  0  0  0  0
   25.2727  -17.3664  -17.2724 C   0  0  0  0  0  0  0  0  0  0  0  0
   24.6684  -16.3898  -18.0166 O   0  0  0  0  0  0  0  0  0  0  0  0
   25.2558  -18.5490  -17.6078 O   0  0  0  0  0  0  0  0  0  0  0  0
  2  3  1  0
  2  1  1  0
  4  3  1  0
  5  4  1  0
  5  7  1  0
  5  6  1  1
  7 13  1  0
  7  8  2  0
 10  9  1  1
 10 12  1  0
 11 10  1  0
 12 14  1  0
 12 13  1  1
 14 16  1  0
 14 15  2  0
 16 17  1  0
 17 18  1  0
 19 18  1  0
 20 16  1  0
 20 19  1  0
 20 21  1  6
 22 21  1  0
 23 21  2  0
M  END
$$$$
