MTP.pdb
     RDKit          3D

 23 23  0  0  1  0  0  0  0  0999 V2000
   23.9235  -33.4923  -13.5187 C   0  0  0  0  0  0  0  0  0  0  0  0
   24.6775  -32.9083  -11.9735 S   0  0  0  0  0  0  0  0  0  0  0  0
   24.8320  -34.3851  -10.9016 C   0  0  0  0  0  0  0  0  0  0  0  0
   25.5831  -33.9811   -9.6616 C   0  0  0  0  0  0  0  0  0  0  0  0
   24.8599  -33.0359   -8.7672 C   0  0  2  0  0  0  0  0  0  0  0  0
   24.5002  -31.7988   -9.3931 N   0  0  0  0  0  0  0  0  0  0  0  0
   25.5089  -32.8466   -7.4288 C   0  0  0  0  0  0  0  0  0  0  0  0
   26.2640  -31.8707   -7.2890 O   0  0  0  0  0  0  0  0  0  0  0  0
   23.8045  -32.1825   -4.2904 C   0  0  0  0  0  0  0  0  0  0  0  0
   24.5512  -33.4500   -4.1639 C   0  0  1  0  0  0  0  0  0  0  0  0
   23.6557  -34.4790   -4.5613 O   0  0  0  0  0  0  0  0  0  0  0  0
   25.7688  -33.6467   -5.0188 C   0  0  2  0  0  0  0  0  0  0  0  0
   25.2431  -33.7654   -6.3913 N   0  0  0  0  0  0  0  0  0  0  0  0
   26.5939  -34.8043   -4.7344 C   0  0  0  0  0  0  0  0  0  0  0  0
   26.3792  -35.8258   -5.5047 O   0  0  0  0  0  0  0  0  0  0  0  0
   27.5810  -35.0124   -3.7775 N   0  0  0  0  0  0  0  0  0  0  0  0
   27.9787  -34.0687   -2.7368 C   0  0  0  0  0  0  0  0  0  0  0  0
   29.5104  -34.1986   -2.7709 C   0  0  0  0  0  0  0  0  0  0  0  0
   29.7600  -35.6099   -3.2585 C   0  0  0  0  0  0  0  0  0  0  0  0
   28.3917  -36.1559   -3.5118 C   0  0  1  0  0  0  0  0  0  0  0  0
   27.8869  -36.9394   -2.3376 C   0  0  0  0  0  0  0  0  0  0  0  0
   28.4758  -38.1393   -2.0438 O   0  0  0  0  0  0  0  0  0  0  0  0
   26.9577  -36.4865   -1.6724 O   0  0  0  0  0  0  0  0  0  0  0  0
  2  3  1  0
  2  1  1  0
  4  3  1  0
  5  4  1  0
  5  7  1  0
  5  6  1  6
  7 13  1  0
  7  8  2  0
 10  9  1  6
 10 12  1  0
 11 10  1  0
 12 14  1  0
 12 13  1  6
 14 16  1  0
 14 15  2  0
 16 17  1  0
 17 18  1  0
 19 18  1  0
 20 16  1  0
 20 19  1  0
 20 21  1  1
 22 21  1  0
 23 21  2  0
M  END
$$$$
