MTP.pdb
     RDKit          3D

 23 23  0  0  1  0  0  0  0  0999 V2000
   12.7858  -11.9190  -14.8549 C   0  0  0  0  0  0  0  0  0  0  0  0
   14.5004  -11.9426  -14.2578 S   0  0  0  0  0  0  0  0  0  0  0  0
   15.5535  -11.8871  -15.7549 C   0  0  0  0  0  0  0  0  0  0  0  0
   16.9869  -11.7769  -15.3096 C   0  0  0  0  0  0  0  0  0  0  0  0
   17.9876  -11.7415  -16.4112 C   0  0  2  0  0  0  0  0  0  0  0  0
   18.2468  -13.0183  -17.0064 N   0  0  0  0  0  0  0  0  0  0  0  0
   19.2399  -10.9898  -16.0724 C   0  0  0  0  0  0  0  0  0  0  0  0
   20.1917  -11.6382  -15.6077 O   0  0  0  0  0  0  0  0  0  0  0  0
   21.8477  -10.0275  -17.7649 C   0  0  0  0  0  0  0  0  0  0  0  0
   21.2435   -8.7589  -17.3110 C   0  0  1  0  0  0  0  0  0  0  0  0
   20.2920   -8.3962  -18.3018 O   0  0  0  0  0  0  0  0  0  0  0  0
   20.4771   -8.7575  -16.0209 C   0  0  2  0  0  0  0  0  0  0  0  0
   19.2951   -9.5967  -16.2908 N   0  0  0  0  0  0  0  0  0  0  0  0
   20.0310   -7.4721  -15.5206 C   0  0  0  0  0  0  0  0  0  0  0  0
   18.7719   -7.2235  -15.7101 O   0  0  0  0  0  0  0  0  0  0  0  0
   20.7186   -6.4546  -14.8685 N   0  0  0  0  0  0  0  0  0  0  0  0
   22.1662   -6.3711  -14.6973 C   0  0  0  0  0  0  0  0  0  0  0  0
   22.2782   -5.9019  -13.2373 C   0  0  0  0  0  0  0  0  0  0  0  0
   21.0021   -5.1257  -12.9901 C   0  0  0  0  0  0  0  0  0  0  0  0
   20.2470   -5.2462  -14.2745 C   0  0  1  0  0  0  0  0  0  0  0  0
   20.4780   -4.0594  -15.1609 C   0  0  0  0  0  0  0  0  0  0  0  0
   19.8677   -2.8750  -14.8487 O   0  0  0  0  0  0  0  0  0  0  0  0
   21.2054   -4.1811  -16.1444 O   0  0  0  0  0  0  0  0  0  0  0  0
  2  3  1  0
  2  1  1  0
  4  3  1  0
  5  4  1  0
  5  7  1  0
  5  6  1  1
  7 13  1  0
  7  8  2  0
 10  9  1  6
 10 12  1  0
 11 10  1  0
 12 14  1  0
 12 13  1  6
 14 16  1  0
 14 15  2  0
 16 17  1  0
 17 18  1  0
 19 18  1  0
 20 16  1  0
 20 19  1  0
 20 21  1  6
 22 21  1  0
 23 21  2  0
M  END
$$$$
