MTP.pdb
     RDKit          3D

 23 23  0  0  1  0  0  0  0  0999 V2000
   27.8985  -14.1093  -14.8682 C   0  0  0  0  0  0  0  0  0  0  0  0
   26.9595  -12.7908  -15.6910 S   0  0  0  0  0  0  0  0  0  0  0  0
   25.2176  -13.0180  -15.1736 C   0  0  0  0  0  0  0  0  0  0  0  0
   24.4147  -11.8752  -15.7344 C   0  0  0  0  0  0  0  0  0  0  0  0
   22.9472  -11.9618  -15.4995 C   0  0  2  0  0  0  0  0  0  0  0  0
   22.3843  -13.2471  -15.7870 N   0  0  0  0  0  0  0  0  0  0  0  0
   22.1662  -10.8335  -16.1040 C   0  0  0  0  0  0  0  0  0  0  0  0
   21.5173  -11.0714  -17.1358 O   0  0  0  0  0  0  0  0  0  0  0  0
   19.4685  -10.0333  -16.4786 C   0  0  0  0  0  0  0  0  0  0  0  0
   19.9519   -8.8736  -15.7029 C   0  0  1  0  0  0  0  0  0  0  0  0
   19.8909   -9.2575  -14.3363 O   0  0  0  0  0  0  0  0  0  0  0  0
   21.3660   -8.4171  -15.9126 C   0  0  2  0  0  0  0  0  0  0  0  0
   22.1923   -9.5630  -15.4904 N   0  0  0  0  0  0  0  0  0  0  0  0
   21.7939   -7.2402  -15.1821 C   0  0  0  0  0  0  0  0  0  0  0  0
   22.2684   -7.4792  -13.9986 O   0  0  0  0  0  0  0  0  0  0  0  0
   21.7866   -5.8939  -15.5296 N   0  0  0  0  0  0  0  0  0  0  0  0
   21.1544   -5.3173  -16.7126 C   0  0  0  0  0  0  0  0  0  0  0  0
   22.2221   -4.3118  -17.1744 C   0  0  0  0  0  0  0  0  0  0  0  0
   22.9527   -3.9259  -15.9059 C   0  0  0  0  0  0  0  0  0  0  0  0
   22.3035   -4.7542  -14.8444 C   0  0  1  0  0  0  0  0  0  0  0  0
   21.2257   -3.9913  -14.1347 C   0  0  0  0  0  0  0  0  0  0  0  0
   21.5845   -3.0689  -13.1895 O   0  0  0  0  0  0  0  0  0  0  0  0
   20.0504   -4.2153  -14.4170 O   0  0  0  0  0  0  0  0  0  0  0  0
  2  3  1  0
  2  1  1  0
  4  3  1  0
  5  4  1  0
  5  7  1  0
  5  6  1  6
  7 13  1  0
  7  8  2  0
 10  9  1  6
 10 12  1  0
 11 10  1  0
 12 14  1  0
 12 13  1  1
 14 16  1  0
 14 15  2  0
 16 17  1  0
 17 18  1  0
 19 18  1  0
 20 16  1  0
 20 19  1  0
 20 21  1  6
 22 21  1  0
 23 21  2  0
M  END
$$$$
