MTP.pdb
     RDKit          3D

 23 23  0  0  1  0  0  0  0  0999 V2000
   23.9371  -18.0384  -21.9959 C   0  0  0  0  0  0  0  0  0  0  0  0
   23.0220  -19.4662  -21.3470 S   0  0  0  0  0  0  0  0  0  0  0  0
   23.8028  -19.8747  -19.7417 C   0  0  0  0  0  0  0  0  0  0  0  0
   23.7822  -18.6357  -18.8876 C   0  0  0  0  0  0  0  0  0  0  0  0
   24.4604  -18.7685  -17.5690 C   0  0  2  0  0  0  0  0  0  0  0  0
   24.4114  -20.0894  -17.0172 N   0  0  0  0  0  0  0  0  0  0  0  0
   24.0813  -17.7076  -16.5796 C   0  0  0  0  0  0  0  0  0  0  0  0
   23.3691  -18.0447  -15.6198 O   0  0  0  0  0  0  0  0  0  0  0  0
   26.2069  -15.6666  -14.3571 C   0  0  0  0  0  0  0  0  0  0  0  0
   25.5192  -14.7980  -15.3331 C   0  0  1  0  0  0  0  0  0  0  0  0
   26.3783  -14.7117  -16.4615 O   0  0  0  0  0  0  0  0  0  0  0  0
   24.2007  -15.2538  -15.8860 C   0  0  2  0  0  0  0  0  0  0  0  0
   24.5396  -16.3862  -16.7675 N   0  0  0  0  0  0  0  0  0  0  0  0
   23.4342  -14.2857  -16.6455 C   0  0  0  0  0  0  0  0  0  0  0  0
   23.6896  -14.2691  -17.9173 O   0  0  0  0  0  0  0  0  0  0  0  0
   22.4674  -13.3686  -16.2487 N   0  0  0  0  0  0  0  0  0  0  0  0
   22.0799  -13.0730  -14.8724 C   0  0  0  0  0  0  0  0  0  0  0  0
   20.5491  -12.9920  -14.9930 C   0  0  0  0  0  0  0  0  0  0  0  0
   20.3046  -12.5518  -16.4207 C   0  0  0  0  0  0  0  0  0  0  0  0
   21.6733  -12.4646  -17.0153 C   0  0  1  0  0  0  0  0  0  0  0  0
   22.2078  -11.0651  -16.9606 C   0  0  0  0  0  0  0  0  0  0  0  0
   21.6316  -10.1082  -17.7512 O   0  0  0  0  0  0  0  0  0  0  0  0
   23.1495  -10.8143  -16.2112 O   0  0  0  0  0  0  0  0  0  0  0  0
  2  3  1  0
  2  1  1  0
  4  3  1  0
  5  4  1  0
  5  7  1  0
  5  6  1  1
  7 13  1  0
  7  8  2  0
 10  9  1  1
 10 12  1  0
 11 10  1  0
 12 14  1  0
 12 13  1  6
 14 16  1  0
 14 15  2  0
 16 17  1  0
 17 18  1  0
 19 18  1  0
 20 16  1  0
 20 19  1  0
 20 21  1  1
 22 21  1  0
 23 21  2  0
M  END
$$$$
