MTP.pdb
     RDKit          3D

 23 23  0  0  1  0  0  0  0  0999 V2000
   27.5214  -19.1692   -6.6017 C   0  0  0  0  0  0  0  0  0  0  0  0
   25.9638  -20.0926   -6.7378 S   0  0  0  0  0  0  0  0  0  0  0  0
   26.0908  -21.0646   -8.2847 C   0  0  0  0  0  0  0  0  0  0  0  0
   25.5697  -20.2133   -9.4111 C   0  0  0  0  0  0  0  0  0  0  0  0
   25.6035  -20.8557  -10.7536 C   0  0  2  0  0  0  0  0  0  0  0  0
   25.8967  -22.2574  -10.7233 N   0  0  0  0  0  0  0  0  0  0  0  0
   26.4207  -20.1096  -11.7654 C   0  0  0  0  0  0  0  0  0  0  0  0
   27.5837  -19.8054  -11.4536 O   0  0  0  0  0  0  0  0  0  0  0  0
   28.1324  -21.0423  -14.4348 C   0  0  0  0  0  0  0  0  0  0  0  0
   27.1009  -20.1371  -14.9797 C   0  0  1  0  0  0  0  0  0  0  0  0
   25.9807  -20.9540  -15.2904 O   0  0  0  0  0  0  0  0  0  0  0  0
   26.5573  -19.0595  -14.0880 C   0  0  2  0  0  0  0  0  0  0  0  0
   25.8524  -19.7858  -13.0158 N   0  0  0  0  0  0  0  0  0  0  0  0
   25.6412  -18.1085  -14.6865 C   0  0  0  0  0  0  0  0  0  0  0  0
   24.3916  -18.3037  -14.3976 O   0  0  0  0  0  0  0  0  0  0  0  0
   25.8678  -17.0177  -15.5182 N   0  0  0  0  0  0  0  0  0  0  0  0
   27.1496  -16.6400  -16.1067 C   0  0  0  0  0  0  0  0  0  0  0  0
   27.1379  -15.1139  -15.9194 C   0  0  0  0  0  0  0  0  0  0  0  0
   25.6701  -14.7433  -15.9218 C   0  0  0  0  0  0  0  0  0  0  0  0
   24.9630  -16.0537  -16.0545 C   0  0  1  0  0  0  0  0  0  0  0  0
   24.6139  -16.3473  -17.4825 C   0  0  0  0  0  0  0  0  0  0  0  0
   25.3414  -17.2887  -18.1587 O   0  0  0  0  0  0  0  0  0  0  0  0
   23.6873  -15.7345  -18.0090 O   0  0  0  0  0  0  0  0  0  0  0  0
  2  3  1  0
  2  1  1  0
  4  3  1  0
  5  4  1  0
  5  7  1  0
  5  6  1  1
  7 13  1  0
  7  8  2  0
 10  9  1  1
 10 12  1  0
 11 10  1  0
 12 14  1  0
 12 13  1  1
 14 16  1  0
 14 15  2  0
 16 17  1  0
 17 18  1  0
 19 18  1  0
 20 16  1  0
 20 19  1  0
 20 21  1  6
 22 21  1  0
 23 21  2  0
M  END
$$$$
