WRR.pdb
     RDKit          3D

 37 38  0  0  1  0  0  0  0  0999 V2000
    7.5296  -17.5390   25.6022 N   0  0  0  0  0  0  0  0  0  0  0  0
    7.6485  -16.4603   24.6896 C   0  0  1  0  0  0  0  0  0  0  0  0
    8.6404  -15.3932   25.0502 C   0  0  0  0  0  0  0  0  0  0  0  0
    8.3492  -14.6631   26.2908 C   0  0  0  0  0  0  0  0  0  0  0  0
    8.5608  -15.0375   27.6013 C   0  0  0  0  0  0  0  0  0  0  0  0
    8.1162  -14.0749   28.3878 N   0  0  0  0  0  0  0  0  0  0  0  0
    7.6023  -13.0420   27.6672 C   0  0  0  0  0  0  0  0  0  0  0  0
    7.0388  -11.8437   28.0418 C   0  0  0  0  0  0  0  0  0  0  0  0
    6.6047  -10.9778   27.0698 C   0  0  0  0  0  0  0  0  0  0  0  0
    6.7422  -11.3252   25.7550 C   0  0  0  0  0  0  0  0  0  0  0  0
    7.3016  -12.5154   25.3699 C   0  0  0  0  0  0  0  0  0  0  0  0
    7.7526  -13.4200   26.3253 C   0  0  0  0  0  0  0  0  0  0  0  0
    7.9565  -16.9452   23.2896 C   0  0  0  0  0  0  0  0  0  0  0  0
    8.6531  -17.9717   23.1440 O   0  0  0  0  0  0  0  0  0  0  0  0
    8.3266  -15.4082   16.2335 N   0  0  0  0  0  0  0  0  0  0  0  0
    8.1373  -13.9804   16.1370 C   0  0  0  0  0  0  0  0  0  0  0  0
    7.9250  -13.4271   15.0036 N   0  0  0  0  0  0  0  0  0  0  0  0
    8.1768  -13.1598   17.2957 N   0  0  0  0  0  0  0  0  0  0  0  0
    7.3537  -13.4258   18.4601 C   0  0  0  0  0  0  0  0  0  0  0  0
    8.1115  -14.2378   19.4919 C   0  0  0  0  0  0  0  0  0  0  0  0
    7.4407  -15.5199   19.8263 C   0  0  0  0  0  0  0  0  0  0  0  0
    8.0842  -16.3765   20.8404 C   0  0  2  0  0  0  0  0  0  0  0  0
    7.4643  -16.2504   22.1445 N   0  0  0  0  0  0  0  0  0  0  0  0
    9.5679  -16.3248   20.8913 C   0  0  0  0  0  0  0  0  0  0  0  0
   10.1733  -15.8927   19.8831 O   0  0  0  0  0  0  0  0  0  0  0  0
    7.8140  -12.4049   14.9035 N   0  0  0  0  0  0  0  0  0  0  0  0
   16.1703  -15.4188   19.0499 C   0  0  0  0  0  0  0  0  0  0  0  0
   15.3682  -14.5253   18.2755 N   0  0  0  0  0  0  0  0  0  0  0  0
   15.8153  -14.0630   17.1629 N   0  0  0  0  0  0  0  0  0  0  0  0
   14.0738  -14.1245   18.6964 C   0  0  0  0  0  0  0  0  0  0  0  0
   13.6044  -14.2600   20.0357 C   0  0  0  0  0  0  0  0  0  0  0  0
   12.4431  -15.2551   20.1729 C   0  0  0  0  0  0  0  0  0  0  0  0
   12.3902  -15.6138   21.6192 C   0  0  2  0  0  0  0  0  0  0  0  0
   11.8042  -16.9759   21.9165 N   0  0  0  0  0  0  0  0  0  0  0  0
   10.3508  -16.7296   21.9967 C   0  0  0  0  0  0  0  0  0  0  0  0
   12.2992  -17.4876   23.2211 O   0  0  0  0  0  0  0  0  0  0  0  0
   11.4639  -17.5691   24.3259 O   0  0  0  0  0  0  0  0  0  0  0  0
  2  1  1  1
  2  3  1  0
  3  4  1  0
  4 12  1  0
  4  5  2  0
  5  6  1  0
  7  6  1  0
  7  8  2  0
  9  8  1  0
 10  9  2  0
 11 12  2  0
 11 10  1  0
 12  7  1  0
 13  2  1  0
 14 13  2  0
 15 16  1  0
 16 18  1  0
 17 16  2  0
 18 19  1  0
 19 20  1  0
 20 21  1  0
 22 21  1  6
 22 24  1  0
 22 23  1  0
 23 13  1  0
 24 34  1  0
 25 24  2  0
 27 29  1  0
 27 26  1  0
 28 27  2  0
 30 31  1  0
 30 29  1  0
 32 31  1  0
 33 32  1  6
 34 33  1  0
 35 36  1  0
 35 33  1  0
 37 35  2  0
M  END
$$$$
