WRR.pdb
     RDKit          3D

 37 38  0  0  1  0  0  0  0  0999 V2000
    5.9973  -17.6215   25.0461 N   0  0  0  0  0  0  0  0  0  0  0  0
    6.6395  -16.5579   24.3626 C   0  0  1  0  0  0  0  0  0  0  0  0
    7.3924  -15.5801   25.2166 C   0  0  0  0  0  0  0  0  0  0  0  0
    6.5771  -14.5135   25.8121 C   0  0  0  0  0  0  0  0  0  0  0  0
    5.4700  -14.6058   26.6295 C   0  0  0  0  0  0  0  0  0  0  0  0
    5.0457  -13.3848   26.8977 N   0  0  0  0  0  0  0  0  0  0  0  0
    5.8219  -12.4452   26.2938 C   0  0  0  0  0  0  0  0  0  0  0  0
    5.7714  -11.0700   26.2866 C   0  0  0  0  0  0  0  0  0  0  0  0
    6.7140  -10.3714   25.5751 C   0  0  0  0  0  0  0  0  0  0  0  0
    7.6794  -11.0568   24.8918 C   0  0  0  0  0  0  0  0  0  0  0  0
    7.7399  -12.4257   24.8916 C   0  0  0  0  0  0  0  0  0  0  0  0
    6.8018  -13.1693   25.5999 C   0  0  0  0  0  0  0  0  0  0  0  0
    7.5722  -17.0690   23.2862 C   0  0  0  0  0  0  0  0  0  0  0  0
    8.5112  -17.8269   23.6085 O   0  0  0  0  0  0  0  0  0  0  0  0
    6.7592  -14.6232   16.7593 N   0  0  0  0  0  0  0  0  0  0  0  0
    8.0113  -14.1230   16.2437 C   0  0  0  0  0  0  0  0  0  0  0  0
    8.0366  -13.3822   15.2014 N   0  0  0  0  0  0  0  0  0  0  0  0
    9.2403  -14.4363   16.8832 N   0  0  0  0  0  0  0  0  0  0  0  0
    9.3037  -15.2603   18.0752 C   0  0  0  0  0  0  0  0  0  0  0  0
    8.9993  -14.4482   19.3187 C   0  0  0  0  0  0  0  0  0  0  0  0
    7.9895  -15.0914   20.1974 C   0  0  0  0  0  0  0  0  0  0  0  0
    8.4657  -16.1337   21.1263 C   0  0  2  0  0  0  0  0  0  0  0  0
    7.3926  -16.6993   21.9196 N   0  0  0  0  0  0  0  0  0  0  0  0
    9.6682  -15.7921   21.9287 C   0  0  0  0  0  0  0  0  0  0  0  0
    9.7711  -14.6200   22.3588 O   0  0  0  0  0  0  0  0  0  0  0  0
    8.9170  -12.9971   14.8224 N   0  0  0  0  0  0  0  0  0  0  0  0
   12.2027  -19.0049   28.8035 C   0  0  0  0  0  0  0  0  0  0  0  0
   11.9900  -17.5921   28.8022 N   0  0  0  0  0  0  0  0  0  0  0  0
   12.0256  -16.9373   29.9074 N   0  0  0  0  0  0  0  0  0  0  0  0
   11.7382  -16.8734   27.6049 C   0  0  0  0  0  0  0  0  0  0  0  0
   11.5343  -17.4982   26.3398 C   0  0  0  0  0  0  0  0  0  0  0  0
   11.3530  -16.4955   25.1911 C   0  0  0  0  0  0  0  0  0  0  0  0
   12.1692  -17.0264   24.0618 C   0  0  2  0  0  0  0  0  0  0  0  0
   12.0253  -16.2691   22.7608 N   0  0  0  0  0  0  0  0  0  0  0  0
   10.7098  -16.6947   22.2435 C   0  0  0  0  0  0  0  0  0  0  0  0
   13.0921  -16.6617   21.8034 O   0  0  0  0  0  0  0  0  0  0  0  0
   12.8342  -17.5363   20.7576 O   0  0  0  0  0  0  0  0  0  0  0  0
  2  1  1  1
  2  3  1  0
  3  4  1  0
  4 12  1  0
  4  5  2  0
  5  6  1  0
  7  6  1  0
  7  8  2  0
  9  8  1  0
 10  9  2  0
 11 12  2  0
 11 10  1  0
 12  7  1  0
 13  2  1  0
 14 13  2  0
 15 16  1  0
 16 18  1  0
 17 16  2  0
 18 19  1  0
 19 20  1  0
 20 21  1  0
 22 21  1  1
 22 24  1  0
 22 23  1  0
 23 13  1  0
 24 34  1  0
 25 24  2  0
 27 29  1  0
 27 26  1  0
 28 27  2  0
 30 31  1  0
 30 29  1  0
 32 31  1  0
 33 32  1  1
 34 33  1  0
 35 36  1  0
 35 33  1  0
 37 35  2  0
M  END
$$$$
