WRR.pdb
     RDKit          3D

 37 38  0  0  1  0  0  0  0  0999 V2000
    7.5507  -17.5504   25.6185 N   0  0  0  0  0  0  0  0  0  0  0  0
    7.5569  -16.2741   25.0006 C   0  0  1  0  0  0  0  0  0  0  0  0
    8.6098  -15.3144   25.4724 C   0  0  0  0  0  0  0  0  0  0  0  0
    8.2431  -14.5125   26.6469 C   0  0  0  0  0  0  0  0  0  0  0  0
    8.5681  -14.6983   27.9744 C   0  0  0  0  0  0  0  0  0  0  0  0
    7.9919  -13.7451   28.6830 N   0  0  0  0  0  0  0  0  0  0  0  0
    7.2765  -12.9011   27.8916 C   0  0  0  0  0  0  0  0  0  0  0  0
    6.5259  -11.7829   28.1740 C   0  0  0  0  0  0  0  0  0  0  0  0
    5.9086  -11.1165   27.1455 C   0  0  0  0  0  0  0  0  0  0  0  0
    6.0539  -11.5781   25.8672 C   0  0  0  0  0  0  0  0  0  0  0  0
    6.7987  -12.6903   25.5738 C   0  0  0  0  0  0  0  0  0  0  0  0
    7.4388  -13.3935   26.5889 C   0  0  0  0  0  0  0  0  0  0  0  0
    7.6513  -16.3840   23.4943 C   0  0  0  0  0  0  0  0  0  0  0  0
    8.0917  -17.4387   22.9906 O   0  0  0  0  0  0  0  0  0  0  0  0
    9.2036  -15.7091   16.7409 N   0  0  0  0  0  0  0  0  0  0  0  0
    9.1957  -14.2685   16.6490 C   0  0  0  0  0  0  0  0  0  0  0  0
   10.2056  -13.6408   16.1778 N   0  0  0  0  0  0  0  0  0  0  0  0
    8.0675  -13.5170   17.0733 N   0  0  0  0  0  0  0  0  0  0  0  0
    7.3378  -13.8355   18.2857 C   0  0  0  0  0  0  0  0  0  0  0  0
    8.0714  -13.3337   19.5139 C   0  0  0  0  0  0  0  0  0  0  0  0
    7.4323  -13.7604   20.7847 C   0  0  0  0  0  0  0  0  0  0  0  0
    7.9259  -15.0034   21.4069 C   0  0  2  0  0  0  0  0  0  0  0  0
    7.2458  -15.3070   22.6504 N   0  0  0  0  0  0  0  0  0  0  0  0
    9.4017  -15.1457   21.4983 C   0  0  0  0  0  0  0  0  0  0  0  0
    9.9350  -15.0017   22.6227 O   0  0  0  0  0  0  0  0  0  0  0  0
   10.2445  -12.6091   16.1444 N   0  0  0  0  0  0  0  0  0  0  0  0
   15.4512  -18.7962   19.2979 C   0  0  0  0  0  0  0  0  0  0  0  0
   15.6876  -19.3636   20.5877 N   0  0  0  0  0  0  0  0  0  0  0  0
   16.8364  -19.8684   20.8653 N   0  0  0  0  0  0  0  0  0  0  0  0
   14.6841  -19.3889   21.5905 C   0  0  0  0  0  0  0  0  0  0  0  0
   13.3763  -18.8511   21.4092 C   0  0  0  0  0  0  0  0  0  0  0  0
   13.3822  -17.3930   20.9280 C   0  0  0  0  0  0  0  0  0  0  0  0
   11.9613  -16.9448   20.9869 C   0  0  1  0  0  0  0  0  0  0  0  0
   11.7214  -15.5255   20.5231 N   0  0  0  0  0  0  0  0  0  0  0  0
   10.2528  -15.4315   20.4061 C   0  0  0  0  0  0  0  0  0  0  0  0
   12.3466  -15.2940   19.1949 O   0  0  0  0  0  0  0  0  0  0  0  0
   13.5760  -14.6615   19.0786 O   0  0  0  0  0  0  0  0  0  0  0  0
  2  1  1  1
  2  3  1  0
  3  4  1  0
  4 12  1  0
  4  5  2  0
  5  6  1  0
  7  6  1  0
  7  8  2  0
  9  8  1  0
 10  9  2  0
 11 12  2  0
 11 10  1  0
 12  7  1  0
 13  2  1  0
 14 13  2  0
 15 16  1  0
 16 18  1  0
 17 16  2  0
 18 19  1  0
 19 20  1  0
 20 21  1  0
 22 21  1  1
 22 24  1  0
 22 23  1  0
 23 13  1  0
 24 34  1  0
 25 24  2  0
 27 29  1  0
 27 26  1  0
 28 27  2  0
 30 31  1  0
 30 29  1  0
 32 31  1  0
 33 32  1  1
 34 33  1  0
 35 36  1  0
 35 33  1  0
 37 35  2  0
M  END
$$$$
