WRR.pdb
     RDKit          3D

 37 38  0  0  1  0  0  0  0  0999 V2000
    6.3194  -17.7619   24.8388 N   0  0  0  0  0  0  0  0  0  0  0  0
    7.1091  -16.7359   24.2605 C   0  0  1  0  0  0  0  0  0  0  0  0
    7.8788  -15.8730   25.2172 C   0  0  0  0  0  0  0  0  0  0  0  0
    7.0744  -14.8978   25.9649 C   0  0  0  0  0  0  0  0  0  0  0  0
    5.8941  -15.0771   26.6555 C   0  0  0  0  0  0  0  0  0  0  0  0
    5.5170  -13.9117   27.1480 N   0  0  0  0  0  0  0  0  0  0  0  0
    6.3969  -12.9268   26.8229 C   0  0  0  0  0  0  0  0  0  0  0  0
    6.4253  -11.5811   27.1094 C   0  0  0  0  0  0  0  0  0  0  0  0
    7.4668  -10.8208   26.6403 C   0  0  0  0  0  0  0  0  0  0  0  0
    8.4500  -11.4171   25.9012 C   0  0  0  0  0  0  0  0  0  0  0  0
    8.4326  -12.7560   25.6095 C   0  0  0  0  0  0  0  0  0  0  0  0
    7.3933  -13.5597   26.0662 C   0  0  0  0  0  0  0  0  0  0  0  0
    8.0732  -17.2866   23.2323 C   0  0  0  0  0  0  0  0  0  0  0  0
    8.8368  -18.2201   23.5571 O   0  0  0  0  0  0  0  0  0  0  0  0
    9.2964  -13.1937   17.1626 N   0  0  0  0  0  0  0  0  0  0  0  0
    8.5284  -12.8957   18.3480 C   0  0  0  0  0  0  0  0  0  0  0  0
    8.6180  -11.7506   18.9108 N   0  0  0  0  0  0  0  0  0  0  0  0
    7.6537  -13.8621   18.9122 N   0  0  0  0  0  0  0  0  0  0  0  0
    7.4084  -15.1449   18.2811 C   0  0  0  0  0  0  0  0  0  0  0  0
    7.5609  -16.2810   19.2733 C   0  0  0  0  0  0  0  0  0  0  0  0
    8.9754  -16.5405   19.6434 C   0  0  0  0  0  0  0  0  0  0  0  0
    9.2429  -16.9903   21.0226 C   0  0  2  0  0  0  0  0  0  0  0  0
    8.1192  -16.7571   21.9079 N   0  0  0  0  0  0  0  0  0  0  0  0
   10.5429  -16.5694   21.6053 C   0  0  0  0  0  0  0  0  0  0  0  0
   10.6413  -15.3945   22.0290 O   0  0  0  0  0  0  0  0  0  0  0  0
    8.0917  -11.5174   19.7685 N   0  0  0  0  0  0  0  0  0  0  0  0
   13.3082  -20.3278   28.1587 C   0  0  0  0  0  0  0  0  0  0  0  0
   12.0462  -19.7607   27.8023 N   0  0  0  0  0  0  0  0  0  0  0  0
   10.9818  -20.1225   28.4250 N   0  0  0  0  0  0  0  0  0  0  0  0
   11.9234  -18.7952   26.7698 C   0  0  0  0  0  0  0  0  0  0  0  0
   12.6806  -18.8332   25.5624 C   0  0  0  0  0  0  0  0  0  0  0  0
   12.3177  -17.7068   24.5841 C   0  0  0  0  0  0  0  0  0  0  0  0
   13.2366  -17.8729   23.4215 C   0  0  2  0  0  0  0  0  0  0  0  0
   12.9736  -16.9370   22.2630 N   0  0  0  0  0  0  0  0  0  0  0  0
   11.6822  -17.3989   21.7168 C   0  0  0  0  0  0  0  0  0  0  0  0
   14.0326  -17.0704   21.2289 O   0  0  0  0  0  0  0  0  0  0  0  0
   15.3068  -16.5610   21.4337 O   0  0  0  0  0  0  0  0  0  0  0  0
  2  1  1  1
  2  3  1  0
  3  4  1  0
  4 12  1  0
  4  5  2  0
  5  6  1  0
  7  6  1  0
  7  8  2  0
  9  8  1  0
 10  9  2  0
 11 12  2  0
 11 10  1  0
 12  7  1  0
 13  2  1  0
 14 13  2  0
 15 16  1  0
 16 18  1  0
 17 16  2  0
 18 19  1  0
 19 20  1  0
 20 21  1  0
 22 21  1  6
 22 24  1  0
 22 23  1  0
 23 13  1  0
 24 34  1  0
 25 24  2  0
 27 29  1  0
 27 26  1  0
 28 27  2  0
 30 31  1  0
 30 29  1  0
 32 31  1  0
 33 32  1  1
 34 33  1  0
 35 36  1  0
 35 33  1  0
 37 35  2  0
M  END
$$$$
