WRR.pdb
     RDKit          3D

 37 38  0  0  1  0  0  0  0  0999 V2000
    6.5390  -18.7638   24.2546 N   0  0  0  0  0  0  0  0  0  0  0  0
    6.9384  -17.4033   24.2356 C   0  0  1  0  0  0  0  0  0  0  0  0
    7.5602  -16.8773   25.4962 C   0  0  0  0  0  0  0  0  0  0  0  0
    6.9827  -15.6254   26.0025 C   0  0  0  0  0  0  0  0  0  0  0  0
    5.8763  -15.4279   26.8019 C   0  0  0  0  0  0  0  0  0  0  0  0
    5.7153  -14.1296   26.9791 N   0  0  0  0  0  0  0  0  0  0  0  0
    6.6742  -13.4167   26.3292 C   0  0  0  0  0  0  0  0  0  0  0  0
    6.9124  -12.0651   26.2288 C   0  0  0  0  0  0  0  0  0  0  0  0
    7.9842  -11.6296   25.4909 C   0  0  0  0  0  0  0  0  0  0  0  0
    8.7887  -12.5469   24.8745 C   0  0  0  0  0  0  0  0  0  0  0  0
    8.5615  -13.8950   24.9673 C   0  0  0  0  0  0  0  0  0  0  0  0
    7.4847  -14.3756   25.7050 C   0  0  0  0  0  0  0  0  0  0  0  0
    7.8759  -17.1132   23.0836 C   0  0  0  0  0  0  0  0  0  0  0  0
    8.4691  -18.0636   22.5317 O   0  0  0  0  0  0  0  0  0  0  0  0
    7.0383  -14.6415   15.6671 N   0  0  0  0  0  0  0  0  0  0  0  0
    8.1838  -13.7701   15.7794 C   0  0  0  0  0  0  0  0  0  0  0  0
    8.9057  -13.5090   14.7564 N   0  0  0  0  0  0  0  0  0  0  0  0
    8.5316  -13.1798   17.0236 N   0  0  0  0  0  0  0  0  0  0  0  0
    7.8416  -13.5102   18.2560 C   0  0  0  0  0  0  0  0  0  0  0  0
    8.7464  -14.2754   19.2015 C   0  0  0  0  0  0  0  0  0  0  0  0
    8.0595  -14.6905   20.4511 C   0  0  0  0  0  0  0  0  0  0  0  0
    8.8371  -15.4879   21.4184 C   0  0  2  0  0  0  0  0  0  0  0  0
    8.0874  -15.7787   22.6243 N   0  0  0  0  0  0  0  0  0  0  0  0
   10.2198  -15.0175   21.6892 C   0  0  0  0  0  0  0  0  0  0  0  0
   10.8029  -14.3667   20.7914 O   0  0  0  0  0  0  0  0  0  0  0  0
    9.6911  -12.8391   14.7949 N   0  0  0  0  0  0  0  0  0  0  0  0
   10.4444  -18.9929   25.9251 C   0  0  0  0  0  0  0  0  0  0  0  0
   11.4003  -20.0453   25.7835 N   0  0  0  0  0  0  0  0  0  0  0  0
   11.9977  -20.5127   26.8209 N   0  0  0  0  0  0  0  0  0  0  0  0
   11.7180  -20.6036   24.5184 C   0  0  0  0  0  0  0  0  0  0  0  0
   11.4524  -19.9491   23.2799 C   0  0  0  0  0  0  0  0  0  0  0  0
   12.3269  -18.7080   23.0509 C   0  0  0  0  0  0  0  0  0  0  0  0
   11.4067  -17.5407   23.1693 C   0  0  1  0  0  0  0  0  0  0  0  0
   12.0645  -16.1906   22.9920 N   0  0  0  0  0  0  0  0  0  0  0  0
   10.9301  -15.2515   22.8890 C   0  0  0  0  0  0  0  0  0  0  0  0
   12.8611  -16.1548   21.7379 O   0  0  0  0  0  0  0  0  0  0  0  0
   14.2147  -15.8504   21.7537 O   0  0  0  0  0  0  0  0  0  0  0  0
  2  1  1  1
  2  3  1  0
  3  4  1  0
  4 12  1  0
  4  5  2  0
  5  6  1  0
  7  6  1  0
  7  8  2  0
  9  8  1  0
 10  9  2  0
 11 12  2  0
 11 10  1  0
 12  7  1  0
 13  2  1  0
 14 13  2  0
 15 16  1  0
 16 18  1  0
 17 16  2  0
 18 19  1  0
 19 20  1  0
 20 21  1  0
 22 21  1  1
 22 24  1  0
 22 23  1  0
 23 13  1  0
 24 34  1  0
 25 24  2  0
 27 29  1  0
 27 26  1  0
 28 27  2  0
 30 31  1  0
 30 29  1  0
 32 31  1  0
 33 32  1  1
 34 33  1  0
 35 36  1  0
 35 33  1  0
 37 35  2  0
M  END
$$$$
