WRR.pdb
     RDKit          3D

 37 38  0  0  1  0  0  0  0  0999 V2000
    6.2521  -17.6289   24.4863 N   0  0  0  0  0  0  0  0  0  0  0  0
    6.7777  -16.3590   24.1372 C   0  0  1  0  0  0  0  0  0  0  0  0
    7.5446  -15.6415   25.2093 C   0  0  0  0  0  0  0  0  0  0  0  0
    6.7701  -14.6621   25.9825 C   0  0  0  0  0  0  0  0  0  0  0  0
    5.6828  -14.8562   26.8087 C   0  0  0  0  0  0  0  0  0  0  0  0
    5.2940  -13.6820   27.2703 N   0  0  0  0  0  0  0  0  0  0  0  0
    6.0758  -12.6767   26.7926 C   0  0  0  0  0  0  0  0  0  0  0  0
    6.0570  -11.3155   26.9945 C   0  0  0  0  0  0  0  0  0  0  0  0
    6.9967  -10.5353   26.3691 C   0  0  0  0  0  0  0  0  0  0  0  0
    7.9278  -11.1274   25.5623 C   0  0  0  0  0  0  0  0  0  0  0  0
    7.9565  -12.4814   25.3538 C   0  0  0  0  0  0  0  0  0  0  0  0
    7.0202  -13.3058   25.9690 C   0  0  0  0  0  0  0  0  0  0  0  0
    7.6449  -16.4353   22.8994 C   0  0  0  0  0  0  0  0  0  0  0  0
    8.1274  -17.5377   22.5652 O   0  0  0  0  0  0  0  0  0  0  0  0
    8.0847  -12.6568   15.5345 N   0  0  0  0  0  0  0  0  0  0  0  0
    8.5418  -13.9982   15.8096 C   0  0  0  0  0  0  0  0  0  0  0  0
    9.7256  -14.3611   15.4887 N   0  0  0  0  0  0  0  0  0  0  0  0
    7.6922  -14.9418   16.4461 N   0  0  0  0  0  0  0  0  0  0  0  0
    7.5485  -15.0035   17.8882 C   0  0  0  0  0  0  0  0  0  0  0  0
    8.7389  -14.3738   18.5843 C   0  0  0  0  0  0  0  0  0  0  0  0
    8.5164  -14.1660   20.0378 C   0  0  0  0  0  0  0  0  0  0  0  0
    8.7455  -15.3185   20.9296 C   0  0  2  0  0  0  0  0  0  0  0  0
    7.9145  -15.2731   22.1163 N   0  0  0  0  0  0  0  0  0  0  0  0
   10.1649  -15.6446   21.2223 C   0  0  0  0  0  0  0  0  0  0  0  0
   10.9294  -15.8536   20.2521 O   0  0  0  0  0  0  0  0  0  0  0  0
   10.0688  -15.3217   15.6515 N   0  0  0  0  0  0  0  0  0  0  0  0
   14.0619  -21.5468   26.0066 C   0  0  0  0  0  0  0  0  0  0  0  0
   12.8888  -21.1948   25.2707 N   0  0  0  0  0  0  0  0  0  0  0  0
   12.1172  -22.1161   24.8153 N   0  0  0  0  0  0  0  0  0  0  0  0
   12.5382  -19.8427   25.0217 C   0  0  0  0  0  0  0  0  0  0  0  0
   11.3484  -19.4505   24.3412 C   0  0  0  0  0  0  0  0  0  0  0  0
   11.2030  -17.9281   24.2036 C   0  0  0  0  0  0  0  0  0  0  0  0
   12.1266  -17.5343   23.1012 C   0  0  2  0  0  0  0  0  0  0  0  0
   12.1374  -16.0574   22.7763 N   0  0  0  0  0  0  0  0  0  0  0  0
   10.7191  -15.7380   22.5195 C   0  0  0  0  0  0  0  0  0  0  0  0
   12.9405  -15.7941   21.5538 O   0  0  0  0  0  0  0  0  0  0  0  0
   12.3344  -15.4395   20.3572 O   0  0  0  0  0  0  0  0  0  0  0  0
  2  1  1  1
  2  3  1  0
  3  4  1  0
  4 12  1  0
  4  5  2  0
  5  6  1  0
  7  6  1  0
  7  8  2  0
  9  8  1  0
 10  9  2  0
 11 12  2  0
 11 10  1  0
 12  7  1  0
 13  2  1  0
 14 13  2  0
 15 16  1  0
 16 18  1  0
 17 16  2  0
 18 19  1  0
 19 20  1  0
 20 21  1  0
 22 21  1  1
 22 24  1  0
 22 23  1  0
 23 13  1  0
 24 34  1  0
 25 24  2  0
 27 29  1  0
 27 26  1  0
 28 27  2  0
 30 31  1  0
 30 29  1  0
 32 31  1  0
 33 32  1  1
 34 33  1  0
 35 36  1  0
 35 33  1  0
 37 35  2  0
M  END
$$$$
