WRR.pdb
     RDKit          3D

 37 38  0  0  1  0  0  0  0  0999 V2000
    6.5533  -16.1469   22.5366 N   0  0  0  0  0  0  0  0  0  0  0  0
    7.6050  -16.1527   23.4877 C   0  0  1  0  0  0  0  0  0  0  0  0
    7.2214  -16.4938   24.8981 C   0  0  0  0  0  0  0  0  0  0  0  0
    6.8091  -15.3533   25.7265 C   0  0  0  0  0  0  0  0  0  0  0  0
    6.2163  -15.3403   26.9718 C   0  0  0  0  0  0  0  0  0  0  0  0
    5.9981  -14.0850   27.3176 N   0  0  0  0  0  0  0  0  0  0  0  0
    6.4203  -13.2235   26.3534 C   0  0  0  0  0  0  0  0  0  0  0  0
    6.4055  -11.8499   26.2702 C   0  0  0  0  0  0  0  0  0  0  0  0
    6.9178  -11.2438   25.1508 C   0  0  0  0  0  0  0  0  0  0  0  0
    7.4302  -12.0171   24.1469 C   0  0  0  0  0  0  0  0  0  0  0  0
    7.4504  -13.3854   24.2184 C   0  0  0  0  0  0  0  0  0  0  0  0
    6.9395  -14.0368   25.3361 C   0  0  0  0  0  0  0  0  0  0  0  0
    8.7340  -17.0675   23.0654 C   0  0  0  0  0  0  0  0  0  0  0  0
    9.0680  -18.0053   23.8198 O   0  0  0  0  0  0  0  0  0  0  0  0
   12.7208  -17.1560   15.3333 N   0  0  0  0  0  0  0  0  0  0  0  0
   11.6623  -17.9562   15.9016 C   0  0  0  0  0  0  0  0  0  0  0  0
   10.7730  -18.4871   15.1511 N   0  0  0  0  0  0  0  0  0  0  0  0
   11.5869  -18.1767   17.3028 N   0  0  0  0  0  0  0  0  0  0  0  0
   12.6404  -17.7605   18.2089 C   0  0  0  0  0  0  0  0  0  0  0  0
   12.2816  -18.0768   19.6475 C   0  0  0  0  0  0  0  0  0  0  0  0
   11.0310  -17.4108   20.0921 C   0  0  0  0  0  0  0  0  0  0  0  0
   10.6509  -17.5610   21.5096 C   0  0  2  0  0  0  0  0  0  0  0  0
    9.4148  -16.8736   21.8262 N   0  0  0  0  0  0  0  0  0  0  0  0
   11.7274  -17.3149   22.5030 C   0  0  0  0  0  0  0  0  0  0  0  0
   11.7715  -16.1893   23.0514 O   0  0  0  0  0  0  0  0  0  0  0  0
    9.9990  -19.0544   15.5333 N   0  0  0  0  0  0  0  0  0  0  0  0
   15.0579  -20.3414   28.6828 C   0  0  0  0  0  0  0  0  0  0  0  0
   13.6988  -20.1592   29.0843 N   0  0  0  0  0  0  0  0  0  0  0  0
   13.4232  -19.4162   30.0960 N   0  0  0  0  0  0  0  0  0  0  0  0
   12.6244  -20.7777   28.3942 C   0  0  0  0  0  0  0  0  0  0  0  0
   12.2097  -20.4005   27.0833 C   0  0  0  0  0  0  0  0  0  0  0  0
   13.1890  -19.4422   26.3903 C   0  0  0  0  0  0  0  0  0  0  0  0
   12.6111  -19.1842   25.0402 C   0  0  1  0  0  0  0  0  0  0  0  0
   13.4100  -18.2342   24.1764 N   0  0  0  0  0  0  0  0  0  0  0  0
   12.7106  -18.2597   22.8765 C   0  0  0  0  0  0  0  0  0  0  0  0
   14.8030  -18.7236   24.0066 O   0  0  0  0  0  0  0  0  0  0  0  0
   15.0962  -19.7786   23.1546 O   0  0  0  0  0  0  0  0  0  0  0  0
  2  1  1  6
  2  3  1  0
  3  4  1  0
  4 12  1  0
  4  5  2  0
  5  6  1  0
  7  6  1  0
  7  8  2  0
  9  8  1  0
 10  9  2  0
 11 12  2  0
 11 10  1  0
 12  7  1  0
 13  2  1  0
 14 13  2  0
 15 16  1  0
 16 18  1  0
 17 16  2  0
 18 19  1  0
 19 20  1  0
 20 21  1  0
 22 21  1  6
 22 24  1  0
 22 23  1  0
 23 13  1  0
 24 34  1  0
 25 24  2  0
 27 29  1  0
 27 26  1  0
 28 27  2  0
 30 31  1  0
 30 29  1  0
 32 31  1  0
 33 32  1  1
 34 33  1  0
 35 36  1  0
 35 33  1  0
 37 35  2  0
M  END
$$$$
