WRR.pdb
     RDKit          3D

 37 38  0  0  1  0  0  0  0  0999 V2000
    6.2470  -17.0163   25.4131 N   0  0  0  0  0  0  0  0  0  0  0  0
    7.1180  -16.0049   24.9344 C   0  0  1  0  0  0  0  0  0  0  0  0
    8.2362  -15.6043   25.8518 C   0  0  0  0  0  0  0  0  0  0  0  0
    7.8875  -14.5916   26.8566 C   0  0  0  0  0  0  0  0  0  0  0  0
    7.9800  -14.6492   28.2316 C   0  0  0  0  0  0  0  0  0  0  0  0
    7.5245  -13.5144   28.7290 N   0  0  0  0  0  0  0  0  0  0  0  0
    7.1182  -12.6681   27.7446 C   0  0  0  0  0  0  0  0  0  0  0  0
    6.5872  -11.3989   27.7777 C   0  0  0  0  0  0  0  0  0  0  0  0
    6.2713  -10.7769   26.5961 C   0  0  0  0  0  0  0  0  0  0  0  0
    6.4914  -11.4312   25.4163 C   0  0  0  0  0  0  0  0  0  0  0  0
    7.0195  -12.6949   25.3708 C   0  0  0  0  0  0  0  0  0  0  0  0
    7.3516  -13.3589   26.5470 C   0  0  0  0  0  0  0  0  0  0  0  0
    7.7102  -16.3690   23.5903 C   0  0  0  0  0  0  0  0  0  0  0  0
    8.1023  -17.5392   23.3983 O   0  0  0  0  0  0  0  0  0  0  0  0
    9.5621  -15.2125   17.1385 N   0  0  0  0  0  0  0  0  0  0  0  0
    8.6437  -14.1201   16.9219 C   0  0  0  0  0  0  0  0  0  0  0  0
    8.9993  -13.0954   16.2440 N   0  0  0  0  0  0  0  0  0  0  0  0
    7.3258  -14.1598   17.4503 N   0  0  0  0  0  0  0  0  0  0  0  0
    6.9600  -15.0307   18.5511 C   0  0  0  0  0  0  0  0  0  0  0  0
    7.1885  -14.3502   19.8864 C   0  0  0  0  0  0  0  0  0  0  0  0
    8.5686  -14.5362   20.4023 C   0  0  0  0  0  0  0  0  0  0  0  0
    8.7665  -15.5478   21.4575 C   0  0  2  0  0  0  0  0  0  0  0  0
    7.8241  -15.4000   22.5488 N   0  0  0  0  0  0  0  0  0  0  0  0
   10.1653  -15.7466   21.9164 C   0  0  0  0  0  0  0  0  0  0  0  0
   10.5441  -15.1147   22.9298 O   0  0  0  0  0  0  0  0  0  0  0  0
    8.3808  -12.2774   16.1196 N   0  0  0  0  0  0  0  0  0  0  0  0
   13.0942  -19.3170   27.8780 C   0  0  0  0  0  0  0  0  0  0  0  0
   12.0075  -18.4915   27.4548 N   0  0  0  0  0  0  0  0  0  0  0  0
   11.2949  -17.8726   28.3270 N   0  0  0  0  0  0  0  0  0  0  0  0
   11.6821  -18.3260   26.0837 C   0  0  0  0  0  0  0  0  0  0  0  0
   11.9128  -19.3256   25.0936 C   0  0  0  0  0  0  0  0  0  0  0  0
   12.6771  -18.8009   23.8696 C   0  0  0  0  0  0  0  0  0  0  0  0
   11.6892  -17.9982   23.0929 C   0  0  1  0  0  0  0  0  0  0  0  0
   12.2824  -17.1570   21.9850 N   0  0  0  0  0  0  0  0  0  0  0  0
   11.1050  -16.5982   21.2915 C   0  0  0  0  0  0  0  0  0  0  0  0
   13.0644  -18.0018   21.0450 O   0  0  0  0  0  0  0  0  0  0  0  0
   12.6637  -18.1730   19.7277 O   0  0  0  0  0  0  0  0  0  0  0  0
  2  1  1  1
  2  3  1  0
  3  4  1  0
  4 12  1  0
  4  5  2  0
  5  6  1  0
  7  6  1  0
  7  8  2  0
  9  8  1  0
 10  9  2  0
 11 12  2  0
 11 10  1  0
 12  7  1  0
 13  2  1  0
 14 13  2  0
 15 16  1  0
 16 18  1  0
 17 16  2  0
 18 19  1  0
 19 20  1  0
 20 21  1  0
 22 21  1  6
 22 24  1  0
 22 23  1  0
 23 13  1  0
 24 34  1  0
 25 24  2  0
 27 29  1  0
 27 26  1  0
 28 27  2  0
 30 31  1  0
 30 29  1  0
 32 31  1  0
 33 32  1  1
 34 33  1  0
 35 36  1  0
 35 33  1  0
 37 35  2  0
M  END
$$$$
