WRR.pdb
     RDKit          3D

 37 38  0  0  1  0  0  0  0  0999 V2000
    6.8540  -17.6855   24.5574 N   0  0  0  0  0  0  0  0  0  0  0  0
    7.6763  -16.7263   23.9136 C   0  0  1  0  0  0  0  0  0  0  0  0
    8.1342  -15.5726   24.7573 C   0  0  0  0  0  0  0  0  0  0  0  0
    7.0595  -14.7440   25.3189 C   0  0  0  0  0  0  0  0  0  0  0  0
    5.8539  -15.1238   25.8707 C   0  0  0  0  0  0  0  0  0  0  0  0
    5.1917  -14.0356   26.2173 N   0  0  0  0  0  0  0  0  0  0  0  0
    5.8976  -12.9102   25.9250 C   0  0  0  0  0  0  0  0  0  0  0  0
    5.6220  -11.5738   26.1033 C   0  0  0  0  0  0  0  0  0  0  0  0
    6.5486  -10.6428   25.7065 C   0  0  0  0  0  0  0  0  0  0  0  0
    7.7215  -11.0640   25.1449 C   0  0  0  0  0  0  0  0  0  0  0  0
    8.0070  -12.3917   24.9623 C   0  0  0  0  0  0  0  0  0  0  0  0
    7.0929  -13.3655   25.3505 C   0  0  0  0  0  0  0  0  0  0  0  0
    8.8924  -17.3682   23.2819 C   0  0  0  0  0  0  0  0  0  0  0  0
    9.3695  -18.4004   23.7987 O   0  0  0  0  0  0  0  0  0  0  0  0
    8.2908  -12.7500   20.5015 N   0  0  0  0  0  0  0  0  0  0  0  0
    8.1035  -13.2134   19.1472 C   0  0  0  0  0  0  0  0  0  0  0  0
    7.2363  -12.6630   18.3850 N   0  0  0  0  0  0  0  0  0  0  0  0
    8.8792  -14.2846   18.6293 N   0  0  0  0  0  0  0  0  0  0  0  0
   10.0164  -14.8321   19.3442 C   0  0  0  0  0  0  0  0  0  0  0  0
    9.9058  -16.3382   19.4771 C   0  0  0  0  0  0  0  0  0  0  0  0
   11.0335  -16.9368   20.2357 C   0  0  0  0  0  0  0  0  0  0  0  0
   10.8204  -17.1983   21.6718 C   0  0  2  0  0  0  0  0  0  0  0  0
    9.4944  -16.8136   22.1129 N   0  0  0  0  0  0  0  0  0  0  0  0
   11.8970  -16.7368   22.5854 C   0  0  0  0  0  0  0  0  0  0  0  0
   13.0752  -16.7604   22.1604 O   0  0  0  0  0  0  0  0  0  0  0  0
    7.0909  -12.9676   17.4087 N   0  0  0  0  0  0  0  0  0  0  0  0
   11.4292  -20.6582   30.3723 C   0  0  0  0  0  0  0  0  0  0  0  0
   12.0090  -19.3526   30.3470 N   0  0  0  0  0  0  0  0  0  0  0  0
   12.9248  -19.0411   31.1931 N   0  0  0  0  0  0  0  0  0  0  0  0
   11.6048  -18.3715   29.4049 C   0  0  0  0  0  0  0  0  0  0  0  0
   11.4644  -18.6303   28.0100 C   0  0  0  0  0  0  0  0  0  0  0  0
   12.5174  -17.9142   27.1520 C   0  0  0  0  0  0  0  0  0  0  0  0
   11.7632  -17.2942   26.0250 C   0  0  1  0  0  0  0  0  0  0  0  0
   12.6158  -16.5529   25.0196 N   0  0  0  0  0  0  0  0  0  0  0  0
   11.6901  -16.2722   23.9045 C   0  0  0  0  0  0  0  0  0  0  0  0
   13.7311  -17.4113   24.5421 O   0  0  0  0  0  0  0  0  0  0  0  0
   13.4928  -18.5299   23.7566 O   0  0  0  0  0  0  0  0  0  0  0  0
  2  1  1  1
  2  3  1  0
  3  4  1  0
  4 12  1  0
  4  5  2  0
  5  6  1  0
  7  6  1  0
  7  8  2  0
  9  8  1  0
 10  9  2  0
 11 12  2  0
 11 10  1  0
 12  7  1  0
 13  2  1  0
 14 13  2  0
 15 16  1  0
 16 18  1  0
 17 16  2  0
 18 19  1  0
 19 20  1  0
 20 21  1  0
 22 21  1  6
 22 24  1  0
 22 23  1  0
 23 13  1  0
 24 34  1  0
 25 24  2  0
 27 29  1  0
 27 26  1  0
 28 27  2  0
 30 31  1  0
 30 29  1  0
 32 31  1  0
 33 32  1  1
 34 33  1  0
 35 36  1  0
 35 33  1  0
 37 35  2  0
M  END
$$$$
