WRR.pdb
     RDKit          3D

 37 38  0  0  1  0  0  0  0  0999 V2000
    6.2300  -17.1403   24.9597 N   0  0  0  0  0  0  0  0  0  0  0  0
    6.9370  -15.9505   24.6510 C   0  0  1  0  0  0  0  0  0  0  0  0
    8.1107  -15.6299   25.5296 C   0  0  0  0  0  0  0  0  0  0  0  0
    7.8254  -14.7182   26.6451 C   0  0  0  0  0  0  0  0  0  0  0  0
    7.9433  -14.9272   28.0034 C   0  0  0  0  0  0  0  0  0  0  0  0
    7.5462  -13.8353   28.6302 N   0  0  0  0  0  0  0  0  0  0  0  0
    7.1560  -12.8725   27.7522 C   0  0  0  0  0  0  0  0  0  0  0  0
    6.6797  -11.5942   27.9337 C   0  0  0  0  0  0  0  0  0  0  0  0
    6.3664  -10.8365   26.8334 C   0  0  0  0  0  0  0  0  0  0  0  0
    6.5348  -11.3682   25.5854 C   0  0  0  0  0  0  0  0  0  0  0  0
    7.0081  -12.6396   25.3923 C   0  0  0  0  0  0  0  0  0  0  0  0
    7.3358  -13.4391   26.4823 C   0  0  0  0  0  0  0  0  0  0  0  0
    7.4003  -15.9347   23.2105 C   0  0  0  0  0  0  0  0  0  0  0  0
    7.7903  -17.0002   22.6882 O   0  0  0  0  0  0  0  0  0  0  0  0
    8.3594  -13.7923   15.4918 N   0  0  0  0  0  0  0  0  0  0  0  0
    8.4487  -15.0987   16.0994 C   0  0  0  0  0  0  0  0  0  0  0  0
    8.7450  -16.1249   15.3959 N   0  0  0  0  0  0  0  0  0  0  0  0
    8.2155  -15.2737   17.4895 N   0  0  0  0  0  0  0  0  0  0  0  0
    8.8373  -14.4278   18.4904 C   0  0  0  0  0  0  0  0  0  0  0  0
    7.8849  -13.3462   18.9611 C   0  0  0  0  0  0  0  0  0  0  0  0
    7.6155  -13.4069   20.4202 C   0  0  0  0  0  0  0  0  0  0  0  0
    7.9831  -14.6492   21.1257 C   0  0  2  0  0  0  0  0  0  0  0  0
    7.3962  -14.7280   22.4486 N   0  0  0  0  0  0  0  0  0  0  0  0
    9.4239  -15.0101   21.1031 C   0  0  0  0  0  0  0  0  0  0  0  0
   10.1910  -14.4052   21.8875 O   0  0  0  0  0  0  0  0  0  0  0  0
    8.9357  -17.0465   15.8218 N   0  0  0  0  0  0  0  0  0  0  0  0
   13.6109  -21.3611   20.0241 C   0  0  0  0  0  0  0  0  0  0  0  0
   14.3175  -21.0504   18.8218 N   0  0  0  0  0  0  0  0  0  0  0  0
   15.3763  -21.7095   18.5117 N   0  0  0  0  0  0  0  0  0  0  0  0
   13.8847  -20.0246   17.9422 C   0  0  0  0  0  0  0  0  0  0  0  0
   12.6923  -19.2686   18.1406 C   0  0  0  0  0  0  0  0  0  0  0  0
   12.7605  -18.3387   19.3604 C   0  0  0  0  0  0  0  0  0  0  0  0
   11.4461  -17.6361   19.4040 C   0  0  1  0  0  0  0  0  0  0  0  0
   11.2962  -16.6345   20.5271 N   0  0  0  0  0  0  0  0  0  0  0  0
    9.9963  -15.9884   20.2582 C   0  0  0  0  0  0  0  0  0  0  0  0
   12.3812  -15.6201   20.4748 O   0  0  0  0  0  0  0  0  0  0  0  0
   13.4135  -15.6222   21.4018 O   0  0  0  0  0  0  0  0  0  0  0  0
  2  1  1  1
  2  3  1  0
  3  4  1  0
  4 12  1  0
  4  5  2  0
  5  6  1  0
  7  6  1  0
  7  8  2  0
  9  8  1  0
 10  9  2  0
 11 12  2  0
 11 10  1  0
 12  7  1  0
 13  2  1  0
 14 13  2  0
 15 16  1  0
 16 18  1  0
 17 16  2  0
 18 19  1  0
 19 20  1  0
 20 21  1  0
 22 21  1  1
 22 24  1  0
 22 23  1  0
 23 13  1  0
 24 34  1  0
 25 24  2  0
 27 29  1  0
 27 26  1  0
 28 27  2  0
 30 31  1  0
 30 29  1  0
 32 31  1  0
 33 32  1  1
 34 33  1  0
 35 36  1  0
 35 33  1  0
 37 35  2  0
M  END
$$$$
