WRR.pdb
     RDKit          3D

 37 38  0  0  1  0  0  0  0  0999 V2000
    6.4976  -17.2352   25.8358 N   0  0  0  0  0  0  0  0  0  0  0  0
    7.1246  -16.1576   25.1601 C   0  0  1  0  0  0  0  0  0  0  0  0
    8.3263  -15.5621   25.8338 C   0  0  0  0  0  0  0  0  0  0  0  0
    8.0335  -14.5212   26.8276 C   0  0  0  0  0  0  0  0  0  0  0  0
    8.4051  -14.4424   28.1535 C   0  0  0  0  0  0  0  0  0  0  0  0
    7.8894  -13.3410   28.6672 N   0  0  0  0  0  0  0  0  0  0  0  0
    7.1711  -12.6500   27.7416 C   0  0  0  0  0  0  0  0  0  0  0  0
    6.4696  -11.4681   27.8099 C   0  0  0  0  0  0  0  0  0  0  0  0
    5.8339  -11.0036   26.6861 C   0  0  0  0  0  0  0  0  0  0  0  0
    5.9127  -11.7243   25.5273 C   0  0  0  0  0  0  0  0  0  0  0  0
    6.6081  -12.9023   25.4471 C   0  0  0  0  0  0  0  0  0  0  0  0
    7.2648  -13.4065   26.5647 C   0  0  0  0  0  0  0  0  0  0  0  0
    7.5076  -16.5336   23.7452 C   0  0  0  0  0  0  0  0  0  0  0  0
    8.0780  -17.6261   23.5423 O   0  0  0  0  0  0  0  0  0  0  0  0
    7.1944  -15.1168   16.0980 N   0  0  0  0  0  0  0  0  0  0  0  0
    8.2281  -14.1163   15.9780 C   0  0  0  0  0  0  0  0  0  0  0  0
    8.8182  -13.9209   14.8602 N   0  0  0  0  0  0  0  0  0  0  0  0
    8.6090  -13.3241   17.0937 N   0  0  0  0  0  0  0  0  0  0  0  0
    7.8796  -13.3522   18.3472 C   0  0  0  0  0  0  0  0  0  0  0  0
    8.4592  -14.3841   19.2946 C   0  0  0  0  0  0  0  0  0  0  0  0
    7.6561  -14.5488   20.5329 C   0  0  0  0  0  0  0  0  0  0  0  0
    8.0687  -15.6094   21.4715 C   0  0  2  0  0  0  0  0  0  0  0  0
    7.2267  -15.6628   22.6501 N   0  0  0  0  0  0  0  0  0  0  0  0
    9.5190  -15.6739   21.7861 C   0  0  0  0  0  0  0  0  0  0  0  0
    9.9868  -14.8146   22.5686 O   0  0  0  0  0  0  0  0  0  0  0  0
    9.5037  -13.1597   14.7266 N   0  0  0  0  0  0  0  0  0  0  0  0
   10.1963  -18.9072   27.8441 C   0  0  0  0  0  0  0  0  0  0  0  0
   11.2378  -19.0963   26.8845 N   0  0  0  0  0  0  0  0  0  0  0  0
   12.4674  -18.9989   27.2451 N   0  0  0  0  0  0  0  0  0  0  0  0
   10.9593  -19.3943   25.5254 C   0  0  0  0  0  0  0  0  0  0  0  0
   11.8643  -19.1213   24.4582 C   0  0  0  0  0  0  0  0  0  0  0  0
   11.6594  -17.7354   23.8298 C   0  0  0  0  0  0  0  0  0  0  0  0
   12.0612  -17.8787   22.4010 C   0  0  2  0  0  0  0  0  0  0  0  0
   11.8618  -16.6405   21.5560 N   0  0  0  0  0  0  0  0  0  0  0  0
   10.4145  -16.6360   21.2653 C   0  0  0  0  0  0  0  0  0  0  0  0
   12.6284  -16.7414   20.2868 O   0  0  0  0  0  0  0  0  0  0  0  0
   13.3856  -15.6780   19.8169 O   0  0  0  0  0  0  0  0  0  0  0  0
  2  1  1  1
  2  3  1  0
  3  4  1  0
  4 12  1  0
  4  5  2  0
  5  6  1  0
  7  6  1  0
  7  8  2  0
  9  8  1  0
 10  9  2  0
 11 12  2  0
 11 10  1  0
 12  7  1  0
 13  2  1  0
 14 13  2  0
 15 16  1  0
 16 18  1  0
 17 16  2  0
 18 19  1  0
 19 20  1  0
 20 21  1  0
 22 21  1  1
 22 24  1  0
 22 23  1  0
 23 13  1  0
 24 34  1  0
 25 24  2  0
 27 29  1  0
 27 26  1  0
 28 27  2  0
 30 31  1  0
 30 29  1  0
 32 31  1  0
 33 32  1  1
 34 33  1  0
 35 36  1  0
 35 33  1  0
 37 35  2  0
M  END
$$$$
