WRR.pdb
     RDKit          3D

 37 38  0  0  1  0  0  0  0  0999 V2000
    9.4666  -14.4464   23.7281 N   0  0  0  0  0  0  0  0  0  0  0  0
    9.0192  -15.7551   24.0409 C   0  0  1  0  0  0  0  0  0  0  0  0
    7.8027  -15.8484   24.9150 C   0  0  0  0  0  0  0  0  0  0  0  0
    7.5973  -14.7126   25.8231 C   0  0  0  0  0  0  0  0  0  0  0  0
    6.5900  -13.7707   25.8387 C   0  0  0  0  0  0  0  0  0  0  0  0
    6.8302  -12.9182   26.8177 N   0  0  0  0  0  0  0  0  0  0  0  0
    7.9721  -13.2364   27.4847 C   0  0  0  0  0  0  0  0  0  0  0  0
    8.6095  -12.6541   28.5563 C   0  0  0  0  0  0  0  0  0  0  0  0
    9.7707  -13.2140   29.0266 C   0  0  0  0  0  0  0  0  0  0  0  0
   10.2656  -14.3351   28.4210 C   0  0  0  0  0  0  0  0  0  0  0  0
    9.6398  -14.9237   27.3534 C   0  0  0  0  0  0  0  0  0  0  0  0
    8.4615  -14.3854   26.8471 C   0  0  0  0  0  0  0  0  0  0  0  0
    8.7741  -16.5742   22.7923 C   0  0  0  0  0  0  0  0  0  0  0  0
    8.2808  -17.7161   22.9045 O   0  0  0  0  0  0  0  0  0  0  0  0
    9.6103  -13.9811   17.2943 N   0  0  0  0  0  0  0  0  0  0  0  0
    8.1977  -14.1438   17.0460 C   0  0  0  0  0  0  0  0  0  0  0  0
    7.4538  -13.1265   16.8276 N   0  0  0  0  0  0  0  0  0  0  0  0
    7.6035  -15.4339   17.0328 N   0  0  0  0  0  0  0  0  0  0  0  0
    8.3880  -16.6450   16.8857 C   0  0  0  0  0  0  0  0  0  0  0  0
    8.6831  -17.2731   18.2336 C   0  0  0  0  0  0  0  0  0  0  0  0
    9.4794  -16.3891   19.1223 C   0  0  0  0  0  0  0  0  0  0  0  0
    9.7496  -16.8703   20.4903 C   0  0  2  0  0  0  0  0  0  0  0  0
    9.0962  -16.0615   21.5001 N   0  0  0  0  0  0  0  0  0  0  0  0
   11.1699  -17.1672   20.8085 C   0  0  0  0  0  0  0  0  0  0  0  0
   11.9535  -16.1994   20.9458 O   0  0  0  0  0  0  0  0  0  0  0  0
    6.4501  -13.2184   16.6009 N   0  0  0  0  0  0  0  0  0  0  0  0
   20.1002  -18.3429   19.5022 C   0  0  0  0  0  0  0  0  0  0  0  0
   18.9069  -18.1198   20.2556 N   0  0  0  0  0  0  0  0  0  0  0  0
   18.9349  -17.3584   21.2906 N   0  0  0  0  0  0  0  0  0  0  0  0
   17.6710  -18.7168   19.8957 C   0  0  0  0  0  0  0  0  0  0  0  0
   16.4320  -18.4038   20.5278 C   0  0  0  0  0  0  0  0  0  0  0  0
   15.2242  -19.0766   19.8598 C   0  0  0  0  0  0  0  0  0  0  0  0
   14.0248  -18.5412   20.5656 C   0  0  1  0  0  0  0  0  0  0  0  0
   12.6995  -19.0533   20.0476 N   0  0  0  0  0  0  0  0  0  0  0  0
   11.7055  -18.4659   20.9675 C   0  0  0  0  0  0  0  0  0  0  0  0
   12.6420  -20.5363   20.1269 O   0  0  0  0  0  0  0  0  0  0  0  0
   11.8196  -21.1767   21.0426 O   0  0  0  0  0  0  0  0  0  0  0  0
  2  1  1  6
  2  3  1  0
  3  4  1  0
  4 12  1  0
  4  5  2  0
  5  6  1  0
  7  6  1  0
  7  8  2  0
  9  8  1  0
 10  9  2  0
 11 12  2  0
 11 10  1  0
 12  7  1  0
 13  2  1  0
 14 13  2  0
 15 16  1  0
 16 18  1  0
 17 16  2  0
 18 19  1  0
 19 20  1  0
 20 21  1  0
 22 21  1  6
 22 24  1  0
 22 23  1  0
 23 13  1  0
 24 34  1  0
 25 24  2  0
 27 29  1  0
 27 26  1  0
 28 27  2  0
 30 31  1  0
 30 29  1  0
 32 31  1  0
 33 32  1  6
 34 33  1  0
 35 36  1  0
 35 33  1  0
 37 35  2  0
M  END
$$$$
