WRR.pdb
     RDKit          3D

 37 38  0  0  1  0  0  0  0  0999 V2000
    7.1205  -17.0228   25.5876 N   0  0  0  0  0  0  0  0  0  0  0  0
    7.4141  -15.8487   24.8486 C   0  0  1  0  0  0  0  0  0  0  0  0
    8.5021  -14.9737   25.3992 C   0  0  0  0  0  0  0  0  0  0  0  0
    8.1646  -14.2631   26.6394 C   0  0  0  0  0  0  0  0  0  0  0  0
    8.5269  -14.5445   27.9402 C   0  0  0  0  0  0  0  0  0  0  0  0
    7.9665  -13.6498   28.7329 N   0  0  0  0  0  0  0  0  0  0  0  0
    7.2261  -12.7541   28.0260 C   0  0  0  0  0  0  0  0  0  0  0  0
    6.4790  -11.6643   28.4107 C   0  0  0  0  0  0  0  0  0  0  0  0
    5.8309  -10.9275   27.4516 C   0  0  0  0  0  0  0  0  0  0  0  0
    5.9428  -11.2925   26.1390 C   0  0  0  0  0  0  0  0  0  0  0  0
    6.6837  -12.3754   25.7439 C   0  0  0  0  0  0  0  0  0  0  0  0
    7.3544  -13.1478   26.6864 C   0  0  0  0  0  0  0  0  0  0  0  0
    7.7403  -16.1651   23.4052 C   0  0  0  0  0  0  0  0  0  0  0  0
    8.2366  -17.2768   23.1262 O   0  0  0  0  0  0  0  0  0  0  0  0
    7.8529  -15.3623   16.1279 N   0  0  0  0  0  0  0  0  0  0  0  0
    8.4821  -14.1119   15.7754 C   0  0  0  0  0  0  0  0  0  0  0  0
    9.0597  -13.9704   14.6430 N   0  0  0  0  0  0  0  0  0  0  0  0
    8.4699  -13.0110   16.6728 N   0  0  0  0  0  0  0  0  0  0  0  0
    7.7842  -13.0621   17.9500 C   0  0  0  0  0  0  0  0  0  0  0  0
    8.3063  -14.1989   18.8064 C   0  0  0  0  0  0  0  0  0  0  0  0
    7.7699  -14.1744   20.1910 C   0  0  0  0  0  0  0  0  0  0  0  0
    8.1818  -15.2639   21.0962 C   0  0  2  0  0  0  0  0  0  0  0  0
    7.4890  -15.2171   22.3685 N   0  0  0  0  0  0  0  0  0  0  0  0
    9.6451  -15.4782   21.2352 C   0  0  0  0  0  0  0  0  0  0  0  0
   10.2843  -14.6918   21.9719 O   0  0  0  0  0  0  0  0  0  0  0  0
    9.5889  -13.1174   14.3991 N   0  0  0  0  0  0  0  0  0  0  0  0
   12.9852  -23.6228   22.0406 C   0  0  0  0  0  0  0  0  0  0  0  0
   13.1084  -22.2775   22.5058 N   0  0  0  0  0  0  0  0  0  0  0  0
   14.2056  -21.8841   23.0470 N   0  0  0  0  0  0  0  0  0  0  0  0
   12.0463  -21.3439   22.3884 C   0  0  0  0  0  0  0  0  0  0  0  0
   11.9086  -20.4418   21.2930 C   0  0  0  0  0  0  0  0  0  0  0  0
   11.6959  -18.9855   21.7305 C   0  0  0  0  0  0  0  0  0  0  0  0
   12.0561  -18.1537   20.5466 C   0  0  2  0  0  0  0  0  0  0  0  0
   11.8352  -16.6678   20.7212 N   0  0  0  0  0  0  0  0  0  0  0  0
   10.3732  -16.5069   20.5947 C   0  0  0  0  0  0  0  0  0  0  0  0
   12.5192  -15.9048   19.6448 O   0  0  0  0  0  0  0  0  0  0  0  0
   13.8077  -15.4187   19.8145 O   0  0  0  0  0  0  0  0  0  0  0  0
  2  1  1  1
  2  3  1  0
  3  4  1  0
  4 12  1  0
  4  5  2  0
  5  6  1  0
  7  6  1  0
  7  8  2  0
  9  8  1  0
 10  9  2  0
 11 12  2  0
 11 10  1  0
 12  7  1  0
 13  2  1  0
 14 13  2  0
 15 16  1  0
 16 18  1  0
 17 16  2  0
 18 19  1  0
 19 20  1  0
 20 21  1  0
 22 21  1  1
 22 24  1  0
 22 23  1  0
 23 13  1  0
 24 34  1  0
 25 24  2  0
 27 29  1  0
 27 26  1  0
 28 27  2  0
 30 31  1  0
 30 29  1  0
 32 31  1  0
 33 32  1  1
 34 33  1  0
 35 36  1  0
 35 33  1  0
 37 35  2  0
M  END
$$$$
