WRR.pdb
     RDKit          3D

 37 38  0  0  1  0  0  0  0  0999 V2000
    7.2129  -16.9589   25.5379 N   0  0  0  0  0  0  0  0  0  0  0  0
    7.5915  -15.8887   24.6882 C   0  0  1  0  0  0  0  0  0  0  0  0
    8.6526  -14.9674   25.2153 C   0  0  0  0  0  0  0  0  0  0  0  0
    8.2809  -14.2090   26.4167 C   0  0  0  0  0  0  0  0  0  0  0  0
    8.5808  -14.4563   27.7401 C   0  0  0  0  0  0  0  0  0  0  0  0
    8.0099  -13.5233   28.4793 N   0  0  0  0  0  0  0  0  0  0  0  0
    7.3225  -12.6339   27.7133 C   0  0  0  0  0  0  0  0  0  0  0  0
    6.5872  -11.5150   28.0310 C   0  0  0  0  0  0  0  0  0  0  0  0
    5.9986  -10.7948   27.0221 C   0  0  0  0  0  0  0  0  0  0  0  0
    6.1567  -11.2049   25.7278 C   0  0  0  0  0  0  0  0  0  0  0  0
    6.8865  -12.3172   25.3993 C   0  0  0  0  0  0  0  0  0  0  0  0
    7.4974  -13.0740   26.3936 C   0  0  0  0  0  0  0  0  0  0  0  0
    8.0235  -16.3845   23.3253 C   0  0  0  0  0  0  0  0  0  0  0  0
    8.7782  -17.3770   23.2532 O   0  0  0  0  0  0  0  0  0  0  0  0
    8.3278  -12.6190   15.4307 N   0  0  0  0  0  0  0  0  0  0  0  0
    8.3821  -14.0373   15.1670 C   0  0  0  0  0  0  0  0  0  0  0  0
    8.9626  -14.4825   14.1179 N   0  0  0  0  0  0  0  0  0  0  0  0
    7.7988  -14.9690   16.0665 N   0  0  0  0  0  0  0  0  0  0  0  0
    7.3022  -14.5768   17.3717 C   0  0  0  0  0  0  0  0  0  0  0  0
    8.1471  -15.1728   18.4804 C   0  0  0  0  0  0  0  0  0  0  0  0
    7.3830  -15.3971   19.7339 C   0  0  0  0  0  0  0  0  0  0  0  0
    8.0644  -16.1245   20.8214 C   0  0  2  0  0  0  0  0  0  0  0  0
    7.5820  -15.7376   22.1323 N   0  0  0  0  0  0  0  0  0  0  0  0
    9.5463  -16.1835   20.7381 C   0  0  0  0  0  0  0  0  0  0  0  0
   10.1923  -15.1639   21.0736 O   0  0  0  0  0  0  0  0  0  0  0  0
    9.0653  -15.4938   13.9341 N   0  0  0  0  0  0  0  0  0  0  0  0
   13.6400  -21.1202   25.2827 C   0  0  0  0  0  0  0  0  0  0  0  0
   12.3196  -20.6090   25.0913 N   0  0  0  0  0  0  0  0  0  0  0  0
   11.6991  -20.0534   26.0699 N   0  0  0  0  0  0  0  0  0  0  0  0
   11.6582  -20.6925   23.8387 C   0  0  0  0  0  0  0  0  0  0  0  0
   12.2300  -20.2372   22.6146 C   0  0  0  0  0  0  0  0  0  0  0  0
   11.8100  -18.8075   22.2446 C   0  0  0  0  0  0  0  0  0  0  0  0
   12.1578  -18.6468   20.8035 C   0  0  2  0  0  0  0  0  0  0  0  0
   11.7569  -17.3214   20.1955 N   0  0  0  0  0  0  0  0  0  0  0  0
   10.2848  -17.3088   20.3056 C   0  0  0  0  0  0  0  0  0  0  0  0
   12.1539  -17.2582   18.7647 O   0  0  0  0  0  0  0  0  0  0  0  0
   12.5317  -16.0604   18.1750 O   0  0  0  0  0  0  0  0  0  0  0  0
  2  1  1  1
  2  3  1  0
  3  4  1  0
  4 12  1  0
  4  5  2  0
  5  6  1  0
  7  6  1  0
  7  8  2  0
  9  8  1  0
 10  9  2  0
 11 12  2  0
 11 10  1  0
 12  7  1  0
 13  2  1  0
 14 13  2  0
 15 16  1  0
 16 18  1  0
 17 16  2  0
 18 19  1  0
 19 20  1  0
 20 21  1  0
 22 21  1  6
 22 24  1  0
 22 23  1  0
 23 13  1  0
 24 34  1  0
 25 24  2  0
 27 29  1  0
 27 26  1  0
 28 27  2  0
 30 31  1  0
 30 29  1  0
 32 31  1  0
 33 32  1  1
 34 33  1  0
 35 36  1  0
 35 33  1  0
 37 35  2  0
M  END
$$$$
