MAG.pdb
     RDKit          3D

 18 17  0  0  1  0  0  0  0  0999 V2000
   29.1831  -11.4504  -16.1200 C   0  0  0  0  0  0  0  0  0  0  0  0
   27.7486  -10.4441  -16.5162 S   0  0  0  0  0  0  0  0  0  0  0  0
   26.2513  -11.0988  -15.6881 C   0  0  0  0  0  0  0  0  0  0  0  0
   25.1340  -10.1568  -15.9939 C   0  0  0  0  0  0  0  0  0  0  0  0
   23.7941  -10.5778  -15.4583 C   0  0  2  0  0  0  0  0  0  0  0  0
   23.4656  -11.8883  -15.9810 N   0  0  0  0  0  0  0  0  0  0  0  0
   22.6917   -9.6602  -15.7566 C   0  0  0  0  0  0  0  0  0  0  0  0
   21.7126   -9.9422  -16.5128 O   0  0  0  0  0  0  0  0  0  0  0  0
   20.2664   -7.8745  -14.7153 C   0  0  0  0  0  0  0  0  0  0  0  0
   21.5316   -7.4514  -15.4189 C   0  0  2  0  0  0  0  0  0  0  0  0
   22.6352   -8.3383  -15.2008 N   0  0  0  0  0  0  0  0  0  0  0  0
   21.9003   -6.1300  -14.8696 C   0  0  0  0  0  0  0  0  0  0  0  0
   22.4639   -6.0744  -13.7560 O   0  0  0  0  0  0  0  0  0  0  0  0
   21.6350   -4.9167  -15.5669 N   0  0  0  0  0  0  0  0  0  0  0  0
   22.1320   -3.6667  -15.0761 C   0  0  0  0  0  0  0  0  0  0  0  0
   21.1402   -3.0336  -14.1766 C   0  0  0  0  0  0  0  0  0  0  0  0
   20.1626   -3.7519  -13.7835 O   0  0  0  0  0  0  0  0  0  0  0  0
   21.2154   -1.7222  -13.7450 O   0  0  0  0  0  0  0  0  0  0  0  0
  2  3  1  0
  2  1  1  0
  4  3  1  0
  5  4  1  0
  5  6  1  6
  7  5  1  0
  7 11  1  0
  8  7  2  0
 10  9  1  1
 10 11  1  0
 10 12  1  0
 12 14  1  0
 12 13  2  0
 14 15  1  0
 15 16  1  0
 16 18  1  0
 17 16  2  0
M  END
$$$$
