MAG.pdb
     RDKit          3D

 18 17  0  0  1  0  0  0  0  0999 V2000
   27.9638  -14.9123  -15.5103 C   0  0  0  0  0  0  0  0  0  0  0  0
   26.9833  -13.6049  -16.2565 S   0  0  0  0  0  0  0  0  0  0  0  0
   26.6930  -12.2503  -15.0577 C   0  0  0  0  0  0  0  0  0  0  0  0
   26.0016  -11.1523  -15.7960 C   0  0  0  0  0  0  0  0  0  0  0  0
   24.5878  -11.4623  -16.2016 C   0  0  2  0  0  0  0  0  0  0  0  0
   24.6059  -12.4225  -17.2861 N   0  0  0  0  0  0  0  0  0  0  0  0
   23.7923  -10.3021  -16.6110 C   0  0  0  0  0  0  0  0  0  0  0  0
   23.8912   -9.7307  -17.7397 O   0  0  0  0  0  0  0  0  0  0  0  0
   20.5283   -8.8202  -15.9438 C   0  0  0  0  0  0  0  0  0  0  0  0
   22.0073   -8.5924  -16.1323 C   0  0  2  0  0  0  0  0  0  0  0  0
   22.8155   -9.7092  -15.7428 N   0  0  0  0  0  0  0  0  0  0  0  0
   22.3731   -7.4493  -15.2702 C   0  0  0  0  0  0  0  0  0  0  0  0
   22.6828   -7.6654  -14.0792 O   0  0  0  0  0  0  0  0  0  0  0  0
   22.3848   -6.1086  -15.7509 N   0  0  0  0  0  0  0  0  0  0  0  0
   22.7968   -5.0306  -14.9032 C   0  0  0  0  0  0  0  0  0  0  0  0
   21.6345   -4.4733  -14.1740 C   0  0  0  0  0  0  0  0  0  0  0  0
   20.4857   -4.9559  -14.4455 O   0  0  0  0  0  0  0  0  0  0  0  0
   21.7256   -3.4707  -13.2264 O   0  0  0  0  0  0  0  0  0  0  0  0
  2  3  1  0
  2  1  1  0
  4  3  1  0
  5  4  1  0
  5  6  1  6
  7  5  1  0
  7 11  1  0
  8  7  2  0
 10  9  1  1
 10 11  1  0
 10 12  1  0
 12 14  1  0
 12 13  2  0
 14 15  1  0
 15 16  1  0
 16 18  1  0
 17 16  2  0
M  END
$$$$
