MAG.pdb
     RDKit          3D

 18 17  0  0  1  0  0  0  0  0999 V2000
   11.9715  -15.2213  -10.9353 C   0  0  0  0  0  0  0  0  0  0  0  0
   12.8729  -13.6965  -11.2348 S   0  0  0  0  0  0  0  0  0  0  0  0
   12.2689  -12.3619  -10.1346 C   0  0  0  0  0  0  0  0  0  0  0  0
   13.0001  -11.1167  -10.5138 C   0  0  0  0  0  0  0  0  0  0  0  0
   12.6232   -9.9001   -9.7155 C   0  0  2  0  0  0  0  0  0  0  0  0
   11.2450   -9.5558   -9.9991 N   0  0  0  0  0  0  0  0  0  0  0  0
   13.4621   -8.7218   -9.9487 C   0  0  0  0  0  0  0  0  0  0  0  0
   13.3365   -7.9408  -10.9409 O   0  0  0  0  0  0  0  0  0  0  0  0
   16.0813   -6.7669   -8.0000 C   0  0  0  0  0  0  0  0  0  0  0  0
   15.3241   -7.1845   -9.2358 C   0  0  2  0  0  0  0  0  0  0  0  0
   14.5170   -8.3531   -9.0484 N   0  0  0  0  0  0  0  0  0  0  0  0
   16.3353   -7.4962  -10.2673 C   0  0  0  0  0  0  0  0  0  0  0  0
   16.9144   -8.6027  -10.2308 O   0  0  0  0  0  0  0  0  0  0  0  0
   16.6726   -6.5777  -11.3023 N   0  0  0  0  0  0  0  0  0  0  0  0
   17.6352   -6.9249  -12.3040 C   0  0  0  0  0  0  0  0  0  0  0  0
   17.8938   -5.7702  -13.1945 C   0  0  0  0  0  0  0  0  0  0  0  0
   17.1192   -4.7627  -13.0882 O   0  0  0  0  0  0  0  0  0  0  0  0
   18.9168   -5.7251  -14.1235 O   0  0  0  0  0  0  0  0  0  0  0  0
  2  3  1  0
  2  1  1  0
  4  3  1  0
  5  4  1  0
  5  6  1  6
  7  5  1  0
  7 11  1  0
  8  7  2  0
 10  9  1  1
 10 11  1  0
 10 12  1  0
 12 14  1  0
 12 13  2  0
 14 15  1  0
 15 16  1  0
 16 18  1  0
 17 16  2  0
M  END
$$$$
