MAG.pdb
     RDKit          3D

 18 17  0  0  1  0  0  0  0  0999 V2000
   30.7366  -21.9160  -11.7142 C   0  0  0  0  0  0  0  0  0  0  0  0
   30.4788  -21.7337   -9.9457 S   0  0  0  0  0  0  0  0  0  0  0  0
   28.7592  -21.2086   -9.5940 C   0  0  0  0  0  0  0  0  0  0  0  0
   28.0877  -20.9967  -10.9105 C   0  0  0  0  0  0  0  0  0  0  0  0
   26.6654  -20.5188  -10.8196 C   0  0  2  0  0  0  0  0  0  0  0  0
   25.8998  -21.4584  -10.0261 N   0  0  0  0  0  0  0  0  0  0  0  0
   25.9922  -20.3289  -12.1069 C   0  0  0  0  0  0  0  0  0  0  0  0
   26.3920  -19.5338  -13.0114 O   0  0  0  0  0  0  0  0  0  0  0  0
   23.8896  -22.2285  -14.4100 C   0  0  0  0  0  0  0  0  0  0  0  0
   24.1501  -20.9125  -13.7207 C   0  0  2  0  0  0  0  0  0  0  0  0
   24.7983  -21.0472  -12.4503 N   0  0  0  0  0  0  0  0  0  0  0  0
   22.8314  -20.2870  -13.4895 C   0  0  0  0  0  0  0  0  0  0  0  0
   22.3077  -20.3812  -12.3591 O   0  0  0  0  0  0  0  0  0  0  0  0
   22.1365  -19.5798  -14.5121 N   0  0  0  0  0  0  0  0  0  0  0  0
   20.9101  -18.8978  -14.2266 C   0  0  0  0  0  0  0  0  0  0  0  0
   19.8267  -19.3924  -15.1069 C   0  0  0  0  0  0  0  0  0  0  0  0
   20.0092  -20.5124  -15.6887 O   0  0  0  0  0  0  0  0  0  0  0  0
   18.6426  -18.7144  -15.3298 O   0  0  0  0  0  0  0  0  0  0  0  0
  2  3  1  0
  2  1  1  0
  4  3  1  0
  5  4  1  0
  5  6  1  1
  7  5  1  0
  7 11  1  0
  8  7  2  0
 10  9  1  1
 10 11  1  0
 10 12  1  0
 12 14  1  0
 12 13  2  0
 14 15  1  0
 15 16  1  0
 16 18  1  0
 17 16  2  0
M  END
$$$$
