MAG.pdb
     RDKit          3D

 18 17  0  0  1  0  0  0  0  0999 V2000
   26.5631  -31.3726   -8.4096 C   0  0  0  0  0  0  0  0  0  0  0  0
   26.3749  -33.1173   -8.7941 S   0  0  0  0  0  0  0  0  0  0  0  0
   25.2905  -33.9365   -7.5656 C   0  0  0  0  0  0  0  0  0  0  0  0
   25.6615  -33.3962   -6.2242 C   0  0  0  0  0  0  0  0  0  0  0  0
   24.8720  -33.9648   -5.0784 C   0  0  2  0  0  0  0  0  0  0  0  0
   23.4886  -33.5543   -5.2065 N   0  0  0  0  0  0  0  0  0  0  0  0
   25.3547  -33.5899   -3.7470 C   0  0  0  0  0  0  0  0  0  0  0  0
   25.3191  -32.4104   -3.2804 O   0  0  0  0  0  0  0  0  0  0  0  0
   25.7148  -34.8681   -0.4132 C   0  0  0  0  0  0  0  0  0  0  0  0
   26.4372  -34.2032   -1.5582 C   0  0  2  0  0  0  0  0  0  0  0  0
   25.9191  -34.5545   -2.8467 N   0  0  0  0  0  0  0  0  0  0  0  0
   27.8407  -34.6613   -1.4969 C   0  0  0  0  0  0  0  0  0  0  0  0
   28.4835  -34.4994   -0.4378 O   0  0  0  0  0  0  0  0  0  0  0  0
   28.4864  -35.2817   -2.6046 N   0  0  0  0  0  0  0  0  0  0  0  0
   29.8521  -35.7027   -2.5140 C   0  0  0  0  0  0  0  0  0  0  0  0
   29.9305  -37.1044   -2.0423 C   0  0  0  0  0  0  0  0  0  0  0  0
   28.8920  -37.5958   -1.4888 O   0  0  0  0  0  0  0  0  0  0  0  0
   31.0545  -37.8997   -2.1677 O   0  0  0  0  0  0  0  0  0  0  0  0
  2  3  1  0
  2  1  1  0
  4  3  1  0
  5  4  1  0
  5  6  1  6
  7  5  1  0
  7 11  1  0
  8  7  2  0
 10  9  1  1
 10 11  1  0
 10 12  1  0
 12 14  1  0
 12 13  2  0
 14 15  1  0
 15 16  1  0
 16 18  1  0
 17 16  2  0
M  END
$$$$
