MAG.pdb
     RDKit          3D

 18 17  0  0  1  0  0  0  0  0999 V2000
   21.0218  -16.0207  -14.1685 C   0  0  0  0  0  0  0  0  0  0  0  0
   21.6262  -14.4344  -14.7563 S   0  0  0  0  0  0  0  0  0  0  0  0
   23.4184  -14.2601  -14.4186 C   0  0  0  0  0  0  0  0  0  0  0  0
   23.8244  -12.9047  -14.8948 C   0  0  0  0  0  0  0  0  0  0  0  0
   23.4841  -12.6159  -16.3302 C   0  0  2  0  0  0  0  0  0  0  0  0
   24.4109  -13.3249  -17.1886 N   0  0  0  0  0  0  0  0  0  0  0  0
   23.4925  -11.1972  -16.6956 C   0  0  0  0  0  0  0  0  0  0  0  0
   24.5364  -10.5458  -17.0056 O   0  0  0  0  0  0  0  0  0  0  0  0
   20.9794   -8.5952  -17.7452 C   0  0  0  0  0  0  0  0  0  0  0  0
   22.2710   -9.0334  -17.1012 C   0  0  2  0  0  0  0  0  0  0  0  0
   22.2885  -10.4172  -16.7310 N   0  0  0  0  0  0  0  0  0  0  0  0
   22.4213   -8.2349  -15.8669 C   0  0  0  0  0  0  0  0  0  0  0  0
   22.0183   -8.7129  -14.7852 O   0  0  0  0  0  0  0  0  0  0  0  0
   23.0105   -6.9382  -15.8682 N   0  0  0  0  0  0  0  0  0  0  0  0
   23.2899   -6.2599  -14.6385 C   0  0  0  0  0  0  0  0  0  0  0  0
   22.1297   -5.4362  -14.2274 C   0  0  0  0  0  0  0  0  0  0  0  0
   21.1047   -5.4471  -14.9860 O   0  0  0  0  0  0  0  0  0  0  0  0
   22.0976   -4.6654  -13.0801 O   0  0  0  0  0  0  0  0  0  0  0  0
  2  3  1  0
  2  1  1  0
  4  3  1  0
  5  4  1  0
  5  6  1  6
  7  5  1  0
  7 11  1  0
  8  7  2  0
 10  9  1  1
 10 11  1  0
 10 12  1  0
 12 14  1  0
 12 13  2  0
 14 15  1  0
 15 16  1  0
 16 18  1  0
 17 16  2  0
M  END
$$$$
