MAG.pdb
     RDKit          3D

 18 17  0  0  1  0  0  0  0  0999 V2000
   27.0980  -19.6764   -7.0267 C   0  0  0  0  0  0  0  0  0  0  0  0
   26.4146  -19.2627   -8.6358 S   0  0  0  0  0  0  0  0  0  0  0  0
   25.8700  -20.7751   -9.5148 C   0  0  0  0  0  0  0  0  0  0  0  0
   25.4321  -20.3554  -10.8790 C   0  0  0  0  0  0  0  0  0  0  0  0
   25.0661  -21.4883  -11.7966 C   0  0  2  0  0  0  0  0  0  0  0  0
   26.2576  -22.2528  -12.1039 N   0  0  0  0  0  0  0  0  0  0  0  0
   24.4256  -21.0868  -13.0516 C   0  0  0  0  0  0  0  0  0  0  0  0
   25.0473  -20.8941  -14.1409 O   0  0  0  0  0  0  0  0  0  0  0  0
   20.8500  -20.6652  -14.3095 C   0  0  0  0  0  0  0  0  0  0  0  0
   22.3526  -20.5532  -14.3770 C   0  0  2  0  0  0  0  0  0  0  0  0
   23.0092  -20.8758  -13.1453 N   0  0  0  0  0  0  0  0  0  0  0  0
   22.6586  -19.1429  -14.6946 C   0  0  0  0  0  0  0  0  0  0  0  0
   22.7378  -18.3166  -13.7609 O   0  0  0  0  0  0  0  0  0  0  0  0
   22.8665  -18.6929  -16.0299 N   0  0  0  0  0  0  0  0  0  0  0  0
   23.2000  -17.3264  -16.2983 C   0  0  0  0  0  0  0  0  0  0  0  0
   23.3241  -17.1016  -17.7569 C   0  0  0  0  0  0  0  0  0  0  0  0
   23.1524  -18.1075  -18.5219 O   0  0  0  0  0  0  0  0  0  0  0  0
   23.6122  -15.8758  -18.3277 O   0  0  0  0  0  0  0  0  0  0  0  0
  2  3  1  0
  2  1  1  0
  4  3  1  0
  5  4  1  0
  5  6  1  6
  7  5  1  0
  7 11  1  0
  8  7  2  0
 10  9  1  1
 10 11  1  0
 10 12  1  0
 12 14  1  0
 12 13  2  0
 14 15  1  0
 15 16  1  0
 16 18  1  0
 17 16  2  0
M  END
$$$$
