MAG.pdb
     RDKit          3D

 18 17  0  0  1  0  0  0  0  0999 V2000
   29.1806  -37.1103    0.8498 C   0  0  0  0  0  0  0  0  0  0  0  0
   28.3816  -35.6724    1.5718 S   0  0  0  0  0  0  0  0  0  0  0  0
   27.0331  -35.0700    0.4878 C   0  0  0  0  0  0  0  0  0  0  0  0
   27.6476  -34.7341   -0.8308 C   0  0  0  0  0  0  0  0  0  0  0  0
   26.6880  -34.1829   -1.8480 C   0  0  2  0  0  0  0  0  0  0  0  0
   25.5529  -35.0758   -1.9610 N   0  0  0  0  0  0  0  0  0  0  0  0
   27.2548  -33.9681   -3.1818 C   0  0  0  0  0  0  0  0  0  0  0  0
   28.2659  -33.2391   -3.4191 O   0  0  0  0  0  0  0  0  0  0  0  0
   27.1833  -35.6025   -6.5378 C   0  0  0  0  0  0  0  0  0  0  0  0
   27.2198  -34.3717   -5.6666 C   0  0  2  0  0  0  0  0  0  0  0  0
   26.6937  -34.5826   -4.3510 N   0  0  0  0  0  0  0  0  0  0  0  0
   26.3764  -33.3568   -6.3316 C   0  0  0  0  0  0  0  0  0  0  0  0
   25.2799  -33.0509   -5.8169 O   0  0  0  0  0  0  0  0  0  0  0  0
   26.7711  -32.7149   -7.5403 N   0  0  0  0  0  0  0  0  0  0  0  0
   25.9129  -31.7616   -8.1769 C   0  0  0  0  0  0  0  0  0  0  0  0
   24.8280  -32.4523   -8.9113 C   0  0  0  0  0  0  0  0  0  0  0  0
   24.8407  -33.7275   -8.9131 O   0  0  0  0  0  0  0  0  0  0  0  0
   23.8145  -31.7981   -9.5868 O   0  0  0  0  0  0  0  0  0  0  0  0
  2  3  1  0
  2  1  1  0
  4  3  1  0
  5  4  1  0
  5  6  1  6
  7  5  1  0
  7 11  1  0
  8  7  2  0
 10  9  1  6
 10 11  1  0
 10 12  1  0
 12 14  1  0
 12 13  2  0
 14 15  1  0
 15 16  1  0
 16 18  1  0
 17 16  2  0
M  END
$$$$
