MAG.pdb
     RDKit          3D

 18 17  0  0  1  0  0  0  0  0999 V2000
   26.0418  -14.3391  -15.0215 C   0  0  0  0  0  0  0  0  0  0  0  0
   27.2587  -13.8301  -16.2411 S   0  0  0  0  0  0  0  0  0  0  0  0
   28.2969  -12.4687  -15.5890 C   0  0  0  0  0  0  0  0  0  0  0  0
   27.4778  -11.2223  -15.6558 C   0  0  0  0  0  0  0  0  0  0  0  0
   27.2341  -10.7054  -17.0461 C   0  0  2  0  0  0  0  0  0  0  0  0
   28.5011  -10.3338  -17.6421 N   0  0  0  0  0  0  0  0  0  0  0  0
   26.3192   -9.5644  -17.1313 C   0  0  0  0  0  0  0  0  0  0  0  0
   26.6499   -8.3640  -16.8866 O   0  0  0  0  0  0  0  0  0  0  0  0
   22.8325   -8.9446  -18.5075 C   0  0  0  0  0  0  0  0  0  0  0  0
   24.0557   -8.6138  -17.6892 C   0  0  2  0  0  0  0  0  0  0  0  0
   24.9435   -9.7232  -17.5078 N   0  0  0  0  0  0  0  0  0  0  0  0
   23.5737   -8.1996  -16.3552 C   0  0  0  0  0  0  0  0  0  0  0  0
   23.4418   -9.0659  -15.4646 O   0  0  0  0  0  0  0  0  0  0  0  0
   23.2541   -6.8457  -16.0496 N   0  0  0  0  0  0  0  0  0  0  0  0
   22.7666   -6.4834  -14.7528 C   0  0  0  0  0  0  0  0  0  0  0  0
   22.6163   -5.0136  -14.6493 C   0  0  0  0  0  0  0  0  0  0  0  0
   22.9825   -4.3148  -15.6512 O   0  0  0  0  0  0  0  0  0  0  0  0
   22.1068   -4.3657  -13.5393 O   0  0  0  0  0  0  0  0  0  0  0  0
  2  3  1  0
  2  1  1  0
  4  3  1  0
  5  4  1  0
  5  6  1  1
  7  5  1  0
  7 11  1  0
  8  7  2  0
 10  9  1  6
 10 11  1  0
 10 12  1  0
 12 14  1  0
 12 13  2  0
 14 15  1  0
 15 16  1  0
 16 18  1  0
 17 16  2  0
M  END
$$$$
