MAG.pdb
     RDKit          3D

 18 17  0  0  1  0  0  0  0  0999 V2000
   26.8248  -16.9116  -14.6590 C   0  0  0  0  0  0  0  0  0  0  0  0
   26.3334  -15.2885  -15.2516 S   0  0  0  0  0  0  0  0  0  0  0  0
   25.9104  -15.3516  -17.0330 C   0  0  0  0  0  0  0  0  0  0  0  0
   25.5267  -13.9679  -17.4418 C   0  0  0  0  0  0  0  0  0  0  0  0
   24.3494  -13.3985  -16.7007 C   0  0  2  0  0  0  0  0  0  0  0  0
   23.1802  -14.2087  -16.9748 N   0  0  0  0  0  0  0  0  0  0  0  0
   24.0389  -12.0008  -17.0112 C   0  0  0  0  0  0  0  0  0  0  0  0
   24.8744  -11.0490  -16.9317 O   0  0  0  0  0  0  0  0  0  0  0  0
   21.1589  -10.0949  -18.5997 C   0  0  0  0  0  0  0  0  0  0  0  0
   22.4126  -10.2364  -17.7731 C   0  0  2  0  0  0  0  0  0  0  0  0
   22.7316  -11.5926  -17.4399 N   0  0  0  0  0  0  0  0  0  0  0  0
   22.1724   -9.5069  -16.5107 C   0  0  0  0  0  0  0  0  0  0  0  0
   21.7970  -10.1464  -15.5052 O   0  0  0  0  0  0  0  0  0  0  0  0
   22.3545   -8.0985  -16.4009 N   0  0  0  0  0  0  0  0  0  0  0  0
   22.2205   -7.4395  -15.1367 C   0  0  0  0  0  0  0  0  0  0  0  0
   20.8499   -6.9015  -14.9770 C   0  0  0  0  0  0  0  0  0  0  0  0
   20.0457   -7.0454  -15.9563 O   0  0  0  0  0  0  0  0  0  0  0  0
   20.3999   -6.2596  -13.8381 O   0  0  0  0  0  0  0  0  0  0  0  0
  2  3  1  0
  2  1  1  0
  4  3  1  0
  5  4  1  0
  5  6  1  6
  7  5  1  0
  7 11  1  0
  8  7  2  0
 10  9  1  6
 10 11  1  0
 10 12  1  0
 12 14  1  0
 12 13  2  0
 14 15  1  0
 15 16  1  0
 16 18  1  0
 17 16  2  0
M  END
$$$$
