MAG.pdb
     RDKit          3D

 18 17  0  0  1  0  0  0  0  0999 V2000
   14.9709  -11.0320  -20.6657 C   0  0  0  0  0  0  0  0  0  0  0  0
   15.8612  -10.1911  -19.3514 S   0  0  0  0  0  0  0  0  0  0  0  0
   16.9239  -11.3685  -18.4345 C   0  0  0  0  0  0  0  0  0  0  0  0
   17.7400  -10.5668  -17.4752 C   0  0  0  0  0  0  0  0  0  0  0  0
   18.7006  -11.3707  -16.6442 C   0  0  2  0  0  0  0  0  0  0  0  0
   17.9506  -12.2564  -15.7773 N   0  0  0  0  0  0  0  0  0  0  0  0
   19.6244  -10.5802  -15.8269 C   0  0  0  0  0  0  0  0  0  0  0  0
   19.3158  -10.0392  -14.7213 O   0  0  0  0  0  0  0  0  0  0  0  0
   23.3705   -9.9626  -15.7639 C   0  0  0  0  0  0  0  0  0  0  0  0
   21.9360   -9.6828  -15.3914 C   0  0  2  0  0  0  0  0  0  0  0  0
   20.9838  -10.3524  -16.2262 N   0  0  0  0  0  0  0  0  0  0  0  0
   21.7323   -8.2281  -15.5529 C   0  0  0  0  0  0  0  0  0  0  0  0
   21.3387   -7.7919  -16.6555 O   0  0  0  0  0  0  0  0  0  0  0  0
   21.9694   -7.3056  -14.4939 N   0  0  0  0  0  0  0  0  0  0  0  0
   21.6956   -5.9104  -14.6634 C   0  0  0  0  0  0  0  0  0  0  0  0
   22.0616   -5.1596  -13.4404 C   0  0  0  0  0  0  0  0  0  0  0  0
   22.3984   -5.8382  -12.4146 O   0  0  0  0  0  0  0  0  0  0  0  0
   22.0583   -3.7798  -13.3512 O   0  0  0  0  0  0  0  0  0  0  0  0
  2  3  1  0
  2  1  1  0
  4  3  1  0
  5  4  1  0
  5  6  1  1
  7  5  1  0
  7 11  1  0
  8  7  2  0
 10  9  1  6
 10 11  1  0
 10 12  1  0
 12 14  1  0
 12 13  2  0
 14 15  1  0
 15 16  1  0
 16 18  1  0
 17 16  2  0
M  END
$$$$
