MAG.pdb
     RDKit          3D

 18 17  0  0  1  0  0  0  0  0999 V2000
   24.3405  -24.0994  -14.4000 C   0  0  0  0  0  0  0  0  0  0  0  0
   22.9856  -23.7383  -15.5229 S   0  0  0  0  0  0  0  0  0  0  0  0
   22.4785  -21.9836  -15.3808 C   0  0  0  0  0  0  0  0  0  0  0  0
   23.3959  -21.3408  -14.3938 C   0  0  0  0  0  0  0  0  0  0  0  0
   22.8538  -20.0937  -13.7531 C   0  0  2  0  0  0  0  0  0  0  0  0
   21.4198  -20.2266  -13.5964 N   0  0  0  0  0  0  0  0  0  0  0  0
   23.1369  -18.8520  -14.4772 C   0  0  0  0  0  0  0  0  0  0  0  0
   22.2567  -18.1502  -15.0628 O   0  0  0  0  0  0  0  0  0  0  0  0
   26.1793  -16.6377  -15.1205 C   0  0  0  0  0  0  0  0  0  0  0  0
   24.7765  -17.1470  -15.3393 C   0  0  2  0  0  0  0  0  0  0  0  0
   24.4666  -18.3223  -14.5812 N   0  0  0  0  0  0  0  0  0  0  0  0
   24.6704  -17.4939  -16.7718 C   0  0  0  0  0  0  0  0  0  0  0  0
   24.8975  -18.6700  -17.1271 O   0  0  0  0  0  0  0  0  0  0  0  0
   24.3176  -16.5328  -17.7620 N   0  0  0  0  0  0  0  0  0  0  0  0
   24.1463  -16.9202  -19.1299 C   0  0  0  0  0  0  0  0  0  0  0  0
   22.7897  -16.5605  -19.6028 C   0  0  0  0  0  0  0  0  0  0  0  0
   21.8227  -16.7208  -18.7870 O   0  0  0  0  0  0  0  0  0  0  0  0
   22.5176  -16.0664  -20.8651 O   0  0  0  0  0  0  0  0  0  0  0  0
  2  3  1  0
  2  1  1  0
  4  3  1  0
  5  4  1  0
  5  6  1  6
  7  5  1  0
  7 11  1  0
  8  7  2  0
 10  9  1  6
 10 11  1  0
 10 12  1  0
 12 14  1  0
 12 13  2  0
 14 15  1  0
 15 16  1  0
 16 18  1  0
 17 16  2  0
M  END
$$$$
