RTK.pdb
     RDKit          3D

 28 27  0  0  1  0  0  0  0  0999 V2000
    9.4546  -14.8260   15.9709 N   0  0  0  0  0  0  0  0  0  0  0  0
    8.2411  -14.1458   15.6561 C   0  0  0  0  0  0  0  0  0  0  0  0
    7.6412  -14.4406   14.5694 N   0  0  0  0  0  0  0  0  0  0  0  0
    7.6845  -13.1572   16.5051 N   0  0  0  0  0  0  0  0  0  0  0  0
    8.1727  -13.0464   17.8616 C   0  0  0  0  0  0  0  0  0  0  0  0
    7.8999  -14.3867   18.5544 C   0  0  0  0  0  0  0  0  0  0  0  0
    8.5297  -14.2571   19.9322 C   0  0  0  0  0  0  0  0  0  0  0  0
    8.3672  -15.5165   20.7561 C   0  0  2  0  0  0  0  0  0  0  0  0
    6.9881  -15.8909   20.8461 N   0  0  0  0  0  0  0  0  0  0  0  0
    8.9412  -15.1942   22.1056 C   0  0  0  0  0  0  0  0  0  0  0  0
   10.1038  -14.7405   22.2369 O   0  0  0  0  0  0  0  0  0  0  0  0
    6.7804  -13.9652   14.2227 C   0  0  0  0  0  0  0  0  0  0  0  0
    7.2936  -13.0424   24.8662 C   0  0  2  0  0  0  0  0  0  0  0  0
    7.5848  -14.4165   25.3988 O   0  0  0  0  0  0  0  0  0  0  0  0
    6.4017  -15.1398   25.3632 C   0  0  2  0  0  0  0  0  0  0  0  0
    8.6280  -15.1175   24.5665 N   0  0  0  0  0  0  0  0  0  0  0  0
    8.1304  -15.4172   23.2324 C   0  0  0  0  0  0  0  0  0  0  0  0
    8.8980  -16.4313   25.2082 O   0  0  0  0  0  0  0  0  0  0  0  0
    8.1917  -17.4670   24.9463 N   0  0  0  0  0  0  0  0  0  0  0  0
    9.9425  -16.6476   26.1471 C   0  0  1  0  0  0  0  0  0  0  0  0
   10.1423  -17.9546   26.7459 C   0  0  0  0  0  0  0  0  0  0  0  0
   11.3540  -18.6221   26.1354 C   0  0  0  0  0  0  0  0  0  0  0  0
   11.6466  -19.9323   26.8045 C   0  0  0  0  0  0  0  0  0  0  0  0
   12.8804  -20.5847   26.2267 C   0  0  0  0  0  0  0  0  0  0  0  0
   13.1816  -21.9234   26.8537 N   0  0  0  0  0  0  0  0  0  0  0  0
   14.4059  -22.4869   26.3161 C   0  0  0  0  0  0  0  0  0  0  0  0
   10.3113  -17.8369   28.2150 O   0  0  0  0  0  0  0  0  0  0  0  0
   10.4998  -16.7067   28.7074 O   0  0  0  0  0  0  0  0  0  0  0  0
  2  3  2  0
  2  1  1  0
  4  2  1  0
  5  4  1  0
  6  5  1  0
  7  8  1  0
  7  6  1  0
  8  9  1  1
 10  8  1  0
 10 11  2  0
 13 12  1  1
 13 15  1  0
 14 13  1  0
 15 16  1  1
 16 10  1  0
 17 15  1  0
 18 17  2  0
 19 17  1  0
 20 19  1  0
 20 26  1  0
 20 21  1  1
 22 21  1  0
 23 22  1  0
 24 23  1  0
 25 24  1  0
 26 28  1  0
 27 26  2  0
M  END
$$$$
