RTK.pdb
     RDKit          3D

 28 27  0  0  1  0  0  0  0  0999 V2000
    9.4438  -15.9041   16.4231 N   0  0  0  0  0  0  0  0  0  0  0  0
    8.3453  -15.1901   15.8591 C   0  0  0  0  0  0  0  0  0  0  0  0
    7.5233  -15.8234   15.1169 N   0  0  0  0  0  0  0  0  0  0  0  0
    8.1399  -13.8078   16.0932 N   0  0  0  0  0  0  0  0  0  0  0  0
    8.4336  -13.2701   17.4028 C   0  0  0  0  0  0  0  0  0  0  0  0
    7.1375  -13.3284   18.2199 C   0  0  0  0  0  0  0  0  0  0  0  0
    7.5530  -13.0081   19.6470 C   0  0  0  0  0  0  0  0  0  0  0  0
    8.8817  -13.6359   20.0104 C   0  0  2  0  0  0  0  0  0  0  0  0
    9.4594  -14.2948   18.8781 N   0  0  0  0  0  0  0  0  0  0  0  0
    8.5825  -14.6032   21.1192 C   0  0  0  0  0  0  0  0  0  0  0  0
    7.8010  -14.3114   22.0566 O   0  0  0  0  0  0  0  0  0  0  0  0
    6.6863  -15.3963   14.6650 C   0  0  0  0  0  0  0  0  0  0  0  0
    8.2952  -18.5963   20.3824 C   0  0  2  0  0  0  0  0  0  0  0  0
    9.1723  -18.2616   21.5551 O   0  0  0  0  0  0  0  0  0  0  0  0
   10.4900  -18.3378   21.1288 C   0  0  2  0  0  0  0  0  0  0  0  0
    8.8905  -16.8741   22.0724 N   0  0  0  0  0  0  0  0  0  0  0  0
    9.2095  -15.8610   21.0779 C   0  0  0  0  0  0  0  0  0  0  0  0
    9.8105  -16.6312   23.2149 O   0  0  0  0  0  0  0  0  0  0  0  0
   10.8357  -15.8717   23.1049 N   0  0  0  0  0  0  0  0  0  0  0  0
    9.6349  -17.2079   24.5018 C   0  0  1  0  0  0  0  0  0  0  0  0
   10.5356  -16.8782   25.5912 C   0  0  0  0  0  0  0  0  0  0  0  0
    9.8629  -15.9156   26.5437 C   0  0  0  0  0  0  0  0  0  0  0  0
   10.7186  -15.6568   27.7480 C   0  0  0  0  0  0  0  0  0  0  0  0
   10.0676  -14.6684   28.6867 C   0  0  0  0  0  0  0  0  0  0  0  0
   10.9176  -14.3633   29.8952 N   0  0  0  0  0  0  0  0  0  0  0  0
   10.2809  -13.3729   30.7433 C   0  0  0  0  0  0  0  0  0  0  0  0
   10.9521  -18.1042   26.3152 O   0  0  0  0  0  0  0  0  0  0  0  0
   10.2088  -19.1048   26.2751 O   0  0  0  0  0  0  0  0  0  0  0  0
  2  3  2  0
  2  1  1  0
  4  2  1  0
  5  4  1  0
  6  5  1  0
  7  8  1  0
  7  6  1  0
  8  9  1  6
 10  8  1  0
 10 11  2  0
 13 12  1  1
 13 15  1  0
 14 13  1  0
 15 16  1  1
 16 10  1  0
 17 15  1  0
 18 17  2  0
 19 17  1  0
 20 19  1  0
 20 26  1  0
 20 21  1  1
 22 21  1  0
 23 22  1  0
 24 23  1  0
 25 24  1  0
 26 28  1  0
 27 26  2  0
M  END
$$$$
