RTK.pdb
     RDKit          3D

 28 27  0  0  1  0  0  0  0  0999 V2000
   17.4225  -12.9610   17.7313 N   0  0  0  0  0  0  0  0  0  0  0  0
   17.4507  -14.0725   16.8379 C   0  0  0  0  0  0  0  0  0  0  0  0
   18.2557  -14.0394   15.8488 N   0  0  0  0  0  0  0  0  0  0  0  0
   16.6167  -15.2050   17.0111 N   0  0  0  0  0  0  0  0  0  0  0  0
   15.6696  -15.2142   18.1036 C   0  0  0  0  0  0  0  0  0  0  0  0
   14.4317  -14.4376   17.6393 C   0  0  0  0  0  0  0  0  0  0  0  0
   13.4686  -14.4858   18.8148 C   0  0  0  0  0  0  0  0  0  0  0  0
   12.0453  -14.7578   18.3772 C   0  0  2  0  0  0  0  0  0  0  0  0
   11.7955  -14.1987   17.0830 N   0  0  0  0  0  0  0  0  0  0  0  0
   11.1726  -14.1324   19.4270 C   0  0  0  0  0  0  0  0  0  0  0  0
   11.1928  -12.8982   19.6523 O   0  0  0  0  0  0  0  0  0  0  0  0
   18.3627  -14.8049   15.1490 C   0  0  0  0  0  0  0  0  0  0  0  0
    7.5495  -13.6409   19.8415 C   0  0  2  0  0  0  0  0  0  0  0  0
    8.0090  -14.6232   20.8810 O   0  0  0  0  0  0  0  0  0  0  0  0
    7.8095  -15.8977   20.3713 C   0  0  2  0  0  0  0  0  0  0  0  0
    9.4688  -14.4346   21.2063 N   0  0  0  0  0  0  0  0  0  0  0  0
   10.3212  -14.9781   20.1597 C   0  0  0  0  0  0  0  0  0  0  0  0
    9.7581  -15.2332   22.4267 O   0  0  0  0  0  0  0  0  0  0  0  0
   10.9290  -15.2737   22.9436 N   0  0  0  0  0  0  0  0  0  0  0  0
    8.7802  -16.0037   23.1119 C   0  0  1  0  0  0  0  0  0  0  0  0
    9.0071  -16.4466   24.4754 C   0  0  0  0  0  0  0  0  0  0  0  0
    9.1872  -15.2508   25.3831 C   0  0  0  0  0  0  0  0  0  0  0  0
    9.4717  -15.6775   26.7926 C   0  0  0  0  0  0  0  0  0  0  0  0
    9.5718  -14.4895   27.7204 C   0  0  0  0  0  0  0  0  0  0  0  0
    9.8813  -14.8837   29.1433 N   0  0  0  0  0  0  0  0  0  0  0  0
   10.0886  -13.7129   29.9750 C   0  0  0  0  0  0  0  0  0  0  0  0
    7.8759  -17.2808   24.9498 O   0  0  0  0  0  0  0  0  0  0  0  0
    8.0355  -17.9827   25.9682 O   0  0  0  0  0  0  0  0  0  0  0  0
  2  3  2  0
  2  1  1  0
  4  2  1  0
  5  4  1  0
  6  5  1  0
  7  8  1  0
  7  6  1  0
  8  9  1  6
 10  8  1  0
 10 11  2  0
 13 12  1  1
 13 15  1  0
 14 13  1  0
 15 16  1  1
 16 10  1  0
 17 15  1  0
 18 17  2  0
 19 17  1  0
 20 19  1  0
 20 26  1  0
 20 21  1  1
 22 21  1  0
 23 22  1  0
 24 23  1  0
 25 24  1  0
 26 28  1  0
 27 26  2  0
M  END
$$$$
