RTK.pdb
     RDKit          3D

 28 27  0  0  1  0  0  0  0  0999 V2000
    9.3984  -14.8745   15.1101 N   0  0  0  0  0  0  0  0  0  0  0  0
    8.3159  -13.9456   15.1059 C   0  0  0  0  0  0  0  0  0  0  0  0
    7.5143  -13.9483   14.1135 N   0  0  0  0  0  0  0  0  0  0  0  0
    8.1046  -13.0237   16.1611 N   0  0  0  0  0  0  0  0  0  0  0  0
    8.5189  -13.3859   17.4982 C   0  0  0  0  0  0  0  0  0  0  0  0
    7.7294  -14.6387   17.8956 C   0  0  0  0  0  0  0  0  0  0  0  0
    8.7448  -15.7703   17.8777 C   0  0  0  0  0  0  0  0  0  0  0  0
    9.7211  -15.6809   19.0311 C   0  0  2  0  0  0  0  0  0  0  0  0
   10.7249  -16.6966   18.9276 N   0  0  0  0  0  0  0  0  0  0  0  0
    8.8951  -15.8453   20.2742 C   0  0  0  0  0  0  0  0  0  0  0  0
    7.9356  -15.0798   20.5349 O   0  0  0  0  0  0  0  0  0  0  0  0
    6.6303  -13.3973   14.0674 C   0  0  0  0  0  0  0  0  0  0  0  0
    8.1533  -19.6506   21.7503 C   0  0  2  0  0  0  0  0  0  0  0  0
    8.6044  -18.6306   22.7566 O   0  0  0  0  0  0  0  0  0  0  0  0
    9.9637  -18.8160   22.9615 C   0  0  2  0  0  0  0  0  0  0  0  0
    8.3569  -17.2276   22.2642 N   0  0  0  0  0  0  0  0  0  0  0  0
    9.2301  -16.8937   21.1492 C   0  0  0  0  0  0  0  0  0  0  0  0
    8.7252  -16.2993   23.3657 O   0  0  0  0  0  0  0  0  0  0  0  0
    9.8410  -15.6710   23.3727 N   0  0  0  0  0  0  0  0  0  0  0  0
    7.8877  -16.0334   24.4825 C   0  0  1  0  0  0  0  0  0  0  0  0
    8.2916  -15.0830   25.5025 C   0  0  0  0  0  0  0  0  0  0  0  0
    7.0921  -14.2936   25.9762 C   0  0  0  0  0  0  0  0  0  0  0  0
    7.5012  -12.9529   26.5101 C   0  0  0  0  0  0  0  0  0  0  0  0
    6.3099  -12.1698   27.0098 C   0  0  0  0  0  0  0  0  0  0  0  0
    6.6855  -10.8062   27.5346 N   0  0  0  0  0  0  0  0  0  0  0  0
    5.5167  -10.0925   28.0141 C   0  0  0  0  0  0  0  0  0  0  0  0
    8.9262  -15.7816   26.6470 O   0  0  0  0  0  0  0  0  0  0  0  0
    8.6671  -16.9877   26.8304 O   0  0  0  0  0  0  0  0  0  0  0  0
  2  3  2  0
  2  1  1  0
  4  2  1  0
  5  4  1  0
  6  5  1  0
  7  8  1  0
  7  6  1  0
  8  9  1  6
 10  8  1  0
 10 11  2  0
 13 12  1  1
 13 15  1  0
 14 13  1  0
 15 16  1  1
 16 10  1  0
 17 15  1  0
 18 17  2  0
 19 17  1  0
 20 19  1  0
 20 26  1  0
 20 21  1  1
 22 21  1  0
 23 22  1  0
 24 23  1  0
 25 24  1  0
 26 28  1  0
 27 26  2  0
M  END
$$$$
