RTK.pdb
     RDKit          3D

 28 27  0  0  1  0  0  0  0  0999 V2000
   12.2301  -18.3303   12.9311 N   0  0  0  0  0  0  0  0  0  0  0  0
   13.0635  -18.2467   14.0856 C   0  0  0  0  0  0  0  0  0  0  0  0
   14.3265  -18.1728   13.9217 N   0  0  0  0  0  0  0  0  0  0  0  0
   12.5373  -18.2453   15.4013 N   0  0  0  0  0  0  0  0  0  0  0  0
   11.1034  -18.2972   15.5800 C   0  0  0  0  0  0  0  0  0  0  0  0
   10.6203  -16.8593   15.8035 C   0  0  0  0  0  0  0  0  0  0  0  0
    9.1452  -16.9852   16.1498 C   0  0  0  0  0  0  0  0  0  0  0  0
    8.4828  -15.6361   16.3301 C   0  0  2  0  0  0  0  0  0  0  0  0
    8.7336  -14.7916   15.2014 N   0  0  0  0  0  0  0  0  0  0  0  0
    9.0672  -15.0634   17.5891 C   0  0  0  0  0  0  0  0  0  0  0  0
   10.1887  -14.5006   17.5995 O   0  0  0  0  0  0  0  0  0  0  0  0
   15.0214  -18.1371   14.6982 C   0  0  0  0  0  0  0  0  0  0  0  0
    7.3710  -12.5441   19.7728 C   0  0  2  0  0  0  0  0  0  0  0  0
    7.7266  -13.7145   20.6448 O   0  0  0  0  0  0  0  0  0  0  0  0
    6.5753  -14.4661   20.8286 C   0  0  2  0  0  0  0  0  0  0  0  0
    8.7897  -14.5712   20.0059 N   0  0  0  0  0  0  0  0  0  0  0  0
    8.3140  -15.1761   18.7710 C   0  0  0  0  0  0  0  0  0  0  0  0
    9.0679  -15.6989   20.9343 O   0  0  0  0  0  0  0  0  0  0  0  0
    8.6401  -16.8835   20.7027 N   0  0  0  0  0  0  0  0  0  0  0  0
    9.8181  -15.5630   22.1335 C   0  0  1  0  0  0  0  0  0  0  0  0
   10.0514  -16.7070   22.9958 C   0  0  0  0  0  0  0  0  0  0  0  0
   11.5342  -16.9875   23.0908 C   0  0  0  0  0  0  0  0  0  0  0  0
   11.8088  -18.1562   23.9899 C   0  0  0  0  0  0  0  0  0  0  0  0
   13.2841  -18.4765   24.0454 C   0  0  0  0  0  0  0  0  0  0  0  0
   13.5856  -19.7002   24.8745 N   0  0  0  0  0  0  0  0  0  0  0  0
   14.9958  -20.0363   24.8136 C   0  0  0  0  0  0  0  0  0  0  0  0
    9.4905  -16.4663   24.3478 O   0  0  0  0  0  0  0  0  0  0  0  0
    9.1904  -15.3003   24.6727 O   0  0  0  0  0  0  0  0  0  0  0  0
  2  3  2  0
  2  1  1  0
  4  2  1  0
  5  4  1  0
  6  5  1  0
  7  8  1  0
  7  6  1  0
  8  9  1  6
 10  8  1  0
 10 11  2  0
 13 12  1  1
 13 15  1  0
 14 13  1  0
 15 16  1  1
 16 10  1  0
 17 15  1  0
 18 17  2  0
 19 17  1  0
 20 19  1  0
 20 26  1  0
 20 21  1  1
 22 21  1  0
 23 22  1  0
 24 23  1  0
 25 24  1  0
 26 28  1  0
 27 26  2  0
M  END
$$$$
