RTK.pdb
     RDKit          3D

 28 27  0  0  1  0  0  0  0  0999 V2000
    6.5341  -16.9373   15.5933 N   0  0  0  0  0  0  0  0  0  0  0  0
    7.5319  -17.6399   16.3317 C   0  0  0  0  0  0  0  0  0  0  0  0
    7.3528  -18.8802   16.5710 N   0  0  0  0  0  0  0  0  0  0  0  0
    8.7077  -17.0082   16.8072 N   0  0  0  0  0  0  0  0  0  0  0  0
    8.8621  -16.8001   18.2298 C   0  0  0  0  0  0  0  0  0  0  0  0
    7.7175  -15.8860   18.6829 C   0  0  0  0  0  0  0  0  0  0  0  0
    7.9234  -15.7033   20.1782 C   0  0  0  0  0  0  0  0  0  0  0  0
    7.4245  -14.3593   20.6641 C   0  0  2  0  0  0  0  0  0  0  0  0
    7.7019  -13.3358   19.7021 N   0  0  0  0  0  0  0  0  0  0  0  0
    8.1388  -14.1070   21.9605 C   0  0  0  0  0  0  0  0  0  0  0  0
    9.2355  -13.4987   22.0021 O   0  0  0  0  0  0  0  0  0  0  0  0
    7.9807  -19.4633   17.1649 C   0  0  0  0  0  0  0  0  0  0  0  0
    6.8842  -12.3266   25.0400 C   0  0  2  0  0  0  0  0  0  0  0  0
    7.2268  -13.7388   25.4205 O   0  0  0  0  0  0  0  0  0  0  0  0
    6.0454  -14.4655   25.4436 C   0  0  2  0  0  0  0  0  0  0  0  0
    8.1788  -14.3582   24.4294 N   0  0  0  0  0  0  0  0  0  0  0  0
    7.5378  -14.5768   23.1416 C   0  0  0  0  0  0  0  0  0  0  0  0
    8.5382  -15.7066   24.9427 O   0  0  0  0  0  0  0  0  0  0  0  0
    7.7994  -16.7296   24.7245 N   0  0  0  0  0  0  0  0  0  0  0  0
    9.7091  -15.9718   25.7030 C   0  0  1  0  0  0  0  0  0  0  0  0
    9.9723  -17.3026   26.2193 C   0  0  0  0  0  0  0  0  0  0  0  0
   11.2684  -17.8310   25.6472 C   0  0  0  0  0  0  0  0  0  0  0  0
   11.1689  -18.0205   24.1626 C   0  0  0  0  0  0  0  0  0  0  0  0
   12.4389  -18.6085   23.5940 C   0  0  0  0  0  0  0  0  0  0  0  0
   12.3454  -18.8791   22.1128 N   0  0  0  0  0  0  0  0  0  0  0  0
   13.6145  -19.3472   21.5876 C   0  0  0  0  0  0  0  0  0  0  0  0
   10.0389  -17.2854   27.7012 O   0  0  0  0  0  0  0  0  0  0  0  0
   10.0008  -16.1864   28.2895 O   0  0  0  0  0  0  0  0  0  0  0  0
  2  3  2  0
  2  1  1  0
  4  2  1  0
  5  4  1  0
  6  5  1  0
  7  8  1  0
  7  6  1  0
  8  9  1  6
 10  8  1  0
 10 11  2  0
 13 12  1  1
 13 15  1  0
 14 13  1  0
 15 16  1  1
 16 10  1  0
 17 15  1  0
 18 17  2  0
 19 17  1  0
 20 19  1  0
 20 26  1  0
 20 21  1  1
 22 21  1  0
 23 22  1  0
 24 23  1  0
 25 24  1  0
 26 28  1  0
 27 26  2  0
M  END
$$$$
