RTK.pdb
     RDKit          3D

 28 27  0  0  1  0  0  0  0  0999 V2000
    6.8005  -13.9226   14.5048 N   0  0  0  0  0  0  0  0  0  0  0  0
    8.0811  -13.3240   14.6953 C   0  0  0  0  0  0  0  0  0  0  0  0
    8.8563  -13.2095   13.6886 N   0  0  0  0  0  0  0  0  0  0  0  0
    8.5185  -12.8571   15.9597 N   0  0  0  0  0  0  0  0  0  0  0  0
    7.9646  -13.4541   17.1544 C   0  0  0  0  0  0  0  0  0  0  0  0
    8.4551  -14.9058   17.2074 C   0  0  0  0  0  0  0  0  0  0  0  0
    8.3395  -15.3111   18.6682 C   0  0  0  0  0  0  0  0  0  0  0  0
    8.7656  -16.7451   18.8993 C   0  0  2  0  0  0  0  0  0  0  0  0
    8.1596  -17.6168   17.9385 N   0  0  0  0  0  0  0  0  0  0  0  0
    8.3302  -17.0764   20.2976 C   0  0  0  0  0  0  0  0  0  0  0  0
    7.1271  -17.2938   20.5801 O   0  0  0  0  0  0  0  0  0  0  0  0
    9.8174  -12.8071   13.7266 C   0  0  0  0  0  0  0  0  0  0  0  0
    9.6699  -19.8422   22.5483 C   0  0  2  0  0  0  0  0  0  0  0  0
    9.8702  -18.5221   23.2366 O   0  0  0  0  0  0  0  0  0  0  0  0
   11.1925  -18.1473   23.0487 C   0  0  2  0  0  0  0  0  0  0  0  0
    8.9615  -17.4630   22.6666 N   0  0  0  0  0  0  0  0  0  0  0  0
    9.3198  -17.1373   21.2945 C   0  0  0  0  0  0  0  0  0  0  0  0
    9.1802  -16.2206   23.4536 O   0  0  0  0  0  0  0  0  0  0  0  0
    9.9994  -15.3147   23.0688 N   0  0  0  0  0  0  0  0  0  0  0  0
    8.5119  -15.9360   24.6749 C   0  0  1  0  0  0  0  0  0  0  0  0
    8.7278  -14.6759   25.3621 C   0  0  0  0  0  0  0  0  0  0  0  0
    7.4075  -13.9689   25.5707 C   0  0  0  0  0  0  0  0  0  0  0  0
    7.5918  -12.6876   26.3283 C   0  0  0  0  0  0  0  0  0  0  0  0
    6.2763  -11.9752   26.5379 C   0  0  0  0  0  0  0  0  0  0  0  0
    6.4359  -10.6464   27.2341 N   0  0  0  0  0  0  0  0  0  0  0  0
    5.1492  -10.0077   27.4389 C   0  0  0  0  0  0  0  0  0  0  0  0
    9.3980  -14.8992   26.6666 O   0  0  0  0  0  0  0  0  0  0  0  0
    9.4300  -16.0554   27.1330 O   0  0  0  0  0  0  0  0  0  0  0  0
  2  3  2  0
  2  1  1  0
  4  2  1  0
  5  4  1  0
  6  5  1  0
  7  8  1  0
  7  6  1  0
  8  9  1  6
 10  8  1  0
 10 11  2  0
 13 12  1  1
 13 15  1  0
 14 13  1  0
 15 16  1  1
 16 10  1  0
 17 15  1  0
 18 17  2  0
 19 17  1  0
 20 19  1  0
 20 26  1  0
 20 21  1  1
 22 21  1  0
 23 22  1  0
 24 23  1  0
 25 24  1  0
 26 28  1  0
 27 26  2  0
M  END
$$$$
