RTK.pdb
     RDKit          3D

 28 27  0  0  1  0  0  0  0  0999 V2000
    9.9157  -14.7471   16.1258 N   0  0  0  0  0  0  0  0  0  0  0  0
    8.9439  -13.7036   16.0890 C   0  0  0  0  0  0  0  0  0  0  0  0
    8.0576  -13.7281   15.1717 N   0  0  0  0  0  0  0  0  0  0  0  0
    8.9323  -12.6456   17.0315 N   0  0  0  0  0  0  0  0  0  0  0  0
    8.7423  -12.9584   18.4303 C   0  0  0  0  0  0  0  0  0  0  0  0
    7.3955  -13.6804   18.5563 C   0  0  0  0  0  0  0  0  0  0  0  0
    7.2116  -13.9208   20.0463 C   0  0  0  0  0  0  0  0  0  0  0  0
    8.3868  -14.6542   20.6566 C   0  0  2  0  0  0  0  0  0  0  0  0
    8.8660  -15.6725   19.7715 N   0  0  0  0  0  0  0  0  0  0  0  0
    7.8767  -15.2360   21.9435 C   0  0  0  0  0  0  0  0  0  0  0  0
    7.2110  -14.5526   22.7585 O   0  0  0  0  0  0  0  0  0  0  0  0
    7.3430  -12.9839   15.0214 C   0  0  0  0  0  0  0  0  0  0  0  0
    6.5404  -19.0833   22.4681 C   0  0  2  0  0  0  0  0  0  0  0  0
    7.6687  -18.6809   23.3745 O   0  0  0  0  0  0  0  0  0  0  0  0
    8.8410  -19.1929   22.8380 C   0  0  2  0  0  0  0  0  0  0  0  0
    7.7778  -17.1813   23.4818 N   0  0  0  0  0  0  0  0  0  0  0  0
    8.1688  -16.5846   22.2136 C   0  0  0  0  0  0  0  0  0  0  0  0
    8.8814  -16.8837   24.4327 O   0  0  0  0  0  0  0  0  0  0  0  0
   10.0851  -16.7054   24.0335 N   0  0  0  0  0  0  0  0  0  0  0  0
    8.6997  -16.7721   25.8376 C   0  0  1  0  0  0  0  0  0  0  0  0
    9.8279  -16.5112   26.7128 C   0  0  0  0  0  0  0  0  0  0  0  0
    9.3772  -15.7031   27.9087 C   0  0  0  0  0  0  0  0  0  0  0  0
   10.4993  -15.5054   28.8841 C   0  0  0  0  0  0  0  0  0  0  0  0
   10.0704  -14.6526   30.0549 C   0  0  0  0  0  0  0  0  0  0  0  0
   11.1936  -14.3857   31.0259 N   0  0  0  0  0  0  0  0  0  0  0  0
   10.7442  -13.5535   32.1264 C   0  0  0  0  0  0  0  0  0  0  0  0
   10.4477  -17.7822   27.1608 O   0  0  0  0  0  0  0  0  0  0  0  0
    9.7110  -18.7664   27.3704 O   0  0  0  0  0  0  0  0  0  0  0  0
  2  3  2  0
  2  1  1  0
  4  2  1  0
  5  4  1  0
  6  5  1  0
  7  8  1  0
  7  6  1  0
  8  9  1  6
 10  8  1  0
 10 11  2  0
 13 12  1  1
 13 15  1  0
 14 13  1  0
 15 16  1  1
 16 10  1  0
 17 15  1  0
 18 17  2  0
 19 17  1  0
 20 19  1  0
 20 26  1  0
 20 21  1  1
 22 21  1  0
 23 22  1  0
 24 23  1  0
 25 24  1  0
 26 28  1  0
 27 26  2  0
M  END
$$$$
