RTK.pdb
     RDKit          3D

 28 27  0  0  1  0  0  0  0  0999 V2000
    7.6053  -14.5882   14.1546 N   0  0  0  0  0  0  0  0  0  0  0  0
    8.0836  -13.2449   14.1163 C   0  0  0  0  0  0  0  0  0  0  0  0
    8.3175  -12.7133   12.9805 N   0  0  0  0  0  0  0  0  0  0  0  0
    8.3081  -12.4869   15.2923 N   0  0  0  0  0  0  0  0  0  0  0  0
    7.9474  -13.0581   16.5708 C   0  0  0  0  0  0  0  0  0  0  0  0
    8.6961  -14.3897   16.7018 C   0  0  0  0  0  0  0  0  0  0  0  0
    8.3461  -14.9074   18.0879 C   0  0  0  0  0  0  0  0  0  0  0  0
    8.9305  -16.2789   18.3505 C   0  0  2  0  0  0  0  0  0  0  0  0
    8.6171  -17.1784   17.2815 N   0  0  0  0  0  0  0  0  0  0  0  0
    8.3288  -16.7333   19.6491 C   0  0  0  0  0  0  0  0  0  0  0  0
    7.1100  -17.0145   19.7490 O   0  0  0  0  0  0  0  0  0  0  0  0
    8.6498  -11.7344   12.8442 C   0  0  0  0  0  0  0  0  0  0  0  0
    7.6852  -19.4068   21.0306 C   0  0  2  0  0  0  0  0  0  0  0  0
    8.6613  -18.8637   22.0350 O   0  0  0  0  0  0  0  0  0  0  0  0
    9.9195  -19.3402   21.6975 C   0  0  2  0  0  0  0  0  0  0  0  0
    8.6755  -17.3564   22.0264 N   0  0  0  0  0  0  0  0  0  0  0  0
    9.1791  -16.8367   20.7641 C   0  0  0  0  0  0  0  0  0  0  0  0
    9.6426  -16.9159   23.0662 O   0  0  0  0  0  0  0  0  0  0  0  0
   10.8862  -16.7560   22.8054 N   0  0  0  0  0  0  0  0  0  0  0  0
    9.2783  -16.6387   24.4115 C   0  0  1  0  0  0  0  0  0  0  0  0
   10.2847  -16.2761   25.3926 C   0  0  0  0  0  0  0  0  0  0  0  0
    9.6256  -15.6497   26.6007 C   0  0  0  0  0  0  0  0  0  0  0  0
   10.6332  -15.3334   27.6657 C   0  0  0  0  0  0  0  0  0  0  0  0
    9.9927  -14.6383   28.8441 C   0  0  0  0  0  0  0  0  0  0  0  0
   10.9973  -14.1993   29.8803 N   0  0  0  0  0  0  0  0  0  0  0  0
   10.3538  -13.4563   30.9478 C   0  0  0  0  0  0  0  0  0  0  0  0
   11.0706  -17.4663   25.8006 O   0  0  0  0  0  0  0  0  0  0  0  0
   12.2557  -17.3083   26.1556 O   0  0  0  0  0  0  0  0  0  0  0  0
  2  3  2  0
  2  1  1  0
  4  2  1  0
  5  4  1  0
  6  5  1  0
  7  8  1  0
  7  6  1  0
  8  9  1  6
 10  8  1  0
 10 11  2  0
 13 12  1  1
 13 15  1  0
 14 13  1  0
 15 16  1  1
 16 10  1  0
 17 15  1  0
 18 17  2  0
 19 17  1  0
 20 19  1  0
 20 26  1  0
 20 21  1  1
 22 21  1  0
 23 22  1  0
 24 23  1  0
 25 24  1  0
 26 28  1  0
 27 26  2  0
M  END
$$$$
