RTK.pdb
     RDKit          3D

 28 27  0  0  1  0  0  0  0  0999 V2000
   13.7775  -20.2471   16.3089 N   0  0  0  0  0  0  0  0  0  0  0  0
   12.4356  -20.0282   15.8777 C   0  0  0  0  0  0  0  0  0  0  0  0
   12.1824  -20.0695   14.6280 N   0  0  0  0  0  0  0  0  0  0  0  0
   11.3810  -19.7658   16.7870 N   0  0  0  0  0  0  0  0  0  0  0  0
   11.7069  -19.3800   18.1419 C   0  0  0  0  0  0  0  0  0  0  0  0
   12.6142  -18.1469   18.0582 C   0  0  0  0  0  0  0  0  0  0  0  0
   12.0826  -17.1902   19.1136 C   0  0  0  0  0  0  0  0  0  0  0  0
   10.6279  -16.8385   18.8860 C   0  0  2  0  0  0  0  0  0  0  0  0
   10.4086  -16.4350   17.5298 N   0  0  0  0  0  0  0  0  0  0  0  0
   10.3248  -15.7270   19.8489 C   0  0  0  0  0  0  0  0  0  0  0  0
   11.1229  -14.7760   20.0314 O   0  0  0  0  0  0  0  0  0  0  0  0
   11.2406  -19.9079   14.2110 C   0  0  0  0  0  0  0  0  0  0  0  0
    7.0875  -13.5930   19.9382 C   0  0  2  0  0  0  0  0  0  0  0  0
    7.2844  -14.3034   21.2471 O   0  0  0  0  0  0  0  0  0  0  0  0
    6.4900  -15.4404   21.2311 C   0  0  2  0  0  0  0  0  0  0  0  0
    8.7254  -14.6995   21.4446 N   0  0  0  0  0  0  0  0  0  0  0  0
    9.1069  -15.7812   20.5493 C   0  0  0  0  0  0  0  0  0  0  0  0
    8.8508  -15.2441   22.8224 O   0  0  0  0  0  0  0  0  0  0  0  0
    9.0166  -16.4952   23.0400 N   0  0  0  0  0  0  0  0  0  0  0  0
    8.8000  -14.4401   23.9930 C   0  0  1  0  0  0  0  0  0  0  0  0
    8.8946  -15.0418   25.3105 C   0  0  0  0  0  0  0  0  0  0  0  0
    8.8874  -13.9645   26.3715 C   0  0  0  0  0  0  0  0  0  0  0  0
    8.9656  -14.5571   27.7472 C   0  0  0  0  0  0  0  0  0  0  0  0
   10.1815  -14.0618   28.4943 C   0  0  0  0  0  0  0  0  0  0  0  0
   10.2997  -14.6547   29.8765 N   0  0  0  0  0  0  0  0  0  0  0  0
   11.4777  -14.1534   30.5594 C   0  0  0  0  0  0  0  0  0  0  0  0
    7.7736  -15.9868   25.5361 O   0  0  0  0  0  0  0  0  0  0  0  0
    7.9447  -16.9429   26.3183 O   0  0  0  0  0  0  0  0  0  0  0  0
  2  3  2  0
  2  1  1  0
  4  2  1  0
  5  4  1  0
  6  5  1  0
  7  8  1  0
  7  6  1  0
  8  9  1  6
 10  8  1  0
 10 11  2  0
 13 12  1  1
 13 15  1  0
 14 13  1  0
 15 16  1  1
 16 10  1  0
 17 15  1  0
 18 17  2  0
 19 17  1  0
 20 19  1  0
 20 26  1  0
 20 21  1  1
 22 21  1  0
 23 22  1  0
 24 23  1  0
 25 24  1  0
 26 28  1  0
 27 26  2  0
M  END
$$$$
