RTK.pdb
     RDKit          3D

 28 27  0  0  1  0  0  0  0  0999 V2000
    7.5906  -13.6809   14.8113 N   0  0  0  0  0  0  0  0  0  0  0  0
    8.3945  -14.0626   15.9260 C   0  0  0  0  0  0  0  0  0  0  0  0
    9.1534  -15.0815   15.8099 N   0  0  0  0  0  0  0  0  0  0  0  0
    8.3759  -13.3523   17.1520 N   0  0  0  0  0  0  0  0  0  0  0  0
    7.5474  -13.8428   18.2307 C   0  0  0  0  0  0  0  0  0  0  0  0
    8.2764  -15.0370   18.8577 C   0  0  0  0  0  0  0  0  0  0  0  0
    8.0943  -14.8704   20.3580 C   0  0  0  0  0  0  0  0  0  0  0  0
    9.4050  -14.9741   21.1082 C   0  0  2  0  0  0  0  0  0  0  0  0
   10.4442  -15.4601   20.2514 N   0  0  0  0  0  0  0  0  0  0  0  0
    9.1449  -15.9147   22.2493 C   0  0  0  0  0  0  0  0  0  0  0  0
    8.1236  -15.8101   22.9709 O   0  0  0  0  0  0  0  0  0  0  0  0
    9.7792  -15.4402   16.5627 C   0  0  0  0  0  0  0  0  0  0  0  0
    9.7571  -19.9113   22.1454 C   0  0  2  0  0  0  0  0  0  0  0  0
   10.5002  -19.2184   23.2519 O   0  0  0  0  0  0  0  0  0  0  0  0
   11.8086  -19.0364   22.8289 C   0  0  2  0  0  0  0  0  0  0  0  0
    9.8844  -17.8803   23.5720 N   0  0  0  0  0  0  0  0  0  0  0  0
   10.0885  -16.9287   22.4904 C   0  0  0  0  0  0  0  0  0  0  0  0
   10.6097  -17.3279   24.7465 O   0  0  0  0  0  0  0  0  0  0  0  0
   11.6875  -16.6490   24.6147 N   0  0  0  0  0  0  0  0  0  0  0  0
   10.1779  -17.5006   26.0894 C   0  0  1  0  0  0  0  0  0  0  0  0
   11.0106  -17.0693   27.1972 C   0  0  0  0  0  0  0  0  0  0  0  0
   10.3176  -15.9661   27.9647 C   0  0  0  0  0  0  0  0  0  0  0  0
   10.1223  -14.7497   27.1092 C   0  0  0  0  0  0  0  0  0  0  0  0
    9.4230  -13.6465   27.8680 C   0  0  0  0  0  0  0  0  0  0  0  0
    9.1903  -12.4156   27.0274 N   0  0  0  0  0  0  0  0  0  0  0  0
    8.4195  -11.4253   27.7558 C   0  0  0  0  0  0  0  0  0  0  0  0
   11.3111  -18.2073   28.1001 O   0  0  0  0  0  0  0  0  0  0  0  0
   10.6898  -19.2770   27.9422 O   0  0  0  0  0  0  0  0  0  0  0  0
  2  3  2  0
  2  1  1  0
  4  2  1  0
  5  4  1  0
  6  5  1  0
  7  8  1  0
  7  6  1  0
  8  9  1  6
 10  8  1  0
 10 11  2  0
 13 12  1  1
 13 15  1  0
 14 13  1  0
 15 16  1  1
 16 10  1  0
 17 15  1  0
 18 17  2  0
 19 17  1  0
 20 19  1  0
 20 26  1  0
 20 21  1  1
 22 21  1  0
 23 22  1  0
 24 23  1  0
 25 24  1  0
 26 28  1  0
 27 26  2  0
M  END
$$$$
