RTK.pdb
     RDKit          3D

 28 27  0  0  1  0  0  0  0  0999 V2000
   12.0020  -17.2173   18.2836 N   0  0  0  0  0  0  0  0  0  0  0  0
   12.4093  -16.0779   17.5283 C   0  0  0  0  0  0  0  0  0  0  0  0
   13.6519  -15.9187   17.2874 N   0  0  0  0  0  0  0  0  0  0  0  0
   11.4840  -15.1215   17.0415 N   0  0  0  0  0  0  0  0  0  0  0  0
   10.0918  -15.2451   17.4121 C   0  0  0  0  0  0  0  0  0  0  0  0
    9.9502  -14.6989   18.8378 C   0  0  0  0  0  0  0  0  0  0  0  0
    8.4650  -14.7866   19.1510 C   0  0  0  0  0  0  0  0  0  0  0  0
    7.9558  -13.5495   19.8593 C   0  0  2  0  0  0  0  0  0  0  0  0
    8.4427  -12.3627   19.2232 N   0  0  0  0  0  0  0  0  0  0  0  0
    8.4493  -13.6606   21.2730 C   0  0  0  0  0  0  0  0  0  0  0  0
    9.5817  -13.2391   21.6117 O   0  0  0  0  0  0  0  0  0  0  0  0
   14.0565  -15.0941   16.7940 C   0  0  0  0  0  0  0  0  0  0  0  0
    7.2250  -14.6247   25.9595 C   0  0  2  0  0  0  0  0  0  0  0  0
    6.8053  -14.4675   24.5258 O   0  0  0  0  0  0  0  0  0  0  0  0
    6.0418  -13.3129   24.4363 C   0  0  1  0  0  0  0  0  0  0  0  0
    8.0002  -14.3521   23.6141 N   0  0  0  0  0  0  0  0  0  0  0  0
    7.5972  -14.2571   22.2191 C   0  0  0  0  0  0  0  0  0  0  0  0
    8.7724  -15.6171   23.7326 O   0  0  0  0  0  0  0  0  0  0  0  0
    8.5248  -16.6299   22.9891 N   0  0  0  0  0  0  0  0  0  0  0  0
    9.8312  -15.8075   24.6611 C   0  0  1  0  0  0  0  0  0  0  0  0
   10.4366  -17.1149   24.8373 C   0  0  0  0  0  0  0  0  0  0  0  0
   11.8976  -17.0633   24.4510 C   0  0  0  0  0  0  0  0  0  0  0  0
   12.5608  -18.3926   24.6578 C   0  0  0  0  0  0  0  0  0  0  0  0
   14.0274  -18.3405   24.2992 C   0  0  0  0  0  0  0  0  0  0  0  0
   14.7070  -19.6818   24.4223 N   0  0  0  0  0  0  0  0  0  0  0  0
   16.0835  -19.6119   23.9686 C   0  0  0  0  0  0  0  0  0  0  0  0
   10.2967  -17.5714   26.2418 O   0  0  0  0  0  0  0  0  0  0  0  0
   10.6957  -18.7141   26.5425 O   0  0  0  0  0  0  0  0  0  0  0  0
  2  3  2  0
  2  1  1  0
  4  2  1  0
  5  4  1  0
  6  5  1  0
  7  8  1  0
  7  6  1  0
  8  9  1  6
 10  8  1  0
 10 11  2  0
 13 12  1  1
 13 15  1  0
 14 13  1  0
 15 16  1  6
 16 10  1  0
 17 15  1  0
 18 17  2  0
 19 17  1  0
 20 19  1  0
 20 26  1  0
 20 21  1  1
 22 21  1  0
 23 22  1  0
 24 23  1  0
 25 24  1  0
 26 28  1  0
 27 26  2  0
M  END
$$$$
