RTK.pdb
     RDKit          3D

 28 27  0  0  1  0  0  0  0  0999 V2000
    7.7429  -23.2564   16.8081 N   0  0  0  0  0  0  0  0  0  0  0  0
    8.2525  -22.1236   16.1070 C   0  0  0  0  0  0  0  0  0  0  0  0
    8.9851  -22.3205   15.0812 N   0  0  0  0  0  0  0  0  0  0  0  0
    7.9750  -20.7943   16.5118 N   0  0  0  0  0  0  0  0  0  0  0  0
    7.2556  -20.5763   17.7470 C   0  0  0  0  0  0  0  0  0  0  0  0
    7.9930  -19.4724   18.5143 C   0  0  0  0  0  0  0  0  0  0  0  0
    6.9970  -18.3284   18.6192 C   0  0  0  0  0  0  0  0  0  0  0  0
    7.4614  -17.0956   17.8736 C   0  0  2  0  0  0  0  0  0  0  0  0
    8.0784  -17.4543   16.6324 N   0  0  0  0  0  0  0  0  0  0  0  0
    8.4289  -16.4073   18.7927 C   0  0  0  0  0  0  0  0  0  0  0  0
    9.6697  -16.5501   18.6716 O   0  0  0  0  0  0  0  0  0  0  0  0
    9.4439  -21.5639   14.5297 C   0  0  0  0  0  0  0  0  0  0  0  0
    7.7785  -12.6328   20.1205 C   0  0  2  0  0  0  0  0  0  0  0  0
    8.1101  -13.6011   21.2201 O   0  0  0  0  0  0  0  0  0  0  0  0
    6.9204  -13.9591   21.8369 C   0  0  2  0  0  0  0  0  0  0  0  0
    8.7871  -14.8344   20.6790 N   0  0  0  0  0  0  0  0  0  0  0  0
    7.9002  -15.5877   19.8054 C   0  0  0  0  0  0  0  0  0  0  0  0
    9.0774  -15.7241   21.8344 O   0  0  0  0  0  0  0  0  0  0  0  0
    8.3014  -16.6923   22.1510 N   0  0  0  0  0  0  0  0  0  0  0  0
   10.2183  -15.5809   22.6695 C   0  0  1  0  0  0  0  0  0  0  0  0
   10.4264  -16.4682   23.7991 C   0  0  0  0  0  0  0  0  0  0  0  0
   10.8318  -17.8403   23.3097 C   0  0  0  0  0  0  0  0  0  0  0  0
   11.0987  -18.7687   24.4571 C   0  0  0  0  0  0  0  0  0  0  0  0
   11.6135  -20.1057   23.9783 C   0  0  0  0  0  0  0  0  0  0  0  0
   11.7360  -21.1172   25.0908 N   0  0  0  0  0  0  0  0  0  0  0  0
   12.3235  -22.3533   24.6087 C   0  0  0  0  0  0  0  0  0  0  0  0
   11.4647  -15.9238   24.7079 O   0  0  0  0  0  0  0  0  0  0  0  0
   12.2923  -15.1098   24.2520 O   0  0  0  0  0  0  0  0  0  0  0  0
  2  3  2  0
  2  1  1  0
  4  2  1  0
  5  4  1  0
  6  5  1  0
  7  8  1  0
  7  6  1  0
  8  9  1  6
 10  8  1  0
 10 11  2  0
 13 12  1  1
 13 15  1  0
 14 13  1  0
 15 16  1  1
 16 10  1  0
 17 15  1  0
 18 17  2  0
 19 17  1  0
 20 19  1  0
 20 26  1  0
 20 21  1  1
 22 21  1  0
 23 22  1  0
 24 23  1  0
 25 24  1  0
 26 28  1  0
 27 26  2  0
M  END
$$$$
