RTK.pdb
     RDKit          3D

 28 27  0  0  1  0  0  0  0  0999 V2000
   14.8454  -14.0020   20.8305 N   0  0  0  0  0  0  0  0  0  0  0  0
   14.7382  -14.3887   19.4618 C   0  0  0  0  0  0  0  0  0  0  0  0
   15.4088  -13.7409   18.5910 N   0  0  0  0  0  0  0  0  0  0  0  0
   13.9141  -15.4614   19.0399 N   0  0  0  0  0  0  0  0  0  0  0  0
   12.7243  -15.1680   18.2724 C   0  0  0  0  0  0  0  0  0  0  0  0
   12.0554  -13.9487   18.9181 C   0  0  0  0  0  0  0  0  0  0  0  0
   10.8749  -13.6203   18.0180 C   0  0  0  0  0  0  0  0  0  0  0  0
    9.6828  -14.5127   18.2899 C   0  0  2  0  0  0  0  0  0  0  0  0
    8.6654  -14.3173   17.3015 N   0  0  0  0  0  0  0  0  0  0  0  0
    9.2002  -14.1367   19.6611 C   0  0  0  0  0  0  0  0  0  0  0  0
    8.5356  -13.0917   19.8633 O   0  0  0  0  0  0  0  0  0  0  0  0
   15.3510  -13.9013   17.5624 C   0  0  0  0  0  0  0  0  0  0  0  0
    6.9809  -13.6047   21.2035 C   0  0  2  0  0  0  0  0  0  0  0  0
    7.5207  -14.6776   22.1058 O   0  0  0  0  0  0  0  0  0  0  0  0
    7.0124  -15.8909   21.6658 C   0  0  2  0  0  0  0  0  0  0  0  0
    9.0271  -14.7198   22.0674 N   0  0  0  0  0  0  0  0  0  0  0  0
    9.5170  -14.9985   20.7260 C   0  0  0  0  0  0  0  0  0  0  0  0
    9.4602  -15.8667   22.9087 O   0  0  0  0  0  0  0  0  0  0  0  0
    9.5417  -17.0549   22.4379 N   0  0  0  0  0  0  0  0  0  0  0  0
    9.8154  -15.7462   24.2793 C   0  0  1  0  0  0  0  0  0  0  0  0
   10.0901  -16.9249   25.0806 C   0  0  0  0  0  0  0  0  0  0  0  0
   11.5631  -16.9892   25.4157 C   0  0  0  0  0  0  0  0  0  0  0  0
   12.2730  -17.9890   24.5518 C   0  0  0  0  0  0  0  0  0  0  0  0
   13.7375  -18.0874   24.9091 C   0  0  0  0  0  0  0  0  0  0  0  0
   14.4852  -19.0716   24.0442 N   0  0  0  0  0  0  0  0  0  0  0  0
   15.8910  -19.1155   24.4007 C   0  0  0  0  0  0  0  0  0  0  0  0
    9.2842  -16.9106   26.3259 O   0  0  0  0  0  0  0  0  0  0  0  0
    8.6279  -15.8870   26.6027 O   0  0  0  0  0  0  0  0  0  0  0  0
  2  3  2  0
  2  1  1  0
  4  2  1  0
  5  4  1  0
  6  5  1  0
  7  8  1  0
  7  6  1  0
  8  9  1  6
 10  8  1  0
 10 11  2  0
 13 12  1  1
 13 15  1  0
 14 13  1  0
 15 16  1  1
 16 10  1  0
 17 15  1  0
 18 17  2  0
 19 17  1  0
 20 19  1  0
 20 26  1  0
 20 21  1  1
 22 21  1  0
 23 22  1  0
 24 23  1  0
 25 24  1  0
 26 28  1  0
 27 26  2  0
M  END
$$$$
