STW.pdb
     RDKit          3D

 28 29  0  0  1  0  0  0  0  0999 V2000
   30.5278  -25.2176  -16.4872 O   0  0  0  0  0  0  0  0  0  0  0  0
   29.3356  -24.9005  -17.1218 C   0  0  0  0  0  0  0  0  0  0  0  0
   29.5607  -23.6207  -17.9025 C   0  0  2  0  0  0  0  0  0  0  0  0
   30.9628  -23.2644  -17.9530 N   0  0  0  0  0  0  0  0  0  0  0  0
   28.7839  -22.5342  -17.2343 C   0  0  0  0  0  0  0  0  0  0  0  0
   28.8111  -21.3827  -17.7507 O   0  0  0  0  0  0  0  0  0  0  0  0
   27.0553  -20.9512  -17.7987 C   0  0  0  0  0  0  0  0  0  0  0  0
   26.1909  -21.3119  -16.5974 C   0  0  1  0  0  0  0  0  0  0  0  0
   25.3719  -22.3840  -16.9292 O   0  0  0  0  0  0  0  0  0  0  0  0
   27.1596  -21.7521  -15.5056 C   0  0  2  0  0  0  0  0  0  0  0  0
   28.0298  -22.7428  -16.0636 N   0  0  0  0  0  0  0  0  0  0  0  0
   26.4343  -22.2399  -14.3085 C   0  0  0  0  0  0  0  0  0  0  0  0
   26.6224  -23.4055  -13.8722 O   0  0  0  0  0  0  0  0  0  0  0  0
   25.5112  -21.4121  -13.6241 N   0  0  0  0  0  0  0  0  0  0  0  0
   25.2357  -21.4955  -12.1927 C   0  0  1  0  0  0  0  0  0  0  0  0
   26.5360  -21.2559  -11.4864 C   0  0  0  0  0  0  0  0  0  0  0  0
   26.4702  -20.7377  -10.1270 C   0  0  0  0  0  0  0  0  0  0  0  0
   25.3526  -20.2367   -9.4543 C   0  0  0  0  0  0  0  0  0  0  0  0
   25.7676  -19.8486   -8.2548 N   0  0  0  0  0  0  0  0  0  0  0  0
   27.0708  -20.0577   -8.0900 C   0  0  0  0  0  0  0  0  0  0  0  0
   27.9211  -19.8218   -7.0035 C   0  0  0  0  0  0  0  0  0  0  0  0
   29.2500  -20.1701   -7.1350 C   0  0  0  0  0  0  0  0  0  0  0  0
   29.7368  -20.7359   -8.3007 C   0  0  0  0  0  0  0  0  0  0  0  0
   28.8938  -20.9633   -9.3625 C   0  0  0  0  0  0  0  0  0  0  0  0
   27.5431  -20.6178   -9.2530 C   0  0  0  0  0  0  0  0  0  0  0  0
   24.1169  -20.6425  -11.8003 C   0  0  0  0  0  0  0  0  0  0  0  0
   23.9043  -19.5057  -12.2827 O   0  0  0  0  0  0  0  0  0  0  0  0
   23.2085  -21.0750  -10.8389 O   0  0  0  0  0  0  0  0  0  0  0  0
  2  3  1  0
  2  1  1  0
  3  4  1  1
  5  6  2  0
  5  3  1  0
  8  7  1  6
  8  9  1  0
  8 10  1  0
 10 11  1  6
 11  5  1  0
 12 13  2  0
 12 10  1  0
 14 12  1  0
 15 16  1  1
 15 14  1  0
 17 25  1  0
 17 16  1  0
 18 17  2  0
 19 18  1  0
 19 20  1  0
 20 21  1  0
 20 25  2  0
 21 22  2  0
 22 23  1  0
 24 23  2  0
 25 24  1  0
 26 15  1  0
 27 26  2  0
 28 26  1  0
M  END
$$$$
