STW.pdb
     RDKit          3D

 28 29  0  0  1  0  0  0  0  0999 V2000
   26.8185  -23.9830  -17.7297 O   0  0  0  0  0  0  0  0  0  0  0  0
   27.2144  -23.5177  -16.4842 C   0  0  0  0  0  0  0  0  0  0  0  0
   27.5887  -22.0571  -16.6405 C   0  0  2  0  0  0  0  0  0  0  0  0
   28.7632  -21.8917  -17.4705 N   0  0  0  0  0  0  0  0  0  0  0  0
   27.8468  -21.5023  -15.2782 C   0  0  0  0  0  0  0  0  0  0  0  0
   28.9790  -21.7081  -14.7593 O   0  0  0  0  0  0  0  0  0  0  0  0
   27.6676  -18.1140  -14.2806 C   0  0  0  0  0  0  0  0  0  0  0  0
   26.7496  -18.7666  -13.2550 C   0  0  1  0  0  0  0  0  0  0  0  0
   25.4314  -18.6387  -13.6747 O   0  0  0  0  0  0  0  0  0  0  0  0
   27.1217  -20.2450  -13.2455 C   0  0  2  0  0  0  0  0  0  0  0  0
   26.8865  -20.7658  -14.5583 N   0  0  0  0  0  0  0  0  0  0  0  0
   26.3737  -20.9806  -12.1983 C   0  0  0  0  0  0  0  0  0  0  0  0
   25.4422  -21.7691  -12.5061 O   0  0  0  0  0  0  0  0  0  0  0  0
   26.6837  -20.8173  -10.8260 N   0  0  0  0  0  0  0  0  0  0  0  0
   25.9466  -21.4489   -9.7355 C   0  0  1  0  0  0  0  0  0  0  0  0
   26.8960  -21.5669   -8.5816 C   0  0  0  0  0  0  0  0  0  0  0  0
   27.1191  -20.3733   -7.7775 C   0  0  0  0  0  0  0  0  0  0  0  0
   26.6476  -19.0796   -8.0154 C   0  0  0  0  0  0  0  0  0  0  0  0
   27.1249  -18.3115   -7.0438 N   0  0  0  0  0  0  0  0  0  0  0  0
   27.8721  -19.0029   -6.1877 C   0  0  0  0  0  0  0  0  0  0  0  0
   28.5527  -18.6195   -5.0263 C   0  0  0  0  0  0  0  0  0  0  0  0
   29.2404  -19.5919   -4.3292 C   0  0  0  0  0  0  0  0  0  0  0  0
   29.2625  -20.9083   -4.7566 C   0  0  0  0  0  0  0  0  0  0  0  0
   28.5912  -21.2749   -5.8989 C   0  0  0  0  0  0  0  0  0  0  0  0
   27.8880  -20.3067   -6.6226 C   0  0  0  0  0  0  0  0  0  0  0  0
   24.6800  -20.7726   -9.4675 C   0  0  0  0  0  0  0  0  0  0  0  0
   24.3601  -19.6684   -9.9662 O   0  0  0  0  0  0  0  0  0  0  0  0
   23.7430  -21.3497   -8.6156 O   0  0  0  0  0  0  0  0  0  0  0  0
  2  3  1  0
  2  1  1  0
  3  4  1  6
  5  6  2  0
  5  3  1  0
  8  7  1  6
  8  9  1  0
  8 10  1  0
 10 11  1  6
 11  5  1  0
 12 13  2  0
 12 10  1  0
 14 12  1  0
 15 16  1  1
 15 14  1  0
 17 25  1  0
 17 16  1  0
 18 17  2  0
 19 18  1  0
 19 20  1  0
 20 21  1  0
 20 25  2  0
 21 22  2  0
 22 23  1  0
 24 23  2  0
 25 24  1  0
 26 15  1  0
 27 26  2  0
 28 26  1  0
M  END
$$$$
