STW.pdb
     RDKit          3D

 28 29  0  0  1  0  0  0  0  0999 V2000
   19.6552  -18.5627  -12.3910 O   0  0  0  0  0  0  0  0  0  0  0  0
   20.8404  -19.1638  -11.9925 C   0  0  0  0  0  0  0  0  0  0  0  0
   21.1539  -20.2606  -12.9909 C   0  0  2  0  0  0  0  0  0  0  0  0
   19.9947  -21.0839  -13.2627 N   0  0  0  0  0  0  0  0  0  0  0  0
   22.2503  -21.0990  -12.4205 C   0  0  0  0  0  0  0  0  0  0  0  0
   21.9289  -22.0891  -11.7064 O   0  0  0  0  0  0  0  0  0  0  0  0
   24.6765  -23.0131  -13.9454 C   0  0  0  0  0  0  0  0  0  0  0  0
   25.5727  -22.1283  -13.0883 C   0  0  1  0  0  0  0  0  0  0  0  0
   26.0633  -21.0861  -13.8650 O   0  0  0  0  0  0  0  0  0  0  0  0
   24.6710  -21.5509  -12.0030 C   0  0  2  0  0  0  0  0  0  0  0  0
   23.6140  -20.8310  -12.6468 N   0  0  0  0  0  0  0  0  0  0  0  0
   25.4407  -20.7083  -11.0571 C   0  0  0  0  0  0  0  0  0  0  0  0
   25.1818  -19.4833  -10.9288 O   0  0  0  0  0  0  0  0  0  0  0  0
   26.4865  -21.2550  -10.2740 N   0  0  0  0  0  0  0  0  0  0  0  0
   27.3672  -20.4695   -9.4143 C   0  0  1  0  0  0  0  0  0  0  0  0
   26.6501  -20.2863   -8.1108 C   0  0  0  0  0  0  0  0  0  0  0  0
   27.3110  -19.4794   -7.0944 C   0  0  0  0  0  0  0  0  0  0  0  0
   27.3489  -18.0859   -6.9978 C   0  0  0  0  0  0  0  0  0  0  0  0
   28.0907  -17.7939   -5.9366 N   0  0  0  0  0  0  0  0  0  0  0  0
   28.5408  -18.8891   -5.3305 C   0  0  0  0  0  0  0  0  0  0  0  0
   29.3316  -19.0623   -4.1886 C   0  0  0  0  0  0  0  0  0  0  0  0
   29.6201  -20.3522   -3.7918 C   0  0  0  0  0  0  0  0  0  0  0  0
   29.1469  -21.4472   -4.4938 C   0  0  0  0  0  0  0  0  0  0  0  0
   28.3712  -21.2667   -5.6144 C   0  0  0  0  0  0  0  0  0  0  0  0
   28.0663  -19.9688   -6.0364 C   0  0  0  0  0  0  0  0  0  0  0  0
   28.7106  -21.0382   -9.3419 C   0  0  0  0  0  0  0  0  0  0  0  0
   28.9761  -22.2349   -9.6023 O   0  0  0  0  0  0  0  0  0  0  0  0
   29.7896  -20.2434   -8.9668 O   0  0  0  0  0  0  0  0  0  0  0  0
  2  3  1  0
  2  1  1  0
  3  4  1  1
  5  6  2  0
  5  3  1  0
  8  7  1  6
  8  9  1  0
  8 10  1  0
 10 11  1  6
 11  5  1  0
 12 13  2  0
 12 10  1  0
 14 12  1  0
 15 16  1  1
 15 14  1  0
 17 25  1  0
 17 16  1  0
 18 17  2  0
 19 18  1  0
 19 20  1  0
 20 21  1  0
 20 25  2  0
 21 22  2  0
 22 23  1  0
 24 23  2  0
 25 24  1  0
 26 15  1  0
 27 26  2  0
 28 26  1  0
M  END
$$$$
