STW.pdb
     RDKit          3D

 28 29  0  0  1  0  0  0  0  0999 V2000
   30.5846  -20.6474  -17.5025 O   0  0  0  0  0  0  0  0  0  0  0  0
   29.3747  -20.1944  -18.0080 C   0  0  0  0  0  0  0  0  0  0  0  0
   29.2608  -18.7215  -17.6678 C   0  0  2  0  0  0  0  0  0  0  0  0
   30.5359  -18.1647  -17.2682 N   0  0  0  0  0  0  0  0  0  0  0  0
   28.2747  -18.5837  -16.5548 C   0  0  0  0  0  0  0  0  0  0  0  0
   28.5658  -17.8149  -15.5969 O   0  0  0  0  0  0  0  0  0  0  0  0
   23.7555  -18.4459  -15.0656 C   0  0  0  0  0  0  0  0  0  0  0  0
   24.7547  -18.6790  -16.1916 C   0  0  1  0  0  0  0  0  0  0  0  0
   24.9541  -17.4884  -16.8793 O   0  0  0  0  0  0  0  0  0  0  0  0
   26.0596  -19.0796  -15.5127 C   0  0  2  0  0  0  0  0  0  0  0  0
   27.0455  -19.2703  -16.5333 N   0  0  0  0  0  0  0  0  0  0  0  0
   25.8772  -20.2818  -14.6650 C   0  0  0  0  0  0  0  0  0  0  0  0
   26.5819  -21.3092  -14.8444 O   0  0  0  0  0  0  0  0  0  0  0  0
   24.9076  -20.3096  -13.6330 N   0  0  0  0  0  0  0  0  0  0  0  0
   24.8227  -21.3497  -12.6120 C   0  0  1  0  0  0  0  0  0  0  0  0
   26.1767  -21.4441  -11.9757 C   0  0  0  0  0  0  0  0  0  0  0  0
   26.3156  -20.9206  -10.6238 C   0  0  0  0  0  0  0  0  0  0  0  0
   25.3298  -20.3315   -9.8277 C   0  0  0  0  0  0  0  0  0  0  0  0
   25.9151  -19.9761   -8.6907 N   0  0  0  0  0  0  0  0  0  0  0  0
   27.2081  -20.2879   -8.6808 C   0  0  0  0  0  0  0  0  0  0  0  0
   28.1987  -20.1189   -7.7063 C   0  0  0  0  0  0  0  0  0  0  0  0
   29.4705  -20.5719   -7.9921 C   0  0  0  0  0  0  0  0  0  0  0  0
   29.7678  -21.1761   -9.2014 C   0  0  0  0  0  0  0  0  0  0  0  0
   28.7881  -21.3371  -10.1523 C   0  0  0  0  0  0  0  0  0  0  0  0
   27.4918  -20.8852   -9.8858 C   0  0  0  0  0  0  0  0  0  0  0  0
   23.6943  -21.1390  -11.7088 C   0  0  0  0  0  0  0  0  0  0  0  0
   23.1899  -22.0417  -11.0009 O   0  0  0  0  0  0  0  0  0  0  0  0
   23.1128  -19.8799  -11.5945 O   0  0  0  0  0  0  0  0  0  0  0  0
  2  3  1  0
  2  1  1  0
  3  4  1  1
  5  6  2  0
  5  3  1  0
  8  7  1  1
  8  9  1  0
  8 10  1  0
 10 11  1  6
 11  5  1  0
 12 13  2  0
 12 10  1  0
 14 12  1  0
 15 16  1  1
 15 14  1  0
 17 25  1  0
 17 16  1  0
 18 17  2  0
 19 18  1  0
 19 20  1  0
 20 21  1  0
 20 25  2  0
 21 22  2  0
 22 23  1  0
 24 23  2  0
 25 24  1  0
 26 15  1  0
 27 26  2  0
 28 26  1  0
M  END
$$$$
