STW.pdb
     RDKit          3D

 28 29  0  0  1  0  0  0  0  0999 V2000
   20.8082  -18.3887  -12.1666 O   0  0  0  0  0  0  0  0  0  0  0  0
   21.3413  -18.5051  -13.4421 C   0  0  0  0  0  0  0  0  0  0  0  0
   21.3429  -19.9773  -13.8034 C   0  0  2  0  0  0  0  0  0  0  0  0
   20.0032  -20.5252  -13.8218 N   0  0  0  0  0  0  0  0  0  0  0  0
   22.1722  -20.6963  -12.7905 C   0  0  0  0  0  0  0  0  0  0  0  0
   21.5754  -21.2945  -11.8528 O   0  0  0  0  0  0  0  0  0  0  0  0
   24.3191  -23.3299  -13.4492 C   0  0  0  0  0  0  0  0  0  0  0  0
   25.2673  -22.4175  -12.6817 C   0  0  1  0  0  0  0  0  0  0  0  0
   26.0299  -21.6875  -13.5849 O   0  0  0  0  0  0  0  0  0  0  0  0
   24.3780  -21.4574  -11.8997 C   0  0  2  0  0  0  0  0  0  0  0  0
   23.5789  -20.7328  -12.8412 N   0  0  0  0  0  0  0  0  0  0  0  0
   25.1831  -20.5664  -11.0308 C   0  0  0  0  0  0  0  0  0  0  0  0
   24.7719  -19.4147  -10.7323 O   0  0  0  0  0  0  0  0  0  0  0  0
   26.4341  -20.9830  -10.5138 N   0  0  0  0  0  0  0  0  0  0  0  0
   27.2631  -20.1801   -9.6196 C   0  0  1  0  0  0  0  0  0  0  0  0
   26.4656  -19.9608   -8.3694 C   0  0  0  0  0  0  0  0  0  0  0  0
   27.1242  -19.2654   -7.2723 C   0  0  0  0  0  0  0  0  0  0  0  0
   27.4823  -17.9164   -7.2050 C   0  0  0  0  0  0  0  0  0  0  0  0
   28.0859  -17.7364   -6.0368 N   0  0  0  0  0  0  0  0  0  0  0  0
   28.1500  -18.8637   -5.3336 C   0  0  0  0  0  0  0  0  0  0  0  0
   28.6742  -19.1410   -4.0657 C   0  0  0  0  0  0  0  0  0  0  0  0
   28.5713  -20.4332   -3.5921 C   0  0  0  0  0  0  0  0  0  0  0  0
   27.9699  -21.4310   -4.3395 C   0  0  0  0  0  0  0  0  0  0  0  0
   27.4584  -21.1487   -5.5840 C   0  0  0  0  0  0  0  0  0  0  0  0
   27.5518  -19.8466   -6.0854 C   0  0  0  0  0  0  0  0  0  0  0  0
   28.5957  -20.7530   -9.4474 C   0  0  0  0  0  0  0  0  0  0  0  0
   29.5658  -20.1274   -8.9598 O   0  0  0  0  0  0  0  0  0  0  0  0
   28.8501  -22.0658   -9.8326 O   0  0  0  0  0  0  0  0  0  0  0  0
  2  3  1  0
  2  1  1  0
  3  4  1  1
  5  6  2  0
  5  3  1  0
  8  7  1  6
  8  9  1  0
  8 10  1  0
 10 11  1  6
 11  5  1  0
 12 13  2  0
 12 10  1  0
 14 12  1  0
 15 16  1  1
 15 14  1  0
 17 25  1  0
 17 16  1  0
 18 17  2  0
 19 18  1  0
 19 20  1  0
 20 21  1  0
 20 25  2  0
 21 22  2  0
 22 23  1  0
 24 23  2  0
 25 24  1  0
 26 15  1  0
 27 26  2  0
 28 26  1  0
M  END
$$$$
