STW.pdb
     RDKit          3D

 28 29  0  0  1  0  0  0  0  0999 V2000
-5026897.50004050156.00001216503.6250 O   0  0  0  0  0  0  0  0  0  0  0  0
-5026894.00004050157.25001216502.7500 C   0  0  0  0  0  0  0  0  0  0  0  0
-5026895.50004050155.50001216502.6250 C   0  0  2  0  0  0  0  0  0  0  0  0
-5026895.00004050157.75001216501.0000 N   0  0  0  0  0  0  0  0  0  0  0  0
-5026897.50004050160.25001216503.3750 C   0  0  0  0  0  0  0  0  0  0  0  0
-5026897.50004050160.25001216500.0000 O   0  0  0  0  0  0  0  0  0  0  0  0
-5026894.00004050158.25001216504.8750 C   0  0  0  0  0  0  0  0  0  0  0  0
-5026896.00004050158.50001216504.2500 C   0  0  1  0  0  0  0  0  0  0  0  0
-5026897.50004050159.75001216506.3750 O   0  0  0  0  0  0  0  0  0  0  0  0
-5026896.50004050160.00001216503.5000 C   0  0  2  0  0  0  0  0  0  0  0  0
-5026898.00004050159.00001216503.8750 N   0  0  0  0  0  0  0  0  0  0  0  0
-5026895.50004050159.25001216502.2500 C   0  0  0  0  0  0  0  0  0  0  0  0
-5026896.00004050159.25001216500.5000 O   0  0  0  0  0  0  0  0  0  0  0  0
-5026895.50004050161.00001216502.0000 N   0  0  0  0  0  0  0  0  0  0  0  0
-5026895.00004050159.50001216501.8750 C   0  0  2  0  0  0  0  0  0  0  0  0
-5026893.50004050159.00001216502.5000 C   0  0  0  0  0  0  0  0  0  0  0  0
-5026892.50004050161.00001216503.6250 C   0  0  0  0  0  0  0  0  0  0  0  0
-5026893.00004050159.50001216504.8750 C   0  0  0  0  0  0  0  0  0  0  0  0
-5026891.00004050161.25001216505.1250 N   0  0  0  0  0  0  0  0  0  0  0  0
-5026892.50004050163.25001216503.8750 C   0  0  0  0  0  0  0  0  0  0  0  0
-5026890.50004050163.50001216505.7500 C   0  0  0  0  0  0  0  0  0  0  0  0
-5026889.50004050164.00001216503.8750 C   0  0  0  0  0  0  0  0  0  0  0  0
-5026890.50004050163.00001216503.6250 C   0  0  0  0  0  0  0  0  0  0  0  0
-5026892.00004050163.00001216502.2500 C   0  0  0  0  0  0  0  0  0  0  0  0
-5026891.00004050161.50001216504.2500 C   0  0  0  0  0  0  0  0  0  0  0  0
-5026894.50004050158.75001216501.1250 C   0  0  0  0  0  0  0  0  0  0  0  0
-5026894.00004050157.25001216500.8750 O   0  0  0  0  0  0  0  0  0  0  0  0
-5026895.00004050158.00001216501.1250 O   0  0  0  0  0  0  0  0  0  0  0  0
  2  3  1  0
  2  1  1  0
  3  4  1  6
  5  6  2  0
  5  3  1  0
  8  7  1  1
  8  9  1  0
  8 10  1  0
 10 11  1  6
 11  5  1  0
 12 13  2  0
 12 10  1  0
 14 12  1  0
 15 16  1  6
 15 14  1  0
 17 25  1  0
 17 16  1  0
 18 17  2  0
 19 18  1  0
 19 20  1  0
 20 21  1  0
 20 25  2  0
 21 22  2  0
 22 23  1  0
 24 23  2  0
 25 24  1  0
 26 15  1  0
 27 26  2  0
 28 26  1  0
M  END
$$$$
