STW.pdb
     RDKit          3D

 28 29  0  0  1  0  0  0  0  0999 V2000
   27.4900  -23.2618  -19.6921 O   0  0  0  0  0  0  0  0  0  0  0  0
   28.0139  -23.2243  -18.4081 C   0  0  0  0  0  0  0  0  0  0  0  0
   28.8071  -21.9393  -18.2762 C   0  0  2  0  0  0  0  0  0  0  0  0
   30.1934  -22.1256  -18.6488 N   0  0  0  0  0  0  0  0  0  0  0  0
   28.7188  -21.4907  -16.8544 C   0  0  0  0  0  0  0  0  0  0  0  0
   29.6587  -21.8076  -16.0737 O   0  0  0  0  0  0  0  0  0  0  0  0
   28.6430  -18.2105  -15.6972 C   0  0  0  0  0  0  0  0  0  0  0  0
   27.3880  -18.7614  -15.0324 C   0  0  1  0  0  0  0  0  0  0  0  0
   26.2830  -18.4533  -15.8161 O   0  0  0  0  0  0  0  0  0  0  0  0
   27.5637  -20.2755  -15.0031 C   0  0  2  0  0  0  0  0  0  0  0  0
   27.6396  -20.7354  -16.3569 N   0  0  0  0  0  0  0  0  0  0  0  0
   26.4736  -20.9282  -14.2398 C   0  0  0  0  0  0  0  0  0  0  0  0
   25.5172  -21.4896  -14.8353 O   0  0  0  0  0  0  0  0  0  0  0  0
   26.4759  -20.9383  -12.8236 N   0  0  0  0  0  0  0  0  0  0  0  0
   25.4535  -21.5821  -12.0040 C   0  0  1  0  0  0  0  0  0  0  0  0
   26.1342  -22.0575  -10.7559 C   0  0  0  0  0  0  0  0  0  0  0  0
   26.3391  -21.0807   -9.6953 C   0  0  0  0  0  0  0  0  0  0  0  0
   25.4094  -20.1802   -9.1687 C   0  0  0  0  0  0  0  0  0  0  0  0
   26.0446  -19.4659   -8.2479 N   0  0  0  0  0  0  0  0  0  0  0  0
   27.3186  -19.8299   -8.1306 C   0  0  0  0  0  0  0  0  0  0  0  0
   28.3437  -19.3732   -7.2940 C   0  0  0  0  0  0  0  0  0  0  0  0
   29.5806  -19.9762   -7.3988 C   0  0  0  0  0  0  0  0  0  0  0  0
   29.8106  -21.0016   -8.2996 C   0  0  0  0  0  0  0  0  0  0  0  0
   28.7975  -21.4429   -9.1174 C   0  0  0  0  0  0  0  0  0  0  0  0
   27.5356  -20.8465   -9.0299 C   0  0  0  0  0  0  0  0  0  0  0  0
   24.2824  -20.7288  -11.8200 C   0  0  0  0  0  0  0  0  0  0  0  0
   24.2932  -19.4861  -11.9801 O   0  0  0  0  0  0  0  0  0  0  0  0
   23.0622  -21.2834  -11.4455 O   0  0  0  0  0  0  0  0  0  0  0  0
  2  3  1  0
  2  1  1  0
  3  4  1  1
  5  6  2  0
  5  3  1  0
  8  7  1  6
  8  9  1  0
  8 10  1  0
 10 11  1  6
 11  5  1  0
 12 13  2  0
 12 10  1  0
 14 12  1  0
 15 16  1  1
 15 14  1  0
 17 25  1  0
 17 16  1  0
 18 17  2  0
 19 18  1  0
 19 20  1  0
 20 21  1  0
 20 25  2  0
 21 22  2  0
 22 23  1  0
 24 23  2  0
 25 24  1  0
 26 15  1  0
 27 26  2  0
 28 26  1  0
M  END
$$$$
