STW.pdb
     RDKit          3D

 28 29  0  0  1  0  0  0  0  0999 V2000
   20.2696   -7.5738  -21.7143 O   0  0  0  0  0  0  0  0  0  0  0  0
   20.2384   -6.3073  -22.2796 C   0  0  0  0  0  0  0  0  0  0  0  0
   21.6734   -5.8607  -22.4779 C   0  0  2  0  0  0  0  0  0  0  0  0
   22.4366   -6.8320  -23.2326 N   0  0  0  0  0  0  0  0  0  0  0  0
   22.2845   -5.6715  -21.1284 C   0  0  0  0  0  0  0  0  0  0  0  0
   23.1079   -6.5386  -20.7240 O   0  0  0  0  0  0  0  0  0  0  0  0
   23.7179   -2.4971  -20.0439 C   0  0  0  0  0  0  0  0  0  0  0  0
   22.8593   -2.8896  -18.8484 C   0  0  1  0  0  0  0  0  0  0  0  0
   21.6569   -2.1957  -18.9019 O   0  0  0  0  0  0  0  0  0  0  0  0
   22.5758   -4.3786  -19.0114 C   0  0  2  0  0  0  0  0  0  0  0  0
   21.9816   -4.5745  -20.2992 N   0  0  0  0  0  0  0  0  0  0  0  0
   21.7263   -4.8876  -17.9085 C   0  0  0  0  0  0  0  0  0  0  0  0
   20.6434   -5.4814  -18.1513 O   0  0  0  0  0  0  0  0  0  0  0  0
   22.1066   -4.7203  -16.5545 N   0  0  0  0  0  0  0  0  0  0  0  0
   21.3745   -5.2757  -15.4199 C   0  0  1  0  0  0  0  0  0  0  0  0
   21.2888   -6.7557  -15.6417 C   0  0  0  0  0  0  0  0  0  0  0  0
   20.6244   -7.5460  -14.6147 C   0  0  0  0  0  0  0  0  0  0  0  0
   20.5425   -7.2771  -13.2459 C   0  0  0  0  0  0  0  0  0  0  0  0
   19.8735   -8.2827  -12.6957 N   0  0  0  0  0  0  0  0  0  0  0  0
   19.5104   -9.1890  -13.5989 C   0  0  0  0  0  0  0  0  0  0  0  0
   18.7907  -10.3838  -13.4812 C   0  0  0  0  0  0  0  0  0  0  0  0
   18.5542  -11.1118  -14.6294 C   0  0  0  0  0  0  0  0  0  0  0  0
   19.0097  -10.6826  -15.8640 C   0  0  0  0  0  0  0  0  0  0  0  0
   19.7161   -9.5079  -15.9693 C   0  0  0  0  0  0  0  0  0  0  0  0
   19.9690   -8.7534  -14.8193 C   0  0  0  0  0  0  0  0  0  0  0  0
   21.9343   -4.8420  -14.1424 C   0  0  0  0  0  0  0  0  0  0  0  0
   23.1558   -4.6398  -13.9492 O   0  0  0  0  0  0  0  0  0  0  0  0
   21.1016   -4.6279  -13.0481 O   0  0  0  0  0  0  0  0  0  0  0  0
  2  3  1  0
  2  1  1  0
  3  4  1  6
  5  6  2  0
  5  3  1  0
  8  7  1  6
  8  9  1  0
  8 10  1  0
 10 11  1  6
 11  5  1  0
 12 13  2  0
 12 10  1  0
 14 12  1  0
 15 16  1  1
 15 14  1  0
 17 25  1  0
 17 16  1  0
 18 17  2  0
 19 18  1  0
 19 20  1  0
 20 21  1  0
 20 25  2  0
 21 22  2  0
 22 23  1  0
 24 23  2  0
 25 24  1  0
 26 15  1  0
 27 26  2  0
 28 26  1  0
M  END
$$$$
