STW.pdb
     RDKit          3D

 28 29  0  0  1  0  0  0  0  0999 V2000
   23.5746  -19.9572  -18.4194 O   0  0  0  0  0  0  0  0  0  0  0  0
   24.7068  -19.1604  -18.5076 C   0  0  0  0  0  0  0  0  0  0  0  0
   25.8929  -20.0766  -18.7351 C   0  0  2  0  0  0  0  0  0  0  0  0
   25.7390  -20.8615  -19.9416 N   0  0  0  0  0  0  0  0  0  0  0  0
   26.0066  -20.9806  -17.5517 C   0  0  0  0  0  0  0  0  0  0  0  0
   25.9341  -22.2254  -17.7479 O   0  0  0  0  0  0  0  0  0  0  0  0
   27.8339  -22.3741  -17.0042 C   0  0  0  0  0  0  0  0  0  0  0  0
   27.9881  -21.9231  -15.5574 C   0  0  1  0  0  0  0  0  0  0  0  0
   28.9541  -20.9269  -15.4897 O   0  0  0  0  0  0  0  0  0  0  0  0
   26.6407  -21.3298  -15.1613 C   0  0  2  0  0  0  0  0  0  0  0  0
   26.1905  -20.5029  -16.2399 N   0  0  0  0  0  0  0  0  0  0  0  0
   26.7345  -20.5924  -13.8788 C   0  0  0  0  0  0  0  0  0  0  0  0
   26.8929  -19.3438  -13.8641 O   0  0  0  0  0  0  0  0  0  0  0  0
   26.6501  -21.2690  -12.6375 N   0  0  0  0  0  0  0  0  0  0  0  0
   26.6237  -20.6036  -11.3382 C   0  0  1  0  0  0  0  0  0  0  0  0
   25.5410  -19.5689  -11.4029 C   0  0  0  0  0  0  0  0  0  0  0  0
   24.1646  -20.0446  -11.4156 C   0  0  0  0  0  0  0  0  0  0  0  0
   23.3695  -20.3958  -10.3215 C   0  0  0  0  0  0  0  0  0  0  0  0
   22.2034  -20.8022  -10.8081 N   0  0  0  0  0  0  0  0  0  0  0  0
   22.1736  -20.7434  -12.1366 C   0  0  0  0  0  0  0  0  0  0  0  0
   21.1675  -21.0523  -13.0594 C   0  0  0  0  0  0  0  0  0  0  0  0
   21.4397  -20.8652  -14.3993 C   0  0  0  0  0  0  0  0  0  0  0  0
   22.6660  -20.3871  -14.8277 C   0  0  0  0  0  0  0  0  0  0  0  0
   23.6479  -20.0869  -13.9136 C   0  0  0  0  0  0  0  0  0  0  0  0
   23.3957  -20.2693  -12.5503 C   0  0  0  0  0  0  0  0  0  0  0  0
   26.5439  -21.5587  -10.2359 C   0  0  0  0  0  0  0  0  0  0  0  0
   26.4671  -22.7995  -10.3928 O   0  0  0  0  0  0  0  0  0  0  0  0
   26.5504  -21.1113   -8.9182 O   0  0  0  0  0  0  0  0  0  0  0  0
  2  3  1  0
  2  1  1  0
  3  4  1  6
  5  6  2  0
  5  3  1  0
  8  7  1  6
  8  9  1  0
  8 10  1  0
 10 11  1  6
 11  5  1  0
 12 13  2  0
 12 10  1  0
 14 12  1  0
 15 16  1  6
 15 14  1  0
 17 25  1  0
 17 16  1  0
 18 17  2  0
 19 18  1  0
 19 20  1  0
 20 21  1  0
 20 25  2  0
 21 22  2  0
 22 23  1  0
 24 23  2  0
 25 24  1  0
 26 15  1  0
 27 26  2  0
 28 26  1  0
M  END
$$$$
