STW.pdb
     RDKit          3D

 28 29  0  0  1  0  0  0  0  0999 V2000
   24.6002  -16.6236  -16.6301 O   0  0  0  0  0  0  0  0  0  0  0  0
   24.7550  -17.7900  -15.8952 C   0  0  0  0  0  0  0  0  0  0  0  0
   25.9986  -18.4899  -16.4066 C   0  0  2  0  0  0  0  0  0  0  0  0
   25.8767  -18.8433  -17.8051 N   0  0  0  0  0  0  0  0  0  0  0  0
   26.2005  -19.7217  -15.5868 C   0  0  0  0  0  0  0  0  0  0  0  0
   26.3377  -20.8207  -16.1925 O   0  0  0  0  0  0  0  0  0  0  0  0
   28.0702  -21.0864  -15.3929 C   0  0  0  0  0  0  0  0  0  0  0  0
   28.1160  -21.1591  -13.8720 C   0  0  1  0  0  0  0  0  0  0  0  0
   29.0020  -20.2011  -13.3952 O   0  0  0  0  0  0  0  0  0  0  0  0
   26.7103  -20.8092  -13.3968 C   0  0  2  0  0  0  0  0  0  0  0  0
   26.2441  -19.7046  -14.1795 N   0  0  0  0  0  0  0  0  0  0  0  0
   26.6900  -20.5256  -11.9421 C   0  0  0  0  0  0  0  0  0  0  0  0
   26.8147  -19.3486  -11.5137 O   0  0  0  0  0  0  0  0  0  0  0  0
   26.5314  -21.5669  -10.9954 N   0  0  0  0  0  0  0  0  0  0  0  0
   26.3175  -21.3543   -9.5669 C   0  0  1  0  0  0  0  0  0  0  0  0
   27.5120  -20.6066   -9.0561 C   0  0  0  0  0  0  0  0  0  0  0  0
   27.4358  -20.0729   -7.7033 C   0  0  0  0  0  0  0  0  0  0  0  0
   26.3576  -19.4208   -7.0991 C   0  0  0  0  0  0  0  0  0  0  0  0
   26.7489  -19.0818   -5.8770 N   0  0  0  0  0  0  0  0  0  0  0  0
   28.0001  -19.4624   -5.6342 C   0  0  0  0  0  0  0  0  0  0  0  0
   28.8083  -19.3334   -4.4986 C   0  0  0  0  0  0  0  0  0  0  0  0
   30.0837  -19.8579   -4.5500 C   0  0  0  0  0  0  0  0  0  0  0  0
   30.5585  -20.4937   -5.6841 C   0  0  0  0  0  0  0  0  0  0  0  0
   29.7573  -20.6149   -6.7946 C   0  0  0  0  0  0  0  0  0  0  0  0
   28.4612  -20.0905   -6.7666 C   0  0  0  0  0  0  0  0  0  0  0  0
   25.0124  -20.7586   -9.2918 C   0  0  0  0  0  0  0  0  0  0  0  0
   24.8097  -19.5238   -9.2257 O   0  0  0  0  0  0  0  0  0  0  0  0
   23.9007  -21.5697   -9.0847 O   0  0  0  0  0  0  0  0  0  0  0  0
  2  3  1  0
  2  1  1  0
  3  4  1  6
  5  6  2  0
  5  3  1  0
  8  7  1  6
  8  9  1  0
  8 10  1  0
 10 11  1  6
 11  5  1  0
 12 13  2  0
 12 10  1  0
 14 12  1  0
 15 16  1  6
 15 14  1  0
 17 25  1  0
 17 16  1  0
 18 17  2  0
 19 18  1  0
 19 20  1  0
 20 21  1  0
 20 25  2  0
 21 22  2  0
 22 23  1  0
 24 23  2  0
 25 24  1  0
 26 15  1  0
 27 26  2  0
 28 26  1  0
M  END
$$$$
