STW.pdb
     RDKit          3D

 28 29  0  0  1  0  0  0  0  0999 V2000
   28.2443  -16.5549  -18.4907 O   0  0  0  0  0  0  0  0  0  0  0  0
   29.2346  -17.4591  -18.8459 C   0  0  0  0  0  0  0  0  0  0  0  0
   28.5578  -18.6343  -19.5233 C   0  0  2  0  0  0  0  0  0  0  0  0
   28.0949  -18.2922  -20.8515 N   0  0  0  0  0  0  0  0  0  0  0  0
   27.4020  -19.0491  -18.6733 C   0  0  0  0  0  0  0  0  0  0  0  0
   26.2388  -18.8941  -19.1383 O   0  0  0  0  0  0  0  0  0  0  0  0
   25.8287  -20.9598  -18.8987 C   0  0  0  0  0  0  0  0  0  0  0  0
   26.0555  -21.4582  -17.4772 C   0  0  1  0  0  0  0  0  0  0  0  0
   27.0878  -22.3880  -17.4783 O   0  0  0  0  0  0  0  0  0  0  0  0
   26.4928  -20.2384  -16.6740 C   0  0  2  0  0  0  0  0  0  0  0  0
   27.5582  -19.6013  -17.3874 N   0  0  0  0  0  0  0  0  0  0  0  0
   26.8769  -20.6143  -15.2926 C   0  0  0  0  0  0  0  0  0  0  0  0
   27.9904  -20.2696  -14.8175 O   0  0  0  0  0  0  0  0  0  0  0  0
   26.0059  -21.3703  -14.4706 N   0  0  0  0  0  0  0  0  0  0  0  0
   26.2330  -21.6303  -13.0520 C   0  0  1  0  0  0  0  0  0  0  0  0
   26.2670  -20.2975  -12.3669 C   0  0  0  0  0  0  0  0  0  0  0  0
   26.2137  -20.2948  -10.9116 C   0  0  0  0  0  0  0  0  0  0  0  0
   25.0795  -20.2648  -10.0959 C   0  0  0  0  0  0  0  0  0  0  0  0
   25.5092  -20.2403   -8.8404 N   0  0  0  0  0  0  0  0  0  0  0  0
   26.8374  -20.2526   -8.7712 C   0  0  0  0  0  0  0  0  0  0  0  0
   27.7124  -20.2508   -7.6786 C   0  0  0  0  0  0  0  0  0  0  0  0
   29.0678  -20.2859   -7.9358 C   0  0  0  0  0  0  0  0  0  0  0  0
   29.5571  -20.3222   -9.2301 C   0  0  0  0  0  0  0  0  0  0  0  0
   28.6896  -20.3232  -10.2966 C   0  0  0  0  0  0  0  0  0  0  0  0
   27.3117  -20.2871  -10.0608 C   0  0  0  0  0  0  0  0  0  0  0  0
   25.2913  -22.6109  -12.5180 C   0  0  0  0  0  0  0  0  0  0  0  0
   24.0683  -22.6235  -12.7907 O   0  0  0  0  0  0  0  0  0  0  0  0
   25.7319  -23.6078  -11.6526 O   0  0  0  0  0  0  0  0  0  0  0  0
  2  3  1  0
  2  1  1  0
  3  4  1  6
  5  6  2  0
  5  3  1  0
  8  7  1  6
  8  9  1  0
  8 10  1  0
 10 11  1  6
 11  5  1  0
 12 13  2  0
 12 10  1  0
 14 12  1  0
 15 16  1  1
 15 14  1  0
 17 25  1  0
 17 16  1  0
 18 17  2  0
 19 18  1  0
 19 20  1  0
 20 21  1  0
 20 25  2  0
 21 22  2  0
 22 23  1  0
 24 23  2  0
 25 24  1  0
 26 15  1  0
 27 26  2  0
 28 26  1  0
M  END
$$$$
