STW.pdb
     RDKit          3D

 28 29  0  0  1  0  0  0  0  0999 V2000
   29.3879  -17.4319  -15.6443 O   0  0  0  0  0  0  0  0  0  0  0  0
   29.5611  -18.8063  -15.5700 C   0  0  0  0  0  0  0  0  0  0  0  0
   28.2461  -19.4535  -15.9570 C   0  0  2  0  0  0  0  0  0  0  0  0
   27.7823  -18.9919  -17.2483 N   0  0  0  0  0  0  0  0  0  0  0  0
   27.2418  -19.1142  -14.9051 C   0  0  0  0  0  0  0  0  0  0  0  0
   26.3823  -18.2285  -15.1701 O   0  0  0  0  0  0  0  0  0  0  0  0
   24.8436  -19.4399  -14.7790 C   0  0  0  0  0  0  0  0  0  0  0  0
   24.8660  -20.1042  -13.4083 C   0  0  1  0  0  0  0  0  0  0  0  0
   24.9641  -21.4807  -13.5692 O   0  0  0  0  0  0  0  0  0  0  0  0
   26.1295  -19.5978  -12.7217 C   0  0  2  0  0  0  0  0  0  0  0  0
   27.2166  -19.7379  -13.6429 N   0  0  0  0  0  0  0  0  0  0  0  0
   26.3694  -20.3108  -11.4445 C   0  0  0  0  0  0  0  0  0  0  0  0
   27.5098  -20.7639  -11.1644 O   0  0  0  0  0  0  0  0  0  0  0  0
   25.3261  -20.5030  -10.5062 N   0  0  0  0  0  0  0  0  0  0  0  0
   25.5062  -21.1025   -9.1872 C   0  0  1  0  0  0  0  0  0  0  0  0
   26.6220  -20.3559   -8.5204 C   0  0  0  0  0  0  0  0  0  0  0  0
   26.7804  -20.5375   -7.0842 C   0  0  0  0  0  0  0  0  0  0  0  0
   25.9831  -21.2966   -6.2235 C   0  0  0  0  0  0  0  0  0  0  0  0
   26.4808  -21.1432   -5.0027 N   0  0  0  0  0  0  0  0  0  0  0  0
   27.5430  -20.3427   -4.9978 C   0  0  0  0  0  0  0  0  0  0  0  0
   28.3822  -19.9162   -3.9619 C   0  0  0  0  0  0  0  0  0  0  0  0
   29.4341  -19.0830   -4.2836 C   0  0  0  0  0  0  0  0  0  0  0  0
   29.6613  -18.6761   -5.5869 C   0  0  0  0  0  0  0  0  0  0  0  0
   28.8312  -19.1000   -6.5975 C   0  0  0  0  0  0  0  0  0  0  0  0
   27.7579  -19.9441   -6.2957 C   0  0  0  0  0  0  0  0  0  0  0  0
   24.2491  -21.1870   -8.4484 C   0  0  0  0  0  0  0  0  0  0  0  0
   23.3135  -20.3621   -8.5677 O   0  0  0  0  0  0  0  0  0  0  0  0
   24.0326  -22.2265   -7.5488 O   0  0  0  0  0  0  0  0  0  0  0  0
  2  3  1  0
  2  1  1  0
  3  4  1  6
  5  6  2  0
  5  3  1  0
  8  7  1  6
  8  9  1  0
  8 10  1  0
 10 11  1  6
 11  5  1  0
 12 13  2  0
 12 10  1  0
 14 12  1  0
 15 16  1  1
 15 14  1  0
 17 25  1  0
 17 16  1  0
 18 17  2  0
 19 18  1  0
 19 20  1  0
 20 21  1  0
 20 25  2  0
 21 22  2  0
 22 23  1  0
 24 23  2  0
 25 24  1  0
 26 15  1  0
 27 26  2  0
 28 26  1  0
M  END
$$$$
