STW.pdb
     RDKit          3D

 28 29  0  0  1  0  0  0  0  0999 V2000
   25.7385  -22.9039  -17.9876 O   0  0  0  0  0  0  0  0  0  0  0  0
   26.2426  -22.5643  -16.7406 C   0  0  0  0  0  0  0  0  0  0  0  0
   27.4319  -21.6509  -16.9625 C   0  0  2  0  0  0  0  0  0  0  0  0
   28.5156  -22.3370  -17.6335 N   0  0  0  0  0  0  0  0  0  0  0  0
   27.8890  -21.1621  -15.6274 C   0  0  0  0  0  0  0  0  0  0  0  0
   28.9869  -20.5420  -15.5675 O   0  0  0  0  0  0  0  0  0  0  0  0
   28.0965  -18.9012  -14.8280 C   0  0  0  0  0  0  0  0  0  0  0  0
   27.2088  -19.1245  -13.6104 C   0  0  1  0  0  0  0  0  0  0  0  0
   25.8863  -18.8780  -13.9577 O   0  0  0  0  0  0  0  0  0  0  0  0
   27.3570  -20.5991  -13.2529 C   0  0  2  0  0  0  0  0  0  0  0  0
   27.1502  -21.3635  -14.4457 N   0  0  0  0  0  0  0  0  0  0  0  0
   26.4299  -20.9832  -12.1620 C   0  0  0  0  0  0  0  0  0  0  0  0
   25.2836  -21.4344  -12.4202 O   0  0  0  0  0  0  0  0  0  0  0  0
   26.8052  -20.8533  -10.8025 N   0  0  0  0  0  0  0  0  0  0  0  0
   26.0707  -21.4421   -9.6866 C   0  0  1  0  0  0  0  0  0  0  0  0
   27.0315  -21.5438   -8.5406 C   0  0  0  0  0  0  0  0  0  0  0  0
   27.2264  -20.3520   -7.7266 C   0  0  0  0  0  0  0  0  0  0  0  0
   26.7719  -19.0557   -7.9830 C   0  0  0  0  0  0  0  0  0  0  0  0
   27.2115  -18.2908   -6.9914 N   0  0  0  0  0  0  0  0  0  0  0  0
   27.9183  -18.9866   -6.1051 C   0  0  0  0  0  0  0  0  0  0  0  0
   28.5511  -18.6074   -4.9155 C   0  0  0  0  0  0  0  0  0  0  0  0
   29.2038  -19.5839   -4.1909 C   0  0  0  0  0  0  0  0  0  0  0  0
   29.2373  -20.9000   -4.6182 C   0  0  0  0  0  0  0  0  0  0  0  0
   28.6131  -21.2624   -5.7883 C   0  0  0  0  0  0  0  0  0  0  0  0
   27.9460  -20.2901   -6.5402 C   0  0  0  0  0  0  0  0  0  0  0  0
   24.8185  -20.7376   -9.4234 C   0  0  0  0  0  0  0  0  0  0  0  0
   24.5290  -19.6225   -9.9164 O   0  0  0  0  0  0  0  0  0  0  0  0
   23.8613  -21.2982   -8.5831 O   0  0  0  0  0  0  0  0  0  0  0  0
  2  3  1  0
  2  1  1  0
  3  4  1  1
  5  6  2  0
  5  3  1  0
  8  7  1  6
  8  9  1  0
  8 10  1  0
 10 11  1  6
 11  5  1  0
 12 13  2  0
 12 10  1  0
 14 12  1  0
 15 16  1  1
 15 14  1  0
 17 25  1  0
 17 16  1  0
 18 17  2  0
 19 18  1  0
 19 20  1  0
 20 21  1  0
 20 25  2  0
 21 22  2  0
 22 23  1  0
 24 23  2  0
 25 24  1  0
 26 15  1  0
 27 26  2  0
 28 26  1  0
M  END
$$$$
