STW.pdb
     RDKit          3D

 28 29  0  0  1  0  0  0  0  0999 V2000
   31.6712  -19.2352  -18.8680 O   0  0  0  0  0  0  0  0  0  0  0  0
   30.8650  -18.7725  -17.8381 C   0  0  0  0  0  0  0  0  0  0  0  0
   29.5265  -19.4743  -17.9559 C   0  0  2  0  0  0  0  0  0  0  0  0
   28.8629  -19.1550  -19.2022 N   0  0  0  0  0  0  0  0  0  0  0  0
   28.6800  -19.0418  -16.8040 C   0  0  0  0  0  0  0  0  0  0  0  0
   28.5012  -17.8042  -16.6318 O   0  0  0  0  0  0  0  0  0  0  0  0
   26.3321  -18.0693  -16.7472 C   0  0  0  0  0  0  0  0  0  0  0  0
   25.8349  -19.1398  -15.7842 C   0  0  1  0  0  0  0  0  0  0  0  0
   25.3623  -20.2249  -16.5117 O   0  0  0  0  0  0  0  0  0  0  0  0
   27.0560  -19.5783  -14.9838 C   0  0  2  0  0  0  0  0  0  0  0  0
   28.0795  -19.9517  -15.9128 N   0  0  0  0  0  0  0  0  0  0  0  0
   26.7165  -20.6703  -14.0407 C   0  0  0  0  0  0  0  0  0  0  0  0
   27.3741  -21.7435  -14.0347 O   0  0  0  0  0  0  0  0  0  0  0  0
   25.6457  -20.5386  -13.1232 N   0  0  0  0  0  0  0  0  0  0  0  0
   25.2937  -21.5400  -12.1208 C   0  0  1  0  0  0  0  0  0  0  0  0
   26.4883  -21.6999  -11.2295 C   0  0  0  0  0  0  0  0  0  0  0  0
   26.5696  -20.8329  -10.0622 C   0  0  0  0  0  0  0  0  0  0  0  0
   25.5941  -19.9594   -9.5742 C   0  0  0  0  0  0  0  0  0  0  0  0
   26.1160  -19.3529   -8.5152 N   0  0  0  0  0  0  0  0  0  0  0  0
   27.3578  -19.7627   -8.2718 C   0  0  0  0  0  0  0  0  0  0  0  0
   28.2728  -19.4158   -7.2709 C   0  0  0  0  0  0  0  0  0  0  0  0
   29.5028  -20.0415   -7.2745 C   0  0  0  0  0  0  0  0  0  0  0  0
   29.8312  -20.9843   -8.2333 C   0  0  0  0  0  0  0  0  0  0  0  0
   28.9258  -21.3179   -9.2125 C   0  0  0  0  0  0  0  0  0  0  0  0
   27.6732  -20.6965   -9.2299 C   0  0  0  0  0  0  0  0  0  0  0  0
   24.0278  -21.2317  -11.4605 C   0  0  0  0  0  0  0  0  0  0  0  0
   23.5031  -20.0938  -11.4556 O   0  0  0  0  0  0  0  0  0  0  0  0
   23.3279  -22.2273  -10.7855 O   0  0  0  0  0  0  0  0  0  0  0  0
  2  3  1  0
  2  1  1  0
  3  4  1  6
  5  6  2  0
  5  3  1  0
  8  7  1  6
  8  9  1  0
  8 10  1  0
 10 11  1  6
 11  5  1  0
 12 13  2  0
 12 10  1  0
 14 12  1  0
 15 16  1  1
 15 14  1  0
 17 25  1  0
 17 16  1  0
 18 17  2  0
 19 18  1  0
 19 20  1  0
 20 21  1  0
 20 25  2  0
 21 22  2  0
 22 23  1  0
 24 23  2  0
 25 24  1  0
 26 15  1  0
 27 26  2  0
 28 26  1  0
M  END
$$$$
