STW.pdb
     RDKit          3D

 28 29  0  0  1  0  0  0  0  0999 V2000
   17.0710  -10.3031  -17.8356 O   0  0  0  0  0  0  0  0  0  0  0  0
   17.9818   -9.3365  -17.4349 C   0  0  0  0  0  0  0  0  0  0  0  0
   18.5182   -8.6686  -18.6856 C   0  0  2  0  0  0  0  0  0  0  0  0
   19.3100   -9.5819  -19.4822 N   0  0  0  0  0  0  0  0  0  0  0  0
   19.3557   -7.5072  -18.2610 C   0  0  0  0  0  0  0  0  0  0  0  0
   20.5808   -7.7112  -18.0353 O   0  0  0  0  0  0  0  0  0  0  0  0
   19.6719   -4.4167  -20.1663 C   0  0  0  0  0  0  0  0  0  0  0  0
   19.2473   -3.9510  -18.7795 C   0  0  1  0  0  0  0  0  0  0  0  0
   17.8650   -3.8151  -18.7464 O   0  0  0  0  0  0  0  0  0  0  0  0
   19.6550   -5.0664  -17.8237 C   0  0  2  0  0  0  0  0  0  0  0  0
   18.8371   -6.2074  -18.1052 N   0  0  0  0  0  0  0  0  0  0  0  0
   19.5541   -4.6275  -16.4115 C   0  0  0  0  0  0  0  0  0  0  0  0
   18.4440   -4.6170  -15.8183 O   0  0  0  0  0  0  0  0  0  0  0  0
   20.6994   -4.2079  -15.6916 N   0  0  0  0  0  0  0  0  0  0  0  0
   20.6697   -3.6961  -14.3246 C   0  0  1  0  0  0  0  0  0  0  0  0
   21.7354   -4.4268  -13.5648 C   0  0  0  0  0  0  0  0  0  0  0  0
   21.4764   -5.8194  -13.2262 C   0  0  0  0  0  0  0  0  0  0  0  0
   22.0873   -6.9582  -13.7577 C   0  0  0  0  0  0  0  0  0  0  0  0
   21.5147   -8.0070  -13.1800 N   0  0  0  0  0  0  0  0  0  0  0  0
   20.5763   -7.6425  -12.3107 C   0  0  0  0  0  0  0  0  0  0  0  0
   19.7395   -8.3923  -11.4758 C   0  0  0  0  0  0  0  0  0  0  0  0
   18.8637   -7.7094  -10.6566 C   0  0  0  0  0  0  0  0  0  0  0  0
   18.8069   -6.3264  -10.6528 C   0  0  0  0  0  0  0  0  0  0  0  0
   19.6326   -5.5989  -11.4767 C   0  0  0  0  0  0  0  0  0  0  0  0
   20.5279   -6.2689  -12.3165 C   0  0  0  0  0  0  0  0  0  0  0  0
   20.7290   -2.2371  -14.2853 C   0  0  0  0  0  0  0  0  0  0  0  0
   21.1677   -1.5317  -15.2234 O   0  0  0  0  0  0  0  0  0  0  0  0
   20.2836   -1.5469  -13.1620 O   0  0  0  0  0  0  0  0  0  0  0  0
  2  3  1  0
  2  1  1  0
  3  4  1  1
  5  6  2  0
  5  3  1  0
  8  7  1  6
  8  9  1  0
  8 10  1  0
 10 11  1  1
 11  5  1  0
 12 13  2  0
 12 10  1  0
 14 12  1  0
 15 16  1  1
 15 14  1  0
 17 25  1  0
 17 16  1  0
 18 17  2  0
 19 18  1  0
 19 20  1  0
 20 21  1  0
 20 25  2  0
 21 22  2  0
 22 23  1  0
 24 23  2  0
 25 24  1  0
 26 15  1  0
 27 26  2  0
 28 26  1  0
M  END
$$$$
