FER.pdb
     RDKit          3D

 32 32  0  0  1  0  0  0  0  0999 V2000
    5.6444  -18.1502   22.6934 N   0  0  0  0  0  0  0  0  0  0  0  0
    6.4505  -17.0550   22.1630 C   0  0  1  0  0  0  0  0  0  0  0  0
    6.0832  -15.7711   22.9175 C   0  0  0  0  0  0  0  0  0  0  0  0
    6.7221  -14.6661   22.1599 C   0  0  0  0  0  0  0  0  0  0  0  0
    7.6291  -13.8334   22.7756 C   0  0  0  0  0  0  0  0  0  0  0  0
    8.2214  -12.7924   22.0492 C   0  0  0  0  0  0  0  0  0  0  0  0
    7.9110  -12.5864   20.7226 C   0  0  0  0  0  0  0  0  0  0  0  0
    7.0010  -13.4332   20.1288 C   0  0  0  0  0  0  0  0  0  0  0  0
    6.4109  -14.4613   20.8339 C   0  0  0  0  0  0  0  0  0  0  0  0
    7.8978  -17.3615   22.2585 C   0  0  0  0  0  0  0  0  0  0  0  0
    8.4142  -17.7165   23.3526 O   0  0  0  0  0  0  0  0  0  0  0  0
    8.7136  -17.2566   21.1134 N   0  0  0  0  0  0  0  0  0  0  0  0
   10.1391  -17.6569   21.1466 C   0  0  1  0  0  0  0  0  0  0  0  0
   10.6470  -17.7270   19.7416 C   0  0  0  0  0  0  0  0  0  0  0  0
   12.0748  -18.1188   19.5667 C   0  0  0  0  0  0  0  0  0  0  0  0
   12.5400  -18.2034   18.1702 C   0  0  0  0  0  0  0  0  0  0  0  0
   12.2866  -19.2088   17.4764 O   0  0  0  0  0  0  0  0  0  0  0  0
   10.8006  -16.7273   22.0394 C   0  0  0  0  0  0  0  0  0  0  0  0
   10.2274  -15.6187   22.3194 O   0  0  0  0  0  0  0  0  0  0  0  0
   13.2637  -17.1757   17.6002 O   0  0  0  0  0  0  0  0  0  0  0  0
   10.3555  -14.1369   29.4520 N   0  0  0  0  0  0  0  0  0  0  0  0
    9.7702  -14.1046   28.1605 C   0  0  0  0  0  0  0  0  0  0  0  0
    9.2681  -13.0137   27.7236 N   0  0  0  0  0  0  0  0  0  0  0  0
    9.7302  -15.2554   27.3378 N   0  0  0  0  0  0  0  0  0  0  0  0
   10.7846  -16.2343   27.3987 C   0  0  0  0  0  0  0  0  0  0  0  0
   11.8243  -15.9482   26.3138 C   0  0  0  0  0  0  0  0  0  0  0  0
   11.4097  -16.4900   24.9864 C   0  0  0  0  0  0  0  0  0  0  0  0
   12.4201  -16.2325   23.8980 C   0  0  2  0  0  0  0  0  0  0  0  0
   12.0485  -16.9146   22.6580 N   0  0  0  0  0  0  0  0  0  0  0  0
   13.7825  -16.6621   24.2379 C   0  0  0  0  0  0  0  0  0  0  0  0
   14.6002  -15.8312   24.6862 O   0  0  0  0  0  0  0  0  0  0  0  0
   14.2402  -17.9714   24.0910 O   0  0  0  0  0  0  0  0  0  0  0  0
  2  1  1  1
  2  3  1  0
  3  4  1  0
  4  9  2  0
  4  5  1  0
  5  6  2  0
  6  7  1  0
  8  7  2  0
  9  8  1  0
 10  2  1  0
 10 11  2  0
 12 10  1  0
 13 12  1  0
 13 14  1  6
 15 14  1  0
 15 16  1  0
 16 17  2  0
 16 20  1  0
 18 13  1  0
 19 18  2  0
 22 21  1  0
 22 24  1  0
 23 22  2  0
 24 25  1  0
 25 26  1  0
 26 27  1  0
 28 27  1  1
 28 29  1  0
 29 18  1  0
 30 28  1  0
 30 32  1  0
 31 30  2  0
M  END
$$$$
