FER.pdb
     RDKit          3D

 32 32  0  0  1  0  0  0  0  0999 V2000
    5.6302  -17.7373   24.6276 N   0  0  0  0  0  0  0  0  0  0  0  0
    6.6114  -16.6658   24.7683 C   0  0  1  0  0  0  0  0  0  0  0  0
    6.7191  -16.2968   26.2531 C   0  0  0  0  0  0  0  0  0  0  0  0
    6.8852  -14.8222   26.2871 C   0  0  0  0  0  0  0  0  0  0  0  0
    8.1430  -14.2640   26.3236 C   0  0  0  0  0  0  0  0  0  0  0  0
    8.2844  -12.8708   26.3592 C   0  0  0  0  0  0  0  0  0  0  0  0
    7.1813  -12.0452   26.3578 C   0  0  0  0  0  0  0  0  0  0  0  0
    5.9333  -12.6276   26.3204 C   0  0  0  0  0  0  0  0  0  0  0  0
    5.7816  -13.9981   26.2858 C   0  0  0  0  0  0  0  0  0  0  0  0
    7.9209  -17.0617   24.1972 C   0  0  0  0  0  0  0  0  0  0  0  0
    8.4206  -18.1925   24.4448 O   0  0  0  0  0  0  0  0  0  0  0  0
    8.6222  -16.1659   23.3645 N   0  0  0  0  0  0  0  0  0  0  0  0
    9.9169  -16.5409   22.7509 C   0  0  1  0  0  0  0  0  0  0  0  0
   10.1728  -15.6359   21.5879 C   0  0  0  0  0  0  0  0  0  0  0  0
   11.5070  -15.7519   20.9328 C   0  0  0  0  0  0  0  0  0  0  0  0
   11.5261  -16.5114   19.6692 C   0  0  0  0  0  0  0  0  0  0  0  0
   10.4685  -16.7335   19.0458 O   0  0  0  0  0  0  0  0  0  0  0  0
   10.8923  -16.5272   23.8220 C   0  0  0  0  0  0  0  0  0  0  0  0
   10.7366  -15.7115   24.7949 O   0  0  0  0  0  0  0  0  0  0  0  0
   12.7103  -16.9923   19.1485 O   0  0  0  0  0  0  0  0  0  0  0  0
   12.0181  -21.3369   29.6504 N   0  0  0  0  0  0  0  0  0  0  0  0
   12.0785  -19.9269   29.7918 C   0  0  0  0  0  0  0  0  0  0  0  0
   12.4057  -19.4202   30.9184 N   0  0  0  0  0  0  0  0  0  0  0  0
   11.7867  -19.0622   28.7102 N   0  0  0  0  0  0  0  0  0  0  0  0
   11.0196  -19.5317   27.5855 C   0  0  0  0  0  0  0  0  0  0  0  0
   11.7059  -19.1243   26.2805 C   0  0  0  0  0  0  0  0  0  0  0  0
   12.2164  -17.7228   26.3319 C   0  0  0  0  0  0  0  0  0  0  0  0
   12.9306  -17.3044   25.0723 C   0  0  2  0  0  0  0  0  0  0  0  0
   12.0333  -17.3421   23.9172 N   0  0  0  0  0  0  0  0  0  0  0  0
   14.0949  -18.1369   24.7445 C   0  0  0  0  0  0  0  0  0  0  0  0
   15.0593  -18.1924   25.5364 O   0  0  0  0  0  0  0  0  0  0  0  0
   14.2019  -18.8922   23.5770 O   0  0  0  0  0  0  0  0  0  0  0  0
  2  1  1  1
  2  3  1  0
  3  4  1  0
  4  9  2  0
  4  5  1  0
  5  6  2  0
  6  7  1  0
  8  7  2  0
  9  8  1  0
 10  2  1  0
 10 11  2  0
 12 10  1  0
 13 12  1  0
 13 14  1  6
 15 14  1  0
 15 16  1  0
 16 17  2  0
 16 20  1  0
 18 13  1  0
 19 18  2  0
 22 21  1  0
 22 24  1  0
 23 22  2  0
 24 25  1  0
 25 26  1  0
 26 27  1  0
 28 27  1  1
 28 29  1  0
 29 18  1  0
 30 28  1  0
 30 32  1  0
 31 30  2  0
M  END
$$$$
