FER.pdb
     RDKit          3D

 32 32  0  0  1  0  0  0  0  0999 V2000
    5.7417  -17.3498   24.8951 N   0  0  0  0  0  0  0  0  0  0  0  0
    6.7738  -16.3290   24.7423 C   0  0  1  0  0  0  0  0  0  0  0  0
    7.0427  -15.6999   26.1150 C   0  0  0  0  0  0  0  0  0  0  0  0
    6.6853  -14.2662   25.9741 C   0  0  0  0  0  0  0  0  0  0  0  0
    5.5131  -13.7848   26.5120 C   0  0  0  0  0  0  0  0  0  0  0  0
    5.1869  -12.4302   26.3680 C   0  0  0  0  0  0  0  0  0  0  0  0
    6.0231  -11.5666   25.6945 C   0  0  0  0  0  0  0  0  0  0  0  0
    7.1905  -12.0719   25.1657 C   0  0  0  0  0  0  0  0  0  0  0  0
    7.5220  -13.4040   25.3006 C   0  0  0  0  0  0  0  0  0  0  0  0
    8.0035  -16.8979   24.1407 C   0  0  0  0  0  0  0  0  0  0  0  0
    8.4765  -17.9937   24.5470 O   0  0  0  0  0  0  0  0  0  0  0  0
    8.6578  -16.2089   23.0991 N   0  0  0  0  0  0  0  0  0  0  0  0
    9.9055  -16.7323   22.4970 C   0  0  1  0  0  0  0  0  0  0  0  0
   10.1298  -16.0414   21.1896 C   0  0  0  0  0  0  0  0  0  0  0  0
   11.3516  -16.4314   20.4294 C   0  0  0  0  0  0  0  0  0  0  0  0
   11.4525  -15.8754   19.0676 C   0  0  0  0  0  0  0  0  0  0  0  0
   12.3507  -15.0586   18.7802 O   0  0  0  0  0  0  0  0  0  0  0  0
   10.9356  -16.5833   23.5047 C   0  0  0  0  0  0  0  0  0  0  0  0
   10.6519  -15.9892   24.6013 O   0  0  0  0  0  0  0  0  0  0  0  0
   10.5589  -16.2445   18.0828 O   0  0  0  0  0  0  0  0  0  0  0  0
   13.8505  -19.0260   29.5915 N   0  0  0  0  0  0  0  0  0  0  0  0
   13.0952  -20.2177   29.4465 C   0  0  0  0  0  0  0  0  0  0  0  0
   12.4977  -20.7123   30.4621 N   0  0  0  0  0  0  0  0  0  0  0  0
   12.9836  -20.8750   28.1982 N   0  0  0  0  0  0  0  0  0  0  0  0
   12.1976  -20.3004   27.1372 C   0  0  0  0  0  0  0  0  0  0  0  0
   13.0012  -19.2109   26.4251 C   0  0  0  0  0  0  0  0  0  0  0  0
   12.2312  -18.5890   25.3080 C   0  0  0  0  0  0  0  0  0  0  0  0
   13.0078  -17.5294   24.5692 C   0  0  2  0  0  0  0  0  0  0  0  0
   12.2622  -17.0375   23.4103 N   0  0  0  0  0  0  0  0  0  0  0  0
   14.3169  -17.9825   24.0823 C   0  0  0  0  0  0  0  0  0  0  0  0
   14.4121  -18.4949   22.9472 O   0  0  0  0  0  0  0  0  0  0  0  0
   15.4956  -17.8772   24.8204 O   0  0  0  0  0  0  0  0  0  0  0  0
  2  1  1  1
  2  3  1  0
  3  4  1  0
  4  9  2  0
  4  5  1  0
  5  6  2  0
  6  7  1  0
  8  7  2  0
  9  8  1  0
 10  2  1  0
 10 11  2  0
 12 10  1  0
 13 12  1  0
 13 14  1  6
 15 14  1  0
 15 16  1  0
 16 17  2  0
 16 20  1  0
 18 13  1  0
 19 18  2  0
 22 21  1  0
 22 24  1  0
 23 22  2  0
 24 25  1  0
 25 26  1  0
 26 27  1  0
 28 27  1  6
 28 29  1  0
 29 18  1  0
 30 28  1  0
 30 32  1  0
 31 30  2  0
M  END
$$$$
