FER.pdb
     RDKit          3D

 32 32  0  0  1  0  0  0  0  0999 V2000
    6.1468  -16.7066   25.4896 N   0  0  0  0  0  0  0  0  0  0  0  0
    7.3110  -15.8976   25.1417 C   0  0  1  0  0  0  0  0  0  0  0  0
    7.6494  -14.9942   26.3341 C   0  0  0  0  0  0  0  0  0  0  0  0
    7.1135  -13.6548   25.9850 C   0  0  0  0  0  0  0  0  0  0  0  0
    5.9061  -13.2335   26.4946 C   0  0  0  0  0  0  0  0  0  0  0  0
    5.4110  -11.9684   26.1535 C   0  0  0  0  0  0  0  0  0  0  0  0
    6.1150  -11.1338   25.3129 C   0  0  0  0  0  0  0  0  0  0  0  0
    7.3208  -11.5776   24.8162 C   0  0  0  0  0  0  0  0  0  0  0  0
    7.8182  -12.8215   25.1445 C   0  0  0  0  0  0  0  0  0  0  0  0
    8.4570  -16.7516   24.7480 C   0  0  0  0  0  0  0  0  0  0  0  0
    8.6876  -17.8403   25.3408 O   0  0  0  0  0  0  0  0  0  0  0  0
    9.3046  -16.3464   23.6968 N   0  0  0  0  0  0  0  0  0  0  0  0
   10.4105  -17.2111   23.2250 C   0  0  1  0  0  0  0  0  0  0  0  0
   10.5406  -17.0522   21.7435 C   0  0  0  0  0  0  0  0  0  0  0  0
   11.6318  -17.8239   21.0827 C   0  0  0  0  0  0  0  0  0  0  0  0
   11.7208  -17.6653   19.6196 C   0  0  0  0  0  0  0  0  0  0  0  0
   12.7310  -17.1529   19.0967 O   0  0  0  0  0  0  0  0  0  0  0  0
   11.5661  -16.8656   24.0275 C   0  0  0  0  0  0  0  0  0  0  0  0
   11.8354  -15.6320   24.2317 O   0  0  0  0  0  0  0  0  0  0  0  0
   10.6923  -18.0789   18.7974 O   0  0  0  0  0  0  0  0  0  0  0  0
   14.0727  -21.1205   31.0787 N   0  0  0  0  0  0  0  0  0  0  0  0
   12.8029  -20.7594   30.5600 C   0  0  0  0  0  0  0  0  0  0  0  0
   11.7578  -21.3686   30.9719 N   0  0  0  0  0  0  0  0  0  0  0  0
   12.6629  -19.7341   29.5947 N   0  0  0  0  0  0  0  0  0  0  0  0
   13.5694  -19.6521   28.4788 C   0  0  0  0  0  0  0  0  0  0  0  0
   13.1479  -18.5139   27.5478 C   0  0  0  0  0  0  0  0  0  0  0  0
   14.0656  -18.3801   26.3784 C   0  0  0  0  0  0  0  0  0  0  0  0
   13.6250  -17.3258   25.3954 C   0  0  2  0  0  0  0  0  0  0  0  0
   12.4578  -17.7681   24.6320 N   0  0  0  0  0  0  0  0  0  0  0  0
   14.6602  -16.9479   24.4251 C   0  0  0  0  0  0  0  0  0  0  0  0
   14.6456  -17.4442   23.2790 O   0  0  0  0  0  0  0  0  0  0  0  0
   15.6882  -16.0470   24.7020 O   0  0  0  0  0  0  0  0  0  0  0  0
  2  1  1  1
  2  3  1  0
  3  4  1  0
  4  9  2  0
  4  5  1  0
  5  6  2  0
  6  7  1  0
  8  7  2  0
  9  8  1  0
 10  2  1  0
 10 11  2  0
 12 10  1  0
 13 12  1  0
 13 14  1  6
 15 14  1  0
 15 16  1  0
 16 17  2  0
 16 20  1  0
 18 13  1  0
 19 18  2  0
 22 21  1  0
 22 24  1  0
 23 22  2  0
 24 25  1  0
 25 26  1  0
 26 27  1  0
 28 27  1  1
 28 29  1  0
 29 18  1  0
 30 28  1  0
 30 32  1  0
 31 30  2  0
M  END
$$$$
