FER.pdb
     RDKit          3D

 32 32  0  0  1  0  0  0  0  0999 V2000
   11.6484  -13.6605   20.0342 N   0  0  0  0  0  0  0  0  0  0  0  0
   10.9241  -14.5047   20.9794 C   0  0  1  0  0  0  0  0  0  0  0  0
    9.9206  -15.3609   20.1968 C   0  0  0  0  0  0  0  0  0  0  0  0
    8.8410  -14.4310   19.7810 C   0  0  0  0  0  0  0  0  0  0  0  0
    8.9118  -13.7787   18.5708 C   0  0  0  0  0  0  0  0  0  0  0  0
    7.8875  -12.9010   18.1933 C   0  0  0  0  0  0  0  0  0  0  0  0
    6.8046  -12.6783   19.0157 C   0  0  0  0  0  0  0  0  0  0  0  0
    6.7562  -13.3431   20.2214 C   0  0  0  0  0  0  0  0  0  0  0  0
    7.7592  -14.2092   20.6042 C   0  0  0  0  0  0  0  0  0  0  0  0
   11.8570  -15.3333   21.7798 C   0  0  0  0  0  0  0  0  0  0  0  0
   13.0712  -15.4377   21.4566 O   0  0  0  0  0  0  0  0  0  0  0  0
   11.3861  -16.0165   22.9197 N   0  0  0  0  0  0  0  0  0  0  0  0
   12.3103  -16.4448   23.9947 C   0  0  1  0  0  0  0  0  0  0  0  0
   11.5486  -17.2825   24.9720 C   0  0  0  0  0  0  0  0  0  0  0  0
   12.3415  -17.9328   26.0542 C   0  0  0  0  0  0  0  0  0  0  0  0
   11.5531  -18.6679   27.0601 C   0  0  0  0  0  0  0  0  0  0  0  0
   12.1196  -19.2737   27.9921 O   0  0  0  0  0  0  0  0  0  0  0  0
   13.4395  -17.0676   23.3345 C   0  0  0  0  0  0  0  0  0  0  0  0
   13.2565  -18.1492   22.6766 O   0  0  0  0  0  0  0  0  0  0  0  0
   10.1750  -18.7025   26.9944 O   0  0  0  0  0  0  0  0  0  0  0  0
   16.2792  -14.7456   16.7050 N   0  0  0  0  0  0  0  0  0  0  0  0
   16.5221  -14.2888   18.0257 C   0  0  0  0  0  0  0  0  0  0  0  0
   17.1498  -13.1906   18.2069 N   0  0  0  0  0  0  0  0  0  0  0  0
   16.0823  -15.0212   19.1539 N   0  0  0  0  0  0  0  0  0  0  0  0
   15.4006  -16.2789   18.9885 C   0  0  0  0  0  0  0  0  0  0  0  0
   15.0426  -16.8611   20.3570 C   0  0  0  0  0  0  0  0  0  0  0  0
   16.1682  -16.7357   21.3290 C   0  0  0  0  0  0  0  0  0  0  0  0
   15.8538  -17.3239   22.6807 C   0  0  2  0  0  0  0  0  0  0  0  0
   14.7641  -16.5981   23.3338 N   0  0  0  0  0  0  0  0  0  0  0  0
   16.9921  -17.3241   23.6083 C   0  0  0  0  0  0  0  0  0  0  0  0
   17.7506  -18.3152   23.6577 O   0  0  0  0  0  0  0  0  0  0  0  0
   17.2942  -16.2638   24.4625 O   0  0  0  0  0  0  0  0  0  0  0  0
  2  1  1  6
  2  3  1  0
  3  4  1  0
  4  9  2  0
  4  5  1  0
  5  6  2  0
  6  7  1  0
  8  7  2  0
  9  8  1  0
 10  2  1  0
 10 11  2  0
 12 10  1  0
 13 12  1  0
 13 14  1  1
 15 14  1  0
 15 16  1  0
 16 17  2  0
 16 20  1  0
 18 13  1  0
 19 18  2  0
 22 21  1  0
 22 24  1  0
 23 22  2  0
 24 25  1  0
 25 26  1  0
 26 27  1  0
 28 27  1  6
 28 29  1  0
 29 18  1  0
 30 28  1  0
 30 32  1  0
 31 30  2  0
M  END
$$$$
