FER.pdb
     RDKit          3D

 32 32  0  0  1  0  0  0  0  0999 V2000
    6.0073  -17.3279   25.0583 N   0  0  0  0  0  0  0  0  0  0  0  0
    6.9814  -16.3622   24.5590 C   0  0  1  0  0  0  0  0  0  0  0  0
    7.5911  -15.6228   25.7565 C   0  0  0  0  0  0  0  0  0  0  0  0
    7.0236  -14.2521   25.7106 C   0  0  0  0  0  0  0  0  0  0  0  0
    7.5787  -13.2959   24.8905 C   0  0  0  0  0  0  0  0  0  0  0  0
    7.0350  -12.0054   24.8602 C   0  0  0  0  0  0  0  0  0  0  0  0
    5.9484  -11.6746   25.6404 C   0  0  0  0  0  0  0  0  0  0  0  0
    5.4103  -12.6487   26.4523 C   0  0  0  0  0  0  0  0  0  0  0  0
    5.9375  -13.9227   26.4911 C   0  0  0  0  0  0  0  0  0  0  0  0
    8.0156  -17.0260   23.7299 C   0  0  0  0  0  0  0  0  0  0  0  0
    8.5356  -18.1159   24.0926 O   0  0  0  0  0  0  0  0  0  0  0  0
    8.4275  -16.4357   22.5177 N   0  0  0  0  0  0  0  0  0  0  0  0
    9.6907  -16.8383   21.8576 C   0  0  1  0  0  0  0  0  0  0  0  0
    9.6430  -16.3979   20.4290 C   0  0  0  0  0  0  0  0  0  0  0  0
   10.8306  -16.7257   19.5895 C   0  0  0  0  0  0  0  0  0  0  0  0
   10.5590  -17.5749   18.4153 C   0  0  0  0  0  0  0  0  0  0  0  0
    9.7053  -17.2365   17.5708 O   0  0  0  0  0  0  0  0  0  0  0  0
   10.7625  -16.3063   22.6743 C   0  0  0  0  0  0  0  0  0  0  0  0
   10.8226  -15.0449   22.8774 O   0  0  0  0  0  0  0  0  0  0  0  0
   11.2406  -18.7596   18.2237 O   0  0  0  0  0  0  0  0  0  0  0  0
   11.6844  -16.9502   30.5126 N   0  0  0  0  0  0  0  0  0  0  0  0
   11.2983  -15.7440   29.8741 C   0  0  0  0  0  0  0  0  0  0  0  0
   10.9173  -14.7506   30.5820 N   0  0  0  0  0  0  0  0  0  0  0  0
   11.3269  -15.6111   28.4655 N   0  0  0  0  0  0  0  0  0  0  0  0
   11.3210  -16.7775   27.6210 C   0  0  0  0  0  0  0  0  0  0  0  0
   11.4280  -16.3587   26.1537 C   0  0  0  0  0  0  0  0  0  0  0  0
   12.7210  -16.7870   25.5435 C   0  0  0  0  0  0  0  0  0  0  0  0
   12.8399  -16.4211   24.0862 C   0  0  2  0  0  0  0  0  0  0  0  0
   11.7818  -17.0490   23.2944 N   0  0  0  0  0  0  0  0  0  0  0  0
   14.1210  -16.8043   23.4796 C   0  0  0  0  0  0  0  0  0  0  0  0
   15.0912  -16.0194   23.5335 O   0  0  0  0  0  0  0  0  0  0  0  0
   14.3365  -18.0190   22.8291 O   0  0  0  0  0  0  0  0  0  0  0  0
  2  1  1  1
  2  3  1  0
  3  4  1  0
  4  9  2  0
  4  5  1  0
  5  6  2  0
  6  7  1  0
  8  7  2  0
  9  8  1  0
 10  2  1  0
 10 11  2  0
 12 10  1  0
 13 12  1  0
 13 14  1  6
 15 14  1  0
 15 16  1  0
 16 17  2  0
 16 20  1  0
 18 13  1  0
 19 18  2  0
 22 21  1  0
 22 24  1  0
 23 22  2  0
 24 25  1  0
 25 26  1  0
 26 27  1  0
 28 27  1  1
 28 29  1  0
 29 18  1  0
 30 28  1  0
 30 32  1  0
 31 30  2  0
M  END
$$$$
