FER.pdb
     RDKit          3D

 32 32  0  0  1  0  0  0  0  0999 V2000
    9.5203  -16.2954   21.3740 N   0  0  0  0  0  0  0  0  0  0  0  0
    8.9214  -15.6884   22.5587 C   0  0  1  0  0  0  0  0  0  0  0  0
    7.4591  -15.3484   22.2445 C   0  0  0  0  0  0  0  0  0  0  0  0
    7.5100  -14.2602   21.2363 C   0  0  0  0  0  0  0  0  0  0  0  0
    7.7800  -12.9665   21.6215 C   0  0  0  0  0  0  0  0  0  0  0  0
    7.8211  -11.9490   20.6596 C   0  0  0  0  0  0  0  0  0  0  0  0
    7.5954  -12.2218   19.3280 C   0  0  0  0  0  0  0  0  0  0  0  0
    7.3277  -13.5241   18.9673 C   0  0  0  0  0  0  0  0  0  0  0  0
    7.2840  -14.5342   19.9055 C   0  0  0  0  0  0  0  0  0  0  0  0
    9.0443  -16.5803   23.7364 C   0  0  0  0  0  0  0  0  0  0  0  0
    8.3295  -16.4043   24.7600 O   0  0  0  0  0  0  0  0  0  0  0  0
    9.9716  -17.6422   23.7178 N   0  0  0  0  0  0  0  0  0  0  0  0
   10.1939  -18.4888   24.9124 C   0  0  1  0  0  0  0  0  0  0  0  0
   10.9340  -19.7191   24.4933 C   0  0  0  0  0  0  0  0  0  0  0  0
   10.1546  -20.7429   23.7401 C   0  0  0  0  0  0  0  0  0  0  0  0
    9.1162  -21.4438   24.5174 C   0  0  0  0  0  0  0  0  0  0  0  0
    8.9989  -21.2460   25.7436 O   0  0  0  0  0  0  0  0  0  0  0  0
   10.8330  -17.6404   25.8975 C   0  0  0  0  0  0  0  0  0  0  0  0
   11.8917  -16.9998   25.5738 O   0  0  0  0  0  0  0  0  0  0  0  0
    8.2527  -22.3318   23.9086 O   0  0  0  0  0  0  0  0  0  0  0  0
    6.0679  -13.6757   26.7886 N   0  0  0  0  0  0  0  0  0  0  0  0
    7.0360  -12.9730   26.0266 C   0  0  0  0  0  0  0  0  0  0  0  0
    6.7265  -12.5313   24.8681 N   0  0  0  0  0  0  0  0  0  0  0  0
    8.3425  -12.7450   26.5205 N   0  0  0  0  0  0  0  0  0  0  0  0
    8.8074  -13.4279   27.7000 C   0  0  0  0  0  0  0  0  0  0  0  0
    9.7161  -14.5928   27.3033 C   0  0  0  0  0  0  0  0  0  0  0  0
   10.2089  -15.3469   28.4932 C   0  0  0  0  0  0  0  0  0  0  0  0
   11.0879  -16.5170   28.1325 C   0  0  2  0  0  0  0  0  0  0  0  0
   10.4030  -17.4322   27.2192 N   0  0  0  0  0  0  0  0  0  0  0  0
   11.5295  -17.3075   29.2884 C   0  0  0  0  0  0  0  0  0  0  0  0
   11.1018  -18.4708   29.4431 O   0  0  0  0  0  0  0  0  0  0  0  0
   12.4195  -16.8363   30.2534 O   0  0  0  0  0  0  0  0  0  0  0  0
  2  1  1  6
  2  3  1  0
  3  4  1  0
  4  9  2  0
  4  5  1  0
  5  6  2  0
  6  7  1  0
  8  7  2  0
  9  8  1  0
 10  2  1  0
 10 11  2  0
 12 10  1  0
 13 12  1  0
 13 14  1  6
 15 14  1  0
 15 16  1  0
 16 17  2  0
 16 20  1  0
 18 13  1  0
 19 18  2  0
 22 21  1  0
 22 24  1  0
 23 22  2  0
 24 25  1  0
 25 26  1  0
 26 27  1  0
 28 27  1  1
 28 29  1  0
 29 18  1  0
 30 28  1  0
 30 32  1  0
 31 30  2  0
M  END
$$$$
