FER.pdb
     RDKit          3D

 32 32  0  0  1  0  0  0  0  0999 V2000
    6.3818  -17.0469   24.5146 N   0  0  0  0  0  0  0  0  0  0  0  0
    6.9328  -15.7963   25.0274 C   0  0  1  0  0  0  0  0  0  0  0  0
    6.0882  -15.3484   26.2268 C   0  0  0  0  0  0  0  0  0  0  0  0
    6.5097  -13.9543   26.5135 C   0  0  0  0  0  0  0  0  0  0  0  0
    7.4729  -13.6997   27.4634 C   0  0  0  0  0  0  0  0  0  0  0  0
    7.8580  -12.3788   27.7262 C   0  0  0  0  0  0  0  0  0  0  0  0
    7.2872  -11.3246   27.0467 C   0  0  0  0  0  0  0  0  0  0  0  0
    6.3260  -11.6050   26.1005 C   0  0  0  0  0  0  0  0  0  0  0  0
    5.9382  -12.9015   25.8337 C   0  0  0  0  0  0  0  0  0  0  0  0
    8.3644  -15.9482   25.3810 C   0  0  0  0  0  0  0  0  0  0  0  0
    8.9741  -15.0462   26.0170 O   0  0  0  0  0  0  0  0  0  0  0  0
    9.0596  -17.1154   25.0038 N   0  0  0  0  0  0  0  0  0  0  0  0
   10.5168  -17.2489   25.2319 C   0  0  1  0  0  0  0  0  0  0  0  0
   10.7543  -18.4330   26.1143 C   0  0  0  0  0  0  0  0  0  0  0  0
   12.1757  -18.7645   26.4184 C   0  0  0  0  0  0  0  0  0  0  0  0
   12.3793  -19.9524   27.2676 C   0  0  0  0  0  0  0  0  0  0  0  0
   13.5069  -20.4774   27.3653 O   0  0  0  0  0  0  0  0  0  0  0  0
   11.1321  -17.2721   23.9206 C   0  0  0  0  0  0  0  0  0  0  0  0
   12.3749  -17.5577   23.8214 O   0  0  0  0  0  0  0  0  0  0  0  0
   11.3310  -20.5091   27.9719 O   0  0  0  0  0  0  0  0  0  0  0  0
    9.0052  -12.5583   16.9256 N   0  0  0  0  0  0  0  0  0  0  0  0
    8.5903  -13.6188   17.7711 C   0  0  0  0  0  0  0  0  0  0  0  0
    7.5067  -14.2444   17.5114 N   0  0  0  0  0  0  0  0  0  0  0  0
    9.3515  -14.0056   18.8997 N   0  0  0  0  0  0  0  0  0  0  0  0
   10.7815  -13.8356   18.9100 C   0  0  0  0  0  0  0  0  0  0  0  0
   11.4413  -15.0168   19.6235 C   0  0  0  0  0  0  0  0  0  0  0  0
   10.5974  -15.5377   20.7389 C   0  0  0  0  0  0  0  0  0  0  0  0
   11.2328  -16.6880   21.4771 C   0  0  2  0  0  0  0  0  0  0  0  0
   10.4921  -17.0079   22.6976 N   0  0  0  0  0  0  0  0  0  0  0  0
   12.6277  -16.4464   21.8668 C   0  0  0  0  0  0  0  0  0  0  0  0
   13.5392  -17.1389   21.3671 O   0  0  0  0  0  0  0  0  0  0  0  0
   13.0170  -15.4689   22.7823 O   0  0  0  0  0  0  0  0  0  0  0  0
  2  1  1  1
  2  3  1  0
  3  4  1  0
  4  9  2  0
  4  5  1  0
  5  6  2  0
  6  7  1  0
  8  7  2  0
  9  8  1  0
 10  2  1  0
 10 11  2  0
 12 10  1  0
 13 12  1  0
 13 14  1  6
 15 14  1  0
 15 16  1  0
 16 17  2  0
 16 20  1  0
 18 13  1  0
 19 18  2  0
 22 21  1  0
 22 24  1  0
 23 22  2  0
 24 25  1  0
 25 26  1  0
 26 27  1  0
 28 27  1  1
 28 29  1  0
 29 18  1  0
 30 28  1  0
 30 32  1  0
 31 30  2  0
M  END
$$$$
