FER.pdb
     RDKit          3D

 32 32  0  0  1  0  0  0  0  0999 V2000
    5.6527  -16.9903   25.1587 N   0  0  0  0  0  0  0  0  0  0  0  0
    6.7224  -16.0158   24.9664 C   0  0  1  0  0  0  0  0  0  0  0  0
    7.0660  -15.3961   26.3267 C   0  0  0  0  0  0  0  0  0  0  0  0
    6.7223  -13.9570   26.2081 C   0  0  0  0  0  0  0  0  0  0  0  0
    5.4436  -13.5224   26.4747 C   0  0  0  0  0  0  0  0  0  0  0  0
    5.1327  -12.1618   26.3549 C   0  0  0  0  0  0  0  0  0  0  0  0
    6.0892  -11.2462   25.9736 C   0  0  0  0  0  0  0  0  0  0  0  0
    7.3615  -11.7054   25.7128 C   0  0  0  0  0  0  0  0  0  0  0  0
    7.6793  -13.0428   25.8267 C   0  0  0  0  0  0  0  0  0  0  0  0
    7.9045  -16.6392   24.3247 C   0  0  0  0  0  0  0  0  0  0  0  0
    8.2994  -17.7860   24.6693 O   0  0  0  0  0  0  0  0  0  0  0  0
    8.6010  -15.9453   23.3143 N   0  0  0  0  0  0  0  0  0  0  0  0
    9.7777  -16.5436   22.6428 C   0  0  1  0  0  0  0  0  0  0  0  0
    9.9577  -15.8787   21.3152 C   0  0  0  0  0  0  0  0  0  0  0  0
   11.0924  -16.3597   20.4762 C   0  0  0  0  0  0  0  0  0  0  0  0
   11.1445  -15.8097   19.1093 C   0  0  0  0  0  0  0  0  0  0  0  0
   10.0943  -15.5907   18.4725 O   0  0  0  0  0  0  0  0  0  0  0  0
   10.8755  -16.4432   23.5828 C   0  0  0  0  0  0  0  0  0  0  0  0
   10.9503  -15.4186   24.3449 O   0  0  0  0  0  0  0  0  0  0  0  0
   12.3522  -15.5252   18.5048 O   0  0  0  0  0  0  0  0  0  0  0  0
   14.8926  -20.1056   30.1761 N   0  0  0  0  0  0  0  0  0  0  0  0
   13.4801  -20.2092   30.2535 C   0  0  0  0  0  0  0  0  0  0  0  0
   12.9512  -20.9517   31.1490 N   0  0  0  0  0  0  0  0  0  0  0  0
   12.6371  -19.5052   29.3611 N   0  0  0  0  0  0  0  0  0  0  0  0
   12.5446  -19.8988   27.9789 C   0  0  0  0  0  0  0  0  0  0  0  0
   13.0742  -18.7787   27.0819 C   0  0  0  0  0  0  0  0  0  0  0  0
   12.2042  -18.5602   25.8890 C   0  0  0  0  0  0  0  0  0  0  0  0
   12.6973  -17.4565   24.9886 C   0  0  2  0  0  0  0  0  0  0  0  0
   11.9061  -17.3820   23.7601 N   0  0  0  0  0  0  0  0  0  0  0  0
   14.1038  -17.5974   24.5910 C   0  0  0  0  0  0  0  0  0  0  0  0
   15.0035  -17.1307   25.3210 O   0  0  0  0  0  0  0  0  0  0  0  0
   14.5170  -18.2348   23.4213 O   0  0  0  0  0  0  0  0  0  0  0  0
  2  1  1  1
  2  3  1  0
  3  4  1  0
  4  9  2  0
  4  5  1  0
  5  6  2  0
  6  7  1  0
  8  7  2  0
  9  8  1  0
 10  2  1  0
 10 11  2  0
 12 10  1  0
 13 12  1  0
 13 14  1  6
 15 14  1  0
 15 16  1  0
 16 17  2  0
 16 20  1  0
 18 13  1  0
 19 18  2  0
 22 21  1  0
 22 24  1  0
 23 22  2  0
 24 25  1  0
 25 26  1  0
 26 27  1  0
 28 27  1  1
 28 29  1  0
 29 18  1  0
 30 28  1  0
 30 32  1  0
 31 30  2  0
M  END
$$$$
