FER.pdb
     RDKit          3D

 32 32  0  0  1  0  0  0  0  0999 V2000
    8.5116  -16.7538   27.6540 N   0  0  0  0  0  0  0  0  0  0  0  0
    8.1239  -16.2668   26.3337 C   0  0  1  0  0  0  0  0  0  0  0  0
    8.7886  -14.9038   26.1036 C   0  0  0  0  0  0  0  0  0  0  0  0
    7.8340  -13.8992   26.6351 C   0  0  0  0  0  0  0  0  0  0  0  0
    8.2453  -12.9728   27.5666 C   0  0  0  0  0  0  0  0  0  0  0  0
    7.3325  -12.0330   28.0623 C   0  0  0  0  0  0  0  0  0  0  0  0
    6.0238  -12.0191   27.6313 C   0  0  0  0  0  0  0  0  0  0  0  0
    5.6364  -12.9557   26.6984 C   0  0  0  0  0  0  0  0  0  0  0  0
    6.5261  -13.8864   26.2036 C   0  0  0  0  0  0  0  0  0  0  0  0
    8.4796  -17.2445   25.2776 C   0  0  0  0  0  0  0  0  0  0  0  0
    9.4989  -17.9779   25.3903 O   0  0  0  0  0  0  0  0  0  0  0  0
    7.6705  -17.3608   24.1289 N   0  0  0  0  0  0  0  0  0  0  0  0
    8.1682  -18.0268   22.9032 C   0  0  1  0  0  0  0  0  0  0  0  0
    7.0011  -18.6046   22.1677 C   0  0  0  0  0  0  0  0  0  0  0  0
    7.3035  -19.3325   20.9022 C   0  0  0  0  0  0  0  0  0  0  0  0
    6.1335  -19.8897   20.1991 C   0  0  0  0  0  0  0  0  0  0  0  0
    5.5415  -19.2242   19.3255 O   0  0  0  0  0  0  0  0  0  0  0  0
    8.9653  -17.0414   22.2015 C   0  0  0  0  0  0  0  0  0  0  0  0
    8.9125  -15.8188   22.5738 O   0  0  0  0  0  0  0  0  0  0  0  0
    5.6680  -21.1560   20.4898 O   0  0  0  0  0  0  0  0  0  0  0  0
    8.0415  -14.9632   16.6910 N   0  0  0  0  0  0  0  0  0  0  0  0
    8.4111  -13.6722   17.1473 C   0  0  0  0  0  0  0  0  0  0  0  0
    9.0376  -12.8820   16.3622 N   0  0  0  0  0  0  0  0  0  0  0  0
    8.0996  -13.2333   18.4561 N   0  0  0  0  0  0  0  0  0  0  0  0
    7.4815  -14.1287   19.3995 C   0  0  0  0  0  0  0  0  0  0  0  0
    8.3616  -15.3637   19.5991 C   0  0  0  0  0  0  0  0  0  0  0  0
    9.6815  -15.0170   20.2035 C   0  0  0  0  0  0  0  0  0  0  0  0
   10.5602  -16.2185   20.4404 C   0  0  2  0  0  0  0  0  0  0  0  0
    9.8249  -17.2872   21.1172 N   0  0  0  0  0  0  0  0  0  0  0  0
   11.7524  -15.9331   21.2485 C   0  0  0  0  0  0  0  0  0  0  0  0
   11.8755  -16.4550   22.3767 O   0  0  0  0  0  0  0  0  0  0  0  0
   12.7872  -15.0959   20.8319 O   0  0  0  0  0  0  0  0  0  0  0  0
  2  1  1  1
  2  3  1  0
  3  4  1  0
  4  9  2  0
  4  5  1  0
  5  6  2  0
  6  7  1  0
  8  7  2  0
  9  8  1  0
 10  2  1  0
 10 11  2  0
 12 10  1  0
 13 12  1  0
 13 14  1  6
 15 14  1  0
 15 16  1  0
 16 17  2  0
 16 20  1  0
 18 13  1  0
 19 18  2  0
 22 21  1  0
 22 24  1  0
 23 22  2  0
 24 25  1  0
 25 26  1  0
 26 27  1  0
 28 27  1  1
 28 29  1  0
 29 18  1  0
 30 28  1  0
 30 32  1  0
 31 30  2  0
M  END
$$$$
