ILY.pdb
     RDKit          3D

 29 29  0  0  1  0  0  0  0  0999 V2000
    3.3015  -21.7619   23.2759 C   0  0  0  0  0  0  0  0  0  0  0  0
    4.6161  -21.4204   23.9906 C   0  0  0  0  0  0  0  0  0  0  0  0
    4.9438  -20.0103   23.6460 C   0  0  2  0  0  0  0  0  0  0  0  0
    5.0308  -19.8965   22.1331 C   0  0  0  0  0  0  0  0  0  0  0  0
    6.2338  -19.5125   24.2157 C   0  0  2  0  0  0  0  0  0  0  0  0
    6.2898  -19.8999   25.6136 N   0  0  0  0  0  0  0  0  0  0  0  0
    6.4363  -18.0661   24.0846 C   0  0  0  0  0  0  0  0  0  0  0  0
    6.3524  -17.5064   22.9613 O   0  0  0  0  0  0  0  0  0  0  0  0
    7.2718  -13.1797   27.7903 C   0  0  0  0  0  0  0  0  0  0  0  0
    7.1459  -13.6213   26.3141 C   0  0  2  0  0  0  0  0  0  0  0  0
    6.0470  -12.7617   25.7533 C   0  0  0  0  0  0  0  0  0  0  0  0
    6.8714  -15.0791   26.3596 C   0  0  0  0  0  0  0  0  0  0  0  0
    7.0731  -15.8378   25.0799 C   0  0  2  0  0  0  0  0  0  0  0  0
    6.7362  -17.2184   25.2052 N   0  0  0  0  0  0  0  0  0  0  0  0
    8.5183  -15.6660   24.6825 C   0  0  0  0  0  0  0  0  0  0  0  0
    9.2961  -15.2097   25.5487 O   0  0  0  0  0  0  0  0  0  0  0  0
    6.7597  -13.6825   17.8843 O   0  0  0  0  0  0  0  0  0  0  0  0
    7.5927  -13.7617   19.0063 C   0  0  0  0  0  0  0  0  0  0  0  0
    8.3613  -14.8771   19.2096 C   0  0  0  0  0  0  0  0  0  0  0  0
    9.1882  -14.9857   20.2993 C   0  0  0  0  0  0  0  0  0  0  0  0
    9.2903  -13.9852   21.2439 C   0  0  0  0  0  0  0  0  0  0  0  0
   10.1657  -14.0821   22.4339 C   0  0  0  0  0  0  0  0  0  0  0  0
   10.2700  -15.5050   22.8728 C   0  0  2  0  0  0  0  0  0  0  0  0
    9.0004  -15.9953   23.4026 N   0  0  0  0  0  0  0  0  0  0  0  0
   11.3864  -15.8161   23.7781 C   0  0  0  0  0  0  0  0  0  0  0  0
   12.5697  -15.5787   23.4805 O   0  0  0  0  0  0  0  0  0  0  0  0
    8.4993  -12.8505   21.0240 C   0  0  0  0  0  0  0  0  0  0  0  0
    7.6762  -12.7454   19.9364 C   0  0  0  0  0  0  0  0  0  0  0  0
   11.1169  -16.3932   25.0051 O   0  0  0  0  0  0  0  0  0  0  0  0
  1  2  1  0
  3  2  1  0
  3  4  1  6
  5  6  1  1
  5  3  1  0
  7  5  1  0
  8  7  2  0
 10  9  1  1
 10 12  1  0
 11 10  1  0
 13 12  1  1
 13 15  1  0
 13 14  1  0
 14  7  1  0
 15 24  1  0
 16 15  2  0
 17 18  1  0
 18 28  2  0
 19 18  1  0
 19 20  2  0
 20 21  1  0
 21 27  2  0
 21 22  1  0
 23 22  1  1
 23 25  1  0
 24 23  1  0
 25 26  2  0
 25 29  1  0
 28 27  1  0
M  END
$$$$
