ILY.pdb
     RDKit          3D

 29 29  0  0  1  0  0  0  0  0999 V2000
    3.8044  -18.0706   20.3442 C   0  0  0  0  0  0  0  0  0  0  0  0
    4.8674  -17.7615   21.4073 C   0  0  0  0  0  0  0  0  0  0  0  0
    6.1918  -18.0531   20.7944 C   0  0  2  0  0  0  0  0  0  0  0  0
    6.2250  -19.5220   20.4063 C   0  0  0  0  0  0  0  0  0  0  0  0
    7.3632  -17.7904   21.6861 C   0  0  2  0  0  0  0  0  0  0  0  0
    7.2164  -18.6068   22.8774 N   0  0  0  0  0  0  0  0  0  0  0  0
    7.5387  -16.3829   22.0575 C   0  0  0  0  0  0  0  0  0  0  0  0
    7.8706  -15.5291   21.1955 O   0  0  0  0  0  0  0  0  0  0  0  0
    6.5603  -12.7857   27.0104 C   0  0  0  0  0  0  0  0  0  0  0  0
    7.3327  -12.8778   25.6743 C   0  0  2  0  0  0  0  0  0  0  0  0
    6.8403  -11.7067   24.8699 C   0  0  0  0  0  0  0  0  0  0  0  0
    7.0171  -14.2207   25.1270 C   0  0  0  0  0  0  0  0  0  0  0  0
    7.6394  -14.5672   23.8054 C   0  0  2  0  0  0  0  0  0  0  0  0
    7.3469  -15.9028   23.3981 N   0  0  0  0  0  0  0  0  0  0  0  0
    9.1268  -14.3557   23.9435 C   0  0  0  0  0  0  0  0  0  0  0  0
    9.5390  -13.1757   23.9113 O   0  0  0  0  0  0  0  0  0  0  0  0
   11.1647  -17.1508   31.4296 O   0  0  0  0  0  0  0  0  0  0  0  0
   11.0040  -16.5485   30.1764 C   0  0  0  0  0  0  0  0  0  0  0  0
   10.9327  -15.1842   30.0780 C   0  0  0  0  0  0  0  0  0  0  0  0
   10.7753  -14.5629   28.8645 C   0  0  0  0  0  0  0  0  0  0  0  0
   10.6805  -15.2727   27.6852 C   0  0  0  0  0  0  0  0  0  0  0  0
   10.4992  -14.6277   26.3649 C   0  0  0  0  0  0  0  0  0  0  0  0
   10.8862  -15.5763   25.2792 C   0  0  2  0  0  0  0  0  0  0  0  0
   10.0354  -15.4178   24.1028 N   0  0  0  0  0  0  0  0  0  0  0  0
   11.0015  -16.9885   25.6733 C   0  0  0  0  0  0  0  0  0  0  0  0
   11.8551  -17.3846   26.4853 O   0  0  0  0  0  0  0  0  0  0  0  0
   10.7550  -16.6665   27.8000 C   0  0  0  0  0  0  0  0  0  0  0  0
   10.9121  -17.2826   29.0113 C   0  0  0  0  0  0  0  0  0  0  0  0
   10.1325  -17.9132   25.1245 O   0  0  0  0  0  0  0  0  0  0  0  0
  1  2  1  0
  3  2  1  0
  3  4  1  1
  5  6  1  1
  5  3  1  0
  7  5  1  0
  8  7  2  0
 10  9  1  1
 10 12  1  0
 11 10  1  0
 13 12  1  1
 13 15  1  0
 13 14  1  0
 14  7  1  0
 15 24  1  0
 16 15  2  0
 17 18  1  0
 18 28  2  0
 19 18  1  0
 19 20  2  0
 20 21  1  0
 21 27  2  0
 21 22  1  0
 23 22  1  1
 23 25  1  0
 24 23  1  0
 25 26  2  0
 25 29  1  0
 28 27  1  0
M  END
$$$$
