ILY.pdb
     RDKit          3D

 29 29  0  0  1  0  0  0  0  0999 V2000
   10.5130  -17.3921   18.3091 C   0  0  0  0  0  0  0  0  0  0  0  0
    9.2998  -17.3392   19.2477 C   0  0  0  0  0  0  0  0  0  0  0  0
    9.8116  -16.9828   20.5989 C   0  0  2  0  0  0  0  0  0  0  0  0
   10.8863  -17.9865   20.9823 C   0  0  0  0  0  0  0  0  0  0  0  0
    8.7772  -16.9873   21.6789 C   0  0  2  0  0  0  0  0  0  0  0  0
    7.4852  -16.7317   21.0684 N   0  0  0  0  0  0  0  0  0  0  0  0
    9.0239  -16.0264   22.7586 C   0  0  0  0  0  0  0  0  0  0  0  0
   10.1678  -15.9169   23.2702 O   0  0  0  0  0  0  0  0  0  0  0  0
    5.5551  -12.1370   26.1070 C   0  0  0  0  0  0  0  0  0  0  0  0
    6.9569  -12.7844   26.0283 C   0  0  2  0  0  0  0  0  0  0  0  0
    7.9142  -11.6408   26.2195 C   0  0  0  0  0  0  0  0  0  0  0  0
    7.0068  -13.4598   24.7077 C   0  0  0  0  0  0  0  0  0  0  0  0
    8.1454  -14.4130   24.4868 C   0  0  2  0  0  0  0  0  0  0  0  0
    7.9981  -15.1701   23.2867 N   0  0  0  0  0  0  0  0  0  0  0  0
    8.2115  -15.3163   25.6934 C   0  0  0  0  0  0  0  0  0  0  0  0
    7.1479  -15.8696   26.0488 O   0  0  0  0  0  0  0  0  0  0  0  0
    9.8536  -22.5376   29.8475 O   0  0  0  0  0  0  0  0  0  0  0  0
    9.7109  -21.4192   29.0181 C   0  0  0  0  0  0  0  0  0  0  0  0
    8.5853  -20.6436   29.1042 C   0  0  0  0  0  0  0  0  0  0  0  0
    8.4149  -19.5408   28.3055 C   0  0  0  0  0  0  0  0  0  0  0  0
    9.3609  -19.1551   27.3781 C   0  0  0  0  0  0  0  0  0  0  0  0
    9.1967  -17.9768   26.4968 C   0  0  0  0  0  0  0  0  0  0  0  0
    9.6351  -16.7425   27.2128 C   0  0  2  0  0  0  0  0  0  0  0  0
    9.4011  -15.5463   26.4082 N   0  0  0  0  0  0  0  0  0  0  0  0
   11.0023  -16.7674   27.7542 C   0  0  0  0  0  0  0  0  0  0  0  0
   11.9956  -16.4786   27.0650 O   0  0  0  0  0  0  0  0  0  0  0  0
   10.5069  -19.9565   27.3005 C   0  0  0  0  0  0  0  0  0  0  0  0
   10.6735  -21.0551   28.0985 C   0  0  0  0  0  0  0  0  0  0  0  0
   11.1962  -17.1236   29.0758 O   0  0  0  0  0  0  0  0  0  0  0  0
  1  2  1  0
  3  2  1  0
  3  4  1  1
  5  6  1  6
  5  3  1  0
  7  5  1  0
  8  7  2  0
 10  9  1  6
 10 12  1  0
 11 10  1  0
 13 12  1  1
 13 15  1  0
 13 14  1  0
 14  7  1  0
 15 24  1  0
 16 15  2  0
 17 18  1  0
 18 28  2  0
 19 18  1  0
 19 20  2  0
 20 21  1  0
 21 27  2  0
 21 22  1  0
 23 22  1  6
 23 25  1  0
 24 23  1  0
 25 26  2  0
 25 29  1  0
 28 27  1  0
M  END
$$$$
