ILY.pdb
     RDKit          3D

 29 29  0  0  1  0  0  0  0  0999 V2000
    8.8357  -19.3252   18.4341 C   0  0  0  0  0  0  0  0  0  0  0  0
    7.6668  -18.7028   19.2098 C   0  0  0  0  0  0  0  0  0  0  0  0
    8.2393  -17.6365   20.0757 C   0  0  2  0  0  0  0  0  0  0  0  0
    9.3591  -18.2442   20.9040 C   0  0  0  0  0  0  0  0  0  0  0  0
    7.2637  -17.0080   21.0190 C   0  0  2  0  0  0  0  0  0  0  0  0
    6.0707  -16.6591   20.2691 N   0  0  0  0  0  0  0  0  0  0  0  0
    7.7770  -15.8309   21.7266 C   0  0  0  0  0  0  0  0  0  0  0  0
    8.7099  -15.1444   21.2361 O   0  0  0  0  0  0  0  0  0  0  0  0
    6.6175  -12.8994   27.0848 C   0  0  0  0  0  0  0  0  0  0  0  0
    7.6159  -13.0077   25.9094 C   0  0  2  0  0  0  0  0  0  0  0  0
    7.6555  -11.6264   25.3166 C   0  0  0  0  0  0  0  0  0  0  0  0
    7.0782  -14.0765   25.0312 C   0  0  0  0  0  0  0  0  0  0  0  0
    7.8477  -14.3587   23.7734 C   0  0  2  0  0  0  0  0  0  0  0  0
    7.2582  -15.3987   22.9949 N   0  0  0  0  0  0  0  0  0  0  0  0
    9.2547  -14.7183   24.1824 C   0  0  0  0  0  0  0  0  0  0  0  0
   10.0726  -13.7790   24.2934 O   0  0  0  0  0  0  0  0  0  0  0  0
   10.3938  -14.1355   30.7721 O   0  0  0  0  0  0  0  0  0  0  0  0
   10.5321  -14.9237   29.6238 C   0  0  0  0  0  0  0  0  0  0  0  0
   11.2697  -14.4650   28.5647 C   0  0  0  0  0  0  0  0  0  0  0  0
   11.4247  -15.2132   27.4248 C   0  0  0  0  0  0  0  0  0  0  0  0
   10.8501  -16.4596   27.2831 C   0  0  0  0  0  0  0  0  0  0  0  0
   10.9923  -17.2820   26.0603 C   0  0  0  0  0  0  0  0  0  0  0  0
   11.0113  -16.4008   24.8555 C   0  0  2  0  0  0  0  0  0  0  0  0
    9.6596  -16.0417   24.4348 N   0  0  0  0  0  0  0  0  0  0  0  0
   11.8171  -16.8813   23.7229 C   0  0  0  0  0  0  0  0  0  0  0  0
   11.3561  -16.9780   22.5726 O   0  0  0  0  0  0  0  0  0  0  0  0
   10.0989  -16.9167   28.3733 C   0  0  0  0  0  0  0  0  0  0  0  0
    9.9466  -16.1682   29.5082 C   0  0  0  0  0  0  0  0  0  0  0  0
   13.1347  -17.2396   23.9388 O   0  0  0  0  0  0  0  0  0  0  0  0
  1  2  1  0
  3  2  1  0
  3  4  1  1
  5  6  1  6
  5  3  1  0
  7  5  1  0
  8  7  2  0
 10  9  1  1
 10 12  1  0
 11 10  1  0
 13 12  1  1
 13 15  1  0
 13 14  1  0
 14  7  1  0
 15 24  1  0
 16 15  2  0
 17 18  1  0
 18 28  2  0
 19 18  1  0
 19 20  2  0
 20 21  1  0
 21 27  2  0
 21 22  1  0
 23 22  1  1
 23 25  1  0
 24 23  1  0
 25 26  2  0
 25 29  1  0
 28 27  1  0
M  END
$$$$
