ILY.pdb
     RDKit          3D

 29 29  0  0  1  0  0  0  0  0999 V2000
   11.5314  -21.5687   19.0359 C   0  0  0  0  0  0  0  0  0  0  0  0
   10.2502  -20.8450   19.4722 C   0  0  0  0  0  0  0  0  0  0  0  0
   10.6144  -19.4215   19.7076 C   0  0  2  0  0  0  0  0  0  0  0  0
   11.7985  -19.3829   20.6594 C   0  0  0  0  0  0  0  0  0  0  0  0
    9.5240  -18.5886   20.3022 C   0  0  2  0  0  0  0  0  0  0  0  0
    8.3301  -18.7640   19.4952 N   0  0  0  0  0  0  0  0  0  0  0  0
    9.8468  -17.1633   20.4223 C   0  0  0  0  0  0  0  0  0  0  0  0
   10.7919  -16.6622   19.7607 O   0  0  0  0  0  0  0  0  0  0  0  0
    8.2314  -13.6533   18.8703 C   0  0  0  0  0  0  0  0  0  0  0  0
    7.4124  -14.2379   20.0440 C   0  0  2  0  0  0  0  0  0  0  0  0
    6.0983  -13.5091   19.9898 C   0  0  0  0  0  0  0  0  0  0  0  0
    8.2359  -14.0034   21.2562 C   0  0  0  0  0  0  0  0  0  0  0  0
    9.4362  -14.8881   21.4306 C   0  0  2  0  0  0  0  0  0  0  0  0
    9.1202  -16.2715   21.2833 N   0  0  0  0  0  0  0  0  0  0  0  0
   10.0045  -14.6043   22.7990 C   0  0  0  0  0  0  0  0  0  0  0  0
    9.4920  -13.6637   23.4441 O   0  0  0  0  0  0  0  0  0  0  0  0
   10.8254  -16.0571   31.0935 O   0  0  0  0  0  0  0  0  0  0  0  0
   10.6065  -15.8307   29.7297 C   0  0  0  0  0  0  0  0  0  0  0  0
   10.7351  -16.8611   28.8366 C   0  0  0  0  0  0  0  0  0  0  0  0
   10.5274  -16.6722   27.4933 C   0  0  0  0  0  0  0  0  0  0  0  0
   10.1804  -15.4428   26.9717 C   0  0  0  0  0  0  0  0  0  0  0  0
    9.9618  -15.2097   25.5261 C   0  0  0  0  0  0  0  0  0  0  0  0
   11.0866  -15.7987   24.7412 C   0  0  2  0  0  0  0  0  0  0  0  0
   11.0636  -15.3466   23.3527 N   0  0  0  0  0  0  0  0  0  0  0  0
   11.2331  -17.2595   24.8287 C   0  0  0  0  0  0  0  0  0  0  0  0
   10.3398  -18.0405   24.4585 O   0  0  0  0  0  0  0  0  0  0  0  0
   10.0521  -14.3982   27.8957 C   0  0  0  0  0  0  0  0  0  0  0  0
   10.2597  -14.5901   29.2342 C   0  0  0  0  0  0  0  0  0  0  0  0
   12.4033  -17.7889   25.3400 O   0  0  0  0  0  0  0  0  0  0  0  0
  1  2  1  0
  3  2  1  0
  3  4  1  1
  5  6  1  6
  5  3  1  0
  7  5  1  0
  8  7  2  0
 10  9  1  6
 10 12  1  0
 11 10  1  0
 13 12  1  1
 13 15  1  0
 13 14  1  0
 14  7  1  0
 15 24  1  0
 16 15  2  0
 17 18  1  0
 18 28  2  0
 19 18  1  0
 19 20  2  0
 20 21  1  0
 21 27  2  0
 21 22  1  0
 23 22  1  6
 23 25  1  0
 24 23  1  0
 25 26  2  0
 25 29  1  0
 28 27  1  0
M  END
$$$$
