ILY.pdb
     RDKit          3D

 29 29  0  0  1  0  0  0  0  0999 V2000
    4.6003  -15.8631   20.8581 C   0  0  0  0  0  0  0  0  0  0  0  0
    6.0303  -15.3424   21.0568 C   0  0  0  0  0  0  0  0  0  0  0  0
    6.9489  -16.3757   20.5064 C   0  0  2  0  0  0  0  0  0  0  0  0
    6.1084  -17.4956   19.9159 C   0  0  0  0  0  0  0  0  0  0  0  0
    7.8777  -16.9826   21.5091 C   0  0  2  0  0  0  0  0  0  0  0  0
    7.0829  -17.7300   22.4668 N   0  0  0  0  0  0  0  0  0  0  0  0
    8.7315  -16.0163   22.2072 C   0  0  0  0  0  0  0  0  0  0  0  0
    9.7814  -15.5817   21.6677 O   0  0  0  0  0  0  0  0  0  0  0  0
    7.4464  -12.2483   24.0371 C   0  0  0  0  0  0  0  0  0  0  0  0
    7.2307  -13.4175   25.0254 C   0  0  2  0  0  0  0  0  0  0  0  0
    6.4634  -12.8118   26.1680 C   0  0  0  0  0  0  0  0  0  0  0  0
    8.5900  -13.9180   25.3484 C   0  0  0  0  0  0  0  0  0  0  0  0
    9.3030  -14.6668   24.2600 C   0  0  2  0  0  0  0  0  0  0  0  0
    8.4289  -15.5177   23.5203 N   0  0  0  0  0  0  0  0  0  0  0  0
   10.4072  -15.4600   24.9137 C   0  0  0  0  0  0  0  0  0  0  0  0
   11.3224  -14.8121   25.4671 O   0  0  0  0  0  0  0  0  0  0  0  0
   10.0980  -14.4994   30.9675 O   0  0  0  0  0  0  0  0  0  0  0  0
   10.2735  -15.4360   29.9422 C   0  0  0  0  0  0  0  0  0  0  0  0
   11.3875  -16.2327   29.9277 C   0  0  0  0  0  0  0  0  0  0  0  0
   11.5892  -17.1605   28.9369 C   0  0  0  0  0  0  0  0  0  0  0  0
   10.6880  -17.3406   27.9077 C   0  0  0  0  0  0  0  0  0  0  0  0
   10.8871  -18.3261   26.8210 C   0  0  0  0  0  0  0  0  0  0  0  0
   11.4517  -17.6472   25.6174 C   0  0  2  0  0  0  0  0  0  0  0  0
   10.4348  -16.8666   24.9178 N   0  0  0  0  0  0  0  0  0  0  0  0
   12.2021  -18.5070   24.6898 C   0  0  0  0  0  0  0  0  0  0  0  0
   13.1928  -19.1665   25.0484 O   0  0  0  0  0  0  0  0  0  0  0  0
    9.5535  -16.5198   27.9347 C   0  0  0  0  0  0  0  0  0  0  0  0
    9.3554  -15.5961   28.9241 C   0  0  0  0  0  0  0  0  0  0  0  0
   11.7963  -18.5889   23.3708 O   0  0  0  0  0  0  0  0  0  0  0  0
  1  2  1  0
  3  2  1  0
  3  4  1  1
  5  6  1  1
  5  3  1  0
  7  5  1  0
  8  7  2  0
 10  9  1  6
 10 12  1  0
 11 10  1  0
 13 12  1  1
 13 15  1  0
 13 14  1  0
 14  7  1  0
 15 24  1  0
 16 15  2  0
 17 18  1  0
 18 28  2  0
 19 18  1  0
 19 20  2  0
 20 21  1  0
 21 27  2  0
 21 22  1  0
 23 22  1  1
 23 25  1  0
 24 23  1  0
 25 26  2  0
 25 29  1  0
 28 27  1  0
M  END
$$$$
