ILY.pdb
     RDKit          3D

 29 29  0  0  1  0  0  0  0  0999 V2000
    7.0811  -12.8884   18.1142 C   0  0  0  0  0  0  0  0  0  0  0  0
    7.1484  -13.6831   19.4255 C   0  0  0  0  0  0  0  0  0  0  0  0
    8.1424  -14.7718   19.2226 C   0  0  2  0  0  0  0  0  0  0  0  0
    7.6051  -15.7170   18.1608 C   0  0  0  0  0  0  0  0  0  0  0  0
    8.4399  -15.5807   20.4447 C   0  0  2  0  0  0  0  0  0  0  0  0
    7.2692  -16.3820   20.7523 N   0  0  0  0  0  0  0  0  0  0  0  0
    8.8311  -14.7890   21.6153 C   0  0  0  0  0  0  0  0  0  0  0  0
    9.9051  -14.1344   21.6166 O   0  0  0  0  0  0  0  0  0  0  0  0
    6.1950  -13.0313   26.9514 C   0  0  0  0  0  0  0  0  0  0  0  0
    7.4852  -12.9376   26.1046 C   0  0  2  0  0  0  0  0  0  0  0  0
    7.6418  -11.4708   25.8129 C   0  0  0  0  0  0  0  0  0  0  0  0
    7.2508  -13.8125   24.9290 C   0  0  0  0  0  0  0  0  0  0  0  0
    8.3711  -13.9103   23.9344 C   0  0  2  0  0  0  0  0  0  0  0  0
    8.0301  -14.7137   22.8058 N   0  0  0  0  0  0  0  0  0  0  0  0
    9.5655  -14.4761   24.6619 C   0  0  0  0  0  0  0  0  0  0  0  0
    9.9837  -13.8371   25.6521 O   0  0  0  0  0  0  0  0  0  0  0  0
   10.3714  -14.5867   31.1969 O   0  0  0  0  0  0  0  0  0  0  0  0
   10.1537  -15.1816   29.9488 C   0  0  0  0  0  0  0  0  0  0  0  0
   10.4304  -16.5107   29.7676 C   0  0  0  0  0  0  0  0  0  0  0  0
   10.2282  -17.1238   28.5567 C   0  0  0  0  0  0  0  0  0  0  0  0
    9.7388  -16.4404   27.4624 C   0  0  0  0  0  0  0  0  0  0  0  0
    9.5223  -17.0752   26.1426 C   0  0  0  0  0  0  0  0  0  0  0  0
   10.6265  -16.6992   25.2112 C   0  0  2  0  0  0  0  0  0  0  0  0
   10.2027  -15.6671   24.2688 N   0  0  0  0  0  0  0  0  0  0  0  0
   11.2921  -17.8154   24.5228 C   0  0  0  0  0  0  0  0  0  0  0  0
   12.0286  -18.6199   25.1190 O   0  0  0  0  0  0  0  0  0  0  0  0
    9.4599  -15.0825   27.6614 C   0  0  0  0  0  0  0  0  0  0  0  0
    9.6626  -14.4745   28.8700 C   0  0  0  0  0  0  0  0  0  0  0  0
   11.0956  -17.9812   23.1644 O   0  0  0  0  0  0  0  0  0  0  0  0
  1  2  1  0
  3  2  1  0
  3  4  1  6
  5  6  1  1
  5  3  1  0
  7  5  1  0
  8  7  2  0
 10  9  1  1
 10 12  1  0
 11 10  1  0
 13 12  1  1
 13 15  1  0
 13 14  1  0
 14  7  1  0
 15 24  1  0
 16 15  2  0
 17 18  1  0
 18 28  2  0
 19 18  1  0
 19 20  2  0
 20 21  1  0
 21 27  2  0
 21 22  1  0
 23 22  1  6
 23 25  1  0
 24 23  1  0
 25 26  2  0
 25 29  1  0
 28 27  1  0
M  END
$$$$
