ILY.pdb
     RDKit          3D

 29 29  0  0  1  0  0  0  0  0999 V2000
   11.5668  -21.8123   19.9287 C   0  0  0  0  0  0  0  0  0  0  0  0
   10.3682  -20.9527   19.5043 C   0  0  0  0  0  0  0  0  0  0  0  0
   10.6871  -19.5482   19.8787 C   0  0  2  0  0  0  0  0  0  0  0  0
   11.1046  -19.5269   21.3398 C   0  0  0  0  0  0  0  0  0  0  0  0
    9.5541  -18.5861   19.7141 C   0  0  2  0  0  0  0  0  0  0  0  0
    9.0732  -18.6838   18.3479 N   0  0  0  0  0  0  0  0  0  0  0  0
    9.8893  -17.1947   20.0326 C   0  0  0  0  0  0  0  0  0  0  0  0
   10.9317  -16.6644   19.5696 O   0  0  0  0  0  0  0  0  0  0  0  0
    8.0673  -13.4187   18.8625 C   0  0  0  0  0  0  0  0  0  0  0  0
    7.2704  -14.1914   19.9385 C   0  0  2  0  0  0  0  0  0  0  0  0
    5.9515  -13.4740   20.0220 C   0  0  0  0  0  0  0  0  0  0  0  0
    8.1118  -14.1488   21.1603 C   0  0  0  0  0  0  0  0  0  0  0  0
    9.3491  -14.9990   21.1501 C   0  0  2  0  0  0  0  0  0  0  0  0
    9.0669  -16.3698   20.8738 N   0  0  0  0  0  0  0  0  0  0  0  0
   10.0094  -14.8419   22.4975 C   0  0  0  0  0  0  0  0  0  0  0  0
   10.0658  -13.6865   22.9722 O   0  0  0  0  0  0  0  0  0  0  0  0
   10.7252  -15.3682   30.9950 O   0  0  0  0  0  0  0  0  0  0  0  0
   10.4521  -15.3951   29.6226 C   0  0  0  0  0  0  0  0  0  0  0  0
   10.5470  -14.2455   28.8841 C   0  0  0  0  0  0  0  0  0  0  0  0
   10.2860  -14.2383   27.5369 C   0  0  0  0  0  0  0  0  0  0  0  0
    9.9157  -15.3801   26.8566 C   0  0  0  0  0  0  0  0  0  0  0  0
    9.6177  -15.3972   25.4065 C   0  0  0  0  0  0  0  0  0  0  0  0
   10.8056  -15.8918   24.6500 C   0  0  2  0  0  0  0  0  0  0  0  0
   10.5473  -15.9272   23.2130 N   0  0  0  0  0  0  0  0  0  0  0  0
   11.3851  -17.1579   25.1235 C   0  0  0  0  0  0  0  0  0  0  0  0
   12.4102  -17.1985   25.8254 O   0  0  0  0  0  0  0  0  0  0  0  0
    9.8225  -16.5484   27.6233 C   0  0  0  0  0  0  0  0  0  0  0  0
   10.0837  -16.5520   28.9662 C   0  0  0  0  0  0  0  0  0  0  0  0
   10.7727  -18.3485   24.7792 O   0  0  0  0  0  0  0  0  0  0  0  0
  1  2  1  0
  3  2  1  0
  3  4  1  1
  5  6  1  6
  5  3  1  0
  7  5  1  0
  8  7  2  0
 10  9  1  6
 10 12  1  0
 11 10  1  0
 13 12  1  1
 13 15  1  0
 13 14  1  0
 14  7  1  0
 15 24  1  0
 16 15  2  0
 17 18  1  0
 18 28  2  0
 19 18  1  0
 19 20  2  0
 20 21  1  0
 21 27  2  0
 21 22  1  0
 23 22  1  1
 23 25  1  0
 24 23  1  0
 25 26  2  0
 25 29  1  0
 28 27  1  0
M  END
$$$$
