ILY.pdb
     RDKit          3D

 29 29  0  0  1  0  0  0  0  0999 V2000
    9.3284  -21.9790   17.8970 C   0  0  0  0  0  0  0  0  0  0  0  0
    9.0293  -20.5864   17.3254 C   0  0  0  0  0  0  0  0  0  0  0  0
    9.4429  -19.5960   18.3562 C   0  0  2  0  0  0  0  0  0  0  0  0
    8.6219  -19.8422   19.6111 C   0  0  0  0  0  0  0  0  0  0  0  0
    9.2528  -18.1666   17.9599 C   0  0  2  0  0  0  0  0  0  0  0  0
    9.9837  -17.9386   16.7266 N   0  0  0  0  0  0  0  0  0  0  0  0
    9.6655  -17.1953   18.9778 C   0  0  0  0  0  0  0  0  0  0  0  0
   10.8765  -17.0758   19.2961 O   0  0  0  0  0  0  0  0  0  0  0  0
    9.0617  -12.6456   19.1427 C   0  0  0  0  0  0  0  0  0  0  0  0
    7.8258  -13.5228   19.4476 C   0  0  2  0  0  0  0  0  0  0  0  0
    6.6771  -12.5540   19.5028 C   0  0  0  0  0  0  0  0  0  0  0  0
    8.1436  -14.2268   20.7149 C   0  0  0  0  0  0  0  0  0  0  0  0
    9.1220  -15.3616   20.6222 C   0  0  2  0  0  0  0  0  0  0  0  0
    8.7336  -16.3396   19.6590 N   0  0  0  0  0  0  0  0  0  0  0  0
    9.2318  -15.9695   21.9986 C   0  0  0  0  0  0  0  0  0  0  0  0
    8.2581  -16.6418   22.4029 O   0  0  0  0  0  0  0  0  0  0  0  0
   13.3312  -22.2796   25.9783 O   0  0  0  0  0  0  0  0  0  0  0  0
   12.7732  -21.2630   25.1945 C   0  0  0  0  0  0  0  0  0  0  0  0
   13.5565  -20.5797   24.3026 C   0  0  0  0  0  0  0  0  0  0  0  0
   13.0400  -19.5780   23.5196 C   0  0  0  0  0  0  0  0  0  0  0  0
   11.7131  -19.2060   23.5872 C   0  0  0  0  0  0  0  0  0  0  0  0
   11.1336  -18.1218   22.7622 C   0  0  0  0  0  0  0  0  0  0  0  0
   10.9600  -16.8918   23.5900 C   0  0  2  0  0  0  0  0  0  0  0  0
   10.3656  -15.8058   22.8152 N   0  0  0  0  0  0  0  0  0  0  0  0
   12.1519  -16.4394   24.3232 C   0  0  0  0  0  0  0  0  0  0  0  0
   12.3237  -16.6858   25.5294 O   0  0  0  0  0  0  0  0  0  0  0  0
   10.9234  -19.9128   24.5029 C   0  0  0  0  0  0  0  0  0  0  0  0
   11.4415  -20.9110   25.2817 C   0  0  0  0  0  0  0  0  0  0  0  0
   13.1192  -15.7140   23.6529 O   0  0  0  0  0  0  0  0  0  0  0  0
  1  2  1  0
  3  2  1  0
  3  4  1  1
  5  6  1  6
  5  3  1  0
  7  5  1  0
  8  7  2  0
 10  9  1  1
 10 12  1  0
 11 10  1  0
 13 12  1  1
 13 15  1  0
 13 14  1  0
 14  7  1  0
 15 24  1  0
 16 15  2  0
 17 18  1  0
 18 28  2  0
 19 18  1  0
 19 20  2  0
 20 21  1  0
 21 27  2  0
 21 22  1  0
 23 22  1  6
 23 25  1  0
 24 23  1  0
 25 26  2  0
 25 29  1  0
 28 27  1  0
M  END
$$$$
