ILY.pdb
     RDKit          3D

 29 29  0  0  1  0  0  0  0  0999 V2000
    7.7643  -12.4497   19.4589 C   0  0  0  0  0  0  0  0  0  0  0  0
    7.3850  -13.4916   20.5201 C   0  0  0  0  0  0  0  0  0  0  0  0
    8.3654  -14.6051   20.4051 C   0  0  2  0  0  0  0  0  0  0  0  0
    8.1698  -15.2759   19.0555 C   0  0  0  0  0  0  0  0  0  0  0  0
    8.2406  -15.6578   21.4600 C   0  0  2  0  0  0  0  0  0  0  0  0
    6.9614  -16.3219   21.2864 N   0  0  0  0  0  0  0  0  0  0  0  0
    8.3675  -15.1584   22.8327 C   0  0  0  0  0  0  0  0  0  0  0  0
    9.4911  -14.8332   23.2952 O   0  0  0  0  0  0  0  0  0  0  0  0
    7.9829  -12.1369   26.4107 C   0  0  0  0  0  0  0  0  0  0  0  0
    6.7501  -12.2294   25.4822 C   0  0  2  0  0  0  0  0  0  0  0  0
    5.7700  -11.2425   26.0535 C   0  0  0  0  0  0  0  0  0  0  0  0
    6.3340  -13.6535   25.5182 C   0  0  0  0  0  0  0  0  0  0  0  0
    7.3617  -14.6614   25.0917 C   0  0  2  0  0  0  0  0  0  0  0  0
    7.2422  -15.0130   23.7143 N   0  0  0  0  0  0  0  0  0  0  0  0
    7.1939  -15.8715   25.9769 C   0  0  0  0  0  0  0  0  0  0  0  0
    6.0307  -16.3000   26.1403 O   0  0  0  0  0  0  0  0  0  0  0  0
    7.6585  -24.0185   28.5996 O   0  0  0  0  0  0  0  0  0  0  0  0
    7.6305  -22.7429   28.0242 C   0  0  0  0  0  0  0  0  0  0  0  0
    8.7028  -22.2971   27.2979 C   0  0  0  0  0  0  0  0  0  0  0  0
    8.7069  -21.0519   26.7211 C   0  0  0  0  0  0  0  0  0  0  0  0
    7.6391  -20.1862   26.8402 C   0  0  0  0  0  0  0  0  0  0  0  0
    7.6226  -18.8340   26.2376 C   0  0  0  0  0  0  0  0  0  0  0  0
    8.1885  -17.8427   27.1995 C   0  0  2  0  0  0  0  0  0  0  0  0
    8.2779  -16.5118   26.6048 N   0  0  0  0  0  0  0  0  0  0  0  0
    9.4511  -18.2278   27.8479 C   0  0  0  0  0  0  0  0  0  0  0  0
    9.4870  -18.7549   28.9731 O   0  0  0  0  0  0  0  0  0  0  0  0
    6.5494  -20.6545   27.5850 C   0  0  0  0  0  0  0  0  0  0  0  0
    6.5487  -21.8965   28.1585 C   0  0  0  0  0  0  0  0  0  0  0  0
   10.6439  -17.9981   27.1877 O   0  0  0  0  0  0  0  0  0  0  0  0
  1  2  1  0
  3  2  1  0
  3  4  1  6
  5  6  1  1
  5  3  1  0
  7  5  1  0
  8  7  2  0
 10  9  1  1
 10 12  1  0
 11 10  1  0
 13 12  1  1
 13 15  1  0
 13 14  1  0
 14  7  1  0
 15 24  1  0
 16 15  2  0
 17 18  1  0
 18 28  2  0
 19 18  1  0
 19 20  2  0
 20 21  1  0
 21 27  2  0
 21 22  1  0
 23 22  1  6
 23 25  1  0
 24 23  1  0
 25 26  2  0
 25 29  1  0
 28 27  1  0
M  END
$$$$
