KFI.pdb
     RDKit          3D

 29 29  0  0  1  0  0  0  0  0999 V2000
   28.6774  -22.4289  -16.7901 N   0  0  0  0  0  0  0  0  0  0  0  0
   27.7024  -21.4027  -16.5906 C   0  0  1  0  0  0  0  0  0  0  0  0
   26.7038  -21.3096  -17.7204 C   0  0  0  0  0  0  0  0  0  0  0  0
   27.0333  -20.2337  -18.7015 C   0  0  0  0  0  0  0  0  0  0  0  0
   28.3250  -20.4546  -19.4263 C   0  0  0  0  0  0  0  0  0  0  0  0
   28.6676  -19.3364  -20.3724 C   0  0  0  0  0  0  0  0  0  0  0  0
   29.9524  -19.6551  -20.9708 N   0  0  0  0  0  0  0  0  0  0  0  0
   27.0390  -21.5974  -15.2932 C   0  0  0  0  0  0  0  0  0  0  0  0
   26.1054  -22.4598  -15.2041 O   0  0  0  0  0  0  0  0  0  0  0  0
   27.3707  -20.8817  -14.1162 N   0  0  0  0  0  0  0  0  0  0  0  0
   26.7002  -21.1624  -12.8208 C   0  0  1  0  0  0  0  0  0  0  0  0
   27.5266  -20.4946  -11.8014 C   0  0  0  0  0  0  0  0  0  0  0  0
   27.0792  -20.4506  -10.4260 C   0  0  0  0  0  0  0  0  0  0  0  0
   26.3013  -19.3931  -10.0008 C   0  0  0  0  0  0  0  0  0  0  0  0
   25.8545  -19.3104   -8.6915 C   0  0  0  0  0  0  0  0  0  0  0  0
   26.1783  -20.2902   -7.7740 C   0  0  0  0  0  0  0  0  0  0  0  0
   26.9574  -21.3555   -8.1884 C   0  0  0  0  0  0  0  0  0  0  0  0
   27.4052  -21.4451   -9.4867 C   0  0  0  0  0  0  0  0  0  0  0  0
   25.3344  -20.6164  -12.9691 C   0  0  0  0  0  0  0  0  0  0  0  0
   25.1762  -19.4588  -13.5073 O   0  0  0  0  0  0  0  0  0  0  0  0
   20.6246  -19.9385  -15.5980 C   0  0  0  0  0  0  0  0  0  0  0  0
   20.8190  -20.3833  -14.1814 C   0  0  0  0  0  0  0  0  0  0  0  0
   22.1451  -21.0468  -13.9469 C   0  0  2  0  0  0  0  0  0  0  0  0
   21.9252  -22.5401  -13.9053 C   0  0  0  0  0  0  0  0  0  0  0  0
   22.8688  -20.5577  -12.7052 C   0  0  2  0  0  0  0  0  0  0  0  0
   24.1414  -21.2594  -12.5721 N   0  0  0  0  0  0  0  0  0  0  0  0
   21.9948  -20.7625  -11.5302 C   0  0  0  0  0  0  0  0  0  0  0  0
   22.2225  -21.6721  -10.6714 O   0  0  0  0  0  0  0  0  0  0  0  0
   20.8733  -19.9845  -11.2801 O   0  0  0  0  0  0  0  0  0  0  0  0
  2  1  1  6
  2  3  1  0
  4  3  1  0
  4  5  1  0
  6  5  1  0
  6  7  1  0
  8  2  1  0
  9  8  2  0
 10  8  1  0
 11 10  1  0
 11 12  1  1
 12 13  1  0
 13 18  2  0
 14 13  1  0
 14 15  2  0
 15 16  1  0
 16 17  2  0
 18 17  1  0
 19 26  1  0
 19 11  1  0
 20 19  2  0
 22 21  1  0
 23 22  1  0
 23 24  1  1
 25 23  1  0
 25 26  1  1
 27 25  1  0
 27 29  1  0
 28 27  2  0
M  END
$$$$
