KFI.pdb
     RDKit          3D

 29 29  0  0  1  0  0  0  0  0999 V2000
   27.4301  -21.1794  -14.0591 N   0  0  0  0  0  0  0  0  0  0  0  0
   27.1358  -20.0900  -13.1815 C   0  0  1  0  0  0  0  0  0  0  0  0
   25.9157  -19.3054  -13.6031 C   0  0  0  0  0  0  0  0  0  0  0  0
   26.1876  -18.3689  -14.7336 C   0  0  0  0  0  0  0  0  0  0  0  0
   27.2230  -18.8682  -15.6933 C   0  0  0  0  0  0  0  0  0  0  0  0
   27.4149  -17.9598  -16.8769 C   0  0  0  0  0  0  0  0  0  0  0  0
   28.6801  -17.2704  -16.6918 N   0  0  0  0  0  0  0  0  0  0  0  0
   27.0139  -20.5858  -11.8028 C   0  0  0  0  0  0  0  0  0  0  0  0
   26.6257  -21.7844  -11.6134 O   0  0  0  0  0  0  0  0  0  0  0  0
   27.3026  -19.8114  -10.6519 N   0  0  0  0  0  0  0  0  0  0  0  0
   27.1880  -20.3795   -9.2842 C   0  0  1  0  0  0  0  0  0  0  0  0
   28.1347  -19.6083   -8.4613 C   0  0  0  0  0  0  0  0  0  0  0  0
   28.0857  -19.7106   -7.0187 C   0  0  0  0  0  0  0  0  0  0  0  0
   28.6064  -20.8296   -6.4016 C   0  0  0  0  0  0  0  0  0  0  0  0
   28.5768  -20.9692   -5.0230 C   0  0  0  0  0  0  0  0  0  0  0  0
   28.0223  -19.9861   -4.2277 C   0  0  0  0  0  0  0  0  0  0  0  0
   27.4972  -18.8595   -4.8348 C   0  0  0  0  0  0  0  0  0  0  0  0
   27.5225  -18.7131   -6.2030 C   0  0  0  0  0  0  0  0  0  0  0  0
   25.7658  -20.2122   -8.9167 C   0  0  0  0  0  0  0  0  0  0  0  0
   25.2309  -19.0448   -8.9930 O   0  0  0  0  0  0  0  0  0  0  0  0
   20.4670  -20.8764  -10.6190 C   0  0  0  0  0  0  0  0  0  0  0  0
   21.2480  -20.7031   -9.3532 C   0  0  0  0  0  0  0  0  0  0  0  0
   22.6941  -21.0801   -9.4947 C   0  0  2  0  0  0  0  0  0  0  0  0
   22.7644  -22.4898  -10.0311 C   0  0  0  0  0  0  0  0  0  0  0  0
   23.4983  -20.9326   -8.2154 C   0  0  2  0  0  0  0  0  0  0  0  0
   24.9002  -21.2391   -8.4805 N   0  0  0  0  0  0  0  0  0  0  0  0
   22.9205  -21.8186   -7.1823 C   0  0  0  0  0  0  0  0  0  0  0  0
   23.5796  -22.7796   -6.6735 O   0  0  0  0  0  0  0  0  0  0  0  0
   21.6297  -21.6679   -6.6960 O   0  0  0  0  0  0  0  0  0  0  0  0
  2  1  1  6
  2  3  1  0
  4  3  1  0
  4  5  1  0
  6  5  1  0
  6  7  1  0
  8  2  1  0
  9  8  2  0
 10  8  1  0
 11 10  1  0
 11 12  1  1
 12 13  1  0
 13 18  2  0
 14 13  1  0
 14 15  2  0
 15 16  1  0
 16 17  2  0
 18 17  1  0
 19 26  1  0
 19 11  1  0
 20 19  2  0
 22 21  1  0
 23 22  1  0
 23 24  1  1
 25 23  1  0
 25 26  1  6
 27 25  1  0
 27 29  1  0
 28 27  2  0
M  END
$$$$
