KFI.pdb
     RDKit          3D

 29 29  0  0  1  0  0  0  0  0999 V2000
   26.4840  -21.5805  -13.3934 N   0  0  0  0  0  0  0  0  0  0  0  0
   26.1675  -20.4683  -12.5530 C   0  0  1  0  0  0  0  0  0  0  0  0
   24.8018  -19.8866  -12.8333 C   0  0  0  0  0  0  0  0  0  0  0  0
   24.2730  -20.2636  -14.1776 C   0  0  0  0  0  0  0  0  0  0  0  0
   23.5374  -21.5678  -14.1913 C   0  0  0  0  0  0  0  0  0  0  0  0
   22.9805  -21.9152  -15.5448 C   0  0  0  0  0  0  0  0  0  0  0  0
   22.3631  -23.2256  -15.4347 N   0  0  0  0  0  0  0  0  0  0  0  0
   26.3138  -20.8575  -11.1429 C   0  0  0  0  0  0  0  0  0  0  0  0
   26.0433  -22.0558  -10.8054 O   0  0  0  0  0  0  0  0  0  0  0  0
   26.7415  -19.9789  -10.1168 N   0  0  0  0  0  0  0  0  0  0  0  0
   26.9524  -20.4536   -8.7252 C   0  0  1  0  0  0  0  0  0  0  0  0
   28.0161  -19.5952   -8.1776 C   0  0  0  0  0  0  0  0  0  0  0  0
   28.3416  -19.6601   -6.7692 C   0  0  0  0  0  0  0  0  0  0  0  0
   29.0496  -20.7422   -6.2873 C   0  0  0  0  0  0  0  0  0  0  0  0
   29.3791  -20.8453   -4.9451 C   0  0  0  0  0  0  0  0  0  0  0  0
   29.0051  -19.8620   -4.0509 C   0  0  0  0  0  0  0  0  0  0  0  0
   28.2951  -18.7722   -4.5219 C   0  0  0  0  0  0  0  0  0  0  0  0
   27.9639  -18.6621   -5.8533 C   0  0  0  0  0  0  0  0  0  0  0  0
   25.6367  -20.3092   -8.0665 C   0  0  0  0  0  0  0  0  0  0  0  0
   24.9530  -19.2367   -8.2584 O   0  0  0  0  0  0  0  0  0  0  0  0
   22.2515  -24.5520   -6.6823 C   0  0  0  0  0  0  0  0  0  0  0  0
   23.1904  -23.4334   -6.3517 C   0  0  0  0  0  0  0  0  0  0  0  0
   22.7668  -22.1151   -6.9315 C   0  0  2  0  0  0  0  0  0  0  0  0
   22.5667  -22.2951   -8.4173 C   0  0  0  0  0  0  0  0  0  0  0  0
   23.7236  -20.9744   -6.6348 C   0  0  2  0  0  0  0  0  0  0  0  0
   25.0275  -21.2637   -7.2226 N   0  0  0  0  0  0  0  0  0  0  0  0
   23.8029  -20.7850   -5.1704 C   0  0  0  0  0  0  0  0  0  0  0  0
   22.7895  -20.4526   -4.4782 O   0  0  0  0  0  0  0  0  0  0  0  0
   24.9770  -20.9552   -4.4507 O   0  0  0  0  0  0  0  0  0  0  0  0
  2  1  1  6
  2  3  1  0
  4  3  1  0
  4  5  1  0
  6  5  1  0
  6  7  1  0
  8  2  1  0
  9  8  2  0
 10  8  1  0
 11 10  1  0
 11 12  1  1
 12 13  1  0
 13 18  2  0
 14 13  1  0
 14 15  2  0
 15 16  1  0
 16 17  2  0
 18 17  1  0
 19 26  1  0
 19 11  1  0
 20 19  2  0
 22 21  1  0
 23 22  1  0
 23 24  1  6
 25 23  1  0
 25 26  1  1
 27 25  1  0
 27 29  1  0
 28 27  2  0
M  END
$$$$
