KFI.pdb
     RDKit          3D

 29 29  0  0  1  0  0  0  0  0999 V2000
   19.8517  -10.1187  -20.7541 N   0  0  0  0  0  0  0  0  0  0  0  0
   20.4269   -8.9372  -20.1913 C   0  0  1  0  0  0  0  0  0  0  0  0
   19.7974   -7.6674  -20.7144 C   0  0  0  0  0  0  0  0  0  0  0  0
   20.0027   -7.4771  -22.1808 C   0  0  0  0  0  0  0  0  0  0  0  0
   18.9351   -8.1024  -23.0244 C   0  0  0  0  0  0  0  0  0  0  0  0
   19.1272   -7.8547  -24.4957 C   0  0  0  0  0  0  0  0  0  0  0  0
   18.0577   -8.5471  -25.1937 N   0  0  0  0  0  0  0  0  0  0  0  0
   20.3668   -9.0095  -18.7241 C   0  0  0  0  0  0  0  0  0  0  0  0
   19.2297   -9.1233  -18.1610 O   0  0  0  0  0  0  0  0  0  0  0  0
   21.5033   -8.9607  -17.8794 N   0  0  0  0  0  0  0  0  0  0  0  0
   21.3978   -9.2121  -16.4192 C   0  0  1  0  0  0  0  0  0  0  0  0
   22.1750  -10.4392  -16.1779 C   0  0  0  0  0  0  0  0  0  0  0  0
   21.6462  -11.7209  -16.5920 C   0  0  0  0  0  0  0  0  0  0  0  0
   20.7182  -12.3595  -15.7950 C   0  0  0  0  0  0  0  0  0  0  0  0
   20.1889  -13.5895  -16.1526 C   0  0  0  0  0  0  0  0  0  0  0  0
   20.5792  -14.2105  -17.3226 C   0  0  0  0  0  0  0  0  0  0  0  0
   21.5088  -13.5800  -18.1300 C   0  0  0  0  0  0  0  0  0  0  0  0
   22.0393  -12.3586  -17.7821 C   0  0  0  0  0  0  0  0  0  0  0  0
   21.9424   -7.9956  -15.7796 C   0  0  0  0  0  0  0  0  0  0  0  0
   23.0949   -7.5566  -16.1452 O   0  0  0  0  0  0  0  0  0  0  0  0
   21.0665   -2.3051  -14.8756 C   0  0  0  0  0  0  0  0  0  0  0  0
   21.7534   -3.4991  -14.2883 C   0  0  0  0  0  0  0  0  0  0  0  0
   21.2044   -4.8031  -14.7902 C   0  0  2  0  0  0  0  0  0  0  0  0
   19.7359   -4.8619  -14.4435 C   0  0  0  0  0  0  0  0  0  0  0  0
   21.9454   -6.0238  -14.2749 C   0  0  2  0  0  0  0  0  0  0  0  0
   21.3031   -7.2343  -14.7767 N   0  0  0  0  0  0  0  0  0  0  0  0
   21.9715   -5.9792  -12.7971 C   0  0  0  0  0  0  0  0  0  0  0  0
   21.2691   -6.7659  -12.0869 O   0  0  0  0  0  0  0  0  0  0  0  0
   22.7570   -5.0852  -12.0836 O   0  0  0  0  0  0  0  0  0  0  0  0
  2  1  1  6
  2  3  1  0
  4  3  1  0
  4  5  1  0
  6  5  1  0
  6  7  1  0
  8  2  1  0
  9  8  2  0
 10  8  1  0
 11 10  1  0
 11 12  1  6
 12 13  1  0
 13 18  2  0
 14 13  1  0
 14 15  2  0
 15 16  1  0
 16 17  2  0
 18 17  1  0
 19 26  1  0
 19 11  1  0
 20 19  2  0
 22 21  1  0
 23 22  1  0
 23 24  1  1
 25 23  1  0
 25 26  1  1
 27 25  1  0
 27 29  1  0
 28 27  2  0
M  END
$$$$
