KFI.pdb
     RDKit          3D

 29 29  0  0  1  0  0  0  0  0999 V2000
   27.7716  -23.6594  -16.6809 N   0  0  0  0  0  0  0  0  0  0  0  0
   27.3659  -22.3164  -16.4066 C   0  0  1  0  0  0  0  0  0  0  0  0
   26.5291  -21.7153  -17.5114 C   0  0  0  0  0  0  0  0  0  0  0  0
   27.3503  -21.1648  -18.6300 C   0  0  0  0  0  0  0  0  0  0  0  0
   27.6034  -22.1474  -19.7314 C   0  0  0  0  0  0  0  0  0  0  0  0
   28.3823  -21.5600  -20.8765 C   0  0  0  0  0  0  0  0  0  0  0  0
   28.7310  -22.6531  -21.7676 N   0  0  0  0  0  0  0  0  0  0  0  0
   26.6737  -22.2647  -15.1106 C   0  0  0  0  0  0  0  0  0  0  0  0
   25.8560  -23.1954  -14.8136 O   0  0  0  0  0  0  0  0  0  0  0  0
   26.8555  -21.2357  -14.1537 N   0  0  0  0  0  0  0  0  0  0  0  0
   26.1289  -21.2420  -12.8581 C   0  0  1  0  0  0  0  0  0  0  0  0
   26.9701  -20.4613  -11.9356 C   0  0  0  0  0  0  0  0  0  0  0  0
   26.6427  -20.4130  -10.5270 C   0  0  0  0  0  0  0  0  0  0  0  0
   25.8468  -19.3907  -10.0519 C   0  0  0  0  0  0  0  0  0  0  0  0
   25.5121  -19.3050   -8.7097 C   0  0  0  0  0  0  0  0  0  0  0  0
   25.9692  -20.2463   -7.8088 C   0  0  0  0  0  0  0  0  0  0  0  0
   26.7678  -21.2760   -8.2731 C   0  0  0  0  0  0  0  0  0  0  0  0
   27.1049  -21.3682   -9.6043 C   0  0  0  0  0  0  0  0  0  0  0  0
   24.8101  -20.6430  -13.1544 C   0  0  0  0  0  0  0  0  0  0  0  0
   24.7546  -19.4407  -13.6082 O   0  0  0  0  0  0  0  0  0  0  0  0
   21.5649  -21.1633  -16.7935 C   0  0  0  0  0  0  0  0  0  0  0  0
   22.3156  -20.6880  -15.5882 C   0  0  0  0  0  0  0  0  0  0  0  0
   21.5545  -20.8718  -14.3074 C   0  0  2  0  0  0  0  0  0  0  0  0
   20.2634  -20.0955  -14.4096 C   0  0  0  0  0  0  0  0  0  0  0  0
   22.3363  -20.4868  -13.0643 C   0  0  2  0  0  0  0  0  0  0  0  0
   23.5598  -21.2787  -12.9907 N   0  0  0  0  0  0  0  0  0  0  0  0
   21.4752  -20.6814  -11.8781 C   0  0  0  0  0  0  0  0  0  0  0  0
   21.5081  -21.7498  -11.1896 O   0  0  0  0  0  0  0  0  0  0  0  0
   20.5773  -19.7217  -11.4328 O   0  0  0  0  0  0  0  0  0  0  0  0
  2  1  1  6
  2  3  1  0
  4  3  1  0
  4  5  1  0
  6  5  1  0
  6  7  1  0
  8  2  1  0
  9  8  2  0
 10  8  1  0
 11 10  1  0
 11 12  1  1
 12 13  1  0
 13 18  2  0
 14 13  1  0
 14 15  2  0
 15 16  1  0
 16 17  2  0
 18 17  1  0
 19 26  1  0
 19 11  1  0
 20 19  2  0
 22 21  1  0
 23 22  1  0
 23 24  1  6
 25 23  1  0
 25 26  1  1
 27 25  1  0
 27 29  1  0
 28 27  2  0
M  END
$$$$
