KFI.pdb
     RDKit          3D

 29 29  0  0  1  0  0  0  0  0999 V2000
   25.7608  -19.0399  -18.2256 N   0  0  0  0  0  0  0  0  0  0  0  0
   26.0703  -19.9962  -17.2091 C   0  0  1  0  0  0  0  0  0  0  0  0
   27.5453  -20.0613  -16.8894 C   0  0  0  0  0  0  0  0  0  0  0  0
   28.3081  -20.9301  -17.8340 C   0  0  0  0  0  0  0  0  0  0  0  0
   28.8712  -22.1629  -17.1972 C   0  0  0  0  0  0  0  0  0  0  0  0
   29.7749  -22.9393  -18.1156 C   0  0  0  0  0  0  0  0  0  0  0  0
   30.2915  -24.0679  -17.3609 N   0  0  0  0  0  0  0  0  0  0  0  0
   25.2656  -19.7203  -16.0101 C   0  0  0  0  0  0  0  0  0  0  0  0
   25.2081  -18.5258  -15.5708 O   0  0  0  0  0  0  0  0  0  0  0  0
   24.5381  -20.7056  -15.2978 N   0  0  0  0  0  0  0  0  0  0  0  0
   23.7973  -20.3764  -14.0531 C   0  0  1  0  0  0  0  0  0  0  0  0
   22.4416  -20.9156  -14.2523 C   0  0  0  0  0  0  0  0  0  0  0  0
   21.4923  -20.1950  -15.0729 C   0  0  0  0  0  0  0  0  0  0  0  0
   21.3233  -20.5616  -16.3925 C   0  0  0  0  0  0  0  0  0  0  0  0
   20.4273  -19.8960  -17.2142 C   0  0  0  0  0  0  0  0  0  0  0  0
   19.6767  -18.8430  -16.7300 C   0  0  0  0  0  0  0  0  0  0  0  0
   19.8373  -18.4663  -15.4086 C   0  0  0  0  0  0  0  0  0  0  0  0
   20.7249  -19.1220  -14.5861 C   0  0  0  0  0  0  0  0  0  0  0  0
   24.5678  -21.0177  -12.9665 C   0  0  0  0  0  0  0  0  0  0  0  0
   24.6812  -22.2989  -12.9491 O   0  0  0  0  0  0  0  0  0  0  0  0
   29.5065  -20.5670  -11.5579 C   0  0  0  0  0  0  0  0  0  0  0  0
   28.0921  -21.0152  -11.7599 C   0  0  0  0  0  0  0  0  0  0  0  0
   27.2126  -20.7499  -10.5726 C   0  0  2  0  0  0  0  0  0  0  0  0
   27.7914  -21.4791   -9.3839 C   0  0  0  0  0  0  0  0  0  0  0  0
   25.7549  -21.1138  -10.7908 C   0  0  2  0  0  0  0  0  0  0  0  0
   25.2208  -20.3451  -11.9104 N   0  0  0  0  0  0  0  0  0  0  0  0
   25.0076  -20.8667   -9.5391 C   0  0  0  0  0  0  0  0  0  0  0  0
   25.1488  -21.6044   -8.5133 O   0  0  0  0  0  0  0  0  0  0  0  0
   24.1066  -19.8215   -9.3928 O   0  0  0  0  0  0  0  0  0  0  0  0
  2  1  1  6
  2  3  1  0
  4  3  1  0
  4  5  1  0
  6  5  1  0
  6  7  1  0
  8  2  1  0
  9  8  2  0
 10  8  1  0
 11 10  1  0
 11 12  1  6
 12 13  1  0
 13 18  2  0
 14 13  1  0
 14 15  2  0
 15 16  1  0
 16 17  2  0
 18 17  1  0
 19 26  1  0
 19 11  1  0
 20 19  2  0
 22 21  1  0
 23 22  1  0
 23 24  1  1
 25 23  1  0
 25 26  1  6
 27 25  1  0
 27 29  1  0
 28 27  2  0
M  END
$$$$
