KFI.pdb
     RDKit          3D

 29 29  0  0  1  0  0  0  0  0999 V2000
   28.4545  -19.6847  -16.7667 N   0  0  0  0  0  0  0  0  0  0  0  0
   28.9084  -18.7196  -15.8147 C   0  0  1  0  0  0  0  0  0  0  0  0
   29.1679  -17.3633  -16.4271 C   0  0  0  0  0  0  0  0  0  0  0  0
   30.3972  -17.3322  -17.2736 C   0  0  0  0  0  0  0  0  0  0  0  0
   30.1193  -17.1359  -18.7319 C   0  0  0  0  0  0  0  0  0  0  0  0
   31.3690  -17.0894  -19.5681 C   0  0  0  0  0  0  0  0  0  0  0  0
   30.9595  -16.8774  -20.9457 N   0  0  0  0  0  0  0  0  0  0  0  0
   27.9536  -18.6392  -14.6997 C   0  0  0  0  0  0  0  0  0  0  0  0
   27.3818  -17.5262  -14.4599 O   0  0  0  0  0  0  0  0  0  0  0  0
   27.6196  -19.7304  -13.8598 N   0  0  0  0  0  0  0  0  0  0  0  0
   26.3558  -19.7523  -13.0797 C   0  0  1  0  0  0  0  0  0  0  0  0
   25.4191  -20.5610  -13.8776 C   0  0  0  0  0  0  0  0  0  0  0  0
   24.1202  -20.9015  -13.3384 C   0  0  0  0  0  0  0  0  0  0  0  0
   23.1575  -19.9198  -13.2213 C   0  0  0  0  0  0  0  0  0  0  0  0
   21.9019  -20.2023  -12.7070 C   0  0  0  0  0  0  0  0  0  0  0  0
   21.5808  -21.4810  -12.2965 C   0  0  0  0  0  0  0  0  0  0  0  0
   22.5375  -22.4737  -12.4089 C   0  0  0  0  0  0  0  0  0  0  0  0
   23.7867  -22.2015  -12.9185 C   0  0  0  0  0  0  0  0  0  0  0  0
   26.7220  -20.3357  -11.7715 C   0  0  0  0  0  0  0  0  0  0  0  0
   27.4770  -21.3766  -11.7378 O   0  0  0  0  0  0  0  0  0  0  0  0
   29.0563  -19.2815   -7.0534 C   0  0  0  0  0  0  0  0  0  0  0  0
   28.4502  -20.0862   -8.1613 C   0  0  0  0  0  0  0  0  0  0  0  0
   26.9495  -20.0476   -8.1673 C   0  0  2  0  0  0  0  0  0  0  0  0
   26.4569  -20.6280   -6.8633 C   0  0  0  0  0  0  0  0  0  0  0  0
   26.3190  -20.7459   -9.3587 C   0  0  2  0  0  0  0  0  0  0  0  0
   26.3192  -19.8478  -10.5090 N   0  0  0  0  0  0  0  0  0  0  0  0
   24.9539  -21.1798   -8.9917 C   0  0  0  0  0  0  0  0  0  0  0  0
   23.9401  -20.4320   -9.1640 O   0  0  0  0  0  0  0  0  0  0  0  0
   24.6811  -22.4227   -8.4383 O   0  0  0  0  0  0  0  0  0  0  0  0
  2  1  1  6
  2  3  1  0
  4  3  1  0
  4  5  1  0
  6  5  1  0
  6  7  1  0
  8  2  1  0
  9  8  2  0
 10  8  1  0
 11 10  1  0
 11 12  1  6
 12 13  1  0
 13 18  2  0
 14 13  1  0
 14 15  2  0
 15 16  1  0
 16 17  2  0
 18 17  1  0
 19 26  1  0
 19 11  1  0
 20 19  2  0
 22 21  1  0
 23 22  1  0
 23 24  1  1
 25 23  1  0
 25 26  1  6
 27 25  1  0
 27 29  1  0
 28 27  2  0
M  END
$$$$
