KFI.pdb
     RDKit          3D

 29 29  0  0  1  0  0  0  0  0999 V2000
   27.4044  -21.6546  -13.6455 N   0  0  0  0  0  0  0  0  0  0  0  0
   27.0208  -20.5436  -12.8318 C   0  0  1  0  0  0  0  0  0  0  0  0
   25.7392  -19.8896  -13.2920 C   0  0  0  0  0  0  0  0  0  0  0  0
   25.8924  -19.1509  -14.5802 C   0  0  0  0  0  0  0  0  0  0  0  0
   25.4914  -19.9480  -15.7828 C   0  0  0  0  0  0  0  0  0  0  0  0
   25.5661  -19.1605  -17.0624 C   0  0  0  0  0  0  0  0  0  0  0  0
   25.2245  -20.0648  -18.1468 N   0  0  0  0  0  0  0  0  0  0  0  0
   26.9417  -20.9656  -11.4257 C   0  0  0  0  0  0  0  0  0  0  0  0
   26.3722  -22.0707  -11.1474 O   0  0  0  0  0  0  0  0  0  0  0  0
   27.4628  -20.2171  -10.3414 N   0  0  0  0  0  0  0  0  0  0  0  0
   27.2395  -20.6313   -8.9325 C   0  0  1  0  0  0  0  0  0  0  0  0
   28.1721  -19.8179   -8.1346 C   0  0  0  0  0  0  0  0  0  0  0  0
   28.0879  -19.8332   -6.6901 C   0  0  0  0  0  0  0  0  0  0  0  0
   27.7903  -18.6657   -6.0172 C   0  0  0  0  0  0  0  0  0  0  0  0
   27.7033  -18.6355   -4.6343 C   0  0  0  0  0  0  0  0  0  0  0  0
   27.9135  -19.7798   -3.8906 C   0  0  0  0  0  0  0  0  0  0  0  0
   28.2125  -20.9564   -4.5539 C   0  0  0  0  0  0  0  0  0  0  0  0
   28.3008  -20.9949   -5.9268 C   0  0  0  0  0  0  0  0  0  0  0  0
   25.8078  -20.3660   -8.6765 C   0  0  0  0  0  0  0  0  0  0  0  0
   25.3621  -19.1646   -8.7897 O   0  0  0  0  0  0  0  0  0  0  0  0
   22.0668  -20.5357  -11.4632 C   0  0  0  0  0  0  0  0  0  0  0  0
   22.9204  -20.2363  -10.2699 C   0  0  0  0  0  0  0  0  0  0  0  0
   22.5443  -21.0383   -9.0579 C   0  0  2  0  0  0  0  0  0  0  0  0
   21.1403  -20.6555   -8.6553 C   0  0  0  0  0  0  0  0  0  0  0  0
   23.5129  -20.8944   -7.8978 C   0  0  2  0  0  0  0  0  0  0  0  0
   24.8422  -21.3302   -8.3130 N   0  0  0  0  0  0  0  0  0  0  0  0
   23.0042  -21.6758   -6.7501 C   0  0  0  0  0  0  0  0  0  0  0  0
   21.9901  -21.3047   -6.0789 O   0  0  0  0  0  0  0  0  0  0  0  0
   23.5897  -22.8601   -6.3256 O   0  0  0  0  0  0  0  0  0  0  0  0
  2  1  1  6
  2  3  1  0
  4  3  1  0
  4  5  1  0
  6  5  1  0
  6  7  1  0
  8  2  1  0
  9  8  2  0
 10  8  1  0
 11 10  1  0
 11 12  1  1
 12 13  1  0
 13 18  2  0
 14 13  1  0
 14 15  2  0
 15 16  1  0
 16 17  2  0
 18 17  1  0
 19 26  1  0
 19 11  1  0
 20 19  2  0
 22 21  1  0
 23 22  1  0
 23 24  1  1
 25 23  1  0
 25 26  1  6
 27 25  1  0
 27 29  1  0
 28 27  2  0
M  END
$$$$
