KFI.pdb
     RDKit          3D

 29 29  0  0  1  0  0  0  0  0999 V2000
   24.9497  -21.8768  -12.8826 N   0  0  0  0  0  0  0  0  0  0  0  0
   25.2096  -20.8048  -11.9733 C   0  0  1  0  0  0  0  0  0  0  0  0
   23.9500  -20.1929  -11.4067 C   0  0  0  0  0  0  0  0  0  0  0  0
   23.0634  -19.6087  -12.4561 C   0  0  0  0  0  0  0  0  0  0  0  0
   22.0059  -20.5503  -12.9435 C   0  0  0  0  0  0  0  0  0  0  0  0
   21.0770  -19.9235  -13.9471 C   0  0  0  0  0  0  0  0  0  0  0  0
   20.0614  -20.9104  -14.2712 N   0  0  0  0  0  0  0  0  0  0  0  0
   26.1151  -21.2668  -10.9113 C   0  0  0  0  0  0  0  0  0  0  0  0
   25.8082  -22.3151  -10.2556 O   0  0  0  0  0  0  0  0  0  0  0  0
   27.3246  -20.6173  -10.5605 N   0  0  0  0  0  0  0  0  0  0  0  0
   28.2234  -21.1623   -9.5110 C   0  0  1  0  0  0  0  0  0  0  0  0
   29.5897  -20.9008   -9.9937 C   0  0  0  0  0  0  0  0  0  0  0  0
   30.7238  -21.2065   -9.1486 C   0  0  0  0  0  0  0  0  0  0  0  0
   31.0520  -20.3474   -8.1197 C   0  0  0  0  0  0  0  0  0  0  0  0
   32.1322  -20.6006   -7.2890 C   0  0  0  0  0  0  0  0  0  0  0  0
   32.9117  -21.7257   -7.4711 C   0  0  0  0  0  0  0  0  0  0  0  0
   32.5925  -22.5946   -8.4992 C   0  0  0  0  0  0  0  0  0  0  0  0
   31.5216  -22.3504   -9.3285 C   0  0  0  0  0  0  0  0  0  0  0  0
   27.8523  -20.4408   -8.2750 C   0  0  0  0  0  0  0  0  0  0  0  0
   27.2385  -19.3141   -8.3662 O   0  0  0  0  0  0  0  0  0  0  0  0
   26.4851  -20.9904   -2.2967 C   0  0  0  0  0  0  0  0  0  0  0  0
   26.8496  -20.1197   -3.4593 C   0  0  0  0  0  0  0  0  0  0  0  0
   27.3523  -20.8942   -4.6430 C   0  0  2  0  0  0  0  0  0  0  0  0
   28.5145  -21.7457   -4.1913 C   0  0  0  0  0  0  0  0  0  0  0  0
   27.7279  -20.0286   -5.8323 C   0  0  2  0  0  0  0  0  0  0  0  0
   28.1056  -20.8789   -6.9566 N   0  0  0  0  0  0  0  0  0  0  0  0
   28.8205  -19.1155   -5.4335 C   0  0  0  0  0  0  0  0  0  0  0  0
   28.6229  -18.1259   -4.6601 O   0  0  0  0  0  0  0  0  0  0  0  0
   30.1289  -19.2701   -5.8688 O   0  0  0  0  0  0  0  0  0  0  0  0
  2  1  1  6
  2  3  1  0
  4  3  1  0
  4  5  1  0
  6  5  1  0
  6  7  1  0
  8  2  1  0
  9  8  2  0
 10  8  1  0
 11 10  1  0
 11 12  1  6
 12 13  1  0
 13 18  2  0
 14 13  1  0
 14 15  2  0
 15 16  1  0
 16 17  2  0
 18 17  1  0
 19 26  1  0
 19 11  1  0
 20 19  2  0
 22 21  1  0
 23 22  1  0
 23 24  1  1
 25 23  1  0
 25 26  1  6
 27 25  1  0
 27 29  1  0
 28 27  2  0
M  END
$$$$
