KFI.pdb
     RDKit          3D

 29 29  0  0  1  0  0  0  0  0999 V2000
   27.8873  -21.4567  -13.7620 N   0  0  0  0  0  0  0  0  0  0  0  0
   27.3507  -20.3894  -12.9768 C   0  0  1  0  0  0  0  0  0  0  0  0
   26.0749  -19.8185  -13.5500 C   0  0  0  0  0  0  0  0  0  0  0  0
   26.2707  -19.1813  -14.8858 C   0  0  0  0  0  0  0  0  0  0  0  0
   27.0623  -17.9110  -14.8368 C   0  0  0  0  0  0  0  0  0  0  0  0
   27.2810  -17.3013  -16.1945 C   0  0  0  0  0  0  0  0  0  0  0  0
   28.0857  -16.1065  -16.0071 N   0  0  0  0  0  0  0  0  0  0  0  0
   27.1696  -20.8401  -11.5892 C   0  0  0  0  0  0  0  0  0  0  0  0
   26.5738  -21.9458  -11.3755 O   0  0  0  0  0  0  0  0  0  0  0  0
   27.6184  -20.1191  -10.4550 N   0  0  0  0  0  0  0  0  0  0  0  0
   27.3646  -20.6054   -9.0746 C   0  0  1  0  0  0  0  0  0  0  0  0
   28.3103  -19.8668   -8.2212 C   0  0  0  0  0  0  0  0  0  0  0  0
   28.1822  -19.9292   -6.7812 C   0  0  0  0  0  0  0  0  0  0  0  0
   27.7152  -18.8269   -6.0949 C   0  0  0  0  0  0  0  0  0  0  0  0
   27.5805  -18.8430   -4.7156 C   0  0  0  0  0  0  0  0  0  0  0  0
   27.9122  -19.9693   -3.9891 C   0  0  0  0  0  0  0  0  0  0  0  0
   28.3814  -21.0809   -4.6659 C   0  0  0  0  0  0  0  0  0  0  0  0
   28.5182  -21.0730   -6.0353 C   0  0  0  0  0  0  0  0  0  0  0  0
   25.9381  -20.3119   -8.8202 C   0  0  0  0  0  0  0  0  0  0  0  0
   25.5070  -19.1102   -8.9769 O   0  0  0  0  0  0  0  0  0  0  0  0
   20.6588  -20.4003  -10.6752 C   0  0  0  0  0  0  0  0  0  0  0  0
   21.3913  -20.3967   -9.3692 C   0  0  0  0  0  0  0  0  0  0  0  0
   22.8177  -20.8487   -9.4902 C   0  0  2  0  0  0  0  0  0  0  0  0
   22.8247  -22.2345  -10.0897 C   0  0  0  0  0  0  0  0  0  0  0  0
   23.5918  -20.8050   -8.1849 C   0  0  2  0  0  0  0  0  0  0  0  0
   24.9629  -21.2489   -8.4139 N   0  0  0  0  0  0  0  0  0  0  0  0
   22.8944  -21.6440   -7.1868 C   0  0  0  0  0  0  0  0  0  0  0  0
   23.4572  -22.6408   -6.6333 O   0  0  0  0  0  0  0  0  0  0  0  0
   21.5878  -21.4074   -6.7840 O   0  0  0  0  0  0  0  0  0  0  0  0
  2  1  1  6
  2  3  1  0
  4  3  1  0
  4  5  1  0
  6  5  1  0
  6  7  1  0
  8  2  1  0
  9  8  2  0
 10  8  1  0
 11 10  1  0
 11 12  1  1
 12 13  1  0
 13 18  2  0
 14 13  1  0
 14 15  2  0
 15 16  1  0
 16 17  2  0
 18 17  1  0
 19 26  1  0
 19 11  1  0
 20 19  2  0
 22 21  1  0
 23 22  1  0
 23 24  1  1
 25 23  1  0
 25 26  1  6
 27 25  1  0
 27 29  1  0
 28 27  2  0
M  END
$$$$
