KFI.pdb
     RDKit          3D

 29 29  0  0  1  0  0  0  0  0999 V2000
   28.9236  -21.8931  -14.7961 N   0  0  0  0  0  0  0  0  0  0  0  0
   29.0700  -20.7870  -13.9024 C   0  0  1  0  0  0  0  0  0  0  0  0
   28.5208  -19.4970  -14.4647 C   0  0  0  0  0  0  0  0  0  0  0  0
   28.1427  -19.6040  -15.9050 C   0  0  0  0  0  0  0  0  0  0  0  0
   27.7861  -18.2922  -16.5330 C   0  0  0  0  0  0  0  0  0  0  0  0
   28.9724  -17.3853  -16.7155 C   0  0  0  0  0  0  0  0  0  0  0  0
   28.4977  -16.1798  -17.3727 N   0  0  0  0  0  0  0  0  0  0  0  0
   28.4624  -21.1169  -12.6049 C   0  0  0  0  0  0  0  0  0  0  0  0
   27.5759  -22.0307  -12.5566 O   0  0  0  0  0  0  0  0  0  0  0  0
   28.7993  -20.4795  -11.3851 N   0  0  0  0  0  0  0  0  0  0  0  0
   28.1374  -20.8475  -10.1073 C   0  0  1  0  0  0  0  0  0  0  0  0
   28.9451  -20.2119   -9.0529 C   0  0  0  0  0  0  0  0  0  0  0  0
   28.4383  -20.1428   -7.6993 C   0  0  0  0  0  0  0  0  0  0  0  0
   27.7193  -19.0341   -7.3017 C   0  0  0  0  0  0  0  0  0  0  0  0
   27.2189  -18.9260   -6.0137 C   0  0  0  0  0  0  0  0  0  0  0  0
   27.4283  -19.9312   -5.0906 C   0  0  0  0  0  0  0  0  0  0  0  0
   28.1475  -21.0478   -5.4774 C   0  0  0  0  0  0  0  0  0  0  0  0
   28.6479  -21.1629   -6.7543 C   0  0  0  0  0  0  0  0  0  0  0  0
   26.7567  -20.3327  -10.2278 C   0  0  0  0  0  0  0  0  0  0  0  0
   26.5714  -19.1097  -10.5805 O   0  0  0  0  0  0  0  0  0  0  0  0
   22.0432  -20.3224  -13.3563 C   0  0  0  0  0  0  0  0  0  0  0  0
   22.4484  -20.1432  -11.9259 C   0  0  0  0  0  0  0  0  0  0  0  0
   23.8153  -20.6866  -11.6262 C   0  0  2  0  0  0  0  0  0  0  0  0
   23.8223  -22.1588  -11.9616 C   0  0  0  0  0  0  0  0  0  0  0  0
   24.2788  -20.4399  -10.2017 C   0  0  2  0  0  0  0  0  0  0  0  0
   25.5771  -21.0727   -9.9929 N   0  0  0  0  0  0  0  0  0  0  0  0
   23.2528  -20.9535   -9.2691 C   0  0  0  0  0  0  0  0  0  0  0  0
   23.4480  -21.9879   -8.5559 O   0  0  0  0  0  0  0  0  0  0  0  0
   22.0141  -20.3503   -9.1043 O   0  0  0  0  0  0  0  0  0  0  0  0
  2  1  1  6
  2  3  1  0
  4  3  1  0
  4  5  1  0
  6  5  1  0
  6  7  1  0
  8  2  1  0
  9  8  2  0
 10  8  1  0
 11 10  1  0
 11 12  1  1
 12 13  1  0
 13 18  2  0
 14 13  1  0
 14 15  2  0
 15 16  1  0
 16 17  2  0
 18 17  1  0
 19 26  1  0
 19 11  1  0
 20 19  2  0
 22 21  1  0
 23 22  1  0
 23 24  1  1
 25 23  1  0
 25 26  1  1
 27 25  1  0
 27 29  1  0
 28 27  2  0
M  END
$$$$
