KFI.pdb
     RDKit          3D

 29 29  0  0  1  0  0  0  0  0999 V2000
   27.6073  -22.3618  -17.1060 N   0  0  0  0  0  0  0  0  0  0  0  0
   27.1992  -21.1541  -16.4591 C   0  0  1  0  0  0  0  0  0  0  0  0
   26.2935  -20.3020  -17.3168 C   0  0  0  0  0  0  0  0  0  0  0  0
   26.3415  -20.6734  -18.7620 C   0  0  0  0  0  0  0  0  0  0  0  0
   27.2451  -19.8017  -19.5781 C   0  0  0  0  0  0  0  0  0  0  0  0
   27.1822  -20.1040  -21.0504 C   0  0  0  0  0  0  0  0  0  0  0  0
   28.1124  -19.2081  -21.7156 N   0  0  0  0  0  0  0  0  0  0  0  0
   26.5804  -21.4725  -15.1641 C   0  0  0  0  0  0  0  0  0  0  0  0
   25.6811  -22.3738  -15.1184 O   0  0  0  0  0  0  0  0  0  0  0  0
   26.9197  -20.8368  -13.9441 N   0  0  0  0  0  0  0  0  0  0  0  0
   26.1832  -21.1248  -12.6867 C   0  0  1  0  0  0  0  0  0  0  0  0
   27.0228  -20.5758  -11.6088 C   0  0  0  0  0  0  0  0  0  0  0  0
   26.4918  -20.4633  -10.2674 C   0  0  0  0  0  0  0  0  0  0  0  0
   26.3261  -19.2128   -9.7080 C   0  0  0  0  0  0  0  0  0  0  0  0
   25.8240  -19.0602   -8.4252 C   0  0  0  0  0  0  0  0  0  0  0  0
   25.4748  -20.1624   -7.6703 C   0  0  0  0  0  0  0  0  0  0  0  0
   25.6363  -21.4214   -8.2203 C   0  0  0  0  0  0  0  0  0  0  0  0
   26.1342  -21.5815   -9.4934 C   0  0  0  0  0  0  0  0  0  0  0  0
   24.8710  -20.4638  -12.8501 C   0  0  0  0  0  0  0  0  0  0  0  0
   24.8186  -19.2975  -13.3900 O   0  0  0  0  0  0  0  0  0  0  0  0
   20.7345  -18.9766  -15.9164 C   0  0  0  0  0  0  0  0  0  0  0  0
   20.9297  -19.2116  -14.4505 C   0  0  0  0  0  0  0  0  0  0  0  0
   22.1407  -20.0431  -14.1412 C   0  0  2  0  0  0  0  0  0  0  0  0
   21.9848  -21.3785  -14.8286 C   0  0  0  0  0  0  0  0  0  0  0  0
   22.4110  -20.2114  -12.6569 C   0  0  2  0  0  0  0  0  0  0  0  0
   23.6229  -21.0018  -12.4666 N   0  0  0  0  0  0  0  0  0  0  0  0
   21.2316  -20.8398  -12.0240 C   0  0  0  0  0  0  0  0  0  0  0  0
   20.0863  -20.2878  -12.0363 O   0  0  0  0  0  0  0  0  0  0  0  0
   21.2870  -22.0661  -11.3770 O   0  0  0  0  0  0  0  0  0  0  0  0
  2  1  1  6
  2  3  1  0
  4  3  1  0
  4  5  1  0
  6  5  1  0
  6  7  1  0
  8  2  1  0
  9  8  2  0
 10  8  1  0
 11 10  1  0
 11 12  1  1
 12 13  1  0
 13 18  2  0
 14 13  1  0
 14 15  2  0
 15 16  1  0
 16 17  2  0
 18 17  1  0
 19 26  1  0
 19 11  1  0
 20 19  2  0
 22 21  1  0
 23 22  1  0
 23 24  1  1
 25 23  1  0
 25 26  1  6
 27 25  1  0
 27 29  1  0
 28 27  2  0
M  END
$$$$
