AKQ.pdb
     RDKit          3D

 24 23  0  0  1  0  0  0  0  0999 V2000
    7.8940  -11.9833   18.6576 C   0  0  0  0  0  0  0  0  0  0  0  0
    8.1792  -13.3778   18.1567 C   0  0  2  0  0  0  0  0  0  0  0  0
    7.3666  -13.6267   16.9832 N   0  0  0  0  0  0  0  0  0  0  0  0
    7.9312  -14.4153   19.1561 C   0  0  0  0  0  0  0  0  0  0  0  0
    6.8083  -14.6810   19.6542 O   0  0  0  0  0  0  0  0  0  0  0  0
    9.0324  -15.1912   19.6094 N   0  0  0  0  0  0  0  0  0  0  0  0
    8.9149  -16.2467   20.5763 C   0  0  1  0  0  0  0  0  0  0  0  0
    8.6974  -17.5411   19.8043 C   0  0  0  0  0  0  0  0  0  0  0  0
    8.5155  -18.6516   20.8341 C   0  0  0  0  0  0  0  0  0  0  0  0
    8.3936  -19.9620   20.0584 C   0  0  0  0  0  0  0  0  0  0  0  0
    8.1990  -21.0599   21.0751 C   0  0  0  0  0  0  0  0  0  0  0  0
    8.0913  -22.3305   20.3976 N   0  0  0  0  0  0  0  0  0  0  0  0
   10.1087  -16.4034   21.4187 C   0  0  0  0  0  0  0  0  0  0  0  0
   10.8007  -17.4426   21.2855 O   0  0  0  0  0  0  0  0  0  0  0  0
    7.1160  -15.8419   27.5171 N   0  0  0  0  0  0  0  0  0  0  0  0
    7.6222  -15.2160   26.3581 C   0  0  0  0  0  0  0  0  0  0  0  0
    6.9721  -14.2759   25.8466 O   0  0  0  0  0  0  0  0  0  0  0  0
    8.8913  -15.6481   25.7595 C   0  0  0  0  0  0  0  0  0  0  0  0
    9.1172  -15.2876   24.3364 C   0  0  0  0  0  0  0  0  0  0  0  0
   10.4299  -15.6873   23.7991 C   0  0  2  0  0  0  0  0  0  0  0  0
   10.4799  -15.4356   22.3467 N   0  0  0  0  0  0  0  0  0  0  0  0
   10.9672  -16.9915   24.0518 C   0  0  0  0  0  0  0  0  0  0  0  0
   12.0972  -17.2451   24.5629 O   0  0  0  0  0  0  0  0  0  0  0  0
   10.2025  -18.1302   23.7169 O   0  0  0  0  0  0  0  0  0  0  0  0
  2  1  1  1
  2  4  1  0
  2  3  1  0
  4  5  2  0
  6  7  1  0
  6  4  1  0
  7  8  1  6
  8  9  1  0
 10  9  1  0
 11 10  1  0
 12 11  1  0
 13  7  1  0
 13 14  2  0
 15 16  1  0
 16 17  2  0
 18 19  1  0
 18 16  1  0
 20 19  1  6
 20 21  1  0
 20 22  1  0
 21 13  1  0
 22 24  1  0
 23 22  2  0
M  END
$$$$
