AKQ.pdb
     RDKit          3D

 24 23  0  0  1  0  0  0  0  0999 V2000
    9.1055  -22.1983   18.7758 C   0  0  0  0  0  0  0  0  0  0  0  0
    7.6729  -21.7390   18.8929 C   0  0  2  0  0  0  0  0  0  0  0  0
    7.3660  -20.8786   17.7684 N   0  0  0  0  0  0  0  0  0  0  0  0
    7.3895  -21.0357   20.1425 C   0  0  0  0  0  0  0  0  0  0  0  0
    8.1157  -20.1420   20.6461 O   0  0  0  0  0  0  0  0  0  0  0  0
    6.2073  -21.3764   20.8543 N   0  0  0  0  0  0  0  0  0  0  0  0
    5.8257  -20.7662   22.0972 C   0  0  1  0  0  0  0  0  0  0  0  0
    4.3168  -20.9228   22.2299 C   0  0  0  0  0  0  0  0  0  0  0  0
    3.6777  -19.9773   21.2177 C   0  0  0  0  0  0  0  0  0  0  0  0
    2.1723  -20.2335   21.2585 C   0  0  0  0  0  0  0  0  0  0  0  0
    1.5340  -19.2668   20.2916 C   0  0  0  0  0  0  0  0  0  0  0  0
    0.1026  -19.4571   20.2942 N   0  0  0  0  0  0  0  0  0  0  0  0
    6.4614  -21.3821   23.2702 C   0  0  0  0  0  0  0  0  0  0  0  0
    6.4263  -22.6323   23.3804 O   0  0  0  0  0  0  0  0  0  0  0  0
   12.0483  -21.7709   24.3331 N   0  0  0  0  0  0  0  0  0  0  0  0
   11.5674  -20.4937   24.6918 C   0  0  0  0  0  0  0  0  0  0  0  0
   12.3683  -19.5313   24.7146 O   0  0  0  0  0  0  0  0  0  0  0  0
   10.1532  -20.2859   25.0272 C   0  0  0  0  0  0  0  0  0  0  0  0
    9.2563  -21.4635   24.9046 C   0  0  0  0  0  0  0  0  0  0  0  0
    7.8677  -21.2299   25.3394 C   0  0  2  0  0  0  0  0  0  0  0  0
    7.0916  -20.6160   24.2458 N   0  0  0  0  0  0  0  0  0  0  0  0
    7.5808  -20.5215   26.5516 C   0  0  0  0  0  0  0  0  0  0  0  0
    6.8985  -19.4599   26.6500 O   0  0  0  0  0  0  0  0  0  0  0  0
    8.0839  -21.0148   27.7752 O   0  0  0  0  0  0  0  0  0  0  0  0
  2  1  1  1
  2  4  1  0
  2  3  1  0
  4  5  2  0
  6  7  1  0
  6  4  1  0
  7  8  1  1
  8  9  1  0
 10  9  1  0
 11 10  1  0
 12 11  1  0
 13  7  1  0
 13 14  2  0
 15 16  1  0
 16 17  2  0
 18 19  1  0
 18 16  1  0
 20 19  1  6
 20 21  1  0
 20 22  1  0
 21 13  1  0
 22 24  1  0
 23 22  2  0
M  END
$$$$
