AKQ.pdb
     RDKit          3D

 24 23  0  0  1  0  0  0  0  0999 V2000
    7.6050  -19.8480   17.9430 C   0  0  0  0  0  0  0  0  0  0  0  0
    6.3277  -19.1741   18.3804 C   0  0  2  0  0  0  0  0  0  0  0  0
    6.3956  -17.7712   18.0247 N   0  0  0  0  0  0  0  0  0  0  0  0
    6.0625  -19.3066   19.8117 C   0  0  0  0  0  0  0  0  0  0  0  0
    6.5767  -18.5913   20.7082 O   0  0  0  0  0  0  0  0  0  0  0  0
    5.1571  -20.3157   20.2387 N   0  0  0  0  0  0  0  0  0  0  0  0
    4.7584  -20.4970   21.6065 C   0  0  1  0  0  0  0  0  0  0  0  0
    3.4147  -21.2133   21.5916 C   0  0  0  0  0  0  0  0  0  0  0  0
    2.3664  -20.1899   21.1664 C   0  0  0  0  0  0  0  0  0  0  0  0
    1.0194  -20.9102   21.1580 C   0  0  0  0  0  0  0  0  0  0  0  0
    0.0033  -19.9392   20.6088 C   0  0  0  0  0  0  0  0  0  0  0  0
   -1.2890  -20.5800   20.5422 N   0  0  0  0  0  0  0  0  0  0  0  0
    5.7054  -21.3027   22.3896 C   0  0  0  0  0  0  0  0  0  0  0  0
    6.2017  -22.3256   21.8567 O   0  0  0  0  0  0  0  0  0  0  0  0
   10.2400  -19.2444   26.0372 N   0  0  0  0  0  0  0  0  0  0  0  0
   10.2082  -20.6253   26.3263 C   0  0  0  0  0  0  0  0  0  0  0  0
   11.0843  -21.1044   27.0821 O   0  0  0  0  0  0  0  0  0  0  0  0
    9.1660  -21.4913   25.7613 C   0  0  0  0  0  0  0  0  0  0  0  0
    8.1312  -20.8338   24.9229 C   0  0  0  0  0  0  0  0  0  0  0  0
    7.0531  -21.7255   24.4603 C   0  0  2  0  0  0  0  0  0  0  0  0
    6.0564  -20.9575   23.6909 N   0  0  0  0  0  0  0  0  0  0  0  0
    6.3576  -22.5823   25.3745 C   0  0  0  0  0  0  0  0  0  0  0  0
    5.2364  -22.3442   25.9119 O   0  0  0  0  0  0  0  0  0  0  0  0
    6.9364  -23.8172   25.7399 O   0  0  0  0  0  0  0  0  0  0  0  0
  2  1  1  1
  2  4  1  0
  2  3  1  0
  4  5  2  0
  6  7  1  0
  6  4  1  0
  7  8  1  6
  8  9  1  0
 10  9  1  0
 11 10  1  0
 12 11  1  0
 13  7  1  0
 13 14  2  0
 15 16  1  0
 16 17  2  0
 18 19  1  0
 18 16  1  0
 20 19  1  1
 20 21  1  0
 20 22  1  0
 21 13  1  0
 22 24  1  0
 23 22  2  0
M  END
$$$$
