AKQ.pdb
     RDKit          3D

 24 23  0  0  1  0  0  0  0  0999 V2000
    9.0835  -12.4211   19.4499 C   0  0  0  0  0  0  0  0  0  0  0  0
    8.1869  -13.6343   19.4173 C   0  0  2  0  0  0  0  0  0  0  0  0
    6.9333  -13.2706   18.7885 N   0  0  0  0  0  0  0  0  0  0  0  0
    7.9281  -14.2001   20.7400 C   0  0  0  0  0  0  0  0  0  0  0  0
    7.3466  -13.5995   21.6785 O   0  0  0  0  0  0  0  0  0  0  0  0
    8.3604  -15.5288   21.0009 N   0  0  0  0  0  0  0  0  0  0  0  0
    8.0942  -16.2231   22.2296 C   0  0  1  0  0  0  0  0  0  0  0  0
    7.6763  -17.6408   21.8631 C   0  0  0  0  0  0  0  0  0  0  0  0
    7.3813  -18.3723   23.1688 C   0  0  0  0  0  0  0  0  0  0  0  0
    6.7922  -19.7310   22.7941 C   0  0  0  0  0  0  0  0  0  0  0  0
    6.4280  -20.4247   24.0837 C   0  0  0  0  0  0  0  0  0  0  0  0
    5.9053  -21.7390   23.7931 N   0  0  0  0  0  0  0  0  0  0  0  0
    9.2587  -16.2985   23.1226 C   0  0  0  0  0  0  0  0  0  0  0  0
   10.3622  -16.6480   22.6361 O   0  0  0  0  0  0  0  0  0  0  0  0
   10.0625  -14.5470   30.0578 N   0  0  0  0  0  0  0  0  0  0  0  0
    9.6312  -14.2818   28.7406 C   0  0  0  0  0  0  0  0  0  0  0  0
    9.1428  -13.1586   28.4797 O   0  0  0  0  0  0  0  0  0  0  0  0
    9.7554  -15.2962   27.6866 C   0  0  0  0  0  0  0  0  0  0  0  0
   10.1531  -14.8157   26.3386 C   0  0  0  0  0  0  0  0  0  0  0  0
   10.3532  -15.8791   25.3382 C   0  0  2  0  0  0  0  0  0  0  0  0
    9.1616  -15.9941   24.4768 N   0  0  0  0  0  0  0  0  0  0  0  0
   10.7582  -17.1969   25.7295 C   0  0  0  0  0  0  0  0  0  0  0  0
   11.9464  -17.5785   25.9416 O   0  0  0  0  0  0  0  0  0  0  0  0
    9.7771  -18.1964   25.9078 O   0  0  0  0  0  0  0  0  0  0  0  0
  2  1  1  1
  2  4  1  0
  2  3  1  0
  4  5  2  0
  6  7  1  0
  6  4  1  0
  7  8  1  6
  8  9  1  0
 10  9  1  0
 11 10  1  0
 12 11  1  0
 13  7  1  0
 13 14  2  0
 15 16  1  0
 16 17  2  0
 18 19  1  0
 18 16  1  0
 20 19  1  1
 20 21  1  0
 20 22  1  0
 21 13  1  0
 22 24  1  0
 23 22  2  0
M  END
$$$$
