AKQ.pdb
     RDKit          3D

 24 23  0  0  1  0  0  0  0  0999 V2000
   13.0265  -24.7009   13.7459 C   0  0  0  0  0  0  0  0  0  0  0  0
   11.9117  -23.7125   13.5064 C   0  0  2  0  0  0  0  0  0  0  0  0
   12.4337  -22.5973   12.7430 N   0  0  0  0  0  0  0  0  0  0  0  0
   11.2974  -23.2211   14.7383 C   0  0  0  0  0  0  0  0  0  0  0  0
   11.6981  -22.2278   15.3959 O   0  0  0  0  0  0  0  0  0  0  0  0
   10.1600  -23.9072   15.2443 N   0  0  0  0  0  0  0  0  0  0  0  0
    9.4548  -23.5077   16.4300 C   0  0  1  0  0  0  0  0  0  0  0  0
    8.0254  -24.0148   16.2949 C   0  0  0  0  0  0  0  0  0  0  0  0
    7.2292  -22.9257   15.5830 C   0  0  0  0  0  0  0  0  0  0  0  0
    5.8034  -23.4498   15.4225 C   0  0  0  0  0  0  0  0  0  0  0  0
    5.0180  -22.3793   14.7055 C   0  0  0  0  0  0  0  0  0  0  0  0
    3.6632  -22.8334   14.4972 N   0  0  0  0  0  0  0  0  0  0  0  0
   10.0284  -24.0594   17.6653 C   0  0  0  0  0  0  0  0  0  0  0  0
   10.3697  -25.2677   17.6770 O   0  0  0  0  0  0  0  0  0  0  0  0
   14.6421  -20.9797   20.7027 N   0  0  0  0  0  0  0  0  0  0  0  0
   13.2850  -20.9359   20.3185 C   0  0  0  0  0  0  0  0  0  0  0  0
   12.6611  -19.8556   20.4274 O   0  0  0  0  0  0  0  0  0  0  0  0
   12.6100  -22.1290   19.7928 C   0  0  0  0  0  0  0  0  0  0  0  0
   11.6290  -22.7926   20.6892 C   0  0  0  0  0  0  0  0  0  0  0  0
   10.7951  -23.8194   20.0395 C   0  0  2  0  0  0  0  0  0  0  0  0
   10.1975  -23.2787   18.8044 N   0  0  0  0  0  0  0  0  0  0  0  0
    9.7767  -24.5159   20.7684 C   0  0  0  0  0  0  0  0  0  0  0  0
    8.5420  -24.2368   20.7739 O   0  0  0  0  0  0  0  0  0  0  0  0
   10.1347  -25.6229   21.5684 O   0  0  0  0  0  0  0  0  0  0  0  0
  2  1  1  1
  2  4  1  0
  2  3  1  0
  4  5  2  0
  6  7  1  0
  6  4  1  0
  7  8  1  6
  8  9  1  0
 10  9  1  0
 11 10  1  0
 12 11  1  0
 13  7  1  0
 13 14  2  0
 15 16  1  0
 16 17  2  0
 18 19  1  0
 18 16  1  0
 20 19  1  1
 20 21  1  0
 20 22  1  0
 21 13  1  0
 22 24  1  0
 23 22  2  0
M  END
$$$$
