AKQ.pdb
     RDKit          3D

 24 23  0  0  1  0  0  0  0  0999 V2000
    9.6191  -12.9173   20.0741 C   0  0  0  0  0  0  0  0  0  0  0  0
    8.2731  -13.5272   19.7686 C   0  0  2  0  0  0  0  0  0  0  0  0
    7.3227  -12.4610   19.5256 N   0  0  0  0  0  0  0  0  0  0  0  0
    7.7755  -14.3973   20.8325 C   0  0  0  0  0  0  0  0  0  0  0  0
    7.2368  -13.9983   21.8956 O   0  0  0  0  0  0  0  0  0  0  0  0
    7.9027  -15.8034   20.6679 N   0  0  0  0  0  0  0  0  0  0  0  0
    7.4742  -16.7593   21.6504 C   0  0  1  0  0  0  0  0  0  0  0  0
    7.1120  -18.0373   20.9057 C   0  0  0  0  0  0  0  0  0  0  0  0
    6.5558  -19.0141   21.9368 C   0  0  0  0  0  0  0  0  0  0  0  0
    6.1673  -20.2841   21.1822 C   0  0  0  0  0  0  0  0  0  0  0  0
    5.4515  -21.1791   22.1638 C   0  0  0  0  0  0  0  0  0  0  0  0
    5.0790  -22.4113   21.5097 N   0  0  0  0  0  0  0  0  0  0  0  0
    8.5077  -17.0786   22.6450 C   0  0  0  0  0  0  0  0  0  0  0  0
    9.7102  -17.0560   22.2844 O   0  0  0  0  0  0  0  0  0  0  0  0
    7.6114  -17.7124   29.0012 N   0  0  0  0  0  0  0  0  0  0  0  0
    8.5904  -18.6552   28.6218 C   0  0  0  0  0  0  0  0  0  0  0  0
    8.9896  -19.4857   29.4698 O   0  0  0  0  0  0  0  0  0  0  0  0
    9.1320  -18.6741   27.2573 C   0  0  0  0  0  0  0  0  0  0  0  0
    8.6264  -17.6368   26.3221 C   0  0  0  0  0  0  0  0  0  0  0  0
    9.2160  -17.6824   24.9723 C   0  0  2  0  0  0  0  0  0  0  0  0
    8.1823  -17.4003   23.9589 N   0  0  0  0  0  0  0  0  0  0  0  0
    9.9812  -18.8130   24.5365 C   0  0  0  0  0  0  0  0  0  0  0  0
    9.5464  -19.7898   23.8588 O   0  0  0  0  0  0  0  0  0  0  0  0
   11.3512  -18.8892   24.8691 O   0  0  0  0  0  0  0  0  0  0  0  0
  2  1  1  1
  2  4  1  0
  2  3  1  0
  4  5  2  0
  6  7  1  0
  6  4  1  0
  7  8  1  6
  8  9  1  0
 10  9  1  0
 11 10  1  0
 12 11  1  0
 13  7  1  0
 13 14  2  0
 15 16  1  0
 16 17  2  0
 18 19  1  0
 18 16  1  0
 20 19  1  1
 20 21  1  0
 20 22  1  0
 21 13  1  0
 22 24  1  0
 23 22  2  0
M  END
$$$$
