AKQ.pdb
     RDKit          3D

 24 23  0  0  1  0  0  0  0  0999 V2000
   16.4943  -14.9357   17.8345 C   0  0  0  0  0  0  0  0  0  0  0  0
   15.3125  -14.0009   17.7547 C   0  0  2  0  0  0  0  0  0  0  0  0
   15.7943  -12.6354   17.8056 N   0  0  0  0  0  0  0  0  0  0  0  0
   14.3299  -14.2160   18.8152 C   0  0  0  0  0  0  0  0  0  0  0  0
   14.4922  -13.9015   20.0213 O   0  0  0  0  0  0  0  0  0  0  0  0
   13.0923  -14.8257   18.4736 N   0  0  0  0  0  0  0  0  0  0  0  0
   12.1154  -15.2359   19.4432 C   0  0  1  0  0  0  0  0  0  0  0  0
   10.9204  -15.7821   18.6735 C   0  0  0  0  0  0  0  0  0  0  0  0
    9.9920  -16.4354   19.6925 C   0  0  0  0  0  0  0  0  0  0  0  0
    8.7573  -16.9105   18.9288 C   0  0  0  0  0  0  0  0  0  0  0  0
    7.9085  -17.6895   19.9034 C   0  0  0  0  0  0  0  0  0  0  0  0
    6.6881  -18.1062   19.2538 N   0  0  0  0  0  0  0  0  0  0  0  0
   12.5992  -16.2830   20.3536 C   0  0  0  0  0  0  0  0  0  0  0  0
   12.9069  -17.3997   19.8690 O   0  0  0  0  0  0  0  0  0  0  0  0
   17.6612  -17.0180   22.4097 N   0  0  0  0  0  0  0  0  0  0  0  0
   16.9691  -15.9277   22.9785 C   0  0  0  0  0  0  0  0  0  0  0  0
   17.6251  -14.9404   23.3823 O   0  0  0  0  0  0  0  0  0  0  0  0
   15.5054  -15.9389   23.0925 C   0  0  0  0  0  0  0  0  0  0  0  0
   14.7924  -17.0712   22.4478 C   0  0  0  0  0  0  0  0  0  0  0  0
   13.3292  -17.0591   22.6224 C   0  0  2  0  0  0  0  0  0  0  0  0
   12.7205  -16.0622   21.7219 N   0  0  0  0  0  0  0  0  0  0  0  0
   12.7397  -16.9166   23.9208 C   0  0  0  0  0  0  0  0  0  0  0  0
   13.0104  -17.6139   24.9420 O   0  0  0  0  0  0  0  0  0  0  0  0
   11.7618  -15.9198   24.1295 O   0  0  0  0  0  0  0  0  0  0  0  0
  2  1  1  1
  2  4  1  0
  2  3  1  0
  4  5  2  0
  6  7  1  0
  6  4  1  0
  7  8  1  6
  8  9  1  0
 10  9  1  0
 11 10  1  0
 12 11  1  0
 13  7  1  0
 13 14  2  0
 15 16  1  0
 16 17  2  0
 18 19  1  0
 18 16  1  0
 20 19  1  1
 20 21  1  0
 20 22  1  0
 21 13  1  0
 22 24  1  0
 23 22  2  0
M  END
$$$$
