AKQ.pdb
     RDKit          3D

 24 23  0  0  1  0  0  0  0  0999 V2000
   10.4862  -18.9274   16.5946 C   0  0  0  0  0  0  0  0  0  0  0  0
    9.7815  -19.0186   17.9258 C   0  0  2  0  0  0  0  0  0  0  0  0
    8.3508  -18.9954   17.6982 N   0  0  0  0  0  0  0  0  0  0  0  0
   10.1500  -17.9494   18.8518 C   0  0  0  0  0  0  0  0  0  0  0  0
   11.3152  -17.7270   19.2674 O   0  0  0  0  0  0  0  0  0  0  0  0
    9.1251  -17.0873   19.3278 N   0  0  0  0  0  0  0  0  0  0  0  0
    9.3761  -15.9271   20.1363 C   0  0  1  0  0  0  0  0  0  0  0  0
    8.1832  -14.9957   19.9681 C   0  0  0  0  0  0  0  0  0  0  0  0
    8.3495  -14.2932   18.6243 C   0  0  0  0  0  0  0  0  0  0  0  0
    7.0299  -13.5835   18.3270 C   0  0  0  0  0  0  0  0  0  0  0  0
    7.2145  -12.8338   17.0305 C   0  0  0  0  0  0  0  0  0  0  0  0
    6.0085  -12.1026   16.7207 N   0  0  0  0  0  0  0  0  0  0  0  0
    9.5289  -16.2324   21.5656 C   0  0  0  0  0  0  0  0  0  0  0  0
    8.6853  -16.9878   22.1079 O   0  0  0  0  0  0  0  0  0  0  0  0
   15.0405  -17.5761   23.0115 N   0  0  0  0  0  0  0  0  0  0  0  0
   14.5133  -17.6284   24.3194 C   0  0  0  0  0  0  0  0  0  0  0  0
   15.1287  -18.2814   25.1929 O   0  0  0  0  0  0  0  0  0  0  0  0
   13.2695  -16.9271   24.6609 C   0  0  0  0  0  0  0  0  0  0  0  0
   12.5881  -16.1984   23.5605 C   0  0  0  0  0  0  0  0  0  0  0  0
   11.1330  -16.4183   23.4825 C   0  0  2  0  0  0  0  0  0  0  0  0
   10.5757  -15.7073   22.3167 N   0  0  0  0  0  0  0  0  0  0  0  0
   10.2855  -16.1714   24.6114 C   0  0  0  0  0  0  0  0  0  0  0  0
   10.1162  -16.9454   25.5987 O   0  0  0  0  0  0  0  0  0  0  0  0
    9.5513  -14.9670   24.6734 O   0  0  0  0  0  0  0  0  0  0  0  0
  2  1  1  6
  2  4  1  0
  2  3  1  0
  4  5  2  0
  6  7  1  0
  6  4  1  0
  7  8  1  1
  8  9  1  0
 10  9  1  0
 11 10  1  0
 12 11  1  0
 13  7  1  0
 13 14  2  0
 15 16  1  0
 16 17  2  0
 18 19  1  0
 18 16  1  0
 20 19  1  1
 20 21  1  0
 20 22  1  0
 21 13  1  0
 22 24  1  0
 23 22  2  0
M  END
$$$$
