AKQ.pdb
     RDKit          3D

 24 23  0  0  1  0  0  0  0  0999 V2000
    8.4355  -11.9441   19.5212 C   0  0  0  0  0  0  0  0  0  0  0  0
    8.3997  -13.3989   19.1222 C   0  0  2  0  0  0  0  0  0  0  0  0
    7.3822  -13.5787   18.1066 N   0  0  0  0  0  0  0  0  0  0  0  0
    8.1417  -14.3015   20.2426 C   0  0  0  0  0  0  0  0  0  0  0  0
    7.0221  -14.4694   20.7885 O   0  0  0  0  0  0  0  0  0  0  0  0
    9.2283  -15.0536   20.7661 N   0  0  0  0  0  0  0  0  0  0  0  0
    9.0818  -16.0573   21.7829 C   0  0  1  0  0  0  0  0  0  0  0  0
    9.9093  -17.2599   21.3495 C   0  0  0  0  0  0  0  0  0  0  0  0
    9.7543  -18.3236   22.4318 C   0  0  0  0  0  0  0  0  0  0  0  0
   10.5592  -19.5402   21.9784 C   0  0  0  0  0  0  0  0  0  0  0  0
   10.3710  -20.6092   23.0266 C   0  0  0  0  0  0  0  0  0  0  0  0
   11.1735  -21.7614   22.6894 N   0  0  0  0  0  0  0  0  0  0  0  0
    9.5519  -15.6225   23.1055 C   0  0  0  0  0  0  0  0  0  0  0  0
   10.7199  -15.1728   23.2056 O   0  0  0  0  0  0  0  0  0  0  0  0
    7.0779  -11.8233   27.0996 N   0  0  0  0  0  0  0  0  0  0  0  0
    6.3583  -12.9487   26.6445 C   0  0  0  0  0  0  0  0  0  0  0  0
    5.1084  -12.9372   26.7201 O   0  0  0  0  0  0  0  0  0  0  0  0
    7.0539  -14.1139   26.0843 C   0  0  0  0  0  0  0  0  0  0  0  0
    8.5292  -14.0104   25.9465 C   0  0  0  0  0  0  0  0  0  0  0  0
    9.2028  -15.2632   25.5614 C   0  0  2  0  0  0  0  0  0  0  0  0
    8.7381  -15.6993   24.2314 N   0  0  0  0  0  0  0  0  0  0  0  0
    9.2081  -16.3995   26.4346 C   0  0  0  0  0  0  0  0  0  0  0  0
    9.6357  -16.4211   27.6259 O   0  0  0  0  0  0  0  0  0  0  0  0
    8.6993  -17.6311   25.9681 O   0  0  0  0  0  0  0  0  0  0  0  0
  2  1  1  1
  2  4  1  0
  2  3  1  0
  4  5  2  0
  6  7  1  0
  6  4  1  0
  7  8  1  6
  8  9  1  0
 10  9  1  0
 11 10  1  0
 12 11  1  0
 13  7  1  0
 13 14  2  0
 15 16  1  0
 16 17  2  0
 18 19  1  0
 18 16  1  0
 20 19  1  1
 20 21  1  0
 20 22  1  0
 21 13  1  0
 22 24  1  0
 23 22  2  0
M  END
$$$$
