AKQ.pdb
     RDKit          3D

 24 23  0  0  1  0  0  0  0  0999 V2000
    9.9023  -12.9755   19.5271 C   0  0  0  0  0  0  0  0  0  0  0  0
    8.5750  -13.6931   19.5092 C   0  0  2  0  0  0  0  0  0  0  0  0
    7.5578  -12.7796   19.0296 N   0  0  0  0  0  0  0  0  0  0  0  0
    8.1845  -14.2235   20.8141 C   0  0  0  0  0  0  0  0  0  0  0  0
    7.7551  -13.5329   21.7725 O   0  0  0  0  0  0  0  0  0  0  0  0
    8.2926  -15.6239   21.0321 N   0  0  0  0  0  0  0  0  0  0  0  0
    7.8408  -16.2779   22.2283 C   0  0  1  0  0  0  0  0  0  0  0  0
    7.4235  -17.6895   21.8382 C   0  0  0  0  0  0  0  0  0  0  0  0
    6.8882  -18.3625   23.0981 C   0  0  0  0  0  0  0  0  0  0  0  0
    6.5713  -19.8105   22.7286 C   0  0  0  0  0  0  0  0  0  0  0  0
    5.8445  -20.4167   23.9039 C   0  0  0  0  0  0  0  0  0  0  0  0
    5.4723  -21.7763   23.5912 N   0  0  0  0  0  0  0  0  0  0  0  0
    8.8734  -16.3701   23.2698 C   0  0  0  0  0  0  0  0  0  0  0  0
   10.0627  -16.5618   22.9157 O   0  0  0  0  0  0  0  0  0  0  0  0
    8.7998  -13.2132   28.7060 N   0  0  0  0  0  0  0  0  0  0  0  0
    9.8743  -14.1149   28.8600 C   0  0  0  0  0  0  0  0  0  0  0  0
   10.5376  -14.0882   29.9219 O   0  0  0  0  0  0  0  0  0  0  0  0
   10.2115  -15.0757   27.8023 C   0  0  0  0  0  0  0  0  0  0  0  0
    9.2906  -15.1408   26.6388 C   0  0  0  0  0  0  0  0  0  0  0  0
    9.6051  -16.1974   25.6608 C   0  0  2  0  0  0  0  0  0  0  0  0
    8.5612  -16.2506   24.6203 N   0  0  0  0  0  0  0  0  0  0  0  0
    9.8916  -17.5362   26.0840 C   0  0  0  0  0  0  0  0  0  0  0  0
    9.0661  -18.4947   26.1324 O   0  0  0  0  0  0  0  0  0  0  0  0
   11.2021  -17.8652   26.4940 O   0  0  0  0  0  0  0  0  0  0  0  0
  2  1  1  1
  2  4  1  0
  2  3  1  0
  4  5  2  0
  6  7  1  0
  6  4  1  0
  7  8  1  6
  8  9  1  0
 10  9  1  0
 11 10  1  0
 12 11  1  0
 13  7  1  0
 13 14  2  0
 15 16  1  0
 16 17  2  0
 18 19  1  0
 18 16  1  0
 20 19  1  1
 20 21  1  0
 20 22  1  0
 21 13  1  0
 22 24  1  0
 23 22  2  0
M  END
$$$$
