AKQ.pdb
     RDKit          3D

 24 23  0  0  1  0  0  0  0  0999 V2000
    8.0624  -17.8460   19.6845 C   0  0  0  0  0  0  0  0  0  0  0  0
    8.5484  -16.4178   19.7165 C   0  0  2  0  0  0  0  0  0  0  0  0
    9.5935  -16.2590   18.7257 N   0  0  0  0  0  0  0  0  0  0  0  0
    9.0457  -16.0034   21.0271 C   0  0  0  0  0  0  0  0  0  0  0  0
   10.1989  -16.2402   21.4671 O   0  0  0  0  0  0  0  0  0  0  0  0
    8.1716  -15.2769   21.8806 N   0  0  0  0  0  0  0  0  0  0  0  0
    8.5082  -14.8980   23.2244 C   0  0  1  0  0  0  0  0  0  0  0  0
    7.3620  -14.0450   23.7511 C   0  0  0  0  0  0  0  0  0  0  0  0
    7.7683  -13.5558   25.1376 C   0  0  0  0  0  0  0  0  0  0  0  0
    6.6150  -12.7037   25.6643 C   0  0  0  0  0  0  0  0  0  0  0  0
    7.0400  -12.1694   27.0100 C   0  0  0  0  0  0  0  0  0  0  0  0
    5.9958  -11.3286   27.5464 N   0  0  0  0  0  0  0  0  0  0  0  0
    8.6876  -16.0434   24.1272 C   0  0  0  0  0  0  0  0  0  0  0  0
    8.0309  -17.0895   23.9018 O   0  0  0  0  0  0  0  0  0  0  0  0
   11.8953  -20.0573   23.3625 N   0  0  0  0  0  0  0  0  0  0  0  0
   12.5614  -18.8718   23.7398 C   0  0  0  0  0  0  0  0  0  0  0  0
   13.7173  -18.6642   23.3053 O   0  0  0  0  0  0  0  0  0  0  0  0
   11.9156  -17.8902   24.6201 C   0  0  0  0  0  0  0  0  0  0  0  0
   10.5314  -18.1967   25.0628 C   0  0  0  0  0  0  0  0  0  0  0  0
    9.9372  -17.1974   25.9683 C   0  0  2  0  0  0  0  0  0  0  0  0
    9.5589  -15.9899   25.2107 N   0  0  0  0  0  0  0  0  0  0  0  0
   10.6118  -16.7887   27.1647 C   0  0  0  0  0  0  0  0  0  0  0  0
   10.9133  -15.6006   27.4808 O   0  0  0  0  0  0  0  0  0  0  0  0
   10.9955  -17.7657   28.1091 O   0  0  0  0  0  0  0  0  0  0  0  0
  2  1  1  1
  2  4  1  0
  2  3  1  0
  4  5  2  0
  6  7  1  0
  6  4  1  0
  7  8  1  1
  8  9  1  0
 10  9  1  0
 11 10  1  0
 12 11  1  0
 13  7  1  0
 13 14  2  0
 15 16  1  0
 16 17  2  0
 18 19  1  0
 18 16  1  0
 20 19  1  6
 20 21  1  0
 20 22  1  0
 21 13  1  0
 22 24  1  0
 23 22  2  0
M  END
$$$$
