AKQ.pdb
     RDKit          3D

 24 23  0  0  1  0  0  0  0  0999 V2000
    8.2364  -12.2607   20.1832 C   0  0  0  0  0  0  0  0  0  0  0  0
    8.1698  -13.7087   19.7637 C   0  0  2  0  0  0  0  0  0  0  0  0
    6.9077  -13.9415   19.0915 N   0  0  0  0  0  0  0  0  0  0  0  0
    8.3133  -14.6429   20.8787 C   0  0  0  0  0  0  0  0  0  0  0  0
    7.4126  -14.9114   21.7131 O   0  0  0  0  0  0  0  0  0  0  0  0
    9.5593  -15.3061   21.0461 N   0  0  0  0  0  0  0  0  0  0  0  0
    9.7565  -16.4097   21.9437 C   0  0  1  0  0  0  0  0  0  0  0  0
   10.4811  -17.4988   21.1641 C   0  0  0  0  0  0  0  0  0  0  0  0
    9.5011  -18.0325   20.1241 C   0  0  0  0  0  0  0  0  0  0  0  0
    9.0639  -19.4185   20.5948 C   0  0  0  0  0  0  0  0  0  0  0  0
    8.1110  -19.9569   19.5561 C   0  0  0  0  0  0  0  0  0  0  0  0
    7.5483  -21.2038   20.0183 N   0  0  0  0  0  0  0  0  0  0  0  0
   10.5639  -16.0674   23.1228 C   0  0  0  0  0  0  0  0  0  0  0  0
   11.6110  -15.3953   22.9543 O   0  0  0  0  0  0  0  0  0  0  0  0
    9.7924  -13.2384   28.9524 N   0  0  0  0  0  0  0  0  0  0  0  0
   10.1042  -14.6145   28.9712 C   0  0  0  0  0  0  0  0  0  0  0  0
    9.6878  -15.3151   29.9219 O   0  0  0  0  0  0  0  0  0  0  0  0
   10.8963  -15.2242   27.8958 C   0  0  0  0  0  0  0  0  0  0  0  0
   10.1763  -15.5559   26.6397 C   0  0  0  0  0  0  0  0  0  0  0  0
   11.0155  -16.1545   25.5867 C   0  0  2  0  0  0  0  0  0  0  0  0
   10.1942  -16.4686   24.4026 N   0  0  0  0  0  0  0  0  0  0  0  0
   11.8604  -17.2785   25.8631 C   0  0  0  0  0  0  0  0  0  0  0  0
   11.6149  -18.4849   25.5685 O   0  0  0  0  0  0  0  0  0  0  0  0
   13.0913  -17.0714   26.5231 O   0  0  0  0  0  0  0  0  0  0  0  0
  2  1  1  1
  2  4  1  0
  2  3  1  0
  4  5  2  0
  6  7  1  0
  6  4  1  0
  7  8  1  6
  8  9  1  0
 10  9  1  0
 11 10  1  0
 12 11  1  0
 13  7  1  0
 13 14  2  0
 15 16  1  0
 16 17  2  0
 18 19  1  0
 18 16  1  0
 20 19  1  1
 20 21  1  0
 20 22  1  0
 21 13  1  0
 22 24  1  0
 23 22  2  0
M  END
$$$$
