AKQ.pdb
     RDKit          3D

 24 23  0  0  1  0  0  0  0  0999 V2000
    8.5859  -12.0870   19.5784 C   0  0  0  0  0  0  0  0  0  0  0  0
    8.6115  -13.5117   19.0818 C   0  0  2  0  0  0  0  0  0  0  0  0
    7.7190  -13.6253   17.9461 N   0  0  0  0  0  0  0  0  0  0  0  0
    8.2363  -14.4886   20.1023 C   0  0  0  0  0  0  0  0  0  0  0  0
    7.0633  -14.8799   20.3274 O   0  0  0  0  0  0  0  0  0  0  0  0
    9.2636  -15.0480   20.9096 N   0  0  0  0  0  0  0  0  0  0  0  0
    9.0306  -16.0592   21.9025 C   0  0  1  0  0  0  0  0  0  0  0  0
    9.9743  -17.2147   21.5970 C   0  0  0  0  0  0  0  0  0  0  0  0
    9.6835  -18.3118   22.6162 C   0  0  0  0  0  0  0  0  0  0  0  0
   10.5033  -19.5324   22.2020 C   0  0  0  0  0  0  0  0  0  0  0  0
   10.1077  -20.6620   23.1209 C   0  0  0  0  0  0  0  0  0  0  0  0
   10.7938  -21.8690   22.7240 N   0  0  0  0  0  0  0  0  0  0  0  0
    9.2868  -15.6010   23.2750 C   0  0  0  0  0  0  0  0  0  0  0  0
   10.4250  -15.1480   23.5502 O   0  0  0  0  0  0  0  0  0  0  0  0
    5.4272  -12.5435   27.0618 N   0  0  0  0  0  0  0  0  0  0  0  0
    6.6904  -12.0221   26.7100 C   0  0  0  0  0  0  0  0  0  0  0  0
    6.8873  -10.7904   26.8205 O   0  0  0  0  0  0  0  0  0  0  0  0
    7.7630  -12.9015   26.2286 C   0  0  0  0  0  0  0  0  0  0  0  0
    7.4345  -14.3433   26.0891 C   0  0  0  0  0  0  0  0  0  0  0  0
    8.5521  -15.1901   25.6359 C   0  0  2  0  0  0  0  0  0  0  0  0
    8.3056  -15.6593   24.2596 N   0  0  0  0  0  0  0  0  0  0  0  0
    9.0037  -16.3017   26.4195 C   0  0  0  0  0  0  0  0  0  0  0  0
    8.6342  -17.5052   26.2871 O   0  0  0  0  0  0  0  0  0  0  0  0
    9.9484  -16.0844   27.4461 O   0  0  0  0  0  0  0  0  0  0  0  0
  2  1  1  1
  2  4  1  0
  2  3  1  0
  4  5  2  0
  6  7  1  0
  6  4  1  0
  7  8  1  6
  8  9  1  0
 10  9  1  0
 11 10  1  0
 12 11  1  0
 13  7  1  0
 13 14  2  0
 15 16  1  0
 16 17  2  0
 18 19  1  0
 18 16  1  0
 20 19  1  1
 20 21  1  0
 20 22  1  0
 21 13  1  0
 22 24  1  0
 23 22  2  0
M  END
$$$$
