AKQ.pdb
     RDKit          3D

 24 23  0  0  1  0  0  0  0  0999 V2000
    8.4406  -12.0476   19.7765 C   0  0  0  0  0  0  0  0  0  0  0  0
    8.3579  -13.4898   19.3406 C   0  0  2  0  0  0  0  0  0  0  0  0
    7.3224  -13.6139   18.3348 N   0  0  0  0  0  0  0  0  0  0  0  0
    8.0888  -14.4139   20.4407 C   0  0  0  0  0  0  0  0  0  0  0  0
    6.9655  -14.5858   20.9778 O   0  0  0  0  0  0  0  0  0  0  0  0
    9.1680  -15.1838   20.9533 N   0  0  0  0  0  0  0  0  0  0  0  0
    9.0252  -16.1448   22.0110 C   0  0  1  0  0  0  0  0  0  0  0  0
    9.9744  -17.2952   21.7039 C   0  0  0  0  0  0  0  0  0  0  0  0
    9.6793  -18.4007   22.7128 C   0  0  0  0  0  0  0  0  0  0  0  0
   10.5781  -19.5824   22.3534 C   0  0  0  0  0  0  0  0  0  0  0  0
   10.1753  -20.7305   23.2459 C   0  0  0  0  0  0  0  0  0  0  0  0
   11.0880  -21.8329   23.0547 N   0  0  0  0  0  0  0  0  0  0  0  0
    9.3597  -15.6082   23.3375 C   0  0  0  0  0  0  0  0  0  0  0  0
   10.4666  -15.0349   23.4875 O   0  0  0  0  0  0  0  0  0  0  0  0
    5.1988  -12.9407   26.8558 N   0  0  0  0  0  0  0  0  0  0  0  0
    6.2590  -12.2673   26.2125 C   0  0  0  0  0  0  0  0  0  0  0  0
    6.1253  -11.0525   25.9393 O   0  0  0  0  0  0  0  0  0  0  0  0
    7.5031  -12.9686   25.8721 C   0  0  0  0  0  0  0  0  0  0  0  0
    7.5783  -14.4089   26.2272 C   0  0  0  0  0  0  0  0  0  0  0  0
    8.7735  -15.1076   25.7225 C   0  0  2  0  0  0  0  0  0  0  0  0
    8.4850  -15.7226   24.4134 N   0  0  0  0  0  0  0  0  0  0  0  0
    9.4668  -16.0667   26.5307 C   0  0  0  0  0  0  0  0  0  0  0  0
   10.3755  -15.8116   27.3742 O   0  0  0  0  0  0  0  0  0  0  0  0
    9.1406  -17.4352   26.4108 O   0  0  0  0  0  0  0  0  0  0  0  0
  2  1  1  1
  2  4  1  0
  2  3  1  0
  4  5  2  0
  6  7  1  0
  6  4  1  0
  7  8  1  6
  8  9  1  0
 10  9  1  0
 11 10  1  0
 12 11  1  0
 13  7  1  0
 13 14  2  0
 15 16  1  0
 16 17  2  0
 18 19  1  0
 18 16  1  0
 20 19  1  1
 20 21  1  0
 20 22  1  0
 21 13  1  0
 22 24  1  0
 23 22  2  0
M  END
$$$$
