NFF.pdb
     RDKit          3D

 31 32  0  0  1  0  0  0  0  0999 V2000
   24.6326  -12.0033  -22.7254 N   0  0  0  0  0  0  0  0  0  0  0  0
   23.9984  -12.3003  -21.4564 C   0  0  0  0  0  0  0  0  0  0  0  0
   23.1510  -13.1954  -21.3240 O   0  0  0  0  0  0  0  0  0  0  0  0
   24.3982  -11.4813  -20.2861 C   0  0  0  0  0  0  0  0  0  0  0  0
   25.3663  -10.4084  -20.7883 C   0  0  2  0  0  0  0  0  0  0  0  0
   26.7151  -10.9756  -20.6098 N   0  0  0  0  0  0  0  0  0  0  0  0
   25.2452   -9.2358  -19.8955 C   0  0  0  0  0  0  0  0  0  0  0  0
   26.0613   -9.1723  -18.8954 O   0  0  0  0  0  0  0  0  0  0  0  0
   24.3065   -8.2153  -20.0849 N   0  0  0  0  0  0  0  0  0  0  0  0
   24.2344   -7.0282  -19.1944 C   0  0  1  0  0  0  0  0  0  0  0  0
   24.0328   -5.8338  -20.0834 C   0  0  0  0  0  0  0  0  0  0  0  0
   25.2371   -5.3173  -20.7413 C   0  0  0  0  0  0  0  0  0  0  0  0
   25.4905   -5.7120  -22.0380 C   0  0  0  0  0  0  0  0  0  0  0  0
   26.5474   -5.2658  -22.7565 C   0  0  0  0  0  0  0  0  0  0  0  0
   27.4347   -4.3717  -22.1964 C   0  0  0  0  0  0  0  0  0  0  0  0
   27.1848   -3.9677  -20.8854 C   0  0  0  0  0  0  0  0  0  0  0  0
   26.1099   -4.4331  -20.1793 C   0  0  0  0  0  0  0  0  0  0  0  0
   23.1360   -7.2689  -18.2694 C   0  0  0  0  0  0  0  0  0  0  0  0
   21.9959   -7.7078  -18.7043 O   0  0  0  0  0  0  0  0  0  0  0  0
   23.1665   -7.0764  -16.8683 N   0  0  0  0  0  0  0  0  0  0  0  0
   22.0251   -7.3334  -16.0221 C   0  0  1  0  0  0  0  0  0  0  0  0
   22.5154   -8.2519  -14.9048 C   0  0  0  0  0  0  0  0  0  0  0  0
   21.4385   -8.5736  -13.9516 C   0  0  0  0  0  0  0  0  0  0  0  0
   20.6586   -9.6959  -14.1215 C   0  0  0  0  0  0  0  0  0  0  0  0
   19.6517  -10.0510  -13.2753 C   0  0  0  0  0  0  0  0  0  0  0  0
   19.4254   -9.2108  -12.1876 C   0  0  0  0  0  0  0  0  0  0  0  0
   20.2007   -8.0797  -12.0030 C   0  0  0  0  0  0  0  0  0  0  0  0
   21.2168   -7.7429  -12.8780 C   0  0  0  0  0  0  0  0  0  0  0  0
   21.4143   -6.1269  -15.5091 C   0  0  0  0  0  0  0  0  0  0  0  0
   20.0912   -5.9210  -15.2697 O   0  0  0  0  0  0  0  0  0  0  0  0
   22.2039   -5.1463  -15.2551 O   0  0  0  0  0  0  0  0  0  0  0  0
  2  1  1  0
  2  4  1  0
  3  2  2  0
  4  5  1  0
  5  6  1  1
  7  9  1  0
  7  5  1  0
  8  7  2  0
 10  9  1  0
 10 11  1  6
 11 12  1  0
 12 13  2  0
 12 17  1  0
 13 14  1  0
 14 15  2  0
 16 15  1  0
 17 16  2  0
 18 10  1  0
 19 18  2  0
 20 18  1  0
 21 29  1  0
 21 20  1  0
 22 23  1  0
 21 22  1  1
 23 24  2  0
 23 28  1  0
 24 25  1  0
 25 26  2  0
 27 26  1  0
 28 27  2  0
 29 30  1  0
 31 29  2  0
M  END
$$$$
