NFF.pdb
     RDKit          3D

 31 32  0  0  1  0  0  0  0  0999 V2000
   30.0978  -19.1058  -17.6341 N   0  0  0  0  0  0  0  0  0  0  0  0
   28.6573  -19.0129  -17.7658 C   0  0  0  0  0  0  0  0  0  0  0  0
   28.1070  -18.3033  -18.6205 O   0  0  0  0  0  0  0  0  0  0  0  0
   27.8337  -19.8092  -16.8237 C   0  0  0  0  0  0  0  0  0  0  0  0
   28.7933  -20.5380  -15.8810 C   0  0  2  0  0  0  0  0  0  0  0  0
   29.3094  -21.6854  -16.6491 N   0  0  0  0  0  0  0  0  0  0  0  0
   28.0015  -21.0680  -14.7501 C   0  0  0  0  0  0  0  0  0  0  0  0
   27.3219  -22.1463  -14.9634 O   0  0  0  0  0  0  0  0  0  0  0  0
   27.9597  -20.4652  -13.4878 N   0  0  0  0  0  0  0  0  0  0  0  0
   27.1634  -21.0269  -12.3662 C   0  0  1  0  0  0  0  0  0  0  0  0
   27.8890  -20.6685  -11.1003 C   0  0  0  0  0  0  0  0  0  0  0  0
   29.1766  -21.3381  -10.8912 C   0  0  0  0  0  0  0  0  0  0  0  0
   29.9084  -21.0062   -9.7706 C   0  0  0  0  0  0  0  0  0  0  0  0
   31.0882  -21.5900   -9.4548 C   0  0  0  0  0  0  0  0  0  0  0  0
   31.6141  -22.5689  -10.2708 C   0  0  0  0  0  0  0  0  0  0  0  0
   30.8794  -22.9101  -11.4058 C   0  0  0  0  0  0  0  0  0  0  0  0
   29.6895  -22.3053  -11.7040 C   0  0  0  0  0  0  0  0  0  0  0  0
   25.8325  -20.4457  -12.4698 C   0  0  0  0  0  0  0  0  0  0  0  0
   25.6712  -19.2599  -12.9693 O   0  0  0  0  0  0  0  0  0  0  0  0
   24.6205  -21.0580  -12.0733 N   0  0  0  0  0  0  0  0  0  0  0  0
   23.3264  -20.5276  -12.4324 C   0  0  1  0  0  0  0  0  0  0  0  0
   23.2293  -20.6217  -13.9536 C   0  0  0  0  0  0  0  0  0  0  0  0
   21.9025  -20.2060  -14.4419 C   0  0  0  0  0  0  0  0  0  0  0  0
   21.6097  -18.8750  -14.6409 C   0  0  0  0  0  0  0  0  0  0  0  0
   20.4057  -18.4262  -15.0936 C   0  0  0  0  0  0  0  0  0  0  0  0
   19.4398  -19.3935  -15.3612 C   0  0  0  0  0  0  0  0  0  0  0  0
   19.7189  -20.7347  -15.1666 C   0  0  0  0  0  0  0  0  0  0  0  0
   20.9501  -21.1626  -14.7058 C   0  0  0  0  0  0  0  0  0  0  0  0
   22.2314  -21.2039  -11.7722 C   0  0  0  0  0  0  0  0  0  0  0  0
   21.0843  -20.6384  -11.3092 O   0  0  0  0  0  0  0  0  0  0  0  0
   22.3568  -22.4709  -11.6034 O   0  0  0  0  0  0  0  0  0  0  0  0
  2  1  1  0
  2  4  1  0
  3  2  2  0
  4  5  1  0
  5  6  1  6
  7  9  1  0
  7  5  1  0
  8  7  2  0
 10  9  1  0
 10 11  1  1
 11 12  1  0
 12 13  2  0
 12 17  1  0
 13 14  1  0
 14 15  2  0
 16 15  1  0
 17 16  2  0
 18 10  1  0
 19 18  2  0
 20 18  1  0
 21 29  1  0
 21 20  1  0
 22 23  1  0
 21 22  1  6
 23 24  2  0
 23 28  1  0
 24 25  1  0
 25 26  2  0
 27 26  1  0
 28 27  2  0
 29 30  1  0
 31 29  2  0
M  END
$$$$
