NFF.pdb
     RDKit          3D

 31 32  0  0  1  0  0  0  0  0999 V2000
   14.1165  -11.3150  -16.5787 N   0  0  0  0  0  0  0  0  0  0  0  0
   15.1013  -10.2989  -16.2648 C   0  0  0  0  0  0  0  0  0  0  0  0
   15.5086   -9.4795  -17.1013 O   0  0  0  0  0  0  0  0  0  0  0  0
   15.6272  -10.2640  -14.8783 C   0  0  0  0  0  0  0  0  0  0  0  0
   17.1269   -9.9738  -14.9654 C   0  0  2  0  0  0  0  0  0  0  0  0
   17.7817  -11.2913  -15.0545 N   0  0  0  0  0  0  0  0  0  0  0  0
   17.5411   -9.3461  -13.6922 C   0  0  0  0  0  0  0  0  0  0  0  0
   17.3457  -10.0266  -12.6110 O   0  0  0  0  0  0  0  0  0  0  0  0
   18.1235   -8.0761  -13.6115 N   0  0  0  0  0  0  0  0  0  0  0  0
   18.6141   -7.5081  -12.3292 C   0  0  1  0  0  0  0  0  0  0  0  0
   20.0141   -7.0237  -12.5798 C   0  0  0  0  0  0  0  0  0  0  0  0
   21.0566   -8.0548  -12.5761 C   0  0  0  0  0  0  0  0  0  0  0  0
   21.3749   -8.6544  -11.3758 C   0  0  0  0  0  0  0  0  0  0  0  0
   22.2893   -9.6459  -11.2609 C   0  0  0  0  0  0  0  0  0  0  0  0
   22.9544  -10.1043  -12.3781 C   0  0  0  0  0  0  0  0  0  0  0  0
   22.6375   -9.5029  -13.5956 C   0  0  0  0  0  0  0  0  0  0  0  0
   21.7099   -8.5020  -13.6863 C   0  0  0  0  0  0  0  0  0  0  0  0
   17.6811   -6.4538  -11.9579 C   0  0  0  0  0  0  0  0  0  0  0  0
   17.4618   -5.4589  -12.7603 O   0  0  0  0  0  0  0  0  0  0  0  0
   16.9352   -6.3829  -10.7580 N   0  0  0  0  0  0  0  0  0  0  0  0
   16.1043   -5.2504  -10.4236 C   0  0  1  0  0  0  0  0  0  0  0  0
   14.6584   -5.7114  -10.5955 C   0  0  0  0  0  0  0  0  0  0  0  0
   14.2781   -6.7045   -9.5753 C   0  0  0  0  0  0  0  0  0  0  0  0
   14.5166   -8.0463   -9.7742 C   0  0  0  0  0  0  0  0  0  0  0  0
   14.1933   -9.0129   -8.8702 C   0  0  0  0  0  0  0  0  0  0  0  0
   13.5902   -8.5861   -7.6893 C   0  0  0  0  0  0  0  0  0  0  0  0
   13.3444   -7.2414   -7.4746 C   0  0  0  0  0  0  0  0  0  0  0  0
   13.6829   -6.2811   -8.4098 C   0  0  0  0  0  0  0  0  0  0  0  0
   16.3581   -4.7305   -9.0980 C   0  0  0  0  0  0  0  0  0  0  0  0
   15.8258   -3.6064   -8.5474 O   0  0  0  0  0  0  0  0  0  0  0  0
   17.1734   -5.3992   -8.3649 O   0  0  0  0  0  0  0  0  0  0  0  0
  2  1  1  0
  2  4  1  0
  3  2  2  0
  4  5  1  0
  5  6  1  1
  7  9  1  0
  7  5  1  0
  8  7  2  0
 10  9  1  0
 10 11  1  6
 11 12  1  0
 12 13  2  0
 12 17  1  0
 13 14  1  0
 14 15  2  0
 16 15  1  0
 17 16  2  0
 18 10  1  0
 19 18  2  0
 20 18  1  0
 21 29  1  0
 21 20  1  0
 22 23  1  0
 21 22  1  1
 23 24  2  0
 23 28  1  0
 24 25  1  0
 25 26  2  0
 27 26  1  0
 28 27  2  0
 29 30  1  0
 31 29  2  0
M  END
$$$$
