NFF.pdb
     RDKit          3D

 31 32  0  0  1  0  0  0  0  0999 V2000
   11.4804  -13.9894    7.2667 N   0  0  0  0  0  0  0  0  0  0  0  0
   11.2088  -15.0899    6.3634 C   0  0  0  0  0  0  0  0  0  0  0  0
   10.3509  -15.9535    6.5985 O   0  0  0  0  0  0  0  0  0  0  0  0
   12.0075  -15.1611    5.1156 C   0  0  0  0  0  0  0  0  0  0  0  0
   13.2180  -14.2428    5.2947 C   0  0  2  0  0  0  0  0  0  0  0  0
   13.1344  -13.2577    4.2014 N   0  0  0  0  0  0  0  0  0  0  0  0
   14.4364  -15.0536    5.0831 C   0  0  0  0  0  0  0  0  0  0  0  0
   14.5670  -15.6283    3.9330 O   0  0  0  0  0  0  0  0  0  0  0  0
   15.4313  -15.2193    6.0533 N   0  0  0  0  0  0  0  0  0  0  0  0
   16.6351  -16.0584    5.8202 C   0  0  1  0  0  0  0  0  0  0  0  0
   17.8155  -15.2613    6.2987 C   0  0  0  0  0  0  0  0  0  0  0  0
   18.2701  -14.1934    5.4028 C   0  0  0  0  0  0  0  0  0  0  0  0
   18.4498  -14.4950    4.0693 C   0  0  0  0  0  0  0  0  0  0  0  0
   18.8252  -13.5796    3.1453 C   0  0  0  0  0  0  0  0  0  0  0  0
   19.0472  -12.2716    3.5202 C   0  0  0  0  0  0  0  0  0  0  0  0
   18.8671  -11.9591    4.8671 C   0  0  0  0  0  0  0  0  0  0  0  0
   18.4878  -12.9019    5.7823 C   0  0  0  0  0  0  0  0  0  0  0  0
   16.4242  -17.2997    6.5513 C   0  0  0  0  0  0  0  0  0  0  0  0
   15.2960  -17.5256    7.1495 O   0  0  0  0  0  0  0  0  0  0  0  0
   17.3553  -18.3555    6.6907 N   0  0  0  0  0  0  0  0  0  0  0  0
   17.0042  -19.6321    7.2668 C   0  0  1  0  0  0  0  0  0  0  0  0
   15.9291  -20.2316    6.3629 C   0  0  0  0  0  0  0  0  0  0  0  0
   14.6285  -20.3231    7.0496 C   0  0  0  0  0  0  0  0  0  0  0  0
   13.4905  -19.7994    6.4770 C   0  0  0  0  0  0  0  0  0  0  0  0
   12.2592  -19.8547    7.0573 C   0  0  0  0  0  0  0  0  0  0  0  0
   12.1817  -20.4834    8.2979 C   0  0  0  0  0  0  0  0  0  0  0  0
   13.3160  -21.0148    8.8859 C   0  0  0  0  0  0  0  0  0  0  0  0
   14.5539  -20.9445    8.2744 C   0  0  0  0  0  0  0  0  0  0  0  0
   18.1386  -20.5153    7.4264 C   0  0  0  0  0  0  0  0  0  0  0  0
   18.2327  -21.5770    8.2713 O   0  0  0  0  0  0  0  0  0  0  0  0
   19.1654  -20.2695    6.6953 O   0  0  0  0  0  0  0  0  0  0  0  0
  2  1  1  0
  2  4  1  0
  3  2  2  0
  4  5  1  0
  5  6  1  6
  7  9  1  0
  7  5  1  0
  8  7  2  0
 10  9  1  0
 10 11  1  1
 11 12  1  0
 12 13  2  0
 12 17  1  0
 13 14  1  0
 14 15  2  0
 16 15  1  0
 17 16  2  0
 18 10  1  0
 19 18  2  0
 20 18  1  0
 21 29  1  0
 21 20  1  0
 22 23  1  0
 21 22  1  6
 23 24  2  0
 23 28  1  0
 24 25  1  0
 25 26  2  0
 27 26  1  0
 28 27  2  0
 29 30  1  0
 31 29  2  0
M  END
$$$$
