NFF.pdb
     RDKit          3D

 31 32  0  0  1  0  0  0  0  0999 V2000
   29.4248  -17.8998  -14.6142 N   0  0  0  0  0  0  0  0  0  0  0  0
   28.6740  -19.0743  -15.0115 C   0  0  0  0  0  0  0  0  0  0  0  0
   28.7945  -19.6006  -16.1275 O   0  0  0  0  0  0  0  0  0  0  0  0
   27.7285  -19.6462  -14.0221 C   0  0  0  0  0  0  0  0  0  0  0  0
   28.5609  -20.2311  -12.8795 C   0  0  2  0  0  0  0  0  0  0  0  0
   29.1256  -21.4881  -13.4026 N   0  0  0  0  0  0  0  0  0  0  0  0
   27.6378  -20.5727  -11.7758 C   0  0  0  0  0  0  0  0  0  0  0  0
   27.1174  -21.7556  -11.7904 O   0  0  0  0  0  0  0  0  0  0  0  0
   27.3132  -19.6896  -10.7400 N   0  0  0  0  0  0  0  0  0  0  0  0
   26.2473  -19.9870   -9.7484 C   0  0  1  0  0  0  0  0  0  0  0  0
   26.4414  -19.0299   -8.6066 C   0  0  0  0  0  0  0  0  0  0  0  0
   27.0538  -19.5928   -7.3990 C   0  0  0  0  0  0  0  0  0  0  0  0
   26.2238  -20.1331   -6.4396 C   0  0  0  0  0  0  0  0  0  0  0  0
   26.6802  -20.7170   -5.3068 C   0  0  0  0  0  0  0  0  0  0  0  0
   28.0358  -20.7933   -5.0676 C   0  0  0  0  0  0  0  0  0  0  0  0
   28.8814  -20.2493   -6.0336 C   0  0  0  0  0  0  0  0  0  0  0  0
   28.3962  -19.6637   -7.1704 C   0  0  0  0  0  0  0  0  0  0  0  0
   24.9777  -19.8288  -10.4433 C   0  0  0  0  0  0  0  0  0  0  0  0
   24.7567  -18.7823  -11.1765 O   0  0  0  0  0  0  0  0  0  0  0  0
   23.8933  -20.7368  -10.4188 N   0  0  0  0  0  0  0  0  0  0  0  0
   22.6883  -20.5314  -11.1873 C   0  0  1  0  0  0  0  0  0  0  0  0
   23.0457  -20.8404  -12.6396 C   0  0  0  0  0  0  0  0  0  0  0  0
   23.2366  -22.2852  -12.8584 C   0  0  0  0  0  0  0  0  0  0  0  0
   22.1559  -23.1200  -13.0373 C   0  0  0  0  0  0  0  0  0  0  0  0
   22.2647  -24.4617  -13.2476 C   0  0  0  0  0  0  0  0  0  0  0  0
   23.5549  -24.9857  -13.2785 C   0  0  0  0  0  0  0  0  0  0  0  0
   24.6508  -24.1598  -13.1008 C   0  0  0  0  0  0  0  0  0  0  0  0
   24.5114  -22.8008  -12.8888 C   0  0  0  0  0  0  0  0  0  0  0  0
   21.5727  -21.3239  -10.7187 C   0  0  0  0  0  0  0  0  0  0  0  0
   21.5994  -22.2745   -9.7462 O   0  0  0  0  0  0  0  0  0  0  0  0
   20.4385  -21.1089  -11.2816 O   0  0  0  0  0  0  0  0  0  0  0  0
  2  1  1  0
  2  4  1  0
  3  2  2  0
  4  5  1  0
  5  6  1  6
  7  9  1  0
  7  5  1  0
  8  7  2  0
 10  9  1  0
 10 11  1  1
 11 12  1  0
 12 13  2  0
 12 17  1  0
 13 14  1  0
 14 15  2  0
 16 15  1  0
 17 16  2  0
 18 10  1  0
 19 18  2  0
 20 18  1  0
 21 29  1  0
 21 20  1  0
 22 23  1  0
 21 22  1  6
 23 24  2  0
 23 28  1  0
 24 25  1  0
 25 26  2  0
 27 26  1  0
 28 27  2  0
 29 30  1  0
 31 29  2  0
M  END
$$$$
