NFF.pdb
     RDKit          3D

 31 32  0  0  1  0  0  0  0  0999 V2000
   20.3237  -20.1248  -13.9226 N   0  0  0  0  0  0  0  0  0  0  0  0
   20.3896  -21.2838  -13.0546 C   0  0  0  0  0  0  0  0  0  0  0  0
   19.3858  -21.7808  -12.5232 O   0  0  0  0  0  0  0  0  0  0  0  0
   21.7268  -21.8764  -12.8086 C   0  0  0  0  0  0  0  0  0  0  0  0
   22.7466  -21.0422  -13.5864 C   0  0  2  0  0  0  0  0  0  0  0  0
   22.8350  -21.6648  -14.9195 N   0  0  0  0  0  0  0  0  0  0  0  0
   24.0594  -21.1993  -12.9240 C   0  0  0  0  0  0  0  0  0  0  0  0
   24.6601  -22.3339  -13.0726 O   0  0  0  0  0  0  0  0  0  0  0  0
   24.6646  -20.1935  -12.1620 N   0  0  0  0  0  0  0  0  0  0  0  0
   26.0602  -20.3059  -11.6647 C   0  0  1  0  0  0  0  0  0  0  0  0
   26.7661  -19.0438  -12.0725 C   0  0  0  0  0  0  0  0  0  0  0  0
   27.4109  -19.0699  -13.3892 C   0  0  0  0  0  0  0  0  0  0  0  0
   27.0302  -18.1257  -14.3191 C   0  0  0  0  0  0  0  0  0  0  0  0
   27.5869  -18.0289  -15.5492 C   0  0  0  0  0  0  0  0  0  0  0  0
   28.5868  -18.9006  -15.9248 C   0  0  0  0  0  0  0  0  0  0  0  0
   28.9773  -19.8581  -14.9894 C   0  0  0  0  0  0  0  0  0  0  0  0
   28.3992  -19.9364  -13.7524 C   0  0  0  0  0  0  0  0  0  0  0  0
   25.9737  -20.4961  -10.2238 C   0  0  0  0  0  0  0  0  0  0  0  0
   24.9110  -20.1313   -9.5762 O   0  0  0  0  0  0  0  0  0  0  0  0
   26.9663  -21.0712   -9.3961 N   0  0  0  0  0  0  0  0  0  0  0  0
   26.9219  -20.9890   -7.9553 C   0  0  1  0  0  0  0  0  0  0  0  0
   28.3386  -21.2783   -7.4635 C   0  0  0  0  0  0  0  0  0  0  0  0
   28.5379  -20.8222   -6.0765 C   0  0  0  0  0  0  0  0  0  0  0  0
   28.9997  -19.5520   -5.8115 C   0  0  0  0  0  0  0  0  0  0  0  0
   29.2010  -19.0688   -4.5537 C   0  0  0  0  0  0  0  0  0  0  0  0
   28.9131  -19.9330   -3.4999 C   0  0  0  0  0  0  0  0  0  0  0  0
   28.4482  -21.2120   -3.7499 C   0  0  0  0  0  0  0  0  0  0  0  0
   28.2529  -21.6769   -5.0372 C   0  0  0  0  0  0  0  0  0  0  0  0
   26.4248  -19.7192   -7.4730 C   0  0  0  0  0  0  0  0  0  0  0  0
   25.6804  -19.5067   -6.3546 O   0  0  0  0  0  0  0  0  0  0  0  0
   26.7149  -18.6842   -8.1759 O   0  0  0  0  0  0  0  0  0  0  0  0
  2  1  1  0
  2  4  1  0
  3  2  2  0
  4  5  1  0
  5  6  1  6
  7  9  1  0
  7  5  1  0
  8  7  2  0
 10  9  1  0
 10 11  1  1
 11 12  1  0
 12 13  2  0
 12 17  1  0
 13 14  1  0
 14 15  2  0
 16 15  1  0
 17 16  2  0
 18 10  1  0
 19 18  2  0
 20 18  1  0
 21 29  1  0
 21 20  1  0
 22 23  1  0
 21 22  1  1
 23 24  2  0
 23 28  1  0
 24 25  1  0
 25 26  2  0
 27 26  1  0
 28 27  2  0
 29 30  1  0
 31 29  2  0
M  END
$$$$
