NFF.pdb
     RDKit          3D

 31 32  0  0  1  0  0  0  0  0999 V2000
   28.7391  -19.6663  -15.2149 N   0  0  0  0  0  0  0  0  0  0  0  0
   27.4658  -19.1316  -14.7747 C   0  0  0  0  0  0  0  0  0  0  0  0
   26.8487  -18.2630  -15.4084 O   0  0  0  0  0  0  0  0  0  0  0  0
   26.9039  -19.6630  -13.5090 C   0  0  0  0  0  0  0  0  0  0  0  0
   27.8711  -20.7297  -12.9918 C   0  0  2  0  0  0  0  0  0  0  0  0
   27.6157  -21.9281  -13.8111 N   0  0  0  0  0  0  0  0  0  0  0  0
   27.4941  -21.0445  -11.5970 C   0  0  0  0  0  0  0  0  0  0  0  0
   26.5143  -21.8696  -11.4254 O   0  0  0  0  0  0  0  0  0  0  0  0
   28.1400  -20.4998  -10.4813 N   0  0  0  0  0  0  0  0  0  0  0  0
   27.6906  -20.7742   -9.0919 C   0  0  1  0  0  0  0  0  0  0  0  0
   28.6392  -20.0481   -8.1806 C   0  0  0  0  0  0  0  0  0  0  0  0
   28.3030  -20.0789   -6.7537 C   0  0  0  0  0  0  0  0  0  0  0  0
   27.8263  -18.9231   -6.1722 C   0  0  0  0  0  0  0  0  0  0  0  0
   27.4452  -18.8472   -4.8755 C   0  0  0  0  0  0  0  0  0  0  0  0
   27.5237  -19.9609   -4.0668 C   0  0  0  0  0  0  0  0  0  0  0  0
   28.0047  -21.1336   -4.6480 C   0  0  0  0  0  0  0  0  0  0  0  0
   28.3842  -21.1853   -5.9609 C   0  0  0  0  0  0  0  0  0  0  0  0
   26.3131  -20.3114   -9.0017 C   0  0  0  0  0  0  0  0  0  0  0  0
   25.9967  -19.1137   -9.3851 O   0  0  0  0  0  0  0  0  0  0  0  0
   25.2107  -21.0579   -8.5237 N   0  0  0  0  0  0  0  0  0  0  0  0
   23.8689  -20.5262   -8.4839 C   0  0  1  0  0  0  0  0  0  0  0  0
   23.2817  -20.7340   -9.8783 C   0  0  0  0  0  0  0  0  0  0  0  0
   21.8676  -20.3242   -9.9409 C   0  0  0  0  0  0  0  0  0  0  0  0
   20.8687  -21.1708   -9.5137 C   0  0  0  0  0  0  0  0  0  0  0  0
   19.5447  -20.8509   -9.5413 C   0  0  0  0  0  0  0  0  0  0  0  0
   19.2176  -19.5898  -10.0340 C   0  0  0  0  0  0  0  0  0  0  0  0
   20.2098  -18.7278  -10.4666 C   0  0  0  0  0  0  0  0  0  0  0  0
   21.5466  -19.0784  -10.4274 C   0  0  0  0  0  0  0  0  0  0  0  0
   23.0506  -21.1240   -7.4518 C   0  0  0  0  0  0  0  0  0  0  0  0
   21.9744  -20.5632   -6.8376 O   0  0  0  0  0  0  0  0  0  0  0  0
   23.3760  -22.3077   -7.0743 O   0  0  0  0  0  0  0  0  0  0  0  0
  2  1  1  0
  2  4  1  0
  3  2  2  0
  4  5  1  0
  5  6  1  6
  7  9  1  0
  7  5  1  0
  8  7  2  0
 10  9  1  0
 10 11  1  1
 11 12  1  0
 12 13  2  0
 12 17  1  0
 13 14  1  0
 14 15  2  0
 16 15  1  0
 17 16  2  0
 18 10  1  0
 19 18  2  0
 20 18  1  0
 21 29  1  0
 21 20  1  0
 22 23  1  0
 21 22  1  6
 23 24  2  0
 23 28  1  0
 24 25  1  0
 25 26  2  0
 27 26  1  0
 28 27  2  0
 29 30  1  0
 31 29  2  0
M  END
$$$$
