NFF.pdb
     RDKit          3D

 31 32  0  0  1  0  0  0  0  0999 V2000
   27.8305  -19.5778  -15.4251 N   0  0  0  0  0  0  0  0  0  0  0  0
   26.4888  -19.2938  -14.9559 C   0  0  0  0  0  0  0  0  0  0  0  0
   25.6873  -18.5996  -15.5983 O   0  0  0  0  0  0  0  0  0  0  0  0
   26.0874  -19.8688  -13.6489 C   0  0  0  0  0  0  0  0  0  0  0  0
   27.2893  -20.6404  -13.1005 C   0  0  2  0  0  0  0  0  0  0  0  0
   27.3449  -21.8924  -13.8764 N   0  0  0  0  0  0  0  0  0  0  0  0
   26.9985  -20.9908  -11.6935 C   0  0  0  0  0  0  0  0  0  0  0  0
   26.4070  -22.1198  -11.4797 O   0  0  0  0  0  0  0  0  0  0  0  0
   27.3308  -20.1704  -10.6095 N   0  0  0  0  0  0  0  0  0  0  0  0
   27.0797  -20.5750   -9.2020 C   0  0  1  0  0  0  0  0  0  0  0  0
   28.0206  -19.7727   -8.3484 C   0  0  0  0  0  0  0  0  0  0  0  0
   27.8919  -19.9668   -6.9007 C   0  0  0  0  0  0  0  0  0  0  0  0
   28.5803  -21.0111   -6.3202 C   0  0  0  0  0  0  0  0  0  0  0  0
   28.5691  -21.2588   -4.9894 C   0  0  0  0  0  0  0  0  0  0  0  0
   27.8448  -20.4472   -4.1424 C   0  0  0  0  0  0  0  0  0  0  0  0
   27.1463  -19.3888   -4.7223 C   0  0  0  0  0  0  0  0  0  0  0  0
   27.1726  -19.1591   -6.0702 C   0  0  0  0  0  0  0  0  0  0  0  0
   25.6721  -20.3117   -8.9389 C   0  0  0  0  0  0  0  0  0  0  0  0
   25.1155  -19.2238   -9.3732 O   0  0  0  0  0  0  0  0  0  0  0  0
   24.7833  -21.1530   -8.2295 N   0  0  0  0  0  0  0  0  0  0  0  0
   23.3656  -20.8927   -8.1446 C   0  0  1  0  0  0  0  0  0  0  0  0
   22.7838  -21.2244   -9.5172 C   0  0  0  0  0  0  0  0  0  0  0  0
   21.3227  -21.0359   -9.5499 C   0  0  0  0  0  0  0  0  0  0  0  0
   20.4711  -22.0698   -9.2291 C   0  0  0  0  0  0  0  0  0  0  0  0
   19.1132  -21.9594   -9.2360 C   0  0  0  0  0  0  0  0  0  0  0  0
   18.5899  -20.7182   -9.5908 C   0  0  0  0  0  0  0  0  0  0  0  0
   19.4325  -19.6697   -9.9153 C   0  0  0  0  0  0  0  0  0  0  0  0
   20.8078  -19.8095   -9.9002 C   0  0  0  0  0  0  0  0  0  0  0  0
   22.7148  -21.6287   -7.0830 C   0  0  0  0  0  0  0  0  0  0  0  0
   22.9856  -22.9020   -6.6889 O   0  0  0  0  0  0  0  0  0  0  0  0
   21.7819  -21.0162   -6.4475 O   0  0  0  0  0  0  0  0  0  0  0  0
  2  1  1  0
  2  4  1  0
  3  2  2  0
  4  5  1  0
  5  6  1  6
  7  9  1  0
  7  5  1  0
  8  7  2  0
 10  9  1  0
 10 11  1  1
 11 12  1  0
 12 13  2  0
 12 17  1  0
 13 14  1  0
 14 15  2  0
 16 15  1  0
 17 16  2  0
 18 10  1  0
 19 18  2  0
 20 18  1  0
 21 29  1  0
 21 20  1  0
 22 23  1  0
 21 22  1  6
 23 24  2  0
 23 28  1  0
 24 25  1  0
 25 26  2  0
 27 26  1  0
 28 27  2  0
 29 30  1  0
 31 29  2  0
M  END
$$$$
