NFF.pdb
     RDKit          3D

 31 32  0  0  1  0  0  0  0  0999 V2000
   29.3729    7.2342   -4.9808 N   0  0  0  0  0  0  0  0  0  0  0  0
   29.5582    5.9513   -5.6294 C   0  0  0  0  0  0  0  0  0  0  0  0
   30.6039    5.6438   -6.2200 O   0  0  0  0  0  0  0  0  0  0  0  0
   28.4319    4.9879   -5.5695 C   0  0  0  0  0  0  0  0  0  0  0  0
   29.0278    3.6038   -5.3053 C   0  0  2  0  0  0  0  0  0  0  0  0
   29.3841    3.0654   -6.6303 N   0  0  0  0  0  0  0  0  0  0  0  0
   27.9593    2.7512   -4.7411 C   0  0  0  0  0  0  0  0  0  0  0  0
   27.1983    2.1304   -5.5812 O   0  0  0  0  0  0  0  0  0  0  0  0
   27.7440    2.5913   -3.3676 N   0  0  0  0  0  0  0  0  0  0  0  0
   26.6729    1.7137   -2.8292 C   0  0  1  0  0  0  0  0  0  0  0  0
   27.2352    1.0484   -1.6049 C   0  0  0  0  0  0  0  0  0  0  0  0
   26.2810    0.2763   -0.8028 C   0  0  0  0  0  0  0  0  0  0  0  0
   26.1066   -1.0578   -1.1047 C   0  0  0  0  0  0  0  0  0  0  0  0
   25.2853   -1.8758   -0.4055 C   0  0  0  0  0  0  0  0  0  0  0  0
   24.5727   -1.3850    0.6678 C   0  0  0  0  0  0  0  0  0  0  0  0
   24.7442   -0.0367    0.9792 C   0  0  0  0  0  0  0  0  0  0  0  0
   25.5797    0.7702    0.2572 C   0  0  0  0  0  0  0  0  0  0  0  0
   25.5275    2.5720   -2.5624 C   0  0  0  0  0  0  0  0  0  0  0  0
   25.6750    3.6754   -1.8971 O   0  0  0  0  0  0  0  0  0  0  0  0
   24.1940    2.3367   -2.9714 N   0  0  0  0  0  0  0  0  0  0  0  0
   23.0983    3.1940   -2.5853 C   0  0  1  0  0  0  0  0  0  0  0  0
   22.4859    3.7207   -3.8815 C   0  0  0  0  0  0  0  0  0  0  0  0
   21.3803    4.6592   -3.6200 C   0  0  0  0  0  0  0  0  0  0  0  0
   21.6323    5.9447   -3.1948 C   0  0  0  0  0  0  0  0  0  0  0  0
   20.6566    6.8608   -2.9400 C   0  0  0  0  0  0  0  0  0  0  0  0
   19.3421    6.4416   -3.1311 C   0  0  0  0  0  0  0  0  0  0  0  0
   19.0727    5.1534   -3.5583 C   0  0  0  0  0  0  0  0  0  0  0  0
   20.0829    4.2436   -3.8095 C   0  0  0  0  0  0  0  0  0  0  0  0
   22.1221    2.5285   -1.7508 C   0  0  0  0  0  0  0  0  0  0  0  0
   21.4597    3.0601   -0.6884 O   0  0  0  0  0  0  0  0  0  0  0  0
   21.8545    1.3067   -2.0424 O   0  0  0  0  0  0  0  0  0  0  0  0
  2  1  1  0
  2  4  1  0
  3  2  2  0
  4  5  1  0
  5  6  1  6
  7  9  1  0
  7  5  1  0
  8  7  2  0
 10  9  1  0
 10 11  1  1
 11 12  1  0
 12 13  2  0
 12 17  1  0
 13 14  1  0
 14 15  2  0
 16 15  1  0
 17 16  2  0
 18 10  1  0
 19 18  2  0
 20 18  1  0
 21 29  1  0
 21 20  1  0
 22 23  1  0
 21 22  1  6
 23 24  2  0
 23 28  1  0
 24 25  1  0
 25 26  2  0
 27 26  1  0
 28 27  2  0
 29 30  1  0
 31 29  2  0
M  END
$$$$
