NFF.pdb
     RDKit          3D

 31 32  0  0  1  0  0  0  0  0999 V2000
   38.6707  -11.1593   -6.4329 N   0  0  0  0  0  0  0  0  0  0  0  0
   39.3035  -10.4186   -7.5062 C   0  0  0  0  0  0  0  0  0  0  0  0
   39.5524  -10.9218   -8.6115 O   0  0  0  0  0  0  0  0  0  0  0  0
   39.6586   -9.0031   -7.2410 C   0  0  0  0  0  0  0  0  0  0  0  0
   40.6855   -8.5843   -8.2949 C   0  0  2  0  0  0  0  0  0  0  0  0
   41.9761   -9.1215   -7.8274 N   0  0  0  0  0  0  0  0  0  0  0  0
   40.7753   -7.1083   -8.2780 C   0  0  0  0  0  0  0  0  0  0  0  0
   40.9500   -6.5437   -7.1287 O   0  0  0  0  0  0  0  0  0  0  0  0
   40.6824   -6.3163   -9.4281 N   0  0  0  0  0  0  0  0  0  0  0  0
   40.7199   -4.8319   -9.3744 C   0  0  1  0  0  0  0  0  0  0  0  0
   41.3180   -4.3685  -10.6726 C   0  0  0  0  0  0  0  0  0  0  0  0
   41.4260   -2.9162  -10.8431 C   0  0  0  0  0  0  0  0  0  0  0  0
   40.4792   -2.2795  -11.6174 C   0  0  0  0  0  0  0  0  0  0  0  0
   40.4559   -0.9396  -11.8089 C   0  0  0  0  0  0  0  0  0  0  0  0
   41.4102   -0.1410  -11.2156 C   0  0  0  0  0  0  0  0  0  0  0  0
   42.3709   -0.7778  -10.4309 C   0  0  0  0  0  0  0  0  0  0  0  0
   42.3740   -2.1338  -10.2527 C   0  0  0  0  0  0  0  0  0  0  0  0
   39.3491   -4.3891   -9.1634 C   0  0  0  0  0  0  0  0  0  0  0  0
   38.3827   -4.8851   -9.8719 O   0  0  0  0  0  0  0  0  0  0  0  0
   38.9173   -3.4301   -8.2175 N   0  0  0  0  0  0  0  0  0  0  0  0
   37.5378   -3.0209   -8.0977 C   0  0  1  0  0  0  0  0  0  0  0  0
   37.0936   -3.4105   -6.6894 C   0  0  0  0  0  0  0  0  0  0  0  0
   37.1178   -4.8710   -6.4948 C   0  0  0  0  0  0  0  0  0  0  0  0
   37.8520   -5.4343   -5.4746 C   0  0  0  0  0  0  0  0  0  0  0  0
   37.9127   -6.7747   -5.2390 C   0  0  0  0  0  0  0  0  0  0  0  0
   37.1792   -7.5926   -6.0953 C   0  0  0  0  0  0  0  0  0  0  0  0
   36.4365   -7.0417   -7.1246 C   0  0  0  0  0  0  0  0  0  0  0  0
   36.3927   -5.6770   -7.3412 C   0  0  0  0  0  0  0  0  0  0  0  0
   37.3368   -1.6135   -8.3642 C   0  0  0  0  0  0  0  0  0  0  0  0
   36.1630   -1.0028   -8.6795 O   0  0  0  0  0  0  0  0  0  0  0  0
   38.3763   -0.8621   -8.2985 O   0  0  0  0  0  0  0  0  0  0  0  0
  2  1  1  0
  2  4  1  0
  3  2  2  0
  4  5  1  0
  5  6  1  1
  7  9  1  0
  7  5  1  0
  8  7  2  0
 10  9  1  0
 10 11  1  6
 11 12  1  0
 12 13  2  0
 12 17  1  0
 13 14  1  0
 14 15  2  0
 16 15  1  0
 17 16  2  0
 18 10  1  0
 19 18  2  0
 20 18  1  0
 21 29  1  0
 21 20  1  0
 22 23  1  0
 21 22  1  1
 23 24  2  0
 23 28  1  0
 24 25  1  0
 25 26  2  0
 27 26  1  0
 28 27  2  0
 29 30  1  0
 31 29  2  0
M  END
$$$$
