NFF.pdb
     RDKit          3D

 31 32  0  0  1  0  0  0  0  0999 V2000
   19.5043  -19.4673  -13.2944 N   0  0  0  0  0  0  0  0  0  0  0  0
   19.4963  -20.8528  -12.8686 C   0  0  0  0  0  0  0  0  0  0  0  0
   18.4998  -21.5820  -12.9793 O   0  0  0  0  0  0  0  0  0  0  0  0
   20.7453  -21.3918  -12.2775 C   0  0  0  0  0  0  0  0  0  0  0  0
   21.7324  -20.2292  -12.1563 C   0  0  2  0  0  0  0  0  0  0  0  0
   21.9169  -19.7203  -13.5273 N   0  0  0  0  0  0  0  0  0  0  0  0
   23.0263  -20.7798  -11.6985 C   0  0  0  0  0  0  0  0  0  0  0  0
   22.9944  -21.6060  -10.7052 O   0  0  0  0  0  0  0  0  0  0  0  0
   24.2547  -20.4522  -12.2834 N   0  0  0  0  0  0  0  0  0  0  0  0
   25.5431  -20.9940  -11.7795 C   0  0  1  0  0  0  0  0  0  0  0  0
   26.5886  -20.6377  -12.7981 C   0  0  0  0  0  0  0  0  0  0  0  0
   27.9809  -20.7950  -12.3657 C   0  0  0  0  0  0  0  0  0  0  0  0
   28.3923  -22.0389  -11.9358 C   0  0  0  0  0  0  0  0  0  0  0  0
   29.6627  -22.3096  -11.5544 C   0  0  0  0  0  0  0  0  0  0  0  0
   30.6189  -21.3169  -11.5850 C   0  0  0  0  0  0  0  0  0  0  0  0
   30.2102  -20.0564  -12.0189 C   0  0  0  0  0  0  0  0  0  0  0  0
   28.9202  -19.8071  -12.3988 C   0  0  0  0  0  0  0  0  0  0  0  0
   25.7631  -20.3937  -10.4714 C   0  0  0  0  0  0  0  0  0  0  0  0
   25.4980  -19.1400  -10.2717 O   0  0  0  0  0  0  0  0  0  0  0  0
   26.2545  -21.0542   -9.3211 N   0  0  0  0  0  0  0  0  0  0  0  0
   27.0960  -20.3996   -8.3473 C   0  0  1  0  0  0  0  0  0  0  0  0
   26.2998  -20.3642   -7.0445 C   0  0  0  0  0  0  0  0  0  0  0  0
   27.1221  -19.8936   -5.9158 C   0  0  0  0  0  0  0  0  0  0  0  0
   27.5050  -18.5738   -5.8245 C   0  0  0  0  0  0  0  0  0  0  0  0
   28.2603  -18.0754   -4.8061 C   0  0  0  0  0  0  0  0  0  0  0  0
   28.6492  -18.9774   -3.8184 C   0  0  0  0  0  0  0  0  0  0  0  0
   28.2721  -20.3065   -3.8959 C   0  0  0  0  0  0  0  0  0  0  0  0
   27.5049  -20.7857   -4.9414 C   0  0  0  0  0  0  0  0  0  0  0  0
   28.3822  -21.0409   -8.1843 C   0  0  0  0  0  0  0  0  0  0  0  0
   28.7029  -22.3207   -8.5148 O   0  0  0  0  0  0  0  0  0  0  0  0
   29.3190  -20.3275   -7.6715 O   0  0  0  0  0  0  0  0  0  0  0  0
  2  1  1  0
  2  4  1  0
  3  2  2  0
  4  5  1  0
  5  6  1  6
  7  9  1  0
  7  5  1  0
  8  7  2  0
 10  9  1  0
 10 11  1  6
 11 12  1  0
 12 13  2  0
 12 17  1  0
 13 14  1  0
 14 15  2  0
 16 15  1  0
 17 16  2  0
 18 10  1  0
 19 18  2  0
 20 18  1  0
 21 29  1  0
 21 20  1  0
 22 23  1  0
 21 22  1  1
 23 24  2  0
 23 28  1  0
 24 25  1  0
 25 26  2  0
 27 26  1  0
 28 27  2  0
 29 30  1  0
 31 29  2  0
M  END
$$$$
