NFF.pdb
     RDKit          3D

 31 32  0  0  1  0  0  0  0  0999 V2000
   26.7829  -20.8724  -20.0599 N   0  0  0  0  0  0  0  0  0  0  0  0
   27.3139  -20.3901  -18.8004 C   0  0  0  0  0  0  0  0  0  0  0  0
   28.1342  -19.4632  -18.7301 O   0  0  0  0  0  0  0  0  0  0  0  0
   26.8399  -21.0539  -17.5616 C   0  0  0  0  0  0  0  0  0  0  0  0
   28.0765  -21.4361  -16.7459 C   0  0  2  0  0  0  0  0  0  0  0  0
   28.5583  -22.7030  -17.3251 N   0  0  0  0  0  0  0  0  0  0  0  0
   27.6383  -21.7082  -15.3600 C   0  0  0  0  0  0  0  0  0  0  0  0
   27.1061  -22.8629  -15.1284 O   0  0  0  0  0  0  0  0  0  0  0  0
   27.7739  -20.7892  -14.3132 N   0  0  0  0  0  0  0  0  0  0  0  0
   27.2978  -21.0794  -12.9360 C   0  0  1  0  0  0  0  0  0  0  0  0
   28.1173  -20.2278  -12.0081 C   0  0  0  0  0  0  0  0  0  0  0  0
   27.7205  -20.2575  -10.5969 C   0  0  0  0  0  0  0  0  0  0  0  0
   28.3772  -21.1294   -9.7543 C   0  0  0  0  0  0  0  0  0  0  0  0
   28.1236  -21.2116   -8.4271 C   0  0  0  0  0  0  0  0  0  0  0  0
   27.1684  -20.3983   -7.8553 C   0  0  0  0  0  0  0  0  0  0  0  0
   26.5004  -19.5137   -8.7012 C   0  0  0  0  0  0  0  0  0  0  0  0
   26.7739  -19.4494  -10.0396 C   0  0  0  0  0  0  0  0  0  0  0  0
   25.8742  -20.7748  -12.9158 C   0  0  0  0  0  0  0  0  0  0  0  0
   25.4184  -19.7271  -13.5292 O   0  0  0  0  0  0  0  0  0  0  0  0
   24.8668  -21.5330  -12.2745 N   0  0  0  0  0  0  0  0  0  0  0  0
   23.4826  -21.1233  -12.2471 C   0  0  1  0  0  0  0  0  0  0  0  0
   22.7127  -22.1506  -13.0743 C   0  0  0  0  0  0  0  0  0  0  0  0
   21.2701  -21.8519  -13.1091 C   0  0  0  0  0  0  0  0  0  0  0  0
   20.4134  -22.4032  -12.1823 C   0  0  0  0  0  0  0  0  0  0  0  0
   19.0724  -22.1642  -12.1575 C   0  0  0  0  0  0  0  0  0  0  0  0
   18.5728  -21.3096  -13.1374 C   0  0  0  0  0  0  0  0  0  0  0  0
   19.4208  -20.7476  -14.0753 C   0  0  0  0  0  0  0  0  0  0  0  0
   20.7787  -21.0075  -14.0773 C   0  0  0  0  0  0  0  0  0  0  0  0
   22.9541  -20.9942  -10.9069 C   0  0  0  0  0  0  0  0  0  0  0  0
   23.3117  -21.7231   -9.8157 O   0  0  0  0  0  0  0  0  0  0  0  0
   22.0506  -20.0987  -10.7293 O   0  0  0  0  0  0  0  0  0  0  0  0
  2  1  1  0
  2  4  1  0
  3  2  2  0
  4  5  1  0
  5  6  1  6
  7  9  1  0
  7  5  1  0
  8  7  2  0
 10  9  1  0
 10 11  1  1
 11 12  1  0
 12 13  2  0
 12 17  1  0
 13 14  1  0
 14 15  2  0
 16 15  1  0
 17 16  2  0
 18 10  1  0
 19 18  2  0
 20 18  1  0
 21 29  1  0
 21 20  1  0
 22 23  1  0
 21 22  1  6
 23 24  2  0
 23 28  1  0
 24 25  1  0
 25 26  2  0
 27 26  1  0
 28 27  2  0
 29 30  1  0
 31 29  2  0
M  END
$$$$
