NFF.pdb
     RDKit          3D

 31 32  0  0  1  0  0  0  0  0999 V2000
   23.0255  -19.2075  -14.6305 N   0  0  0  0  0  0  0  0  0  0  0  0
   23.0025  -20.6339  -14.3741 C   0  0  0  0  0  0  0  0  0  0  0  0
   22.5704  -21.4555  -15.1958 O   0  0  0  0  0  0  0  0  0  0  0  0
   23.5214  -21.1000  -13.0651 C   0  0  0  0  0  0  0  0  0  0  0  0
   24.9673  -20.6139  -12.9473 C   0  0  2  0  0  0  0  0  0  0  0  0
   25.7363  -21.4170  -13.9149 N   0  0  0  0  0  0  0  0  0  0  0  0
   25.4497  -20.9528  -11.5911 C   0  0  0  0  0  0  0  0  0  0  0  0
   25.5950  -22.2072  -11.3159 O   0  0  0  0  0  0  0  0  0  0  0  0
   25.7496  -19.9941  -10.6167 N   0  0  0  0  0  0  0  0  0  0  0  0
   26.3262  -20.3580   -9.2966 C   0  0  1  0  0  0  0  0  0  0  0  0
   27.1120  -19.1668   -8.8262 C   0  0  0  0  0  0  0  0  0  0  0  0
   27.8305  -19.3359   -7.5592 C   0  0  0  0  0  0  0  0  0  0  0  0
   27.5062  -18.5013   -6.5106 C   0  0  0  0  0  0  0  0  0  0  0  0
   28.0736  -18.5944   -5.2851 C   0  0  0  0  0  0  0  0  0  0  0  0
   29.0260  -19.5598   -5.0370 C   0  0  0  0  0  0  0  0  0  0  0  0
   29.3589  -20.4077   -6.0927 C   0  0  0  0  0  0  0  0  0  0  0  0
   28.7719  -20.2936   -7.3227 C   0  0  0  0  0  0  0  0  0  0  0  0
   25.2050  -20.7046   -8.4348 C   0  0  0  0  0  0  0  0  0  0  0  0
   24.0792  -20.0688   -8.5350 O   0  0  0  0  0  0  0  0  0  0  0  0
   25.1928  -21.7164   -7.4463 N   0  0  0  0  0  0  0  0  0  0  0  0
   24.0494  -21.9645   -6.6002 C   0  0  1  0  0  0  0  0  0  0  0  0
   24.5782  -22.6856   -5.3621 C   0  0  0  0  0  0  0  0  0  0  0  0
   25.0912  -21.7380   -4.3569 C   0  0  0  0  0  0  0  0  0  0  0  0
   24.2299  -21.0600   -3.5230 C   0  0  0  0  0  0  0  0  0  0  0  0
   24.6400  -20.1751   -2.5717 C   0  0  0  0  0  0  0  0  0  0  0  0
   26.0132  -19.9685   -2.4624 C   0  0  0  0  0  0  0  0  0  0  0  0
   26.8912  -20.6424   -3.2927 C   0  0  0  0  0  0  0  0  0  0  0  0
   26.4474  -21.5355   -4.2502 C   0  0  0  0  0  0  0  0  0  0  0  0
   23.3203  -20.7619   -6.2623 C   0  0  0  0  0  0  0  0  0  0  0  0
   23.7632  -19.4809   -6.3755 O   0  0  0  0  0  0  0  0  0  0  0  0
   22.1305  -20.9207   -5.8053 O   0  0  0  0  0  0  0  0  0  0  0  0
  2  1  1  0
  2  4  1  0
  3  2  2  0
  4  5  1  0
  5  6  1  6
  7  9  1  0
  7  5  1  0
  8  7  2  0
 10  9  1  0
 10 11  1  1
 11 12  1  0
 12 13  2  0
 12 17  1  0
 13 14  1  0
 14 15  2  0
 16 15  1  0
 17 16  2  0
 18 10  1  0
 19 18  2  0
 20 18  1  0
 21 29  1  0
 21 20  1  0
 22 23  1  0
 21 22  1  1
 23 24  2  0
 23 28  1  0
 24 25  1  0
 25 26  2  0
 27 26  1  0
 28 27  2  0
 29 30  1  0
 31 29  2  0
M  END
$$$$
