NFF.pdb
     RDKit          3D

 31 32  0  0  1  0  0  0  0  0999 V2000
   15.3298   -2.4522  -18.3648 N   0  0  0  0  0  0  0  0  0  0  0  0
   16.4879   -2.9902  -19.0506 C   0  0  0  0  0  0  0  0  0  0  0  0
   17.4069   -2.2750  -19.4758 O   0  0  0  0  0  0  0  0  0  0  0  0
   16.5469   -4.4602  -19.2391 C   0  0  0  0  0  0  0  0  0  0  0  0
   17.8511   -4.7747  -19.9746 C   0  0  2  0  0  0  0  0  0  0  0  0
   17.7775   -6.2061  -20.3189 N   0  0  0  0  0  0  0  0  0  0  0  0
   18.9647   -4.5945  -19.0185 C   0  0  0  0  0  0  0  0  0  0  0  0
   18.9371   -5.3106  -17.9430 O   0  0  0  0  0  0  0  0  0  0  0  0
   20.0231   -3.7026  -19.2258 N   0  0  0  0  0  0  0  0  0  0  0  0
   21.1234   -3.5344  -18.2416 C   0  0  1  0  0  0  0  0  0  0  0  0
   22.2695   -4.3753  -18.7283 C   0  0  0  0  0  0  0  0  0  0  0  0
   23.5447   -4.1812  -18.0312 C   0  0  0  0  0  0  0  0  0  0  0  0
   24.5477   -3.4989  -18.6868 C   0  0  0  0  0  0  0  0  0  0  0  0
   25.7487   -3.2250  -18.1254 C   0  0  0  0  0  0  0  0  0  0  0  0
   26.0170   -3.6328  -16.8361 C   0  0  0  0  0  0  0  0  0  0  0  0
   25.0073   -4.3232  -16.1667 C   0  0  0  0  0  0  0  0  0  0  0  0
   23.8017   -4.5886  -16.7554 C   0  0  0  0  0  0  0  0  0  0  0  0
   21.4171   -2.1095  -18.1864 C   0  0  0  0  0  0  0  0  0  0  0  0
   21.5793   -1.4299  -19.2789 O   0  0  0  0  0  0  0  0  0  0  0  0
   21.5484   -1.3285  -17.0143 N   0  0  0  0  0  0  0  0  0  0  0  0
   22.0051    0.0410  -17.0383 C   0  0  1  0  0  0  0  0  0  0  0  0
   20.7561    0.9136  -16.9329 C   0  0  0  0  0  0  0  0  0  0  0  0
   21.0929    2.3482  -16.9212 C   0  0  0  0  0  0  0  0  0  0  0  0
   21.1192    3.0566  -15.7404 C   0  0  0  0  0  0  0  0  0  0  0  0
   21.4262    4.3816  -15.6614 C   0  0  0  0  0  0  0  0  0  0  0  0
   21.7262    5.0251  -16.8598 C   0  0  0  0  0  0  0  0  0  0  0  0
   21.7044    4.3269  -18.0542 C   0  0  0  0  0  0  0  0  0  0  0  0
   21.3890    2.9818  -18.1056 C   0  0  0  0  0  0  0  0  0  0  0  0
   22.9680    0.3377  -16.0006 C   0  0  0  0  0  0  0  0  0  0  0  0
   23.9851    1.2385  -16.0655 O   0  0  0  0  0  0  0  0  0  0  0  0
   22.8517   -0.3201  -14.9037 O   0  0  0  0  0  0  0  0  0  0  0  0
  2  1  1  0
  2  4  1  0
  3  2  2  0
  4  5  1  0
  5  6  1  1
  7  9  1  0
  7  5  1  0
  8  7  2  0
 10  9  1  0
 10 11  1  6
 11 12  1  0
 12 13  2  0
 12 17  1  0
 13 14  1  0
 14 15  2  0
 16 15  1  0
 17 16  2  0
 18 10  1  0
 19 18  2  0
 20 18  1  0
 21 29  1  0
 21 20  1  0
 22 23  1  0
 21 22  1  1
 23 24  2  0
 23 28  1  0
 24 25  1  0
 25 26  2  0
 27 26  1  0
 28 27  2  0
 29 30  1  0
 31 29  2  0
M  END
$$$$
