NFF.pdb
     RDKit          3D

 31 32  0  0  1  0  0  0  0  0999 V2000
   28.7146  -20.2109  -18.5036 N   0  0  0  0  0  0  0  0  0  0  0  0
   27.4224  -20.8207  -18.7469 C   0  0  0  0  0  0  0  0  0  0  0  0
   27.0140  -21.0935  -19.8852 O   0  0  0  0  0  0  0  0  0  0  0  0
   26.5747  -21.1165  -17.5663 C   0  0  0  0  0  0  0  0  0  0  0  0
   27.4151  -21.9509  -16.5977 C   0  0  2  0  0  0  0  0  0  0  0  0
   27.4361  -23.3126  -17.1617 N   0  0  0  0  0  0  0  0  0  0  0  0
   26.6967  -22.0055  -15.3063 C   0  0  0  0  0  0  0  0  0  0  0  0
   25.6838  -22.8047  -15.2311 O   0  0  0  0  0  0  0  0  0  0  0  0
   27.0603  -21.2464  -14.1882 N   0  0  0  0  0  0  0  0  0  0  0  0
   26.3165  -21.3186  -12.9041 C   0  0  1  0  0  0  0  0  0  0  0  0
   27.1730  -20.6429  -11.8710 C   0  0  0  0  0  0  0  0  0  0  0  0
   26.5313  -20.3877  -10.5776 C   0  0  0  0  0  0  0  0  0  0  0  0
   26.3589  -21.4501   -9.7156 C   0  0  0  0  0  0  0  0  0  0  0  0
   25.8181  -21.3240   -8.4810 C   0  0  0  0  0  0  0  0  0  0  0  0
   25.4087  -20.0872   -8.0299 C   0  0  0  0  0  0  0  0  0  0  0  0
   25.5802  -19.0080   -8.8961 C   0  0  0  0  0  0  0  0  0  0  0  0
   26.1288  -19.1607  -10.1395 C   0  0  0  0  0  0  0  0  0  0  0  0
   25.0350  -20.6652  -13.1290 C   0  0  0  0  0  0  0  0  0  0  0  0
   24.9753  -19.5420  -13.7744 O   0  0  0  0  0  0  0  0  0  0  0  0
   23.7703  -21.1395  -12.7087 N   0  0  0  0  0  0  0  0  0  0  0  0
   22.5349  -20.4816  -13.0631 C   0  0  1  0  0  0  0  0  0  0  0  0
   22.4237  -20.5642  -14.5841 C   0  0  0  0  0  0  0  0  0  0  0  0
   21.1710  -19.9612  -15.0726 C   0  0  0  0  0  0  0  0  0  0  0  0
   20.3597  -19.2382  -14.2265 C   0  0  0  0  0  0  0  0  0  0  0  0
   19.1928  -18.6530  -14.6163 C   0  0  0  0  0  0  0  0  0  0  0  0
   18.8299  -18.8134  -15.9515 C   0  0  0  0  0  0  0  0  0  0  0  0
   19.6346  -19.5367  -16.8140 C   0  0  0  0  0  0  0  0  0  0  0  0
   20.8145  -20.1205  -16.3914 C   0  0  0  0  0  0  0  0  0  0  0  0
   21.3797  -21.0449  -12.3995 C   0  0  0  0  0  0  0  0  0  0  0  0
   20.3954  -20.3617  -11.7558 O   0  0  0  0  0  0  0  0  0  0  0  0
   21.2738  -22.3247  -12.4181 O   0  0  0  0  0  0  0  0  0  0  0  0
  2  1  1  0
  2  4  1  0
  3  2  2  0
  4  5  1  0
  5  6  1  6
  7  9  1  0
  7  5  1  0
  8  7  2  0
 10  9  1  0
 10 11  1  1
 11 12  1  0
 12 13  2  0
 12 17  1  0
 13 14  1  0
 14 15  2  0
 16 15  1  0
 17 16  2  0
 18 10  1  0
 19 18  2  0
 20 18  1  0
 21 29  1  0
 21 20  1  0
 22 23  1  0
 21 22  1  6
 23 24  2  0
 23 28  1  0
 24 25  1  0
 25 26  2  0
 27 26  1  0
 28 27  2  0
 29 30  1  0
 31 29  2  0
M  END
$$$$
