AER.pdb
     RDKit          3D

 26 25  0  0  1  0  0  0  0  0999 V2000
   27.1300  -25.2346  -16.4509 C   0  0  0  0  0  0  0  0  0  0  0  0
   26.0504  -24.7037  -17.3668 C   0  0  2  0  0  0  0  0  0  0  0  0
   26.5311  -24.6659  -18.7270 N   0  0  0  0  0  0  0  0  0  0  0  0
   25.5659  -23.3737  -16.9957 C   0  0  0  0  0  0  0  0  0  0  0  0
   26.3333  -22.3799  -17.0678 O   0  0  0  0  0  0  0  0  0  0  0  0
   24.2542  -23.1633  -16.5549 N   0  0  0  0  0  0  0  0  0  0  0  0
   23.6800  -21.9242  -16.1660 C   0  0  1  0  0  0  0  0  0  0  0  0
   22.5745  -21.4193  -17.0334 C   0  0  0  0  0  0  0  0  0  0  0  0
   22.6953  -21.9351  -18.4673 C   0  0  0  0  0  0  0  0  0  0  0  0
   21.3395  -22.0321  -19.0674 C   0  0  0  0  0  0  0  0  0  0  0  0
   20.3203  -21.7185  -18.3766 O   0  0  0  0  0  0  0  0  0  0  0  0
   23.1501  -21.9520  -14.7615 C   0  0  0  0  0  0  0  0  0  0  0  0
   22.2972  -22.8110  -14.4170 O   0  0  0  0  0  0  0  0  0  0  0  0
   21.1276  -22.4491  -20.3482 O   0  0  0  0  0  0  0  0  0  0  0  0
   28.5477  -21.5232  -11.4344 N   0  0  0  0  0  0  0  0  0  0  0  0
   27.8455  -20.3217  -11.7721 C   0  0  0  0  0  0  0  0  0  0  0  0
   28.2231  -19.6604  -12.8239 N   0  0  0  0  0  0  0  0  0  0  0  0
   26.7710  -19.8675  -10.9830 N   0  0  0  0  0  0  0  0  0  0  0  0
   26.0729  -20.7757  -10.0780 C   0  0  0  0  0  0  0  0  0  0  0  0
   24.8974  -21.4296  -10.8017 C   0  0  0  0  0  0  0  0  0  0  0  0
   23.9887  -20.4338  -11.4451 C   0  0  0  0  0  0  0  0  0  0  0  0
   23.0373  -21.0899  -12.3765 C   0  0  2  0  0  0  0  0  0  0  0  0
   23.5667  -21.0383  -13.7669 N   0  0  0  0  0  0  0  0  0  0  0  0
   21.7659  -20.3759  -12.4251 C   0  0  0  0  0  0  0  0  0  0  0  0
   21.4603  -19.5485  -13.4853 O   0  0  0  0  0  0  0  0  0  0  0  0
   20.9153  -20.4807  -11.5259 O   0  0  0  0  0  0  0  0  0  0  0  0
  2  1  1  1
  3  2  1  0
  4  5  2  0
  4  2  1  0
  6  4  1  0
  7  6  1  0
  7  8  1  6
  9  8  1  0
 10 14  1  0
 10  9  1  0
 11 10  2  0
 12 13  2  0
 12  7  1  0
 16 15  1  0
 17 16  2  0
 18 16  1  0
 19 18  1  0
 20 19  1  0
 21 20  1  0
 22 21  1  1
 22 23  1  0
 23 12  1  0
 24 22  1  0
 25 24  1  0
 26 24  2  0
M  END
$$$$
