AER.pdb
     RDKit          3D

 26 25  0  0  1  0  0  0  0  0999 V2000
   27.2541  -18.5789  -17.2089 C   0  0  0  0  0  0  0  0  0  0  0  0
   26.0442  -19.4840  -17.1534 C   0  0  2  0  0  0  0  0  0  0  0  0
   25.2709  -19.3497  -18.3644 N   0  0  0  0  0  0  0  0  0  0  0  0
   25.1749  -19.2339  -16.0030 C   0  0  0  0  0  0  0  0  0  0  0  0
   25.6271  -19.3452  -14.8347 O   0  0  0  0  0  0  0  0  0  0  0  0
   23.8328  -18.8684  -16.1586 N   0  0  0  0  0  0  0  0  0  0  0  0
   22.8822  -18.6748  -15.1218 C   0  0  1  0  0  0  0  0  0  0  0  0
   22.0740  -17.4221  -15.2065 C   0  0  0  0  0  0  0  0  0  0  0  0
   21.1215  -17.4391  -16.4019 C   0  0  0  0  0  0  0  0  0  0  0  0
   20.3638  -16.1615  -16.4410 C   0  0  0  0  0  0  0  0  0  0  0  0
   19.1137  -16.1626  -16.2144 O   0  0  0  0  0  0  0  0  0  0  0  0
   21.9079  -19.8122  -15.0156 C   0  0  0  0  0  0  0  0  0  0  0  0
   21.4081  -20.3245  -16.0509 O   0  0  0  0  0  0  0  0  0  0  0  0
   20.9529  -14.9623  -16.7132 O   0  0  0  0  0  0  0  0  0  0  0  0
   19.2015  -25.2410   -8.2790 N   0  0  0  0  0  0  0  0  0  0  0  0
   18.5137  -25.6254   -9.4748 C   0  0  0  0  0  0  0  0  0  0  0  0
   17.7613  -26.6832   -9.4415 N   0  0  0  0  0  0  0  0  0  0  0  0
   18.6495  -24.8750  -10.6588 N   0  0  0  0  0  0  0  0  0  0  0  0
   19.5470  -23.7251  -10.7153 C   0  0  0  0  0  0  0  0  0  0  0  0
   19.6851  -23.2433  -12.1582 C   0  0  0  0  0  0  0  0  0  0  0  0
   20.5164  -22.0080  -12.2778 C   0  0  0  0  0  0  0  0  0  0  0  0
   20.6829  -21.6013  -13.6955 C   0  0  2  0  0  0  0  0  0  0  0  0
   21.5037  -20.3621  -13.7780 N   0  0  0  0  0  0  0  0  0  0  0  0
   19.4020  -21.2519  -14.3004 C   0  0  0  0  0  0  0  0  0  0  0  0
   18.7746  -20.0635  -13.9899 O   0  0  0  0  0  0  0  0  0  0  0  0
   18.8286  -21.9995  -15.1100 O   0  0  0  0  0  0  0  0  0  0  0  0
  2  1  1  6
  3  2  1  0
  4  5  2  0
  4  2  1  0
  6  4  1  0
  7  6  1  0
  7  8  1  6
  9  8  1  0
 10 14  1  0
 10  9  1  0
 11 10  2  0
 12 13  2  0
 12  7  1  0
 16 15  1  0
 17 16  2  0
 18 16  1  0
 19 18  1  0
 20 19  1  0
 21 20  1  0
 22 21  1  1
 22 23  1  0
 23 12  1  0
 24 22  1  0
 25 24  1  0
 26 24  2  0
M  END
$$$$
