AER.pdb
     RDKit          3D

 26 25  0  0  1  0  0  0  0  0999 V2000
   25.9115  -34.3944  -10.8159 C   0  0  0  0  0  0  0  0  0  0  0  0
   25.5442  -33.3103   -9.8279 C   0  0  2  0  0  0  0  0  0  0  0  0
   26.6887  -32.4708   -9.5676 N   0  0  0  0  0  0  0  0  0  0  0  0
   25.0302  -33.8224   -8.5571 C   0  0  0  0  0  0  0  0  0  0  0  0
   24.3162  -34.8576   -8.5366 O   0  0  0  0  0  0  0  0  0  0  0  0
   25.3096  -33.1898   -7.3401 N   0  0  0  0  0  0  0  0  0  0  0  0
   24.8584  -33.5899   -6.0546 C   0  0  1  0  0  0  0  0  0  0  0  0
   25.8806  -33.5547   -4.9668 C   0  0  0  0  0  0  0  0  0  0  0  0
   26.8121  -34.7654   -5.0218 C   0  0  0  0  0  0  0  0  0  0  0  0
   27.7750  -34.6927   -3.8924 C   0  0  0  0  0  0  0  0  0  0  0  0
   27.6980  -33.7370   -3.0588 O   0  0  0  0  0  0  0  0  0  0  0  0
   23.6899  -32.7771   -5.5771 C   0  0  0  0  0  0  0  0  0  0  0  0
   23.7571  -31.5208   -5.5413 O   0  0  0  0  0  0  0  0  0  0  0  0
   28.7578  -35.6180   -3.6999 O   0  0  0  0  0  0  0  0  0  0  0  0
   15.7866  -33.6149   -3.3578 N   0  0  0  0  0  0  0  0  0  0  0  0
   15.5415  -32.4314   -4.1258 C   0  0  0  0  0  0  0  0  0  0  0  0
   14.4749  -31.7372   -3.8672 N   0  0  0  0  0  0  0  0  0  0  0  0
   16.4350  -32.0291   -5.1372 N   0  0  0  0  0  0  0  0  0  0  0  0
   17.5610  -32.8761   -5.5191 C   0  0  0  0  0  0  0  0  0  0  0  0
   18.8649  -32.2740   -4.9991 C   0  0  0  0  0  0  0  0  0  0  0  0
   20.0623  -33.0924   -5.3564 C   0  0  0  0  0  0  0  0  0  0  0  0
   21.2999  -32.5338   -4.7569 C   0  0  2  0  0  0  0  0  0  0  0  0
   22.4749  -33.3591   -5.1499 N   0  0  0  0  0  0  0  0  0  0  0  0
   21.2584  -32.5977   -3.2999 C   0  0  0  0  0  0  0  0  0  0  0  0
   20.4696  -31.7276   -2.5766 O   0  0  0  0  0  0  0  0  0  0  0  0
   21.9226  -33.4270   -2.6564 O   0  0  0  0  0  0  0  0  0  0  0  0
  2  1  1  6
  3  2  1  0
  4  5  2  0
  4  2  1  0
  6  4  1  0
  7  6  1  0
  7  8  1  1
  9  8  1  0
 10 14  1  0
 10  9  1  0
 11 10  2  0
 12 13  2  0
 12  7  1  0
 16 15  1  0
 17 16  2  0
 18 16  1  0
 19 18  1  0
 20 19  1  0
 21 20  1  0
 22 21  1  6
 22 23  1  0
 23 12  1  0
 24 22  1  0
 25 24  1  0
 26 24  2  0
M  END
$$$$
