AER.pdb
     RDKit          3D

 26 25  0  0  1  0  0  0  0  0999 V2000
   26.4212  -27.5120  -16.8365 C   0  0  0  0  0  0  0  0  0  0  0  0
   27.4554  -26.5337  -17.3460 C   0  0  2  0  0  0  0  0  0  0  0  0
   28.7822  -27.0233  -17.0588 N   0  0  0  0  0  0  0  0  0  0  0  0
   27.3143  -25.1868  -16.7916 C   0  0  0  0  0  0  0  0  0  0  0  0
   27.5549  -24.9769  -15.5752 O   0  0  0  0  0  0  0  0  0  0  0  0
   26.9137  -24.1027  -17.5812 N   0  0  0  0  0  0  0  0  0  0  0  0
   26.7546  -22.7577  -17.1549 C   0  0  1  0  0  0  0  0  0  0  0  0
   26.8999  -21.7178  -18.2165 C   0  0  0  0  0  0  0  0  0  0  0  0
   26.8606  -20.3037  -17.6373 C   0  0  0  0  0  0  0  0  0  0  0  0
   27.0146  -19.3197  -18.7400 C   0  0  0  0  0  0  0  0  0  0  0  0
   27.9599  -19.4548  -19.5781 O   0  0  0  0  0  0  0  0  0  0  0  0
   25.4288  -22.5178  -16.4925 C   0  0  0  0  0  0  0  0  0  0  0  0
   24.3821  -23.0495  -16.9461 O   0  0  0  0  0  0  0  0  0  0  0  0
   26.1764  -18.2566  -18.9027 O   0  0  0  0  0  0  0  0  0  0  0  0
   24.2698  -20.4515   -8.1530 N   0  0  0  0  0  0  0  0  0  0  0  0
   25.1929  -20.5863   -9.2394 C   0  0  0  0  0  0  0  0  0  0  0  0
   26.4554  -20.3928   -9.0049 N   0  0  0  0  0  0  0  0  0  0  0  0
   24.7433  -20.9206  -10.5315 N   0  0  0  0  0  0  0  0  0  0  0  0
   23.3326  -20.7978  -10.8863 C   0  0  0  0  0  0  0  0  0  0  0  0
   23.1003  -21.3459  -12.2930 C   0  0  0  0  0  0  0  0  0  0  0  0
   24.3129  -21.2464  -13.1595 C   0  0  0  0  0  0  0  0  0  0  0  0
   24.0252  -21.6854  -14.5479 C   0  0  2  0  0  0  0  0  0  0  0  0
   25.2802  -21.7012  -15.3485 N   0  0  0  0  0  0  0  0  0  0  0  0
   23.1479  -20.7410  -15.2312 C   0  0  0  0  0  0  0  0  0  0  0  0
   21.7784  -20.9022  -15.2043 O   0  0  0  0  0  0  0  0  0  0  0  0
   23.5903  -19.7643  -15.8585 O   0  0  0  0  0  0  0  0  0  0  0  0
  2  1  1  1
  3  2  1  0
  4  5  2  0
  4  2  1  0
  6  4  1  0
  7  6  1  0
  7  8  1  6
  9  8  1  0
 10 14  1  0
 10  9  1  0
 11 10  2  0
 12 13  2  0
 12  7  1  0
 16 15  1  0
 17 16  2  0
 18 16  1  0
 19 18  1  0
 20 19  1  0
 21 20  1  0
 22 21  1  1
 22 23  1  0
 23 12  1  0
 24 22  1  0
 25 24  1  0
 26 24  2  0
M  END
$$$$
