AER.pdb
     RDKit          3D

 26 25  0  0  1  0  0  0  0  0999 V2000
   18.8607  -15.9543  -14.8985 C   0  0  0  0  0  0  0  0  0  0  0  0
   17.8708  -15.7546  -16.0239 C   0  0  2  0  0  0  0  0  0  0  0  0
   18.4414  -16.2070  -17.2698 N   0  0  0  0  0  0  0  0  0  0  0  0
   17.4278  -14.3685  -16.1784 C   0  0  0  0  0  0  0  0  0  0  0  0
   18.0919  -13.5692  -16.8868 O   0  0  0  0  0  0  0  0  0  0  0  0
   16.2695  -13.8907  -15.5544 N   0  0  0  0  0  0  0  0  0  0  0  0
   15.8112  -12.5469  -15.5346 C   0  0  1  0  0  0  0  0  0  0  0  0
   14.4254  -12.3404  -15.0183 C   0  0  0  0  0  0  0  0  0  0  0  0
   13.3850  -13.0583  -15.8777 C   0  0  0  0  0  0  0  0  0  0  0  0
   12.0775  -13.0488  -15.1717 C   0  0  0  0  0  0  0  0  0  0  0  0
   11.2881  -14.0368  -15.2933 O   0  0  0  0  0  0  0  0  0  0  0  0
   16.7090  -11.6452  -14.7377 C   0  0  0  0  0  0  0  0  0  0  0  0
   17.1702  -12.0205  -13.6284 O   0  0  0  0  0  0  0  0  0  0  0  0
   11.6723  -12.0128  -14.3832 O   0  0  0  0  0  0  0  0  0  0  0  0
   22.0572   -4.8366  -16.0577 N   0  0  0  0  0  0  0  0  0  0  0  0
   21.9207   -5.2941  -14.7076 C   0  0  0  0  0  0  0  0  0  0  0  0
   21.7374   -4.4122  -13.7722 N   0  0  0  0  0  0  0  0  0  0  0  0
   21.9835   -6.6671  -14.4008 N   0  0  0  0  0  0  0  0  0  0  0  0
   21.2230   -7.6414  -15.1775 C   0  0  0  0  0  0  0  0  0  0  0  0
   19.9913   -8.0864  -14.3913 C   0  0  0  0  0  0  0  0  0  0  0  0
   19.1388   -9.0503  -15.1497 C   0  0  0  0  0  0  0  0  0  0  0  0
   17.9537   -9.4656  -14.3583 C   0  0  2  0  0  0  0  0  0  0  0  0
   17.0808  -10.3535  -15.1743 N   0  0  0  0  0  0  0  0  0  0  0  0
   17.1184   -8.3200  -14.0142 C   0  0  0  0  0  0  0  0  0  0  0  0
   17.3861   -7.5616  -12.8938 O   0  0  0  0  0  0  0  0  0  0  0  0
   16.1431   -7.9829  -14.7056 O   0  0  0  0  0  0  0  0  0  0  0  0
  2  1  1  1
  3  2  1  0
  4  5  2  0
  4  2  1  0
  6  4  1  0
  7  6  1  0
  7  8  1  1
  9  8  1  0
 10 14  1  0
 10  9  1  0
 11 10  2  0
 12 13  2  0
 12  7  1  0
 16 15  1  0
 17 16  2  0
 18 16  1  0
 19 18  1  0
 20 19  1  0
 21 20  1  0
 22 21  1  6
 22 23  1  0
 23 12  1  0
 24 22  1  0
 25 24  1  0
 26 24  2  0
M  END
$$$$
