AER.pdb
     RDKit          3D

 26 25  0  0  1  0  0  0  0  0999 V2000
   20.1507  -28.8563  -11.6647 C   0  0  0  0  0  0  0  0  0  0  0  0
   20.0521  -27.4496  -12.2104 C   0  0  2  0  0  0  0  0  0  0  0  0
   21.3132  -27.0554  -12.7908 N   0  0  0  0  0  0  0  0  0  0  0  0
   19.6571  -26.4571  -11.2102 C   0  0  0  0  0  0  0  0  0  0  0  0
   20.5140  -25.9787  -10.4237 O   0  0  0  0  0  0  0  0  0  0  0  0
   18.3350  -26.0124  -11.0948 N   0  0  0  0  0  0  0  0  0  0  0  0
   17.8547  -25.0019  -10.2205 C   0  0  1  0  0  0  0  0  0  0  0  0
   17.1179  -23.8771  -10.8696 C   0  0  0  0  0  0  0  0  0  0  0  0
   16.6909  -22.8161   -9.8555 C   0  0  0  0  0  0  0  0  0  0  0  0
   15.9486  -21.7383  -10.5593 C   0  0  0  0  0  0  0  0  0  0  0  0
   14.6883  -21.6496  -10.4252 O   0  0  0  0  0  0  0  0  0  0  0  0
   16.9549  -25.5483   -9.1500 C   0  0  0  0  0  0  0  0  0  0  0  0
   16.0044  -26.3186   -9.4456 O   0  0  0  0  0  0  0  0  0  0  0  0
   16.5627  -20.8200  -11.3585 O   0  0  0  0  0  0  0  0  0  0  0  0
   18.9221  -28.1886   -1.3432 N   0  0  0  0  0  0  0  0  0  0  0  0
   18.1309  -27.0102   -1.5335 C   0  0  0  0  0  0  0  0  0  0  0  0
   17.5576  -26.4771   -0.4975 N   0  0  0  0  0  0  0  0  0  0  0  0
   17.9777  -26.4424   -2.8132 N   0  0  0  0  0  0  0  0  0  0  0  0
   18.0853  -27.2663   -4.0134 C   0  0  0  0  0  0  0  0  0  0  0  0
   18.0682  -26.3791   -5.2568 C   0  0  0  0  0  0  0  0  0  0  0  0
   16.8022  -25.5981   -5.3919 C   0  0  0  0  0  0  0  0  0  0  0  0
   16.1988  -25.7713   -6.7370 C   0  0  2  0  0  0  0  0  0  0  0  0
   17.1169  -25.2384   -7.7806 N   0  0  0  0  0  0  0  0  0  0  0  0
   14.9731  -24.9915   -6.8722 C   0  0  0  0  0  0  0  0  0  0  0  0
   13.7370  -25.5928   -6.7591 O   0  0  0  0  0  0  0  0  0  0  0  0
   14.9894  -23.7691   -7.0924 O   0  0  0  0  0  0  0  0  0  0  0  0
  2  1  1  1
  3  2  1  0
  4  5  2  0
  4  2  1  0
  6  4  1  0
  7  6  1  0
  7  8  1  6
  9  8  1  0
 10 14  1  0
 10  9  1  0
 11 10  2  0
 12 13  2  0
 12  7  1  0
 16 15  1  0
 17 16  2  0
 18 16  1  0
 19 18  1  0
 20 19  1  0
 21 20  1  0
 22 21  1  1
 22 23  1  0
 23 12  1  0
 24 22  1  0
 25 24  1  0
 26 24  2  0
M  END
$$$$
