AER.pdb
     RDKit          3D

 26 25  0  0  1  0  0  0  0  0999 V2000
   15.6395  -13.8081  -14.3075 C   0  0  0  0  0  0  0  0  0  0  0  0
   15.2976  -12.3447  -14.4747 C   0  0  2  0  0  0  0  0  0  0  0  0
   15.3929  -11.9709  -15.8652 N   0  0  0  0  0  0  0  0  0  0  0  0
   16.1410  -11.4494  -13.6819 C   0  0  0  0  0  0  0  0  0  0  0  0
   16.2067  -11.5857  -12.4333 O   0  0  0  0  0  0  0  0  0  0  0  0
   16.8918  -10.4272  -14.2740 N   0  0  0  0  0  0  0  0  0  0  0  0
   17.7548   -9.5165  -13.6092 C   0  0  1  0  0  0  0  0  0  0  0  0
   18.8809   -8.9739  -14.4259 C   0  0  0  0  0  0  0  0  0  0  0  0
   19.8223   -8.1055  -13.5916 C   0  0  0  0  0  0  0  0  0  0  0  0
   20.9046   -7.5807  -14.4640 C   0  0  0  0  0  0  0  0  0  0  0  0
   20.6940   -7.4286  -15.7076 O   0  0  0  0  0  0  0  0  0  0  0  0
   17.0195   -8.3346  -13.0465 C   0  0  0  0  0  0  0  0  0  0  0  0
   16.1831   -7.7087  -13.7484 O   0  0  0  0  0  0  0  0  0  0  0  0
   22.1384   -7.2466  -13.9891 O   0  0  0  0  0  0  0  0  0  0  0  0
   12.9947   -8.1475   -5.8166 N   0  0  0  0  0  0  0  0  0  0  0  0
   12.5703   -8.2095   -7.1829 C   0  0  0  0  0  0  0  0  0  0  0  0
   11.4423   -8.7933   -7.4534 N   0  0  0  0  0  0  0  0  0  0  0  0
   13.3566   -7.6510   -8.2091 N   0  0  0  0  0  0  0  0  0  0  0  0
   14.3192   -6.5924   -7.9202 C   0  0  0  0  0  0  0  0  0  0  0  0
   14.9998   -6.1415   -9.2113 C   0  0  0  0  0  0  0  0  0  0  0  0
   15.7715   -7.2372   -9.8708 C   0  0  0  0  0  0  0  0  0  0  0  0
   16.3838   -6.7797  -11.1432 C   0  0  2  0  0  0  0  0  0  0  0  0
   17.2174   -7.8657  -11.7279 N   0  0  0  0  0  0  0  0  0  0  0  0
   17.3042   -5.6701  -10.9194 C   0  0  0  0  0  0  0  0  0  0  0  0
   18.6642   -5.8374  -11.0768 O   0  0  0  0  0  0  0  0  0  0  0  0
   16.9085   -4.5420  -10.5819 O   0  0  0  0  0  0  0  0  0  0  0  0
  2  1  1  6
  3  2  1  0
  4  5  2  0
  4  2  1  0
  6  4  1  0
  7  6  1  0
  7  8  1  6
  9  8  1  0
 10 14  1  0
 10  9  1  0
 11 10  2  0
 12 13  2  0
 12  7  1  0
 16 15  1  0
 17 16  2  0
 18 16  1  0
 19 18  1  0
 20 19  1  0
 21 20  1  0
 22 21  1  1
 22 23  1  0
 23 12  1  0
 24 22  1  0
 25 24  1  0
 26 24  2  0
M  END
$$$$
