AER.pdb
     RDKit          3D

 26 25  0  0  1  0  0  0  0  0999 V2000
   22.2542   -9.9371  -15.1347 C   0  0  0  0  0  0  0  0  0  0  0  0
   20.8248   -9.4842  -14.9402 C   0  0  2  0  0  0  0  0  0  0  0  0
   20.2895   -8.9897  -16.1857 N   0  0  0  0  0  0  0  0  0  0  0  0
   20.6689   -8.4541  -13.9124 C   0  0  0  0  0  0  0  0  0  0  0  0
   21.0378   -8.6803  -12.7315 O   0  0  0  0  0  0  0  0  0  0  0  0
   20.1135   -7.2023  -14.2015 N   0  0  0  0  0  0  0  0  0  0  0  0
   19.9103   -6.1346  -13.2877 C   0  0  1  0  0  0  0  0  0  0  0  0
   20.0852   -4.7603  -13.8445 C   0  0  0  0  0  0  0  0  0  0  0  0
   21.5607   -4.3897  -13.9927 C   0  0  0  0  0  0  0  0  0  0  0  0
   21.6660   -3.0238  -14.5682 C   0  0  0  0  0  0  0  0  0  0  0  0
   22.7786   -2.4111  -14.5385 O   0  0  0  0  0  0  0  0  0  0  0  0
   18.5512   -6.1741  -12.6509 C   0  0  0  0  0  0  0  0  0  0  0  0
   17.5177   -6.3023  -13.3575 O   0  0  0  0  0  0  0  0  0  0  0  0
   20.6080   -2.3800  -15.1387 O   0  0  0  0  0  0  0  0  0  0  0  0
   13.0921  -10.9009   -8.4071 N   0  0  0  0  0  0  0  0  0  0  0  0
   12.5042   -9.5957   -8.3689 C   0  0  0  0  0  0  0  0  0  0  0  0
   11.2621   -9.4882   -8.0057 N   0  0  0  0  0  0  0  0  0  0  0  0
   13.2542   -8.4557   -8.7167 N   0  0  0  0  0  0  0  0  0  0  0  0
   14.6271   -8.5827   -9.1964 C   0  0  0  0  0  0  0  0  0  0  0  0
   15.1744   -7.2085   -9.5775 C   0  0  0  0  0  0  0  0  0  0  0  0
   16.5669   -7.2698  -10.1146 C   0  0  0  0  0  0  0  0  0  0  0  0
   16.9984   -5.9563  -10.6545 C   0  0  2  0  0  0  0  0  0  0  0  0
   18.3557   -6.0722  -11.2548 N   0  0  0  0  0  0  0  0  0  0  0  0
   17.1339   -4.9655   -9.5922 C   0  0  0  0  0  0  0  0  0  0  0  0
   16.0230   -4.4704   -8.9418 O   0  0  0  0  0  0  0  0  0  0  0  0
   18.2405   -4.5305   -9.2325 O   0  0  0  0  0  0  0  0  0  0  0  0
  2  1  1  6
  3  2  1  0
  4  5  2  0
  4  2  1  0
  6  4  1  0
  7  6  1  0
  7  8  1  6
  9  8  1  0
 10 14  1  0
 10  9  1  0
 11 10  2  0
 12 13  2  0
 12  7  1  0
 16 15  1  0
 17 16  2  0
 18 16  1  0
 19 18  1  0
 20 19  1  0
 21 20  1  0
 22 21  1  1
 22 23  1  0
 23 12  1  0
 24 22  1  0
 25 24  1  0
 26 24  2  0
M  END
$$$$
