AER.pdb
     RDKit          3D

 26 25  0  0  1  0  0  0  0  0999 V2000
   21.0595  -15.8368  -14.8557 C   0  0  0  0  0  0  0  0  0  0  0  0
   19.9447  -15.3109  -15.7313 C   0  0  2  0  0  0  0  0  0  0  0  0
   19.6362  -16.2679  -16.7664 N   0  0  0  0  0  0  0  0  0  0  0  0
   20.2429  -14.0189  -16.3505 C   0  0  0  0  0  0  0  0  0  0  0  0
   21.0770  -13.9467  -17.2890 O   0  0  0  0  0  0  0  0  0  0  0  0
   19.6215  -12.8379  -15.9282 N   0  0  0  0  0  0  0  0  0  0  0  0
   19.7700  -11.5495  -16.5062 C   0  0  1  0  0  0  0  0  0  0  0  0
   18.6407  -10.6001  -16.2767 C   0  0  0  0  0  0  0  0  0  0  0  0
   17.3493  -11.0813  -16.9380 C   0  0  0  0  0  0  0  0  0  0  0  0
   16.2595  -10.1156  -16.6418 C   0  0  0  0  0  0  0  0  0  0  0  0
   15.4040  -10.3868  -15.7425 O   0  0  0  0  0  0  0  0  0  0  0  0
   21.0196  -10.8547  -16.0480 C   0  0  0  0  0  0  0  0  0  0  0  0
   21.3197  -10.8187  -14.8262 O   0  0  0  0  0  0  0  0  0  0  0  0
   16.1270   -8.9282  -17.2989 O   0  0  0  0  0  0  0  0  0  0  0  0
   29.1476   -9.6893  -19.5297 N   0  0  0  0  0  0  0  0  0  0  0  0
   29.0673   -8.8385  -18.3807 C   0  0  0  0  0  0  0  0  0  0  0  0
   30.1274   -8.1775  -18.0263 N   0  0  0  0  0  0  0  0  0  0  0  0
   27.8680   -8.7207  -17.6519 N   0  0  0  0  0  0  0  0  0  0  0  0
   26.6570   -9.4075  -18.0908 C   0  0  0  0  0  0  0  0  0  0  0  0
   25.5275   -9.1597  -17.0927 C   0  0  0  0  0  0  0  0  0  0  0  0
   24.2668   -9.8727  -17.4580 C   0  0  0  0  0  0  0  0  0  0  0  0
   23.1876   -9.6050  -16.4747 C   0  0  2  0  0  0  0  0  0  0  0  0
   21.9116  -10.2154  -16.9386 N   0  0  0  0  0  0  0  0  0  0  0  0
   22.9110   -8.1766  -16.3674 C   0  0  0  0  0  0  0  0  0  0  0  0
   23.4485   -7.4279  -15.3412 O   0  0  0  0  0  0  0  0  0  0  0  0
   22.1891   -7.5808  -17.1840 O   0  0  0  0  0  0  0  0  0  0  0  0
  2  1  1  6
  3  2  1  0
  4  5  2  0
  4  2  1  0
  6  4  1  0
  7  6  1  0
  7  8  1  1
  9  8  1  0
 10 14  1  0
 10  9  1  0
 11 10  2  0
 12 13  2  0
 12  7  1  0
 16 15  1  0
 17 16  2  0
 18 16  1  0
 19 18  1  0
 20 19  1  0
 21 20  1  0
 22 21  1  6
 22 23  1  0
 23 12  1  0
 24 22  1  0
 25 24  1  0
 26 24  2  0
M  END
$$$$
