AER.pdb
     RDKit          3D

 26 25  0  0  1  0  0  0  0  0999 V2000
   27.2759  -20.5615  -15.1511 C   0  0  0  0  0  0  0  0  0  0  0  0
   26.0856  -21.4795  -14.9875 C   0  0  2  0  0  0  0  0  0  0  0  0
   25.5889  -21.8798  -16.2819 N   0  0  0  0  0  0  0  0  0  0  0  0
   24.9893  -20.8895  -14.2183 C   0  0  0  0  0  0  0  0  0  0  0  0
   25.1984  -20.4465  -13.0599 O   0  0  0  0  0  0  0  0  0  0  0  0
   23.6916  -20.7988  -14.7347 N   0  0  0  0  0  0  0  0  0  0  0  0
   22.5598  -20.2370  -14.0869 C   0  0  1  0  0  0  0  0  0  0  0  0
   21.9271  -19.0735  -14.7766 C   0  0  0  0  0  0  0  0  0  0  0  0
   22.6796  -18.6889  -16.0503 C   0  0  0  0  0  0  0  0  0  0  0  0
   22.0062  -17.5252  -16.6830 C   0  0  0  0  0  0  0  0  0  0  0  0
   20.9823  -17.0131  -16.1321 O   0  0  0  0  0  0  0  0  0  0  0  0
   21.4723  -21.2452  -13.8530 C   0  0  0  0  0  0  0  0  0  0  0  0
   21.1265  -22.0367  -14.7685 O   0  0  0  0  0  0  0  0  0  0  0  0
   22.4392  -16.9664  -17.8490 O   0  0  0  0  0  0  0  0  0  0  0  0
   16.4340  -26.0762   -8.6709 N   0  0  0  0  0  0  0  0  0  0  0  0
   17.8536  -26.2582   -8.6218 C   0  0  0  0  0  0  0  0  0  0  0  0
   18.3156  -27.4398   -8.3450 N   0  0  0  0  0  0  0  0  0  0  0  0
   18.7283  -25.1823   -8.8678 N   0  0  0  0  0  0  0  0  0  0  0  0
   18.2097  -23.8618   -9.2116 C   0  0  0  0  0  0  0  0  0  0  0  0
   18.4260  -23.5888  -10.6989 C   0  0  0  0  0  0  0  0  0  0  0  0
   19.5100  -22.5928  -10.9519 C   0  0  0  0  0  0  0  0  0  0  0  0
   19.7223  -22.3794  -12.4053 C   0  0  2  0  0  0  0  0  0  0  0  0
   20.7886  -21.3633  -12.6216 N   0  0  0  0  0  0  0  0  0  0  0  0
   18.5312  -21.8239  -13.0389 C   0  0  0  0  0  0  0  0  0  0  0  0
   17.7759  -22.5810  -13.9098 O   0  0  0  0  0  0  0  0  0  0  0  0
   18.1511  -20.6609  -12.8245 O   0  0  0  0  0  0  0  0  0  0  0  0
  2  1  1  6
  3  2  1  0
  4  5  2  0
  4  2  1  0
  6  4  1  0
  7  6  1  0
  7  8  1  6
  9  8  1  0
 10 14  1  0
 10  9  1  0
 11 10  2  0
 12 13  2  0
 12  7  1  0
 16 15  1  0
 17 16  2  0
 18 16  1  0
 19 18  1  0
 20 19  1  0
 21 20  1  0
 22 21  1  1
 22 23  1  0
 23 12  1  0
 24 22  1  0
 25 24  1  0
 26 24  2  0
M  END
$$$$
