AER.pdb
     RDKit          3D

 26 25  0  0  1  0  0  0  0  0999 V2000
   23.7523  -26.9714  -15.2710 C   0  0  0  0  0  0  0  0  0  0  0  0
   22.6627  -28.0093  -15.1233 C   0  0  2  0  0  0  0  0  0  0  0  0
   22.3982  -28.6327  -16.3977 N   0  0  0  0  0  0  0  0  0  0  0  0
   21.4108  -27.4753  -14.5854 C   0  0  0  0  0  0  0  0  0  0  0  0
   20.6381  -26.8133  -15.3246 O   0  0  0  0  0  0  0  0  0  0  0  0
   21.0349  -27.6785  -13.2525 N   0  0  0  0  0  0  0  0  0  0  0  0
   19.8531  -27.2043  -12.6243 C   0  0  1  0  0  0  0  0  0  0  0  0
   19.4370  -27.9321  -11.3887 C   0  0  0  0  0  0  0  0  0  0  0  0
   18.1256  -27.3882  -10.8222 C   0  0  0  0  0  0  0  0  0  0  0  0
   17.7042  -28.2292   -9.6720 C   0  0  0  0  0  0  0  0  0  0  0  0
   16.5842  -28.0155   -9.1115 O   0  0  0  0  0  0  0  0  0  0  0  0
   19.9389  -25.7499  -12.2619 C   0  0  0  0  0  0  0  0  0  0  0  0
   21.0176  -25.2593  -11.8378 O   0  0  0  0  0  0  0  0  0  0  0  0
   18.4733  -29.2401   -9.1762 O   0  0  0  0  0  0  0  0  0  0  0  0
   22.4997  -19.3690  -16.2578 N   0  0  0  0  0  0  0  0  0  0  0  0
   21.6184  -18.6980  -15.3502 C   0  0  0  0  0  0  0  0  0  0  0  0
   21.4737  -17.4127  -15.4664 N   0  0  0  0  0  0  0  0  0  0  0  0
   20.9249  -19.4138  -14.3553 N   0  0  0  0  0  0  0  0  0  0  0  0
   21.0508  -20.8647  -14.2543 C   0  0  0  0  0  0  0  0  0  0  0  0
   20.0414  -21.4055  -13.2435 C   0  0  0  0  0  0  0  0  0  0  0  0
   20.0218  -22.8981  -13.1885 C   0  0  0  0  0  0  0  0  0  0  0  0
   18.9977  -23.3925  -12.2347 C   0  0  2  0  0  0  0  0  0  0  0  0
   18.8412  -24.8665  -12.3724 N   0  0  0  0  0  0  0  0  0  0  0  0
   17.6819  -22.8389  -12.5360 C   0  0  0  0  0  0  0  0  0  0  0  0
   17.3761  -21.5316  -12.2201 O   0  0  0  0  0  0  0  0  0  0  0  0
   16.7920  -23.5117  -13.0823 O   0  0  0  0  0  0  0  0  0  0  0  0
  2  1  1  6
  3  2  1  0
  4  5  2  0
  4  2  1  0
  6  4  1  0
  7  6  1  0
  7  8  1  1
  9  8  1  0
 10 14  1  0
 10  9  1  0
 11 10  2  0
 12 13  2  0
 12  7  1  0
 16 15  1  0
 17 16  2  0
 18 16  1  0
 19 18  1  0
 20 19  1  0
 21 20  1  0
 22 21  1  6
 22 23  1  0
 23 12  1  0
 24 22  1  0
 25 24  1  0
 26 24  2  0
M  END
$$$$
