AER.pdb
     RDKit          3D

 26 25  0  0  1  0  0  0  0  0999 V2000
   20.9754  -23.3797  -17.5416 C   0  0  0  0  0  0  0  0  0  0  0  0
   20.0517  -24.2092  -16.6784 C   0  0  2  0  0  0  0  0  0  0  0  0
   18.7366  -24.2613  -17.2704 N   0  0  0  0  0  0  0  0  0  0  0  0
   19.9360  -23.7216  -15.3034 C   0  0  0  0  0  0  0  0  0  0  0  0
   20.9586  -23.6365  -14.5762 O   0  0  0  0  0  0  0  0  0  0  0  0
   18.7051  -23.3392  -14.7578 N   0  0  0  0  0  0  0  0  0  0  0  0
   18.4723  -22.8745  -13.4364 C   0  0  1  0  0  0  0  0  0  0  0  0
   17.3937  -21.8527  -13.2873 C   0  0  0  0  0  0  0  0  0  0  0  0
   16.2994  -22.0224  -14.3411 C   0  0  0  0  0  0  0  0  0  0  0  0
   15.2679  -20.9704  -14.1480 C   0  0  0  0  0  0  0  0  0  0  0  0
   15.4525  -19.8102  -14.6316 O   0  0  0  0  0  0  0  0  0  0  0  0
   18.1476  -23.9888  -12.4842 C   0  0  0  0  0  0  0  0  0  0  0  0
   17.5026  -24.9963  -12.8752 O   0  0  0  0  0  0  0  0  0  0  0  0
   14.1089  -21.1902  -13.4642 O   0  0  0  0  0  0  0  0  0  0  0  0
   16.5766  -25.3200   -4.2410 N   0  0  0  0  0  0  0  0  0  0  0  0
   16.9970  -26.6190   -4.6727 C   0  0  0  0  0  0  0  0  0  0  0  0
   16.7311  -27.6383   -3.9133 N   0  0  0  0  0  0  0  0  0  0  0  0
   17.6825  -26.7881   -5.8912 N   0  0  0  0  0  0  0  0  0  0  0  0
   18.0032  -25.6395   -6.7332 C   0  0  0  0  0  0  0  0  0  0  0  0
   18.6780  -26.1101   -8.0203 C   0  0  0  0  0  0  0  0  0  0  0  0
   18.9849  -24.9868   -8.9558 C   0  0  0  0  0  0  0  0  0  0  0  0
   18.1522  -25.0595  -10.1824 C   0  0  2  0  0  0  0  0  0  0  0  0
   18.5371  -23.9739  -11.1256 N   0  0  0  0  0  0  0  0  0  0  0  0
   16.7443  -24.8231   -9.8819 C   0  0  0  0  0  0  0  0  0  0  0  0
   16.2629  -23.5414   -9.7148 O   0  0  0  0  0  0  0  0  0  0  0  0
   15.9291  -25.7531   -9.7648 O   0  0  0  0  0  0  0  0  0  0  0  0
  2  1  1  6
  3  2  1  0
  4  5  2  0
  4  2  1  0
  6  4  1  0
  7  6  1  0
  7  8  1  6
  9  8  1  0
 10 14  1  0
 10  9  1  0
 11 10  2  0
 12 13  2  0
 12  7  1  0
 16 15  1  0
 17 16  2  0
 18 16  1  0
 19 18  1  0
 20 19  1  0
 21 20  1  0
 22 21  1  1
 22 23  1  0
 23 12  1  0
 24 22  1  0
 25 24  1  0
 26 24  2  0
M  END
$$$$
