AER.pdb
     RDKit          3D

 26 25  0  0  1  0  0  0  0  0999 V2000
   21.6546  -15.4567  -20.8975 C   0  0  0  0  0  0  0  0  0  0  0  0
   22.0085  -14.5244  -19.7609 C   0  0  2  0  0  0  0  0  0  0  0  0
   22.3879  -15.2872  -18.5962 N   0  0  0  0  0  0  0  0  0  0  0  0
   20.9301  -13.6045  -19.3973 C   0  0  0  0  0  0  0  0  0  0  0  0
   20.5020  -12.7712  -20.2363 O   0  0  0  0  0  0  0  0  0  0  0  0
   20.3466  -13.6185  -18.1251 N   0  0  0  0  0  0  0  0  0  0  0  0
   19.3551  -12.7262  -17.6383 C   0  0  1  0  0  0  0  0  0  0  0  0
   18.6701  -13.1406  -16.3779 C   0  0  0  0  0  0  0  0  0  0  0  0
   17.5917  -14.1928  -16.6357 C   0  0  0  0  0  0  0  0  0  0  0  0
   17.0598  -14.6760  -15.3351 C   0  0  0  0  0  0  0  0  0  0  0  0
   16.8715  -15.9193  -15.1537 O   0  0  0  0  0  0  0  0  0  0  0  0
   19.8912  -11.3433  -17.4052 C   0  0  0  0  0  0  0  0  0  0  0  0
   21.0557  -11.1761  -16.9581 O   0  0  0  0  0  0  0  0  0  0  0  0
   16.7570  -13.8366  -14.3041 O   0  0  0  0  0  0  0  0  0  0  0  0
   19.0197   -4.1332  -21.9058 N   0  0  0  0  0  0  0  0  0  0  0  0
   19.7237   -5.3801  -21.8884 C   0  0  0  0  0  0  0  0  0  0  0  0
   20.2029   -5.8345  -23.0065 N   0  0  0  0  0  0  0  0  0  0  0  0
   19.8928   -6.0970  -20.6881 N   0  0  0  0  0  0  0  0  0  0  0  0
   19.4158   -5.5534  -19.4201 C   0  0  0  0  0  0  0  0  0  0  0  0
   19.7683   -6.5067  -18.2798 C   0  0  0  0  0  0  0  0  0  0  0  0
   19.2452   -7.8885  -18.4991 C   0  0  0  0  0  0  0  0  0  0  0  0
   19.6879   -8.8130  -17.4257 C   0  0  2  0  0  0  0  0  0  0  0  0
   19.1392  -10.1756  -17.6673 N   0  0  0  0  0  0  0  0  0  0  0  0
   19.1559   -8.4116  -16.1278 C   0  0  0  0  0  0  0  0  0  0  0  0
   18.1204   -9.1095  -15.5421 O   0  0  0  0  0  0  0  0  0  0  0  0
   19.6059   -7.4370  -15.5028 O   0  0  0  0  0  0  0  0  0  0  0  0
  2  1  1  6
  3  2  1  0
  4  5  2  0
  4  2  1  0
  6  4  1  0
  7  6  1  0
  7  8  1  1
  9  8  1  0
 10 14  1  0
 10  9  1  0
 11 10  2  0
 12 13  2  0
 12  7  1  0
 16 15  1  0
 17 16  2  0
 18 16  1  0
 19 18  1  0
 20 19  1  0
 21 20  1  0
 22 21  1  6
 22 23  1  0
 23 12  1  0
 24 22  1  0
 25 24  1  0
 26 24  2  0
M  END
$$$$
