SVS.pdb
     RDKit          3D

 20 19  0  0  1  0  0  0  0  0999 V2000
    7.4741  -18.9218   15.8499 O   0  0  0  0  0  0  0  0  0  0  0  0
    8.3361  -18.4275   16.8232 C   0  0  0  0  0  0  0  0  0  0  0  0
    8.6428  -16.9689   16.5742 C   0  0  2  0  0  0  0  0  0  0  0  0
    9.6325  -16.8539   15.5407 N   0  0  0  0  0  0  0  0  0  0  0  0
    9.1415  -16.3057   17.8173 C   0  0  0  0  0  0  0  0  0  0  0  0
   10.3544  -16.3277   18.0779 O   0  0  0  0  0  0  0  0  0  0  0  0
    7.2424  -12.9074   19.4531 C   0  0  0  0  0  0  0  0  0  0  0  0
    7.6361  -13.9626   20.4271 C   0  0  2  0  0  0  0  0  0  0  0  0
    8.1094  -13.3536   21.7508 C   0  0  0  0  0  0  0  0  0  0  0  0
    8.5998  -14.9981   19.9303 C   0  0  2  0  0  0  0  0  0  0  0  0
    8.2626  -15.6444   18.7192 N   0  0  0  0  0  0  0  0  0  0  0  0
    9.0116  -15.8944   21.0473 C   0  0  0  0  0  0  0  0  0  0  0  0
    8.2024  -16.7933   21.4536 O   0  0  0  0  0  0  0  0  0  0  0  0
   12.7945  -15.8229   22.9260 O   0  0  0  0  0  0  0  0  0  0  0  0
   12.1403  -17.0381   22.7380 C   0  0  0  0  0  0  0  0  0  0  0  0
   10.6402  -16.8628   22.7032 C   0  0  2  0  0  0  0  0  0  0  0  0
   10.2491  -15.8466   21.7290 N   0  0  0  0  0  0  0  0  0  0  0  0
   10.1660  -16.4409   24.0280 C   0  0  0  0  0  0  0  0  0  0  0  0
   10.3609  -17.2416   25.1269 O   0  0  0  0  0  0  0  0  0  0  0  0
    9.5821  -15.3475   24.1556 O   0  0  0  0  0  0  0  0  0  0  0  0
  2  3  1  0
  2  1  1  0
  3  4  1  6
  5  3  1  0
  5  6  2  0
  8  7  1  6
  8 10  1  0
  9  8  1  0
 10 11  1  6
 10 12  1  0
 11  5  1  0
 12 13  2  0
 12 17  1  0
 14 15  1  0
 16 15  1  1
 16 18  1  0
 17 16  1  0
 18 20  2  0
 18 19  1  0
M  END
$$$$
