SVS.pdb
     RDKit          3D

 20 19  0  0  1  0  0  0  0  0999 V2000
    7.1891  -19.5389   18.4637 O   0  0  0  0  0  0  0  0  0  0  0  0
    6.3066  -18.6257   17.8964 C   0  0  0  0  0  0  0  0  0  0  0  0
    7.0595  -17.4856   17.2507 C   0  0  2  0  0  0  0  0  0  0  0  0
    7.8311  -17.9814   16.1464 N   0  0  0  0  0  0  0  0  0  0  0  0
    7.9673  -16.8179   18.2325 C   0  0  0  0  0  0  0  0  0  0  0  0
    9.1495  -17.1843   18.3199 O   0  0  0  0  0  0  0  0  0  0  0  0
    8.5677  -12.8834   21.3200 C   0  0  0  0  0  0  0  0  0  0  0  0
    7.6613  -13.7818   20.5530 C   0  0  2  0  0  0  0  0  0  0  0  0
    6.3631  -14.0538   21.3197 C   0  0  0  0  0  0  0  0  0  0  0  0
    8.2662  -15.0544   20.0404 C   0  0  2  0  0  0  0  0  0  0  0  0
    7.5154  -15.7667   19.0775 N   0  0  0  0  0  0  0  0  0  0  0  0
    8.7962  -15.8640   21.1736 C   0  0  0  0  0  0  0  0  0  0  0  0
    8.0501  -16.7518   21.7057 O   0  0  0  0  0  0  0  0  0  0  0  0
   11.8362  -17.9386   21.2687 O   0  0  0  0  0  0  0  0  0  0  0  0
   11.8857  -17.2386   22.4718 C   0  0  0  0  0  0  0  0  0  0  0  0
   10.5494  -16.6216   22.8120 C   0  0  2  0  0  0  0  0  0  0  0  0
   10.0850  -15.7425   21.7416 N   0  0  0  0  0  0  0  0  0  0  0  0
   10.6759  -15.8275   24.0413 C   0  0  0  0  0  0  0  0  0  0  0  0
   10.9821  -16.4332   25.2354 O   0  0  0  0  0  0  0  0  0  0  0  0
   10.5039  -14.5940   24.0001 O   0  0  0  0  0  0  0  0  0  0  0  0
  2  3  1  0
  2  1  1  0
  3  4  1  6
  5  3  1  0
  5  6  2  0
  8  7  1  1
  8 10  1  0
  9  8  1  0
 10 11  1  1
 10 12  1  0
 11  5  1  0
 12 13  2  0
 12 17  1  0
 14 15  1  0
 16 15  1  6
 16 18  1  0
 17 16  1  0
 18 20  2  0
 18 19  1  0
M  END
$$$$
