SVS.pdb
     RDKit          3D

 20 19  0  0  1  0  0  0  0  0999 V2000
    6.0040  -18.6555   16.5199 O   0  0  0  0  0  0  0  0  0  0  0  0
    7.0637  -18.4184   17.3890 C   0  0  0  0  0  0  0  0  0  0  0  0
    7.8588  -17.2123   16.9456 C   0  0  2  0  0  0  0  0  0  0  0  0
    8.8603  -17.6161   15.9997 N   0  0  0  0  0  0  0  0  0  0  0  0
    8.5146  -16.5441   18.1106 C   0  0  0  0  0  0  0  0  0  0  0  0
    9.7035  -16.7898   18.3670 O   0  0  0  0  0  0  0  0  0  0  0  0
    7.1614  -12.7701   19.5064 C   0  0  0  0  0  0  0  0  0  0  0  0
    7.5210  -13.7672   20.5520 C   0  0  2  0  0  0  0  0  0  0  0  0
    8.1922  -13.0982   21.7558 C   0  0  0  0  0  0  0  0  0  0  0  0
    8.3005  -14.9617   20.0900 C   0  0  2  0  0  0  0  0  0  0  0  0
    7.8134  -15.6275   18.9421 N   0  0  0  0  0  0  0  0  0  0  0  0
    8.6362  -15.8357   21.2493 C   0  0  0  0  0  0  0  0  0  0  0  0
    7.7055  -16.4961   21.8200 O   0  0  0  0  0  0  0  0  0  0  0  0
   12.0803  -17.7703   21.7410 O   0  0  0  0  0  0  0  0  0  0  0  0
   10.9594  -18.1274   22.4865 C   0  0  0  0  0  0  0  0  0  0  0  0
   10.1731  -16.9142   22.9247 C   0  0  2  0  0  0  0  0  0  0  0  0
    9.9250  -16.0115   21.8031 N   0  0  0  0  0  0  0  0  0  0  0  0
   10.9316  -16.1831   23.9485 C   0  0  0  0  0  0  0  0  0  0  0  0
   11.2244  -16.7723   25.1542 O   0  0  0  0  0  0  0  0  0  0  0  0
   11.3125  -15.0187   23.7208 O   0  0  0  0  0  0  0  0  0  0  0  0
  2  3  1  0
  2  1  1  0
  3  4  1  6
  5  3  1  0
  5  6  2  0
  8  7  1  6
  8 10  1  0
  9  8  1  0
 10 11  1  6
 10 12  1  0
 11  5  1  0
 12 13  2  0
 12 17  1  0
 14 15  1  0
 16 15  1  6
 16 18  1  0
 17 16  1  0
 18 20  2  0
 18 19  1  0
M  END
$$$$
