SVS.pdb
     RDKit          3D

 20 19  0  0  1  0  0  0  0  0999 V2000
    7.4128  -18.7199   17.6633 O   0  0  0  0  0  0  0  0  0  0  0  0
    8.0429  -18.3830   16.4700 C   0  0  0  0  0  0  0  0  0  0  0  0
    8.0916  -16.8826   16.2966 C   0  0  2  0  0  0  0  0  0  0  0  0
    8.8288  -16.5582   15.1084 N   0  0  0  0  0  0  0  0  0  0  0  0
    8.7342  -16.2269   17.4760 C   0  0  0  0  0  0  0  0  0  0  0  0
    9.9671  -16.2759   17.6067 O   0  0  0  0  0  0  0  0  0  0  0  0
    7.1574  -12.8114   19.4152 C   0  0  0  0  0  0  0  0  0  0  0  0
    7.5746  -13.9319   20.3025 C   0  0  2  0  0  0  0  0  0  0  0  0
    8.1913  -13.4137   21.6057 C   0  0  0  0  0  0  0  0  0  0  0  0
    8.4349  -14.9888   19.6772 C   0  0  2  0  0  0  0  0  0  0  0  0
    7.9711  -15.5424   18.4620 N   0  0  0  0  0  0  0  0  0  0  0  0
    8.8727  -15.9712   20.7085 C   0  0  0  0  0  0  0  0  0  0  0  0
    8.0449  -16.8502   21.1209 O   0  0  0  0  0  0  0  0  0  0  0  0
   12.8327  -16.7356   21.6788 O   0  0  0  0  0  0  0  0  0  0  0  0
   11.8500  -17.6986   21.8954 C   0  0  0  0  0  0  0  0  0  0  0  0
   10.5248  -17.0696   22.2565 C   0  0  2  0  0  0  0  0  0  0  0  0
   10.1554  -16.0289   21.3001 N   0  0  0  0  0  0  0  0  0  0  0  0
   10.6195  -16.4606   23.5899 C   0  0  0  0  0  0  0  0  0  0  0  0
   10.9030  -17.2312   24.6910 O   0  0  0  0  0  0  0  0  0  0  0  0
   10.4409  -15.2345   23.7229 O   0  0  0  0  0  0  0  0  0  0  0  0
  2  3  1  0
  2  1  1  0
  3  4  1  6
  5  3  1  0
  5  6  2  0
  8  7  1  6
  8 10  1  0
  9  8  1  0
 10 11  1  6
 10 12  1  0
 11  5  1  0
 12 13  2  0
 12 17  1  0
 14 15  1  0
 16 15  1  6
 16 18  1  0
 17 16  1  0
 18 20  2  0
 18 19  1  0
M  END
$$$$
