SVS.pdb
     RDKit          3D

 20 19  0  0  1  0  0  0  0  0999 V2000
   -1.6146  -25.3786   24.7133 O   0  0  0  0  0  0  0  0  0  0  0  0
   -2.9952  -25.2434   24.8150 C   0  0  0  0  0  0  0  0  0  0  0  0
   -3.6661  -26.5974   24.8138 C   0  0  2  0  0  0  0  0  0  0  0  0
   -3.5187  -27.2076   23.5228 N   0  0  0  0  0  0  0  0  0  0  0  0
   -5.1187  -26.4767   25.1446 C   0  0  0  0  0  0  0  0  0  0  0  0
   -5.9668  -26.7124   24.2702 O   0  0  0  0  0  0  0  0  0  0  0  0
   -9.1099  -27.2703   27.1992 C   0  0  0  0  0  0  0  0  0  0  0  0
   -7.6738  -27.3412   26.8124 C   0  0  2  0  0  0  0  0  0  0  0  0
   -6.9575  -28.4905   27.5288 C   0  0  0  0  0  0  0  0  0  0  0  0
   -6.8939  -26.0651   26.9186 C   0  0  2  0  0  0  0  0  0  0  0  0
   -5.5638  -26.0969   26.4411 N   0  0  0  0  0  0  0  0  0  0  0  0
   -7.0813  -25.4593   28.2671 C   0  0  0  0  0  0  0  0  0  0  0  0
   -6.5481  -26.0216   29.2807 O   0  0  0  0  0  0  0  0  0  0  0  0
   -8.2907  -21.5402   28.7438 O   0  0  0  0  0  0  0  0  0  0  0  0
   -7.4291  -22.1359   29.6618 C   0  0  0  0  0  0  0  0  0  0  0  0
   -7.7335  -23.6050   29.8383 C   0  0  2  0  0  0  0  0  0  0  0  0
   -7.8182  -24.2861   28.5485 N   0  0  0  0  0  0  0  0  0  0  0  0
   -9.0211  -23.7585   30.5284 C   0  0  0  0  0  0  0  0  0  0  0  0
  -10.0811  -24.3670   29.9016 O   0  0  0  0  0  0  0  0  0  0  0  0
   -9.1526  -23.3329   31.6922 O   0  0  0  0  0  0  0  0  0  0  0  0
  2  3  1  0
  2  1  1  0
  3  4  1  6
  5  3  1  0
  5  6  2  0
  8  7  1  1
  8 10  1  0
  9  8  1  0
 10 11  1  1
 10 12  1  0
 11  5  1  0
 12 13  2  0
 12 17  1  0
 14 15  1  0
 16 15  1  6
 16 18  1  0
 17 16  1  0
 18 20  2  0
 18 19  1  0
M  END
$$$$
