SVS.pdb
     RDKit          3D

 20 19  0  0  1  0  0  0  0  0999 V2000
    7.4436  -16.9585   21.7837 O   0  0  0  0  0  0  0  0  0  0  0  0
    6.4477  -16.0147   21.5551 C   0  0  0  0  0  0  0  0  0  0  0  0
    7.0268  -14.6190   21.5434 C   0  0  2  0  0  0  0  0  0  0  0  0
    7.8909  -14.4651   20.4074 N   0  0  0  0  0  0  0  0  0  0  0  0
    7.7968  -14.3471   22.7952 C   0  0  0  0  0  0  0  0  0  0  0  0
    9.0351  -14.4226   22.7803 O   0  0  0  0  0  0  0  0  0  0  0  0
    6.2744  -11.8104   25.8688 C   0  0  0  0  0  0  0  0  0  0  0  0
    6.9164  -13.0819   26.3025 C   0  0  2  0  0  0  0  0  0  0  0  0
    7.6873  -12.9004   27.6140 C   0  0  0  0  0  0  0  0  0  0  0  0
    7.7498  -13.7886   25.2759 C   0  0  2  0  0  0  0  0  0  0  0  0
    7.1497  -14.0015   24.0138 N   0  0  0  0  0  0  0  0  0  0  0  0
    8.4148  -14.9759   25.8830 C   0  0  0  0  0  0  0  0  0  0  0  0
    7.7188  -16.0135   26.1420 O   0  0  0  0  0  0  0  0  0  0  0  0
   12.4015  -17.5898   26.8403 O   0  0  0  0  0  0  0  0  0  0  0  0
   11.8186  -16.4401   26.3129 C   0  0  0  0  0  0  0  0  0  0  0  0
   10.3746  -16.3044   26.7353 C   0  0  2  0  0  0  0  0  0  0  0  0
    9.7853  -15.0725   26.2161 N   0  0  0  0  0  0  0  0  0  0  0  0
   10.2946  -16.2738   28.2018 C   0  0  0  0  0  0  0  0  0  0  0  0
   10.3409  -17.4386   28.9281 O   0  0  0  0  0  0  0  0  0  0  0  0
   10.1839  -15.1816   28.7915 O   0  0  0  0  0  0  0  0  0  0  0  0
  2  3  1  0
  2  1  1  0
  3  4  1  6
  5  3  1  0
  5  6  2  0
  8  7  1  6
  8 10  1  0
  9  8  1  0
 10 11  1  6
 10 12  1  0
 11  5  1  0
 12 13  2  0
 12 17  1  0
 14 15  1  0
 16 15  1  1
 16 18  1  0
 17 16  1  0
 18 20  2  0
 18 19  1  0
M  END
$$$$
