SVS.pdb
     RDKit          3D

 20 19  0  0  1  0  0  0  0  0999 V2000
    7.3258  -16.9101   21.6701 O   0  0  0  0  0  0  0  0  0  0  0  0
    6.4688  -15.8588   21.3622 C   0  0  0  0  0  0  0  0  0  0  0  0
    7.2027  -14.5388   21.4139 C   0  0  2  0  0  0  0  0  0  0  0  0
    8.1764  -14.4868   20.3603 N   0  0  0  0  0  0  0  0  0  0  0  0
    7.8841  -14.3550   22.7313 C   0  0  0  0  0  0  0  0  0  0  0  0
    9.1012  -14.5765   22.8266 O   0  0  0  0  0  0  0  0  0  0  0  0
    6.2591  -11.7703   25.6875 C   0  0  0  0  0  0  0  0  0  0  0  0
    6.8266  -13.0554   26.1809 C   0  0  2  0  0  0  0  0  0  0  0  0
    7.5492  -12.8708   27.5192 C   0  0  0  0  0  0  0  0  0  0  0  0
    7.6707  -13.8246   25.2094 C   0  0  2  0  0  0  0  0  0  0  0  0
    7.1759  -13.9306   23.8896 N   0  0  0  0  0  0  0  0  0  0  0  0
    8.1355  -15.0978   25.8287 C   0  0  0  0  0  0  0  0  0  0  0  0
    7.3202  -16.0741   25.9292 O   0  0  0  0  0  0  0  0  0  0  0  0
   10.7533  -17.1700   24.7933 O   0  0  0  0  0  0  0  0  0  0  0  0
   10.9381  -17.2701   26.1702 C   0  0  0  0  0  0  0  0  0  0  0  0
    9.8053  -16.6231   26.9320 C   0  0  2  0  0  0  0  0  0  0  0  0
    9.4318  -15.3421   26.3372 N   0  0  0  0  0  0  0  0  0  0  0  0
   10.2225  -16.3850   28.3202 C   0  0  0  0  0  0  0  0  0  0  0  0
   10.2867  -15.1075   28.8206 O   0  0  0  0  0  0  0  0  0  0  0  0
   10.5206  -17.3504   29.0497 O   0  0  0  0  0  0  0  0  0  0  0  0
  2  3  1  0
  2  1  1  0
  3  4  1  6
  5  3  1  0
  5  6  2  0
  8  7  1  6
  8 10  1  0
  9  8  1  0
 10 11  1  6
 10 12  1  0
 11  5  1  0
 12 13  2  0
 12 17  1  0
 14 15  1  0
 16 15  1  6
 16 18  1  0
 17 16  1  0
 18 20  2  0
 18 19  1  0
M  END
$$$$
