SVS.pdb
     RDKit          3D

 20 19  0  0  1  0  0  0  0  0999 V2000
    6.0755  -16.8966   22.2781 O   0  0  0  0  0  0  0  0  0  0  0  0
    6.8533  -16.3815   21.2464 C   0  0  0  0  0  0  0  0  0  0  0  0
    7.1866  -14.9300   21.5022 C   0  0  2  0  0  0  0  0  0  0  0  0
    8.0399  -14.4398   20.4570 N   0  0  0  0  0  0  0  0  0  0  0  0
    7.8676  -14.7603   22.8218 C   0  0  0  0  0  0  0  0  0  0  0  0
    9.0781  -15.0130   22.9224 O   0  0  0  0  0  0  0  0  0  0  0  0
    6.5768  -11.8845   25.5671 C   0  0  0  0  0  0  0  0  0  0  0  0
    6.9482  -13.1924   26.1741 C   0  0  2  0  0  0  0  0  0  0  0  0
    7.6821  -13.0028   27.5056 C   0  0  0  0  0  0  0  0  0  0  0  0
    7.6772  -14.1540   25.2843 C   0  0  2  0  0  0  0  0  0  0  0  0
    7.1662  -14.3146   23.9761 N   0  0  0  0  0  0  0  0  0  0  0  0
    7.9705  -15.4151   26.0220 C   0  0  0  0  0  0  0  0  0  0  0  0
    7.0231  -16.2407   26.2431 O   0  0  0  0  0  0  0  0  0  0  0  0
   11.4944  -17.3706   25.9824 O   0  0  0  0  0  0  0  0  0  0  0  0
   10.3160  -17.9986   26.3784 C   0  0  0  0  0  0  0  0  0  0  0  0
    9.4447  -17.0789   27.2012 C   0  0  2  0  0  0  0  0  0  0  0  0
    9.2346  -15.8023   26.5226 N   0  0  0  0  0  0  0  0  0  0  0  0
   10.0939  -16.8155   28.4924 C   0  0  0  0  0  0  0  0  0  0  0  0
   10.3650  -17.8449   29.3604 O   0  0  0  0  0  0  0  0  0  0  0  0
   10.4011  -15.6483   28.8025 O   0  0  0  0  0  0  0  0  0  0  0  0
  2  3  1  0
  2  1  1  0
  3  4  1  6
  5  3  1  0
  5  6  2  0
  8  7  1  6
  8 10  1  0
  9  8  1  0
 10 11  1  6
 10 12  1  0
 11  5  1  0
 12 13  2  0
 12 17  1  0
 14 15  1  0
 16 15  1  6
 16 18  1  0
 17 16  1  0
 18 20  2  0
 18 19  1  0
M  END
$$$$
