SVS.pdb
     RDKit          3D

 20 19  0  0  1  0  0  0  0  0999 V2000
    6.7100  -16.4847   21.3720 O   0  0  0  0  0  0  0  0  0  0  0  0
    6.0497  -15.2837   21.1350 C   0  0  0  0  0  0  0  0  0  0  0  0
    7.0185  -14.1246   21.1744 C   0  0  2  0  0  0  0  0  0  0  0  0
    7.9150  -14.2072   20.0562 N   0  0  0  0  0  0  0  0  0  0  0  0
    7.8056  -14.1262   22.4449 C   0  0  0  0  0  0  0  0  0  0  0  0
    8.9356  -14.6383   22.4638 O   0  0  0  0  0  0  0  0  0  0  0  0
    7.9638  -12.6204   27.2737 C   0  0  0  0  0  0  0  0  0  0  0  0
    7.2263  -12.7535   25.9871 C   0  0  2  0  0  0  0  0  0  0  0  0
    5.7744  -13.1855   26.2167 C   0  0  0  0  0  0  0  0  0  0  0  0
    7.8814  -13.5910   24.9300 C   0  0  2  0  0  0  0  0  0  0  0  0
    7.2964  -13.5545   23.6437 N   0  0  0  0  0  0  0  0  0  0  0  0
    8.1823  -14.9492   25.4640 C   0  0  0  0  0  0  0  0  0  0  0  0
    7.2946  -15.8617   25.3780 O   0  0  0  0  0  0  0  0  0  0  0  0
   11.2285  -18.5301   26.0737 O   0  0  0  0  0  0  0  0  0  0  0  0
   10.8249  -17.2780   25.6161 C   0  0  0  0  0  0  0  0  0  0  0  0
    9.6715  -16.7348   26.4264 C   0  0  2  0  0  0  0  0  0  0  0  0
    9.3918  -15.3431   26.0809 N   0  0  0  0  0  0  0  0  0  0  0  0
   10.0046  -16.7991   27.8557 C   0  0  0  0  0  0  0  0  0  0  0  0
   10.1548  -18.0113   28.4838 O   0  0  0  0  0  0  0  0  0  0  0  0
   10.1519  -15.7448   28.5035 O   0  0  0  0  0  0  0  0  0  0  0  0
  2  3  1  0
  2  1  1  0
  3  4  1  6
  5  3  1  0
  5  6  2  0
  8  7  1  1
  8 10  1  0
  9  8  1  0
 10 11  1  6
 10 12  1  0
 11  5  1  0
 12 13  2  0
 12 17  1  0
 14 15  1  0
 16 15  1  6
 16 18  1  0
 17 16  1  0
 18 20  2  0
 18 19  1  0
M  END
$$$$
