SVS.pdb
     RDKit          3D

 20 19  0  0  1  0  0  0  0  0999 V2000
    7.1860  -19.3367   19.0925 O   0  0  0  0  0  0  0  0  0  0  0  0
    6.5082  -18.4206   18.2950 C   0  0  0  0  0  0  0  0  0  0  0  0
    7.4637  -17.3969   17.7272 C   0  0  2  0  0  0  0  0  0  0  0  0
    8.3840  -18.0402   16.8328 N   0  0  0  0  0  0  0  0  0  0  0  0
    8.2242  -16.7109   18.8158 C   0  0  0  0  0  0  0  0  0  0  0  0
    9.4160  -16.9995   19.0048 O   0  0  0  0  0  0  0  0  0  0  0  0
    7.2231  -12.7548   19.9745 C   0  0  0  0  0  0  0  0  0  0  0  0
    7.5473  -13.7042   21.0747 C   0  0  2  0  0  0  0  0  0  0  0  0
    8.2934  -13.0049   22.2155 C   0  0  0  0  0  0  0  0  0  0  0  0
    8.2356  -14.9746   20.6739 C   0  0  2  0  0  0  0  0  0  0  0  0
    7.6201  -15.7294   19.6493 N   0  0  0  0  0  0  0  0  0  0  0  0
    8.6436  -15.7417   21.8845 C   0  0  0  0  0  0  0  0  0  0  0  0
    7.7699  -16.4336   22.5057 O   0  0  0  0  0  0  0  0  0  0  0  0
   11.9865  -17.7054   22.3025 O   0  0  0  0  0  0  0  0  0  0  0  0
   11.7069  -17.0945   23.5225 C   0  0  0  0  0  0  0  0  0  0  0  0
   10.2763  -16.6139   23.5891 C   0  0  2  0  0  0  0  0  0  0  0  0
    9.9445  -15.7797   22.4365 N   0  0  0  0  0  0  0  0  0  0  0  0
   10.0841  -15.8171   24.8081 C   0  0  0  0  0  0  0  0  0  0  0  0
   10.2664  -16.3812   26.0471 O   0  0  0  0  0  0  0  0  0  0  0  0
    9.7528  -14.6192   24.7170 O   0  0  0  0  0  0  0  0  0  0  0  0
  2  3  1  0
  2  1  1  0
  3  4  1  6
  5  3  1  0
  5  6  2  0
  8  7  1  6
  8 10  1  0
  9  8  1  0
 10 11  1  6
 10 12  1  0
 11  5  1  0
 12 13  2  0
 12 17  1  0
 14 15  1  0
 16 15  1  6
 16 18  1  0
 17 16  1  0
 18 20  2  0
 18 19  1  0
M  END
$$$$
