SVS.pdb
     RDKit          3D

 20 19  0  0  1  0  0  0  0  0999 V2000
    7.6052  -19.6036   16.9080 O   0  0  0  0  0  0  0  0  0  0  0  0
    7.6171  -18.5858   17.8559 C   0  0  0  0  0  0  0  0  0  0  0  0
    8.1323  -17.2997   17.2525 C   0  0  2  0  0  0  0  0  0  0  0  0
    9.0974  -17.5983   16.2326 N   0  0  0  0  0  0  0  0  0  0  0  0
    8.7612  -16.4323   18.2947 C   0  0  0  0  0  0  0  0  0  0  0  0
    9.9926  -16.2803   18.3023 O   0  0  0  0  0  0  0  0  0  0  0  0
    7.1624  -12.9085   19.8225 C   0  0  0  0  0  0  0  0  0  0  0  0
    7.5809  -13.8957   20.8556 C   0  0  2  0  0  0  0  0  0  0  0  0
    8.1774  -13.2011   22.0840 C   0  0  0  0  0  0  0  0  0  0  0  0
    8.4590  -15.0164   20.3855 C   0  0  2  0  0  0  0  0  0  0  0  0
    7.9865  -15.7697   19.2866 N   0  0  0  0  0  0  0  0  0  0  0  0
    8.9473  -15.8090   21.5491 C   0  0  0  0  0  0  0  0  0  0  0  0
    8.1761  -16.6773   22.0775 O   0  0  0  0  0  0  0  0  0  0  0  0
   12.6281  -17.2329   21.9695 O   0  0  0  0  0  0  0  0  0  0  0  0
   12.1727  -16.7483   23.1933 C   0  0  0  0  0  0  0  0  0  0  0  0
   10.6698  -16.5952   23.2065 C   0  0  2  0  0  0  0  0  0  0  0  0
   10.2211  -15.6905   22.1507 N   0  0  0  0  0  0  0  0  0  0  0  0
   10.2456  -16.0437   24.5002 C   0  0  0  0  0  0  0  0  0  0  0  0
    9.6076  -14.8291   24.5660 O   0  0  0  0  0  0  0  0  0  0  0  0
   10.4666  -16.6834   25.5466 O   0  0  0  0  0  0  0  0  0  0  0  0
  2  3  1  0
  2  1  1  0
  3  4  1  6
  5  3  1  0
  5  6  2  0
  8  7  1  6
  8 10  1  0
  9  8  1  0
 10 11  1  6
 10 12  1  0
 11  5  1  0
 12 13  2  0
 12 17  1  0
 14 15  1  0
 16 15  1  1
 16 18  1  0
 17 16  1  0
 18 20  2  0
 18 19  1  0
M  END
$$$$
