SVS.pdb
     RDKit          3D

 20 19  0  0  1  0  0  0  0  0999 V2000
    8.4763  -17.3729   14.9929 O   0  0  0  0  0  0  0  0  0  0  0  0
    9.3038  -16.9463   16.0263 C   0  0  0  0  0  0  0  0  0  0  0  0
    8.9258  -17.6189   17.3257 C   0  0  2  0  0  0  0  0  0  0  0  0
    7.5005  -17.7772   17.3899 N   0  0  0  0  0  0  0  0  0  0  0  0
    9.3914  -16.8189   18.4992 C   0  0  0  0  0  0  0  0  0  0  0  0
   10.6077  -16.6771   18.6990 O   0  0  0  0  0  0  0  0  0  0  0  0
    7.2873  -13.4650   19.8640 C   0  0  0  0  0  0  0  0  0  0  0  0
    7.7483  -14.3989   20.9282 C   0  0  2  0  0  0  0  0  0  0  0  0
    8.1735  -13.6423   22.1907 C   0  0  0  0  0  0  0  0  0  0  0  0
    8.7825  -15.4066   20.5246 C   0  0  2  0  0  0  0  0  0  0  0  0
    8.4768  -16.2096   19.4022 N   0  0  0  0  0  0  0  0  0  0  0  0
    9.2836  -16.1365   21.7232 C   0  0  0  0  0  0  0  0  0  0  0  0
    8.5128  -16.9634   22.3148 O   0  0  0  0  0  0  0  0  0  0  0  0
   13.1626  -15.7416   23.3134 O   0  0  0  0  0  0  0  0  0  0  0  0
   12.5583  -16.9963   23.3260 C   0  0  0  0  0  0  0  0  0  0  0  0
   11.0516  -16.8880   23.3484 C   0  0  2  0  0  0  0  0  0  0  0  0
   10.5696  -15.9991   22.2940 N   0  0  0  0  0  0  0  0  0  0  0  0
   10.6193  -16.3469   24.6439 C   0  0  0  0  0  0  0  0  0  0  0  0
   10.8400  -17.0499   25.8030 O   0  0  0  0  0  0  0  0  0  0  0  0
   10.0475  -15.2407   24.6912 O   0  0  0  0  0  0  0  0  0  0  0  0
  2  3  1  0
  2  1  1  0
  3  4  1  1
  5  3  1  0
  5  6  2  0
  8  7  1  6
  8 10  1  0
  9  8  1  0
 10 11  1  6
 10 12  1  0
 11  5  1  0
 12 13  2  0
 12 17  1  0
 14 15  1  0
 16 15  1  1
 16 18  1  0
 17 16  1  0
 18 20  2  0
 18 19  1  0
M  END
$$$$
