SVS.pdb
     RDKit          3D

 20 19  0  0  1  0  0  0  0  0999 V2000
    7.6071  -17.4346   22.3871 O   0  0  0  0  0  0  0  0  0  0  0  0
    6.7108  -16.4882   21.9018 C   0  0  0  0  0  0  0  0  0  0  0  0
    7.3792  -15.1398   21.7655 C   0  0  2  0  0  0  0  0  0  0  0  0
    8.3357  -15.1817   20.6958 N   0  0  0  0  0  0  0  0  0  0  0  0
    8.0675  -14.7516   23.0341 C   0  0  0  0  0  0  0  0  0  0  0  0
    9.2951  -14.9012   23.1345 O   0  0  0  0  0  0  0  0  0  0  0  0
    6.5138  -11.7730   25.6200 C   0  0  0  0  0  0  0  0  0  0  0  0
    7.0261  -13.0059   26.2792 C   0  0  2  0  0  0  0  0  0  0  0  0
    7.7328  -12.6820   27.5994 C   0  0  0  0  0  0  0  0  0  0  0  0
    7.8577  -13.9174   25.4274 C   0  0  2  0  0  0  0  0  0  0  0  0
    7.3541  -14.2113   24.1397 N   0  0  0  0  0  0  0  0  0  0  0  0
    8.3149  -15.0903   26.2248 C   0  0  0  0  0  0  0  0  0  0  0  0
    7.4846  -16.0211   26.4935 O   0  0  0  0  0  0  0  0  0  0  0  0
   12.1538  -16.4139   26.4723 O   0  0  0  0  0  0  0  0  0  0  0  0
   11.0914  -17.2415   26.8275 C   0  0  0  0  0  0  0  0  0  0  0  0
    9.9861  -16.4673   27.5066 C   0  0  2  0  0  0  0  0  0  0  0  0
    9.6193  -15.2822   26.7350 N   0  0  0  0  0  0  0  0  0  0  0  0
   10.4379  -16.0332   28.8353 C   0  0  0  0  0  0  0  0  0  0  0  0
   10.8234  -16.9552   29.7775 O   0  0  0  0  0  0  0  0  0  0  0  0
   10.4716  -14.8180   29.1095 O   0  0  0  0  0  0  0  0  0  0  0  0
  2  3  1  0
  2  1  1  0
  3  4  1  6
  5  3  1  0
  5  6  2  0
  8  7  1  6
  8 10  1  0
  9  8  1  0
 10 11  1  6
 10 12  1  0
 11  5  1  0
 12 13  2  0
 12 17  1  0
 14 15  1  0
 16 15  1  6
 16 18  1  0
 17 16  1  0
 18 20  2  0
 18 19  1  0
M  END
$$$$
