SVS.pdb
     RDKit          3D

 20 19  0  0  1  0  0  0  0  0999 V2000
    9.0024  -18.1910   16.2735 O   0  0  0  0  0  0  0  0  0  0  0  0
    7.9763  -17.3613   15.8339 C   0  0  0  0  0  0  0  0  0  0  0  0
    8.4893  -15.9611   15.5890 C   0  0  2  0  0  0  0  0  0  0  0  0
    9.4535  -15.9800   14.5256 N   0  0  0  0  0  0  0  0  0  0  0  0
    9.1186  -15.3970   16.8217 C   0  0  0  0  0  0  0  0  0  0  0  0
   10.3520  -15.2743   16.8776 O   0  0  0  0  0  0  0  0  0  0  0  0
    7.3104  -12.4545   19.1815 C   0  0  0  0  0  0  0  0  0  0  0  0
    7.8828  -13.6008   19.9401 C   0  0  2  0  0  0  0  0  0  0  0  0
    8.5101  -13.1407   21.2600 C   0  0  0  0  0  0  0  0  0  0  0  0
    8.8117  -14.5009   19.1820 C   0  0  2  0  0  0  0  0  0  0  0  0
    8.3420  -14.9928   17.9428 N   0  0  0  0  0  0  0  0  0  0  0  0
    9.4032  -15.5171   20.0974 C   0  0  0  0  0  0  0  0  0  0  0  0
    8.7001  -16.5228   20.4471 O   0  0  0  0  0  0  0  0  0  0  0  0
   13.3482  -15.4418   21.7466 O   0  0  0  0  0  0  0  0  0  0  0  0
   12.7413  -16.6377   21.3709 C   0  0  0  0  0  0  0  0  0  0  0  0
   11.2365  -16.5544   21.4741 C   0  0  2  0  0  0  0  0  0  0  0  0
   10.7081  -15.4777   20.6399 N   0  0  0  0  0  0  0  0  0  0  0  0
   10.8556  -16.2897   22.8679 C   0  0  0  0  0  0  0  0  0  0  0  0
   11.1320  -17.2057   23.8533 O   0  0  0  0  0  0  0  0  0  0  0  0
   10.2768  -15.2249   23.1584 O   0  0  0  0  0  0  0  0  0  0  0  0
  2  3  1  0
  2  1  1  0
  3  4  1  6
  5  3  1  0
  5  6  2  0
  8  7  1  6
  8 10  1  0
  9  8  1  0
 10 11  1  6
 10 12  1  0
 11  5  1  0
 12 13  2  0
 12 17  1  0
 14 15  1  0
 16 15  1  1
 16 18  1  0
 17 16  1  0
 18 20  2  0
 18 19  1  0
M  END
$$$$
