SVS.pdb
     RDKit          3D

 20 19  0  0  1  0  0  0  0  0999 V2000
    7.8186  -19.5222   18.8481 O   0  0  0  0  0  0  0  0  0  0  0  0
    7.0160  -18.6295   18.1456 C   0  0  0  0  0  0  0  0  0  0  0  0
    7.8484  -17.5188   17.5482 C   0  0  2  0  0  0  0  0  0  0  0  0
    8.8693  -18.0793   16.7089 N   0  0  0  0  0  0  0  0  0  0  0  0
    8.4827  -16.6892   18.6175 C   0  0  0  0  0  0  0  0  0  0  0  0
    9.6841  -16.8486   18.8835 O   0  0  0  0  0  0  0  0  0  0  0  0
    7.1070  -12.7958   19.4434 C   0  0  0  0  0  0  0  0  0  0  0  0
    7.4380  -13.6222   20.6369 C   0  0  2  0  0  0  0  0  0  0  0  0
    8.0867  -12.7785   21.7391 C   0  0  0  0  0  0  0  0  0  0  0  0
    8.2207  -14.8750   20.3804 C   0  0  2  0  0  0  0  0  0  0  0  0
    7.7469  -15.7143   19.3463 N   0  0  0  0  0  0  0  0  0  0  0  0
    8.5394  -15.5542   21.6679 C   0  0  0  0  0  0  0  0  0  0  0  0
    7.6101  -16.1607   22.2975 O   0  0  0  0  0  0  0  0  0  0  0  0
   10.6296  -19.0611   23.2239 O   0  0  0  0  0  0  0  0  0  0  0  0
   10.2575  -18.0023   22.3990 C   0  0  0  0  0  0  0  0  0  0  0  0
   10.2181  -16.6951   23.1553 C   0  0  2  0  0  0  0  0  0  0  0  0
    9.8100  -15.5937   22.2865 N   0  0  0  0  0  0  0  0  0  0  0  0
   11.5552  -16.3960   23.6850 C   0  0  0  0  0  0  0  0  0  0  0  0
   12.2665  -15.3181   23.2173 O   0  0  0  0  0  0  0  0  0  0  0  0
   12.0480  -17.1265   24.5662 O   0  0  0  0  0  0  0  0  0  0  0  0
  2  3  1  0
  2  1  1  0
  3  4  1  6
  5  3  1  0
  5  6  2  0
  8  7  1  6
  8 10  1  0
  9  8  1  0
 10 11  1  6
 10 12  1  0
 11  5  1  0
 12 13  2  0
 12 17  1  0
 14 15  1  0
 16 15  1  6
 16 18  1  0
 17 16  1  0
 18 20  2  0
 18 19  1  0
M  END
$$$$
