SVS.pdb
     RDKit          3D

 20 19  0  0  1  0  0  0  0  0999 V2000
    5.9521  -16.5120   20.1832 O   0  0  0  0  0  0  0  0  0  0  0  0
    6.7363  -16.1894   21.2857 C   0  0  0  0  0  0  0  0  0  0  0  0
    6.9819  -14.6997   21.3492 C   0  0  2  0  0  0  0  0  0  0  0  0
    7.7263  -14.2841   20.1944 N   0  0  0  0  0  0  0  0  0  0  0  0
    7.7357  -14.3325   22.5864 C   0  0  0  0  0  0  0  0  0  0  0  0
    8.9748  -14.3966   22.5894 O   0  0  0  0  0  0  0  0  0  0  0  0
    6.3436  -11.6718   25.6064 C   0  0  0  0  0  0  0  0  0  0  0  0
    6.8272  -13.0034   26.0643 C   0  0  2  0  0  0  0  0  0  0  0  0
    7.5624  -12.9011   27.4046 C   0  0  0  0  0  0  0  0  0  0  0  0
    7.6182  -13.8001   25.0705 C   0  0  2  0  0  0  0  0  0  0  0  0
    7.0725  -13.9082   23.7710 N   0  0  0  0  0  0  0  0  0  0  0  0
    8.0787  -15.0769   25.6855 C   0  0  0  0  0  0  0  0  0  0  0  0
    7.2428  -16.0279   25.8431 O   0  0  0  0  0  0  0  0  0  0  0  0
   11.4775  -18.3785   26.3338 O   0  0  0  0  0  0  0  0  0  0  0  0
   11.0128  -17.1663   25.8297 C   0  0  0  0  0  0  0  0  0  0  0  0
    9.7986  -16.6785   26.5848 C   0  0  2  0  0  0  0  0  0  0  0  0
    9.3921  -15.3506   26.1311 N   0  0  0  0  0  0  0  0  0  0  0  0
   10.1118  -16.6025   28.0179 C   0  0  0  0  0  0  0  0  0  0  0  0
   10.2704  -17.7475   28.7597 O   0  0  0  0  0  0  0  0  0  0  0  0
   10.2346  -15.4895   28.5651 O   0  0  0  0  0  0  0  0  0  0  0  0
  2  3  1  0
  2  1  1  0
  3  4  1  6
  5  3  1  0
  5  6  2  0
  8  7  1  6
  8 10  1  0
  9  8  1  0
 10 11  1  6
 10 12  1  0
 11  5  1  0
 12 13  2  0
 12 17  1  0
 14 15  1  0
 16 15  1  6
 16 18  1  0
 17 16  1  0
 18 20  2  0
 18 19  1  0
M  END
$$$$
