SVS.pdb
     RDKit          3D

 20 19  0  0  1  0  0  0  0  0999 V2000
    6.3532  -19.0440   25.4131 O   0  0  0  0  0  0  0  0  0  0  0  0
    6.2468  -18.9804   24.0277 C   0  0  0  0  0  0  0  0  0  0  0  0
    5.8836  -17.5825   23.5834 C   0  0  2  0  0  0  0  0  0  0  0  0
    5.8388  -17.5286   22.1496 N   0  0  0  0  0  0  0  0  0  0  0  0
    6.8749  -16.5844   24.0886 C   0  0  0  0  0  0  0  0  0  0  0  0
    7.9839  -16.4922   23.5399 O   0  0  0  0  0  0  0  0  0  0  0  0
    5.8177  -12.8855   25.8046 C   0  0  0  0  0  0  0  0  0  0  0  0
    6.8222  -13.6818   26.5622 C   0  0  2  0  0  0  0  0  0  0  0  0
    7.8771  -12.7799   27.2110 C   0  0  0  0  0  0  0  0  0  0  0  0
    7.4605  -14.8200   25.8240 C   0  0  2  0  0  0  0  0  0  0  0  0
    6.5851  -15.7294   25.1877 N   0  0  0  0  0  0  0  0  0  0  0  0
    8.5354  -15.4325   26.6546 C   0  0  0  0  0  0  0  0  0  0  0  0
    8.2124  -16.1913   27.6282 O   0  0  0  0  0  0  0  0  0  0  0  0
   12.6586  -15.0636   25.8573 O   0  0  0  0  0  0  0  0  0  0  0  0
   12.1539  -16.2652   26.3484 C   0  0  0  0  0  0  0  0  0  0  0  0
   10.9166  -16.0476   27.1873 C   0  0  2  0  0  0  0  0  0  0  0  0
    9.9250  -15.2496   26.4700 N   0  0  0  0  0  0  0  0  0  0  0  0
   11.2801  -15.3358   28.4198 C   0  0  0  0  0  0  0  0  0  0  0  0
   12.1716  -15.8870   29.3074 O   0  0  0  0  0  0  0  0  0  0  0  0
   10.7753  -14.2224   28.6617 O   0  0  0  0  0  0  0  0  0  0  0  0
  2  3  1  0
  2  1  1  0
  3  4  1  6
  5  3  1  0
  5  6  2  0
  8  7  1  6
  8 10  1  0
  9  8  1  0
 10 11  1  1
 10 12  1  0
 11  5  1  0
 12 13  2  0
 12 17  1  0
 14 15  1  0
 16 15  1  6
 16 18  1  0
 17 16  1  0
 18 20  2  0
 18 19  1  0
M  END
$$$$
