VLK.pdb
     RDKit          3D

 25 24  0  0  1  0  0  0  0  0999 V2000
   24.0971  -21.5285   -7.3725 C   0  0  0  0  0  0  0  0  0  0  0  0
   24.0820  -21.2020   -8.8285 C   0  0  1  0  0  0  0  0  0  0  0  0
   23.1039  -20.0769   -9.0709 C   0  0  0  0  0  0  0  0  0  0  0  0
   25.4153  -20.7772   -9.3900 C   0  0  2  0  0  0  0  0  0  0  0  0
   25.8954  -19.7154   -8.5112 N   0  0  0  0  0  0  0  0  0  0  0  0
   25.3927  -20.3035  -10.7656 C   0  0  0  0  0  0  0  0  0  0  0  0
   25.0438  -19.0898  -10.9670 O   0  0  0  0  0  0  0  0  0  0  0  0
   28.2334  -19.0443  -14.2820 C   0  0  0  0  0  0  0  0  0  0  0  0
   28.1968  -20.4722  -13.6912 C   0  0  2  0  0  0  0  0  0  0  0  0
   29.2902  -21.2362  -14.3987 C   0  0  0  0  0  0  0  0  0  0  0  0
   26.8674  -21.0569  -13.9533 C   0  0  0  0  0  0  0  0  0  0  0  0
   25.6827  -20.4722  -13.2800 C   0  0  2  0  0  0  0  0  0  0  0  0
   25.7151  -21.0389  -11.9088 N   0  0  0  0  0  0  0  0  0  0  0  0
   24.3729  -20.7557  -13.8977 C   0  0  0  0  0  0  0  0  0  0  0  0
   23.7979  -21.8921  -13.7541 O   0  0  0  0  0  0  0  0  0  0  0  0
   23.6526  -19.8199  -14.6801 N   0  0  0  0  0  0  0  0  0  0  0  0
   22.3159  -20.1555  -15.2133 C   0  0  1  0  0  0  0  0  0  0  0  0
   21.5053  -18.8701  -15.3489 C   0  0  0  0  0  0  0  0  0  0  0  0
   20.1553  -19.0932  -15.9518 C   0  0  0  0  0  0  0  0  0  0  0  0
   19.4438  -17.7916  -16.2197 C   0  0  0  0  0  0  0  0  0  0  0  0
   18.1038  -17.9903  -16.8853 C   0  0  0  0  0  0  0  0  0  0  0  0
   17.5125  -16.6514  -17.0645 N   0  0  0  0  0  0  0  0  0  0  0  0
   22.5470  -20.8311  -16.5046 C   0  0  0  0  0  0  0  0  0  0  0  0
   21.6514  -21.7476  -17.0360 O   0  0  0  0  0  0  0  0  0  0  0  0
   23.5901  -20.6142  -17.2149 O   0  0  0  0  0  0  0  0  0  0  0  0
  2  1  1  1
  3  2  1  0
  4  2  1  0
  4  6  1  0
  4  5  1  1
  6  7  2  0
  9  8  1  6
 10  9  1  0
 11  9  1  0
 12 11  1  6
 13  6  1  0
 13 12  1  0
 14 12  1  0
 14 15  2  0
 16 14  1  0
 17 16  1  0
 18 19  1  0
 17 18  1  6
 20 19  1  0
 21 22  1  0
 21 20  1  0
 23 17  1  0
 24 23  1  0
 25 23  2  0
M  END
$$$$
