VLK.pdb
     RDKit          3D

 25 24  0  0  1  0  0  0  0  0999 V2000
   17.8723  -14.3987  -17.5726 C   0  0  0  0  0  0  0  0  0  0  0  0
   18.2304  -13.2337  -16.7116 C   0  0  1  0  0  0  0  0  0  0  0  0
   19.4993  -13.5511  -15.9562 C   0  0  0  0  0  0  0  0  0  0  0  0
   18.4553  -11.9451  -17.4614 C   0  0  2  0  0  0  0  0  0  0  0  0
   19.4213  -12.2596  -18.5094 N   0  0  0  0  0  0  0  0  0  0  0  0
   18.9438  -10.8325  -16.6611 C   0  0  0  0  0  0  0  0  0  0  0  0
   18.1383  -10.3163  -15.8125 O   0  0  0  0  0  0  0  0  0  0  0  0
   22.0574  -10.1953  -13.2851 C   0  0  0  0  0  0  0  0  0  0  0  0
   22.5082  -10.5153  -14.7286 C   0  0  2  0  0  0  0  0  0  0  0  0
   24.0106  -10.6529  -14.6674 C   0  0  0  0  0  0  0  0  0  0  0  0
   22.0990   -9.4029  -15.6079 C   0  0  0  0  0  0  0  0  0  0  0  0
   20.6531   -9.1556  -15.8236 C   0  0  2  0  0  0  0  0  0  0  0  0
   20.2153  -10.2564  -16.7175 N   0  0  0  0  0  0  0  0  0  0  0  0
   20.2945   -7.8588  -16.4299 C   0  0  0  0  0  0  0  0  0  0  0  0
   20.5026   -7.6211  -17.6720 O   0  0  0  0  0  0  0  0  0  0  0  0
   19.7008   -6.7917  -15.7120 N   0  0  0  0  0  0  0  0  0  0  0  0
   19.2326   -5.5797  -16.4159 C   0  0  1  0  0  0  0  0  0  0  0  0
   17.8310   -5.8394  -16.9598 C   0  0  0  0  0  0  0  0  0  0  0  0
   17.1985   -4.6187  -17.5479 C   0  0  0  0  0  0  0  0  0  0  0  0
   15.7964   -4.8948  -18.0276 C   0  0  0  0  0  0  0  0  0  0  0  0
   15.1460   -3.6810  -18.6454 C   0  0  0  0  0  0  0  0  0  0  0  0
   13.7414   -4.0393  -18.9155 N   0  0  0  0  0  0  0  0  0  0  0  0
   19.2739   -4.4876  -15.4246 C   0  0  0  0  0  0  0  0  0  0  0  0
   19.4029   -3.1554  -15.7895 O   0  0  0  0  0  0  0  0  0  0  0  0
   19.1945   -4.7019  -14.1647 O   0  0  0  0  0  0  0  0  0  0  0  0
  2  1  1  6
  3  2  1  0
  4  2  1  0
  4  6  1  0
  4  5  1  6
  6  7  2  0
  9  8  1  1
 10  9  1  0
 11  9  1  0
 12 11  1  6
 13  6  1  0
 13 12  1  0
 14 12  1  0
 14 15  2  0
 16 14  1  0
 17 16  1  0
 18 19  1  0
 17 18  1  1
 20 19  1  0
 21 22  1  0
 21 20  1  0
 23 17  1  0
 24 23  1  0
 25 23  2  0
M  END
$$$$
