VLK.pdb
     RDKit          3D

 25 24  0  0  1  0  0  0  0  0999 V2000
   24.5966  -26.8387  -17.6111 C   0  0  0  0  0  0  0  0  0  0  0  0
   23.8881  -26.0842  -16.5361 C   0  0  1  0  0  0  0  0  0  0  0  0
   23.9208  -26.8947  -15.2620 C   0  0  0  0  0  0  0  0  0  0  0  0
   24.4739  -24.7289  -16.2305 C   0  0  2  0  0  0  0  0  0  0  0  0
   25.8504  -24.9768  -15.8134 N   0  0  0  0  0  0  0  0  0  0  0  0
   23.7803  -23.9642  -15.2052 C   0  0  0  0  0  0  0  0  0  0  0  0
   24.2268  -24.0384  -14.0091 O   0  0  0  0  0  0  0  0  0  0  0  0
   20.6429  -18.8546  -15.0315 C   0  0  0  0  0  0  0  0  0  0  0  0
   21.0103  -20.0375  -14.1068 C   0  0  2  0  0  0  0  0  0  0  0  0
   21.8525  -19.4468  -13.0015 C   0  0  0  0  0  0  0  0  0  0  0  0
   21.7646  -21.0334  -14.8925 C   0  0  0  0  0  0  0  0  0  0  0  0
   22.0420  -22.3595  -14.2898 C   0  0  2  0  0  0  0  0  0  0  0  0
   22.6632  -23.1448  -15.3852 N   0  0  0  0  0  0  0  0  0  0  0  0
   20.8770  -23.0935  -13.7591 C   0  0  0  0  0  0  0  0  0  0  0  0
   19.9723  -23.5634  -14.5359 O   0  0  0  0  0  0  0  0  0  0  0  0
   20.6635  -23.3403  -12.3806 N   0  0  0  0  0  0  0  0  0  0  0  0
   19.5193  -24.1606  -11.9314 C   0  0  1  0  0  0  0  0  0  0  0  0
   19.6842  -24.4592  -10.4443 C   0  0  0  0  0  0  0  0  0  0  0  0
   18.5445  -25.2439   -9.8775 C   0  0  0  0  0  0  0  0  0  0  0  0
   18.7855  -25.6126   -8.4359 C   0  0  0  0  0  0  0  0  0  0  0  0
   17.5789  -26.2508   -7.7918 C   0  0  0  0  0  0  0  0  0  0  0  0
   17.9377  -26.5237   -6.3878 N   0  0  0  0  0  0  0  0  0  0  0  0
   18.3075  -23.3740  -12.2313 C   0  0  0  0  0  0  0  0  0  0  0  0
   18.2608  -21.9949  -12.0882 O   0  0  0  0  0  0  0  0  0  0  0  0
   17.2224  -23.9160  -12.6416 O   0  0  0  0  0  0  0  0  0  0  0  0
  2  1  1  6
  3  2  1  0
  4  2  1  0
  4  6  1  0
  4  5  1  1
  6  7  2  0
  9  8  1  6
 10  9  1  0
 11  9  1  0
 12 11  1  6
 13  6  1  0
 13 12  1  0
 14 12  1  0
 14 15  2  0
 16 14  1  0
 17 16  1  0
 18 19  1  0
 17 18  1  1
 20 19  1  0
 21 22  1  0
 21 20  1  0
 23 17  1  0
 24 23  1  0
 25 23  2  0
M  END
$$$$
