VLK.pdb
     RDKit          3D

 25 24  0  0  1  0  0  0  0  0999 V2000
   19.4830  -11.6041  -19.3204 C   0  0  0  0  0  0  0  0  0  0  0  0
   19.6680  -12.8115  -18.4631 C   0  0  1  0  0  0  0  0  0  0  0  0
   19.5663  -14.0478  -19.3249 C   0  0  0  0  0  0  0  0  0  0  0  0
   20.9878  -12.8686  -17.7363 C   0  0  2  0  0  0  0  0  0  0  0  0
   20.9853  -14.1339  -17.0088 N   0  0  0  0  0  0  0  0  0  0  0  0
   21.2422  -11.7724  -16.8141 C   0  0  0  0  0  0  0  0  0  0  0  0
   20.5599  -11.7390  -15.7330 O   0  0  0  0  0  0  0  0  0  0  0  0
   24.1971  -10.5165  -13.7723 C   0  0  0  0  0  0  0  0  0  0  0  0
   24.6276  -10.4333  -15.2545 C   0  0  2  0  0  0  0  0  0  0  0  0
   26.0848  -10.0381  -15.2360 C   0  0  0  0  0  0  0  0  0  0  0  0
   23.7971   -9.4177  -15.9304 C   0  0  0  0  0  0  0  0  0  0  0  0
   22.3313   -9.6278  -16.0080 C   0  0  2  0  0  0  0  0  0  0  0  0
   22.1640  -10.7358  -16.9810 N   0  0  0  0  0  0  0  0  0  0  0  0
   21.5264   -8.4690  -16.4403 C   0  0  0  0  0  0  0  0  0  0  0  0
   21.5221   -8.0755  -17.6600 O   0  0  0  0  0  0  0  0  0  0  0  0
   20.7058   -7.7116  -15.5687 N   0  0  0  0  0  0  0  0  0  0  0  0
   19.9256   -6.5642  -16.0772 C   0  0  1  0  0  0  0  0  0  0  0  0
   18.4400   -6.8923  -15.9628 C   0  0  0  0  0  0  0  0  0  0  0  0
   17.5594   -5.7259  -16.2789 C   0  0  0  0  0  0  0  0  0  0  0  0
   16.1016   -6.0650  -16.1002 C   0  0  0  0  0  0  0  0  0  0  0  0
   15.1895   -4.9340  -16.5090 C   0  0  0  0  0  0  0  0  0  0  0  0
   13.8138   -5.3562  -16.1870 N   0  0  0  0  0  0  0  0  0  0  0  0
   20.3247   -5.4022  -15.2602 C   0  0  0  0  0  0  0  0  0  0  0  0
   20.1916   -4.0961  -15.7084 O   0  0  0  0  0  0  0  0  0  0  0  0
   20.8203   -5.5273  -14.0862 O   0  0  0  0  0  0  0  0  0  0  0  0
  2  1  1  6
  3  2  1  0
  4  2  1  0
  4  6  1  0
  4  5  1  1
  6  7  2  0
  9  8  1  1
 10  9  1  0
 11  9  1  0
 12 11  1  6
 13  6  1  0
 13 12  1  0
 14 12  1  0
 14 15  2  0
 16 14  1  0
 17 16  1  0
 18 19  1  0
 17 18  1  1
 20 19  1  0
 21 22  1  0
 21 20  1  0
 23 17  1  0
 24 23  1  0
 25 23  2  0
M  END
$$$$
