VLK.pdb
     RDKit          3D

 25 24  0  0  1  0  0  0  0  0999 V2000
   28.4442  -17.9895  -16.8434 C   0  0  0  0  0  0  0  0  0  0  0  0
   27.7228  -19.0514  -16.0826 C   0  0  1  0  0  0  0  0  0  0  0  0
   28.3837  -19.2279  -14.7360 C   0  0  0  0  0  0  0  0  0  0  0  0
   26.2619  -18.7673  -15.8407 C   0  0  2  0  0  0  0  0  0  0  0  0
   26.2090  -17.4288  -15.2613 N   0  0  0  0  0  0  0  0  0  0  0  0
   25.5778  -19.7082  -14.9667 C   0  0  0  0  0  0  0  0  0  0  0  0
   25.3957  -20.8960  -15.4041 O   0  0  0  0  0  0  0  0  0  0  0  0
   26.3089  -21.9093  -11.0067 C   0  0  0  0  0  0  0  0  0  0  0  0
   26.0605  -20.3845  -10.9556 C   0  0  2  0  0  0  0  0  0  0  0  0
   26.2012  -19.9952   -9.5035 C   0  0  0  0  0  0  0  0  0  0  0  0
   24.7019  -20.1109  -11.4630 C   0  0  0  0  0  0  0  0  0  0  0  0
   24.3764  -20.4664  -12.8652 C   0  0  2  0  0  0  0  0  0  0  0  0
   25.0902  -19.4540  -13.6824 N   0  0  0  0  0  0  0  0  0  0  0  0
   22.9451  -20.4671  -13.2245 C   0  0  0  0  0  0  0  0  0  0  0  0
   22.2599  -19.3841  -13.2431 O   0  0  0  0  0  0  0  0  0  0  0  0
   22.2221  -21.6337  -13.5751 N   0  0  0  0  0  0  0  0  0  0  0  0
   20.7889  -21.5539  -13.9259 C   0  0  1  0  0  0  0  0  0  0  0  0
   20.3645  -22.8760  -14.5581 C   0  0  0  0  0  0  0  0  0  0  0  0
   18.9620  -22.8508  -15.0760 C   0  0  0  0  0  0  0  0  0  0  0  0
   18.6138  -24.1257  -15.8009 C   0  0  0  0  0  0  0  0  0  0  0  0
   17.2001  -24.1238  -16.3296 C   0  0  0  0  0  0  0  0  0  0  0  0
   17.0109  -25.3969  -17.0493 N   0  0  0  0  0  0  0  0  0  0  0  0
   20.0745  -21.2596  -12.6688 C   0  0  0  0  0  0  0  0  0  0  0  0
   18.9524  -20.4451  -12.6233 O   0  0  0  0  0  0  0  0  0  0  0  0
   20.4470  -21.7371  -11.5406 O   0  0  0  0  0  0  0  0  0  0  0  0
  2  1  1  1
  3  2  1  0
  4  2  1  0
  4  6  1  0
  4  5  1  1
  6  7  2  0
  9  8  1  1
 10  9  1  0
 11  9  1  0
 12 11  1  1
 13  6  1  0
 13 12  1  0
 14 12  1  0
 14 15  2  0
 16 14  1  0
 17 16  1  0
 18 19  1  0
 17 18  1  1
 20 19  1  0
 21 22  1  0
 21 20  1  0
 23 17  1  0
 24 23  1  0
 25 23  2  0
M  END
$$$$
