VLK.pdb
     RDKit          3D

 25 24  0  0  1  0  0  0  0  0999 V2000
   20.8186  -12.3737  -22.0835 C   0  0  0  0  0  0  0  0  0  0  0  0
   20.9823  -11.7537  -20.7361 C   0  0  1  0  0  0  0  0  0  0  0  0
   19.6329  -11.2916  -20.2392 C   0  0  0  0  0  0  0  0  0  0  0  0
   21.5648  -12.6704  -19.6903 C   0  0  2  0  0  0  0  0  0  0  0  0
   20.6719  -13.8235  -19.6322 N   0  0  0  0  0  0  0  0  0  0  0  0
   21.7087  -12.0934  -18.3624 C   0  0  0  0  0  0  0  0  0  0  0  0
   20.6805  -12.0965  -17.6020 O   0  0  0  0  0  0  0  0  0  0  0  0
   24.0564  -13.2963  -14.7934 C   0  0  0  0  0  0  0  0  0  0  0  0
   24.8414  -12.5706  -15.9098 C   0  0  2  0  0  0  0  0  0  0  0  0
   26.2882  -12.6006  -15.4788 C   0  0  0  0  0  0  0  0  0  0  0  0
   24.3352  -11.1888  -16.0203 C   0  0  0  0  0  0  0  0  0  0  0  0
   22.9302  -10.9727  -16.4423 C   0  0  2  0  0  0  0  0  0  0  0  0
   22.8638  -11.5274  -17.8172 N   0  0  0  0  0  0  0  0  0  0  0  0
   22.4582   -9.5746  -16.4535 C   0  0  0  0  0  0  0  0  0  0  0  0
   22.8421   -8.7465  -17.3533 O   0  0  0  0  0  0  0  0  0  0  0  0
   21.5596   -9.0395  -15.4981 N   0  0  0  0  0  0  0  0  0  0  0  0
   21.0350   -7.6658  -15.6450 C   0  0  1  0  0  0  0  0  0  0  0  0
   19.5349   -7.7401  -15.9131 C   0  0  0  0  0  0  0  0  0  0  0  0
   18.8940   -6.3932  -16.0176 C   0  0  0  0  0  0  0  0  0  0  0  0
   17.4051   -6.5003  -16.2270 C   0  0  0  0  0  0  0  0  0  0  0  0
   16.7407   -5.1518  -16.3623 C   0  0  0  0  0  0  0  0  0  0  0  0
   15.3291   -5.4032  -16.7066 N   0  0  0  0  0  0  0  0  0  0  0  0
   21.3629   -6.9647  -14.3888 C   0  0  0  0  0  0  0  0  0  0  0  0
   21.4917   -5.5853  -14.3179 O   0  0  0  0  0  0  0  0  0  0  0  0
   21.5503   -7.5866  -13.2853 O   0  0  0  0  0  0  0  0  0  0  0  0
  2  1  1  6
  3  2  1  0
  4  2  1  0
  4  6  1  0
  4  5  1  1
  6  7  2  0
  9  8  1  1
 10  9  1  0
 11  9  1  0
 12 11  1  6
 13  6  1  0
 13 12  1  0
 14 12  1  0
 14 15  2  0
 16 14  1  0
 17 16  1  0
 18 19  1  0
 17 18  1  1
 20 19  1  0
 21 22  1  0
 21 20  1  0
 23 17  1  0
 24 23  1  0
 25 23  2  0
M  END
$$$$
