VLK.pdb
     RDKit          3D

 25 24  0  0  1  0  0  0  0  0999 V2000
   15.0673  -13.7798  -17.4712 C   0  0  0  0  0  0  0  0  0  0  0  0
   15.4519  -12.3473  -17.6344 C   0  0  1  0  0  0  0  0  0  0  0  0
   14.2497  -11.4788  -17.3484 C   0  0  0  0  0  0  0  0  0  0  0  0
   16.5701  -11.8911  -16.7317 C   0  0  2  0  0  0  0  0  0  0  0  0
   16.1573  -12.2478  -15.3780 N   0  0  0  0  0  0  0  0  0  0  0  0
   16.8832  -10.4715  -16.7916 C   0  0  0  0  0  0  0  0  0  0  0  0
   17.5214  -10.0497  -17.8164 O   0  0  0  0  0  0  0  0  0  0  0  0
   14.6750   -5.2502  -14.7819 C   0  0  0  0  0  0  0  0  0  0  0  0
   15.9709   -5.8288  -15.3943 C   0  0  2  0  0  0  0  0  0  0  0  0
   16.0447   -5.2733  -16.7964 C   0  0  0  0  0  0  0  0  0  0  0  0
   15.8745   -7.3014  -15.3969 C   0  0  0  0  0  0  0  0  0  0  0  0
   17.0140   -8.0924  -15.9211 C   0  0  2  0  0  0  0  0  0  0  0  0
   16.5586   -9.5025  -15.8389 N   0  0  0  0  0  0  0  0  0  0  0  0
   18.2956   -7.9477  -15.2040 C   0  0  0  0  0  0  0  0  0  0  0  0
   18.5116   -8.5487  -14.0928 O   0  0  0  0  0  0  0  0  0  0  0  0
   19.3733   -7.1556  -15.6705 N   0  0  0  0  0  0  0  0  0  0  0  0
   20.7119   -7.2684  -15.0547 C   0  0  1  0  0  0  0  0  0  0  0  0
   21.3700   -8.5547  -15.5446 C   0  0  0  0  0  0  0  0  0  0  0  0
   22.7418   -8.7574  -14.9850 C   0  0  0  0  0  0  0  0  0  0  0  0
   23.3080  -10.0995  -15.3726 C   0  0  0  0  0  0  0  0  0  0  0  0
   24.6571  -10.3611  -14.7486 C   0  0  0  0  0  0  0  0  0  0  0  0
   25.0563  -11.7232  -15.1483 N   0  0  0  0  0  0  0  0  0  0  0  0
   21.4503   -6.0544  -15.4524 C   0  0  0  0  0  0  0  0  0  0  0  0
   22.4951   -5.5384  -14.6996 O   0  0  0  0  0  0  0  0  0  0  0  0
   21.1715   -5.4004  -16.5173 O   0  0  0  0  0  0  0  0  0  0  0  0
  2  1  1  1
  3  2  1  0
  4  2  1  0
  4  6  1  0
  4  5  1  1
  6  7  2  0
  9  8  1  6
 10  9  1  0
 11  9  1  0
 12 11  1  1
 13  6  1  0
 13 12  1  0
 14 12  1  0
 14 15  2  0
 16 14  1  0
 17 16  1  0
 18 19  1  0
 17 18  1  6
 20 19  1  0
 21 22  1  0
 21 20  1  0
 23 17  1  0
 24 23  1  0
 25 23  2  0
M  END
$$$$
