VLK.pdb
     RDKit          3D

 25 24  0  0  1  0  0  0  0  0999 V2000
   23.6990  -10.3011  -16.0989 C   0  0  0  0  0  0  0  0  0  0  0  0
   22.8437  -11.4431  -16.5362 C   0  0  1  0  0  0  0  0  0  0  0  0
   23.7085  -12.6697  -16.7057 C   0  0  0  0  0  0  0  0  0  0  0  0
   21.7322  -11.7963  -15.5805 C   0  0  2  0  0  0  0  0  0  0  0  0
   21.0261  -12.9183  -16.1910 N   0  0  0  0  0  0  0  0  0  0  0  0
   20.7925  -10.7243  -15.2897 C   0  0  0  0  0  0  0  0  0  0  0  0
   19.9497  -10.4139  -16.2002 O   0  0  0  0  0  0  0  0  0  0  0  0
   17.7034   -8.4518  -10.7519 C   0  0  0  0  0  0  0  0  0  0  0  0
   18.1613   -8.0379  -12.1689 C   0  0  2  0  0  0  0  0  0  0  0  0
   16.9001   -7.9337  -12.9926 C   0  0  0  0  0  0  0  0  0  0  0  0
   19.0692   -9.0765  -12.6932 C   0  0  0  0  0  0  0  0  0  0  0  0
   19.8188   -8.8071  -13.9439 C   0  0  2  0  0  0  0  0  0  0  0  0
   20.7072   -9.9846  -14.1076 N   0  0  0  0  0  0  0  0  0  0  0  0
   20.6287   -7.5738  -13.9683 C   0  0  0  0  0  0  0  0  0  0  0  0
   21.6892   -7.4561  -13.2583 O   0  0  0  0  0  0  0  0  0  0  0  0
   20.3157   -6.4423  -14.7611 N   0  0  0  0  0  0  0  0  0  0  0  0
   21.2177   -5.2722  -14.7918 C   0  0  1  0  0  0  0  0  0  0  0  0
   21.3948   -4.8277  -16.2405 C   0  0  0  0  0  0  0  0  0  0  0  0
   22.2103   -3.5813  -16.3722 C   0  0  0  0  0  0  0  0  0  0  0  0
   22.2860   -3.1147  -17.8036 C   0  0  0  0  0  0  0  0  0  0  0  0
   22.9957   -1.7901  -17.9443 C   0  0  0  0  0  0  0  0  0  0  0  0
   22.8644   -1.3823  -19.3553 N   0  0  0  0  0  0  0  0  0  0  0  0
   20.5839   -4.2430  -13.9455 C   0  0  0  0  0  0  0  0  0  0  0  0
   19.2098   -4.1655  -13.7709 O   0  0  0  0  0  0  0  0  0  0  0  0
   21.2633   -3.3560  -13.3201 O   0  0  0  0  0  0  0  0  0  0  0  0
  2  1  1  1
  3  2  1  0
  4  2  1  0
  4  6  1  0
  4  5  1  6
  6  7  2  0
  9  8  1  1
 10  9  1  0
 11  9  1  0
 12 11  1  1
 13  6  1  0
 13 12  1  0
 14 12  1  0
 14 15  2  0
 16 14  1  0
 17 16  1  0
 18 19  1  0
 17 18  1  6
 20 19  1  0
 21 22  1  0
 21 20  1  0
 23 17  1  0
 24 23  1  0
 25 23  2  0
M  END
$$$$
