VLK.pdb
     RDKit          3D

 25 24  0  0  1  0  0  0  0  0999 V2000
   23.8336  -20.6034   -8.9111 C   0  0  0  0  0  0  0  0  0  0  0  0
   24.9121  -20.2171   -9.8673 C   0  0  1  0  0  0  0  0  0  0  0  0
   26.2070  -20.8646   -9.4371 C   0  0  0  0  0  0  0  0  0  0  0  0
   24.6548  -20.6168  -11.2982 C   0  0  2  0  0  0  0  0  0  0  0  0
   24.5425  -22.0720  -11.2891 N   0  0  0  0  0  0  0  0  0  0  0  0
   25.6724  -20.2087  -12.2546 C   0  0  0  0  0  0  0  0  0  0  0  0
   25.6604  -18.9917  -12.6472 O   0  0  0  0  0  0  0  0  0  0  0  0
   29.9909  -19.6017  -12.0028 C   0  0  0  0  0  0  0  0  0  0  0  0
   29.5201  -21.0680  -12.1350 C   0  0  2  0  0  0  0  0  0  0  0  0
   30.7602  -21.9129  -11.9668 C   0  0  0  0  0  0  0  0  0  0  0  0
   28.9144  -21.2503  -13.4684 C   0  0  0  0  0  0  0  0  0  0  0  0
   27.6652  -20.5204  -13.7930 C   0  0  2  0  0  0  0  0  0  0  0  0
   26.6772  -21.0114  -12.8003 N   0  0  0  0  0  0  0  0  0  0  0  0
   27.1301  -20.7128  -15.1547 C   0  0  0  0  0  0  0  0  0  0  0  0
   26.6403  -21.8368  -15.5280 O   0  0  0  0  0  0  0  0  0  0  0  0
   27.1078  -19.6975  -16.1423 N   0  0  0  0  0  0  0  0  0  0  0  0
   26.3586  -19.8890  -17.4016 C   0  0  1  0  0  0  0  0  0  0  0  0
   24.9618  -19.2981  -17.2357 C   0  0  0  0  0  0  0  0  0  0  0  0
   24.1364  -19.3950  -18.4788 C   0  0  0  0  0  0  0  0  0  0  0  0
   22.7832  -18.7557  -18.2993 C   0  0  0  0  0  0  0  0  0  0  0  0
   21.9138  -18.8858  -19.5261 C   0  0  0  0  0  0  0  0  0  0  0  0
   20.5916  -18.3362  -19.1736 N   0  0  0  0  0  0  0  0  0  0  0  0
   27.1472  -19.2199  -18.4541 C   0  0  0  0  0  0  0  0  0  0  0  0
   27.1925  -19.6858  -19.7600 O   0  0  0  0  0  0  0  0  0  0  0  0
   27.8402  -18.1675  -18.2269 O   0  0  0  0  0  0  0  0  0  0  0  0
  2  1  1  1
  3  2  1  0
  4  2  1  0
  4  6  1  0
  4  5  1  1
  6  7  2  0
  9  8  1  6
 10  9  1  0
 11  9  1  0
 12 11  1  6
 13  6  1  0
 13 12  1  0
 14 12  1  0
 14 15  2  0
 16 14  1  0
 17 16  1  0
 18 19  1  0
 17 18  1  1
 20 19  1  0
 21 22  1  0
 21 20  1  0
 23 17  1  0
 24 23  1  0
 25 23  2  0
M  END
$$$$
