VLK.pdb
     RDKit          3D

 25 24  0  0  1  0  0  0  0  0999 V2000
   25.5069  -17.6264  -16.8046 C   0  0  0  0  0  0  0  0  0  0  0  0
   26.5445  -17.2632  -15.7955 C   0  0  1  0  0  0  0  0  0  0  0  0
   25.9332  -16.3354  -14.7723 C   0  0  0  0  0  0  0  0  0  0  0  0
   27.1358  -18.4352  -15.0538 C   0  0  2  0  0  0  0  0  0  0  0  0
   27.9373  -19.1611  -16.0340 N   0  0  0  0  0  0  0  0  0  0  0  0
   26.1734  -19.3380  -14.4409 C   0  0  0  0  0  0  0  0  0  0  0  0
   25.6741  -20.2574  -15.1763 O   0  0  0  0  0  0  0  0  0  0  0  0
   26.4998  -22.1278  -10.9043 C   0  0  0  0  0  0  0  0  0  0  0  0
   26.2642  -20.6374  -10.5694 C   0  0  2  0  0  0  0  0  0  0  0  0
   26.3030  -20.5452   -9.0627 C   0  0  0  0  0  0  0  0  0  0  0  0
   24.9490  -20.2359  -11.1052 C   0  0  0  0  0  0  0  0  0  0  0  0
   24.7332  -20.2692  -12.5718 C   0  0  2  0  0  0  0  0  0  0  0  0
   25.7271  -19.3116  -13.1173 N   0  0  0  0  0  0  0  0  0  0  0  0
   23.3847  -19.8989  -13.0431 C   0  0  0  0  0  0  0  0  0  0  0  0
   22.9879  -18.6802  -13.0437 O   0  0  0  0  0  0  0  0  0  0  0  0
   22.4362  -20.8329  -13.5275 N   0  0  0  0  0  0  0  0  0  0  0  0
   21.1241  -20.3792  -14.0338 C   0  0  1  0  0  0  0  0  0  0  0  0
   20.7983  -21.1489  -15.3101 C   0  0  0  0  0  0  0  0  0  0  0  0
   19.4145  -20.8863  -15.8121 C   0  0  0  0  0  0  0  0  0  0  0  0
   19.1069  -21.6968  -17.0452 C   0  0  0  0  0  0  0  0  0  0  0  0
   17.7232  -21.4279  -17.5848 C   0  0  0  0  0  0  0  0  0  0  0  0
   17.5198  -22.3489  -18.7183 N   0  0  0  0  0  0  0  0  0  0  0  0
   20.1569  -20.6273  -12.9473 C   0  0  0  0  0  0  0  0  0  0  0  0
   20.4658  -21.4006  -11.8378 O   0  0  0  0  0  0  0  0  0  0  0  0
   18.9710  -20.1447  -12.9618 O   0  0  0  0  0  0  0  0  0  0  0  0
  2  1  1  6
  3  2  1  0
  4  2  1  0
  4  6  1  0
  4  5  1  6
  6  7  2  0
  9  8  1  1
 10  9  1  0
 11  9  1  0
 12 11  1  1
 13  6  1  0
 13 12  1  0
 14 12  1  0
 14 15  2  0
 16 14  1  0
 17 16  1  0
 18 19  1  0
 17 18  1  6
 20 19  1  0
 21 22  1  0
 21 20  1  0
 23 17  1  0
 24 23  1  0
 25 23  2  0
M  END
$$$$
