CCL.pdb
     RDKit          3D

 21 20  0  0  1  0  0  0  0  0999 V2000
    9.4090  -15.0112   18.5869 N   0  0  0  0  0  0  0  0  0  0  0  0
    8.6699  -13.9492   19.2211 C   0  0  1  0  0  0  0  0  0  0  0  0
    7.6172  -13.3702   18.3224 C   0  0  0  0  0  0  0  0  0  0  0  0
    8.3838  -13.0591   16.7061 S   0  0  0  0  0  0  0  0  0  0  0  0
    8.1208  -14.4605   20.5040 C   0  0  0  0  0  0  0  0  0  0  0  0
    7.2721  -13.7932   21.1787 O   0  0  0  0  0  0  0  0  0  0  0  0
    8.4966  -15.7149   21.0661 N   0  0  0  0  0  0  0  0  0  0  0  0
    7.9571  -16.2129   22.2922 C   0  0  1  0  0  0  0  0  0  0  0  0
    8.1581  -17.7266   22.4360 C   0  0  0  0  0  0  0  0  0  0  0  0
    9.9388  -18.0237   22.4993 S   0  0  0  0  0  0  0  0  0  0  0  0
    8.5111  -15.5656   23.4912 C   0  0  0  0  0  0  0  0  0  0  0  0
    9.6968  -15.1469   23.4937 O   0  0  0  0  0  0  0  0  0  0  0  0
    5.7251  -12.1184   26.8771 C   0  0  0  0  0  0  0  0  0  0  0  0
    6.7375  -12.7449   25.9492 C   0  0  1  0  0  0  0  0  0  0  0  0
    7.7610  -11.6403   25.6437 C   0  0  0  0  0  0  0  0  0  0  0  0
    7.4604  -13.8305   26.6300 C   0  0  0  0  0  0  0  0  0  0  0  0
    8.3433  -14.7139   25.8416 C   0  0  2  0  0  0  0  0  0  0  0  0
    7.7678  -15.3700   24.7051 N   0  0  0  0  0  0  0  0  0  0  0  0
    8.8620  -15.7510   26.7658 C   0  0  0  0  0  0  0  0  0  0  0  0
    8.6017  -16.9520   26.5600 O   0  0  0  0  0  0  0  0  0  0  0  0
    9.6276  -15.3799   27.8448 O   0  0  0  0  0  0  0  0  0  0  0  0
  2  1  1  6
  3  2  1  0
  4  3  1  0
  5  2  1  0
  6  5  2  0
  7  5  1  0
  8 11  1  0
  8  7  1  0
  8  9  1  1
 10  9  1  0
 11 12  2  0
 14 13  1  1
 14 15  1  0
 17 16  1  1
 16 14  1  0
 18 17  1  0
 18 11  1  0
 19 21  1  0
 19 17  1  0
 20 19  2  0
M  END
$$$$
