CCL.pdb
     RDKit          3D

 21 20  0  0  1  0  0  0  0  0999 V2000
    7.0361  -20.4480   22.7598 N   0  0  0  0  0  0  0  0  0  0  0  0
    6.4800  -19.1221   22.8552 C   0  0  1  0  0  0  0  0  0  0  0  0
    5.7221  -18.9110   24.1327 C   0  0  0  0  0  0  0  0  0  0  0  0
    6.9220  -18.9387   25.4952 S   0  0  0  0  0  0  0  0  0  0  0  0
    7.5768  -18.1380   22.6616 C   0  0  0  0  0  0  0  0  0  0  0  0
    8.7935  -18.4453   22.8766 O   0  0  0  0  0  0  0  0  0  0  0  0
    7.3532  -16.7990   22.2283 N   0  0  0  0  0  0  0  0  0  0  0  0
    8.4020  -15.8375   22.0938 C   0  0  1  0  0  0  0  0  0  0  0  0
    7.9661  -14.6237   21.2638 C   0  0  0  0  0  0  0  0  0  0  0  0
    6.4105  -14.0301   21.9645 S   0  0  0  0  0  0  0  0  0  0  0  0
    8.9247  -15.3453   23.3776 C   0  0  0  0  0  0  0  0  0  0  0  0
    9.9400  -14.6040   23.4052 O   0  0  0  0  0  0  0  0  0  0  0  0
    6.0040  -12.7551   26.7188 C   0  0  0  0  0  0  0  0  0  0  0  0
    7.2471  -13.1458   25.9570 C   0  0  1  0  0  0  0  0  0  0  0  0
    8.1636  -11.9131   25.9963 C   0  0  0  0  0  0  0  0  0  0  0  0
    7.9551  -14.2355   26.6469 C   0  0  0  0  0  0  0  0  0  0  0  0
    8.8508  -15.1177   25.8717 C   0  0  2  0  0  0  0  0  0  0  0  0
    8.3371  -15.6622   24.6498 N   0  0  0  0  0  0  0  0  0  0  0  0
    9.2322  -16.2424   26.7597 C   0  0  0  0  0  0  0  0  0  0  0  0
    8.9351  -17.4105   26.4441 O   0  0  0  0  0  0  0  0  0  0  0  0
    9.9119  -15.9882   27.9265 O   0  0  0  0  0  0  0  0  0  0  0  0
  2  1  1  1
  3  2  1  0
  4  3  1  0
  5  2  1  0
  6  5  2  0
  7  5  1  0
  8 11  1  0
  8  7  1  0
  8  9  1  6
 10  9  1  0
 11 12  2  0
 14 13  1  1
 14 15  1  0
 17 16  1  1
 16 14  1  0
 18 17  1  0
 18 11  1  0
 19 21  1  0
 19 17  1  0
 20 19  2  0
M  END
$$$$
