CCL.pdb
     RDKit          3D

 21 20  0  0  1  0  0  0  0  0999 V2000
   13.1862  -16.6869   19.9145 N   0  0  0  0  0  0  0  0  0  0  0  0
   12.8258  -17.7298   20.8413 C   0  0  1  0  0  0  0  0  0  0  0  0
   14.0205  -18.4855   21.3437 C   0  0  0  0  0  0  0  0  0  0  0  0
   15.0715  -17.3141   22.2493 S   0  0  0  0  0  0  0  0  0  0  0  0
   12.0180  -17.1281   21.9341 C   0  0  0  0  0  0  0  0  0  0  0  0
   11.9707  -15.8683   22.1118 O   0  0  0  0  0  0  0  0  0  0  0  0
   11.2485  -17.9027   22.8499 N   0  0  0  0  0  0  0  0  0  0  0  0
   10.4090  -17.3212   23.8496 C   0  0  1  0  0  0  0  0  0  0  0  0
    8.9945  -17.9138   23.8282 C   0  0  0  0  0  0  0  0  0  0  0  0
    9.1651  -19.7054   23.9836 S   0  0  0  0  0  0  0  0  0  0  0  0
   10.9352  -17.4524   25.2169 C   0  0  0  0  0  0  0  0  0  0  0  0
   11.6603  -18.4325   25.5247 O   0  0  0  0  0  0  0  0  0  0  0  0
   10.1001  -13.6169   29.6186 C   0  0  0  0  0  0  0  0  0  0  0  0
    9.9073  -14.8093   28.7133 C   0  0  1  0  0  0  0  0  0  0  0  0
    9.4332  -14.2377   27.3682 C   0  0  0  0  0  0  0  0  0  0  0  0
   11.1908  -15.4860   28.4695 C   0  0  0  0  0  0  0  0  0  0  0  0
   11.2274  -16.6618   27.5764 C   0  0  2  0  0  0  0  0  0  0  0  0
   10.6708  -16.5062   26.2653 N   0  0  0  0  0  0  0  0  0  0  0  0
   10.5012  -17.7562   28.2648 C   0  0  0  0  0  0  0  0  0  0  0  0
    9.4434  -18.2006   27.7790 O   0  0  0  0  0  0  0  0  0  0  0  0
   11.0005  -18.2736   29.4356 O   0  0  0  0  0  0  0  0  0  0  0  0
  2  1  1  6
  3  2  1  0
  4  3  1  0
  5  2  1  0
  6  5  2  0
  7  5  1  0
  8 11  1  0
  8  7  1  0
  8  9  1  1
 10  9  1  0
 11 12  2  0
 14 13  1  1
 14 15  1  0
 17 16  1  1
 16 14  1  0
 18 17  1  0
 18 11  1  0
 19 21  1  0
 19 17  1  0
 20 19  2  0
M  END
$$$$
