CCL.pdb
     RDKit          3D

 21 20  0  0  1  0  0  0  0  0999 V2000
    9.1329  -16.7778   18.7302 N   0  0  0  0  0  0  0  0  0  0  0  0
    9.2508  -17.7479   19.7892 C   0  0  1  0  0  0  0  0  0  0  0  0
   10.6706  -18.1767   20.0156 C   0  0  0  0  0  0  0  0  0  0  0  0
   11.6120  -16.7123   20.5317 S   0  0  0  0  0  0  0  0  0  0  0  0
    8.6112  -17.1906   21.0095 C   0  0  0  0  0  0  0  0  0  0  0  0
    8.3775  -15.9449   21.1299 O   0  0  0  0  0  0  0  0  0  0  0  0
    8.2180  -17.9949   22.1182 N   0  0  0  0  0  0  0  0  0  0  0  0
    7.5434  -17.4687   23.2630 C   0  0  1  0  0  0  0  0  0  0  0  0
    6.8756  -18.5714   24.0940 C   0  0  0  0  0  0  0  0  0  0  0  0
    6.1590  -17.7800   25.5512 S   0  0  0  0  0  0  0  0  0  0  0  0
    8.4120  -16.6890   24.1580 C   0  0  0  0  0  0  0  0  0  0  0  0
    9.6239  -16.9973   24.2905 O   0  0  0  0  0  0  0  0  0  0  0  0
    6.9687  -11.7771   27.1745 C   0  0  0  0  0  0  0  0  0  0  0  0
    7.1603  -13.2237   26.7884 C   0  0  1  0  0  0  0  0  0  0  0  0
    6.0223  -13.5465   25.8077 C   0  0  0  0  0  0  0  0  0  0  0  0
    8.4256  -13.4008   26.0588 C   0  0  0  0  0  0  0  0  0  0  0  0
    8.8641  -14.7638   25.6965 C   0  0  2  0  0  0  0  0  0  0  0  0
    7.9591  -15.5585   24.9202 N   0  0  0  0  0  0  0  0  0  0  0  0
    9.1481  -15.4824   26.9621 C   0  0  0  0  0  0  0  0  0  0  0  0
    8.5532  -16.5467   27.2185 O   0  0  0  0  0  0  0  0  0  0  0  0
   10.0670  -14.9687   27.8452 O   0  0  0  0  0  0  0  0  0  0  0  0
  2  1  1  6
  3  2  1  0
  4  3  1  0
  5  2  1  0
  6  5  2  0
  7  5  1  0
  8 11  1  0
  8  7  1  0
  8  9  1  1
 10  9  1  0
 11 12  2  0
 14 13  1  6
 14 15  1  0
 17 16  1  1
 16 14  1  0
 18 17  1  0
 18 11  1  0
 19 21  1  0
 19 17  1  0
 20 19  2  0
M  END
$$$$
