CCL.pdb
     RDKit          3D

 21 20  0  0  1  0  0  0  0  0999 V2000
   10.5523  -19.6479   21.3255 N   0  0  0  0  0  0  0  0  0  0  0  0
    9.2544  -19.0553   21.5276 C   0  0  1  0  0  0  0  0  0  0  0  0
    8.3369  -19.9441   22.3145 C   0  0  0  0  0  0  0  0  0  0  0  0
    8.9567  -20.0024   24.0203 S   0  0  0  0  0  0  0  0  0  0  0  0
    9.4406  -17.7180   22.1486 C   0  0  0  0  0  0  0  0  0  0  0  0
   10.5299  -17.3961   22.7238 O   0  0  0  0  0  0  0  0  0  0  0  0
    8.4311  -16.7122   22.1472 N   0  0  0  0  0  0  0  0  0  0  0  0
    8.6199  -15.4171   22.7213 C   0  0  1  0  0  0  0  0  0  0  0  0
    8.0082  -14.3093   21.8546 C   0  0  0  0  0  0  0  0  0  0  0  0
    6.2569  -14.7009   21.6475 S   0  0  0  0  0  0  0  0  0  0  0  0
    8.0728  -15.2843   24.0802 C   0  0  0  0  0  0  0  0  0  0  0  0
    7.0838  -15.9752   24.4346 O   0  0  0  0  0  0  0  0  0  0  0  0
   10.2838  -15.3221   27.7347 C   0  0  0  0  0  0  0  0  0  0  0  0
    9.2767  -14.4070   28.3878 C   0  0  1  0  0  0  0  0  0  0  0  0
   10.0813  -13.5283   29.3582 C   0  0  0  0  0  0  0  0  0  0  0  0
    8.6702  -13.5104   27.3912 C   0  0  0  0  0  0  0  0  0  0  0  0
    7.8950  -14.0913   26.2763 C   0  0  2  0  0  0  0  0  0  0  0  0
    8.6067  -14.3887   25.0687 N   0  0  0  0  0  0  0  0  0  0  0  0
    6.8089  -13.1345   25.9541 C   0  0  0  0  0  0  0  0  0  0  0  0
    6.7854  -12.5740   24.8416 O   0  0  0  0  0  0  0  0  0  0  0  0
    5.8341  -12.8722   26.8863 O   0  0  0  0  0  0  0  0  0  0  0  0
  2  1  1  1
  3  2  1  0
  4  3  1  0
  5  2  1  0
  6  5  2  0
  7  5  1  0
  8 11  1  0
  8  7  1  0
  8  9  1  6
 10  9  1  0
 11 12  2  0
 14 13  1  6
 14 15  1  0
 17 16  1  1
 16 14  1  0
 18 17  1  0
 18 11  1  0
 19 21  1  0
 19 17  1  0
 20 19  2  0
M  END
$$$$
