CCL.pdb
     RDKit          3D

 21 20  0  0  1  0  0  0  0  0999 V2000
    7.0042  -15.1153   19.1099 N   0  0  0  0  0  0  0  0  0  0  0  0
    8.0006  -14.5459   19.9814 C   0  0  1  0  0  0  0  0  0  0  0  0
    7.7128  -13.1126   20.3186 C   0  0  0  0  0  0  0  0  0  0  0  0
    8.4085  -12.0851   18.9930 S   0  0  0  0  0  0  0  0  0  0  0  0
    8.1229  -15.4117   21.1832 C   0  0  0  0  0  0  0  0  0  0  0  0
    7.1222  -15.6608   21.9297 O   0  0  0  0  0  0  0  0  0  0  0  0
    9.3488  -16.0179   21.5837 N   0  0  0  0  0  0  0  0  0  0  0  0
    9.4518  -16.9059   22.6989 C   0  0  1  0  0  0  0  0  0  0  0  0
   10.1650  -18.2125   22.3293 C   0  0  0  0  0  0  0  0  0  0  0  0
    9.0059  -19.1937   21.3511 S   0  0  0  0  0  0  0  0  0  0  0  0
   10.1431  -16.3241   23.8595 C   0  0  0  0  0  0  0  0  0  0  0  0
   11.2510  -15.7478   23.7128 O   0  0  0  0  0  0  0  0  0  0  0  0
   11.3651  -13.5814   28.1881 C   0  0  0  0  0  0  0  0  0  0  0  0
   10.3073  -14.6036   28.5265 C   0  0  1  0  0  0  0  0  0  0  0  0
    9.2709  -13.8612   29.3842 C   0  0  0  0  0  0  0  0  0  0  0  0
    9.6181  -15.0571   27.3083 C   0  0  0  0  0  0  0  0  0  0  0  0
   10.3654  -15.8477   26.3093 C   0  0  2  0  0  0  0  0  0  0  0  0
    9.6246  -16.3683   25.1987 N   0  0  0  0  0  0  0  0  0  0  0  0
   10.9881  -16.9848   27.0290 C   0  0  0  0  0  0  0  0  0  0  0  0
   12.1925  -16.9349   27.3442 O   0  0  0  0  0  0  0  0  0  0  0  0
   10.2315  -18.0877   27.3439 O   0  0  0  0  0  0  0  0  0  0  0  0
  2  1  1  6
  3  2  1  0
  4  3  1  0
  5  2  1  0
  6  5  2  0
  7  5  1  0
  8 11  1  0
  8  7  1  0
  8  9  1  6
 10  9  1  0
 11 12  2  0
 14 13  1  6
 14 15  1  0
 17 16  1  1
 16 14  1  0
 18 17  1  0
 18 11  1  0
 19 21  1  0
 19 17  1  0
 20 19  2  0
M  END
$$$$
