CCL.pdb
     RDKit          3D

 21 20  0  0  1  0  0  0  0  0999 V2000
    5.3061  -19.0985   20.9802 N   0  0  0  0  0  0  0  0  0  0  0  0
    5.1438  -17.8181   21.6211 C   0  0  1  0  0  0  0  0  0  0  0  0
    4.3766  -17.9160   22.9067 C   0  0  0  0  0  0  0  0  0  0  0  0
    2.6202  -18.1040   22.4864 S   0  0  0  0  0  0  0  0  0  0  0  0
    6.4869  -17.2051   21.7919 C   0  0  0  0  0  0  0  0  0  0  0  0
    7.5204  -17.9152   22.0121 O   0  0  0  0  0  0  0  0  0  0  0  0
    6.7152  -15.8002   21.7232 N   0  0  0  0  0  0  0  0  0  0  0  0
    8.0103  -15.2128   21.8653 C   0  0  1  0  0  0  0  0  0  0  0  0
    8.1643  -13.9473   21.0125 C   0  0  0  0  0  0  0  0  0  0  0  0
    8.0307  -14.4511   19.2829 S   0  0  0  0  0  0  0  0  0  0  0  0
    8.3582  -14.8701   23.2527 C   0  0  0  0  0  0  0  0  0  0  0  0
    8.5765  -13.6741   23.5736 O   0  0  0  0  0  0  0  0  0  0  0  0
    6.0560  -12.8917   26.5853 C   0  0  0  0  0  0  0  0  0  0  0  0
    7.3376  -13.3497   25.9326 C   0  0  1  0  0  0  0  0  0  0  0  0
    8.4316  -12.4073   26.4577 C   0  0  0  0  0  0  0  0  0  0  0  0
    7.6861  -14.7089   26.3751 C   0  0  0  0  0  0  0  0  0  0  0  0
    8.7435  -15.4511   25.6593 C   0  0  2  0  0  0  0  0  0  0  0  0
    8.4707  -15.8394   24.3073 N   0  0  0  0  0  0  0  0  0  0  0  0
    9.0289  -16.6742   26.4476 C   0  0  0  0  0  0  0  0  0  0  0  0
    9.3814  -16.5767   27.6387 O   0  0  0  0  0  0  0  0  0  0  0  0
    8.9026  -17.9089   25.8581 O   0  0  0  0  0  0  0  0  0  0  0  0
  2  1  1  1
  3  2  1  0
  4  3  1  0
  5  2  1  0
  6  5  2  0
  7  5  1  0
  8 11  1  0
  8  7  1  0
  8  9  1  6
 10  9  1  0
 11 12  2  0
 14 13  1  1
 14 15  1  0
 17 16  1  1
 16 14  1  0
 18 17  1  0
 18 11  1  0
 19 21  1  0
 19 17  1  0
 20 19  2  0
M  END
$$$$
