CCL.pdb
     RDKit          3D

 21 20  0  0  1  0  0  0  0  0999 V2000
    7.8031  -15.1953   17.9621 N   0  0  0  0  0  0  0  0  0  0  0  0
    8.2539  -14.4730   19.1247 C   0  0  1  0  0  0  0  0  0  0  0  0
    7.6934  -13.0827   19.1862 C   0  0  0  0  0  0  0  0  0  0  0  0
    8.7357  -12.0226   18.1437 S   0  0  0  0  0  0  0  0  0  0  0  0
    7.9365  -15.2806   20.3312 C   0  0  0  0  0  0  0  0  0  0  0  0
    6.8114  -15.8604   20.4681 O   0  0  0  0  0  0  0  0  0  0  0  0
    8.8521  -15.4638   21.4077 N   0  0  0  0  0  0  0  0  0  0  0  0
    8.5432  -16.2332   22.5718 C   0  0  1  0  0  0  0  0  0  0  0  0
    9.1600  -17.6363   22.5139 C   0  0  0  0  0  0  0  0  0  0  0  0
    8.7194  -18.4757   24.0515 S   0  0  0  0  0  0  0  0  0  0  0  0
    8.9681  -15.6024   23.8308 C   0  0  0  0  0  0  0  0  0  0  0  0
   10.1800  -15.3279   24.0237 O   0  0  0  0  0  0  0  0  0  0  0  0
    5.6297  -12.3395   27.0786 C   0  0  0  0  0  0  0  0  0  0  0  0
    6.7069  -12.8719   26.1651 C   0  0  1  0  0  0  0  0  0  0  0  0
    7.6004  -11.6677   25.8297 C   0  0  0  0  0  0  0  0  0  0  0  0
    7.5463  -13.8520   26.8720 C   0  0  0  0  0  0  0  0  0  0  0  0
    8.5252  -14.6489   26.1050 C   0  0  2  0  0  0  0  0  0  0  0  0
    8.0649  -15.2646   24.8958 N   0  0  0  0  0  0  0  0  0  0  0  0
    9.0265  -15.7124   27.0086 C   0  0  0  0  0  0  0  0  0  0  0  0
    9.7489  -15.4130   27.9787 O   0  0  0  0  0  0  0  0  0  0  0  0
    8.6906  -17.0231   26.7696 O   0  0  0  0  0  0  0  0  0  0  0  0
  2  1  1  6
  3  2  1  0
  4  3  1  0
  5  2  1  0
  6  5  2  0
  7  5  1  0
  8 11  1  0
  8  7  1  0
  8  9  1  6
 10  9  1  0
 11 12  2  0
 14 13  1  1
 14 15  1  0
 17 16  1  1
 16 14  1  0
 18 17  1  0
 18 11  1  0
 19 21  1  0
 19 17  1  0
 20 19  2  0
M  END
$$$$
