CCL.pdb
     RDKit          3D

 21 20  0  0  1  0  0  0  0  0999 V2000
    7.7760  -15.8384   17.8135 N   0  0  0  0  0  0  0  0  0  0  0  0
    8.3284  -14.9773   18.8283 C   0  0  1  0  0  0  0  0  0  0  0  0
    7.9948  -13.5332   18.5955 C   0  0  0  0  0  0  0  0  0  0  0  0
    8.7860  -12.5664   19.9132 S   0  0  0  0  0  0  0  0  0  0  0  0
    7.8799  -15.4698   20.1568 C   0  0  0  0  0  0  0  0  0  0  0  0
    6.6638  -15.7741   20.3790 O   0  0  0  0  0  0  0  0  0  0  0  0
    8.7622  -15.6357   21.2635 N   0  0  0  0  0  0  0  0  0  0  0  0
    8.3441  -16.1721   22.5205 C   0  0  1  0  0  0  0  0  0  0  0  0
    8.8287  -17.6135   22.7201 C   0  0  0  0  0  0  0  0  0  0  0  0
   10.6324  -17.5872   22.6246 S   0  0  0  0  0  0  0  0  0  0  0  0
    8.7840  -15.3808   23.6798 C   0  0  0  0  0  0  0  0  0  0  0  0
    9.9214  -14.8446   23.6853 O   0  0  0  0  0  0  0  0  0  0  0  0
    5.4615  -12.1584   26.8545 C   0  0  0  0  0  0  0  0  0  0  0  0
    6.5086  -12.7392   25.9354 C   0  0  1  0  0  0  0  0  0  0  0  0
    7.3082  -11.5390   25.4050 C   0  0  0  0  0  0  0  0  0  0  0  0
    7.4459  -13.5863   26.6895 C   0  0  0  0  0  0  0  0  0  0  0  0
    8.4473  -14.3849   25.9541 C   0  0  2  0  0  0  0  0  0  0  0  0
    7.9779  -15.1684   24.8500 N   0  0  0  0  0  0  0  0  0  0  0  0
    9.0855  -15.2958   26.9347 C   0  0  0  0  0  0  0  0  0  0  0  0
    8.9577  -16.5290   26.8108 O   0  0  0  0  0  0  0  0  0  0  0  0
    9.8148  -14.7730   27.9753 O   0  0  0  0  0  0  0  0  0  0  0  0
  2  1  1  6
  3  2  1  0
  4  3  1  0
  5  2  1  0
  6  5  2  0
  7  5  1  0
  8 11  1  0
  8  7  1  0
  8  9  1  1
 10  9  1  0
 11 12  2  0
 14 13  1  1
 14 15  1  0
 17 16  1  1
 16 14  1  0
 18 17  1  0
 18 11  1  0
 19 21  1  0
 19 17  1  0
 20 19  2  0
M  END
$$$$
