CCL.pdb
     RDKit          3D

 21 20  0  0  1  0  0  0  0  0999 V2000
    9.1498  -15.1564   19.5610 N   0  0  0  0  0  0  0  0  0  0  0  0
    8.4402  -15.9051   20.5671 C   0  0  1  0  0  0  0  0  0  0  0  0
    8.8268  -17.3548   20.5790 C   0  0  0  0  0  0  0  0  0  0  0  0
    7.7828  -18.1925   21.8059 S   0  0  0  0  0  0  0  0  0  0  0  0
    8.6452  -15.2389   21.8797 C   0  0  0  0  0  0  0  0  0  0  0  0
    9.8066  -14.9144   22.2881 O   0  0  0  0  0  0  0  0  0  0  0  0
    7.5755  -14.9187   22.7651 N   0  0  0  0  0  0  0  0  0  0  0  0
    7.7816  -14.4438   24.0972 C   0  0  1  0  0  0  0  0  0  0  0  0
    6.4631  -14.0622   24.7818 C   0  0  0  0  0  0  0  0  0  0  0  0
    6.8845  -13.3309   26.3789 S   0  0  0  0  0  0  0  0  0  0  0  0
    8.4842  -15.3997   24.9666 C   0  0  0  0  0  0  0  0  0  0  0  0
    8.4128  -16.6341   24.7378 O   0  0  0  0  0  0  0  0  0  0  0  0
   11.0725  -13.7065   29.6550 C   0  0  0  0  0  0  0  0  0  0  0  0
   10.1755  -14.7193   28.9856 C   0  0  1  0  0  0  0  0  0  0  0  0
    9.0669  -13.9047   28.3010 C   0  0  0  0  0  0  0  0  0  0  0  0
   10.9044  -15.4359   27.9274 C   0  0  0  0  0  0  0  0  0  0  0  0
   10.1632  -15.9300   26.7492 C   0  0  2  0  0  0  0  0  0  0  0  0
    9.2759  -15.0106   26.1007 N   0  0  0  0  0  0  0  0  0  0  0  0
    9.3754  -17.1062   27.1904 C   0  0  0  0  0  0  0  0  0  0  0  0
    9.9522  -18.0780   27.7152 O   0  0  0  0  0  0  0  0  0  0  0  0
    8.0124  -17.1166   27.0171 O   0  0  0  0  0  0  0  0  0  0  0  0
  2  1  1  6
  3  2  1  0
  4  3  1  0
  5  2  1  0
  6  5  2  0
  7  5  1  0
  8 11  1  0
  8  7  1  0
  8  9  1  1
 10  9  1  0
 11 12  2  0
 14 13  1  6
 14 15  1  0
 17 16  1  1
 16 14  1  0
 18 17  1  0
 18 11  1  0
 19 21  1  0
 19 17  1  0
 20 19  2  0
M  END
$$$$
