GRC.pdb
     RDKit          3D

 22 21  0  0  1  0  0  0  0  0999 V2000
    7.6925  -13.0950   18.1530 N   0  0  0  0  0  0  0  0  0  0  0  0
    8.6259  -13.4664   19.2088 C   0  0  0  0  0  0  0  0  0  0  0  0
    7.9120  -14.0620   20.3705 C   0  0  0  0  0  0  0  0  0  0  0  0
    6.7512  -13.6387   20.6066 O   0  0  0  0  0  0  0  0  0  0  0  0
    9.2332  -20.6321   26.1951 N   0  0  0  0  0  0  0  0  0  0  0  0
    7.9638  -20.0314   26.3791 C   0  0  0  0  0  0  0  0  0  0  0  0
    7.4453  -20.0130   27.5741 N   0  0  0  0  0  0  0  0  0  0  0  0
    7.2987  -19.4708   25.2602 N   0  0  0  0  0  0  0  0  0  0  0  0
    8.0478  -18.8096   24.2476 C   0  0  0  0  0  0  0  0  0  0  0  0
    7.5005  -17.4085   23.9493 C   0  0  0  0  0  0  0  0  0  0  0  0
    8.3287  -16.8766   22.8067 C   0  0  0  0  0  0  0  0  0  0  0  0
    7.8761  -15.5127   22.3542 C   0  0  2  0  0  0  0  0  0  0  0  0
    8.5282  -15.0633   21.1664 N   0  0  0  0  0  0  0  0  0  0  0  0
    8.2557  -14.5625   23.4539 C   0  0  0  0  0  0  0  0  0  0  0  0
    9.1280  -13.6680   23.2954 O   0  0  0  0  0  0  0  0  0  0  0  0
    6.5707  -19.4990   27.7961 N   0  0  0  0  0  0  0  0  0  0  0  0
    7.5807  -14.7179   24.6975 C   0  0  2  0  0  0  0  0  0  0  0  0
    7.5757  -13.6465   25.6731 C   0  0  0  0  0  0  0  0  0  0  0  0
    6.8724  -12.4191   25.0978 S   0  0  0  0  0  0  0  0  0  0  0  0
    6.7333  -11.2049   26.4475 C   0  0  0  0  0  0  0  0  0  0  0  0
    6.8623  -14.1252   26.8782 O   0  0  0  0  0  0  0  0  0  0  0  0
    7.2345  -13.7350   28.1672 O   0  0  0  0  0  0  0  0  0  0  0  0
  1  2  1  0
  2  3  1  0
  3  4  2  0
  3 13  1  0
  6  5  1  0
  7  6  2  0
  8  6  1  0
  9  8  1  0
 10  9  1  0
 10 11  1  0
 12 11  1  1
 12 14  1  0
 13 12  1  0
 14 15  2  0
 14 16  1  0
 16 17  1  0
 17 20  1  0
 17 18  1  6
 18 19  1  0
 20 21  1  0
 22 20  2  0
M  END
$$$$
