GRC.pdb
     RDKit          3D

 22 21  0  0  1  0  0  0  0  0999 V2000
    5.3447  -20.7521   22.8452 N   0  0  0  0  0  0  0  0  0  0  0  0
    5.0749  -19.3870   23.2783 C   0  0  0  0  0  0  0  0  0  0  0  0
    6.2906  -18.5371   23.1607 C   0  0  0  0  0  0  0  0  0  0  0  0
    7.3990  -19.0916   23.3756 O   0  0  0  0  0  0  0  0  0  0  0  0
    8.8766  -12.1128   18.5844 N   0  0  0  0  0  0  0  0  0  0  0  0
    8.1094  -13.1449   17.9907 C   0  0  0  0  0  0  0  0  0  0  0  0
    8.4827  -13.6199   16.8366 N   0  0  0  0  0  0  0  0  0  0  0  0
    6.9622  -13.6271   18.6689 N   0  0  0  0  0  0  0  0  0  0  0  0
    6.9517  -13.6887   20.0901 C   0  0  0  0  0  0  0  0  0  0  0  0
    7.3165  -15.0852   20.6081 C   0  0  0  0  0  0  0  0  0  0  0  0
    7.1547  -15.0249   22.1063 C   0  0  0  0  0  0  0  0  0  0  0  0
    7.3678  -16.3642   22.7624 C   0  0  2  0  0  0  0  0  0  0  0  0
    6.1860  -17.1629   22.8194 N   0  0  0  0  0  0  0  0  0  0  0  0
    7.7741  -16.0733   24.1790 C   0  0  0  0  0  0  0  0  0  0  0  0
    7.0212  -15.4577   24.9792 O   0  0  0  0  0  0  0  0  0  0  0  0
    7.9524  -14.3614   16.3393 N   0  0  0  0  0  0  0  0  0  0  0  0
    9.0612  -16.5274   24.5834 C   0  0  1  0  0  0  0  0  0  0  0  0
    9.6532  -16.0598   25.8206 C   0  0  0  0  0  0  0  0  0  0  0  0
    8.8047  -16.5084   27.0084 S   0  0  0  0  0  0  0  0  0  0  0  0
    8.5749  -18.3075   26.8481 C   0  0  0  0  0  0  0  0  0  0  0  0
   11.0154  -16.6296   25.9226 O   0  0  0  0  0  0  0  0  0  0  0  0
   11.8909  -16.2838   26.9552 O   0  0  0  0  0  0  0  0  0  0  0  0
  1  2  1  0
  2  3  1  0
  3  4  2  0
  3 13  1  0
  6  5  1  0
  7  6  2  0
  8  6  1  0
  9  8  1  0
 10  9  1  0
 10 11  1  0
 12 11  1  6
 12 14  1  0
 13 12  1  0
 14 15  2  0
 14 16  1  0
 16 17  1  0
 17 20  1  0
 17 18  1  1
 18 19  1  0
 20 21  1  0
 22 20  2  0
M  END
$$$$
