GRC.pdb
     RDKit          3D

 22 21  0  0  1  0  0  0  0  0999 V2000
    7.2945  -18.6533   13.8637 N   0  0  0  0  0  0  0  0  0  0  0  0
    6.9214  -19.8754   14.5648 C   0  0  0  0  0  0  0  0  0  0  0  0
    6.8329  -19.6458   16.0322 C   0  0  0  0  0  0  0  0  0  0  0  0
    7.2042  -18.5223   16.4588 O   0  0  0  0  0  0  0  0  0  0  0  0
    0.9401  -21.5991   21.2202 N   0  0  0  0  0  0  0  0  0  0  0  0
    0.5551  -21.5780   19.8574 C   0  0  0  0  0  0  0  0  0  0  0  0
   -0.6941  -21.3570   19.5613 N   0  0  0  0  0  0  0  0  0  0  0  0
    1.5385  -21.7978   18.8607 N   0  0  0  0  0  0  0  0  0  0  0  0
    2.9020  -21.9594   19.2327 C   0  0  0  0  0  0  0  0  0  0  0  0
    3.7990  -20.8808   18.6134 C   0  0  0  0  0  0  0  0  0  0  0  0
    5.2112  -21.2519   18.9905 C   0  0  0  0  0  0  0  0  0  0  0  0
    6.2366  -20.3938   18.2963 C   0  0  2  0  0  0  0  0  0  0  0  0
    6.3478  -20.6609   16.8984 N   0  0  0  0  0  0  0  0  0  0  0  0
    7.5589  -20.7396   18.9195 C   0  0  0  0  0  0  0  0  0  0  0  0
    8.2238  -21.7485   18.5643 O   0  0  0  0  0  0  0  0  0  0  0  0
   -1.0448  -21.3539   18.5838 N   0  0  0  0  0  0  0  0  0  0  0  0
    8.0339  -19.8692   19.9408 C   0  0  2  0  0  0  0  0  0  0  0  0
    9.3351  -20.0795   20.5429 C   0  0  0  0  0  0  0  0  0  0  0  0
    9.7071  -18.8825   21.4152 S   0  0  0  0  0  0  0  0  0  0  0  0
   11.3698  -19.2073   22.0824 C   0  0  0  0  0  0  0  0  0  0  0  0
    9.2680  -21.3085   21.3650 O   0  0  0  0  0  0  0  0  0  0  0  0
   10.3308  -22.2126   21.4395 O   0  0  0  0  0  0  0  0  0  0  0  0
  1  2  1  0
  2  3  1  0
  3  4  2  0
  3 13  1  0
  6  5  1  0
  7  6  2  0
  8  6  1  0
  9  8  1  0
 10  9  1  0
 10 11  1  0
 12 11  1  1
 12 14  1  0
 13 12  1  0
 14 15  2  0
 14 16  1  0
 16 17  1  0
 17 20  1  0
 17 18  1  6
 18 19  1  0
 20 21  1  0
 22 20  2  0
M  END
$$$$
