GRC.pdb
     RDKit          3D

 22 21  0  0  1  0  0  0  0  0999 V2000
   15.2129  -28.7285   29.2430 N   0  0  0  0  0  0  0  0  0  0  0  0
   14.4892  -28.6275   30.5040 C   0  0  0  0  0  0  0  0  0  0  0  0
   13.8554  -27.2896   30.6527 C   0  0  0  0  0  0  0  0  0  0  0  0
   14.0422  -26.4619   29.7242 O   0  0  0  0  0  0  0  0  0  0  0  0
    9.5690  -29.1884   33.0944 N   0  0  0  0  0  0  0  0  0  0  0  0
    8.2563  -28.6598   33.1521 C   0  0  0  0  0  0  0  0  0  0  0  0
    7.2527  -29.4386   32.8636 N   0  0  0  0  0  0  0  0  0  0  0  0
    8.0760  -27.3032   33.5207 N   0  0  0  0  0  0  0  0  0  0  0  0
    9.2083  -26.4643   33.7152 C   0  0  0  0  0  0  0  0  0  0  0  0
   10.2142  -26.5795   32.5634 C   0  0  0  0  0  0  0  0  0  0  0  0
   11.3438  -25.6411   32.9066 C   0  0  0  0  0  0  0  0  0  0  0  0
   12.4618  -25.6934   31.8982 C   0  0  2  0  0  0  0  0  0  0  0  0
   13.0767  -26.9779   31.7983 N   0  0  0  0  0  0  0  0  0  0  0  0
   13.5109  -24.7377   32.3905 C   0  0  0  0  0  0  0  0  0  0  0  0
   14.3334  -25.0512   33.2913 O   0  0  0  0  0  0  0  0  0  0  0  0
    6.2690  -29.1058   32.8630 N   0  0  0  0  0  0  0  0  0  0  0  0
   13.5362  -23.4475   31.7895 C   0  0  2  0  0  0  0  0  0  0  0  0
   14.5459  -22.4784   32.1653 C   0  0  0  0  0  0  0  0  0  0  0  0
   14.8521  -21.5584   30.9855 S   0  0  0  0  0  0  0  0  0  0  0  0
   16.1728  -20.4262   31.5232 C   0  0  0  0  0  0  0  0  0  0  0  0
   14.0253  -21.6906   33.3049 O   0  0  0  0  0  0  0  0  0  0  0  0
   14.8651  -21.1576   34.2862 O   0  0  0  0  0  0  0  0  0  0  0  0
  1  2  1  0
  2  3  1  0
  3  4  2  0
  3 13  1  0
  6  5  1  0
  7  6  2  0
  8  6  1  0
  9  8  1  0
 10  9  1  0
 10 11  1  0
 12 11  1  1
 12 14  1  0
 13 12  1  0
 14 15  2  0
 14 16  1  0
 16 17  1  0
 17 20  1  0
 17 18  1  6
 18 19  1  0
 20 21  1  0
 22 20  2  0
M  END
$$$$
