GRC.pdb
     RDKit          3D

 22 21  0  0  1  0  0  0  0  0999 V2000
   13.2430  -17.2572   20.2872 N   0  0  0  0  0  0  0  0  0  0  0  0
   11.7950  -17.3669   20.4111 C   0  0  0  0  0  0  0  0  0  0  0  0
   11.2494  -16.2961   21.2884 C   0  0  0  0  0  0  0  0  0  0  0  0
   12.0820  -15.5659   21.8849 O   0  0  0  0  0  0  0  0  0  0  0  0
    8.3056  -15.6058   17.2399 N   0  0  0  0  0  0  0  0  0  0  0  0
    7.6967  -14.3358   17.3897 C   0  0  0  0  0  0  0  0  0  0  0  0
    7.9321  -13.4176   16.4961 N   0  0  0  0  0  0  0  0  0  0  0  0
    6.8527  -14.1041   18.5044 N   0  0  0  0  0  0  0  0  0  0  0  0
    7.0905  -14.7884   19.7287 C   0  0  0  0  0  0  0  0  0  0  0  0
    7.7231  -13.8744   20.7851 C   0  0  0  0  0  0  0  0  0  0  0  0
    7.9108  -14.7304   22.0124 C   0  0  0  0  0  0  0  0  0  0  0  0
    9.3577  -15.0668   22.2636 C   0  0  2  0  0  0  0  0  0  0  0  0
    9.8481  -16.1197   21.4338 N   0  0  0  0  0  0  0  0  0  0  0  0
    9.4316  -15.5514   23.6835 C   0  0  0  0  0  0  0  0  0  0  0  0
    9.6345  -16.7612   23.9690 O   0  0  0  0  0  0  0  0  0  0  0  0
    7.5698  -12.4481   16.5820 N   0  0  0  0  0  0  0  0  0  0  0  0
    9.2598  -14.5745   24.7046 C   0  0  2  0  0  0  0  0  0  0  0  0
    9.3364  -14.9477   26.1027 C   0  0  0  0  0  0  0  0  0  0  0  0
    9.2939  -13.6985   26.9801 S   0  0  0  0  0  0  0  0  0  0  0  0
    7.9181  -12.6705   26.3751 C   0  0  0  0  0  0  0  0  0  0  0  0
    8.1842  -15.8250   26.4081 O   0  0  0  0  0  0  0  0  0  0  0  0
    8.1070  -16.5673   27.5894 O   0  0  0  0  0  0  0  0  0  0  0  0
  1  2  1  0
  2  3  1  0
  3  4  2  0
  3 13  1  0
  6  5  1  0
  7  6  2  0
  8  6  1  0
  9  8  1  0
 10  9  1  0
 10 11  1  0
 12 11  1  6
 12 14  1  0
 13 12  1  0
 14 15  2  0
 14 16  1  0
 16 17  1  0
 17 20  1  0
 17 18  1  6
 18 19  1  0
 20 21  1  0
 22 20  2  0
M  END
$$$$
