GRC.pdb
     RDKit          3D

 22 21  0  0  1  0  0  0  0  0999 V2000
    4.8593  -20.1918   22.4294 N   0  0  0  0  0  0  0  0  0  0  0  0
    4.7396  -18.7703   22.7278 C   0  0  0  0  0  0  0  0  0  0  0  0
    5.9838  -18.0396   22.3645 C   0  0  0  0  0  0  0  0  0  0  0  0
    6.9839  -18.7345   22.0496 O   0  0  0  0  0  0  0  0  0  0  0  0
    7.9710  -12.6559   16.8943 N   0  0  0  0  0  0  0  0  0  0  0  0
    8.1083  -14.0241   17.2337 C   0  0  0  0  0  0  0  0  0  0  0  0
    8.1169  -14.9099   16.2785 N   0  0  0  0  0  0  0  0  0  0  0  0
    8.2312  -14.3860   18.5984 N   0  0  0  0  0  0  0  0  0  0  0  0
    8.0328  -13.4081   19.6123 C   0  0  0  0  0  0  0  0  0  0  0  0
    8.3361  -13.9596   21.0107 C   0  0  0  0  0  0  0  0  0  0  0  0
    7.0478  -14.5706   21.5018 C   0  0  0  0  0  0  0  0  0  0  0  0
    7.2461  -15.9512   22.0713 C   0  0  2  0  0  0  0  0  0  0  0  0
    6.0228  -16.6204   22.3772 N   0  0  0  0  0  0  0  0  0  0  0  0
    7.9843  -15.7647   23.3663 C   0  0  0  0  0  0  0  0  0  0  0  0
    7.4266  -15.2972   24.3942 O   0  0  0  0  0  0  0  0  0  0  0  0
    8.2341  -15.9258   16.4593 N   0  0  0  0  0  0  0  0  0  0  0  0
    9.3567  -16.1422   23.3826 C   0  0  2  0  0  0  0  0  0  0  0  0
   10.0990  -16.1712   24.6268 C   0  0  0  0  0  0  0  0  0  0  0  0
    9.5118  -17.2266   25.5613 S   0  0  0  0  0  0  0  0  0  0  0  0
   10.2953  -16.9913   27.1879 C   0  0  0  0  0  0  0  0  0  0  0  0
   11.5088  -16.4947   24.3135 O   0  0  0  0  0  0  0  0  0  0  0  0
   12.5505  -16.2198   25.2033 O   0  0  0  0  0  0  0  0  0  0  0  0
  1  2  1  0
  2  3  1  0
  3  4  2  0
  3 13  1  0
  6  5  1  0
  7  6  2  0
  8  6  1  0
  9  8  1  0
 10  9  1  0
 10 11  1  0
 12 11  1  1
 12 14  1  0
 13 12  1  0
 14 15  2  0
 14 16  1  0
 16 17  1  0
 17 20  1  0
 17 18  1  1
 18 19  1  0
 20 21  1  0
 22 20  2  0
M  END
$$$$
