GRC.pdb
     RDKit          3D

 22 21  0  0  1  0  0  0  0  0999 V2000
    6.5670  -20.1300   24.2152 N   0  0  0  0  0  0  0  0  0  0  0  0
    6.0881  -18.7796   24.4820 C   0  0  0  0  0  0  0  0  0  0  0  0
    7.1287  -17.7675   24.1551 C   0  0  0  0  0  0  0  0  0  0  0  0
    8.3293  -18.1188   24.2862 O   0  0  0  0  0  0  0  0  0  0  0  0
    8.3913  -12.3880   19.1477 N   0  0  0  0  0  0  0  0  0  0  0  0
    8.2683  -13.6047   18.4332 C   0  0  0  0  0  0  0  0  0  0  0  0
    9.0059  -13.7888   17.3753 N   0  0  0  0  0  0  0  0  0  0  0  0
    7.3484  -14.5814   18.8900 N   0  0  0  0  0  0  0  0  0  0  0  0
    6.8595  -14.5262   20.2247 C   0  0  0  0  0  0  0  0  0  0  0  0
    7.9914  -14.3569   21.2455 C   0  0  0  0  0  0  0  0  0  0  0  0
    7.3287  -14.3564   22.6002 C   0  0  0  0  0  0  0  0  0  0  0  0
    7.7862  -15.5021   23.4649 C   0  0  2  0  0  0  0  0  0  0  0  0
    6.7649  -16.4675   23.7154 N   0  0  0  0  0  0  0  0  0  0  0  0
    8.1604  -14.8999   24.7893 C   0  0  0  0  0  0  0  0  0  0  0  0
    7.3642  -14.1783   25.4462 O   0  0  0  0  0  0  0  0  0  0  0  0
    8.9527  -14.6517   16.7999 N   0  0  0  0  0  0  0  0  0  0  0  0
    9.4682  -15.1819   25.2757 C   0  0  1  0  0  0  0  0  0  0  0  0
    9.9134  -14.6475   26.5469 C   0  0  0  0  0  0  0  0  0  0  0  0
    8.9764  -15.1045   27.6629 S   0  0  0  0  0  0  0  0  0  0  0  0
    9.5604  -14.3233   29.2004 C   0  0  0  0  0  0  0  0  0  0  0  0
   11.2855  -15.1421   26.7983 O   0  0  0  0  0  0  0  0  0  0  0  0
   12.1007  -14.5999   27.7953 O   0  0  0  0  0  0  0  0  0  0  0  0
  1  2  1  0
  2  3  1  0
  3  4  2  0
  3 13  1  0
  6  5  1  0
  7  6  2  0
  8  6  1  0
  9  8  1  0
 10  9  1  0
 10 11  1  0
 12 11  1  6
 12 14  1  0
 13 12  1  0
 14 15  2  0
 14 16  1  0
 16 17  1  0
 17 20  1  0
 17 18  1  6
 18 19  1  0
 20 21  1  0
 22 20  2  0
M  END
$$$$
