GRC.pdb
     RDKit          3D

 22 21  0  0  1  0  0  0  0  0999 V2000
   14.3800  -18.3593   19.9322 N   0  0  0  0  0  0  0  0  0  0  0  0
   12.9869  -18.7324   20.1421 C   0  0  0  0  0  0  0  0  0  0  0  0
   12.2569  -17.6770   20.8953 C   0  0  0  0  0  0  0  0  0  0  0  0
   12.9417  -16.9262   21.6367 O   0  0  0  0  0  0  0  0  0  0  0  0
    7.5755  -12.2731   19.2271 N   0  0  0  0  0  0  0  0  0  0  0  0
    7.4370  -13.5464   18.6225 C   0  0  0  0  0  0  0  0  0  0  0  0
    7.5103  -13.6364   17.3250 N   0  0  0  0  0  0  0  0  0  0  0  0
    7.2232  -14.6799   19.4459 N   0  0  0  0  0  0  0  0  0  0  0  0
    7.0238  -14.5134   20.8445 C   0  0  0  0  0  0  0  0  0  0  0  0
    8.2599  -14.9228   21.6546 C   0  0  0  0  0  0  0  0  0  0  0  0
    8.8993  -16.0537   20.8888 C   0  0  0  0  0  0  0  0  0  0  0  0
   10.1762  -16.5325   21.5289 C   0  0  2  0  0  0  0  0  0  0  0  0
   10.8496  -17.5371   20.7706 N   0  0  0  0  0  0  0  0  0  0  0  0
    9.7776  -17.1572   22.8356 C   0  0  0  0  0  0  0  0  0  0  0  0
    9.5337  -18.3881   22.9431 O   0  0  0  0  0  0  0  0  0  0  0  0
    7.4694  -14.5454   16.8245 N   0  0  0  0  0  0  0  0  0  0  0  0
    9.6854  -16.2892   23.9600 C   0  0  2  0  0  0  0  0  0  0  0  0
    9.3900  -16.8168   25.2769 C   0  0  0  0  0  0  0  0  0  0  0  0
    9.3517  -15.6821   26.2981 S   0  0  0  0  0  0  0  0  0  0  0  0
    8.2790  -14.3824   25.6086 C   0  0  0  0  0  0  0  0  0  0  0  0
    8.0751  -17.4935   25.2166 O   0  0  0  0  0  0  0  0  0  0  0  0
    7.6156  -18.3193   26.2458 O   0  0  0  0  0  0  0  0  0  0  0  0
  1  2  1  0
  2  3  1  0
  3  4  2  0
  3 13  1  0
  6  5  1  0
  7  6  2  0
  8  6  1  0
  9  8  1  0
 10  9  1  0
 10 11  1  0
 12 11  1  6
 12 14  1  0
 13 12  1  0
 14 15  2  0
 14 16  1  0
 16 17  1  0
 17 20  1  0
 17 18  1  6
 18 19  1  0
 20 21  1  0
 22 20  2  0
M  END
$$$$
