GRC.pdb
     RDKit          3D

 22 21  0  0  1  0  0  0  0  0999 V2000
    7.1350  -13.6530   19.0229 N   0  0  0  0  0  0  0  0  0  0  0  0
    8.0440  -13.3133   20.1102 C   0  0  0  0  0  0  0  0  0  0  0  0
    7.6196  -13.9547   21.3840 C   0  0  0  0  0  0  0  0  0  0  0  0
    6.6475  -13.4349   21.9899 O   0  0  0  0  0  0  0  0  0  0  0  0
    6.5132  -21.7099   24.1145 N   0  0  0  0  0  0  0  0  0  0  0  0
    6.6995  -20.4738   24.7804 C   0  0  0  0  0  0  0  0  0  0  0  0
    7.1497  -20.4810   26.0028 N   0  0  0  0  0  0  0  0  0  0  0  0
    6.3907  -19.2707   24.0979 N   0  0  0  0  0  0  0  0  0  0  0  0
    6.6210  -18.0173   24.7300 C   0  0  0  0  0  0  0  0  0  0  0  0
    8.1009  -17.6171   24.6920 C   0  0  0  0  0  0  0  0  0  0  0  0
    8.3539  -17.1036   23.2968 C   0  0  0  0  0  0  0  0  0  0  0  0
    7.8606  -15.6931   23.1046 C   0  0  2  0  0  0  0  0  0  0  0  0
    8.2928  -15.1026   21.8789 N   0  0  0  0  0  0  0  0  0  0  0  0
    8.4615  -14.8867   24.2205 C   0  0  0  0  0  0  0  0  0  0  0  0
    9.6836  -14.5835   24.2453 O   0  0  0  0  0  0  0  0  0  0  0  0
    7.4065  -19.6114   26.5091 N   0  0  0  0  0  0  0  0  0  0  0  0
    7.5814  -14.4755   25.2610 C   0  0  2  0  0  0  0  0  0  0  0  0
    8.0739  -13.6953   26.3783 C   0  0  0  0  0  0  0  0  0  0  0  0
    6.9084  -13.0224   27.1000 S   0  0  0  0  0  0  0  0  0  0  0  0
    6.5340  -11.4898   26.1911 C   0  0  0  0  0  0  0  0  0  0  0  0
    8.7849  -14.6097   27.2996 O   0  0  0  0  0  0  0  0  0  0  0  0
    9.4081  -14.1553   28.4648 O   0  0  0  0  0  0  0  0  0  0  0  0
  1  2  1  0
  2  3  1  0
  3  4  2  0
  3 13  1  0
  6  5  1  0
  7  6  2  0
  8  6  1  0
  9  8  1  0
 10  9  1  0
 10 11  1  0
 12 11  1  6
 12 14  1  0
 13 12  1  0
 14 15  2  0
 14 16  1  0
 16 17  1  0
 17 20  1  0
 17 18  1  6
 18 19  1  0
 20 21  1  0
 22 20  2  0
M  END
$$$$
