GRC.pdb
     RDKit          3D

 22 21  0  0  1  0  0  0  0  0999 V2000
   -4.6573  -23.5877   28.9216 N   0  0  0  0  0  0  0  0  0  0  0  0
   -3.4783  -23.7681   29.7591 C   0  0  0  0  0  0  0  0  0  0  0  0
   -3.8452  -24.3285   31.0878 C   0  0  0  0  0  0  0  0  0  0  0  0
   -5.0448  -24.6686   31.2535 O   0  0  0  0  0  0  0  0  0  0  0  0
    0.8932  -27.7936   31.5343 N   0  0  0  0  0  0  0  0  0  0  0  0
    0.4782  -29.0447   32.0526 C   0  0  0  0  0  0  0  0  0  0  0  0
    0.8365  -30.1318   31.4306 N   0  0  0  0  0  0  0  0  0  0  0  0
   -0.3124  -29.0747   33.2285 N   0  0  0  0  0  0  0  0  0  0  0  0
   -0.6800  -27.8581   33.8675 C   0  0  0  0  0  0  0  0  0  0  0  0
   -1.8277  -27.1492   33.1382 C   0  0  0  0  0  0  0  0  0  0  0  0
   -2.1316  -25.9144   33.9490 C   0  0  0  0  0  0  0  0  0  0  0  0
   -3.2361  -25.0869   33.3449 C   0  0  2  0  0  0  0  0  0  0  0  0
   -2.8716  -24.4667   32.1119 N   0  0  0  0  0  0  0  0  0  0  0  0
   -3.5163  -23.9862   34.3280 C   0  0  0  0  0  0  0  0  0  0  0  0
   -3.0117  -22.8382   34.2106 O   0  0  0  0  0  0  0  0  0  0  0  0
    0.5549  -31.0783   31.7520 N   0  0  0  0  0  0  0  0  0  0  0  0
   -4.3856  -24.2991   35.4109 C   0  0  1  0  0  0  0  0  0  0  0  0
   -4.8576  -23.2587   36.3023 C   0  0  0  0  0  0  0  0  0  0  0  0
   -5.7126  -22.2567   35.5296 S   0  0  0  0  0  0  0  0  0  0  0  0
   -6.3307  -21.0425   36.7375 C   0  0  0  0  0  0  0  0  0  0  0  0
   -5.6594  -23.8969   37.3701 O   0  0  0  0  0  0  0  0  0  0  0  0
   -5.5782  -23.4911   38.7047 O   0  0  0  0  0  0  0  0  0  0  0  0
  1  2  1  0
  2  3  1  0
  3  4  2  0
  3 13  1  0
  6  5  1  0
  7  6  2  0
  8  6  1  0
  9  8  1  0
 10  9  1  0
 10 11  1  0
 12 11  1  1
 12 14  1  0
 13 12  1  0
 14 15  2  0
 14 16  1  0
 16 17  1  0
 17 20  1  0
 17 18  1  1
 18 19  1  0
 20 21  1  0
 22 20  2  0
M  END
$$$$
