GRC.pdb
     RDKit          3D

 22 21  0  0  1  0  0  0  0  0999 V2000
    4.9165  -20.7926   22.5378 N   0  0  0  0  0  0  0  0  0  0  0  0
    4.8244  -19.6483   23.4356 C   0  0  0  0  0  0  0  0  0  0  0  0
    5.9022  -18.6607   23.1577 C   0  0  0  0  0  0  0  0  0  0  0  0
    7.0878  -19.0769   23.2150 O   0  0  0  0  0  0  0  0  0  0  0  0
    7.6442  -12.8299   18.1203 N   0  0  0  0  0  0  0  0  0  0  0  0
    8.7774  -13.6297   18.4070 C   0  0  0  0  0  0  0  0  0  0  0  0
    9.6357  -13.8660   17.4560 N   0  0  0  0  0  0  0  0  0  0  0  0
    8.9416  -14.1471   19.7162 N   0  0  0  0  0  0  0  0  0  0  0  0
    7.8982  -14.9063   20.3150 C   0  0  0  0  0  0  0  0  0  0  0  0
    7.3145  -14.2085   21.5495 C   0  0  0  0  0  0  0  0  0  0  0  0
    6.1740  -15.0785   22.0148 C   0  0  0  0  0  0  0  0  0  0  0  0
    6.6468  -16.3884   22.5896 C   0  0  2  0  0  0  0  0  0  0  0  0
    5.5884  -17.3123   22.8427 N   0  0  0  0  0  0  0  0  0  0  0  0
    7.2731  -16.0591   23.9146 C   0  0  0  0  0  0  0  0  0  0  0  0
    6.6128  -15.5550   24.8612 O   0  0  0  0  0  0  0  0  0  0  0  0
   10.4855  -14.4451   17.6010 N   0  0  0  0  0  0  0  0  0  0  0  0
    8.6606  -16.3436   24.0567 C   0  0  2  0  0  0  0  0  0  0  0  0
    9.3801  -15.9316   25.2452 C   0  0  0  0  0  0  0  0  0  0  0  0
    8.7701  -16.5908   26.4803 S   0  0  0  0  0  0  0  0  0  0  0  0
    8.9563  -18.3897   26.2693 C   0  0  0  0  0  0  0  0  0  0  0  0
   10.7935  -16.3432   25.0928 O   0  0  0  0  0  0  0  0  0  0  0  0
   11.7781  -15.9786   26.0149 O   0  0  0  0  0  0  0  0  0  0  0  0
  1  2  1  0
  2  3  1  0
  3  4  2  0
  3 13  1  0
  6  5  1  0
  7  6  2  0
  8  6  1  0
  9  8  1  0
 10  9  1  0
 10 11  1  0
 12 11  1  1
 12 14  1  0
 13 12  1  0
 14 15  2  0
 14 16  1  0
 16 17  1  0
 17 20  1  0
 17 18  1  6
 18 19  1  0
 20 21  1  0
 22 20  2  0
M  END
$$$$
