GRC.pdb
     RDKit          3D

 22 21  0  0  1  0  0  0  0  0999 V2000
    7.2376  -12.5844   18.8169 N   0  0  0  0  0  0  0  0  0  0  0  0
    8.3881  -12.8814   19.6608 C   0  0  0  0  0  0  0  0  0  0  0  0
    7.9692  -13.5506   20.9221 C   0  0  0  0  0  0  0  0  0  0  0  0
    6.9606  -13.0825   21.5102 O   0  0  0  0  0  0  0  0  0  0  0  0
   11.1017  -19.9271   19.6318 N   0  0  0  0  0  0  0  0  0  0  0  0
   10.0076  -20.5495   20.2812 C   0  0  0  0  0  0  0  0  0  0  0  0
    9.9199  -21.8490   20.2570 N   0  0  0  0  0  0  0  0  0  0  0  0
    9.0445  -19.7411   20.9351 N   0  0  0  0  0  0  0  0  0  0  0  0
    9.2093  -18.3285   20.9691 C   0  0  0  0  0  0  0  0  0  0  0  0
    8.0496  -17.6312   21.6905 C   0  0  0  0  0  0  0  0  0  0  0  0
    8.6849  -16.7439   22.7314 C   0  0  0  0  0  0  0  0  0  0  0  0
    8.2359  -15.3104   22.6170 C   0  0  2  0  0  0  0  0  0  0  0  0
    8.6872  -14.6675   21.4251 N   0  0  0  0  0  0  0  0  0  0  0  0
    8.8608  -14.5853   23.7747 C   0  0  0  0  0  0  0  0  0  0  0  0
   10.0583  -14.1957   23.7539 O   0  0  0  0  0  0  0  0  0  0  0  0
    9.1117  -22.3624   20.6592 N   0  0  0  0  0  0  0  0  0  0  0  0
    8.0331  -14.3550   24.9097 C   0  0  2  0  0  0  0  0  0  0  0  0
    8.5654  -13.7069   26.0914 C   0  0  0  0  0  0  0  0  0  0  0  0
    7.7707  -12.4386   26.3947 S   0  0  0  0  0  0  0  0  0  0  0  0
    6.0372  -12.9420   26.6338 C   0  0  0  0  0  0  0  0  0  0  0  0
    8.4624  -14.6562   27.2222 O   0  0  0  0  0  0  0  0  0  0  0  0
    9.0206  -14.3852   28.4742 O   0  0  0  0  0  0  0  0  0  0  0  0
  1  2  1  0
  2  3  1  0
  3  4  2  0
  3 13  1  0
  6  5  1  0
  7  6  2  0
  8  6  1  0
  9  8  1  0
 10  9  1  0
 10 11  1  0
 12 11  1  6
 12 14  1  0
 13 12  1  0
 14 15  2  0
 14 16  1  0
 16 17  1  0
 17 20  1  0
 17 18  1  6
 18 19  1  0
 20 21  1  0
 22 20  2  0
M  END
$$$$
