KHG.pdb
     RDKit          3D

 24 24  0  0  1  0  0  0  0  0999 V2000
   19.9385   -8.7849  -14.9482 N   0  0  0  0  0  0  0  0  0  0  0  0
   21.1538   -9.1070  -15.5755 C   0  0  1  0  0  0  0  0  0  0  0  0
   21.2325  -10.2685  -16.4854 C   0  0  0  0  0  0  0  0  0  0  0  0
   20.1961  -11.2792  -16.5827 C   0  0  0  0  0  0  0  0  0  0  0  0
   20.1455  -12.4017  -17.4957 C   0  0  0  0  0  0  0  0  0  0  0  0
   19.0367  -13.3642  -17.5680 C   0  0  0  0  0  0  0  0  0  0  0  0
   19.6881  -14.7019  -17.2980 N   0  0  0  0  0  0  0  0  0  0  0  0
   21.6661   -7.8505  -16.2590 C   0  0  0  0  0  0  0  0  0  0  0  0
   22.8173   -7.8858  -16.7331 O   0  0  0  0  0  0  0  0  0  0  0  0
   20.8944   -6.6749  -16.3693 N   0  0  0  0  0  0  0  0  0  0  0  0
   21.3653   -5.5090  -17.1360 C   0  0  1  0  0  0  0  0  0  0  0  0
   20.5154   -5.4705  -18.3685 C   0  0  0  0  0  0  0  0  0  0  0  0
   20.5776   -6.6134  -19.2692 C   0  0  0  0  0  0  0  0  0  0  0  0
   19.5756   -7.5015  -19.6630 C   0  0  0  0  0  0  0  0  0  0  0  0
   20.1222   -8.4217  -20.4790 N   0  0  0  0  0  0  0  0  0  0  0  0
   21.4269   -8.1608  -20.6231 C   0  0  0  0  0  0  0  0  0  0  0  0
   21.6945   -7.0798  -19.8986 N   0  0  0  0  0  0  0  0  0  0  0  0
   21.2861   -4.2870  -16.3452 C   0  0  0  0  0  0  0  0  0  0  0  0
   20.5750   -4.1643  -15.3054 O   0  0  0  0  0  0  0  0  0  0  0  0
   22.0435   -3.1464  -16.7322 N   0  0  0  0  0  0  0  0  0  0  0  0
   22.0360   -1.9200  -15.9696 C   0  0  0  0  0  0  0  0  0  0  0  0
   20.7405   -1.2127  -15.9778 C   0  0  0  0  0  0  0  0  0  0  0  0
   19.7828   -1.6759  -16.6381 O   0  0  0  0  0  0  0  0  0  0  0  0
   20.5826   -0.0384  -15.2569 O   0  0  0  0  0  0  0  0  0  0  0  0
  2  1  1  6
  3  2  1  0
  4  3  1  0
  5  6  1  0
  5  4  1  0
  6  7  1  0
  8  2  1  0
  9  8  2  0
 10  8  1  0
 11 10  1  0
 11 12  1  6
 12 13  1  0
 13 14  2  0
 15 14  1  0
 16 15  1  0
 17 16  2  0
 17 13  1  0
 18 11  1  0
 19 18  2  0
 20 18  1  0
 21 20  1  0
 22 24  1  0
 22 21  1  0
 23 22  2  0
M  END
$$$$
