KHG.pdb
     RDKit          3D

 24 24  0  0  1  0  0  0  0  0999 V2000
   29.8403  -37.0792   -7.7280 N   0  0  0  0  0  0  0  0  0  0  0  0
   28.7473  -37.3325   -6.8823 C   0  0  1  0  0  0  0  0  0  0  0  0
   28.7270  -38.5477   -6.0421 C   0  0  0  0  0  0  0  0  0  0  0  0
   29.2033  -39.8410   -6.4957 C   0  0  0  0  0  0  0  0  0  0  0  0
   29.1922  -41.0889   -5.7619 C   0  0  0  0  0  0  0  0  0  0  0  0
   29.6543  -42.3751   -6.3034 C   0  0  0  0  0  0  0  0  0  0  0  0
   29.3441  -43.3717   -5.2092 N   0  0  0  0  0  0  0  0  0  0  0  0
   28.5206  -36.0894   -6.0386 C   0  0  0  0  0  0  0  0  0  0  0  0
   29.5039  -35.3551   -5.8257 O   0  0  0  0  0  0  0  0  0  0  0  0
   27.2601  -35.7518   -5.5032 N   0  0  0  0  0  0  0  0  0  0  0  0
   27.0419  -34.4923   -4.7719 C   0  0  1  0  0  0  0  0  0  0  0  0
   25.8242  -33.8766   -5.3894 C   0  0  0  0  0  0  0  0  0  0  0  0
   25.9823  -33.2047   -6.6719 C   0  0  0  0  0  0  0  0  0  0  0  0
   27.1177  -33.0449   -7.4676 C   0  0  0  0  0  0  0  0  0  0  0  0
   26.7796  -32.3144   -8.5462 N   0  0  0  0  0  0  0  0  0  0  0  0
   25.4803  -32.0011   -8.4742 C   0  0  0  0  0  0  0  0  0  0  0  0
   25.0083  -32.5350   -7.3530 N   0  0  0  0  0  0  0  0  0  0  0  0
   26.9032  -34.7274   -3.3399 C   0  0  0  0  0  0  0  0  0  0  0  0
   26.1571  -35.6194   -2.8404 O   0  0  0  0  0  0  0  0  0  0  0  0
   27.6391  -33.9297   -2.4199 N   0  0  0  0  0  0  0  0  0  0  0  0
   27.4505  -34.0267   -0.9914 C   0  0  0  0  0  0  0  0  0  0  0  0
   28.1777  -35.1463   -0.3618 C   0  0  0  0  0  0  0  0  0  0  0  0
   28.8129  -35.9555   -1.0755 O   0  0  0  0  0  0  0  0  0  0  0  0
   28.1586  -35.3031    1.0161 O   0  0  0  0  0  0  0  0  0  0  0  0
  2  1  1  1
  3  2  1  0
  4  3  1  0
  5  6  1  0
  5  4  1  0
  6  7  1  0
  8  2  1  0
  9  8  2  0
 10  8  1  0
 11 10  1  0
 11 12  1  6
 12 13  1  0
 13 14  2  0
 15 14  1  0
 16 15  1  0
 17 16  2  0
 17 13  1  0
 18 11  1  0
 19 18  2  0
 20 18  1  0
 21 20  1  0
 22 24  1  0
 22 21  1  0
 23 22  2  0
M  END
$$$$
