KHG.pdb
     RDKit          3D

 24 24  0  0  1  0  0  0  0  0999 V2000
   19.9762  -13.3972  -18.5819 N   0  0  0  0  0  0  0  0  0  0  0  0
   19.7345  -12.8712  -17.3017 C   0  0  1  0  0  0  0  0  0  0  0  0
   20.2750  -13.5521  -16.1070 C   0  0  0  0  0  0  0  0  0  0  0  0
   19.7975  -14.8386  -15.6359 C   0  0  0  0  0  0  0  0  0  0  0  0
   18.4646  -15.1668  -15.1756 C   0  0  0  0  0  0  0  0  0  0  0  0
   18.0682  -16.4803  -14.6474 C   0  0  0  0  0  0  0  0  0  0  0  0
   16.6049  -16.3159  -14.3034 N   0  0  0  0  0  0  0  0  0  0  0  0
   20.1442  -11.4082  -17.3204 C   0  0  0  0  0  0  0  0  0  0  0  0
   21.1662  -11.1084  -17.9663 O   0  0  0  0  0  0  0  0  0  0  0  0
   19.4185  -10.4052  -16.6445 N   0  0  0  0  0  0  0  0  0  0  0  0
   19.8234   -8.9902  -16.6941 C   0  0  1  0  0  0  0  0  0  0  0  0
   18.6476   -8.2569  -17.2622 C   0  0  0  0  0  0  0  0  0  0  0  0
   18.2936   -8.5185  -18.6505 C   0  0  0  0  0  0  0  0  0  0  0  0
   18.7695   -7.9317  -19.8240 C   0  0  0  0  0  0  0  0  0  0  0  0
   18.1130   -8.4752  -20.8656 N   0  0  0  0  0  0  0  0  0  0  0  0
   17.2402   -9.3816  -20.4096 C   0  0  0  0  0  0  0  0  0  0  0  0
   17.3516   -9.4040  -19.0860 N   0  0  0  0  0  0  0  0  0  0  0  0
   20.2212   -8.5058  -15.3779 C   0  0  0  0  0  0  0  0  0  0  0  0
   19.8577   -9.0406  -14.2899 O   0  0  0  0  0  0  0  0  0  0  0  0
   21.0720   -7.3704  -15.2720 N   0  0  0  0  0  0  0  0  0  0  0  0
   21.5511   -6.8811  -14.0005 C   0  0  0  0  0  0  0  0  0  0  0  0
   22.2996   -5.6118  -14.0861 C   0  0  0  0  0  0  0  0  0  0  0  0
   22.5889   -5.1344  -15.2068 O   0  0  0  0  0  0  0  0  0  0  0  0
   22.6820   -4.9485  -12.9297 O   0  0  0  0  0  0  0  0  0  0  0  0
  2  1  1  6
  3  2  1  0
  4  3  1  0
  5  6  1  0
  5  4  1  0
  6  7  1  0
  8  2  1  0
  9  8  2  0
 10  8  1  0
 11 10  1  0
 11 12  1  1
 12 13  1  0
 13 14  2  0
 15 14  1  0
 16 15  1  0
 17 16  2  0
 17 13  1  0
 18 11  1  0
 19 18  2  0
 20 18  1  0
 21 20  1  0
 22 24  1  0
 22 21  1  0
 23 22  2  0
M  END
$$$$
