KHG.pdb
     RDKit          3D

 24 24  0  0  1  0  0  0  0  0999 V2000
   28.0919  -36.3320   -8.3090 N   0  0  0  0  0  0  0  0  0  0  0  0
   28.0149  -35.3532   -7.3040 C   0  0  1  0  0  0  0  0  0  0  0  0
   26.7280  -35.0831   -6.6303 C   0  0  0  0  0  0  0  0  0  0  0  0
   25.6103  -34.4223   -7.2777 C   0  0  0  0  0  0  0  0  0  0  0  0
   25.6196  -33.1466   -7.9622 C   0  0  0  0  0  0  0  0  0  0  0  0
   24.4420  -32.5346   -8.5946 C   0  0  0  0  0  0  0  0  0  0  0  0
   24.9890  -31.3078   -9.2892 N   0  0  0  0  0  0  0  0  0  0  0  0
   29.1041  -35.6508   -6.2874 C   0  0  0  0  0  0  0  0  0  0  0  0
   29.4431  -36.8407   -6.1436 O   0  0  0  0  0  0  0  0  0  0  0  0
   29.7267  -34.6434   -5.5211 N   0  0  0  0  0  0  0  0  0  0  0  0
   30.7639  -34.9587   -4.5244 C   0  0  1  0  0  0  0  0  0  0  0  0
   31.7548  -33.8389   -4.6098 C   0  0  0  0  0  0  0  0  0  0  0  0
   32.6220  -33.7907   -5.7789 C   0  0  0  0  0  0  0  0  0  0  0  0
   32.8328  -34.7402   -6.7799 C   0  0  0  0  0  0  0  0  0  0  0  0
   33.7585  -34.2602   -7.6307 N   0  0  0  0  0  0  0  0  0  0  0  0
   34.1476  -33.0480   -7.2176 C   0  0  0  0  0  0  0  0  0  0  0  0
   33.4660  -32.7718   -6.1112 N   0  0  0  0  0  0  0  0  0  0  0  0
   30.1900  -35.1176   -3.1937 C   0  0  0  0  0  0  0  0  0  0  0  0
   29.2957  -34.3600   -2.7161 O   0  0  0  0  0  0  0  0  0  0  0  0
   30.6335  -36.1792   -2.3568 N   0  0  0  0  0  0  0  0  0  0  0  0
   30.0367  -36.4479   -1.0694 C   0  0  0  0  0  0  0  0  0  0  0  0
   30.5313  -35.5801    0.0174 C   0  0  0  0  0  0  0  0  0  0  0  0
   30.0800  -35.7172    1.1772 O   0  0  0  0  0  0  0  0  0  0  0  0
   31.4929  -34.6153   -0.2436 O   0  0  0  0  0  0  0  0  0  0  0  0
  2  1  1  6
  3  2  1  0
  4  3  1  0
  5  6  1  0
  5  4  1  0
  6  7  1  0
  8  2  1  0
  9  8  2  0
 10  8  1  0
 11 10  1  0
 11 12  1  1
 12 13  1  0
 13 14  2  0
 15 14  1  0
 16 15  1  0
 17 16  2  0
 17 13  1  0
 18 11  1  0
 19 18  2  0
 20 18  1  0
 21 20  1  0
 22 24  1  0
 22 21  1  0
 23 22  2  0
M  END
$$$$
