KHG.pdb
     RDKit          3D

 24 24  0  0  1  0  0  0  0  0999 V2000
   22.1075  -19.5895  -16.5979 N   0  0  0  0  0  0  0  0  0  0  0  0
   23.2152  -19.8095  -15.7621 C   0  0  1  0  0  0  0  0  0  0  0  0
   24.2140  -20.8405  -16.1123 C   0  0  0  0  0  0  0  0  0  0  0  0
   23.8622  -22.1622  -16.5966 C   0  0  0  0  0  0  0  0  0  0  0  0
   22.6017  -22.8540  -16.4271 C   0  0  0  0  0  0  0  0  0  0  0  0
   22.3032  -24.1836  -16.9786 C   0  0  0  0  0  0  0  0  0  0  0  0
   20.8946  -24.4721  -16.5104 N   0  0  0  0  0  0  0  0  0  0  0  0
   23.8861  -18.4672  -15.5242 C   0  0  0  0  0  0  0  0  0  0  0  0
   24.7866  -18.4218  -14.6649 O   0  0  0  0  0  0  0  0  0  0  0  0
   23.5274  -17.3005  -16.2311 N   0  0  0  0  0  0  0  0  0  0  0  0
   24.0867  -15.9829  -15.8849 C   0  0  1  0  0  0  0  0  0  0  0  0
   24.8703  -15.5524  -17.0864 C   0  0  0  0  0  0  0  0  0  0  0  0
   26.1960  -16.1265  -17.2708 C   0  0  0  0  0  0  0  0  0  0  0  0
   26.8481  -17.1290  -16.5513 C   0  0  0  0  0  0  0  0  0  0  0  0
   28.0787  -17.2914  -17.0714 N   0  0  0  0  0  0  0  0  0  0  0  0
   28.2409  -16.4381  -18.0897 C   0  0  0  0  0  0  0  0  0  0  0  0
   27.1138  -15.7443  -18.2050 N   0  0  0  0  0  0  0  0  0  0  0  0
   23.0369  -15.0412  -15.5161 C   0  0  0  0  0  0  0  0  0  0  0  0
   23.2393  -13.8127  -15.2887 O   0  0  0  0  0  0  0  0  0  0  0  0
   21.6928  -15.4932  -15.4008 N   0  0  0  0  0  0  0  0  0  0  0  0
   20.6356  -14.6496  -14.8945 C   0  0  0  0  0  0  0  0  0  0  0  0
   19.9438  -13.8610  -15.9328 C   0  0  0  0  0  0  0  0  0  0  0  0
   20.2959  -13.9636  -17.1299 O   0  0  0  0  0  0  0  0  0  0  0  0
   18.9067  -13.0082  -15.5853 O   0  0  0  0  0  0  0  0  0  0  0  0
  2  1  1  6
  3  2  1  0
  4  3  1  0
  5  6  1  0
  5  4  1  0
  6  7  1  0
  8  2  1  0
  9  8  2  0
 10  8  1  0
 11 10  1  0
 11 12  1  6
 12 13  1  0
 13 14  2  0
 15 14  1  0
 16 15  1  0
 17 16  2  0
 17 13  1  0
 18 11  1  0
 19 18  2  0
 20 18  1  0
 21 20  1  0
 22 24  1  0
 22 21  1  0
 23 22  2  0
M  END
$$$$
