KHG.pdb
     RDKit          3D

 24 24  0  0  1  0  0  0  0  0999 V2000
   16.4866  -19.5952    1.9502 N   0  0  0  0  0  0  0  0  0  0  0  0
   15.9659  -19.5793    3.2550 C   0  0  1  0  0  0  0  0  0  0  0  0
   15.6580  -20.8491    3.9450 C   0  0  0  0  0  0  0  0  0  0  0  0
   14.5665  -21.7238    3.5595 C   0  0  0  0  0  0  0  0  0  0  0  0
   14.1245  -22.9272    4.2323 C   0  0  0  0  0  0  0  0  0  0  0  0
   13.0749  -23.8238    3.7266 C   0  0  0  0  0  0  0  0  0  0  0  0
   12.9127  -24.8581    4.8177 N   0  0  0  0  0  0  0  0  0  0  0  0
   16.8789  -18.7114    4.1044 C   0  0  0  0  0  0  0  0  0  0  0  0
   18.0870  -18.6852    3.8026 O   0  0  0  0  0  0  0  0  0  0  0  0
   16.4091  -17.9535    5.1973 N   0  0  0  0  0  0  0  0  0  0  0  0
   17.2798  -17.0059    5.9134 C   0  0  1  0  0  0  0  0  0  0  0  0
   16.9038  -15.6502    5.4001 C   0  0  0  0  0  0  0  0  0  0  0  0
   17.4477  -15.2395    4.1129 C   0  0  0  0  0  0  0  0  0  0  0  0
   18.3439  -15.8944    3.2669 C   0  0  0  0  0  0  0  0  0  0  0  0
   18.5817  -15.1011    2.2061 N   0  0  0  0  0  0  0  0  0  0  0  0
   17.8780  -13.9702    2.3373 C   0  0  0  0  0  0  0  0  0  0  0  0
   17.2022  -14.0573    3.4778 N   0  0  0  0  0  0  0  0  0  0  0  0
   17.1298  -17.1351    7.3577 C   0  0  0  0  0  0  0  0  0  0  0  0
   16.0388  -17.4238    7.9306 O   0  0  0  0  0  0  0  0  0  0  0  0
   18.2562  -16.9373    8.2041 N   0  0  0  0  0  0  0  0  0  0  0  0
   18.1718  -17.0546    9.6411 C   0  0  0  0  0  0  0  0  0  0  0  0
   17.6057  -15.8673   10.3107 C   0  0  0  0  0  0  0  0  0  0  0  0
   17.5613  -15.8201   11.5611 O   0  0  0  0  0  0  0  0  0  0  0  0
   17.1238  -14.8062    9.5588 O   0  0  0  0  0  0  0  0  0  0  0  0
  2  1  1  6
  3  2  1  0
  4  3  1  0
  5  6  1  0
  5  4  1  0
  6  7  1  0
  8  2  1  0
  9  8  2  0
 10  8  1  0
 11 10  1  0
 11 12  1  6
 12 13  1  0
 13 14  2  0
 15 14  1  0
 16 15  1  0
 17 16  2  0
 17 13  1  0
 18 11  1  0
 19 18  2  0
 20 18  1  0
 21 20  1  0
 22 24  1  0
 22 21  1  0
 23 22  2  0
M  END
$$$$
