KHG.pdb
     RDKit          3D

 24 24  0  0  1  0  0  0  0  0999 V2000
   26.2110  -24.4777  -16.3915 N   0  0  0  0  0  0  0  0  0  0  0  0
   26.5729  -23.1841  -15.9798 C   0  0  1  0  0  0  0  0  0  0  0  0
   27.0598  -22.2009  -16.9696 C   0  0  0  0  0  0  0  0  0  0  0  0
   27.9983  -22.5286  -18.0264 C   0  0  0  0  0  0  0  0  0  0  0  0
   29.2046  -23.3216  -17.9165 C   0  0  0  0  0  0  0  0  0  0  0  0
   30.5617  -22.8055  -18.1464 C   0  0  0  0  0  0  0  0  0  0  0  0
   30.6082  -22.5324  -19.6329 N   0  0  0  0  0  0  0  0  0  0  0  0
   25.4140  -22.6148  -15.1790 C   0  0  0  0  0  0  0  0  0  0  0  0
   24.2621  -22.8983  -15.5587 O   0  0  0  0  0  0  0  0  0  0  0  0
   25.6007  -21.7951  -14.0464 N   0  0  0  0  0  0  0  0  0  0  0  0
   24.4615  -21.2325  -13.3018 C   0  0  1  0  0  0  0  0  0  0  0  0
   24.9825  -20.9498  -11.9264 C   0  0  0  0  0  0  0  0  0  0  0  0
   24.0380  -21.0114  -10.8194 C   0  0  0  0  0  0  0  0  0  0  0  0
   22.6533  -21.1854  -10.8295 C   0  0  0  0  0  0  0  0  0  0  0  0
   22.2107  -21.1337   -9.5595 N   0  0  0  0  0  0  0  0  0  0  0  0
   23.2503  -20.9346   -8.7403 C   0  0  0  0  0  0  0  0  0  0  0  0
   24.3396  -20.8621   -9.4973 N   0  0  0  0  0  0  0  0  0  0  0  0
   23.9245  -20.0515  -13.9666 C   0  0  0  0  0  0  0  0  0  0  0  0
   24.6126  -19.2770  -14.6936 O   0  0  0  0  0  0  0  0  0  0  0  0
   22.5485  -19.7221  -13.8161 N   0  0  0  0  0  0  0  0  0  0  0  0
   21.5132  -20.3561  -14.5983 C   0  0  0  0  0  0  0  0  0  0  0  0
   21.3469  -19.7894  -15.9510 C   0  0  0  0  0  0  0  0  0  0  0  0
   21.8450  -18.6735  -16.2237 O   0  0  0  0  0  0  0  0  0  0  0  0
   20.6413  -20.4894  -16.9183 O   0  0  0  0  0  0  0  0  0  0  0  0
  2  1  1  6
  3  2  1  0
  4  3  1  0
  5  6  1  0
  5  4  1  0
  6  7  1  0
  8  2  1  0
  9  8  2  0
 10  8  1  0
 11 10  1  0
 11 12  1  1
 12 13  1  0
 13 14  2  0
 15 14  1  0
 16 15  1  0
 17 16  2  0
 17 13  1  0
 18 11  1  0
 19 18  2  0
 20 18  1  0
 21 20  1  0
 22 24  1  0
 22 21  1  0
 23 22  2  0
M  END
$$$$
