KHG.pdb
     RDKit          3D

 24 24  0  0  1  0  0  0  0  0999 V2000
   22.5621  -16.4754  -18.7722 N   0  0  0  0  0  0  0  0  0  0  0  0
   22.7459  -17.6992  -18.1069 C   0  0  1  0  0  0  0  0  0  0  0  0
   23.8128  -17.8388  -17.0942 C   0  0  0  0  0  0  0  0  0  0  0  0
   25.1972  -17.4790  -17.3372 C   0  0  0  0  0  0  0  0  0  0  0  0
   25.9236  -17.5716  -18.5861 C   0  0  0  0  0  0  0  0  0  0  0  0
   27.3163  -17.1388  -18.7710 C   0  0  0  0  0  0  0  0  0  0  0  0
   27.6312  -17.5035  -20.2044 N   0  0  0  0  0  0  0  0  0  0  0  0
   21.4019  -18.1190  -17.5360 C   0  0  0  0  0  0  0  0  0  0  0  0
   21.3627  -19.1810  -16.8864 O   0  0  0  0  0  0  0  0  0  0  0  0
   20.2271  -17.3594  -17.7160 N   0  0  0  0  0  0  0  0  0  0  0  0
   18.9220  -17.8217  -17.2143 C   0  0  1  0  0  0  0  0  0  0  0  0
   18.4635  -16.7645  -16.2577 C   0  0  0  0  0  0  0  0  0  0  0  0
   19.0435  -16.7635  -14.9217 C   0  0  0  0  0  0  0  0  0  0  0  0
   19.9527  -17.6465  -14.3372 C   0  0  0  0  0  0  0  0  0  0  0  0
   20.1625  -17.2581  -13.0658 N   0  0  0  0  0  0  0  0  0  0  0  0
   19.4283  -16.1679  -12.8132 C   0  0  0  0  0  0  0  0  0  0  0  0
   18.7616  -15.8761  -13.9246 N   0  0  0  0  0  0  0  0  0  0  0  0
   17.9852  -18.0529  -18.3070 C   0  0  0  0  0  0  0  0  0  0  0  0
   17.9763  -17.3847  -19.3819 O   0  0  0  0  0  0  0  0  0  0  0  0
   17.0131  -19.0858  -18.1958 N   0  0  0  0  0  0  0  0  0  0  0  0
   16.0135  -19.3175  -19.2120 C   0  0  0  0  0  0  0  0  0  0  0  0
   16.4560  -20.2106  -20.3007 C   0  0  0  0  0  0  0  0  0  0  0  0
   17.6492  -20.5867  -20.3508 O   0  0  0  0  0  0  0  0  0  0  0  0
   15.5542  -20.6331  -21.2660 O   0  0  0  0  0  0  0  0  0  0  0  0
  2  1  1  1
  3  2  1  0
  4  3  1  0
  5  6  1  0
  5  4  1  0
  6  7  1  0
  8  2  1  0
  9  8  2  0
 10  8  1  0
 11 10  1  0
 11 12  1  1
 12 13  1  0
 13 14  2  0
 15 14  1  0
 16 15  1  0
 17 16  2  0
 17 13  1  0
 18 11  1  0
 19 18  2  0
 20 18  1  0
 21 20  1  0
 22 24  1  0
 22 21  1  0
 23 22  2  0
M  END
$$$$
