KHG.pdb
     RDKit          3D

 24 24  0  0  1  0  0  0  0  0999 V2000
   29.1007  -27.4739  -17.0939 N   0  0  0  0  0  0  0  0  0  0  0  0
   27.7527  -27.3067  -17.4530 C   0  0  1  0  0  0  0  0  0  0  0  0
   26.8549  -28.4780  -17.5258 C   0  0  0  0  0  0  0  0  0  0  0  0
   26.8856  -29.4422  -18.6096 C   0  0  0  0  0  0  0  0  0  0  0  0
   27.8168  -29.4907  -19.7172 C   0  0  0  0  0  0  0  0  0  0  0  0
   27.7205  -30.4316  -20.8426 C   0  0  0  0  0  0  0  0  0  0  0  0
   28.9224  -30.1077  -21.7012 N   0  0  0  0  0  0  0  0  0  0  0  0
   27.1664  -26.2328  -16.5523 C   0  0  0  0  0  0  0  0  0  0  0  0
   27.4682  -26.2714  -15.3444 O   0  0  0  0  0  0  0  0  0  0  0  0
   26.3117  -25.2188  -17.0328 N   0  0  0  0  0  0  0  0  0  0  0  0
   25.7676  -24.1790  -16.1432 C   0  0  1  0  0  0  0  0  0  0  0  0
   25.8701  -22.8989  -16.9139 C   0  0  0  0  0  0  0  0  0  0  0  0
   25.3489  -21.6903  -16.2904 C   0  0  0  0  0  0  0  0  0  0  0  0
   24.8223  -21.4949  -15.0127 C   0  0  0  0  0  0  0  0  0  0  0  0
   24.4326  -20.2110  -14.9072 N   0  0  0  0  0  0  0  0  0  0  0  0
   24.6865  -19.5792  -16.0594 C   0  0  0  0  0  0  0  0  0  0  0  0
   25.2338  -20.4667  -16.8826 N   0  0  0  0  0  0  0  0  0  0  0  0
   24.4053  -24.4935  -15.7305 C   0  0  0  0  0  0  0  0  0  0  0  0
   23.5052  -24.9018  -16.5211 O   0  0  0  0  0  0  0  0  0  0  0  0
   24.0311  -24.3498  -14.3654 N   0  0  0  0  0  0  0  0  0  0  0  0
   22.7717  -24.8387  -13.8548 C   0  0  0  0  0  0  0  0  0  0  0  0
   21.6262  -23.9467  -14.1207 C   0  0  0  0  0  0  0  0  0  0  0  0
   21.8246  -22.7992  -14.5807 O   0  0  0  0  0  0  0  0  0  0  0  0
   20.3331  -24.3765  -13.8623 O   0  0  0  0  0  0  0  0  0  0  0  0
  2  1  1  1
  3  2  1  0
  4  3  1  0
  5  6  1  0
  5  4  1  0
  6  7  1  0
  8  2  1  0
  9  8  2  0
 10  8  1  0
 11 10  1  0
 11 12  1  6
 12 13  1  0
 13 14  2  0
 15 14  1  0
 16 15  1  0
 17 16  2  0
 17 13  1  0
 18 11  1  0
 19 18  2  0
 20 18  1  0
 21 20  1  0
 22 24  1  0
 22 21  1  0
 23 22  2  0
M  END
$$$$
