KHG.pdb
     RDKit          3D

 24 24  0  0  1  0  0  0  0  0999 V2000
   25.7506  -14.5265  -19.1300 N   0  0  0  0  0  0  0  0  0  0  0  0
   27.1142  -14.7110  -18.8462 C   0  0  1  0  0  0  0  0  0  0  0  0
   27.7516  -16.0208  -19.0939 C   0  0  0  0  0  0  0  0  0  0  0  0
   27.0067  -17.2249  -19.4104 C   0  0  0  0  0  0  0  0  0  0  0  0
   26.2242  -18.0386  -18.5038 C   0  0  0  0  0  0  0  0  0  0  0  0
   25.5331  -19.2783  -18.8865 C   0  0  0  0  0  0  0  0  0  0  0  0
   25.0039  -19.8267  -17.5804 N   0  0  0  0  0  0  0  0  0  0  0  0
   27.8829  -13.5976  -19.5375 C   0  0  0  0  0  0  0  0  0  0  0  0
   27.5499  -12.4257  -19.2782 O   0  0  0  0  0  0  0  0  0  0  0  0
   28.9364  -13.8469  -20.4416 N   0  0  0  0  0  0  0  0  0  0  0  0
   29.7319  -12.7530  -21.0240 C   0  0  1  0  0  0  0  0  0  0  0  0
   30.4227  -12.1001  -19.8666 C   0  0  0  0  0  0  0  0  0  0  0  0
   29.8399  -10.8764  -19.3337 C   0  0  0  0  0  0  0  0  0  0  0  0
   28.7213  -10.1567  -19.7565 C   0  0  0  0  0  0  0  0  0  0  0  0
   28.5982   -9.0678  -18.9752 N   0  0  0  0  0  0  0  0  0  0  0  0
   29.5875   -9.0605  -18.0736 C   0  0  0  0  0  0  0  0  0  0  0  0
   30.3266  -10.1426  -18.2916 N   0  0  0  0  0  0  0  0  0  0  0  0
   30.6544  -13.2493  -22.0378 C   0  0  0  0  0  0  0  0  0  0  0  0
   31.4981  -14.1704  -21.8336 O   0  0  0  0  0  0  0  0  0  0  0  0
   30.6295  -12.6926  -23.3469 N   0  0  0  0  0  0  0  0  0  0  0  0
   31.5640  -13.0916  -24.3731 C   0  0  0  0  0  0  0  0  0  0  0  0
   31.4200  -12.3501  -25.6412 C   0  0  0  0  0  0  0  0  0  0  0  0
   31.4561  -12.9668  -26.7302 O   0  0  0  0  0  0  0  0  0  0  0  0
   31.2453  -10.9742  -25.6284 O   0  0  0  0  0  0  0  0  0  0  0  0
  2  1  1  6
  3  2  1  0
  4  3  1  0
  5  6  1  0
  5  4  1  0
  6  7  1  0
  8  2  1  0
  9  8  2  0
 10  8  1  0
 11 10  1  0
 11 12  1  1
 12 13  1  0
 13 14  2  0
 15 14  1  0
 16 15  1  0
 17 16  2  0
 17 13  1  0
 18 11  1  0
 19 18  2  0
 20 18  1  0
 21 20  1  0
 22 24  1  0
 22 21  1  0
 23 22  2  0
M  END
$$$$
