KHG.pdb
     RDKit          3D

 24 24  0  0  1  0  0  0  0  0999 V2000
   21.1828  -12.1433  -18.7381 N   0  0  0  0  0  0  0  0  0  0  0  0
   22.0546  -11.2076  -18.1561 C   0  0  1  0  0  0  0  0  0  0  0  0
   23.0644  -10.5196  -18.9868 C   0  0  0  0  0  0  0  0  0  0  0  0
   23.9385  -11.2094  -19.9169 C   0  0  0  0  0  0  0  0  0  0  0  0
   24.8820  -10.6167  -20.8414 C   0  0  0  0  0  0  0  0  0  0  0  0
   25.6984  -11.3786  -21.7975 C   0  0  0  0  0  0  0  0  0  0  0  0
   26.4664  -12.3547  -20.9348 N   0  0  0  0  0  0  0  0  0  0  0  0
   21.2082  -10.2027  -17.3930 C   0  0  0  0  0  0  0  0  0  0  0  0
   20.1850   -9.7710  -17.9570 O   0  0  0  0  0  0  0  0  0  0  0  0
   21.5398   -9.7561  -16.0968 N   0  0  0  0  0  0  0  0  0  0  0  0
   20.7859   -8.6795  -15.4325 C   0  0  1  0  0  0  0  0  0  0  0  0
   19.9312   -9.3618  -14.4093 C   0  0  0  0  0  0  0  0  0  0  0  0
   18.8855  -10.2553  -14.8884 C   0  0  0  0  0  0  0  0  0  0  0  0
   18.8805  -11.6453  -15.0139 C   0  0  0  0  0  0  0  0  0  0  0  0
   17.7005  -12.0185  -15.5427 N   0  0  0  0  0  0  0  0  0  0  0  0
   16.9532  -10.9297  -15.7603 C   0  0  0  0  0  0  0  0  0  0  0  0
   17.6651   -9.8789  -15.3680 N   0  0  0  0  0  0  0  0  0  0  0  0
   21.6801   -7.6806  -14.8602 C   0  0  0  0  0  0  0  0  0  0  0  0
   22.8444   -7.9370  -14.4350 O   0  0  0  0  0  0  0  0  0  0  0  0
   21.2547   -6.3265  -14.7628 N   0  0  0  0  0  0  0  0  0  0  0  0
   22.1450   -5.2653  -14.3542 C   0  0  0  0  0  0  0  0  0  0  0  0
   21.5610   -3.9139  -14.4599 C   0  0  0  0  0  0  0  0  0  0  0  0
   20.4129   -3.7678  -14.9376 O   0  0  0  0  0  0  0  0  0  0  0  0
   22.2802   -2.8080  -14.0317 O   0  0  0  0  0  0  0  0  0  0  0  0
  2  1  1  6
  3  2  1  0
  4  3  1  0
  5  6  1  0
  5  4  1  0
  6  7  1  0
  8  2  1  0
  9  8  2  0
 10  8  1  0
 11 10  1  0
 11 12  1  1
 12 13  1  0
 13 14  2  0
 15 14  1  0
 16 15  1  0
 17 16  2  0
 17 13  1  0
 18 11  1  0
 19 18  2  0
 20 18  1  0
 21 20  1  0
 22 24  1  0
 22 21  1  0
 23 22  2  0
M  END
$$$$
