KHG.pdb
     RDKit          3D

 24 24  0  0  1  0  0  0  0  0999 V2000
   22.4330  -21.8557  -10.5677 N   0  0  0  0  0  0  0  0  0  0  0  0
   21.2285  -21.5569  -11.2263 C   0  0  1  0  0  0  0  0  0  0  0  0
   20.0963  -20.9788  -10.4733 C   0  0  0  0  0  0  0  0  0  0  0  0
   19.2890  -21.7377   -9.5365 C   0  0  0  0  0  0  0  0  0  0  0  0
   19.2069  -23.1778   -9.4120 C   0  0  0  0  0  0  0  0  0  0  0  0
   18.3811  -23.8799   -8.4189 C   0  0  0  0  0  0  0  0  0  0  0  0
   18.7152  -25.3404   -8.6240 N   0  0  0  0  0  0  0  0  0  0  0  0
   21.5653  -20.7009  -12.4356 C   0  0  0  0  0  0  0  0  0  0  0  0
   22.1440  -19.6179  -12.2268 O   0  0  0  0  0  0  0  0  0  0  0  0
   21.2494  -21.0881  -13.7546 N   0  0  0  0  0  0  0  0  0  0  0  0
   21.6520  -20.2779  -14.9166 C   0  0  1  0  0  0  0  0  0  0  0  0
   22.3125  -21.2338  -15.8617 C   0  0  0  0  0  0  0  0  0  0  0  0
   23.5245  -21.9030  -15.4096 C   0  0  0  0  0  0  0  0  0  0  0  0
   24.7888  -21.3804  -15.1334 C   0  0  0  0  0  0  0  0  0  0  0  0
   25.5997  -22.3960  -14.7839 N   0  0  0  0  0  0  0  0  0  0  0  0
   24.9101  -23.5423  -14.8248 C   0  0  0  0  0  0  0  0  0  0  0  0
   23.6710  -23.2429  -15.1991 N   0  0  0  0  0  0  0  0  0  0  0  0
   20.5099  -19.5873  -15.5031 C   0  0  0  0  0  0  0  0  0  0  0  0
   19.3129  -19.9830  -15.3915 O   0  0  0  0  0  0  0  0  0  0  0  0
   20.7147  -18.3919  -16.2469 N   0  0  0  0  0  0  0  0  0  0  0  0
   19.6187  -17.6184  -16.7818 C   0  0  0  0  0  0  0  0  0  0  0  0
   18.7829  -18.3495  -17.7542 C   0  0  0  0  0  0  0  0  0  0  0  0
   18.5183  -19.5582  -17.5627 O   0  0  0  0  0  0  0  0  0  0  0  0
   18.2912  -17.7011  -18.8774 O   0  0  0  0  0  0  0  0  0  0  0  0
  2  1  1  1
  3  2  1  0
  4  3  1  0
  5  6  1  0
  5  4  1  0
  6  7  1  0
  8  2  1  0
  9  8  2  0
 10  8  1  0
 11 10  1  0
 11 12  1  6
 12 13  1  0
 13 14  2  0
 15 14  1  0
 16 15  1  0
 17 16  2  0
 17 13  1  0
 18 11  1  0
 19 18  2  0
 20 18  1  0
 21 20  1  0
 22 24  1  0
 22 21  1  0
 23 22  2  0
M  END
$$$$
