KHG.pdb
     RDKit          3D

 24 24  0  0  1  0  0  0  0  0999 V2000
   25.2062  -33.3041   -8.2498 N   0  0  0  0  0  0  0  0  0  0  0  0
   25.7424  -32.9946   -6.9886 C   0  0  1  0  0  0  0  0  0  0  0  0
   24.8499  -32.8464   -5.8204 C   0  0  0  0  0  0  0  0  0  0  0  0
   23.6786  -33.6736   -5.5996 C   0  0  0  0  0  0  0  0  0  0  0  0
   22.2915  -33.2601   -5.6316 C   0  0  0  0  0  0  0  0  0  0  0  0
   21.1508  -34.1615   -5.4133 C   0  0  0  0  0  0  0  0  0  0  0  0
   19.9385  -33.2723   -5.5761 N   0  0  0  0  0  0  0  0  0  0  0  0
   26.8472  -33.9969   -6.6997 C   0  0  0  0  0  0  0  0  0  0  0  0
   26.7736  -35.1070   -7.2597 O   0  0  0  0  0  0  0  0  0  0  0  0
   27.9267  -33.7131   -5.8373 N   0  0  0  0  0  0  0  0  0  0  0  0
   28.9543  -34.7209   -5.5259 C   0  0  1  0  0  0  0  0  0  0  0  0
   30.2024  -33.9446   -5.2387 C   0  0  0  0  0  0  0  0  0  0  0  0
   31.4294  -34.6959   -5.0123 C   0  0  0  0  0  0  0  0  0  0  0  0
   32.2946  -35.2986   -5.9268 C   0  0  0  0  0  0  0  0  0  0  0  0
   33.2750  -35.9138   -5.2401 N   0  0  0  0  0  0  0  0  0  0  0  0
   33.0742  -35.7309   -3.9295 C   0  0  0  0  0  0  0  0  0  0  0  0
   31.9706  -35.0030   -3.7983 N   0  0  0  0  0  0  0  0  0  0  0  0
   28.5415  -35.5749   -4.4189 C   0  0  0  0  0  0  0  0  0  0  0  0
   29.1809  -36.6003   -4.0426 O   0  0  0  0  0  0  0  0  0  0  0  0
   27.3582  -35.2649   -3.6925 N   0  0  0  0  0  0  0  0  0  0  0  0
   26.8823  -36.0876   -2.6051 C   0  0  0  0  0  0  0  0  0  0  0  0
   27.3815  -35.6800   -1.2773 C   0  0  0  0  0  0  0  0  0  0  0  0
   28.1895  -34.7284   -1.1815 O   0  0  0  0  0  0  0  0  0  0  0  0
   26.9580  -36.3480   -0.1379 O   0  0  0  0  0  0  0  0  0  0  0  0
  2  1  1  6
  3  2  1  0
  4  3  1  0
  5  6  1  0
  5  4  1  0
  6  7  1  0
  8  2  1  0
  9  8  2  0
 10  8  1  0
 11 10  1  0
 11 12  1  1
 12 13  1  0
 13 14  2  0
 15 14  1  0
 16 15  1  0
 17 16  2  0
 17 13  1  0
 18 11  1  0
 19 18  2  0
 20 18  1  0
 21 20  1  0
 22 24  1  0
 22 21  1  0
 23 22  2  0
M  END
$$$$
