YPT.pdb
     RDKit          3D

 27 28  0  0  1  0  0  0  0  0999 V2000
    7.4797  -13.3548   15.8102 O   0  0  0  0  0  0  0  0  0  0  0  0
    7.5271  -13.6869   17.1695 C   0  0  0  0  0  0  0  0  0  0  0  0
    7.2577  -14.9806   17.5615 C   0  0  0  0  0  0  0  0  0  0  0  0
    7.3064  -15.3048   18.9141 C   0  0  0  0  0  0  0  0  0  0  0  0
    7.6160  -14.3704   19.8703 C   0  0  0  0  0  0  0  0  0  0  0  0
    7.6729  -14.7236   21.2963 C   0  0  0  0  0  0  0  0  0  0  0  0
    9.0708  -14.5527   21.8614 C   0  0  2  0  0  0  0  0  0  0  0  0
   10.0062  -15.1490   21.0231 N   0  0  0  0  0  0  0  0  0  0  0  0
    9.1301  -14.8699   23.2968 C   0  0  0  0  0  0  0  0  0  0  0  0
   10.2108  -15.4428   23.6755 O   0  0  0  0  0  0  0  0  0  0  0  0
    7.8804  -13.0870   19.4518 C   0  0  0  0  0  0  0  0  0  0  0  0
    7.8401  -12.7315   18.1103 C   0  0  0  0  0  0  0  0  0  0  0  0
    8.1517  -14.6180   24.2710 N   0  0  0  0  0  0  0  0  0  0  0  0
    6.7761  -14.1934   24.1404 C   0  0  0  0  0  0  0  0  0  0  0  0
    6.5401  -13.3563   25.3553 C   0  0  0  0  0  0  0  0  0  0  0  0
    7.7559  -13.4812   26.2324 C   0  0  0  0  0  0  0  0  0  0  0  0
    8.3723  -14.7568   25.7075 C   0  0  1  0  0  0  0  0  0  0  0  0
    7.6223  -15.9029   26.2710 C   0  0  0  0  0  0  0  0  0  0  0  0
    6.5140  -16.2646   25.8093 O   0  0  0  0  0  0  0  0  0  0  0  0
    8.4951  -18.0864   24.9026 C   0  0  0  0  0  0  0  0  0  0  0  0
    9.0770  -18.5561   26.1908 C   0  0  1  0  0  0  0  0  0  0  0  0
   10.3788  -18.1760   26.4090 O   0  0  0  0  0  0  0  0  0  0  0  0
    8.2224  -18.0923   27.3496 C   0  0  2  0  0  0  0  0  0  0  0  0
    8.1349  -16.6441   27.3674 N   0  0  0  0  0  0  0  0  0  0  0  0
    8.8006  -18.5801   28.6129 C   0  0  0  0  0  0  0  0  0  0  0  0
    8.6744  -19.9094   28.9520 O   0  0  0  0  0  0  0  0  0  0  0  0
    9.4043  -17.8017   29.3808 O   0  0  0  0  0  0  0  0  0  0  0  0
  1  2  1  0
  2  3  2  0
  3  4  1  0
  5  6  1  0
  5  4  2  0
  7  6  1  0
  7  9  1  0
  7  8  1  6
  9 13  1  0
 10  9  2  0
 11  5  1  0
 12 11  2  0
 12  2  1  0
 13 17  1  0
 13 14  1  0
 14 15  1  0
 16 15  1  0
 17 16  1  0
 18 19  2  0
 17 18  1  1
 21 20  1  6
 21 22  1  0
 23 21  1  0
 23 24  1  1
 24 18  1  0
 25 23  1  0
 26 25  1  0
 27 25  2  0
M  END
$$$$
