YPT.pdb
     RDKit          3D

 27 28  0  0  1  0  0  0  0  0999 V2000
    6.9634  -12.8566   17.5283 O   0  0  0  0  0  0  0  0  0  0  0  0
    7.2376  -13.2977   18.8285 C   0  0  0  0  0  0  0  0  0  0  0  0
    7.9177  -12.4703   19.6963 C   0  0  0  0  0  0  0  0  0  0  0  0
    8.1873  -12.9142   20.9874 C   0  0  0  0  0  0  0  0  0  0  0  0
    7.7940  -14.1551   21.4217 C   0  0  0  0  0  0  0  0  0  0  0  0
    8.0762  -14.6128   22.7901 C   0  0  0  0  0  0  0  0  0  0  0  0
    9.5671  -14.7402   23.0428 C   0  0  2  0  0  0  0  0  0  0  0  0
   10.1878  -15.3603   21.9642 N   0  0  0  0  0  0  0  0  0  0  0  0
    9.8581  -15.2497   24.3920 C   0  0  0  0  0  0  0  0  0  0  0  0
   10.7612  -16.1560   24.4400 O   0  0  0  0  0  0  0  0  0  0  0  0
    7.1171  -14.9606   20.5356 C   0  0  0  0  0  0  0  0  0  0  0  0
    6.8327  -14.5474   19.2409 C   0  0  0  0  0  0  0  0  0  0  0  0
    9.2650  -14.8578   25.6022 N   0  0  0  0  0  0  0  0  0  0  0  0
    7.9983  -14.2141   25.8683 C   0  0  0  0  0  0  0  0  0  0  0  0
    8.2689  -13.3687   27.0702 C   0  0  0  0  0  0  0  0  0  0  0  0
    9.6537  -13.7022   27.5540 C   0  0  0  0  0  0  0  0  0  0  0  0
    9.8759  -15.0525   26.9138 C   0  0  1  0  0  0  0  0  0  0  0  0
    9.1539  -16.0707   27.7111 C   0  0  0  0  0  0  0  0  0  0  0  0
    7.9048  -16.0663   27.8218 O   0  0  0  0  0  0  0  0  0  0  0  0
    8.5228  -18.8098   26.3725 C   0  0  0  0  0  0  0  0  0  0  0  0
    9.3599  -19.3128   27.4973 C   0  0  1  0  0  0  0  0  0  0  0  0
   10.6863  -19.4979   27.1921 O   0  0  0  0  0  0  0  0  0  0  0  0
    9.2480  -18.3850   28.6868 C   0  0  2  0  0  0  0  0  0  0  0  0
    9.8558  -17.1018   28.3880 N   0  0  0  0  0  0  0  0  0  0  0  0
    9.9068  -18.9982   29.8522 C   0  0  0  0  0  0  0  0  0  0  0  0
    9.3588  -20.1211   30.4326 O   0  0  0  0  0  0  0  0  0  0  0  0
   10.9574  -18.5113   30.3206 O   0  0  0  0  0  0  0  0  0  0  0  0
  1  2  1  0
  2  3  2  0
  3  4  1  0
  5  6  1  0
  5  4  2  0
  7  6  1  0
  7  9  1  0
  7  8  1  6
  9 13  1  0
 10  9  2  0
 11  5  1  0
 12 11  2  0
 12  2  1  0
 13 17  1  0
 13 14  1  0
 14 15  1  0
 16 15  1  0
 17 16  1  0
 18 19  2  0
 17 18  1  1
 21 20  1  6
 21 22  1  0
 23 21  1  0
 23 24  1  6
 24 18  1  0
 25 23  1  0
 26 25  1  0
 27 25  2  0
M  END
$$$$
