YPT.pdb
     RDKit          3D

 27 28  0  0  1  0  0  0  0  0999 V2000
    6.2306  -10.5148   26.8751 O   0  0  0  0  0  0  0  0  0  0  0  0
    6.5217  -11.8676   26.6619 C   0  0  0  0  0  0  0  0  0  0  0  0
    7.7442  -12.2234   26.1337 C   0  0  0  0  0  0  0  0  0  0  0  0
    8.0278  -13.5697   25.9241 C   0  0  0  0  0  0  0  0  0  0  0  0
    7.1227  -14.5548   26.2295 C   0  0  0  0  0  0  0  0  0  0  0  0
    7.4339  -15.9752   26.0121 C   0  0  0  0  0  0  0  0  0  0  0  0
    6.4906  -16.6087   25.0063 C   0  0  2  0  0  0  0  0  0  0  0  0
    5.7999  -17.6642   25.5912 N   0  0  0  0  0  0  0  0  0  0  0  0
    7.1430  -16.8462   23.7091 C   0  0  0  0  0  0  0  0  0  0  0  0
    7.0992  -18.0588   23.3006 O   0  0  0  0  0  0  0  0  0  0  0  0
    5.9105  -14.1722   26.7553 C   0  0  0  0  0  0  0  0  0  0  0  0
    5.5968  -12.8379   26.9763 C   0  0  0  0  0  0  0  0  0  0  0  0
    7.7927  -15.9078   22.8923 N   0  0  0  0  0  0  0  0  0  0  0  0
    8.1111  -14.5165   23.1212 C   0  0  0  0  0  0  0  0  0  0  0  0
    8.0126  -13.8962   21.7655 C   0  0  0  0  0  0  0  0  0  0  0  0
    7.8091  -15.0090   20.7739 C   0  0  0  0  0  0  0  0  0  0  0  0
    8.3063  -16.2011   21.5576 C   0  0  1  0  0  0  0  0  0  0  0  0
    9.7870  -16.1958   21.5246 C   0  0  0  0  0  0  0  0  0  0  0  0
   10.4610  -15.2764   22.0471 O   0  0  0  0  0  0  0  0  0  0  0  0
   11.3756  -19.2778   23.0056 C   0  0  0  0  0  0  0  0  0  0  0  0
   11.9466  -19.0562   21.6479 C   0  0  1  0  0  0  0  0  0  0  0  0
   11.3730  -19.8069   20.6507 O   0  0  0  0  0  0  0  0  0  0  0  0
   11.8626  -17.5916   21.2787 C   0  0  2  0  0  0  0  0  0  0  0  0
   10.5080  -17.2426   20.8934 N   0  0  0  0  0  0  0  0  0  0  0  0
   12.7924  -17.3093   20.1724 C   0  0  0  0  0  0  0  0  0  0  0  0
   14.1491  -17.2862   20.4110 O   0  0  0  0  0  0  0  0  0  0  0  0
   12.3645  -17.0906   19.0195 O   0  0  0  0  0  0  0  0  0  0  0  0
  1  2  1  0
  2  3  2  0
  3  4  1  0
  5  6  1  0
  5  4  2  0
  7  6  1  0
  7  9  1  0
  7  8  1  1
  9 13  1  0
 10  9  2  0
 11  5  1  0
 12 11  2  0
 12  2  1  0
 13 17  1  0
 13 14  1  0
 14 15  1  0
 16 15  1  0
 17 16  1  0
 18 19  2  0
 17 18  1  1
 21 20  1  1
 21 22  1  0
 23 21  1  0
 23 24  1  6
 24 18  1  0
 25 23  1  0
 26 25  1  0
 27 25  2  0
M  END
$$$$
