YPT.pdb
     RDKit          3D

 27 28  0  0  1  0  0  0  0  0999 V2000
    5.9773  -10.8849   28.8474 O   0  0  0  0  0  0  0  0  0  0  0  0
    6.4804  -11.7881   27.9032 C   0  0  0  0  0  0  0  0  0  0  0  0
    5.6802  -12.1896   26.8551 C   0  0  0  0  0  0  0  0  0  0  0  0
    6.1858  -13.0876   25.9197 C   0  0  0  0  0  0  0  0  0  0  0  0
    7.4614  -13.5851   26.0117 C   0  0  0  0  0  0  0  0  0  0  0  0
    7.9899  -14.5273   25.0145 C   0  0  0  0  0  0  0  0  0  0  0  0
    6.8967  -15.4107   24.4425 C   0  0  2  0  0  0  0  0  0  0  0  0
    6.4568  -16.3159   25.4018 N   0  0  0  0  0  0  0  0  0  0  0  0
    7.2460  -15.9318   23.1116 C   0  0  0  0  0  0  0  0  0  0  0  0
    7.0079  -17.1786   22.9442 O   0  0  0  0  0  0  0  0  0  0  0  0
    8.2385  -13.1680   27.0674 C   0  0  0  0  0  0  0  0  0  0  0  0
    7.7638  -12.2735   28.0173 C   0  0  0  0  0  0  0  0  0  0  0  0
    7.7993  -15.2247   22.0329 N   0  0  0  0  0  0  0  0  0  0  0  0
    8.0574  -13.8127   21.8620 C   0  0  0  0  0  0  0  0  0  0  0  0
    7.8510  -13.5827   20.4002 C   0  0  0  0  0  0  0  0  0  0  0  0
    7.6503  -14.9272   19.7557 C   0  0  0  0  0  0  0  0  0  0  0  0
    8.2519  -15.8472   20.7923 C   0  0  1  0  0  0  0  0  0  0  0  0
    9.7261  -15.7990   20.6586 C   0  0  0  0  0  0  0  0  0  0  0  0
   10.4204  -14.9401   21.2524 O   0  0  0  0  0  0  0  0  0  0  0  0
   10.9510  -17.3788   22.6595 C   0  0  0  0  0  0  0  0  0  0  0  0
   11.3348  -18.2497   21.5137 C   0  0  1  0  0  0  0  0  0  0  0  0
   10.4145  -19.2167   21.1897 O   0  0  0  0  0  0  0  0  0  0  0  0
   11.6224  -17.4070   20.2908 C   0  0  2  0  0  0  0  0  0  0  0  0
   10.4173  -16.7335   19.8443 N   0  0  0  0  0  0  0  0  0  0  0  0
   12.1510  -18.2641   19.2164 C   0  0  0  0  0  0  0  0  0  0  0  0
   13.5081  -18.4829   19.1244 O   0  0  0  0  0  0  0  0  0  0  0  0
   11.3825  -18.7950   18.3873 O   0  0  0  0  0  0  0  0  0  0  0  0
  1  2  1  0
  2  3  2  0
  3  4  1  0
  5  6  1  0
  5  4  2  0
  7  6  1  0
  7  9  1  0
  7  8  1  1
  9 13  1  0
 10  9  2  0
 11  5  1  0
 12 11  2  0
 12  2  1  0
 13 17  1  0
 13 14  1  0
 14 15  1  0
 16 15  1  0
 17 16  1  0
 18 19  2  0
 17 18  1  1
 21 20  1  1
 21 22  1  0
 23 21  1  0
 23 24  1  6
 24 18  1  0
 25 23  1  0
 26 25  1  0
 27 25  2  0
M  END
$$$$
