YPT.pdb
     RDKit          3D

 27 28  0  0  1  0  0  0  0  0999 V2000
   11.1066  -14.9423   29.6102 O   0  0  0  0  0  0  0  0  0  0  0  0
   10.1231  -14.7808   28.6268 C   0  0  0  0  0  0  0  0  0  0  0  0
    9.9589  -15.7546   27.6652 C   0  0  0  0  0  0  0  0  0  0  0  0
    8.9796  -15.5885   26.6903 C   0  0  0  0  0  0  0  0  0  0  0  0
    8.1712  -14.4801   26.6599 C   0  0  0  0  0  0  0  0  0  0  0  0
    7.1339  -14.3166   25.6309 C   0  0  0  0  0  0  0  0  0  0  0  0
    6.5486  -15.6510   25.2071 C   0  0  2  0  0  0  0  0  0  0  0  0
    6.4110  -16.4888   26.3082 N   0  0  0  0  0  0  0  0  0  0  0  0
    7.2107  -16.1902   24.0089 C   0  0  0  0  0  0  0  0  0  0  0  0
    7.1990  -17.4674   23.9184 O   0  0  0  0  0  0  0  0  0  0  0  0
    8.3563  -13.5236   27.6310 C   0  0  0  0  0  0  0  0  0  0  0  0
    9.3242  -13.6594   28.6171 C   0  0  0  0  0  0  0  0  0  0  0  0
    7.8386  -15.4710   22.9802 N   0  0  0  0  0  0  0  0  0  0  0  0
    8.1620  -14.0664   22.8711 C   0  0  0  0  0  0  0  0  0  0  0  0
    8.0283  -13.7778   21.4112 C   0  0  0  0  0  0  0  0  0  0  0  0
    7.7999  -15.0895   20.7110 C   0  0  0  0  0  0  0  0  0  0  0  0
    8.3178  -16.0695   21.7378 C   0  0  1  0  0  0  0  0  0  0  0  0
    9.7972  -16.0800   21.6671 C   0  0  0  0  0  0  0  0  0  0  0  0
   10.4929  -15.1535   22.1467 O   0  0  0  0  0  0  0  0  0  0  0  0
   11.2725  -19.3225   23.0696 C   0  0  0  0  0  0  0  0  0  0  0  0
   11.8734  -19.0331   21.7378 C   0  0  1  0  0  0  0  0  0  0  0  0
   11.3033  -19.7106   20.6876 O   0  0  0  0  0  0  0  0  0  0  0  0
   11.8265  -17.5476   21.4554 C   0  0  2  0  0  0  0  0  0  0  0  0
   10.4919  -17.1510   21.0471 N   0  0  0  0  0  0  0  0  0  0  0  0
   12.7982  -17.2170   20.3997 C   0  0  0  0  0  0  0  0  0  0  0  0
   14.1456  -17.2229   20.6872 O   0  0  0  0  0  0  0  0  0  0  0  0
   12.4144  -16.9311   19.2460 O   0  0  0  0  0  0  0  0  0  0  0  0
  1  2  1  0
  2  3  2  0
  3  4  1  0
  5  6  1  0
  5  4  2  0
  7  6  1  0
  7  9  1  0
  7  8  1  1
  9 13  1  0
 10  9  2  0
 11  5  1  0
 12 11  2  0
 12  2  1  0
 13 17  1  0
 13 14  1  0
 14 15  1  0
 16 15  1  0
 17 16  1  0
 18 19  2  0
 17 18  1  1
 21 20  1  1
 21 22  1  0
 23 21  1  0
 23 24  1  6
 24 18  1  0
 25 23  1  0
 26 25  1  0
 27 25  2  0
M  END
$$$$
