YPT.pdb
     RDKit          3D

 27 28  0  0  1  0  0  0  0  0999 V2000
    3.1567  -18.6722   18.9857 O   0  0  0  0  0  0  0  0  0  0  0  0
    4.0213  -18.1677   19.9646 C   0  0  0  0  0  0  0  0  0  0  0  0
    3.7610  -16.9383   20.5311 C   0  0  0  0  0  0  0  0  0  0  0  0
    4.6240  -16.4420   21.5036 C   0  0  0  0  0  0  0  0  0  0  0  0
    5.7290  -17.1439   21.9153 C   0  0  0  0  0  0  0  0  0  0  0  0
    6.6310  -16.6154   22.9490 C   0  0  0  0  0  0  0  0  0  0  0  0
    7.3635  -15.3745   22.4733 C   0  0  2  0  0  0  0  0  0  0  0  0
    7.9231  -15.5954   21.2198 N   0  0  0  0  0  0  0  0  0  0  0  0
    8.2239  -14.8039   23.5216 C   0  0  0  0  0  0  0  0  0  0  0  0
    9.4776  -14.8368   23.2635 O   0  0  0  0  0  0  0  0  0  0  0  0
    5.9654  -18.3679   21.3336 C   0  0  0  0  0  0  0  0  0  0  0  0
    5.1239  -18.8908   20.3608 C   0  0  0  0  0  0  0  0  0  0  0  0
    7.8262  -14.2416   24.7445 N   0  0  0  0  0  0  0  0  0  0  0  0
    6.5148  -13.8877   25.2392 C   0  0  0  0  0  0  0  0  0  0  0  0
    6.7646  -12.6923   26.1000 C   0  0  0  0  0  0  0  0  0  0  0  0
    8.2548  -12.5138   26.2029 C   0  0  0  0  0  0  0  0  0  0  0  0
    8.7468  -13.8905   25.8218 C   0  0  1  0  0  0  0  0  0  0  0  0
    8.5885  -14.7828   26.9933 C   0  0  0  0  0  0  0  0  0  0  0  0
    7.5073  -15.3664   27.2440 O   0  0  0  0  0  0  0  0  0  0  0  0
   10.0807  -17.0643   25.8877 C   0  0  0  0  0  0  0  0  0  0  0  0
   10.9106  -16.9613   27.1202 C   0  0  1  0  0  0  0  0  0  0  0  0
   12.0808  -16.2574   26.9713 O   0  0  0  0  0  0  0  0  0  0  0  0
   10.1028  -16.3509   28.2442 C   0  0  2  0  0  0  0  0  0  0  0  0
    9.6664  -15.0140   27.8870 N   0  0  0  0  0  0  0  0  0  0  0  0
   10.9193  -16.3068   29.4687 C   0  0  0  0  0  0  0  0  0  0  0  0
   11.1783  -17.4714   30.1577 O   0  0  0  0  0  0  0  0  0  0  0  0
   11.3798  -15.2249   29.8899 O   0  0  0  0  0  0  0  0  0  0  0  0
  1  2  1  0
  2  3  2  0
  3  4  1  0
  5  6  1  0
  5  4  2  0
  7  6  1  0
  7  9  1  0
  7  8  1  6
  9 13  1  0
 10  9  2  0
 11  5  1  0
 12 11  2  0
 12  2  1  0
 13 17  1  0
 13 14  1  0
 14 15  1  0
 16 15  1  0
 17 16  1  0
 18 19  2  0
 17 18  1  1
 21 20  1  6
 21 22  1  0
 23 21  1  0
 23 24  1  6
 24 18  1  0
 25 23  1  0
 26 25  1  0
 27 25  2  0
M  END
$$$$
