YPT.pdb
     RDKit          3D

 27 28  0  0  1  0  0  0  0  0999 V2000
    7.3926  -10.9575   26.6753 O   0  0  0  0  0  0  0  0  0  0  0  0
    7.2236  -12.3422   26.5555 C   0  0  0  0  0  0  0  0  0  0  0  0
    8.3172  -13.1387   26.2912 C   0  0  0  0  0  0  0  0  0  0  0  0
    8.1430  -14.5144   26.1732 C   0  0  0  0  0  0  0  0  0  0  0  0
    6.9105  -15.1013   26.3132 C   0  0  0  0  0  0  0  0  0  0  0  0
    6.7370  -16.5564   26.1948 C   0  0  0  0  0  0  0  0  0  0  0  0
    6.1503  -16.9440   24.8500 C   0  0  2  0  0  0  0  0  0  0  0  0
    5.2750  -18.0143   24.9962 N   0  0  0  0  0  0  0  0  0  0  0  0
    7.1793  -17.0329   23.8022 C   0  0  0  0  0  0  0  0  0  0  0  0
    7.4785  -18.2251   23.4438 O   0  0  0  0  0  0  0  0  0  0  0  0
    5.8362  -14.2834   26.5766 C   0  0  0  0  0  0  0  0  0  0  0  0
    5.9765  -12.9076   26.7000 C   0  0  0  0  0  0  0  0  0  0  0  0
    7.8517  -15.9756   23.1698 N   0  0  0  0  0  0  0  0  0  0  0  0
    7.8284  -14.5533   23.4268 C   0  0  0  0  0  0  0  0  0  0  0  0
    8.0112  -13.9398   22.0768 C   0  0  0  0  0  0  0  0  0  0  0  0
    8.3104  -15.0541   21.1115 C   0  0  0  0  0  0  0  0  0  0  0  0
    8.7723  -16.1448   22.0494 C   0  0  1  0  0  0  0  0  0  0  0  0
   10.1724  -15.8612   22.4403 C   0  0  0  0  0  0  0  0  0  0  0  0
   10.4685  -14.9284   23.2243 O   0  0  0  0  0  0  0  0  0  0  0  0
   11.7161  -18.9395   23.8895 C   0  0  0  0  0  0  0  0  0  0  0  0
   12.6564  -18.3922   22.8722 C   0  0  1  0  0  0  0  0  0  0  0  0
   12.5871  -18.9937   21.6392 O   0  0  0  0  0  0  0  0  0  0  0  0
   12.4434  -16.9031   22.7119 C   0  0  2  0  0  0  0  0  0  0  0  0
   11.2446  -16.6429   21.9370 N   0  0  0  0  0  0  0  0  0  0  0  0
   13.6149  -16.3076   22.0477 C   0  0  0  0  0  0  0  0  0  0  0  0
   14.7801  -16.1210   22.7587 O   0  0  0  0  0  0  0  0  0  0  0  0
   13.5639  -15.9697   20.8463 O   0  0  0  0  0  0  0  0  0  0  0  0
  1  2  1  0
  2  3  2  0
  3  4  1  0
  5  6  1  0
  5  4  2  0
  7  6  1  0
  7  9  1  0
  7  8  1  1
  9 13  1  0
 10  9  2  0
 11  5  1  0
 12 11  2  0
 12  2  1  0
 13 17  1  0
 13 14  1  0
 14 15  1  0
 16 15  1  0
 17 16  1  0
 18 19  2  0
 17 18  1  1
 21 20  1  1
 21 22  1  0
 23 21  1  0
 23 24  1  6
 24 18  1  0
 25 23  1  0
 26 25  1  0
 27 25  2  0
M  END
$$$$
