YPT.pdb
     RDKit          3D

 27 28  0  0  1  0  0  0  0  0999 V2000
    7.0350  -10.8945   27.1490 O   0  0  0  0  0  0  0  0  0  0  0  0
    7.0198  -12.2704   26.8902 C   0  0  0  0  0  0  0  0  0  0  0  0
    5.8319  -12.9641   26.9778 C   0  0  0  0  0  0  0  0  0  0  0  0
    5.8231  -14.3316   26.7194 C   0  0  0  0  0  0  0  0  0  0  0  0
    6.9664  -15.0100   26.3790 C   0  0  0  0  0  0  0  0  0  0  0  0
    6.9464  -16.4533   26.1000 C   0  0  0  0  0  0  0  0  0  0  0  0
    6.2403  -16.7625   24.7928 C   0  0  2  0  0  0  0  0  0  0  0  0
    5.3336  -17.8018   24.9685 N   0  0  0  0  0  0  0  0  0  0  0  0
    7.1796  -16.8503   23.6638 C   0  0  0  0  0  0  0  0  0  0  0  0
    7.3531  -18.0314   23.2009 O   0  0  0  0  0  0  0  0  0  0  0  0
    8.1381  -14.2937   26.2988 C   0  0  0  0  0  0  0  0  0  0  0  0
    8.1804  -12.9289   26.5506 C   0  0  0  0  0  0  0  0  0  0  0  0
    7.8886  -15.8028   23.0557 N   0  0  0  0  0  0  0  0  0  0  0  0
    7.9372  -14.3913   23.3640 C   0  0  0  0  0  0  0  0  0  0  0  0
    8.1227  -13.7377   22.0333 C   0  0  0  0  0  0  0  0  0  0  0  0
    8.3505  -14.8285   21.0226 C   0  0  0  0  0  0  0  0  0  0  0  0
    8.7785  -15.9731   21.9110 C   0  0  1  0  0  0  0  0  0  0  0  0
   10.1977  -15.7692   22.2824 C   0  0  0  0  0  0  0  0  0  0  0  0
   10.5650  -14.8153   23.0088 O   0  0  0  0  0  0  0  0  0  0  0  0
   11.7397  -18.7826   23.9799 C   0  0  0  0  0  0  0  0  0  0  0  0
   12.6115  -18.3617   22.8478 C   0  0  1  0  0  0  0  0  0  0  0  0
   12.4256  -19.0658   21.6831 O   0  0  0  0  0  0  0  0  0  0  0  0
   12.4310  -16.8855   22.5708 C   0  0  2  0  0  0  0  0  0  0  0  0
   11.2076  -16.6553   21.8253 N   0  0  0  0  0  0  0  0  0  0  0  0
   13.5884  -16.3826   21.8121 C   0  0  0  0  0  0  0  0  0  0  0  0
   14.7937  -16.1945   22.4524 O   0  0  0  0  0  0  0  0  0  0  0  0
   13.4896  -16.1246   20.5940 O   0  0  0  0  0  0  0  0  0  0  0  0
  1  2  1  0
  2  3  2  0
  3  4  1  0
  5  6  1  0
  5  4  2  0
  7  6  1  0
  7  9  1  0
  7  8  1  1
  9 13  1  0
 10  9  2  0
 11  5  1  0
 12 11  2  0
 12  2  1  0
 13 17  1  0
 13 14  1  0
 14 15  1  0
 16 15  1  0
 17 16  1  0
 18 19  2  0
 17 18  1  1
 21 20  1  1
 21 22  1  0
 23 21  1  0
 23 24  1  6
 24 18  1  0
 25 23  1  0
 26 25  1  0
 27 25  2  0
M  END
$$$$
