YPT.pdb
     RDKit          3D

 27 28  0  0  1  0  0  0  0  0999 V2000
   11.3581  -16.1656   28.7746 O   0  0  0  0  0  0  0  0  0  0  0  0
   10.2252  -16.0523   27.9597 C   0  0  0  0  0  0  0  0  0  0  0  0
   10.0574  -16.9250   26.9061 C   0  0  0  0  0  0  0  0  0  0  0  0
    8.9293  -16.8075   26.0996 C   0  0  0  0  0  0  0  0  0  0  0  0
    7.9773  -15.8451   26.3247 C   0  0  0  0  0  0  0  0  0  0  0  0
    6.7846  -15.7332   25.4724 C   0  0  0  0  0  0  0  0  0  0  0  0
    6.5934  -16.9672   24.6101 C   0  0  2  0  0  0  0  0  0  0  0  0
    6.5243  -18.1055   25.4057 N   0  0  0  0  0  0  0  0  0  0  0  0
    7.5093  -16.9852   23.4588 C   0  0  0  0  0  0  0  0  0  0  0  0
    7.9619  -18.1428   23.1514 O   0  0  0  0  0  0  0  0  0  0  0  0
    8.1694  -14.9871   27.3827 C   0  0  0  0  0  0  0  0  0  0  0  0
    9.2839  -15.0780   28.2057 C   0  0  0  0  0  0  0  0  0  0  0  0
    7.9296  -15.8950   22.6813 N   0  0  0  0  0  0  0  0  0  0  0  0
    7.6599  -14.4810   22.8134 C   0  0  0  0  0  0  0  0  0  0  0  0
    7.6345  -13.9854   21.4041 C   0  0  0  0  0  0  0  0  0  0  0  0
    8.0699  -15.1210   20.5186 C   0  0  0  0  0  0  0  0  0  0  0  0
    8.7882  -16.0105   21.5062 C   0  0  1  0  0  0  0  0  0  0  0  0
   10.1344  -15.4433   21.7507 C   0  0  0  0  0  0  0  0  0  0  0  0
   10.3173  -14.4731   22.5238 O   0  0  0  0  0  0  0  0  0  0  0  0
   11.0725  -18.7225   21.6198 C   0  0  0  0  0  0  0  0  0  0  0  0
   11.8256  -17.8559   22.5688 C   0  0  1  0  0  0  0  0  0  0  0  0
   12.8647  -18.4771   23.2178 O   0  0  0  0  0  0  0  0  0  0  0  0
   12.3479  -16.6294   21.8538 C   0  0  2  0  0  0  0  0  0  0  0  0
   11.2817  -15.9821   21.1124 N   0  0  0  0  0  0  0  0  0  0  0  0
   13.4355  -17.0185   20.9407 C   0  0  0  0  0  0  0  0  0  0  0  0
   14.6516  -17.4098   21.4567 O   0  0  0  0  0  0  0  0  0  0  0  0
   13.2679  -16.9977   19.7032 O   0  0  0  0  0  0  0  0  0  0  0  0
  1  2  1  0
  2  3  2  0
  3  4  1  0
  5  6  1  0
  5  4  2  0
  7  6  1  0
  7  9  1  0
  7  8  1  1
  9 13  1  0
 10  9  2  0
 11  5  1  0
 12 11  2  0
 12  2  1  0
 13 17  1  0
 13 14  1  0
 14 15  1  0
 16 15  1  0
 17 16  1  0
 18 19  2  0
 17 18  1  1
 21 20  1  6
 21 22  1  0
 23 21  1  0
 23 24  1  6
 24 18  1  0
 25 23  1  0
 26 25  1  0
 27 25  2  0
M  END
$$$$
