YPT.pdb
     RDKit          3D

 27 28  0  0  1  0  0  0  0  0999 V2000
    5.6485  -10.5712   27.3838 O   0  0  0  0  0  0  0  0  0  0  0  0
    6.1767  -11.8174   27.0255 C   0  0  0  0  0  0  0  0  0  0  0  0
    7.5009  -11.9117   26.6547 C   0  0  0  0  0  0  0  0  0  0  0  0
    8.0202  -13.1532   26.2996 C   0  0  0  0  0  0  0  0  0  0  0  0
    7.2492  -14.2883   26.3086 C   0  0  0  0  0  0  0  0  0  0  0  0
    7.8082  -15.5970   25.9396 C   0  0  0  0  0  0  0  0  0  0  0  0
    6.8500  -16.3921   25.0722 C   0  0  2  0  0  0  0  0  0  0  0  0
    6.2836  -17.4293   25.8049 N   0  0  0  0  0  0  0  0  0  0  0  0
    7.4288  -16.7122   23.7580 C   0  0  0  0  0  0  0  0  0  0  0  0
    7.5392  -17.9636   23.5108 O   0  0  0  0  0  0  0  0  0  0  0  0
    5.9310  -14.1660   26.6826 C   0  0  0  0  0  0  0  0  0  0  0  0
    5.3827  -12.9422   27.0422 C   0  0  0  0  0  0  0  0  0  0  0  0
    7.8625  -15.8135   22.7710 N   0  0  0  0  0  0  0  0  0  0  0  0
    7.8945  -14.3684   22.7578 C   0  0  0  0  0  0  0  0  0  0  0  0
    7.6528  -14.0154   21.3262 C   0  0  0  0  0  0  0  0  0  0  0  0
    7.6660  -15.2961   20.5372 C   0  0  0  0  0  0  0  0  0  0  0  0
    8.4062  -16.2180   21.4779 C   0  0  1  0  0  0  0  0  0  0  0  0
    9.8543  -15.9249   21.3740 C   0  0  0  0  0  0  0  0  0  0  0  0
   10.3949  -15.0015   22.0280 O   0  0  0  0  0  0  0  0  0  0  0  0
   11.1570  -17.5481   23.2790 C   0  0  0  0  0  0  0  0  0  0  0  0
   11.7318  -18.2340   22.0883 C   0  0  1  0  0  0  0  0  0  0  0  0
   10.9872  -19.2855   21.6122 O   0  0  0  0  0  0  0  0  0  0  0  0
   11.9585  -17.2391   20.9715 C   0  0  2  0  0  0  0  0  0  0  0  0
   10.6950  -16.6861   20.5209 N   0  0  0  0  0  0  0  0  0  0  0  0
   12.6477  -17.9041   19.8531 C   0  0  0  0  0  0  0  0  0  0  0  0
   11.9136  -18.3995   18.7977 O   0  0  0  0  0  0  0  0  0  0  0  0
   13.8909  -18.0240   19.8506 O   0  0  0  0  0  0  0  0  0  0  0  0
  1  2  1  0
  2  3  2  0
  3  4  1  0
  5  6  1  0
  5  4  2  0
  7  6  1  0
  7  9  1  0
  7  8  1  1
  9 13  1  0
 10  9  2  0
 11  5  1  0
 12 11  2  0
 12  2  1  0
 13 17  1  0
 13 14  1  0
 14 15  1  0
 16 15  1  0
 17 16  1  0
 18 19  2  0
 17 18  1  1
 21 20  1  1
 21 22  1  0
 23 21  1  0
 23 24  1  6
 24 18  1  0
 25 23  1  0
 26 25  1  0
 27 25  2  0
M  END
$$$$
