YPT.pdb
     RDKit          3D

 27 28  0  0  1  0  0  0  0  0999 V2000
   11.4003  -14.7440   29.1384 O   0  0  0  0  0  0  0  0  0  0  0  0
   10.2105  -14.9041   28.4179 C   0  0  0  0  0  0  0  0  0  0  0  0
    9.4942  -16.0752   28.5427 C   0  0  0  0  0  0  0  0  0  0  0  0
    8.3123  -16.2285   27.8240 C   0  0  0  0  0  0  0  0  0  0  0  0
    7.8391  -15.2443   26.9931 C   0  0  0  0  0  0  0  0  0  0  0  0
    6.5853  -15.4117   26.2437 C   0  0  0  0  0  0  0  0  0  0  0  0
    6.5111  -16.7697   25.5705 C   0  0  2  0  0  0  0  0  0  0  0  0
    6.5915  -17.7832   26.5190 N   0  0  0  0  0  0  0  0  0  0  0  0
    7.3922  -16.8537   24.3953 C   0  0  0  0  0  0  0  0  0  0  0  0
    7.8272  -18.0292   24.1338 O   0  0  0  0  0  0  0  0  0  0  0  0
    8.5733  -14.0859   26.8869 C   0  0  0  0  0  0  0  0  0  0  0  0
    9.7563  -13.9019   27.5902 C   0  0  0  0  0  0  0  0  0  0  0  0
    7.7970  -15.8078   23.5514 N   0  0  0  0  0  0  0  0  0  0  0  0
    7.5263  -14.3890   23.6093 C   0  0  0  0  0  0  0  0  0  0  0  0
    7.4763  -13.9727   22.1752 C   0  0  0  0  0  0  0  0  0  0  0  0
    7.8994  -15.1550   21.3470 C   0  0  0  0  0  0  0  0  0  0  0  0
    8.6362  -15.9873   22.3703 C   0  0  1  0  0  0  0  0  0  0  0  0
    9.9849  -15.4055   22.5604 C   0  0  0  0  0  0  0  0  0  0  0  0
   10.1928  -14.4495   23.3448 O   0  0  0  0  0  0  0  0  0  0  0  0
   11.2589  -16.6938   24.6531 C   0  0  0  0  0  0  0  0  0  0  0  0
   12.1706  -17.2296   23.6041 C   0  0  1  0  0  0  0  0  0  0  0  0
   11.7699  -18.4175   23.0427 O   0  0  0  0  0  0  0  0  0  0  0  0
   12.3676  -16.2037   22.5099 C   0  0  2  0  0  0  0  0  0  0  0  0
   11.1063  -15.9133   21.8542 N   0  0  0  0  0  0  0  0  0  0  0  0
   13.3426  -16.7110   21.5301 C   0  0  0  0  0  0  0  0  0  0  0  0
   12.8987  -17.2445   20.3400 O   0  0  0  0  0  0  0  0  0  0  0  0
   14.5682  -16.6631   21.7661 O   0  0  0  0  0  0  0  0  0  0  0  0
  1  2  1  0
  2  3  2  0
  3  4  1  0
  5  6  1  0
  5  4  2  0
  7  6  1  0
  7  9  1  0
  7  8  1  1
  9 13  1  0
 10  9  2  0
 11  5  1  0
 12 11  2  0
 12  2  1  0
 13 17  1  0
 13 14  1  0
 14 15  1  0
 16 15  1  0
 17 16  1  0
 18 19  2  0
 17 18  1  1
 21 20  1  1
 21 22  1  0
 23 21  1  0
 23 24  1  6
 24 18  1  0
 25 23  1  0
 26 25  1  0
 27 25  2  0
M  END
$$$$
