YPT.pdb
     RDKit          3D

 27 28  0  0  1  0  0  0  0  0999 V2000
   10.3410  -14.1049   30.6670 O   0  0  0  0  0  0  0  0  0  0  0  0
   10.0681  -14.4349   29.3340 C   0  0  0  0  0  0  0  0  0  0  0  0
   10.3889  -15.6914   28.8669 C   0  0  0  0  0  0  0  0  0  0  0  0
   10.1153  -16.0137   27.5409 C   0  0  0  0  0  0  0  0  0  0  0  0
    9.5335  -15.1136   26.6839 C   0  0  0  0  0  0  0  0  0  0  0  0
    9.2408  -15.4653   25.2867 C   0  0  0  0  0  0  0  0  0  0  0  0
    7.7639  -15.7428   25.0756 C   0  0  2  0  0  0  0  0  0  0  0  0
    7.2976  -16.6311   26.0382 N   0  0  0  0  0  0  0  0  0  0  0  0
    7.4500  -16.0259   23.6663 C   0  0  0  0  0  0  0  0  0  0  0  0
    6.7817  -17.1005   23.4710 O   0  0  0  0  0  0  0  0  0  0  0  0
    9.2237  -13.8668   27.1757 C   0  0  0  0  0  0  0  0  0  0  0  0
    9.4840  -13.5142   28.4932 C   0  0  0  0  0  0  0  0  0  0  0  0
    7.7973  -15.2623   22.5411 N   0  0  0  0  0  0  0  0  0  0  0  0
    8.3079  -13.9141   22.4356 C   0  0  0  0  0  0  0  0  0  0  0  0
    7.7270  -13.4076   21.1556 C   0  0  0  0  0  0  0  0  0  0  0  0
    7.0380  -14.5640   20.4839 C   0  0  0  0  0  0  0  0  0  0  0  0
    7.6975  -15.7402   21.1652 C   0  0  1  0  0  0  0  0  0  0  0  0
    9.0318  -15.9437   20.5555 C   0  0  0  0  0  0  0  0  0  0  0  0
   10.0776  -15.4864   21.0749 O   0  0  0  0  0  0  0  0  0  0  0  0
   10.1906  -18.3514   21.5489 C   0  0  0  0  0  0  0  0  0  0  0  0
    9.9785  -18.8261   20.1531 C   0  0  1  0  0  0  0  0  0  0  0  0
    8.7503  -19.3941   19.9167 O   0  0  0  0  0  0  0  0  0  0  0  0
   10.1981  -17.6917   19.1767 C   0  0  2  0  0  0  0  0  0  0  0  0
    9.1798  -16.6722   19.3465 N   0  0  0  0  0  0  0  0  0  0  0  0
   10.1666  -18.2145   17.8005 C   0  0  0  0  0  0  0  0  0  0  0  0
   11.3160  -18.7258   17.2389 O   0  0  0  0  0  0  0  0  0  0  0  0
    9.1088  -18.1996   17.1364 O   0  0  0  0  0  0  0  0  0  0  0  0
  1  2  1  0
  2  3  2  0
  3  4  1  0
  5  6  1  0
  5  4  2  0
  7  6  1  0
  7  9  1  0
  7  8  1  1
  9 13  1  0
 10  9  2  0
 11  5  1  0
 12 11  2  0
 12  2  1  0
 13 17  1  0
 13 14  1  0
 14 15  1  0
 16 15  1  0
 17 16  1  0
 18 19  2  0
 17 18  1  6
 21 20  1  1
 21 22  1  0
 23 21  1  0
 23 24  1  6
 24 18  1  0
 25 23  1  0
 26 25  1  0
 27 25  2  0
M  END
$$$$
