YPT.pdb
     RDKit          3D

 27 28  0  0  1  0  0  0  0  0999 V2000
    5.6728  -10.4300   27.6045 O   0  0  0  0  0  0  0  0  0  0  0  0
    6.2570  -11.6224   27.1604 C   0  0  0  0  0  0  0  0  0  0  0  0
    5.4666  -12.5880   26.5748 C   0  0  0  0  0  0  0  0  0  0  0  0
    6.0529  -13.7712   26.1353 C   0  0  0  0  0  0  0  0  0  0  0  0
    7.3987  -14.0037   26.2688 C   0  0  0  0  0  0  0  0  0  0  0  0
    8.0108  -15.2535   25.7945 C   0  0  0  0  0  0  0  0  0  0  0  0
    7.0042  -16.1350   25.0786 C   0  0  2  0  0  0  0  0  0  0  0  0
    6.5226  -17.1146   25.9398 N   0  0  0  0  0  0  0  0  0  0  0  0
    7.4824  -16.5570   23.7527 C   0  0  0  0  0  0  0  0  0  0  0  0
    7.3503  -17.8067   23.5075 O   0  0  0  0  0  0  0  0  0  0  0  0
    8.1642  -13.0237   26.8568 C   0  0  0  0  0  0  0  0  0  0  0  0
    7.6099  -11.8326   27.3058 C   0  0  0  0  0  0  0  0  0  0  0  0
    8.0544  -15.7549   22.7531 N   0  0  0  0  0  0  0  0  0  0  0  0
    8.3993  -14.3511   22.7507 C   0  0  0  0  0  0  0  0  0  0  0  0
    8.1734  -13.9266   21.3361 C   0  0  0  0  0  0  0  0  0  0  0  0
    7.8705  -15.1643   20.5364 C   0  0  0  0  0  0  0  0  0  0  0  0
    8.4358  -16.2427   21.4309 C   0  0  1  0  0  0  0  0  0  0  0  0
    9.9065  -16.2686   21.2574 C   0  0  0  0  0  0  0  0  0  0  0  0
   10.6567  -15.4296   21.8104 O   0  0  0  0  0  0  0  0  0  0  0  0
   12.6732  -20.2454   21.0842 C   0  0  0  0  0  0  0  0  0  0  0  0
   11.4083  -19.4770   20.9166 C   0  0  1  0  0  0  0  0  0  0  0  0
   10.4469  -19.7337   21.8636 O   0  0  0  0  0  0  0  0  0  0  0  0
   11.6984  -17.9926   20.8920 C   0  0  2  0  0  0  0  0  0  0  0  0
   10.5300  -17.2548   20.4495 N   0  0  0  0  0  0  0  0  0  0  0  0
   12.8344  -17.7285   19.9931 C   0  0  0  0  0  0  0  0  0  0  0  0
   14.0804  -17.4774   20.5247 O   0  0  0  0  0  0  0  0  0  0  0  0
   12.6808  -17.7296   18.7536 O   0  0  0  0  0  0  0  0  0  0  0  0
  1  2  1  0
  2  3  2  0
  3  4  1  0
  5  6  1  0
  5  4  2  0
  7  6  1  0
  7  9  1  0
  7  8  1  1
  9 13  1  0
 10  9  2  0
 11  5  1  0
 12 11  2  0
 12  2  1  0
 13 17  1  0
 13 14  1  0
 14 15  1  0
 16 15  1  0
 17 16  1  0
 18 19  2  0
 17 18  1  1
 21 20  1  1
 21 22  1  0
 23 21  1  0
 23 24  1  6
 24 18  1  0
 25 23  1  0
 26 25  1  0
 27 25  2  0
M  END
$$$$
