ALA.pdb
     RDKit          3D

 19 18  0  0  1  0  0  0  0  0999 V2000
   21.8161  -22.6519   -8.9072 C   0  0  0  0  0  0  0  0  0  0  0  0
   22.2310  -22.1796   -7.5488 C   0  0  2  0  0  0  0  0  0  0  0  0
   21.0775  -21.6684   -6.8359 N   0  0  0  0  0  0  0  0  0  0  0  0
   23.2339  -21.0689   -7.6135 C   0  0  0  0  0  0  0  0  0  0  0  0
   22.9078  -19.8824   -7.8282 O   0  0  0  0  0  0  0  0  0  0  0  0
   29.1937  -20.0208   -6.1669 C   0  0  0  0  0  0  0  0  0  0  0  0
   27.8732  -19.6522   -6.7762 C   0  0  2  0  0  0  0  0  0  0  0  0
   27.2208  -18.6186   -5.9038 C   0  0  0  0  0  0  0  0  0  0  0  0
   26.9544  -20.8316   -6.9732 C   0  0  0  0  0  0  0  0  0  0  0  0
   25.6524  -20.3909   -7.6351 C   0  0  2  0  0  0  0  0  0  0  0  0
   24.6041  -21.3667   -7.4255 N   0  0  0  0  0  0  0  0  0  0  0  0
   25.8618  -20.1046   -9.0777 C   0  0  0  0  0  0  0  0  0  0  0  0
   25.9102  -18.9160   -9.4876 O   0  0  0  0  0  0  0  0  0  0  0  0
   27.3775  -21.7089  -11.9604 C   0  0  0  0  0  0  0  0  0  0  0  0
   26.2478  -20.8509  -11.4338 C   0  0  2  0  0  0  0  0  0  0  0  0
   26.0144  -21.1334  -10.0458 N   0  0  0  0  0  0  0  0  0  0  0  0
   25.0566  -21.0776  -12.2791 C   0  0  0  0  0  0  0  0  0  0  0  0
   23.9680  -21.4615  -11.7997 O   0  0  0  0  0  0  0  0  0  0  0  0
   25.1388  -20.8618  -13.6392 O   0  0  0  0  0  0  0  0  0  0  0  0
  2  3  1  0
  2  1  1  6
  4  5  2  0
  4  2  1  0
  7  6  1  1
  7  8  1  0
  7  9  1  0
 10  9  1  6
 10 11  1  0
 10 12  1  0
 11  4  1  0
 12 13  2  0
 15 14  1  6
 16 12  1  0
 16 15  1  0
 17 19  1  0
 17 15  1  0
 18 17  2  0
M  END
$$$$
