ALA.pdb
     RDKit          3D

 19 18  0  0  1  0  0  0  0  0999 V2000
   14.1955  -23.4244   -5.9970 C   0  0  0  0  0  0  0  0  0  0  0  0
   13.7940  -22.1407   -5.3401 C   0  0  2  0  0  0  0  0  0  0  0  0
   12.7984  -22.4042   -4.3205 N   0  0  0  0  0  0  0  0  0  0  0  0
   13.1855  -21.1718   -6.3069 C   0  0  0  0  0  0  0  0  0  0  0  0
   11.9554  -21.1167   -6.5166 O   0  0  0  0  0  0  0  0  0  0  0  0
   12.4097  -16.7618   -6.8051 C   0  0  0  0  0  0  0  0  0  0  0  0
   13.8472  -17.1806   -6.7098 C   0  0  2  0  0  0  0  0  0  0  0  0
   14.6920  -15.9469   -6.5711 C   0  0  0  0  0  0  0  0  0  0  0  0
   14.3094  -18.0067   -7.8836 C   0  0  0  0  0  0  0  0  0  0  0  0
   13.5240  -19.3124   -7.9613 C   0  0  2  0  0  0  0  0  0  0  0  0
   14.0290  -20.2824   -7.0132 N   0  0  0  0  0  0  0  0  0  0  0  0
   13.5177  -19.8452   -9.3480 C   0  0  0  0  0  0  0  0  0  0  0  0
   14.5789  -20.2821   -9.8642 O   0  0  0  0  0  0  0  0  0  0  0  0
   10.9321  -20.8099  -11.8815 C   0  0  0  0  0  0  0  0  0  0  0  0
   12.3374  -20.4211  -11.4770 C   0  0  2  0  0  0  0  0  0  0  0  0
   12.3416  -19.8881  -10.1441 N   0  0  0  0  0  0  0  0  0  0  0  0
   12.8667  -19.4741  -12.4810 C   0  0  0  0  0  0  0  0  0  0  0  0
   13.2072  -19.8443  -13.6252 O   0  0  0  0  0  0  0  0  0  0  0  0
   12.9926  -18.1396  -12.1549 O   0  0  0  0  0  0  0  0  0  0  0  0
  2  3  1  0
  2  1  1  6
  4  5  2  0
  4  2  1  0
  7  6  1  6
  7  8  1  0
  7  9  1  0
 10  9  1  6
 10 11  1  0
 10 12  1  0
 11  4  1  0
 12 13  2  0
 15 14  1  6
 16 12  1  0
 16 15  1  0
 17 19  1  0
 17 15  1  0
 18 17  2  0
M  END
$$$$
