ALA.pdb
     RDKit          3D

 19 18  0  0  1  0  0  0  0  0999 V2000
   24.5630  -19.2963  -16.6825 C   0  0  0  0  0  0  0  0  0  0  0  0
   25.4971  -19.9547  -15.7157 C   0  0  2  0  0  0  0  0  0  0  0  0
   26.4145  -20.8171  -16.4331 N   0  0  0  0  0  0  0  0  0  0  0  0
   24.7764  -20.8120  -14.7211 C   0  0  0  0  0  0  0  0  0  0  0  0
   24.5785  -22.0314  -14.9056 O   0  0  0  0  0  0  0  0  0  0  0  0
   25.8165  -22.1772  -10.9652 C   0  0  0  0  0  0  0  0  0  0  0  0
   25.3919  -20.7409  -10.8775 C   0  0  2  0  0  0  0  0  0  0  0  0
   25.7775  -20.2146   -9.5250 C   0  0  0  0  0  0  0  0  0  0  0  0
   23.9182  -20.5360  -11.1223 C   0  0  0  0  0  0  0  0  0  0  0  0
   23.5456  -20.9685  -12.5372 C   0  0  2  0  0  0  0  0  0  0  0  0
   24.2990  -20.2261  -13.5252 N   0  0  0  0  0  0  0  0  0  0  0  0
   22.0809  -20.8546  -12.7576 C   0  0  0  0  0  0  0  0  0  0  0  0
   21.2746  -21.3570  -11.9325 O   0  0  0  0  0  0  0  0  0  0  0  0
   19.8251  -19.0057  -15.1318 C   0  0  0  0  0  0  0  0  0  0  0  0
   20.1118  -20.0471  -14.0721 C   0  0  2  0  0  0  0  0  0  0  0  0
   21.5279  -20.1885  -13.8843 N   0  0  0  0  0  0  0  0  0  0  0  0
   19.4512  -21.3090  -14.4672 C   0  0  0  0  0  0  0  0  0  0  0  0
   20.1008  -22.3000  -14.8650 O   0  0  0  0  0  0  0  0  0  0  0  0
   18.0768  -21.4058  -14.3984 O   0  0  0  0  0  0  0  0  0  0  0  0
  2  3  1  0
  2  1  1  6
  4  5  2  0
  4  2  1  0
  7  6  1  1
  7  8  1  0
  7  9  1  0
 10  9  1  1
 10 11  1  0
 10 12  1  0
 11  4  1  0
 12 13  2  0
 15 14  1  6
 16 12  1  0
 16 15  1  0
 17 19  1  0
 17 15  1  0
 18 17  2  0
M  END
$$$$
