ALA.pdb
     RDKit          3D

 19 18  0  0  1  0  0  0  0  0999 V2000
   16.2470   -8.2565  -18.1046 C   0  0  0  0  0  0  0  0  0  0  0  0
   16.8272   -9.3852  -17.3109 C   0  0  2  0  0  0  0  0  0  0  0  0
   15.7746  -10.0565  -16.5749 N   0  0  0  0  0  0  0  0  0  0  0  0
   17.8344   -8.9165  -16.3061 C   0  0  0  0  0  0  0  0  0  0  0  0
   17.5056   -8.3847  -15.2248 O   0  0  0  0  0  0  0  0  0  0  0  0
   23.6812  -10.1841  -14.7327 C   0  0  0  0  0  0  0  0  0  0  0  0
   22.4483   -9.3328  -14.6542 C   0  0  2  0  0  0  0  0  0  0  0  0
   21.9067   -9.4111  -13.2558 C   0  0  0  0  0  0  0  0  0  0  0  0
   21.3875   -9.7214  -15.6529 C   0  0  0  0  0  0  0  0  0  0  0  0
   20.2488   -8.7060  -15.6464 C   0  0  2  0  0  0  0  0  0  0  0  0
   19.2118   -9.0788  -16.5848 N   0  0  0  0  0  0  0  0  0  0  0  0
   20.7602   -7.3349  -15.9024 C   0  0  0  0  0  0  0  0  0  0  0  0
   21.3375   -7.0659  -16.9875 O   0  0  0  0  0  0  0  0  0  0  0  0
   20.0329   -3.9365  -14.9216 C   0  0  0  0  0  0  0  0  0  0  0  0
   21.1122   -4.9555  -15.2155 C   0  0  2  0  0  0  0  0  0  0  0  0
   20.6270   -6.2818  -14.9579 N   0  0  0  0  0  0  0  0  0  0  0  0
   22.3083   -4.6115  -14.4181 C   0  0  0  0  0  0  0  0  0  0  0  0
   22.5443   -5.1472  -13.3138 O   0  0  0  0  0  0  0  0  0  0  0  0
   23.1969   -3.6720  -14.8988 O   0  0  0  0  0  0  0  0  0  0  0  0
  2  3  1  0
  2  1  1  1
  4  5  2  0
  4  2  1  0
  7  6  1  1
  7  8  1  0
  7  9  1  0
 10  9  1  6
 10 11  1  0
 10 12  1  0
 11  4  1  0
 12 13  2  0
 15 14  1  1
 16 12  1  0
 16 15  1  0
 17 19  1  0
 17 15  1  0
 18 17  2  0
M  END
$$$$
