ALA.pdb
     RDKit          3D

 19 18  0  0  1  0  0  0  0  0999 V2000
   17.9079   -9.2233  -19.1275 C   0  0  0  0  0  0  0  0  0  0  0  0
   19.1936   -9.7919  -18.6138 C   0  0  2  0  0  0  0  0  0  0  0  0
   19.1160  -11.2390  -18.5978 N   0  0  0  0  0  0  0  0  0  0  0  0
   19.4912   -9.3533  -17.2128 C   0  0  0  0  0  0  0  0  0  0  0  0
   18.6104   -9.2863  -16.3297 O   0  0  0  0  0  0  0  0  0  0  0  0
   24.0130  -10.9579  -14.4416 C   0  0  0  0  0  0  0  0  0  0  0  0
   22.6409  -10.3600  -14.5451 C   0  0  2  0  0  0  0  0  0  0  0  0
   21.7597  -11.3221  -15.2887 C   0  0  0  0  0  0  0  0  0  0  0  0
   22.6256   -9.0077  -15.2122 C   0  0  0  0  0  0  0  0  0  0  0  0
   21.1952   -8.5862  -15.5344 C   0  0  2  0  0  0  0  0  0  0  0  0
   20.8172   -9.0001  -16.8689 N   0  0  0  0  0  0  0  0  0  0  0  0
   21.0162   -7.1248  -15.3366 C   0  0  0  0  0  0  0  0  0  0  0  0
   21.1468   -6.6193  -14.1918 O   0  0  0  0  0  0  0  0  0  0  0  0
   20.9111   -4.1032  -17.5121 C   0  0  0  0  0  0  0  0  0  0  0  0
   20.5911   -4.8237  -16.2206 C   0  0  2  0  0  0  0  0  0  0  0  0
   20.6959   -6.2435  -16.4042 N   0  0  0  0  0  0  0  0  0  0  0  0
   19.2508   -4.3957  -15.7673 C   0  0  0  0  0  0  0  0  0  0  0  0
   19.0154   -3.2200  -15.4146 O   0  0  0  0  0  0  0  0  0  0  0  0
   18.2223   -5.3143  -15.7288 O   0  0  0  0  0  0  0  0  0  0  0  0
  2  3  1  0
  2  1  1  1
  4  5  2  0
  4  2  1  0
  7  6  1  6
  7  8  1  0
  7  9  1  0
 10  9  1  6
 10 11  1  0
 10 12  1  0
 11  4  1  0
 12 13  2  0
 15 14  1  6
 16 12  1  0
 16 15  1  0
 17 19  1  0
 17 15  1  0
 18 17  2  0
M  END
$$$$
