ALA.pdb
     RDKit          3D

 19 18  0  0  1  0  0  0  0  0999 V2000
   21.8852  -21.8289  -11.9514 C   0  0  0  0  0  0  0  0  0  0  0  0
   22.0673  -21.1300  -10.6404 C   0  0  2  0  0  0  0  0  0  0  0  0
   20.9813  -20.1934  -10.4311 N   0  0  0  0  0  0  0  0  0  0  0  0
   23.3410  -20.3436  -10.5859 C   0  0  0  0  0  0  0  0  0  0  0  0
   23.4309  -19.1808  -11.0333 O   0  0  0  0  0  0  0  0  0  0  0  0
   26.3156  -18.5766   -7.6973 C   0  0  0  0  0  0  0  0  0  0  0  0
   26.2155  -20.0725   -7.6423 C   0  0  2  0  0  0  0  0  0  0  0  0
   27.0149  -20.5580   -6.4674 C   0  0  0  0  0  0  0  0  0  0  0  0
   26.6746  -20.7505   -8.9086 C   0  0  0  0  0  0  0  0  0  0  0  0
   25.8027  -20.3291  -10.0875 C   0  0  2  0  0  0  0  0  0  0  0  0
   24.4897  -20.9329  -10.0077 N   0  0  0  0  0  0  0  0  0  0  0  0
   26.4738  -20.6321  -11.3777 C   0  0  0  0  0  0  0  0  0  0  0  0
   27.7079  -20.8758  -11.4086 O   0  0  0  0  0  0  0  0  0  0  0  0
   26.5812  -22.2607  -14.2405 C   0  0  0  0  0  0  0  0  0  0  0  0
   26.4485  -20.7988  -13.8735 C   0  0  2  0  0  0  0  0  0  0  0  0
   25.7738  -20.6616  -12.6139 N   0  0  0  0  0  0  0  0  0  0  0  0
   25.7585  -20.1010  -14.9790 C   0  0  0  0  0  0  0  0  0  0  0  0
   24.6471  -19.5508  -14.8231 O   0  0  0  0  0  0  0  0  0  0  0  0
   26.3508  -20.0501  -16.2238 O   0  0  0  0  0  0  0  0  0  0  0  0
  2  3  1  0
  2  1  1  6
  4  5  2  0
  4  2  1  0
  7  6  1  6
  7  8  1  0
  7  9  1  0
 10  9  1  1
 10 11  1  0
 10 12  1  0
 11  4  1  0
 12 13  2  0
 15 14  1  6
 16 12  1  0
 16 15  1  0
 17 19  1  0
 17 15  1  0
 18 17  2  0
M  END
$$$$
