ALA.pdb
     RDKit          3D

 19 18  0  0  1  0  0  0  0  0999 V2000
   18.6006  -10.9512  -18.8293 C   0  0  0  0  0  0  0  0  0  0  0  0
   19.3229   -9.6404  -18.8022 C   0  0  2  0  0  0  0  0  0  0  0  0
   20.5979   -9.7711  -19.4785 N   0  0  0  0  0  0  0  0  0  0  0  0
   19.6120   -9.1780  -17.4071 C   0  0  0  0  0  0  0  0  0  0  0  0
   18.7097   -8.9731  -16.5680 O   0  0  0  0  0  0  0  0  0  0  0  0
   21.2476  -10.5940  -13.5662 C   0  0  0  0  0  0  0  0  0  0  0  0
   22.1822  -10.5337  -14.7384 C   0  0  2  0  0  0  0  0  0  0  0  0
   23.4222  -11.3085  -14.3960 C   0  0  0  0  0  0  0  0  0  0  0  0
   22.5364   -9.1270  -15.1502 C   0  0  0  0  0  0  0  0  0  0  0  0
   21.3167   -8.4153  -15.7274 C   0  0  2  0  0  0  0  0  0  0  0  0
   20.9548   -8.9629  -17.0174 N   0  0  0  0  0  0  0  0  0  0  0  0
   21.5407   -6.9481  -15.7920 C   0  0  0  0  0  0  0  0  0  0  0  0
   22.4292   -6.4751  -16.5471 O   0  0  0  0  0  0  0  0  0  0  0  0
   19.7117   -3.8719  -14.7536 C   0  0  0  0  0  0  0  0  0  0  0  0
   20.9860   -4.6069  -15.1075 C   0  0  2  0  0  0  0  0  0  0  0  0
   20.7817   -6.0253  -15.0231 N   0  0  0  0  0  0  0  0  0  0  0  0
   22.0651   -4.1237  -14.2204 C   0  0  0  0  0  0  0  0  0  0  0  0
   22.4376   -4.7707  -13.2179 O   0  0  0  0  0  0  0  0  0  0  0  0
   22.6860   -2.9236  -14.4989 O   0  0  0  0  0  0  0  0  0  0  0  0
  2  3  1  0
  2  1  1  1
  4  5  2  0
  4  2  1  0
  7  6  1  1
  7  8  1  0
  7  9  1  0
 10  9  1  6
 10 11  1  0
 10 12  1  0
 11  4  1  0
 12 13  2  0
 15 14  1  1
 16 12  1  0
 16 15  1  0
 17 19  1  0
 17 15  1  0
 18 17  2  0
M  END
$$$$
