ALA.pdb
     RDKit          3D

 19 18  0  0  1  0  0  0  0  0999 V2000
   27.6652  -19.5813  -16.6484 C   0  0  0  0  0  0  0  0  0  0  0  0
   28.0855  -20.7572  -15.8232 C   0  0  2  0  0  0  0  0  0  0  0  0
   28.3329  -21.8956  -16.6852 N   0  0  0  0  0  0  0  0  0  0  0  0
   27.0317  -21.1709  -14.8423 C   0  0  0  0  0  0  0  0  0  0  0  0
   26.1534  -22.0152  -15.1179 O   0  0  0  0  0  0  0  0  0  0  0  0
   25.5067  -19.9354   -8.8750 C   0  0  0  0  0  0  0  0  0  0  0  0
   25.2451  -20.5418  -10.2222 C   0  0  2  0  0  0  0  0  0  0  0  0
   24.9830  -22.0090  -10.0385 C   0  0  0  0  0  0  0  0  0  0  0  0
   26.3685  -20.3260  -11.2046 C   0  0  0  0  0  0  0  0  0  0  0  0
   25.9784  -20.8436  -12.5857 C   0  0  2  0  0  0  0  0  0  0  0  0
   27.0240  -20.5880  -13.5533 N   0  0  0  0  0  0  0  0  0  0  0  0
   24.6752  -20.2749  -13.0159 C   0  0  0  0  0  0  0  0  0  0  0  0
   24.5228  -19.0285  -13.0961 O   0  0  0  0  0  0  0  0  0  0  0  0
   21.7835  -21.2373  -14.9870 C   0  0  0  0  0  0  0  0  0  0  0  0
   22.2978  -20.5342  -13.7499 C   0  0  2  0  0  0  0  0  0  0  0  0
   23.5601  -21.0894  -13.3510 N   0  0  0  0  0  0  0  0  0  0  0  0
   21.2652  -20.6281  -12.6965 C   0  0  0  0  0  0  0  0  0  0  0  0
   20.1596  -20.0545  -12.8002 O   0  0  0  0  0  0  0  0  0  0  0  0
   21.5198  -21.3689  -11.5608 O   0  0  0  0  0  0  0  0  0  0  0  0
  2  3  1  0
  2  1  1  6
  4  5  2  0
  4  2  1  0
  7  6  1  1
  7  8  1  0
  7  9  1  0
 10  9  1  1
 10 11  1  0
 10 12  1  0
 11  4  1  0
 12 13  2  0
 15 14  1  6
 16 12  1  0
 16 15  1  0
 17 19  1  0
 17 15  1  0
 18 17  2  0
M  END
$$$$
