ALA.pdb
     RDKit          3D

 19 18  0  0  1  0  0  0  0  0999 V2000
   17.7195   -9.3207  -19.1259 C   0  0  0  0  0  0  0  0  0  0  0  0
   18.4178  -10.4843  -18.4941 C   0  0  2  0  0  0  0  0  0  0  0  0
   17.4401  -11.4524  -18.0392 N   0  0  0  0  0  0  0  0  0  0  0  0
   19.2264  -10.0830  -17.2988 C   0  0  0  0  0  0  0  0  0  0  0  0
   18.7062   -9.8276  -16.1922 O   0  0  0  0  0  0  0  0  0  0  0  0
   25.0106  -10.5194  -15.1453 C   0  0  0  0  0  0  0  0  0  0  0  0
   23.6461   -9.8956  -15.1439 C   0  0  2  0  0  0  0  0  0  0  0  0
   22.9899  -10.1946  -13.8266 C   0  0  0  0  0  0  0  0  0  0  0  0
   22.7746  -10.3587  -16.2840 C   0  0  0  0  0  0  0  0  0  0  0  0
   21.4827   -9.5486  -16.3332 C   0  0  2  0  0  0  0  0  0  0  0  0
   20.6326   -9.9875  -17.4194 N   0  0  0  0  0  0  0  0  0  0  0  0
   21.7724   -8.0936  -16.4101 C   0  0  0  0  0  0  0  0  0  0  0  0
   22.3831   -7.6204  -17.4033 O   0  0  0  0  0  0  0  0  0  0  0  0
   20.4244   -4.9723  -15.6064 C   0  0  0  0  0  0  0  0  0  0  0  0
   21.6933   -5.7827  -15.4558 C   0  0  2  0  0  0  0  0  0  0  0  0
   21.3841   -7.1830  -15.3908 N   0  0  0  0  0  0  0  0  0  0  0  0
   22.4203   -5.2944  -14.2650 C   0  0  0  0  0  0  0  0  0  0  0  0
   22.3020   -5.8405  -13.1470 O   0  0  0  0  0  0  0  0  0  0  0  0
   23.2570   -4.2036  -14.3809 O   0  0  0  0  0  0  0  0  0  0  0  0
  2  3  1  0
  2  1  1  1
  4  5  2  0
  4  2  1  0
  7  6  1  1
  7  8  1  0
  7  9  1  0
 10  9  1  6
 10 11  1  0
 10 12  1  0
 11  4  1  0
 12 13  2  0
 15 14  1  1
 16 12  1  0
 16 15  1  0
 17 19  1  0
 17 15  1  0
 18 17  2  0
M  END
$$$$
