ALA.pdb
     RDKit          3D

 19 18  0  0  1  0  0  0  0  0999 V2000
   27.5879  -18.0500  -17.0780 C   0  0  0  0  0  0  0  0  0  0  0  0
   28.2309  -19.1894  -16.3508 C   0  0  2  0  0  0  0  0  0  0  0  0
   28.8298  -20.1018  -17.3042 N   0  0  0  0  0  0  0  0  0  0  0  0
   27.2457  -19.9804  -15.5462 C   0  0  0  0  0  0  0  0  0  0  0  0
   26.6170  -20.9499  -16.0207 O   0  0  0  0  0  0  0  0  0  0  0  0
   25.4404  -20.4815   -9.5696 C   0  0  0  0  0  0  0  0  0  0  0  0
   25.3119  -20.7877  -11.0327 C   0  0  2  0  0  0  0  0  0  0  0  0
   25.4206  -22.2740  -11.2171 C   0  0  0  0  0  0  0  0  0  0  0  0
   26.3308  -20.0748  -11.8856 C   0  0  0  0  0  0  0  0  0  0  0  0
   26.0385  -20.2969  -13.3664 C   0  0  2  0  0  0  0  0  0  0  0  0
   27.0129  -19.6225  -14.1975 N   0  0  0  0  0  0  0  0  0  0  0  0
   24.6496  -19.8884  -13.6994 C   0  0  0  0  0  0  0  0  0  0  0  0
   24.2853  -18.6941  -13.5434 O   0  0  0  0  0  0  0  0  0  0  0  0
   21.8658  -21.0268  -15.7802 C   0  0  0  0  0  0  0  0  0  0  0  0
   22.3308  -20.4126  -14.4778 C   0  0  2  0  0  0  0  0  0  0  0  0
   23.6839  -20.8030  -14.1992 N   0  0  0  0  0  0  0  0  0  0  0  0
   21.3840  -20.8048  -13.4126 C   0  0  0  0  0  0  0  0  0  0  0  0
   21.6441  -21.7171  -12.5987 O   0  0  0  0  0  0  0  0  0  0  0  0
   20.1744  -20.1504  -13.3053 O   0  0  0  0  0  0  0  0  0  0  0  0
  2  3  1  0
  2  1  1  6
  4  5  2  0
  4  2  1  0
  7  6  1  1
  7  8  1  0
  7  9  1  0
 10  9  1  1
 10 11  1  0
 10 12  1  0
 11  4  1  0
 12 13  2  0
 15 14  1  6
 16 12  1  0
 16 15  1  0
 17 19  1  0
 17 15  1  0
 18 17  2  0
M  END
$$$$
