ALA.pdb
     RDKit          3D

 19 18  0  0  1  0  0  0  0  0999 V2000
   19.3394  -11.4165  -19.2212 C   0  0  0  0  0  0  0  0  0  0  0  0
   20.2417  -11.9240  -18.1401 C   0  0  2  0  0  0  0  0  0  0  0  0
   19.5755  -12.9791  -17.4030 N   0  0  0  0  0  0  0  0  0  0  0  0
   20.6016  -10.8582  -17.1511 C   0  0  0  0  0  0  0  0  0  0  0  0
   19.8369  -10.5179  -16.2238 O   0  0  0  0  0  0  0  0  0  0  0  0
   23.4820  -10.2697  -13.9197 C   0  0  0  0  0  0  0  0  0  0  0  0
   24.1115  -10.3027  -15.2811 C   0  0  2  0  0  0  0  0  0  0  0  0
   25.6015  -10.3837  -15.1123 C   0  0  0  0  0  0  0  0  0  0  0  0
   23.7419   -9.1202  -16.1407 C   0  0  0  0  0  0  0  0  0  0  0  0
   22.2406   -9.1043  -16.4120 C   0  0  2  0  0  0  0  0  0  0  0  0
   21.8527  -10.2077  -17.2646 N   0  0  0  0  0  0  0  0  0  0  0  0
   21.8175   -7.7956  -16.9734 C   0  0  0  0  0  0  0  0  0  0  0  0
   22.1747   -7.4573  -18.1316 O   0  0  0  0  0  0  0  0  0  0  0  0
   19.0708   -5.4457  -16.4672 C   0  0  0  0  0  0  0  0  0  0  0  0
   20.5244   -5.6591  -16.8293 C   0  0  2  0  0  0  0  0  0  0  0  0
   21.0071   -6.8803  -16.2493 N   0  0  0  0  0  0  0  0  0  0  0  0
   21.2916   -4.4710  -16.3995 C   0  0  0  0  0  0  0  0  0  0  0  0
   22.1320   -4.5242  -15.4759 O   0  0  0  0  0  0  0  0  0  0  0  0
   21.0808   -3.2625  -17.0306 O   0  0  0  0  0  0  0  0  0  0  0  0
  2  3  1  0
  2  1  1  6
  4  5  2  0
  4  2  1  0
  7  6  1  1
  7  8  1  0
  7  9  1  0
 10  9  1  6
 10 11  1  0
 10 12  1  0
 11  4  1  0
 12 13  2  0
 15 14  1  1
 16 12  1  0
 16 15  1  0
 17 19  1  0
 17 15  1  0
 18 17  2  0
M  END
$$$$
