ALA.pdb
     RDKit          3D

 19 18  0  0  1  0  0  0  0  0999 V2000
   19.7027  -12.9858  -20.2566 C   0  0  0  0  0  0  0  0  0  0  0  0
   20.5647  -13.8218  -19.3631 C   0  0  2  0  0  0  0  0  0  0  0  0
   19.9240  -15.0990  -19.1215 N   0  0  0  0  0  0  0  0  0  0  0  0
   20.7877  -13.1835  -18.0265 C   0  0  0  0  0  0  0  0  0  0  0  0
   19.8833  -13.0865  -17.1704 O   0  0  0  0  0  0  0  0  0  0  0  0
   22.8978  -14.1434  -14.3795 C   0  0  0  0  0  0  0  0  0  0  0  0
   23.8080  -13.8363  -15.5319 C   0  0  2  0  0  0  0  0  0  0  0  0
   25.2066  -14.2255  -15.1478 C   0  0  0  0  0  0  0  0  0  0  0  0
   23.7623  -12.3920  -15.9629 C   0  0  0  0  0  0  0  0  0  0  0  0
   22.3652  -12.0239  -16.4530 C   0  0  2  0  0  0  0  0  0  0  0  0
   22.0678  -12.6687  -17.7143 N   0  0  0  0  0  0  0  0  0  0  0  0
   22.2034  -10.5494  -16.5335 C   0  0  0  0  0  0  0  0  0  0  0  0
   22.9549   -9.8688  -17.2787 O   0  0  0  0  0  0  0  0  0  0  0  0
   19.7935   -7.9300  -16.1836 C   0  0  0  0  0  0  0  0  0  0  0  0
   21.1606   -8.4141  -15.7519 C   0  0  2  0  0  0  0  0  0  0  0  0
   21.2155   -9.8481  -15.7910 N   0  0  0  0  0  0  0  0  0  0  0  0
   21.4504   -7.8599  -14.4126 C   0  0  0  0  0  0  0  0  0  0  0  0
   21.5796   -6.6320  -14.2181 O   0  0  0  0  0  0  0  0  0  0  0  0
   21.5840   -8.7155  -13.3387 O   0  0  0  0  0  0  0  0  0  0  0  0
  2  3  1  0
  2  1  1  6
  4  5  2  0
  4  2  1  0
  7  6  1  1
  7  8  1  0
  7  9  1  0
 10  9  1  6
 10 11  1  0
 10 12  1  0
 11  4  1  0
 12 13  2  0
 15 14  1  1
 16 12  1  0
 16 15  1  0
 17 19  1  0
 17 15  1  0
 18 17  2  0
M  END
$$$$
