ALA.pdb
     RDKit          3D

 19 18  0  0  1  0  0  0  0  0999 V2000
   31.5069  -25.5885  -22.5196 C   0  0  0  0  0  0  0  0  0  0  0  0
   30.8762  -25.2173  -21.2138 C   0  0  2  0  0  0  0  0  0  0  0  0
   31.3421  -23.9087  -20.8008 N   0  0  0  0  0  0  0  0  0  0  0  0
   31.2301  -26.1747  -20.1175 C   0  0  0  0  0  0  0  0  0  0  0  0
   32.2034  -25.9924  -19.3561 O   0  0  0  0  0  0  0  0  0  0  0  0
   29.8170  -26.8984  -16.2702 C   0  0  0  0  0  0  0  0  0  0  0  0
   28.8563  -27.3263  -17.3402 C   0  0  2  0  0  0  0  0  0  0  0  0
   27.5225  -27.5886  -16.7021 C   0  0  0  0  0  0  0  0  0  0  0  0
   29.3189  -28.5368  -18.1113 C   0  0  0  0  0  0  0  0  0  0  0  0
   30.6349  -28.2452  -18.8260 C   0  0  2  0  0  0  0  0  0  0  0  0
   30.4372  -27.3314  -19.9310 N   0  0  0  0  0  0  0  0  0  0  0  0
   31.2924  -29.5046  -19.2601 C   0  0  0  0  0  0  0  0  0  0  0  0
   30.7653  -30.2208  -20.1503 O   0  0  0  0  0  0  0  0  0  0  0  0
   34.5978  -31.1961  -18.6821 C   0  0  0  0  0  0  0  0  0  0  0  0
   33.1528  -31.1718  -19.1304 C   0  0  2  0  0  0  0  0  0  0  0  0
   32.5210  -29.9547  -18.7060 N   0  0  0  0  0  0  0  0  0  0  0  0
   32.4830  -32.3832  -18.6121 C   0  0  0  0  0  0  0  0  0  0  0  0
   31.5627  -32.3212  -17.7686 O   0  0  0  0  0  0  0  0  0  0  0  0
   32.8784  -33.6242  -19.0667 O   0  0  0  0  0  0  0  0  0  0  0  0
  2  3  1  0
  2  1  1  6
  4  5  2  0
  4  2  1  0
  7  6  1  1
  7  8  1  0
  7  9  1  0
 10  9  1  6
 10 11  1  0
 10 12  1  0
 11  4  1  0
 12 13  2  0
 15 14  1  1
 16 12  1  0
 16 15  1  0
 17 19  1  0
 17 15  1  0
 18 17  2  0
M  END
$$$$
