ALA.pdb
     RDKit          3D

 19 18  0  0  1  0  0  0  0  0999 V2000
   19.8207  -14.7730  -19.4178 C   0  0  0  0  0  0  0  0  0  0  0  0
   20.9761  -15.2577  -18.5989 C   0  0  2  0  0  0  0  0  0  0  0  0
   20.6503  -16.5384  -18.0042 N   0  0  0  0  0  0  0  0  0  0  0  0
   21.3094  -14.3248  -17.4754 C   0  0  0  0  0  0  0  0  0  0  0  0
   20.5074  -14.0749  -16.5509 O   0  0  0  0  0  0  0  0  0  0  0  0
   24.1995  -14.6609  -14.2910 C   0  0  0  0  0  0  0  0  0  0  0  0
   24.8216  -14.3424  -15.6185 C   0  0  2  0  0  0  0  0  0  0  0  0
   26.3080  -14.5212  -15.5003 C   0  0  0  0  0  0  0  0  0  0  0  0
   24.4953  -12.9568  -16.1160 C   0  0  0  0  0  0  0  0  0  0  0  0
   22.9989  -12.8222  -16.3813 C   0  0  2  0  0  0  0  0  0  0  0  0
   22.5780  -13.6992  -17.4532 N   0  0  0  0  0  0  0  0  0  0  0  0
   22.6333  -11.4073  -16.6480 C   0  0  0  0  0  0  0  0  0  0  0  0
   23.1337  -10.7970  -17.6280 O   0  0  0  0  0  0  0  0  0  0  0  0
   20.0020   -9.0741  -16.3741 C   0  0  0  0  0  0  0  0  0  0  0  0
   21.4581   -9.2893  -16.0231 C   0  0  2  0  0  0  0  0  0  0  0  0
   21.7216  -10.6871  -15.8300 N   0  0  0  0  0  0  0  0  0  0  0  0
   21.7776   -8.4703  -14.8348 C   0  0  0  0  0  0  0  0  0  0  0  0
   22.0726   -8.9861  -13.7351 O   0  0  0  0  0  0  0  0  0  0  0  0
   21.7521   -7.0944  -14.9322 O   0  0  0  0  0  0  0  0  0  0  0  0
  2  3  1  0
  2  1  1  1
  4  5  2  0
  4  2  1  0
  7  6  1  1
  7  8  1  0
  7  9  1  0
 10  9  1  6
 10 11  1  0
 10 12  1  0
 11  4  1  0
 12 13  2  0
 15 14  1  1
 16 12  1  0
 16 15  1  0
 17 19  1  0
 17 15  1  0
 18 17  2  0
M  END
$$$$
