FGH.pdb
     RDKit          3D

 26 27  0  0  1  0  0  0  0  0999 V2000
    8.7736  -15.3286   24.6347 N   0  0  0  0  0  0  0  0  0  0  0  0
    7.9143  -15.1437   23.4939 C   0  0  1  0  0  0  0  0  0  0  0  0
    7.5707  -13.6799   23.3312 C   0  0  0  0  0  0  0  0  0  0  0  0
    7.2642  -13.0756   24.6478 C   0  0  0  0  0  0  0  0  0  0  0  0
    8.3068  -12.6663   25.4607 C   0  0  0  0  0  0  0  0  0  0  0  0
    7.9837  -12.1065   26.6826 C   0  0  0  0  0  0  0  0  0  0  0  0
    6.6796  -11.9511   27.0980 C   0  0  0  0  0  0  0  0  0  0  0  0
    5.6766  -12.3743   26.2527 C   0  0  0  0  0  0  0  0  0  0  0  0
    5.9339  -12.9404   25.0213 C   0  0  0  0  0  0  0  0  0  0  0  0
    8.5070  -15.7040   22.2598 C   0  0  0  0  0  0  0  0  0  0  0  0
    7.7752  -16.3552   21.4834 O   0  0  0  0  0  0  0  0  0  0  0  0
    9.8771  -15.5359   21.9132 N   0  0  0  0  0  0  0  0  0  0  0  0
   10.8570  -16.5662   22.0866 C   0  0  0  0  0  0  0  0  0  0  0  0
   11.3404  -16.7659   23.4595 C   0  0  0  0  0  0  0  0  0  0  0  0
   12.3174  -17.5936   23.6099 O   0  0  0  0  0  0  0  0  0  0  0  0
   10.8190  -16.1265   24.6024 N   0  0  0  0  0  0  0  0  0  0  0  0
   11.4012  -16.4613   25.8973 C   0  0  1  0  0  0  0  0  0  0  0  0
   10.8086  -15.6322   26.9924 C   0  0  0  0  0  0  0  0  0  0  0  0
   11.2179  -16.1547   28.3013 C   0  0  0  0  0  0  0  0  0  0  0  0
   12.0664  -17.2408   28.5475 C   0  0  0  0  0  0  0  0  0  0  0  0
   12.2038  -17.4151   29.8624 N   0  0  0  0  0  0  0  0  0  0  0  0
   11.4758  -16.4822   30.4764 C   0  0  0  0  0  0  0  0  0  0  0  0
   10.8760  -15.7154   29.5197 N   0  0  0  0  0  0  0  0  0  0  0  0
   11.1107  -17.8832   26.1361 C   0  0  0  0  0  0  0  0  0  0  0  0
   10.0079  -18.4783   25.5852 O   0  0  0  0  0  0  0  0  0  0  0  0
   11.8680  -18.5807   26.8529 O   0  0  0  0  0  0  0  0  0  0  0  0
  2 10  1  0
  2  1  1  1
  3  2  1  0
  4  3  1  0
  5  4  2  0
  6  5  1  0
  7  8  1  0
  7  6  2  0
  8  9  2  0
  9  4  1  0
 10 12  1  0
 11 10  2  0
 12 13  1  0
 14 15  2  0
 14 13  1  0
 16 14  1  0
 17 16  1  0
 17 24  1  0
 17 18  1  1
 19 18  1  0
 20 19  2  0
 21 20  1  0
 22 21  1  0
 22 23  2  0
 23 19  1  0
 24 25  1  0
 26 24  2  0
M  END
$$$$
