FGH.pdb
     RDKit          3D

 26 27  0  0  1  0  0  0  0  0999 V2000
    8.0106  -14.9819   24.4431 N   0  0  0  0  0  0  0  0  0  0  0  0
    7.2707  -15.9161   25.2517 C   0  0  1  0  0  0  0  0  0  0  0  0
    6.1209  -15.2146   25.9395 C   0  0  0  0  0  0  0  0  0  0  0  0
    6.5491  -13.8829   26.4249 C   0  0  0  0  0  0  0  0  0  0  0  0
    5.5989  -13.0110   26.9272 C   0  0  0  0  0  0  0  0  0  0  0  0
    6.0344  -11.7766   27.3714 C   0  0  0  0  0  0  0  0  0  0  0  0
    7.3600  -11.4050   27.3261 C   0  0  0  0  0  0  0  0  0  0  0  0
    8.2681  -12.3083   26.8172 C   0  0  0  0  0  0  0  0  0  0  0  0
    7.8966  -13.5550   26.3583 C   0  0  0  0  0  0  0  0  0  0  0  0
    6.8061  -17.0797   24.4653 C   0  0  0  0  0  0  0  0  0  0  0  0
    6.7010  -18.1872   25.0353 O   0  0  0  0  0  0  0  0  0  0  0  0
    6.4717  -16.9975   23.0844 N   0  0  0  0  0  0  0  0  0  0  0  0
    7.0177  -17.8793   22.0964 C   0  0  0  0  0  0  0  0  0  0  0  0
    8.3233  -17.4931   21.5446 C   0  0  0  0  0  0  0  0  0  0  0  0
    8.8072  -18.2567   20.6253 O   0  0  0  0  0  0  0  0  0  0  0  0
    9.0695  -16.3659   21.9438 N   0  0  0  0  0  0  0  0  0  0  0  0
   10.3619  -16.1417   21.3055 C   0  0  1  0  0  0  0  0  0  0  0  0
   10.4986  -14.7292   20.8322 C   0  0  0  0  0  0  0  0  0  0  0  0
    9.3148  -14.3376   20.0584 C   0  0  0  0  0  0  0  0  0  0  0  0
    8.2243  -15.1473   19.7183 C   0  0  0  0  0  0  0  0  0  0  0  0
    7.3430  -14.4405   19.0099 N   0  0  0  0  0  0  0  0  0  0  0  0
    7.8224  -13.2035   18.8788 C   0  0  0  0  0  0  0  0  0  0  0  0
    9.0258  -13.1455   19.5202 N   0  0  0  0  0  0  0  0  0  0  0  0
   11.3888  -16.4292   22.3185 C   0  0  0  0  0  0  0  0  0  0  0  0
   11.0395  -16.7861   23.5930 O   0  0  0  0  0  0  0  0  0  0  0  0
   12.6084  -16.3510   22.0352 O   0  0  0  0  0  0  0  0  0  0  0  0
  2 10  1  0
  2  1  1  6
  3  2  1  0
  4  3  1  0
  5  4  2  0
  6  5  1  0
  7  8  1  0
  7  6  2  0
  8  9  2  0
  9  4  1  0
 10 12  1  0
 11 10  2  0
 12 13  1  0
 14 15  2  0
 14 13  1  0
 16 14  1  0
 17 16  1  0
 17 24  1  0
 17 18  1  1
 19 18  1  0
 20 19  2  0
 21 20  1  0
 22 21  1  0
 22 23  2  0
 23 19  1  0
 24 25  1  0
 26 24  2  0
M  END
$$$$
