FGH.pdb
     RDKit          3D

 26 27  0  0  1  0  0  0  0  0999 V2000
    7.3573  -16.1418   25.5743 N   0  0  0  0  0  0  0  0  0  0  0  0
    6.8187  -15.8648   24.2678 C   0  0  1  0  0  0  0  0  0  0  0  0
    6.0137  -14.5848   24.2958 C   0  0  0  0  0  0  0  0  0  0  0  0
    6.5143  -13.6872   25.3618 C   0  0  0  0  0  0  0  0  0  0  0  0
    5.8621  -13.6607   26.5821 C   0  0  0  0  0  0  0  0  0  0  0  0
    6.3569  -12.8111   27.5538 C   0  0  0  0  0  0  0  0  0  0  0  0
    7.4572  -12.0107   27.3392 C   0  0  0  0  0  0  0  0  0  0  0  0
    8.0722  -12.0730   26.1073 C   0  0  0  0  0  0  0  0  0  0  0  0
    7.6268  -12.8999   25.0969 C   0  0  0  0  0  0  0  0  0  0  0  0
    7.8751  -15.8206   23.2332 C   0  0  0  0  0  0  0  0  0  0  0  0
    7.5373  -15.7626   22.0311 O   0  0  0  0  0  0  0  0  0  0  0  0
    9.2640  -15.8412   23.5432 N   0  0  0  0  0  0  0  0  0  0  0  0
   10.2835  -15.9685   22.5451 C   0  0  0  0  0  0  0  0  0  0  0  0
   10.9338  -17.2830   22.4578 C   0  0  0  0  0  0  0  0  0  0  0  0
   10.2048  -18.2576   22.0324 O   0  0  0  0  0  0  0  0  0  0  0  0
   12.2752  -17.5469   22.8009 N   0  0  0  0  0  0  0  0  0  0  0  0
   12.7238  -18.9349   22.7845 C   0  0  1  0  0  0  0  0  0  0  0  0
   13.8982  -19.1177   21.8762 C   0  0  0  0  0  0  0  0  0  0  0  0
   13.5008  -18.8890   20.4822 C   0  0  0  0  0  0  0  0  0  0  0  0
   13.2864  -17.6540   19.8585 C   0  0  0  0  0  0  0  0  0  0  0  0
   12.9367  -17.8472   18.5863 N   0  0  0  0  0  0  0  0  0  0  0  0
   12.9168  -19.1614   18.3633 C   0  0  0  0  0  0  0  0  0  0  0  0
   13.2617  -19.7930   19.5231 N   0  0  0  0  0  0  0  0  0  0  0  0
   13.1040  -19.2722   24.1646 C   0  0  0  0  0  0  0  0  0  0  0  0
   13.2301  -18.2980   25.1180 O   0  0  0  0  0  0  0  0  0  0  0  0
   13.3233  -20.4620   24.4966 O   0  0  0  0  0  0  0  0  0  0  0  0
  2 10  1  0
  2  1  1  1
  3  2  1  0
  4  3  1  0
  5  4  2  0
  6  5  1  0
  7  8  1  0
  7  6  2  0
  8  9  2  0
  9  4  1  0
 10 12  1  0
 11 10  2  0
 12 13  1  0
 14 15  2  0
 14 13  1  0
 16 14  1  0
 17 16  1  0
 17 24  1  0
 17 18  1  6
 19 18  1  0
 20 19  2  0
 21 20  1  0
 22 21  1  0
 22 23  2  0
 23 19  1  0
 24 25  1  0
 26 24  2  0
M  END
$$$$
