FGH.pdb
     RDKit          3D

 26 27  0  0  1  0  0  0  0  0999 V2000
    6.2186  -16.6859   25.5422 N   0  0  0  0  0  0  0  0  0  0  0  0
    6.9557  -16.7202   24.3055 C   0  0  1  0  0  0  0  0  0  0  0  0
    6.9587  -15.3517   23.6616 C   0  0  0  0  0  0  0  0  0  0  0  0
    6.9035  -14.2966   24.6990 C   0  0  0  0  0  0  0  0  0  0  0  0
    5.9104  -14.3490   25.6615 C   0  0  0  0  0  0  0  0  0  0  0  0
    5.8893  -13.3477   26.6142 C   0  0  0  0  0  0  0  0  0  0  0  0
    6.8118  -12.3249   26.6260 C   0  0  0  0  0  0  0  0  0  0  0  0
    7.7813  -12.3166   25.6464 C   0  0  0  0  0  0  0  0  0  0  0  0
    7.8558  -13.2867   24.6684 C   0  0  0  0  0  0  0  0  0  0  0  0
    8.3294  -17.2351   24.4956 C   0  0  0  0  0  0  0  0  0  0  0  0
    8.5175  -18.1562   25.3194 O   0  0  0  0  0  0  0  0  0  0  0  0
    9.4518  -16.7292   23.7817 N   0  0  0  0  0  0  0  0  0  0  0  0
   10.7482  -17.3361   23.8360 C   0  0  0  0  0  0  0  0  0  0  0  0
   11.3948  -17.3486   25.1551 C   0  0  0  0  0  0  0  0  0  0  0  0
   12.6760  -17.2051   25.1683 O   0  0  0  0  0  0  0  0  0  0  0  0
   10.7230  -17.5038   26.3845 N   0  0  0  0  0  0  0  0  0  0  0  0
   11.5145  -17.8719   27.5533 C   0  0  1  0  0  0  0  0  0  0  0  0
   11.2105  -16.9852   28.7191 C   0  0  0  0  0  0  0  0  0  0  0  0
   10.9442  -15.6173   28.2590 C   0  0  0  0  0  0  0  0  0  0  0  0
   11.0980  -15.1202   26.9592 C   0  0  0  0  0  0  0  0  0  0  0  0
   10.7582  -13.8312   26.9275 N   0  0  0  0  0  0  0  0  0  0  0  0
   10.3901  -13.4754   28.1585 C   0  0  0  0  0  0  0  0  0  0  0  0
   10.5053  -14.5687   28.9675 N   0  0  0  0  0  0  0  0  0  0  0  0
   11.1635  -19.2623   27.8801 C   0  0  0  0  0  0  0  0  0  0  0  0
   10.2639  -19.9586   27.1187 O   0  0  0  0  0  0  0  0  0  0  0  0
   11.6809  -19.8392   28.8667 O   0  0  0  0  0  0  0  0  0  0  0  0
  2 10  1  0
  2  1  1  1
  3  2  1  0
  4  3  1  0
  5  4  2  0
  6  5  1  0
  7  8  1  0
  7  6  2  0
  8  9  2  0
  9  4  1  0
 10 12  1  0
 11 10  2  0
 12 13  1  0
 14 15  2  0
 14 13  1  0
 16 14  1  0
 17 16  1  0
 17 24  1  0
 17 18  1  1
 19 18  1  0
 20 19  2  0
 21 20  1  0
 22 21  1  0
 22 23  2  0
 23 19  1  0
 24 25  1  0
 26 24  2  0
M  END
$$$$
