FGH.pdb
     RDKit          3D

 26 27  0  0  1  0  0  0  0  0999 V2000
    6.8007  -14.2140   22.1928 N   0  0  0  0  0  0  0  0  0  0  0  0
    7.9974  -14.8156   22.7217 C   0  0  1  0  0  0  0  0  0  0  0  0
    7.8314  -15.0970   24.1983 C   0  0  0  0  0  0  0  0  0  0  0  0
    7.4547  -13.8586   24.9173 C   0  0  0  0  0  0  0  0  0  0  0  0
    6.2823  -13.8360   25.6524 C   0  0  0  0  0  0  0  0  0  0  0  0
    5.9621  -12.6634   26.3105 C   0  0  0  0  0  0  0  0  0  0  0  0
    6.7643  -11.5453   26.2521 C   0  0  0  0  0  0  0  0  0  0  0  0
    7.9215  -11.6174   25.5070 C   0  0  0  0  0  0  0  0  0  0  0  0
    8.2963  -12.7580   24.8275 C   0  0  0  0  0  0  0  0  0  0  0  0
    8.3791  -16.0343   21.9750 C   0  0  0  0  0  0  0  0  0  0  0  0
    7.4784  -16.7272   21.4545 O   0  0  0  0  0  0  0  0  0  0  0  0
    9.7294  -16.4568   21.8207 N   0  0  0  0  0  0  0  0  0  0  0  0
   10.3240  -17.4778   22.6307 C   0  0  0  0  0  0  0  0  0  0  0  0
   11.2828  -17.0149   23.6430 C   0  0  0  0  0  0  0  0  0  0  0  0
   11.6789  -15.7921   23.5425 O   0  0  0  0  0  0  0  0  0  0  0  0
   11.7900  -17.8014   24.6970 N   0  0  0  0  0  0  0  0  0  0  0  0
   11.8037  -17.2220   26.0357 C   0  0  1  0  0  0  0  0  0  0  0  0
   10.6267  -16.3248   26.2537 C   0  0  0  0  0  0  0  0  0  0  0  0
   10.6770  -15.7414   27.5993 C   0  0  0  0  0  0  0  0  0  0  0  0
   11.6131  -16.0172   28.6032 C   0  0  0  0  0  0  0  0  0  0  0  0
   11.3348  -15.2942   29.6886 N   0  0  0  0  0  0  0  0  0  0  0  0
   10.2534  -14.5607   29.4245 C   0  0  0  0  0  0  0  0  0  0  0  0
    9.8555  -14.8370   28.1484 N   0  0  0  0  0  0  0  0  0  0  0  0
   11.7554  -18.3462   26.9829 C   0  0  0  0  0  0  0  0  0  0  0  0
   12.3699  -19.5352   26.6959 O   0  0  0  0  0  0  0  0  0  0  0  0
   11.1467  -18.2389   28.0747 O   0  0  0  0  0  0  0  0  0  0  0  0
  2 10  1  0
  2  1  1  6
  3  2  1  0
  4  3  1  0
  5  4  2  0
  6  5  1  0
  7  8  1  0
  7  6  2  0
  8  9  2  0
  9  4  1  0
 10 12  1  0
 11 10  2  0
 12 13  1  0
 14 15  2  0
 14 13  1  0
 16 14  1  0
 17 16  1  0
 17 24  1  0
 17 18  1  6
 19 18  1  0
 20 19  2  0
 21 20  1  0
 22 21  1  0
 22 23  2  0
 23 19  1  0
 24 25  1  0
 26 24  2  0
M  END
$$$$
