FGH.pdb
     RDKit          3D

 26 27  0  0  1  0  0  0  0  0999 V2000
    9.8637  -14.3578   24.2191 N   0  0  0  0  0  0  0  0  0  0  0  0
    8.8326  -15.3286   23.9574 C   0  0  1  0  0  0  0  0  0  0  0  0
    7.5658  -14.6360   23.5073 C   0  0  0  0  0  0  0  0  0  0  0  0
    7.0661  -13.7375   24.5729 C   0  0  0  0  0  0  0  0  0  0  0  0
    7.4143  -12.3984   24.5438 C   0  0  0  0  0  0  0  0  0  0  0  0
    6.9299  -11.5891   25.5543 C   0  0  0  0  0  0  0  0  0  0  0  0
    6.1284  -12.0743   26.5639 C   0  0  0  0  0  0  0  0  0  0  0  0
    5.8094  -13.4151   26.5491 C   0  0  0  0  0  0  0  0  0  0  0  0
    6.2612  -14.2742   25.5688 C   0  0  0  0  0  0  0  0  0  0  0  0
    9.2709  -16.3499   22.9811 C   0  0  0  0  0  0  0  0  0  0  0  0
    9.5686  -15.9858   21.8229 O   0  0  0  0  0  0  0  0  0  0  0  0
    9.3700  -17.7335   23.2995 N   0  0  0  0  0  0  0  0  0  0  0  0
    9.4616  -18.2192   24.6440 C   0  0  0  0  0  0  0  0  0  0  0  0
   10.8084  -18.5858   25.1022 C   0  0  0  0  0  0  0  0  0  0  0  0
   11.2272  -19.7602   24.7738 O   0  0  0  0  0  0  0  0  0  0  0  0
   11.6585  -17.7572   25.8622 N   0  0  0  0  0  0  0  0  0  0  0  0
   11.5838  -17.8525   27.3159 C   0  0  1  0  0  0  0  0  0  0  0  0
   10.2603  -17.3776   27.8263 C   0  0  0  0  0  0  0  0  0  0  0  0
   10.2367  -15.9114   27.8852 C   0  0  0  0  0  0  0  0  0  0  0  0
   11.2469  -15.0349   27.4712 C   0  0  0  0  0  0  0  0  0  0  0  0
   10.8633  -13.7752   27.6811 N   0  0  0  0  0  0  0  0  0  0  0  0
    9.6423  -13.8037   28.2156 C   0  0  0  0  0  0  0  0  0  0  0  0
    9.2641  -15.1095   28.3382 N   0  0  0  0  0  0  0  0  0  0  0  0
   11.7690  -19.2714   27.6561 C   0  0  0  0  0  0  0  0  0  0  0  0
   11.9155  -20.2166   26.6768 O   0  0  0  0  0  0  0  0  0  0  0  0
   11.7942  -19.6456   28.8533 O   0  0  0  0  0  0  0  0  0  0  0  0
  2 10  1  0
  2  1  1  6
  3  2  1  0
  4  3  1  0
  5  4  2  0
  6  5  1  0
  7  8  1  0
  7  6  2  0
  8  9  2  0
  9  4  1  0
 10 12  1  0
 11 10  2  0
 12 13  1  0
 14 15  2  0
 14 13  1  0
 16 14  1  0
 17 16  1  0
 17 24  1  0
 17 18  1  6
 19 18  1  0
 20 19  2  0
 21 20  1  0
 22 21  1  0
 22 23  2  0
 23 19  1  0
 24 25  1  0
 26 24  2  0
M  END
$$$$
