FGH.pdb
     RDKit          3D

 26 27  0  0  1  0  0  0  0  0999 V2000
    8.4767  -16.7453   21.5071 N   0  0  0  0  0  0  0  0  0  0  0  0
    9.4347  -16.2513   22.4622 C   0  0  1  0  0  0  0  0  0  0  0  0
    9.7233  -14.7894   22.2035 C   0  0  0  0  0  0  0  0  0  0  0  0
    8.6467  -14.1918   21.3810 C   0  0  0  0  0  0  0  0  0  0  0  0
    7.5505  -13.6291   22.0112 C   0  0  0  0  0  0  0  0  0  0  0  0
    6.5650  -13.0805   21.2121 C   0  0  0  0  0  0  0  0  0  0  0  0
    6.6483  -13.0817   19.8372 C   0  0  0  0  0  0  0  0  0  0  0  0
    7.7597  -13.6540   19.2568 C   0  0  0  0  0  0  0  0  0  0  0  0
    8.7768  -14.2177   19.9990 C   0  0  0  0  0  0  0  0  0  0  0  0
    8.9938  -16.4807   23.8555 C   0  0  0  0  0  0  0  0  0  0  0  0
    9.8058  -16.2784   24.7841 O   0  0  0  0  0  0  0  0  0  0  0  0
    7.6830  -16.9228   24.1902 N   0  0  0  0  0  0  0  0  0  0  0  0
    7.2932  -17.2653   25.5253 C   0  0  0  0  0  0  0  0  0  0  0  0
    8.1525  -18.2378   26.2139 C   0  0  0  0  0  0  0  0  0  0  0  0
    7.7084  -19.4460   26.2875 O   0  0  0  0  0  0  0  0  0  0  0  0
    9.4058  -17.9461   26.7890 N   0  0  0  0  0  0  0  0  0  0  0  0
   10.1592  -19.0472   27.3789 C   0  0  1  0  0  0  0  0  0  0  0  0
   11.6298  -18.8793   27.1623 C   0  0  0  0  0  0  0  0  0  0  0  0
   11.9552  -19.0500   25.7415 C   0  0  0  0  0  0  0  0  0  0  0  0
   11.1018  -19.5079   24.7305 C   0  0  0  0  0  0  0  0  0  0  0  0
   11.7532  -19.5282   23.5670 N   0  0  0  0  0  0  0  0  0  0  0  0
   12.9964  -19.1004   23.7875 C   0  0  0  0  0  0  0  0  0  0  0  0
   13.1150  -18.8098   25.1158 N   0  0  0  0  0  0  0  0  0  0  0  0
    9.8635  -19.0372   28.8196 C   0  0  0  0  0  0  0  0  0  0  0  0
    9.7452  -17.8585   29.5056 O   0  0  0  0  0  0  0  0  0  0  0  0
    9.7156  -20.1110   29.4512 O   0  0  0  0  0  0  0  0  0  0  0  0
  2 10  1  0
  2  1  1  6
  3  2  1  0
  4  3  1  0
  5  4  2  0
  6  5  1  0
  7  8  1  0
  7  6  2  0
  8  9  2  0
  9  4  1  0
 10 12  1  0
 11 10  2  0
 12 13  1  0
 14 15  2  0
 14 13  1  0
 16 14  1  0
 17 16  1  0
 17 24  1  0
 17 18  1  1
 19 18  1  0
 20 19  2  0
 21 20  1  0
 22 21  1  0
 22 23  2  0
 23 19  1  0
 24 25  1  0
 26 24  2  0
M  END
$$$$
