FGH.pdb
     RDKit          3D

 26 27  0  0  1  0  0  0  0  0999 V2000
    8.9327  -17.7427   19.4480 N   0  0  0  0  0  0  0  0  0  0  0  0
    9.1458  -16.6835   20.4002 C   0  0  1  0  0  0  0  0  0  0  0  0
    7.8204  -16.1833   20.9298 C   0  0  0  0  0  0  0  0  0  0  0  0
    7.6524  -14.7458   20.6166 C   0  0  0  0  0  0  0  0  0  0  0  0
    8.2201  -13.8025   21.4551 C   0  0  0  0  0  0  0  0  0  0  0  0
    8.0432  -12.4702   21.1320 C   0  0  0  0  0  0  0  0  0  0  0  0
    7.3322  -12.0713   20.0218 C   0  0  0  0  0  0  0  0  0  0  0  0
    6.7860  -13.0485   19.2178 C   0  0  0  0  0  0  0  0  0  0  0  0
    6.9271  -14.3943   19.4861 C   0  0  0  0  0  0  0  0  0  0  0  0
   10.0476  -17.0997   21.4964 C   0  0  0  0  0  0  0  0  0  0  0  0
   10.5607  -18.2388   21.4531 O   0  0  0  0  0  0  0  0  0  0  0  0
   10.3601  -16.2609   22.6029 N   0  0  0  0  0  0  0  0  0  0  0  0
   11.2020  -16.6783   23.6840 C   0  0  0  0  0  0  0  0  0  0  0  0
   10.5275  -16.9104   24.9683 C   0  0  0  0  0  0  0  0  0  0  0  0
   11.2889  -17.1150   25.9885 O   0  0  0  0  0  0  0  0  0  0  0  0
    9.1309  -16.9244   25.1583 N   0  0  0  0  0  0  0  0  0  0  0  0
    8.6270  -17.2050   26.4983 C   0  0  1  0  0  0  0  0  0  0  0  0
    7.2196  -16.7255   26.6629 C   0  0  0  0  0  0  0  0  0  0  0  0
    7.1514  -15.2743   26.4550 C   0  0  0  0  0  0  0  0  0  0  0  0
    8.2289  -14.3892   26.3295 C   0  0  0  0  0  0  0  0  0  0  0  0
    7.7735  -13.1487   26.1513 N   0  0  0  0  0  0  0  0  0  0  0  0
    6.4413  -13.1979   26.1568 C   0  0  0  0  0  0  0  0  0  0  0  0
    6.0663  -14.4971   26.3425 N   0  0  0  0  0  0  0  0  0  0  0  0
    8.6796  -18.6644   26.6723 C   0  0  0  0  0  0  0  0  0  0  0  0
    8.3073  -19.2462   27.8541 O   0  0  0  0  0  0  0  0  0  0  0  0
    9.0698  -19.4076   25.7399 O   0  0  0  0  0  0  0  0  0  0  0  0
  2 10  1  0
  2  1  1  6
  3  2  1  0
  4  3  1  0
  5  4  2  0
  6  5  1  0
  7  8  1  0
  7  6  2  0
  8  9  2  0
  9  4  1  0
 10 12  1  0
 11 10  2  0
 12 13  1  0
 14 15  2  0
 14 13  1  0
 16 14  1  0
 17 16  1  0
 17 24  1  0
 17 18  1  6
 19 18  1  0
 20 19  2  0
 21 20  1  0
 22 21  1  0
 22 23  2  0
 23 19  1  0
 24 25  1  0
 26 24  2  0
M  END
$$$$
