FGH.pdb
     RDKit          3D

 26 27  0  0  1  0  0  0  0  0999 V2000
    6.0750  -15.8985   26.0568 N   0  0  0  0  0  0  0  0  0  0  0  0
    6.6253  -15.5404   24.7751 C   0  0  1  0  0  0  0  0  0  0  0  0
    7.6455  -14.4356   24.9354 C   0  0  0  0  0  0  0  0  0  0  0  0
    7.1167  -13.3738   25.8218 C   0  0  0  0  0  0  0  0  0  0  0  0
    7.7358  -13.1401   27.0373 C   0  0  0  0  0  0  0  0  0  0  0  0
    7.2155  -12.1415   27.8389 C   0  0  0  0  0  0  0  0  0  0  0  0
    6.1218  -11.3929   27.4637 C   0  0  0  0  0  0  0  0  0  0  0  0
    5.5402  -11.6635   26.2438 C   0  0  0  0  0  0  0  0  0  0  0  0
    6.0122  -12.6466   25.3988 C   0  0  0  0  0  0  0  0  0  0  0  0
    7.1962  -16.7106   24.0730 C   0  0  0  0  0  0  0  0  0  0  0  0
    7.8392  -16.5236   23.0175 O   0  0  0  0  0  0  0  0  0  0  0  0
    7.0473  -18.0452   24.5445 N   0  0  0  0  0  0  0  0  0  0  0  0
    7.6452  -19.1728   23.8943 C   0  0  0  0  0  0  0  0  0  0  0  0
    9.0974  -19.3150   24.0652 C   0  0  0  0  0  0  0  0  0  0  0  0
    9.6215  -20.4125   23.6372 O   0  0  0  0  0  0  0  0  0  0  0  0
    9.9414  -18.3518   24.6541 N   0  0  0  0  0  0  0  0  0  0  0  0
   11.3613  -18.6663   24.7675 C   0  0  1  0  0  0  0  0  0  0  0  0
   12.2100  -17.5575   24.2308 C   0  0  0  0  0  0  0  0  0  0  0  0
   11.8451  -17.2687   22.8390 C   0  0  0  0  0  0  0  0  0  0  0  0
   11.4570  -18.1918   21.8605 C   0  0  0  0  0  0  0  0  0  0  0  0
   11.2038  -17.5550   20.7166 N   0  0  0  0  0  0  0  0  0  0  0  0
   11.4136  -16.2540   20.9183 C   0  0  0  0  0  0  0  0  0  0  0  0
   11.8048  -16.0842   22.2149 N   0  0  0  0  0  0  0  0  0  0  0  0
   11.6384  -18.8575   26.1992 C   0  0  0  0  0  0  0  0  0  0  0  0
   12.8973  -19.1700   26.6368 O   0  0  0  0  0  0  0  0  0  0  0  0
   10.7244  -18.7401   27.0505 O   0  0  0  0  0  0  0  0  0  0  0  0
  2 10  1  0
  2  1  1  1
  3  2  1  0
  4  3  1  0
  5  4  2  0
  6  5  1  0
  7  8  1  0
  7  6  2  0
  8  9  2  0
  9  4  1  0
 10 12  1  0
 11 10  2  0
 12 13  1  0
 14 15  2  0
 14 13  1  0
 16 14  1  0
 17 16  1  0
 17 24  1  0
 17 18  1  1
 19 18  1  0
 20 19  2  0
 21 20  1  0
 22 21  1  0
 22 23  2  0
 23 19  1  0
 24 25  1  0
 26 24  2  0
M  END
$$$$
