FGH.pdb
     RDKit          3D

 26 27  0  0  1  0  0  0  0  0999 V2000
    7.5172  -16.1221   26.0276 N   0  0  0  0  0  0  0  0  0  0  0  0
    7.0467  -15.3981   24.8751 C   0  0  1  0  0  0  0  0  0  0  0  0
    7.6958  -14.0335   24.8153 C   0  0  0  0  0  0  0  0  0  0  0  0
    7.1436  -13.1561   25.8726 C   0  0  0  0  0  0  0  0  0  0  0  0
    7.7071  -13.1866   27.1363 C   0  0  0  0  0  0  0  0  0  0  0  0
    7.1664  -12.3544   28.0984 C   0  0  0  0  0  0  0  0  0  0  0  0
    6.1057  -11.5166   27.8333 C   0  0  0  0  0  0  0  0  0  0  0  0
    5.5791  -11.5224   26.5596 C   0  0  0  0  0  0  0  0  0  0  0  0
    6.0740  -12.3294   25.5561 C   0  0  0  0  0  0  0  0  0  0  0  0
    7.2578  -16.1565   23.6227 C   0  0  0  0  0  0  0  0  0  0  0  0
    6.8613  -15.6611   22.5457 O   0  0  0  0  0  0  0  0  0  0  0  0
    7.8940  -17.4291   23.5858 N   0  0  0  0  0  0  0  0  0  0  0  0
    8.1687  -18.1280   22.3660 C   0  0  0  0  0  0  0  0  0  0  0  0
    9.2470  -17.5715   21.5378 C   0  0  0  0  0  0  0  0  0  0  0  0
    9.4615  -18.1529   20.4072 O   0  0  0  0  0  0  0  0  0  0  0  0
   10.0484  -16.4661   21.8880 N   0  0  0  0  0  0  0  0  0  0  0  0
   11.1237  -16.0868   20.9780 C   0  0  1  0  0  0  0  0  0  0  0  0
   11.0800  -14.6255   20.6614 C   0  0  0  0  0  0  0  0  0  0  0  0
    9.8687  -14.3092   19.8956 C   0  0  0  0  0  0  0  0  0  0  0  0
    8.9084  -15.2132   19.4260 C   0  0  0  0  0  0  0  0  0  0  0  0
    7.9514  -14.5536   18.7723 N   0  0  0  0  0  0  0  0  0  0  0  0
    8.2567  -13.2562   18.8014 C   0  0  0  0  0  0  0  0  0  0  0  0
    9.4275  -13.1120   19.4879 N   0  0  0  0  0  0  0  0  0  0  0  0
   12.3867  -16.4117   21.6581 C   0  0  0  0  0  0  0  0  0  0  0  0
   12.3900  -16.9546   22.9147 O   0  0  0  0  0  0  0  0  0  0  0  0
   13.4893  -16.1955   21.1001 O   0  0  0  0  0  0  0  0  0  0  0  0
  2 10  1  0
  2  1  1  1
  3  2  1  0
  4  3  1  0
  5  4  2  0
  6  5  1  0
  7  8  1  0
  7  6  2  0
  8  9  2  0
  9  4  1  0
 10 12  1  0
 11 10  2  0
 12 13  1  0
 14 15  2  0
 14 13  1  0
 16 14  1  0
 17 16  1  0
 17 24  1  0
 17 18  1  1
 19 18  1  0
 20 19  2  0
 21 20  1  0
 22 21  1  0
 22 23  2  0
 23 19  1  0
 24 25  1  0
 26 24  2  0
M  END
$$$$
