FGH.pdb
     RDKit          3D

 26 27  0  0  1  0  0  0  0  0999 V2000
    6.4604  -15.1383   23.6525 N   0  0  0  0  0  0  0  0  0  0  0  0
    7.7881  -15.1855   24.2083 C   0  0  1  0  0  0  0  0  0  0  0  0
    7.7549  -14.8070   25.6721 C   0  0  0  0  0  0  0  0  0  0  0  0
    7.2454  -13.4261   25.8334 C   0  0  0  0  0  0  0  0  0  0  0  0
    8.1378  -12.3691   25.7906 C   0  0  0  0  0  0  0  0  0  0  0  0
    7.6271  -11.0939   25.9448 C   0  0  0  0  0  0  0  0  0  0  0  0
    6.2834  -10.8584   26.1353 C   0  0  0  0  0  0  0  0  0  0  0  0
    5.4349  -11.9440   26.1704 C   0  0  0  0  0  0  0  0  0  0  0  0
    5.8826  -13.2405   26.0229 C   0  0  0  0  0  0  0  0  0  0  0  0
    8.4266  -16.5037   24.0014 C   0  0  0  0  0  0  0  0  0  0  0  0
    9.6252  -16.6486   24.3250 O   0  0  0  0  0  0  0  0  0  0  0  0
    7.7376  -17.6198   23.4487 N   0  0  0  0  0  0  0  0  0  0  0  0
    8.3908  -18.8482   23.1081 C   0  0  0  0  0  0  0  0  0  0  0  0
    8.8206  -19.6804   24.2400 C   0  0  0  0  0  0  0  0  0  0  0  0
    8.2025  -20.8011   24.3964 O   0  0  0  0  0  0  0  0  0  0  0  0
    9.8433  -19.3440   25.1498 N   0  0  0  0  0  0  0  0  0  0  0  0
   10.4216  -20.4153   25.9535 C   0  0  1  0  0  0  0  0  0  0  0  0
   11.4045  -21.2199   25.1634 C   0  0  0  0  0  0  0  0  0  0  0  0
   11.9887  -22.2723   26.0029 C   0  0  0  0  0  0  0  0  0  0  0  0
   12.2495  -22.2067   27.3769 C   0  0  0  0  0  0  0  0  0  0  0  0
   12.7829  -23.3574   27.7889 N   0  0  0  0  0  0  0  0  0  0  0  0
   12.8769  -24.1653   26.7327 C   0  0  0  0  0  0  0  0  0  0  0  0
   12.3911  -23.4988   25.6451 N   0  0  0  0  0  0  0  0  0  0  0  0
   11.1018  -19.7721   27.0878 C   0  0  0  0  0  0  0  0  0  0  0  0
   11.1741  -20.3899   28.3072 O   0  0  0  0  0  0  0  0  0  0  0  0
   11.6289  -18.6407   26.9615 O   0  0  0  0  0  0  0  0  0  0  0  0
  2 10  1  0
  2  1  1  1
  3  2  1  0
  4  3  1  0
  5  4  2  0
  6  5  1  0
  7  8  1  0
  7  6  2  0
  8  9  2  0
  9  4  1  0
 10 12  1  0
 11 10  2  0
 12 13  1  0
 14 15  2  0
 14 13  1  0
 16 14  1  0
 17 16  1  0
 17 24  1  0
 17 18  1  6
 19 18  1  0
 20 19  2  0
 21 20  1  0
 22 21  1  0
 22 23  2  0
 23 19  1  0
 24 25  1  0
 26 24  2  0
M  END
$$$$
