MDL.pdb
     RDKit          3D

 25 24  0  0  1  0  0  0  0  0999 V2000
   19.5046  -35.3846    0.8097 C   0  0  0  0  0  0  0  0  0  0  0  0
   18.8467  -36.4281   -0.4834 S   0  0  0  0  0  0  0  0  0  0  0  0
   19.2374  -35.9885   -2.1522 C   0  0  0  0  0  0  0  0  0  0  0  0
   18.9891  -34.5978   -2.5969 C   0  0  0  0  0  0  0  0  0  0  0  0
   17.7719  -34.3135   -3.4105 C   0  0  2  0  0  0  0  0  0  0  0  0
   18.0328  -34.5008   -4.7965 N   0  0  0  0  0  0  0  0  0  0  0  0
   17.1003  -33.0454   -3.0663 C   0  0  0  0  0  0  0  0  0  0  0  0
   17.4016  -31.9765   -3.7087 O   0  0  0  0  0  0  0  0  0  0  0  0
   16.1231  -32.8528   -2.0691 N   0  0  0  0  0  0  0  0  0  0  0  0
   15.4754  -31.6228   -1.7821 C   0  0  1  0  0  0  0  0  0  0  0  0
   14.1398  -31.6939   -1.1154 C   0  0  0  0  0  0  0  0  0  0  0  0
   13.5839  -30.3448   -0.9019 C   0  0  0  0  0  0  0  0  0  0  0  0
   13.6982  -29.6766    0.1506 O   0  0  0  0  0  0  0  0  0  0  0  0
   16.4193  -30.7075   -1.1303 C   0  0  0  0  0  0  0  0  0  0  0  0
   17.0698  -31.0895   -0.1265 O   0  0  0  0  0  0  0  0  0  0  0  0
   12.8742  -29.7467   -1.9326 O   0  0  0  0  0  0  0  0  0  0  0  0
   20.2528  -27.7715    0.1946 C   0  0  0  0  0  0  0  0  0  0  0  0
   19.8280  -27.3316   -1.2089 C   0  0  2  0  0  0  0  0  0  0  0  0
   19.3749  -25.9032   -1.0930 C   0  0  0  0  0  0  0  0  0  0  0  0
   18.7986  -28.2446   -1.7721 C   0  0  0  0  0  0  0  0  0  0  0  0
   17.5986  -28.4791   -0.9137 C   0  0  2  0  0  0  0  0  0  0  0  0
   16.6632  -29.3672   -1.5656 N   0  0  0  0  0  0  0  0  0  0  0  0
   16.9680  -27.2547   -0.3807 C   0  0  0  0  0  0  0  0  0  0  0  0
   17.3328  -26.7193    0.6928 O   0  0  0  0  0  0  0  0  0  0  0  0
   15.9137  -26.6088   -1.0444 O   0  0  0  0  0  0  0  0  0  0  0  0
  2  1  1  0
  2  3  1  0
  4  3  1  0
  4  5  1  0
  5  7  1  0
  5  6  1  6
  7  8  2  0
  9 10  1  0
  9  7  1  0
 10 11  1  1
 12 11  1  0
 13 12  2  0
 14 15  2  0
 14 10  1  0
 16 12  1  0
 18 17  1  1
 18 19  1  0
 20 18  1  0
 21 22  1  0
 21 20  1  6
 22 14  1  0
 23 21  1  0
 24 23  2  0
 25 23  1  0
M  END
$$$$
