MDL.pdb
     RDKit          3D

 25 24  0  0  1  0  0  0  0  0999 V2000
   17.4231  -14.4170  -14.8452 C   0  0  0  0  0  0  0  0  0  0  0  0
   16.2315  -13.9129  -16.0780 S   0  0  0  0  0  0  0  0  0  0  0  0
   15.6034  -12.2626  -15.9657 C   0  0  0  0  0  0  0  0  0  0  0  0
   16.5657  -11.1377  -15.9242 C   0  0  0  0  0  0  0  0  0  0  0  0
   16.4182  -10.0332  -16.9156 C   0  0  2  0  0  0  0  0  0  0  0  0
   16.5562  -10.5223  -18.2445 N   0  0  0  0  0  0  0  0  0  0  0  0
   17.2194   -8.8336  -16.6042 C   0  0  0  0  0  0  0  0  0  0  0  0
   18.3125   -8.6214  -17.2415 O   0  0  0  0  0  0  0  0  0  0  0  0
   16.9195   -7.8454  -15.6452 N   0  0  0  0  0  0  0  0  0  0  0  0
   17.6727   -6.6630  -15.4228 C   0  0  1  0  0  0  0  0  0  0  0  0
   16.9327   -5.4674  -14.9163 C   0  0  0  0  0  0  0  0  0  0  0  0
   15.8524   -5.0834  -15.8437 C   0  0  0  0  0  0  0  0  0  0  0  0
   15.9623   -5.0141  -17.0888 O   0  0  0  0  0  0  0  0  0  0  0  0
   18.8823   -6.9843  -14.6565 C   0  0  0  0  0  0  0  0  0  0  0  0
   18.7846   -7.5622  -13.5459 O   0  0  0  0  0  0  0  0  0  0  0  0
   14.6067   -4.7692  -15.3207 O   0  0  0  0  0  0  0  0  0  0  0  0
   24.2997   -9.3453  -14.7484 C   0  0  0  0  0  0  0  0  0  0  0  0
   23.3428   -8.4564  -13.9496 C   0  0  2  0  0  0  0  0  0  0  0  0
   23.0197   -9.2007  -12.6843 C   0  0  0  0  0  0  0  0  0  0  0  0
   22.1469   -8.0915  -14.7540 C   0  0  0  0  0  0  0  0  0  0  0  0
   21.3828   -6.8992  -14.2779 C   0  0  2  0  0  0  0  0  0  0  0  0
   20.2096   -6.6790  -15.0926 N   0  0  0  0  0  0  0  0  0  0  0  0
   22.1938   -5.6811  -14.0793 C   0  0  0  0  0  0  0  0  0  0  0  0
   22.4665   -4.8913  -15.0141 O   0  0  0  0  0  0  0  0  0  0  0  0
   22.7151   -5.3281  -12.8252 O   0  0  0  0  0  0  0  0  0  0  0  0
  2  1  1  0
  2  3  1  0
  4  3  1  0
  4  5  1  0
  5  7  1  0
  5  6  1  6
  7  8  2  0
  9 10  1  0
  9  7  1  0
 10 11  1  1
 12 11  1  0
 13 12  2  0
 14 15  2  0
 14 10  1  0
 16 12  1  0
 18 17  1  6
 18 19  1  0
 20 18  1  0
 21 22  1  0
 21 20  1  6
 22 14  1  0
 23 21  1  0
 24 23  2  0
 25 23  1  0
M  END
$$$$
