MDL.pdb
     RDKit          3D

 25 24  0  0  1  0  0  0  0  0999 V2000
   27.7927  -18.1981   -5.6700 C   0  0  0  0  0  0  0  0  0  0  0  0
   27.8340  -19.8828   -6.2649 S   0  0  0  0  0  0  0  0  0  0  0  0
   28.7256  -20.1881   -7.7624 C   0  0  0  0  0  0  0  0  0  0  0  0
   28.0227  -20.0175   -9.0548 C   0  0  0  0  0  0  0  0  0  0  0  0
   26.7581  -20.7735   -9.2865 C   0  0  2  0  0  0  0  0  0  0  0  0
   26.9518  -22.1659   -9.0673 N   0  0  0  0  0  0  0  0  0  0  0  0
   26.0725  -20.4282  -10.5468 C   0  0  0  0  0  0  0  0  0  0  0  0
   25.8476  -19.1964  -10.8264 O   0  0  0  0  0  0  0  0  0  0  0  0
   25.6093  -21.3274  -11.5281 N   0  0  0  0  0  0  0  0  0  0  0  0
   25.0251  -20.9588  -12.7681 C   0  0  1  0  0  0  0  0  0  0  0  0
   25.4722  -21.7066  -13.9824 C   0  0  0  0  0  0  0  0  0  0  0  0
   26.6918  -21.1054  -14.5532 C   0  0  0  0  0  0  0  0  0  0  0  0
   27.6456  -21.7454  -15.0511 O   0  0  0  0  0  0  0  0  0  0  0  0
   23.5673  -20.8755  -12.6224 C   0  0  0  0  0  0  0  0  0  0  0  0
   22.9650  -21.6886  -11.8788 O   0  0  0  0  0  0  0  0  0  0  0  0
   26.8169  -19.7240  -14.5502 O   0  0  0  0  0  0  0  0  0  0  0  0
   18.8786  -16.9414  -13.7851 C   0  0  0  0  0  0  0  0  0  0  0  0
   19.3162  -18.3297  -13.3107 C   0  0  2  0  0  0  0  0  0  0  0  0
   18.7608  -18.5054  -11.9252 C   0  0  0  0  0  0  0  0  0  0  0  0
   20.7925  -18.4868  -13.3907 C   0  0  0  0  0  0  0  0  0  0  0  0
   21.3111  -19.8710  -13.1738 C   0  0  2  0  0  0  0  0  0  0  0  0
   22.7516  -19.9058  -13.2854 N   0  0  0  0  0  0  0  0  0  0  0  0
   20.6376  -20.9177  -13.9686 C   0  0  0  0  0  0  0  0  0  0  0  0
   20.2518  -22.0014  -13.4697 O   0  0  0  0  0  0  0  0  0  0  0  0
   20.3858  -20.7665  -15.3408 O   0  0  0  0  0  0  0  0  0  0  0  0
  2  1  1  0
  2  3  1  0
  4  3  1  0
  4  5  1  0
  5  7  1  0
  5  6  1  6
  7  8  2  0
  9 10  1  0
  9  7  1  0
 10 11  1  6
 12 11  1  0
 13 12  2  0
 14 15  2  0
 14 10  1  0
 16 12  1  0
 18 17  1  1
 18 19  1  0
 20 18  1  0
 21 22  1  0
 21 20  1  6
 22 14  1  0
 23 21  1  0
 24 23  2  0
 25 23  1  0
M  END
$$$$
