MDL.pdb
     RDKit          3D

 25 24  0  0  1  0  0  0  0  0999 V2000
   24.9041  -11.3091  -14.4021 C   0  0  0  0  0  0  0  0  0  0  0  0
   24.6024  -12.8174  -15.3119 S   0  0  0  0  0  0  0  0  0  0  0  0
   23.1889  -12.8490  -16.3758 C   0  0  0  0  0  0  0  0  0  0  0  0
   22.3884  -11.6126  -16.5300 C   0  0  0  0  0  0  0  0  0  0  0  0
   21.0972  -11.6845  -17.2732 C   0  0  2  0  0  0  0  0  0  0  0  0
   21.2851  -12.2560  -18.5625 N   0  0  0  0  0  0  0  0  0  0  0  0
   20.3198  -10.4304  -17.2521 C   0  0  0  0  0  0  0  0  0  0  0  0
   20.7146   -9.4308  -17.9528 O   0  0  0  0  0  0  0  0  0  0  0  0
   19.1414  -10.1815  -16.5202 N   0  0  0  0  0  0  0  0  0  0  0  0
   18.3893   -8.9783  -16.5609 C   0  0  1  0  0  0  0  0  0  0  0  0
   16.9022   -9.0997  -16.4755 C   0  0  0  0  0  0  0  0  0  0  0  0
   16.3934  -10.0639  -17.4687 C   0  0  0  0  0  0  0  0  0  0  0  0
   15.8875  -11.1767  -17.1991 O   0  0  0  0  0  0  0  0  0  0  0  0
   18.9629   -8.0050  -15.6243 C   0  0  0  0  0  0  0  0  0  0  0  0
   19.2179   -8.3478  -14.4435 O   0  0  0  0  0  0  0  0  0  0  0  0
   16.4701   -9.7361  -18.8143 O   0  0  0  0  0  0  0  0  0  0  0  0
   21.7801   -4.8827  -13.0278 C   0  0  0  0  0  0  0  0  0  0  0  0
   22.0780   -4.5936  -14.5014 C   0  0  2  0  0  0  0  0  0  0  0  0
   21.7687   -3.1399  -14.7254 C   0  0  0  0  0  0  0  0  0  0  0  0
   21.3245   -5.5128  -15.3947 C   0  0  0  0  0  0  0  0  0  0  0  0
   19.8860   -5.7202  -15.0491 C   0  0  2  0  0  0  0  0  0  0  0  0
   19.2638   -6.6491  -15.9649 N   0  0  0  0  0  0  0  0  0  0  0  0
   19.1087   -4.4793  -14.8570 C   0  0  0  0  0  0  0  0  0  0  0  0
   18.5121   -3.9034  -15.7976 O   0  0  0  0  0  0  0  0  0  0  0  0
   18.9880   -3.8609  -13.6032 O   0  0  0  0  0  0  0  0  0  0  0  0
  2  1  1  0
  2  3  1  0
  4  3  1  0
  4  5  1  0
  5  7  1  0
  5  6  1  6
  7  8  2  0
  9 10  1  0
  9  7  1  0
 10 11  1  1
 12 11  1  0
 13 12  2  0
 14 15  2  0
 14 10  1  0
 16 12  1  0
 18 17  1  1
 18 19  1  0
 20 18  1  0
 21 22  1  0
 21 20  1  6
 22 14  1  0
 23 21  1  0
 24 23  2  0
 25 23  1  0
M  END
$$$$
