MDL.pdb
     RDKit          3D

 25 24  0  0  1  0  0  0  0  0999 V2000
   27.5298  -33.9799  -12.4228 C   0  0  0  0  0  0  0  0  0  0  0  0
   26.5383  -35.0680  -11.4095 S   0  0  0  0  0  0  0  0  0  0  0  0
   25.6244  -34.3289  -10.0870 C   0  0  0  0  0  0  0  0  0  0  0  0
   26.3618  -33.5667   -9.0533 C   0  0  0  0  0  0  0  0  0  0  0  0
   25.5911  -32.9405   -7.9404 C   0  0  2  0  0  0  0  0  0  0  0  0
   25.2088  -31.6111   -8.2732 N   0  0  0  0  0  0  0  0  0  0  0  0
   26.2154  -33.0980   -6.6126 C   0  0  0  0  0  0  0  0  0  0  0  0
   26.6913  -32.0687   -6.0124 O   0  0  0  0  0  0  0  0  0  0  0  0
   26.3632  -34.2975   -5.8876 N   0  0  0  0  0  0  0  0  0  0  0  0
   26.8547  -34.3981   -4.5598 C   0  0  1  0  0  0  0  0  0  0  0  0
   25.9071  -34.8964   -3.5171 C   0  0  0  0  0  0  0  0  0  0  0  0
   26.5327  -34.8746   -2.1817 C   0  0  0  0  0  0  0  0  0  0  0  0
   26.6456  -35.8637   -1.4228 O   0  0  0  0  0  0  0  0  0  0  0  0
   28.1518  -35.0845   -4.5636 C   0  0  0  0  0  0  0  0  0  0  0  0
   28.2894  -36.1592   -5.1983 O   0  0  0  0  0  0  0  0  0  0  0  0
   27.0438  -33.6763   -1.7058 O   0  0  0  0  0  0  0  0  0  0  0  0
   34.1887  -34.2047   -3.6802 C   0  0  0  0  0  0  0  0  0  0  0  0
   33.0438  -35.1573   -4.0347 C   0  0  2  0  0  0  0  0  0  0  0  0
   33.3573  -35.7197   -5.3928 C   0  0  0  0  0  0  0  0  0  0  0  0
   31.7273  -34.4707   -3.9580 C   0  0  0  0  0  0  0  0  0  0  0  0
   30.5406  -35.3598   -3.7756 C   0  0  2  0  0  0  0  0  0  0  0  0
   29.3112  -34.6068   -3.8760 N   0  0  0  0  0  0  0  0  0  0  0  0
   30.5962  -36.2326   -2.5855 C   0  0  0  0  0  0  0  0  0  0  0  0
   30.9030  -37.4465   -2.6518 O   0  0  0  0  0  0  0  0  0  0  0  0
   30.3066  -35.7572   -1.2974 O   0  0  0  0  0  0  0  0  0  0  0  0
  2  1  1  0
  2  3  1  0
  4  3  1  0
  4  5  1  0
  5  7  1  0
  5  6  1  6
  7  8  2  0
  9 10  1  0
  9  7  1  0
 10 11  1  1
 12 11  1  0
 13 12  2  0
 14 15  2  0
 14 10  1  0
 16 12  1  0
 18 17  1  6
 18 19  1  0
 20 18  1  0
 21 22  1  0
 21 20  1  1
 22 14  1  0
 23 21  1  0
 24 23  2  0
 25 23  1  0
M  END
$$$$
