MDL.pdb
     RDKit          3D

 25 24  0  0  1  0  0  0  0  0999 V2000
   17.3112  -11.7276  -20.8539 C   0  0  0  0  0  0  0  0  0  0  0  0
   15.9769  -10.9672  -19.9400 S   0  0  0  0  0  0  0  0  0  0  0  0
   15.9586  -11.2093  -18.1874 C   0  0  0  0  0  0  0  0  0  0  0  0
   16.5351  -10.1572  -17.3191 C   0  0  0  0  0  0  0  0  0  0  0  0
   17.9084  -10.3547  -16.7716 C   0  0  2  0  0  0  0  0  0  0  0  0
   17.9689  -11.5235  -15.9626 N   0  0  0  0  0  0  0  0  0  0  0  0
   18.4949   -9.1436  -16.1659 C   0  0  0  0  0  0  0  0  0  0  0  0
   17.9805   -8.6610  -15.0942 O   0  0  0  0  0  0  0  0  0  0  0  0
   19.6025   -8.4144  -16.6431 N   0  0  0  0  0  0  0  0  0  0  0  0
   20.1639   -7.2715  -16.0158 C   0  0  1  0  0  0  0  0  0  0  0  0
   21.6550   -7.1870  -15.9596 C   0  0  0  0  0  0  0  0  0  0  0  0
   22.2228   -8.3463  -15.2466 C   0  0  0  0  0  0  0  0  0  0  0  0
   22.0056   -8.6317  -14.0473 O   0  0  0  0  0  0  0  0  0  0  0  0
   19.5168   -6.0583  -16.5287 C   0  0  0  0  0  0  0  0  0  0  0  0
   19.2981   -5.9380  -17.7594 O   0  0  0  0  0  0  0  0  0  0  0  0
   23.0674   -9.2034  -15.9366 O   0  0  0  0  0  0  0  0  0  0  0  0
   14.8770   -2.5735  -16.4047 C   0  0  0  0  0  0  0  0  0  0  0  0
   16.3659   -2.5808  -16.7611 C   0  0  2  0  0  0  0  0  0  0  0  0
   16.4496   -2.5011  -18.2597 C   0  0  0  0  0  0  0  0  0  0  0  0
   17.0533   -3.7656  -16.1832 C   0  0  0  0  0  0  0  0  0  0  0  0
   18.5462   -3.7400  -16.2350 C   0  0  2  0  0  0  0  0  0  0  0  0
   19.1021   -4.9646  -15.7059 N   0  0  0  0  0  0  0  0  0  0  0  0
   19.1659   -2.5244  -15.6698 C   0  0  0  0  0  0  0  0  0  0  0  0
   19.5066   -2.4370  -14.4663 O   0  0  0  0  0  0  0  0  0  0  0  0
   19.4136   -1.3828  -16.4472 O   0  0  0  0  0  0  0  0  0  0  0  0
  2  1  1  0
  2  3  1  0
  4  3  1  0
  4  5  1  0
  5  7  1  0
  5  6  1  1
  7  8  2  0
  9 10  1  0
  9  7  1  0
 10 11  1  6
 12 11  1  0
 13 12  2  0
 14 15  2  0
 14 10  1  0
 16 12  1  0
 18 17  1  6
 18 19  1  0
 20 18  1  0
 21 22  1  0
 21 20  1  1
 22 14  1  0
 23 21  1  0
 24 23  2  0
 25 23  1  0
M  END
$$$$
