MDL.pdb
     RDKit          3D

 25 24  0  0  1  0  0  0  0  0999 V2000
   30.0753  -15.4841  -14.3425 C   0  0  0  0  0  0  0  0  0  0  0  0
   28.7832  -16.1381  -15.3896 S   0  0  0  0  0  0  0  0  0  0  0  0
   27.1137  -15.7559  -14.9453 C   0  0  0  0  0  0  0  0  0  0  0  0
   26.1064  -16.8412  -14.9685 C   0  0  0  0  0  0  0  0  0  0  0  0
   26.2658  -17.9439  -15.9601 C   0  0  2  0  0  0  0  0  0  0  0  0
   25.8506  -17.5258  -17.2551 N   0  0  0  0  0  0  0  0  0  0  0  0
   25.7152  -19.2386  -15.5145 C   0  0  0  0  0  0  0  0  0  0  0  0
   24.4443  -19.4136  -15.5017 O   0  0  0  0  0  0  0  0  0  0  0  0
   26.4478  -20.3604  -15.0774 N   0  0  0  0  0  0  0  0  0  0  0  0
   25.9062  -21.6498  -14.8343 C   0  0  1  0  0  0  0  0  0  0  0  0
   26.6474  -22.8188  -15.3979 C   0  0  0  0  0  0  0  0  0  0  0  0
   27.1995  -22.5022  -16.7282 C   0  0  0  0  0  0  0  0  0  0  0  0
   28.4170  -22.4923  -17.0193 O   0  0  0  0  0  0  0  0  0  0  0  0
   25.5718  -21.7852  -13.4118 C   0  0  0  0  0  0  0  0  0  0  0  0
   24.8073  -22.7067  -13.0335 O   0  0  0  0  0  0  0  0  0  0  0  0
   26.3219  -22.1871  -17.7551 O   0  0  0  0  0  0  0  0  0  0  0  0
   26.8223  -18.9937   -7.9367 C   0  0  0  0  0  0  0  0  0  0  0  0
   25.9762  -19.9983   -8.7233 C   0  0  2  0  0  0  0  0  0  0  0  0
   26.0915  -21.3133   -8.0045 C   0  0  0  0  0  0  0  0  0  0  0  0
   26.3924  -20.0546  -10.1495 C   0  0  0  0  0  0  0  0  0  0  0  0
   25.5437  -20.9012  -11.0410 C   0  0  2  0  0  0  0  0  0  0  0  0
   26.0669  -20.9180  -12.3881 N   0  0  0  0  0  0  0  0  0  0  0  0
   24.0970  -20.6109  -10.9792 C   0  0  0  0  0  0  0  0  0  0  0  0
   23.3107  -21.2500  -10.2407 O   0  0  0  0  0  0  0  0  0  0  0  0
   23.5060  -19.5966  -11.7480 O   0  0  0  0  0  0  0  0  0  0  0  0
  2  1  1  0
  2  3  1  0
  4  3  1  0
  4  5  1  0
  5  7  1  0
  5  6  1  6
  7  8  2  0
  9 10  1  0
  9  7  1  0
 10 11  1  1
 12 11  1  0
 13 12  2  0
 14 15  2  0
 14 10  1  0
 16 12  1  0
 18 17  1  1
 18 19  1  0
 20 18  1  0
 21 22  1  0
 21 20  1  1
 22 14  1  0
 23 21  1  0
 24 23  2  0
 25 23  1  0
M  END
$$$$
