MDL.pdb
     RDKit          3D

 25 24  0  0  1  0  0  0  0  0999 V2000
   26.8836  -18.4696   -6.9265 C   0  0  0  0  0  0  0  0  0  0  0  0
   28.0352  -19.6849   -7.5515 S   0  0  0  0  0  0  0  0  0  0  0  0
   28.3577  -19.6711   -9.2912 C   0  0  0  0  0  0  0  0  0  0  0  0
   27.2103  -19.7119  -10.2266 C   0  0  0  0  0  0  0  0  0  0  0  0
   26.5175  -21.0133  -10.4525 C   0  0  2  0  0  0  0  0  0  0  0  0
   27.4247  -21.9921  -10.9457 N   0  0  0  0  0  0  0  0  0  0  0  0
   25.2518  -20.8993  -11.2026 C   0  0  0  0  0  0  0  0  0  0  0  0
   25.1747  -21.3828  -12.3885 O   0  0  0  0  0  0  0  0  0  0  0  0
   24.0598  -20.2934  -10.7573 N   0  0  0  0  0  0  0  0  0  0  0  0
   22.7786  -20.4779  -11.3398 C   0  0  1  0  0  0  0  0  0  0  0  0
   21.5941  -20.3548  -10.4369 C   0  0  0  0  0  0  0  0  0  0  0  0
   21.6807  -21.3129   -9.3191 C   0  0  0  0  0  0  0  0  0  0  0  0
   22.5998  -22.1466   -9.1543 O   0  0  0  0  0  0  0  0  0  0  0  0
   22.6759  -19.6839  -12.5697 C   0  0  0  0  0  0  0  0  0  0  0  0
   22.6175  -18.4313  -12.5031 O   0  0  0  0  0  0  0  0  0  0  0  0
   20.6772  -21.3106   -8.3615 O   0  0  0  0  0  0  0  0  0  0  0  0
   24.4132  -19.7152  -18.4256 C   0  0  0  0  0  0  0  0  0  0  0  0
   23.4786  -19.0950  -17.3836 C   0  0  2  0  0  0  0  0  0  0  0  0
   23.8909  -17.6570  -17.2380 C   0  0  0  0  0  0  0  0  0  0  0  0
   23.5075  -19.8603  -16.1092 C   0  0  0  0  0  0  0  0  0  0  0  0
   22.5009  -19.4525  -15.0834 C   0  0  2  0  0  0  0  0  0  0  0  0
   22.6355  -20.2469  -13.8837 N   0  0  0  0  0  0  0  0  0  0  0  0
   21.1113  -19.3690  -15.5765 C   0  0  0  0  0  0  0  0  0  0  0  0
   20.6484  -18.3386  -16.1207 O   0  0  0  0  0  0  0  0  0  0  0  0
   20.2147  -20.4427  -15.4662 O   0  0  0  0  0  0  0  0  0  0  0  0
  2  1  1  0
  2  3  1  0
  4  3  1  0
  4  5  1  0
  5  7  1  0
  5  6  1  6
  7  8  2  0
  9 10  1  0
  9  7  1  0
 10 11  1  1
 12 11  1  0
 13 12  2  0
 14 15  2  0
 14 10  1  0
 16 12  1  0
 18 17  1  6
 18 19  1  0
 20 18  1  0
 21 22  1  0
 21 20  1  6
 22 14  1  0
 23 21  1  0
 24 23  2  0
 25 23  1  0
M  END
$$$$
