MDL.pdb
     RDKit          3D

 25 24  0  0  1  0  0  0  0  0999 V2000
   28.6590  -17.9591   -6.4651 C   0  0  0  0  0  0  0  0  0  0  0  0
   27.2140  -19.0010   -6.6079 S   0  0  0  0  0  0  0  0  0  0  0  0
   27.3779  -20.4814   -7.5630 C   0  0  0  0  0  0  0  0  0  0  0  0
   26.6150  -20.5993   -8.8268 C   0  0  0  0  0  0  0  0  0  0  0  0
   25.1250  -20.5656   -8.7688 C   0  0  2  0  0  0  0  0  0  0  0  0
   24.6377  -21.4225   -7.7428 N   0  0  0  0  0  0  0  0  0  0  0  0
   24.4677  -20.7237  -10.0805 C   0  0  0  0  0  0  0  0  0  0  0  0
   24.7367  -21.7498  -10.8021 O   0  0  0  0  0  0  0  0  0  0  0  0
   23.5376  -19.8432  -10.6687 N   0  0  0  0  0  0  0  0  0  0  0  0
   23.0191  -19.9575  -11.9851 C   0  0  1  0  0  0  0  0  0  0  0  0
   21.6379  -19.4384  -12.2222 C   0  0  0  0  0  0  0  0  0  0  0  0
   20.6445  -20.2110  -11.4535 C   0  0  0  0  0  0  0  0  0  0  0  0
   20.5763  -21.4604  -11.4151 O   0  0  0  0  0  0  0  0  0  0  0  0
   24.0121  -19.4734  -12.9512 C   0  0  0  0  0  0  0  0  0  0  0  0
   24.8437  -18.5972  -12.6082 O   0  0  0  0  0  0  0  0  0  0  0  0
   19.7001  -19.5231  -10.7060 O   0  0  0  0  0  0  0  0  0  0  0  0
   28.9088  -20.9370  -14.4001 C   0  0  0  0  0  0  0  0  0  0  0  0
   27.7802  -20.2239  -15.1496 C   0  0  2  0  0  0  0  0  0  0  0  0
   28.2554  -18.8217  -15.4090 C   0  0  0  0  0  0  0  0  0  0  0  0
   26.5016  -20.2950  -14.3943 C   0  0  0  0  0  0  0  0  0  0  0  0
   25.2947  -19.7826  -15.1104 C   0  0  2  0  0  0  0  0  0  0  0  0
   24.1085  -19.9389  -14.2999 N   0  0  0  0  0  0  0  0  0  0  0  0
   25.1312  -20.2854  -16.4893 C   0  0  0  0  0  0  0  0  0  0  0  0
   24.6492  -21.4146  -16.7439 O   0  0  0  0  0  0  0  0  0  0  0  0
   25.5077  -19.5283  -17.6092 O   0  0  0  0  0  0  0  0  0  0  0  0
  2  1  1  0
  2  3  1  0
  4  3  1  0
  4  5  1  0
  5  7  1  0
  5  6  1  1
  7  8  2  0
  9 10  1  0
  9  7  1  0
 10 11  1  1
 12 11  1  0
 13 12  2  0
 14 15  2  0
 14 10  1  0
 16 12  1  0
 18 17  1  1
 18 19  1  0
 20 18  1  0
 21 22  1  0
 21 20  1  1
 22 14  1  0
 23 21  1  0
 24 23  2  0
 25 23  1  0
M  END
$$$$
