MDL.pdb
     RDKit          3D

 25 24  0  0  1  0  0  0  0  0999 V2000
   19.8437  -30.8475  -11.5497 C   0  0  0  0  0  0  0  0  0  0  0  0
   19.4706  -29.6776  -10.2512 S   0  0  0  0  0  0  0  0  0  0  0  0
   19.0740  -28.0250  -10.7436 C   0  0  0  0  0  0  0  0  0  0  0  0
   20.1537  -27.1655  -11.2807 C   0  0  0  0  0  0  0  0  0  0  0  0
   20.3687  -27.1251  -12.7560 C   0  0  2  0  0  0  0  0  0  0  0  0
   21.3940  -28.0319  -13.1444 N   0  0  0  0  0  0  0  0  0  0  0  0
   20.4962  -25.7628  -13.3088 C   0  0  0  0  0  0  0  0  0  0  0  0
   21.6622  -25.2496  -13.4610 O   0  0  0  0  0  0  0  0  0  0  0  0
   19.4449  -24.9132  -13.7074 N   0  0  0  0  0  0  0  0  0  0  0  0
   19.6039  -23.6545  -14.3440 C   0  0  1  0  0  0  0  0  0  0  0  0
   18.8471  -23.4309  -15.6131 C   0  0  0  0  0  0  0  0  0  0  0  0
   19.0637  -22.0642  -16.1231 C   0  0  0  0  0  0  0  0  0  0  0  0
   20.1809  -21.5549  -16.3672 O   0  0  0  0  0  0  0  0  0  0  0  0
   19.4463  -22.5787  -13.3584 C   0  0  0  0  0  0  0  0  0  0  0  0
   18.3976  -22.5079  -12.6713 O   0  0  0  0  0  0  0  0  0  0  0  0
   17.9591  -21.2591  -16.3590 O   0  0  0  0  0  0  0  0  0  0  0  0
   20.9413  -20.4669   -9.1891 C   0  0  0  0  0  0  0  0  0  0  0  0
   21.8898  -20.7757  -10.3504 C   0  0  2  0  0  0  0  0  0  0  0  0
   23.2780  -20.4633   -9.8664 C   0  0  0  0  0  0  0  0  0  0  0  0
   21.5000  -20.0326  -11.5778 C   0  0  0  0  0  0  0  0  0  0  0  0
   20.2168  -20.4573  -12.2143 C   0  0  2  0  0  0  0  0  0  0  0  0
   20.4294  -21.5697  -13.1120 N   0  0  0  0  0  0  0  0  0  0  0  0
   19.4306  -19.3618  -12.8167 C   0  0  0  0  0  0  0  0  0  0  0  0
   19.4464  -19.1158  -14.0461 O   0  0  0  0  0  0  0  0  0  0  0  0
   18.6119  -18.5207  -12.0478 O   0  0  0  0  0  0  0  0  0  0  0  0
  2  1  1  0
  2  3  1  0
  4  3  1  0
  4  5  1  0
  5  7  1  0
  5  6  1  1
  7  8  2  0
  9 10  1  0
  9  7  1  0
 10 11  1  6
 12 11  1  0
 13 12  2  0
 14 15  2  0
 14 10  1  0
 16 12  1  0
 18 17  1  1
 18 19  1  0
 20 18  1  0
 21 22  1  0
 21 20  1  6
 22 14  1  0
 23 21  1  0
 24 23  2  0
 25 23  1  0
M  END
$$$$
