MDL.pdb
     RDKit          3D

 25 24  0  0  1  0  0  0  0  0999 V2000
   30.7779  -13.0623  -15.8034 C   0  0  0  0  0  0  0  0  0  0  0  0
   29.2997  -12.2852  -16.4397 S   0  0  0  0  0  0  0  0  0  0  0  0
   28.2370  -11.4919  -15.2683 C   0  0  0  0  0  0  0  0  0  0  0  0
   27.0389  -10.7779  -15.7661 C   0  0  0  0  0  0  0  0  0  0  0  0
   26.2236  -11.4123  -16.8419 C   0  0  2  0  0  0  0  0  0  0  0  0
   27.0127  -11.6536  -18.0010 N   0  0  0  0  0  0  0  0  0  0  0  0
   24.9324  -10.7433  -17.0926 C   0  0  0  0  0  0  0  0  0  0  0  0
   24.7984   -9.9963  -18.1271 O   0  0  0  0  0  0  0  0  0  0  0  0
   23.7723  -10.8250  -16.2965 N   0  0  0  0  0  0  0  0  0  0  0  0
   22.4995  -10.3025  -16.6456 C   0  0  1  0  0  0  0  0  0  0  0  0
   21.3018  -10.9643  -16.0447 C   0  0  0  0  0  0  0  0  0  0  0  0
   21.3159  -12.4162  -16.3029 C   0  0  0  0  0  0  0  0  0  0  0  0
   21.4506  -12.9465  -17.4287 O   0  0  0  0  0  0  0  0  0  0  0  0
   22.5086   -8.8421  -16.5021 C   0  0  0  0  0  0  0  0  0  0  0  0
   23.0611   -8.3144  -15.5056 O   0  0  0  0  0  0  0  0  0  0  0  0
   21.1700  -13.2841  -15.2308 O   0  0  0  0  0  0  0  0  0  0  0  0
   21.1973   -3.7226  -18.1800 C   0  0  0  0  0  0  0  0  0  0  0  0
   22.4441   -4.4258  -18.7231 C   0  0  2  0  0  0  0  0  0  0  0  0
   22.6889   -3.8669  -20.0967 C   0  0  0  0  0  0  0  0  0  0  0  0
   22.2851   -5.9038  -18.6955 C   0  0  0  0  0  0  0  0  0  0  0  0
   22.0363   -6.5054  -17.3508 C   0  0  2  0  0  0  0  0  0  0  0  0
   21.9156   -7.9426  -17.4427 N   0  0  0  0  0  0  0  0  0  0  0  0
   20.9447   -5.8750  -16.5813 C   0  0  0  0  0  0  0  0  0  0  0  0
   19.7395   -6.1803  -16.7443 O   0  0  0  0  0  0  0  0  0  0  0  0
   21.1873   -4.8878  -15.6140 O   0  0  0  0  0  0  0  0  0  0  0  0
  2  1  1  0
  2  3  1  0
  4  3  1  0
  4  5  1  0
  5  7  1  0
  5  6  1  6
  7  8  2  0
  9 10  1  0
  9  7  1  0
 10 11  1  1
 12 11  1  0
 13 12  2  0
 14 15  2  0
 14 10  1  0
 16 12  1  0
 18 17  1  6
 18 19  1  0
 20 18  1  0
 21 22  1  0
 21 20  1  6
 22 14  1  0
 23 21  1  0
 24 23  2  0
 25 23  1  0
M  END
$$$$
