MDL.pdb
     RDKit          3D

 25 24  0  0  1  0  0  0  0  0999 V2000
   27.7666  -14.6528  -16.4192 C   0  0  0  0  0  0  0  0  0  0  0  0
   26.7350  -13.9591  -15.1354 S   0  0  0  0  0  0  0  0  0  0  0  0
   24.9881  -14.1956  -15.2880 C   0  0  0  0  0  0  0  0  0  0  0  0
   24.4663  -15.5764  -15.4082 C   0  0  0  0  0  0  0  0  0  0  0  0
   24.8627  -16.3902  -16.5936 C   0  0  2  0  0  0  0  0  0  0  0  0
   24.0674  -16.0586  -17.7257 N   0  0  0  0  0  0  0  0  0  0  0  0
   24.9868  -17.8346  -16.3179 C   0  0  0  0  0  0  0  0  0  0  0  0
   23.9632  -18.5950  -16.4602 O   0  0  0  0  0  0  0  0  0  0  0  0
   26.1460  -18.5153  -15.8947 N   0  0  0  0  0  0  0  0  0  0  0  0
   26.2324  -19.9095  -15.6423 C   0  0  1  0  0  0  0  0  0  0  0  0
   27.5462  -20.5709  -15.9066 C   0  0  0  0  0  0  0  0  0  0  0  0
   27.4482  -22.0310  -15.7242 C   0  0  0  0  0  0  0  0  0  0  0  0
   26.5382  -22.7555  -16.1869 O   0  0  0  0  0  0  0  0  0  0  0  0
   25.6696  -20.2082  -14.3203 C   0  0  0  0  0  0  0  0  0  0  0  0
   26.4339  -20.4751  -13.3604 O   0  0  0  0  0  0  0  0  0  0  0  0
   28.4288  -22.6767  -14.9857 O   0  0  0  0  0  0  0  0  0  0  0  0
   25.6502  -22.5812  -11.2898 C   0  0  0  0  0  0  0  0  0  0  0  0
   25.5824  -21.0517  -11.3025 C   0  0  2  0  0  0  0  0  0  0  0  0
   26.0757  -20.5884   -9.9604 C   0  0  0  0  0  0  0  0  0  0  0  0
   24.2144  -20.5750  -11.6371 C   0  0  0  0  0  0  0  0  0  0  0  0
   23.6846  -21.0026  -12.9669 C   0  0  2  0  0  0  0  0  0  0  0  0
   24.2691  -20.2193  -14.0315 N   0  0  0  0  0  0  0  0  0  0  0  0
   22.2129  -21.0940  -13.0483 C   0  0  0  0  0  0  0  0  0  0  0  0
   21.5363  -20.4032  -13.8466 O   0  0  0  0  0  0  0  0  0  0  0  0
   21.4730  -21.9635  -12.2325 O   0  0  0  0  0  0  0  0  0  0  0  0
  2  1  1  0
  2  3  1  0
  4  3  1  0
  4  5  1  0
  5  7  1  0
  5  6  1  6
  7  8  2  0
  9 10  1  0
  9  7  1  0
 10 11  1  1
 12 11  1  0
 13 12  2  0
 14 15  2  0
 14 10  1  0
 16 12  1  0
 18 17  1  1
 18 19  1  0
 20 18  1  0
 21 22  1  0
 21 20  1  1
 22 14  1  0
 23 21  1  0
 24 23  2  0
 25 23  1  0
M  END
$$$$
