MDL.pdb
     RDKit          3D

 25 24  0  0  1  0  0  0  0  0999 V2000
   33.1266  -22.3236   -9.5312 C   0  0  0  0  0  0  0  0  0  0  0  0
   31.6887  -22.7560  -10.5004 S   0  0  0  0  0  0  0  0  0  0  0  0
   30.4375  -21.5185  -10.6842 C   0  0  0  0  0  0  0  0  0  0  0  0
   30.6294  -20.4603  -11.7023 C   0  0  0  0  0  0  0  0  0  0  0  0
   30.2322  -20.7433  -13.1118 C   0  0  2  0  0  0  0  0  0  0  0  0
   31.1604  -20.1703  -14.0253 N   0  0  0  0  0  0  0  0  0  0  0  0
   28.8130  -20.4647  -13.4049 C   0  0  0  0  0  0  0  0  0  0  0  0
   28.3757  -19.2613  -13.3234 O   0  0  0  0  0  0  0  0  0  0  0  0
   27.8298  -21.4026  -13.7788 N   0  0  0  0  0  0  0  0  0  0  0  0
   26.4515  -21.1170  -13.9625 C   0  0  1  0  0  0  0  0  0  0  0  0
   25.8345  -21.5348  -15.2580 C   0  0  0  0  0  0  0  0  0  0  0  0
   26.3205  -20.6956  -16.3690 C   0  0  0  0  0  0  0  0  0  0  0  0
   26.2359  -19.4477  -16.4198 O   0  0  0  0  0  0  0  0  0  0  0  0
   25.6966  -21.5420  -12.7780 C   0  0  0  0  0  0  0  0  0  0  0  0
   26.0801  -22.5372  -12.1152 O   0  0  0  0  0  0  0  0  0  0  0  0
   26.9224  -21.3131  -17.4554 O   0  0  0  0  0  0  0  0  0  0  0  0
   26.0250  -19.9754   -7.7456 C   0  0  0  0  0  0  0  0  0  0  0  0
   24.9708  -20.7346   -8.5557 C   0  0  2  0  0  0  0  0  0  0  0  0
   24.9219  -22.1293   -7.9974 C   0  0  0  0  0  0  0  0  0  0  0  0
   25.2668  -20.6803  -10.0117 C   0  0  0  0  0  0  0  0  0  0  0  0
   24.1019  -20.9027  -10.9202 C   0  0  2  0  0  0  0  0  0  0  0  0
   24.5167  -20.8873  -12.3045 N   0  0  0  0  0  0  0  0  0  0  0  0
   22.9318  -20.0429  -10.6508 C   0  0  0  0  0  0  0  0  0  0  0  0
   22.8328  -18.8765  -11.1000 O   0  0  0  0  0  0  0  0  0  0  0  0
   21.8503  -20.4780   -9.8697 O   0  0  0  0  0  0  0  0  0  0  0  0
  2  1  1  0
  2  3  1  0
  4  3  1  0
  4  5  1  0
  5  7  1  0
  5  6  1  6
  7  8  2  0
  9 10  1  0
  9  7  1  0
 10 11  1  6
 12 11  1  0
 13 12  2  0
 14 15  2  0
 14 10  1  0
 16 12  1  0
 18 17  1  1
 18 19  1  0
 20 18  1  0
 21 22  1  0
 21 20  1  1
 22 14  1  0
 23 21  1  0
 24 23  2  0
 25 23  1  0
M  END
$$$$
