NPY.pdb
     RDKit          3D

 28 29  0  0  1  0  0  0  0  0999 V2000
   22.4369  -19.1902  -21.2592 N   0  0  0  0  0  0  0  0  0  0  0  0
   22.3023  -18.2647  -20.1991 C   0  0  0  0  0  0  0  0  0  0  0  0
   22.9442  -18.3651  -19.1065 O   0  0  0  0  0  0  0  0  0  0  0  0
   21.3900  -17.1303  -20.3431 C   0  0  0  0  0  0  0  0  0  0  0  0
   20.6388  -17.2500  -21.6783 C   0  0  2  0  0  0  0  0  0  0  0  0
   21.0854  -16.2629  -22.6033 N   0  0  0  0  0  0  0  0  0  0  0  0
   19.1979  -17.2197  -21.4590 C   0  0  0  0  0  0  0  0  0  0  0  0
   18.7641  -18.0549  -20.5871 O   0  0  0  0  0  0  0  0  0  0  0  0
   18.2822  -16.3823  -22.1029 N   0  0  0  0  0  0  0  0  0  0  0  0
   18.5886  -15.0510  -22.7172 C   0  0  0  0  0  0  0  0  0  0  0  0
   18.0263  -15.3159  -24.1355 C   0  0  0  0  0  0  0  0  0  0  0  0
   16.8817  -16.2673  -23.8851 C   0  0  0  0  0  0  0  0  0  0  0  0
   16.8862  -16.4583  -22.3560 C   0  0  1  0  0  0  0  0  0  0  0  0
   16.0968  -17.5863  -21.9373 C   0  0  0  0  0  0  0  0  0  0  0  0
   16.4498  -18.7687  -21.6984 O   0  0  0  0  0  0  0  0  0  0  0  0
   12.0703  -16.3155  -15.6906 O   0  0  0  0  0  0  0  0  0  0  0  0
   12.6013  -17.0091  -16.7585 C   0  0  0  0  0  0  0  0  0  0  0  0
   13.8960  -16.7409  -17.1652 C   0  0  0  0  0  0  0  0  0  0  0  0
   14.4499  -17.4171  -18.2278 C   0  0  0  0  0  0  0  0  0  0  0  0
   13.7319  -18.3755  -18.9108 C   0  0  0  0  0  0  0  0  0  0  0  0
   14.3601  -19.0676  -20.0538 C   0  0  0  0  0  0  0  0  0  0  0  0
   13.8226  -18.5495  -21.3595 C   0  0  2  0  0  0  0  0  0  0  0  0
   14.6561  -17.4326  -21.7337 N   0  0  0  0  0  0  0  0  0  0  0  0
   12.3993  -18.1882  -21.3031 C   0  0  0  0  0  0  0  0  0  0  0  0
   11.4776  -19.0244  -21.0948 O   0  0  0  0  0  0  0  0  0  0  0  0
   12.4397  -18.6557  -18.5181 C   0  0  0  0  0  0  0  0  0  0  0  0
   11.8770  -17.9812  -17.4529 C   0  0  0  0  0  0  0  0  0  0  0  0
   12.0345  -16.8715  -21.4835 O   0  0  0  0  0  0  0  0  0  0  0  0
  2  1  1  0
  2  4  1  0
  3  2  2  0
  5  4  1  0
  5  6  1  6
  7  8  2  0
  7  5  1  0
  9  7  1  0
 10  9  1  0
 11 10  1  0
 12 11  1  0
 12 13  1  0
 13  9  1  0
 14 23  1  0
 13 14  1  6
 15 14  2  0
 17 18  2  0
 17 16  1  0
 19 18  1  0
 20 19  2  0
 21 20  1  0
 22 21  1  1
 22 23  1  0
 22 24  1  0
 24 28  1  0
 25 24  2  0
 26 20  1  0
 26 27  2  0
 27 17  1  0
M  END
$$$$
