NPY.pdb
     RDKit          3D

 28 29  0  0  1  0  0  0  0  0999 V2000
   25.8229  -14.6908  -20.0549 N   0  0  0  0  0  0  0  0  0  0  0  0
   25.5105  -13.3774  -20.4744 C   0  0  0  0  0  0  0  0  0  0  0  0
   25.5990  -12.9974  -21.6842 O   0  0  0  0  0  0  0  0  0  0  0  0
   25.0608  -12.3933  -19.4900 C   0  0  0  0  0  0  0  0  0  0  0  0
   25.0325  -13.0445  -18.0984 C   0  0  2  0  0  0  0  0  0  0  0  0
   24.2123  -14.2093  -18.0987 N   0  0  0  0  0  0  0  0  0  0  0  0
   24.6443  -12.0705  -17.0857 C   0  0  0  0  0  0  0  0  0  0  0  0
   23.3811  -11.8732  -16.9787 O   0  0  0  0  0  0  0  0  0  0  0  0
   25.5101  -11.3575  -16.2511 N   0  0  0  0  0  0  0  0  0  0  0  0
   26.6602  -11.9302  -15.4813 C   0  0  0  0  0  0  0  0  0  0  0  0
   27.7758  -10.9885  -15.9978 C   0  0  0  0  0  0  0  0  0  0  0  0
   27.0488   -9.6892  -16.2456 C   0  0  0  0  0  0  0  0  0  0  0  0
   25.5924   -9.9977  -15.8475 C   0  0  1  0  0  0  0  0  0  0  0  0
   24.6667   -9.0046  -16.3245 C   0  0  0  0  0  0  0  0  0  0  0  0
   24.6204   -8.4179  -17.4352 O   0  0  0  0  0  0  0  0  0  0  0  0
   18.3193  -12.2323  -15.8612 O   0  0  0  0  0  0  0  0  0  0  0  0
   19.1924  -11.2057  -16.1564 C   0  0  0  0  0  0  0  0  0  0  0  0
   20.2588  -11.4450  -17.0042 C   0  0  0  0  0  0  0  0  0  0  0  0
   21.1453  -10.4395  -17.3146 C   0  0  0  0  0  0  0  0  0  0  0  0
   20.9933   -9.1731  -16.7912 C   0  0  0  0  0  0  0  0  0  0  0  0
   21.9753   -8.1271  -17.1398 C   0  0  0  0  0  0  0  0  0  0  0  0
   22.6227   -7.5623  -15.9053 C   0  0  2  0  0  0  0  0  0  0  0  0
   23.5818   -8.5432  -15.4579 N   0  0  0  0  0  0  0  0  0  0  0  0
   21.6611   -7.2033  -14.8536 C   0  0  0  0  0  0  0  0  0  0  0  0
   20.8392   -6.2517  -14.9586 O   0  0  0  0  0  0  0  0  0  0  0  0
   19.9349   -8.9172  -15.9445 C   0  0  0  0  0  0  0  0  0  0  0  0
   19.0415   -9.9211  -15.6283 C   0  0  0  0  0  0  0  0  0  0  0  0
   21.6413   -7.9347  -13.6857 O   0  0  0  0  0  0  0  0  0  0  0  0
  2  1  1  0
  2  4  1  0
  3  2  2  0
  5  4  1  0
  5  6  1  6
  7  8  2  0
  7  5  1  0
  9  7  1  0
 10  9  1  0
 11 10  1  0
 12 11  1  0
 12 13  1  0
 13  9  1  0
 14 23  1  0
 13 14  1  6
 15 14  2  0
 17 18  2  0
 17 16  1  0
 19 18  1  0
 20 19  2  0
 21 20  1  0
 22 21  1  6
 22 23  1  0
 22 24  1  0
 24 28  1  0
 25 24  2  0
 26 20  1  0
 26 27  2  0
 27 17  1  0
M  END
$$$$
