NPY.pdb
     RDKit          3D

 28 29  0  0  1  0  0  0  0  0999 V2000
   15.5537  -24.4241    6.7446 N   0  0  0  0  0  0  0  0  0  0  0  0
   15.4180  -23.3200    7.6170 C   0  0  0  0  0  0  0  0  0  0  0  0
   14.5785  -23.2905    8.5712 O   0  0  0  0  0  0  0  0  0  0  0  0
   16.2727  -22.1470    7.4348 C   0  0  0  0  0  0  0  0  0  0  0  0
   15.3971  -20.8854    7.3788 C   0  0  2  0  0  0  0  0  0  0  0  0
   14.4990  -20.9385    6.2743 N   0  0  0  0  0  0  0  0  0  0  0  0
   16.2264  -19.6865    7.3860 C   0  0  0  0  0  0  0  0  0  0  0  0
   16.9598  -19.5278    6.3454 O   0  0  0  0  0  0  0  0  0  0  0  0
   16.2849  -18.7291    8.4032 N   0  0  0  0  0  0  0  0  0  0  0  0
   15.1153  -18.1708    9.1540 C   0  0  0  0  0  0  0  0  0  0  0  0
   15.6007  -18.4701   10.5937 C   0  0  0  0  0  0  0  0  0  0  0  0
   17.1018  -18.3544   10.4871 C   0  0  0  0  0  0  0  0  0  0  0  0
   17.3419  -17.9969    9.0075 C   0  0  1  0  0  0  0  0  0  0  0  0
   18.7140  -18.1735    8.6116 C   0  0  0  0  0  0  0  0  0  0  0  0
   19.3444  -19.2287    8.3490 O   0  0  0  0  0  0  0  0  0  0  0  0
   20.4111  -10.8818    7.3621 O   0  0  0  0  0  0  0  0  0  0  0  0
   20.6304  -12.2378    7.2333 C   0  0  0  0  0  0  0  0  0  0  0  0
   19.6090  -13.0494    6.7735 C   0  0  0  0  0  0  0  0  0  0  0  0
   19.8002  -14.4051    6.6366 C   0  0  0  0  0  0  0  0  0  0  0  0
   21.0098  -14.9864    6.9522 C   0  0  0  0  0  0  0  0  0  0  0  0
   21.1677  -16.4468    6.8032 C   0  0  0  0  0  0  0  0  0  0  0  0
   20.9809  -17.1466    8.1214 C   0  0  2  0  0  0  0  0  0  0  0  0
   19.5869  -17.0081    8.4672 N   0  0  0  0  0  0  0  0  0  0  0  0
   21.8698  -16.6464    9.1793 C   0  0  0  0  0  0  0  0  0  0  0  0
   21.4738  -15.9281   10.1381 O   0  0  0  0  0  0  0  0  0  0  0  0
   22.0392  -14.1915    7.4115 C   0  0  0  0  0  0  0  0  0  0  0  0
   21.8548  -12.8305    7.5517 C   0  0  0  0  0  0  0  0  0  0  0  0
   23.2087  -16.9706    9.1383 O   0  0  0  0  0  0  0  0  0  0  0  0
  2  1  1  0
  2  4  1  0
  3  2  2  0
  5  4  1  0
  5  6  1  6
  7  8  2  0
  7  5  1  0
  9  7  1  0
 10  9  1  0
 11 10  1  0
 12 11  1  0
 12 13  1  0
 13  9  1  0
 14 23  1  0
 13 14  1  6
 15 14  2  0
 17 18  2  0
 17 16  1  0
 19 18  1  0
 20 19  2  0
 21 20  1  0
 22 21  1  6
 22 23  1  0
 22 24  1  0
 24 28  1  0
 25 24  2  0
 26 20  1  0
 26 27  2  0
 27 17  1  0
M  END
$$$$
