NPY.pdb
     RDKit          3D

 28 29  0  0  1  0  0  0  0  0999 V2000
   28.8542  -24.1960  -17.8049 N   0  0  0  0  0  0  0  0  0  0  0  0
   28.5713  -22.9356  -18.3794 C   0  0  0  0  0  0  0  0  0  0  0  0
   29.2513  -22.4408  -19.3327 O   0  0  0  0  0  0  0  0  0  0  0  0
   27.4487  -22.1469  -17.8719 C   0  0  0  0  0  0  0  0  0  0  0  0
   27.9870  -20.9993  -17.0032 C   0  0  2  0  0  0  0  0  0  0  0  0
   29.0514  -21.4486  -16.1698 N   0  0  0  0  0  0  0  0  0  0  0  0
   26.9032  -20.3694  -16.2591 C   0  0  0  0  0  0  0  0  0  0  0  0
   26.4477  -21.0577  -15.2769 O   0  0  0  0  0  0  0  0  0  0  0  0
   26.3389  -19.1178  -16.5229 N   0  0  0  0  0  0  0  0  0  0  0  0
   26.9542  -18.0325  -17.3517 C   0  0  0  0  0  0  0  0  0  0  0  0
   25.7840  -17.8046  -18.3399 C   0  0  0  0  0  0  0  0  0  0  0  0
   24.5612  -18.1087  -17.5089 C   0  0  0  0  0  0  0  0  0  0  0  0
   25.1345  -18.4766  -16.1266 C   0  0  1  0  0  0  0  0  0  0  0  0
   24.1677  -19.1271  -15.2824 C   0  0  0  0  0  0  0  0  0  0  0  0
   24.2277  -19.4023  -14.0574 O   0  0  0  0  0  0  0  0  0  0  0  0
   17.1424  -21.0980  -10.9203 O   0  0  0  0  0  0  0  0  0  0  0  0
   18.2236  -20.6459  -11.6483 C   0  0  0  0  0  0  0  0  0  0  0  0
   18.0115  -19.8087  -12.7288 C   0  0  0  0  0  0  0  0  0  0  0  0
   19.0716  -19.3440  -13.4726 C   0  0  0  0  0  0  0  0  0  0  0  0
   20.3668  -19.6989  -13.1609 C   0  0  0  0  0  0  0  0  0  0  0  0
   21.4739  -19.1884  -13.9937 C   0  0  0  0  0  0  0  0  0  0  0  0
   21.8853  -20.2032  -15.0247 C   0  0  2  0  0  0  0  0  0  0  0  0
   22.8923  -19.5730  -15.8439 N   0  0  0  0  0  0  0  0  0  0  0  0
   20.7613  -20.7166  -15.8200 C   0  0  0  0  0  0  0  0  0  0  0  0
   20.1913  -20.0516  -16.7283 O   0  0  0  0  0  0  0  0  0  0  0  0
   20.5961  -20.5326  -12.0861 C   0  0  0  0  0  0  0  0  0  0  0  0
   19.5375  -21.0030  -11.3352 C   0  0  0  0  0  0  0  0  0  0  0  0
   20.2936  -21.9897  -15.5751 O   0  0  0  0  0  0  0  0  0  0  0  0
  2  1  1  0
  2  4  1  0
  3  2  2  0
  5  4  1  0
  5  6  1  1
  7  8  2  0
  7  5  1  0
  9  7  1  0
 10  9  1  0
 11 10  1  0
 12 11  1  0
 12 13  1  0
 13  9  1  0
 14 23  1  0
 13 14  1  6
 15 14  2  0
 17 18  2  0
 17 16  1  0
 19 18  1  0
 20 19  2  0
 21 20  1  0
 22 21  1  1
 22 23  1  0
 22 24  1  0
 24 28  1  0
 25 24  2  0
 26 20  1  0
 26 27  2  0
 27 17  1  0
M  END
$$$$
