NPY.pdb
     RDKit          3D

 28 29  0  0  1  0  0  0  0  0999 V2000
   18.4691  -10.0912  -17.9479 N   0  0  0  0  0  0  0  0  0  0  0  0
   18.7898  -11.0966  -17.0071 C   0  0  0  0  0  0  0  0  0  0  0  0
   18.5827  -12.3331  -17.2172 O   0  0  0  0  0  0  0  0  0  0  0  0
   19.3900  -10.7217  -15.7268 C   0  0  0  0  0  0  0  0  0  0  0  0
   19.4091   -9.1900  -15.6049 C   0  0  2  0  0  0  0  0  0  0  0  0
   20.6652   -8.6624  -16.0211 N   0  0  0  0  0  0  0  0  0  0  0  0
   19.0331   -8.7794  -14.2576 C   0  0  0  0  0  0  0  0  0  0  0  0
   17.8270   -9.0597  -13.9217 O   0  0  0  0  0  0  0  0  0  0  0  0
   19.8542   -8.1252  -13.3344 N   0  0  0  0  0  0  0  0  0  0  0  0
   21.3279   -8.3329  -13.1659 C   0  0  0  0  0  0  0  0  0  0  0  0
   21.7868   -6.8610  -13.3105 C   0  0  0  0  0  0  0  0  0  0  0  0
   20.6302   -6.0772  -12.7395 C   0  0  0  0  0  0  0  0  0  0  0  0
   19.6202   -7.1615  -12.3169 C   0  0  1  0  0  0  0  0  0  0  0  0
   18.3089   -6.6266  -12.0620 C   0  0  0  0  0  0  0  0  0  0  0  0
   17.3937   -6.3259  -12.8693 O   0  0  0  0  0  0  0  0  0  0  0  0
   12.0685   -8.2700   -6.6326 O   0  0  0  0  0  0  0  0  0  0  0  0
   12.9073   -7.9169   -7.6694 C   0  0  0  0  0  0  0  0  0  0  0  0
   14.0665   -8.6415   -7.8809 C   0  0  0  0  0  0  0  0  0  0  0  0
   14.9213   -8.3103   -8.9069 C   0  0  0  0  0  0  0  0  0  0  0  0
   14.6451   -7.2528   -9.7472 C   0  0  0  0  0  0  0  0  0  0  0  0
   15.5964   -6.9235  -10.8273 C   0  0  0  0  0  0  0  0  0  0  0  0
   16.5650   -5.8604  -10.3871 C   0  0  2  0  0  0  0  0  0  0  0  0
   17.8860   -6.3571  -10.6875 N   0  0  0  0  0  0  0  0  0  0  0  0
   16.4186   -5.4858   -8.9737 C   0  0  0  0  0  0  0  0  0  0  0  0
   17.0723   -6.0267   -8.0398 O   0  0  0  0  0  0  0  0  0  0  0  0
   13.4931   -6.5201   -9.5507 C   0  0  0  0  0  0  0  0  0  0  0  0
   12.6306   -6.8462   -8.5232 C   0  0  0  0  0  0  0  0  0  0  0  0
   15.5260   -4.4926   -8.6328 O   0  0  0  0  0  0  0  0  0  0  0  0
  2  1  1  0
  2  4  1  0
  3  2  2  0
  5  4  1  0
  5  6  1  1
  7  8  2  0
  7  5  1  0
  9  7  1  0
 10  9  1  0
 11 10  1  0
 12 11  1  0
 12 13  1  0
 13  9  1  0
 14 23  1  0
 13 14  1  6
 15 14  2  0
 17 18  2  0
 17 16  1  0
 19 18  1  0
 20 19  2  0
 21 20  1  0
 22 21  1  1
 22 23  1  0
 22 24  1  0
 24 28  1  0
 25 24  2  0
 26 20  1  0
 26 27  2  0
 27 17  1  0
M  END
$$$$
