NPY.pdb
     RDKit          3D

 28 29  0  0  1  0  0  0  0  0999 V2000
   20.8836  -18.9412  -15.5382 N   0  0  0  0  0  0  0  0  0  0  0  0
   22.2687  -18.6594  -15.5638 C   0  0  0  0  0  0  0  0  0  0  0  0
   22.7908  -17.8250  -16.3682 O   0  0  0  0  0  0  0  0  0  0  0  0
   23.1620  -19.3455  -14.6305 C   0  0  0  0  0  0  0  0  0  0  0  0
   24.1625  -20.2015  -15.4227 C   0  0  2  0  0  0  0  0  0  0  0  0
   23.4859  -21.0568  -16.3393 N   0  0  0  0  0  0  0  0  0  0  0  0
   25.0505  -20.9201  -14.5170 C   0  0  0  0  0  0  0  0  0  0  0  0
   24.5433  -21.9679  -13.9777 O   0  0  0  0  0  0  0  0  0  0  0  0
   26.3658  -20.5690  -14.1990 N   0  0  0  0  0  0  0  0  0  0  0  0
   27.4375  -20.1957  -15.1767 C   0  0  0  0  0  0  0  0  0  0  0  0
   27.8428  -18.8317  -14.5657 C   0  0  0  0  0  0  0  0  0  0  0  0
   27.6063  -19.0271  -13.0879 C   0  0  0  0  0  0  0  0  0  0  0  0
   27.0947  -20.4769  -12.9829 C   0  0  1  0  0  0  0  0  0  0  0  0
   26.4882  -20.7583  -11.7086 C   0  0  0  0  0  0  0  0  0  0  0  0
   25.3559  -20.4346  -11.2695 O   0  0  0  0  0  0  0  0  0  0  0  0
   27.7733  -19.1519   -3.3815 O   0  0  0  0  0  0  0  0  0  0  0  0
   27.8748  -19.6505   -4.6639 C   0  0  0  0  0  0  0  0  0  0  0  0
   28.9702  -19.3131   -5.4381 C   0  0  0  0  0  0  0  0  0  0  0  0
   29.0960  -19.7954   -6.7206 C   0  0  0  0  0  0  0  0  0  0  0  0
   28.1378  -20.6243   -7.2640 C   0  0  0  0  0  0  0  0  0  0  0  0
   28.3055  -21.1083   -8.6487 C   0  0  0  0  0  0  0  0  0  0  0  0
   26.9721  -21.3677   -9.2945 C   0  0  2  0  0  0  0  0  0  0  0  0
   27.2229  -21.5303  -10.7061 N   0  0  0  0  0  0  0  0  0  0  0  0
   25.9777  -20.3205   -9.0222 C   0  0  0  0  0  0  0  0  0  0  0  0
   24.8837  -20.5373   -8.4320 O   0  0  0  0  0  0  0  0  0  0  0  0
   27.0392  -20.9712   -6.5054 C   0  0  0  0  0  0  0  0  0  0  0  0
   26.9060  -20.4910   -5.2178 C   0  0  0  0  0  0  0  0  0  0  0  0
   26.2381  -19.0283   -9.4244 O   0  0  0  0  0  0  0  0  0  0  0  0
  2  1  1  0
  2  4  1  0
  3  2  2  0
  5  4  1  0
  5  6  1  1
  7  8  2  0
  7  5  1  0
  9  7  1  0
 10  9  1  0
 11 10  1  0
 12 11  1  0
 12 13  1  0
 13  9  1  0
 14 23  1  0
 13 14  1  1
 15 14  2  0
 17 18  2  0
 17 16  1  0
 19 18  1  0
 20 19  2  0
 21 20  1  0
 22 21  1  1
 22 23  1  0
 22 24  1  0
 24 28  1  0
 25 24  2  0
 26 20  1  0
 26 27  2  0
 27 17  1  0
M  END
$$$$
