NPY.pdb
     RDKit          3D

 28 29  0  0  1  0  0  0  0  0999 V2000
   20.9284  -16.9833  -16.8306 N   0  0  0  0  0  0  0  0  0  0  0  0
   22.3234  -17.1759  -16.7064 C   0  0  0  0  0  0  0  0  0  0  0  0
   23.1779  -16.4745  -17.3339 O   0  0  0  0  0  0  0  0  0  0  0  0
   22.8312  -18.2229  -15.8199 C   0  0  0  0  0  0  0  0  0  0  0  0
   23.8538  -19.0804  -16.5818 C   0  0  2  0  0  0  0  0  0  0  0  0
   23.2043  -19.9291  -17.5238 N   0  0  0  0  0  0  0  0  0  0  0  0
   24.7079  -19.8064  -15.6499 C   0  0  0  0  0  0  0  0  0  0  0  0
   24.0872  -20.5726  -14.8291 O   0  0  0  0  0  0  0  0  0  0  0  0
   26.1025  -19.7353  -15.5809 N   0  0  0  0  0  0  0  0  0  0  0  0
   27.0447  -19.7926  -16.7438 C   0  0  0  0  0  0  0  0  0  0  0  0
   27.8295  -18.4860  -16.4700 C   0  0  0  0  0  0  0  0  0  0  0  0
   27.8143  -18.3787  -14.9646 C   0  0  0  0  0  0  0  0  0  0  0  0
   27.0320  -19.6267  -14.5119 C   0  0  1  0  0  0  0  0  0  0  0  0
   26.6076  -19.5455  -13.1393 C   0  0  0  0  0  0  0  0  0  0  0  0
   26.0522  -18.5997  -12.5253 O   0  0  0  0  0  0  0  0  0  0  0  0
   20.5464  -20.3959  -12.8890 O   0  0  0  0  0  0  0  0  0  0  0  0
   21.7558  -20.6694  -12.2841 C   0  0  0  0  0  0  0  0  0  0  0  0
   22.5896  -21.6251  -12.8363 C   0  0  0  0  0  0  0  0  0  0  0  0
   23.8007  -21.9183  -12.2529 C   0  0  0  0  0  0  0  0  0  0  0  0
   24.2126  -21.2694  -11.1085 C   0  0  0  0  0  0  0  0  0  0  0  0
   25.5138  -21.6244  -10.5078 C   0  0  0  0  0  0  0  0  0  0  0  0
   26.5560  -20.5881  -10.8276 C   0  0  2  0  0  0  0  0  0  0  0  0
   26.8117  -20.6849  -12.2444 N   0  0  0  0  0  0  0  0  0  0  0  0
   27.7820  -20.7269  -10.0293 C   0  0  0  0  0  0  0  0  0  0  0  0
   28.9010  -21.0383  -10.5223 O   0  0  0  0  0  0  0  0  0  0  0  0
   23.3936  -20.3131  -10.5450 C   0  0  0  0  0  0  0  0  0  0  0  0
   22.1768  -20.0136  -11.1245 C   0  0  0  0  0  0  0  0  0  0  0  0
   27.7248  -20.5077   -8.6699 O   0  0  0  0  0  0  0  0  0  0  0  0
  2  1  1  0
  2  4  1  0
  3  2  2  0
  5  4  1  0
  5  6  1  6
  7  8  2  0
  7  5  1  0
  9  7  1  0
 10  9  1  0
 11 10  1  0
 12 11  1  0
 12 13  1  0
 13  9  1  0
 14 23  1  0
 13 14  1  1
 15 14  2  0
 17 18  2  0
 17 16  1  0
 19 18  1  0
 20 19  2  0
 21 20  1  0
 22 21  1  1
 22 23  1  0
 22 24  1  0
 24 28  1  0
 25 24  2  0
 26 20  1  0
 26 27  2  0
 27 17  1  0
M  END
$$$$
