NPY.pdb
     RDKit          3D

 28 29  0  0  1  0  0  0  0  0999 V2000
   29.2783  -22.9706  -18.1779 N   0  0  0  0  0  0  0  0  0  0  0  0
   28.9138  -23.0961  -16.8177 C   0  0  0  0  0  0  0  0  0  0  0  0
   29.2605  -24.0835  -16.0962 O   0  0  0  0  0  0  0  0  0  0  0  0
   28.1026  -22.0538  -16.1890 C   0  0  0  0  0  0  0  0  0  0  0  0
   27.7826  -20.9658  -17.2259 C   0  0  2  0  0  0  0  0  0  0  0  0
   28.9306  -20.1664  -17.4950 N   0  0  0  0  0  0  0  0  0  0  0  0
   26.6255  -20.1842  -16.8069 C   0  0  0  0  0  0  0  0  0  0  0  0
   26.6084  -19.8637  -15.5647 O   0  0  0  0  0  0  0  0  0  0  0  0
   25.5682  -19.7717  -17.6232 N   0  0  0  0  0  0  0  0  0  0  0  0
   25.6951  -19.1525  -18.9811 C   0  0  0  0  0  0  0  0  0  0  0  0
   24.7799  -20.1252  -19.7650 C   0  0  0  0  0  0  0  0  0  0  0  0
   23.7467  -20.5324  -18.7430 C   0  0  0  0  0  0  0  0  0  0  0  0
   24.1553  -19.7590  -17.4743 C   0  0  1  0  0  0  0  0  0  0  0  0
   23.5100  -20.2598  -16.2896 C   0  0  0  0  0  0  0  0  0  0  0  0
   23.4493  -21.4333  -15.8436 O   0  0  0  0  0  0  0  0  0  0  0  0
   19.0403  -19.9346   -8.6867 O   0  0  0  0  0  0  0  0  0  0  0  0
   19.8181  -19.6328   -9.7854 C   0  0  0  0  0  0  0  0  0  0  0  0
   19.2370  -19.0176  -10.8796 C   0  0  0  0  0  0  0  0  0  0  0  0
   19.9893  -18.7064  -11.9888 C   0  0  0  0  0  0  0  0  0  0  0  0
   21.3358  -18.9979  -12.0374 C   0  0  0  0  0  0  0  0  0  0  0  0
   22.1028  -18.6589  -13.2526 C   0  0  0  0  0  0  0  0  0  0  0  0
   22.1092  -19.8071  -14.2240 C   0  0  2  0  0  0  0  0  0  0  0  0
   22.7893  -19.3408  -15.4082 N   0  0  0  0  0  0  0  0  0  0  0  0
   20.7678  -20.3287  -14.5208 C   0  0  0  0  0  0  0  0  0  0  0  0
   20.2509  -21.3049  -13.9110 O   0  0  0  0  0  0  0  0  0  0  0  0
   21.9314  -19.6108  -10.9547 C   0  0  0  0  0  0  0  0  0  0  0  0
   21.1830  -19.9263   -9.8382 C   0  0  0  0  0  0  0  0  0  0  0  0
   20.0210  -19.7311  -15.5130 O   0  0  0  0  0  0  0  0  0  0  0  0
  2  1  1  0
  2  4  1  0
  3  2  2  0
  5  4  1  0
  5  6  1  1
  7  8  2  0
  7  5  1  0
  9  7  1  0
 10  9  1  0
 11 10  1  0
 12 11  1  0
 12 13  1  0
 13  9  1  0
 14 23  1  0
 13 14  1  1
 15 14  2  0
 17 18  2  0
 17 16  1  0
 19 18  1  0
 20 19  2  0
 21 20  1  0
 22 21  1  1
 22 23  1  0
 22 24  1  0
 24 28  1  0
 25 24  2  0
 26 20  1  0
 26 27  2  0
 27 17  1  0
M  END
$$$$
