NPY.pdb
     RDKit          3D

 28 29  0  0  1  0  0  0  0  0999 V2000
   27.2475  -16.4284  -16.7153 N   0  0  0  0  0  0  0  0  0  0  0  0
   28.1367  -17.2953  -16.0397 C   0  0  0  0  0  0  0  0  0  0  0  0
   29.3535  -17.4401  -16.3779 O   0  0  0  0  0  0  0  0  0  0  0  0
   27.6585  -18.0704  -14.8950 C   0  0  0  0  0  0  0  0  0  0  0  0
   27.6851  -19.5657  -15.2485 C   0  0  2  0  0  0  0  0  0  0  0  0
   26.8488  -19.8383  -16.3690 N   0  0  0  0  0  0  0  0  0  0  0  0
   27.3586  -20.3735  -14.0797 C   0  0  0  0  0  0  0  0  0  0  0  0
   26.1042  -20.5101  -13.8479 O   0  0  0  0  0  0  0  0  0  0  0  0
   28.2730  -20.9889  -13.2197 N   0  0  0  0  0  0  0  0  0  0  0  0
   29.3844  -21.9063  -13.6280 C   0  0  0  0  0  0  0  0  0  0  0  0
   30.5592  -21.1648  -12.9438 C   0  0  0  0  0  0  0  0  0  0  0  0
   29.9204  -20.5520  -11.7212 C   0  0  0  0  0  0  0  0  0  0  0  0
   28.4479  -20.9973  -11.8097 C   0  0  1  0  0  0  0  0  0  0  0  0
   27.5896  -20.2470  -10.9316 C   0  0  0  0  0  0  0  0  0  0  0  0
   27.4092  -19.0056  -10.8532 O   0  0  0  0  0  0  0  0  0  0  0  0
   21.1738  -21.9583  -12.6525 O   0  0  0  0  0  0  0  0  0  0  0  0
   22.1623  -21.2968  -11.9534 C   0  0  0  0  0  0  0  0  0  0  0  0
   22.0277  -21.1243  -10.5876 C   0  0  0  0  0  0  0  0  0  0  0  0
   22.9979  -20.4675   -9.8662 C   0  0  0  0  0  0  0  0  0  0  0  0
   24.1245  -19.9673  -10.4837 C   0  0  0  0  0  0  0  0  0  0  0  0
   25.1344  -19.2572   -9.6739 C   0  0  0  0  0  0  0  0  0  0  0  0
   26.0180  -20.2289   -8.9408 C   0  0  2  0  0  0  0  0  0  0  0  0
   26.7644  -20.9460   -9.9462 N   0  0  0  0  0  0  0  0  0  0  0  0
   25.2787  -21.1308   -8.0466 C   0  0  0  0  0  0  0  0  0  0  0  0
   25.0822  -22.3516   -8.2979 O   0  0  0  0  0  0  0  0  0  0  0  0
   24.2749  -20.1311  -11.8450 C   0  0  0  0  0  0  0  0  0  0  0  0
   23.3055  -20.7889  -12.5756 C   0  0  0  0  0  0  0  0  0  0  0  0
   24.7676  -20.6341   -6.8670 O   0  0  0  0  0  0  0  0  0  0  0  0
  2  1  1  0
  2  4  1  0
  3  2  2  0
  5  4  1  0
  5  6  1  6
  7  8  2  0
  7  5  1  0
  9  7  1  0
 10  9  1  0
 11 10  1  0
 12 11  1  0
 12 13  1  0
 13  9  1  0
 14 23  1  0
 13 14  1  1
 15 14  2  0
 17 18  2  0
 17 16  1  0
 19 18  1  0
 20 19  2  0
 21 20  1  0
 22 21  1  6
 22 23  1  0
 22 24  1  0
 24 28  1  0
 25 24  2  0
 26 20  1  0
 26 27  2  0
 27 17  1  0
M  END
$$$$
