NPY.pdb
     RDKit          3D

 28 29  0  0  1  0  0  0  0  0999 V2000
   23.2930  -14.1300  -14.6365 N   0  0  0  0  0  0  0  0  0  0  0  0
   22.2759  -13.6514  -15.4939 C   0  0  0  0  0  0  0  0  0  0  0  0
   21.4871  -12.7076  -15.1731 O   0  0  0  0  0  0  0  0  0  0  0  0
   22.1050  -14.2526  -16.8165 C   0  0  0  0  0  0  0  0  0  0  0  0
   23.4768  -14.6831  -17.3588 C   0  0  2  0  0  0  0  0  0  0  0  0
   23.5057  -14.6135  -18.7814 N   0  0  0  0  0  0  0  0  0  0  0  0
   23.8420  -15.9963  -16.8418 C   0  0  0  0  0  0  0  0  0  0  0  0
   22.8774  -16.8392  -16.7716 O   0  0  0  0  0  0  0  0  0  0  0  0
   25.1166  -16.3959  -16.4290 N   0  0  0  0  0  0  0  0  0  0  0  0
   26.4163  -15.8450  -16.9297 C   0  0  0  0  0  0  0  0  0  0  0  0
   27.0431  -15.4575  -15.5677 C   0  0  0  0  0  0  0  0  0  0  0  0
   26.4831  -16.4897  -14.6195 C   0  0  0  0  0  0  0  0  0  0  0  0
   25.5952  -17.3739  -15.5163 C   0  0  1  0  0  0  0  0  0  0  0  0
   24.7021  -18.2096  -14.7583 C   0  0  0  0  0  0  0  0  0  0  0  0
   24.8364  -18.6881  -13.6037 O   0  0  0  0  0  0  0  0  0  0  0  0
   17.5659  -20.0322  -10.5117 O   0  0  0  0  0  0  0  0  0  0  0  0
   18.6996  -19.6430  -11.1947 C   0  0  0  0  0  0  0  0  0  0  0  0
   18.6407  -18.5491  -12.0393 C   0  0  0  0  0  0  0  0  0  0  0  0
   19.7561  -18.1400  -12.7333 C   0  0  0  0  0  0  0  0  0  0  0  0
   20.9559  -18.8066  -12.6045 C   0  0  0  0  0  0  0  0  0  0  0  0
   22.1247  -18.3421  -13.3779 C   0  0  0  0  0  0  0  0  0  0  0  0
   22.4040  -19.2598  -14.5364 C   0  0  2  0  0  0  0  0  0  0  0  0
   23.4207  -18.6180  -15.3342 N   0  0  0  0  0  0  0  0  0  0  0  0
   21.2065  -19.5911  -15.3211 C   0  0  0  0  0  0  0  0  0  0  0  0
   20.4259  -20.5392  -15.0315 O   0  0  0  0  0  0  0  0  0  0  0  0
   21.0324  -19.8991  -11.7659 C   0  0  0  0  0  0  0  0  0  0  0  0
   19.9174  -20.3158  -11.0664 C   0  0  0  0  0  0  0  0  0  0  0  0
   20.9045  -18.8360  -16.4337 O   0  0  0  0  0  0  0  0  0  0  0  0
  2  1  1  0
  2  4  1  0
  3  2  2  0
  5  4  1  0
  5  6  1  6
  7  8  2  0
  7  5  1  0
  9  7  1  0
 10  9  1  0
 11 10  1  0
 12 11  1  0
 12 13  1  0
 13  9  1  0
 14 23  1  0
 13 14  1  1
 15 14  2  0
 17 18  2  0
 17 16  1  0
 19 18  1  0
 20 19  2  0
 21 20  1  0
 22 21  1  1
 22 23  1  0
 22 24  1  0
 24 28  1  0
 25 24  2  0
 26 20  1  0
 26 27  2  0
 27 17  1  0
M  END
$$$$
