NPY.pdb
     RDKit          3D

 28 29  0  0  1  0  0  0  0  0999 V2000
   14.6920  -11.2492    7.6046 N   0  0  0  0  0  0  0  0  0  0  0  0
   15.0571  -11.0084    6.2602 C   0  0  0  0  0  0  0  0  0  0  0  0
   15.0443   -9.8504    5.7359 O   0  0  0  0  0  0  0  0  0  0  0  0
   15.4741  -12.1267    5.4144 C   0  0  0  0  0  0  0  0  0  0  0  0
   17.0046  -12.2553    5.4622 C   0  0  2  0  0  0  0  0  0  0  0  0
   17.6078  -11.5558    4.3777 N   0  0  0  0  0  0  0  0  0  0  0  0
   17.3982  -13.6574    5.5295 C   0  0  0  0  0  0  0  0  0  0  0  0
   17.1466  -14.3427    4.4746 O   0  0  0  0  0  0  0  0  0  0  0  0
   18.0061  -14.2931    6.6162 N   0  0  0  0  0  0  0  0  0  0  0  0
   18.9339  -13.6537    7.6030 C   0  0  0  0  0  0  0  0  0  0  0  0
   18.1885  -14.0392    8.9044 C   0  0  0  0  0  0  0  0  0  0  0  0
   17.5563  -15.3669    8.5644 C   0  0  0  0  0  0  0  0  0  0  0  0
   17.9960  -15.6252    7.1102 C   0  0  1  0  0  0  0  0  0  0  0  0
   17.2300  -16.6662    6.4776 C   0  0  0  0  0  0  0  0  0  0  0  0
   15.9910  -16.7448    6.2814 O   0  0  0  0  0  0  0  0  0  0  0  0
   15.2245  -23.8938    1.9450 O   0  0  0  0  0  0  0  0  0  0  0  0
   15.8864  -22.8202    2.5041 C   0  0  0  0  0  0  0  0  0  0  0  0
   15.2971  -21.5691    2.4731 C   0  0  0  0  0  0  0  0  0  0  0  0
   15.9356  -20.4811    3.0223 C   0  0  0  0  0  0  0  0  0  0  0  0
   17.1734  -20.6097    3.6155 C   0  0  0  0  0  0  0  0  0  0  0  0
   17.8292  -19.4136    4.1805 C   0  0  0  0  0  0  0  0  0  0  0  0
   17.1653  -18.9894    5.4618 C   0  0  2  0  0  0  0  0  0  0  0  0
   17.9063  -17.8527    5.9526 N   0  0  0  0  0  0  0  0  0  0  0  0
   17.0740  -20.0669    6.4569 C   0  0  0  0  0  0  0  0  0  0  0  0
   16.0741  -20.8286    6.5670 O   0  0  0  0  0  0  0  0  0  0  0  0
   17.7751  -21.8503    3.6555 C   0  0  0  0  0  0  0  0  0  0  0  0
   17.1406  -22.9467    3.1064 C   0  0  0  0  0  0  0  0  0  0  0  0
   18.1272  -20.2710    7.3220 O   0  0  0  0  0  0  0  0  0  0  0  0
  2  1  1  0
  2  4  1  0
  3  2  2  0
  5  4  1  0
  5  6  1  6
  7  8  2  0
  7  5  1  0
  9  7  1  0
 10  9  1  0
 11 10  1  0
 12 11  1  0
 12 13  1  0
 13  9  1  0
 14 23  1  0
 13 14  1  6
 15 14  2  0
 17 18  2  0
 17 16  1  0
 19 18  1  0
 20 19  2  0
 21 20  1  0
 22 21  1  6
 22 23  1  0
 22 24  1  0
 24 28  1  0
 25 24  2  0
 26 20  1  0
 26 27  2  0
 27 17  1  0
M  END
$$$$
