NPY.pdb
     RDKit          3D

 28 29  0  0  1  0  0  0  0  0999 V2000
   23.9321  -14.5376  -20.9648 N   0  0  0  0  0  0  0  0  0  0  0  0
   24.6261  -13.4371  -20.4116 C   0  0  0  0  0  0  0  0  0  0  0  0
   25.7866  -13.0869  -20.7943 O   0  0  0  0  0  0  0  0  0  0  0  0
   24.0000  -12.6489  -19.3502 C   0  0  0  0  0  0  0  0  0  0  0  0
   24.7506  -12.8883  -18.0309 C   0  0  2  0  0  0  0  0  0  0  0  0
   24.6065  -14.2390  -17.6018 N   0  0  0  0  0  0  0  0  0  0  0  0
   24.3360  -11.9196  -17.0235 C   0  0  0  0  0  0  0  0  0  0  0  0
   23.0672  -11.7932  -16.8821 O   0  0  0  0  0  0  0  0  0  0  0  0
   25.1828  -11.1426  -16.2273 N   0  0  0  0  0  0  0  0  0  0  0  0
   26.3720  -11.6384  -15.4635 C   0  0  0  0  0  0  0  0  0  0  0  0
   27.4332  -10.6627  -16.0292 C   0  0  0  0  0  0  0  0  0  0  0  0
   26.6424   -9.4063  -16.3011 C   0  0  0  0  0  0  0  0  0  0  0  0
   25.2093   -9.7688  -15.8659 C   0  0  1  0  0  0  0  0  0  0  0  0
   24.2301   -8.8341  -16.3539 C   0  0  0  0  0  0  0  0  0  0  0  0
   24.1139   -8.3144  -17.4925 O   0  0  0  0  0  0  0  0  0  0  0  0
   17.8638  -12.0769  -14.7437 O   0  0  0  0  0  0  0  0  0  0  0  0
   18.7031  -11.1250  -15.2846 C   0  0  0  0  0  0  0  0  0  0  0  0
   19.7530  -11.5259  -16.0910 C   0  0  0  0  0  0  0  0  0  0  0  0
   20.6059  -10.5976  -16.6424 C   0  0  0  0  0  0  0  0  0  0  0  0
   20.4360   -9.2499  -16.4068 C   0  0  0  0  0  0  0  0  0  0  0  0
   21.3824   -8.2888  -17.0074 C   0  0  0  0  0  0  0  0  0  0  0  0
   22.1063   -7.5091  -15.9444 C   0  0  2  0  0  0  0  0  0  0  0  0
   23.1707   -8.3571  -15.4646 N   0  0  0  0  0  0  0  0  0  0  0  0
   21.2294   -7.0477  -14.8591 C   0  0  0  0  0  0  0  0  0  0  0  0
   21.3049   -7.4760  -13.6747 O   0  0  0  0  0  0  0  0  0  0  0  0
   19.3937   -8.8328  -15.6054 C   0  0  0  0  0  0  0  0  0  0  0  0
   18.5339   -9.7584  -15.0484 C   0  0  0  0  0  0  0  0  0  0  0  0
   20.2699   -6.0966  -15.1316 O   0  0  0  0  0  0  0  0  0  0  0  0
  2  1  1  0
  2  4  1  0
  3  2  2  0
  5  4  1  0
  5  6  1  1
  7  8  2  0
  7  5  1  0
  9  7  1  0
 10  9  1  0
 11 10  1  0
 12 11  1  0
 12 13  1  0
 13  9  1  0
 14 23  1  0
 13 14  1  6
 15 14  2  0
 17 18  2  0
 17 16  1  0
 19 18  1  0
 20 19  2  0
 21 20  1  0
 22 21  1  6
 22 23  1  0
 22 24  1  0
 24 28  1  0
 25 24  2  0
 26 20  1  0
 26 27  2  0
 27 17  1  0
M  END
$$$$
