NPY.pdb
     RDKit          3D

 28 29  0  0  1  0  0  0  0  0999 V2000
   22.0750  -13.3221  -15.2877 N   0  0  0  0  0  0  0  0  0  0  0  0
   22.5027  -14.3418  -16.1685 C   0  0  0  0  0  0  0  0  0  0  0  0
   23.6484  -14.3455  -16.7193 O   0  0  0  0  0  0  0  0  0  0  0  0
   21.6044  -15.4550  -16.4743 C   0  0  0  0  0  0  0  0  0  0  0  0
   22.3898  -16.7740  -16.4052 C   0  0  2  0  0  0  0  0  0  0  0  0
   23.2903  -16.8876  -17.5032 N   0  0  0  0  0  0  0  0  0  0  0  0
   21.4788  -17.9064  -16.2917 C   0  0  0  0  0  0  0  0  0  0  0  0
   20.5791  -17.7901  -15.3845 O   0  0  0  0  0  0  0  0  0  0  0  0
   21.5079  -19.0704  -17.0656 N   0  0  0  0  0  0  0  0  0  0  0  0
   22.0552  -19.1896  -18.4548 C   0  0  0  0  0  0  0  0  0  0  0  0
   23.0399  -20.3605  -18.2155 C   0  0  0  0  0  0  0  0  0  0  0  0
   22.3625  -21.1715  -17.1378 C   0  0  0  0  0  0  0  0  0  0  0  0
   21.0567  -20.4019  -16.8602 C   0  0  1  0  0  0  0  0  0  0  0  0
   20.4239  -20.8107  -15.6342 C   0  0  0  0  0  0  0  0  0  0  0  0
   20.8841  -21.4870  -14.6799 O   0  0  0  0  0  0  0  0  0  0  0  0
   17.7597  -14.4683  -13.5601 O   0  0  0  0  0  0  0  0  0  0  0  0
   18.0498  -15.8099  -13.4215 C   0  0  0  0  0  0  0  0  0  0  0  0
   19.3049  -16.2724  -13.7741 C   0  0  0  0  0  0  0  0  0  0  0  0
   19.6204  -17.6056  -13.6470 C   0  0  0  0  0  0  0  0  0  0  0  0
   18.6980  -18.5103  -13.1663 C   0  0  0  0  0  0  0  0  0  0  0  0
   19.0740  -19.9341  -13.0587 C   0  0  0  0  0  0  0  0  0  0  0  0
   18.3908  -20.7538  -14.1186 C   0  0  2  0  0  0  0  0  0  0  0  0
   19.0361  -20.4312  -15.3683 N   0  0  0  0  0  0  0  0  0  0  0  0
   16.9372  -20.5451  -14.1719 C   0  0  0  0  0  0  0  0  0  0  0  0
   16.3565  -19.9349  -15.1113 O   0  0  0  0  0  0  0  0  0  0  0  0
   17.4419  -18.0658  -12.8095 C   0  0  0  0  0  0  0  0  0  0  0  0
   17.1178  -16.7296  -12.9344 C   0  0  0  0  0  0  0  0  0  0  0  0
   16.1519  -21.0362  -13.1513 O   0  0  0  0  0  0  0  0  0  0  0  0
  2  1  1  0
  2  4  1  0
  3  2  2  0
  5  4  1  0
  5  6  1  6
  7  8  2  0
  7  5  1  0
  9  7  1  0
 10  9  1  0
 11 10  1  0
 12 11  1  0
 12 13  1  0
 13  9  1  0
 14 23  1  0
 13 14  1  1
 15 14  2  0
 17 18  2  0
 17 16  1  0
 19 18  1  0
 20 19  2  0
 21 20  1  0
 22 21  1  1
 22 23  1  0
 22 24  1  0
 24 28  1  0
 25 24  2  0
 26 20  1  0
 26 27  2  0
 27 17  1  0
M  END
$$$$
