NPY.pdb
     RDKit          3D

 28 29  0  0  1  0  0  0  0  0999 V2000
   21.2376  -13.7889  -21.1783 N   0  0  0  0  0  0  0  0  0  0  0  0
   20.5801  -12.7086  -20.5465 C   0  0  0  0  0  0  0  0  0  0  0  0
   19.8794  -11.8581  -21.1804 O   0  0  0  0  0  0  0  0  0  0  0  0
   20.6950  -12.5416  -19.0978 C   0  0  0  0  0  0  0  0  0  0  0  0
   22.0554  -11.9083  -18.7667 C   0  0  2  0  0  0  0  0  0  0  0  0
   23.0599  -12.9080  -18.6224 N   0  0  0  0  0  0  0  0  0  0  0  0
   21.9440  -11.0358  -17.6042 C   0  0  0  0  0  0  0  0  0  0  0  0
   21.3682   -9.9105  -17.8236 O   0  0  0  0  0  0  0  0  0  0  0  0
   22.4009  -11.3178  -16.3133 N   0  0  0  0  0  0  0  0  0  0  0  0
   22.4642  -12.6732  -15.6791 C   0  0  0  0  0  0  0  0  0  0  0  0
   23.9584  -12.6685  -15.2724 C   0  0  0  0  0  0  0  0  0  0  0  0
   24.2368  -11.2136  -14.9833 C   0  0  0  0  0  0  0  0  0  0  0  0
   22.8861  -10.5189  -15.2433 C   0  0  1  0  0  0  0  0  0  0  0  0
   23.0120   -9.0899  -15.3563 C   0  0  0  0  0  0  0  0  0  0  0  0
   23.7646   -8.4063  -16.0953 O   0  0  0  0  0  0  0  0  0  0  0  0
   21.4434   -0.9963  -17.1542 O   0  0  0  0  0  0  0  0  0  0  0  0
   21.4915   -2.3544  -16.9166 C   0  0  0  0  0  0  0  0  0  0  0  0
   22.6133   -2.8989  -16.3178 C   0  0  0  0  0  0  0  0  0  0  0  0
   22.6882   -4.2502  -16.0702 C   0  0  0  0  0  0  0  0  0  0  0  0
   21.6511   -5.0924  -16.4106 C   0  0  0  0  0  0  0  0  0  0  0  0
   21.7785   -6.5381  -16.1392 C   0  0  0  0  0  0  0  0  0  0  0  0
   22.1725   -6.7856  -14.7089 C   0  0  2  0  0  0  0  0  0  0  0  0
   22.1817   -8.2169  -14.5261 N   0  0  0  0  0  0  0  0  0  0  0  0
   21.3043   -6.1054  -13.7378 C   0  0  0  0  0  0  0  0  0  0  0  0
   20.1550   -6.5200  -13.4229 O   0  0  0  0  0  0  0  0  0  0  0  0
   20.5248   -4.5659  -17.0080 C   0  0  0  0  0  0  0  0  0  0  0  0
   20.4425   -3.2109  -17.2598 C   0  0  0  0  0  0  0  0  0  0  0  0
   21.7539   -4.9538  -13.1286 O   0  0  0  0  0  0  0  0  0  0  0  0
  2  1  1  0
  2  4  1  0
  3  2  2  0
  5  4  1  0
  5  6  1  1
  7  8  2  0
  7  5  1  0
  9  7  1  0
 10  9  1  0
 11 10  1  0
 12 11  1  0
 12 13  1  0
 13  9  1  0
 14 23  1  0
 13 14  1  6
 15 14  2  0
 17 18  2  0
 17 16  1  0
 19 18  1  0
 20 19  2  0
 21 20  1  0
 22 21  1  6
 22 23  1  0
 22 24  1  0
 24 28  1  0
 25 24  2  0
 26 20  1  0
 26 27  2  0
 27 17  1  0
M  END
$$$$
