VSM.pdb
     RDKit          3D

 22 21  0  0  1  0  0  0  0  0999 V2000
    2.4931  -19.5390   23.2085 C   0  0  0  0  0  0  0  0  0  0  0  0
    2.8138  -18.5807   22.1089 C   0  0  2  0  0  0  0  0  0  0  0  0
    1.6457  -18.3935   21.1697 C   0  0  0  0  0  0  0  0  0  0  0  0
    4.0987  -18.9000   21.3954 C   0  0  2  0  0  0  0  0  0  0  0  0
    4.0433  -20.2193   20.8280 N   0  0  0  0  0  0  0  0  0  0  0  0
    5.2991  -18.7048   22.2536 C   0  0  0  0  0  0  0  0  0  0  0  0
    5.2292  -18.9741   23.4802 O   0  0  0  0  0  0  0  0  0  0  0  0
    8.9713  -17.3189   20.7715 O   0  0  0  0  0  0  0  0  0  0  0  0
    8.9675  -18.2828   21.7783 C   0  0  0  0  0  0  0  0  0  0  0  0
    7.7029  -18.1334   22.5940 C   0  0  2  0  0  0  0  0  0  0  0  0
    6.5307  -18.2251   21.7525 N   0  0  0  0  0  0  0  0  0  0  0  0
    7.7995  -16.8318   23.3072 C   0  0  0  0  0  0  0  0  0  0  0  0
    7.1417  -15.8802   22.8199 O   0  0  0  0  0  0  0  0  0  0  0  0
    6.0729  -11.3800   27.7056 C   0  0  0  0  0  0  0  0  0  0  0  0
    5.8782  -12.9435   26.7899 S   0  0  0  0  0  0  0  0  0  0  0  0
    7.5057  -13.4515   26.2017 C   0  0  0  0  0  0  0  0  0  0  0  0
    7.5334  -14.6802   25.3981 C   0  0  0  0  0  0  0  0  0  0  0  0
    8.8242  -15.2568   24.9491 C   0  0  2  0  0  0  0  0  0  0  0  0
    8.5704  -16.6364   24.4619 N   0  0  0  0  0  0  0  0  0  0  0  0
    9.9548  -15.2424   25.8573 C   0  0  0  0  0  0  0  0  0  0  0  0
   10.3788  -14.1793   26.4214 O   0  0  0  0  0  0  0  0  0  0  0  0
   10.6508  -16.3869   26.1814 O   0  0  0  0  0  0  0  0  0  0  0  0
  2  1  1  1
  2  3  1  0
  4  2  1  0
  4  5  1  1
  6  4  1  0
  6 11  1  0
  7  6  2  0
  8  9  1  0
 10 11  1  0
 10  9  1  6
 10 12  1  0
 12 19  1  0
 13 12  2  0
 15 14  1  0
 16 15  1  0
 17 16  1  0
 18 17  1  1
 19 18  1  0
 20 22  1  0
 20 18  1  0
 21 20  2  0
M  END
$$$$
