VSM.pdb
     RDKit          3D

 22 21  0  0  1  0  0  0  0  0999 V2000
    7.7798  -12.5467   18.6929 C   0  0  0  0  0  0  0  0  0  0  0  0
    7.8551  -13.3742   19.9338 C   0  0  2  0  0  0  0  0  0  0  0  0
    8.6962  -12.7120   20.9994 C   0  0  0  0  0  0  0  0  0  0  0  0
    8.2490  -14.8025   19.6750 C   0  0  2  0  0  0  0  0  0  0  0  0
    7.3772  -15.3944   18.6977 N   0  0  0  0  0  0  0  0  0  0  0  0
    8.3327  -15.6127   20.9209 C   0  0  0  0  0  0  0  0  0  0  0  0
    7.2724  -15.9980   21.4768 O   0  0  0  0  0  0  0  0  0  0  0  0
   11.9106  -17.1768   22.4164 O   0  0  0  0  0  0  0  0  0  0  0  0
   10.6916  -17.8037   22.6689 C   0  0  0  0  0  0  0  0  0  0  0  0
    9.6060  -16.7531   22.7371 C   0  0  2  0  0  0  0  0  0  0  0  0
    9.5610  -15.9758   21.5188 N   0  0  0  0  0  0  0  0  0  0  0  0
    9.8825  -15.9230   23.9400 C   0  0  0  0  0  0  0  0  0  0  0  0
   10.3546  -14.7790   23.7300 O   0  0  0  0  0  0  0  0  0  0  0  0
    5.7273  -12.8920   26.7352 C   0  0  0  0  0  0  0  0  0  0  0  0
    7.3379  -12.0525   26.8830 S   0  0  0  0  0  0  0  0  0  0  0  0
    8.5877  -13.3026   27.2405 C   0  0  0  0  0  0  0  0  0  0  0  0
    8.7565  -14.3406   26.2156 C   0  0  0  0  0  0  0  0  0  0  0  0
    9.7842  -15.3978   26.3774 C   0  0  2  0  0  0  0  0  0  0  0  0
    9.6435  -16.3562   25.2518 N   0  0  0  0  0  0  0  0  0  0  0  0
    9.8689  -16.1093   27.6383 C   0  0  0  0  0  0  0  0  0  0  0  0
    9.4203  -17.2929   27.7993 O   0  0  0  0  0  0  0  0  0  0  0  0
   10.4507  -15.5534   28.7573 O   0  0  0  0  0  0  0  0  0  0  0  0
  2  1  1  6
  2  3  1  0
  4  2  1  0
  4  5  1  6
  6  4  1  0
  6 11  1  0
  7  6  2  0
  8  9  1  0
 10 11  1  0
 10  9  1  6
 10 12  1  0
 12 19  1  0
 13 12  2  0
 15 14  1  0
 16 15  1  0
 17 16  1  0
 18 17  1  1
 19 18  1  0
 20 22  1  0
 20 18  1  0
 21 20  2  0
M  END
$$$$
