VSM.pdb
     RDKit          3D

 22 21  0  0  1  0  0  0  0  0999 V2000
    7.4792  -12.7515   20.3315 C   0  0  0  0  0  0  0  0  0  0  0  0
    8.4656  -13.4182   19.4300 C   0  0  2  0  0  0  0  0  0  0  0  0
    8.5318  -12.7484   18.0778 C   0  0  0  0  0  0  0  0  0  0  0  0
    8.2803  -14.9082   19.3414 C   0  0  2  0  0  0  0  0  0  0  0  0
    7.1686  -15.2258   18.4877 N   0  0  0  0  0  0  0  0  0  0  0  0
    8.1696  -15.5563   20.6768 C   0  0  0  0  0  0  0  0  0  0  0  0
    7.0506  -15.5987   21.2495 O   0  0  0  0  0  0  0  0  0  0  0  0
   11.3760  -17.5132   22.5289 O   0  0  0  0  0  0  0  0  0  0  0  0
   10.0753  -17.9716   22.7304 C   0  0  0  0  0  0  0  0  0  0  0  0
    9.1215  -16.8037   22.6155 C   0  0  2  0  0  0  0  0  0  0  0  0
    9.2742  -16.1344   21.3430 N   0  0  0  0  0  0  0  0  0  0  0  0
    9.3917  -15.9092   23.7727 C   0  0  0  0  0  0  0  0  0  0  0  0
   10.2596  -15.0194   23.5974 O   0  0  0  0  0  0  0  0  0  0  0  0
    6.0401  -11.7266   25.9796 C   0  0  0  0  0  0  0  0  0  0  0  0
    6.5498  -12.1922   27.6661 S   0  0  0  0  0  0  0  0  0  0  0  0
    7.9661  -13.3011   27.5344 C   0  0  0  0  0  0  0  0  0  0  0  0
    7.9588  -14.2028   26.3755 C   0  0  0  0  0  0  0  0  0  0  0  0
    9.1062  -15.1068   26.1181 C   0  0  2  0  0  0  0  0  0  0  0  0
    8.7360  -16.0198   25.0070 N   0  0  0  0  0  0  0  0  0  0  0  0
    9.6706  -15.8588   27.2224 C   0  0  0  0  0  0  0  0  0  0  0  0
   10.2508  -15.3051   28.2149 O   0  0  0  0  0  0  0  0  0  0  0  0
    9.6127  -17.2346   27.2793 O   0  0  0  0  0  0  0  0  0  0  0  0
  2  1  1  1
  2  3  1  0
  4  2  1  0
  4  5  1  6
  6  4  1  0
  6 11  1  0
  7  6  2  0
  8  9  1  0
 10 11  1  0
 10  9  1  6
 10 12  1  0
 12 19  1  0
 13 12  2  0
 15 14  1  0
 16 15  1  0
 17 16  1  0
 18 17  1  1
 19 18  1  0
 20 22  1  0
 20 18  1  0
 21 20  2  0
M  END
$$$$
