VSM.pdb
     RDKit          3D

 22 21  0  0  1  0  0  0  0  0999 V2000
    7.3695  -12.7394   20.4596 C   0  0  0  0  0  0  0  0  0  0  0  0
    8.5094  -13.1409   19.5823 C   0  0  2  0  0  0  0  0  0  0  0  0
    8.6317  -12.2416   18.3749 C   0  0  0  0  0  0  0  0  0  0  0  0
    8.5046  -14.6031   19.2302 C   0  0  2  0  0  0  0  0  0  0  0  0
    7.5065  -14.8760   18.2328 N   0  0  0  0  0  0  0  0  0  0  0  0
    8.3662  -15.4832   20.4227 C   0  0  0  0  0  0  0  0  0  0  0  0
    7.2193  -15.8446   20.7911 O   0  0  0  0  0  0  0  0  0  0  0  0
   11.4469  -17.7404   22.0189 O   0  0  0  0  0  0  0  0  0  0  0  0
   10.1019  -18.0659   22.1853 C   0  0  0  0  0  0  0  0  0  0  0  0
    9.3037  -16.7896   22.3293 C   0  0  2  0  0  0  0  0  0  0  0  0
    9.4744  -15.9394   21.1723 N   0  0  0  0  0  0  0  0  0  0  0  0
    9.7493  -16.1409   23.5914 C   0  0  0  0  0  0  0  0  0  0  0  0
   10.5790  -15.2062   23.4738 O   0  0  0  0  0  0  0  0  0  0  0  0
    5.8211  -12.2734   27.0339 C   0  0  0  0  0  0  0  0  0  0  0  0
    7.6247  -12.4461   26.8393 S   0  0  0  0  0  0  0  0  0  0  0  0
    7.9683  -14.1320   26.2984 C   0  0  0  0  0  0  0  0  0  0  0  0
    9.3847  -14.4496   26.0767 C   0  0  0  0  0  0  0  0  0  0  0  0
    9.8476  -15.8588   26.0687 C   0  0  2  0  0  0  0  0  0  0  0  0
    9.2927  -16.5215   24.8612 N   0  0  0  0  0  0  0  0  0  0  0  0
    9.6228  -16.6796   27.2430 C   0  0  0  0  0  0  0  0  0  0  0  0
    8.8939  -17.7269   27.2291 O   0  0  0  0  0  0  0  0  0  0  0  0
   10.1911  -16.3859   28.4638 O   0  0  0  0  0  0  0  0  0  0  0  0
  2  1  1  6
  2  3  1  0
  4  2  1  0
  4  5  1  6
  6  4  1  0
  6 11  1  0
  7  6  2  0
  8  9  1  0
 10 11  1  0
 10  9  1  6
 10 12  1  0
 12 19  1  0
 13 12  2  0
 15 14  1  0
 16 15  1  0
 17 16  1  0
 18 17  1  1
 19 18  1  0
 20 22  1  0
 20 18  1  0
 21 20  2  0
M  END
$$$$
