VSM.pdb
     RDKit          3D

 22 21  0  0  1  0  0  0  0  0999 V2000
    7.4373  -12.6700   20.9498 C   0  0  0  0  0  0  0  0  0  0  0  0
    8.4910  -13.2007   20.0342 C   0  0  2  0  0  0  0  0  0  0  0  0
    8.6581  -12.3334   18.8089 C   0  0  0  0  0  0  0  0  0  0  0  0
    8.3167  -14.6580   19.7056 C   0  0  2  0  0  0  0  0  0  0  0  0
    7.1831  -14.8458   18.8425 N   0  0  0  0  0  0  0  0  0  0  0  0
    8.2517  -15.5190   20.9181 C   0  0  0  0  0  0  0  0  0  0  0  0
    7.1292  -15.8303   21.3924 O   0  0  0  0  0  0  0  0  0  0  0  0
   11.4968  -17.6039   22.2670 O   0  0  0  0  0  0  0  0  0  0  0  0
   10.2263  -18.0480   22.6293 C   0  0  0  0  0  0  0  0  0  0  0  0
    9.3046  -16.8545   22.7425 C   0  0  2  0  0  0  0  0  0  0  0  0
    9.4041  -16.0112   21.5723 N   0  0  0  0  0  0  0  0  0  0  0  0
    9.6694  -16.1439   23.9972 C   0  0  0  0  0  0  0  0  0  0  0  0
   10.6816  -15.4034   23.9431 O   0  0  0  0  0  0  0  0  0  0  0  0
    6.0822  -11.3659   25.3885 C   0  0  0  0  0  0  0  0  0  0  0  0
    6.5208  -12.6174   26.6383 S   0  0  0  0  0  0  0  0  0  0  0  0
    7.8621  -13.6232   25.9735 C   0  0  0  0  0  0  0  0  0  0  0  0
    8.3967  -14.6459   26.8814 C   0  0  0  0  0  0  0  0  0  0  0  0
    9.4445  -15.5888   26.4195 C   0  0  2  0  0  0  0  0  0  0  0  0
    8.9499  -16.2664   25.1943 N   0  0  0  0  0  0  0  0  0  0  0  0
    9.9767  -16.5616   27.3542 C   0  0  0  0  0  0  0  0  0  0  0  0
   10.5575  -16.2339   28.4422 O   0  0  0  0  0  0  0  0  0  0  0  0
    9.8852  -17.9189   27.1329 O   0  0  0  0  0  0  0  0  0  0  0  0
  2  1  1  6
  2  3  1  0
  4  2  1  0
  4  5  1  1
  6  4  1  0
  6 11  1  0
  7  6  2  0
  8  9  1  0
 10 11  1  0
 10  9  1  6
 10 12  1  0
 12 19  1  0
 13 12  2  0
 15 14  1  0
 16 15  1  0
 17 16  1  0
 18 17  1  1
 19 18  1  0
 20 22  1  0
 20 18  1  0
 21 20  2  0
M  END
$$$$
