VSM.pdb
     RDKit          3D

 22 21  0  0  1  0  0  0  0  0999 V2000
    8.0407  -12.2490   18.3482 C   0  0  0  0  0  0  0  0  0  0  0  0
    7.9530  -13.1801   19.5125 C   0  0  2  0  0  0  0  0  0  0  0  0
    8.4997  -12.5541   20.7737 C   0  0  0  0  0  0  0  0  0  0  0  0
    8.5290  -14.5410   19.2323 C   0  0  2  0  0  0  0  0  0  0  0  0
    7.9780  -15.0791   18.0189 N   0  0  0  0  0  0  0  0  0  0  0  0
    8.3844  -15.4764   20.3812 C   0  0  0  0  0  0  0  0  0  0  0  0
    7.2555  -15.9689   20.6355 O   0  0  0  0  0  0  0  0  0  0  0  0
   11.5782  -17.2905   22.1415 O   0  0  0  0  0  0  0  0  0  0  0  0
   10.3124  -17.8484   22.3120 C   0  0  0  0  0  0  0  0  0  0  0  0
    9.2869  -16.7371   22.3348 C   0  0  2  0  0  0  0  0  0  0  0  0
    9.4671  -15.8438   21.2123 N   0  0  0  0  0  0  0  0  0  0  0  0
    9.4240  -16.0490   23.6463 C   0  0  0  0  0  0  0  0  0  0  0  0
   10.3150  -15.1680   23.7219 O   0  0  0  0  0  0  0  0  0  0  0  0
    6.2170  -11.1134   25.9951 C   0  0  0  0  0  0  0  0  0  0  0  0
    6.9050  -12.4672   27.0023 S   0  0  0  0  0  0  0  0  0  0  0  0
    7.0706  -13.9196   25.9458 C   0  0  0  0  0  0  0  0  0  0  0  0
    7.6604  -15.1031   26.5842 C   0  0  0  0  0  0  0  0  0  0  0  0
    8.9190  -15.6905   26.0635 C   0  0  2  0  0  0  0  0  0  0  0  0
    8.6231  -16.3378   24.7602 N   0  0  0  0  0  0  0  0  0  0  0  0
    9.6799  -16.5879   26.9114 C   0  0  0  0  0  0  0  0  0  0  0  0
    9.7755  -17.8405   26.6877 O   0  0  0  0  0  0  0  0  0  0  0  0
   10.3632  -16.1445   28.0232 O   0  0  0  0  0  0  0  0  0  0  0  0
  2  1  1  6
  2  3  1  0
  4  2  1  0
  4  5  1  6
  6  4  1  0
  6 11  1  0
  7  6  2  0
  8  9  1  0
 10 11  1  0
 10  9  1  1
 10 12  1  0
 12 19  1  0
 13 12  2  0
 15 14  1  0
 16 15  1  0
 17 16  1  0
 18 17  1  1
 19 18  1  0
 20 22  1  0
 20 18  1  0
 21 20  2  0
M  END
$$$$
