VSM.pdb
     RDKit          3D

 22 21  0  0  1  0  0  0  0  0999 V2000
    7.3627  -12.8504   20.4655 C   0  0  0  0  0  0  0  0  0  0  0  0
    8.4447  -13.3057   19.5423 C   0  0  2  0  0  0  0  0  0  0  0  0
    8.5432  -12.4275   18.3173 C   0  0  0  0  0  0  0  0  0  0  0  0
    8.3698  -14.7712   19.2126 C   0  0  2  0  0  0  0  0  0  0  0  0
    7.3601  -15.0110   18.2184 N   0  0  0  0  0  0  0  0  0  0  0  0
    8.1889  -15.6253   20.4182 C   0  0  0  0  0  0  0  0  0  0  0  0
    7.0428  -15.7431   20.9226 O   0  0  0  0  0  0  0  0  0  0  0  0
   11.3724  -17.5664   22.3716 O   0  0  0  0  0  0  0  0  0  0  0  0
   10.1058  -18.1471   22.4046 C   0  0  0  0  0  0  0  0  0  0  0  0
    9.0650  -17.0595   22.2611 C   0  0  2  0  0  0  0  0  0  0  0  0
    9.2552  -16.3202   21.0332 N   0  0  0  0  0  0  0  0  0  0  0  0
    9.1665  -16.2013   23.4716 C   0  0  0  0  0  0  0  0  0  0  0  0
    9.9046  -15.1904   23.3767 O   0  0  0  0  0  0  0  0  0  0  0  0
    7.1359  -10.7875   26.2201 C   0  0  0  0  0  0  0  0  0  0  0  0
    6.2918  -12.3124   26.7518 S   0  0  0  0  0  0  0  0  0  0  0  0
    7.5404  -13.5970   26.9605 C   0  0  0  0  0  0  0  0  0  0  0  0
    7.5983  -14.6033   25.8927 C   0  0  0  0  0  0  0  0  0  0  0  0
    8.7061  -15.5886   25.8463 C   0  0  2  0  0  0  0  0  0  0  0  0
    8.4922  -16.4706   24.6710 N   0  0  0  0  0  0  0  0  0  0  0  0
    8.9923  -16.3811   27.0266 C   0  0  0  0  0  0  0  0  0  0  0  0
    8.7317  -17.6278   27.1060 O   0  0  0  0  0  0  0  0  0  0  0  0
    9.5765  -15.8390   28.1511 O   0  0  0  0  0  0  0  0  0  0  0  0
  2  1  1  6
  2  3  1  0
  4  2  1  0
  4  5  1  6
  6  4  1  0
  6 11  1  0
  7  6  2  0
  8  9  1  0
 10 11  1  0
 10  9  1  1
 10 12  1  0
 12 19  1  0
 13 12  2  0
 15 14  1  0
 16 15  1  0
 17 16  1  0
 18 17  1  1
 19 18  1  0
 20 22  1  0
 20 18  1  0
 21 20  2  0
M  END
$$$$
