VSM.pdb
     RDKit          3D

 22 21  0  0  1  0  0  0  0  0999 V2000
    7.5121  -12.4667   18.6845 C   0  0  0  0  0  0  0  0  0  0  0  0
    7.5565  -13.3870   19.8597 C   0  0  2  0  0  0  0  0  0  0  0  0
    8.1576  -12.7184   21.0734 C   0  0  0  0  0  0  0  0  0  0  0  0
    8.1818  -14.7195   19.5503 C   0  0  2  0  0  0  0  0  0  0  0  0
    7.5373  -15.3256   18.4178 N   0  0  0  0  0  0  0  0  0  0  0  0
    8.2205  -15.6265   20.7300 C   0  0  0  0  0  0  0  0  0  0  0  0
    7.1451  -16.1028   21.1756 O   0  0  0  0  0  0  0  0  0  0  0  0
   11.7573  -17.0723   22.4898 O   0  0  0  0  0  0  0  0  0  0  0  0
   10.5527  -17.7635   22.6071 C   0  0  0  0  0  0  0  0  0  0  0  0
    9.4144  -16.7679   22.5987 C   0  0  2  0  0  0  0  0  0  0  0  0
    9.4216  -15.9842   21.3837 N   0  0  0  0  0  0  0  0  0  0  0  0
    9.5596  -15.9348   23.8223 C   0  0  0  0  0  0  0  0  0  0  0  0
    9.7880  -14.7139   23.6402 O   0  0  0  0  0  0  0  0  0  0  0  0
    7.4131  -11.2326   25.2784 C   0  0  0  0  0  0  0  0  0  0  0  0
    6.7176  -12.3274   26.5584 S   0  0  0  0  0  0  0  0  0  0  0  0
    7.9936  -13.5099   27.0342 C   0  0  0  0  0  0  0  0  0  0  0  0
    8.3334  -14.5167   26.0208 C   0  0  0  0  0  0  0  0  0  0  0  0
    9.4055  -15.5095   26.2762 C   0  0  2  0  0  0  0  0  0  0  0  0
    9.4542  -16.4449   25.1239 N   0  0  0  0  0  0  0  0  0  0  0  0
    9.3981  -16.2470   27.5249 C   0  0  0  0  0  0  0  0  0  0  0  0
    8.9912  -17.4529   27.6168 O   0  0  0  0  0  0  0  0  0  0  0  0
    9.8400  -15.6933   28.7071 O   0  0  0  0  0  0  0  0  0  0  0  0
  2  1  1  6
  2  3  1  0
  4  2  1  0
  4  5  1  6
  6  4  1  0
  6 11  1  0
  7  6  2  0
  8  9  1  0
 10 11  1  0
 10  9  1  6
 10 12  1  0
 12 19  1  0
 13 12  2  0
 15 14  1  0
 16 15  1  0
 17 16  1  0
 18 17  1  6
 19 18  1  0
 20 22  1  0
 20 18  1  0
 21 20  2  0
M  END
$$$$
