VSM.pdb
     RDKit          3D

 22 21  0  0  1  0  0  0  0  0999 V2000
    7.2323  -12.7918   20.9447 C   0  0  0  0  0  0  0  0  0  0  0  0
    8.3064  -13.0064   19.9296 C   0  0  2  0  0  0  0  0  0  0  0  0
    8.2112  -12.0151   18.7940 C   0  0  0  0  0  0  0  0  0  0  0  0
    8.4076  -14.4320   19.4608 C   0  0  2  0  0  0  0  0  0  0  0  0
    7.4055  -14.7060   18.4677 N   0  0  0  0  0  0  0  0  0  0  0  0
    8.3745  -15.4115   20.5812 C   0  0  0  0  0  0  0  0  0  0  0  0
    7.2668  -15.7437   21.0757 O   0  0  0  0  0  0  0  0  0  0  0  0
   11.8035  -17.3267   22.2615 O   0  0  0  0  0  0  0  0  0  0  0  0
   10.5569  -17.9446   22.1783 C   0  0  0  0  0  0  0  0  0  0  0  0
    9.4797  -16.8865   22.2615 C   0  0  2  0  0  0  0  0  0  0  0  0
    9.5415  -15.9950   21.1248 N   0  0  0  0  0  0  0  0  0  0  0  0
    9.6658  -16.1809   23.5575 C   0  0  0  0  0  0  0  0  0  0  0  0
    9.8902  -14.9475   23.4924 O   0  0  0  0  0  0  0  0  0  0  0  0
    6.6776  -12.0718   25.3444 C   0  0  0  0  0  0  0  0  0  0  0  0
    7.6763  -12.6549   26.7527 S   0  0  0  0  0  0  0  0  0  0  0  0
    7.4862  -14.4447   26.8678 C   0  0  0  0  0  0  0  0  0  0  0  0
    8.0988  -15.2178   25.7801 C   0  0  0  0  0  0  0  0  0  0  0  0
    9.3218  -16.0210   26.0238 C   0  0  2  0  0  0  0  0  0  0  0  0
    9.6016  -16.8200   24.8037 N   0  0  0  0  0  0  0  0  0  0  0  0
    9.3875  -16.8618   27.2037 C   0  0  0  0  0  0  0  0  0  0  0  0
    8.9047  -18.0423   27.2429 O   0  0  0  0  0  0  0  0  0  0  0  0
    9.9869  -16.4423   28.3717 O   0  0  0  0  0  0  0  0  0  0  0  0
  2  1  1  1
  2  3  1  0
  4  2  1  0
  4  5  1  6
  6  4  1  0
  6 11  1  0
  7  6  2  0
  8  9  1  0
 10 11  1  0
 10  9  1  6
 10 12  1  0
 12 19  1  0
 13 12  2  0
 15 14  1  0
 16 15  1  0
 17 16  1  0
 18 17  1  6
 19 18  1  0
 20 22  1  0
 20 18  1  0
 21 20  2  0
M  END
$$$$
