VSM.pdb
     RDKit          3D

 22 21  0  0  1  0  0  0  0  0999 V2000
    6.6781  -13.7675   20.0492 C   0  0  0  0  0  0  0  0  0  0  0  0
    8.0181  -13.1095   20.0072 C   0  0  2  0  0  0  0  0  0  0  0  0
    8.2216  -12.3324   18.7281 C   0  0  0  0  0  0  0  0  0  0  0  0
    9.1530  -14.0477   20.3139 C   0  0  2  0  0  0  0  0  0  0  0  0
    9.4385  -14.8787   19.1766 N   0  0  0  0  0  0  0  0  0  0  0  0
    8.9256  -14.8433   21.5512 C   0  0  0  0  0  0  0  0  0  0  0  0
    8.6620  -14.2467   22.6266 O   0  0  0  0  0  0  0  0  0  0  0  0
   10.0661  -18.7904   22.0110 O   0  0  0  0  0  0  0  0  0  0  0  0
    8.8128  -18.4877   22.5405 C   0  0  0  0  0  0  0  0  0  0  0  0
    8.7346  -16.9985   22.7918 C   0  0  2  0  0  0  0  0  0  0  0  0
    8.9920  -16.2549   21.5788 N   0  0  0  0  0  0  0  0  0  0  0  0
    9.7081  -16.6907   23.8735 C   0  0  0  0  0  0  0  0  0  0  0  0
   10.8456  -16.3077   23.5058 O   0  0  0  0  0  0  0  0  0  0  0  0
    8.3694  -12.8979   28.1028 C   0  0  0  0  0  0  0  0  0  0  0  0
    9.9360  -13.2810   28.9511 S   0  0  0  0  0  0  0  0  0  0  0  0
   10.6779  -14.7077   28.1344 C   0  0  0  0  0  0  0  0  0  0  0  0
    9.9084  -15.2685   27.0166 C   0  0  0  0  0  0  0  0  0  0  0  0
   10.4325  -16.4226   26.2461 C   0  0  2  0  0  0  0  0  0  0  0  0
    9.4120  -16.8084   25.2388 N   0  0  0  0  0  0  0  0  0  0  0  0
   10.9011  -17.5926   26.9635 C   0  0  0  0  0  0  0  0  0  0  0  0
   12.0077  -17.6211   27.5981 O   0  0  0  0  0  0  0  0  0  0  0  0
   10.1738  -18.7623   27.0151 O   0  0  0  0  0  0  0  0  0  0  0  0
  2  1  1  6
  2  3  1  0
  4  2  1  0
  4  5  1  6
  6  4  1  0
  6 11  1  0
  7  6  2  0
  8  9  1  0
 10 11  1  0
 10  9  1  6
 10 12  1  0
 12 19  1  0
 13 12  2  0
 15 14  1  0
 16 15  1  0
 17 16  1  0
 18 17  1  1
 19 18  1  0
 20 22  1  0
 20 18  1  0
 21 20  2  0
M  END
$$$$
