VSM.pdb
     RDKit          3D

 22 21  0  0  1  0  0  0  0  0999 V2000
    6.7040  -13.8378   19.5136 C   0  0  0  0  0  0  0  0  0  0  0  0
    7.9606  -13.0817   19.7952 C   0  0  2  0  0  0  0  0  0  0  0  0
    8.2231  -12.0215   18.7519 C   0  0  0  0  0  0  0  0  0  0  0  0
    9.1481  -13.9705   20.0444 C   0  0  2  0  0  0  0  0  0  0  0  0
    9.5690  -14.6000   18.8229 N   0  0  0  0  0  0  0  0  0  0  0  0
    8.9126  -14.9557   21.1350 C   0  0  0  0  0  0  0  0  0  0  0  0
    8.5392  -14.5464   22.2641 O   0  0  0  0  0  0  0  0  0  0  0  0
   10.6588  -18.6420   21.1600 O   0  0  0  0  0  0  0  0  0  0  0  0
    9.3586  -18.6675   21.6614 C   0  0  0  0  0  0  0  0  0  0  0  0
    8.9651  -17.2664   22.0725 C   0  0  2  0  0  0  0  0  0  0  0  0
    9.0902  -16.3475   20.9632 N   0  0  0  0  0  0  0  0  0  0  0  0
    9.8269  -16.8962   23.2269 C   0  0  0  0  0  0  0  0  0  0  0  0
   10.8640  -16.2415   22.9596 O   0  0  0  0  0  0  0  0  0  0  0  0
   10.2826  -13.1430   29.7802 C   0  0  0  0  0  0  0  0  0  0  0  0
    9.3035  -13.8336   28.4072 S   0  0  0  0  0  0  0  0  0  0  0  0
   10.3046  -15.0878   27.5841 C   0  0  0  0  0  0  0  0  0  0  0  0
    9.6858  -15.7249   26.4148 C   0  0  0  0  0  0  0  0  0  0  0  0
   10.4177  -16.7621   25.6474 C   0  0  2  0  0  0  0  0  0  0  0  0
    9.5333  -17.2393   24.5542 N   0  0  0  0  0  0  0  0  0  0  0  0
   10.9936  -17.8874   26.3583 C   0  0  0  0  0  0  0  0  0  0  0  0
   10.5042  -19.0647   26.3077 O   0  0  0  0  0  0  0  0  0  0  0  0
   12.1226  -17.7627   27.1388 O   0  0  0  0  0  0  0  0  0  0  0  0
  2  1  1  6
  2  3  1  0
  4  2  1  0
  4  5  1  6
  6  4  1  0
  6 11  1  0
  7  6  2  0
  8  9  1  0
 10 11  1  0
 10  9  1  6
 10 12  1  0
 12 19  1  0
 13 12  2  0
 15 14  1  0
 16 15  1  0
 17 16  1  0
 18 17  1  1
 19 18  1  0
 20 22  1  0
 20 18  1  0
 21 20  2  0
M  END
$$$$
