VSM.pdb
     RDKit          3D

 22 21  0  0  1  0  0  0  0  0999 V2000
   11.3595  -20.2590   22.2764 C   0  0  0  0  0  0  0  0  0  0  0  0
   10.8624  -18.9243   22.7256 C   0  0  2  0  0  0  0  0  0  0  0  0
    9.6201  -19.0456   23.5762 C   0  0  0  0  0  0  0  0  0  0  0  0
   10.7137  -17.9346   21.6028 C   0  0  2  0  0  0  0  0  0  0  0  0
   11.9420  -17.8245   20.8648 N   0  0  0  0  0  0  0  0  0  0  0  0
   10.2112  -16.6112   22.0630 C   0  0  0  0  0  0  0  0  0  0  0  0
   10.9495  -15.8878   22.7795 O   0  0  0  0  0  0  0  0  0  0  0  0
    6.3545  -15.3046   21.2584 O   0  0  0  0  0  0  0  0  0  0  0  0
    7.3373  -14.3184   21.3236 C   0  0  0  0  0  0  0  0  0  0  0  0
    8.4786  -14.8209   22.1790 C   0  0  2  0  0  0  0  0  0  0  0  0
    8.9282  -16.1199   21.7307 N   0  0  0  0  0  0  0  0  0  0  0  0
    7.9927  -14.8332   23.5847 C   0  0  0  0  0  0  0  0  0  0  0  0
    7.6131  -15.9427   24.0325 O   0  0  0  0  0  0  0  0  0  0  0  0
   10.6444  -15.2763   29.5915 C   0  0  0  0  0  0  0  0  0  0  0  0
   10.1489  -13.6095   29.0467 S   0  0  0  0  0  0  0  0  0  0  0  0
    8.6001  -13.7584   28.1346 C   0  0  0  0  0  0  0  0  0  0  0  0
    8.7238  -13.7528   26.6715 C   0  0  0  0  0  0  0  0  0  0  0  0
    7.5154  -13.8184   25.8137 C   0  0  2  0  0  0  0  0  0  0  0  0
    7.9452  -13.6921   24.3980 N   0  0  0  0  0  0  0  0  0  0  0  0
    6.4093  -12.9211   26.0872 C   0  0  0  0  0  0  0  0  0  0  0  0
    6.0939  -11.9530   25.3181 O   0  0  0  0  0  0  0  0  0  0  0  0
    5.6119  -13.0575   27.2031 O   0  0  0  0  0  0  0  0  0  0  0  0
  2  1  1  6
  2  3  1  0
  4  2  1  0
  4  5  1  1
  6  4  1  0
  6 11  1  0
  7  6  2  0
  8  9  1  0
 10 11  1  0
 10  9  1  6
 10 12  1  0
 12 19  1  0
 13 12  2  0
 15 14  1  0
 16 15  1  0
 17 16  1  0
 18 17  1  1
 19 18  1  0
 20 22  1  0
 20 18  1  0
 21 20  2  0
M  END
$$$$
