TSE.pdb
     RDKit          3D

 23 22  0  0  1  0  0  0  0  0999 V2000
   13.7445  -16.4824   14.7402 C   0  0  0  0  0  0  0  0  0  0  0  0
   13.4670  -16.2533   16.2131 C   0  0  1  0  0  0  0  0  0  0  0  0
   14.4461  -16.8620   16.9558 O   0  0  0  0  0  0  0  0  0  0  0  0
   13.3686  -14.7713   16.4475 C   0  0  2  0  0  0  0  0  0  0  0  0
   14.5926  -14.1483   15.9850 N   0  0  0  0  0  0  0  0  0  0  0  0
   13.0995  -14.4199   17.8440 C   0  0  0  0  0  0  0  0  0  0  0  0
   13.9523  -14.0424   18.6713 O   0  0  0  0  0  0  0  0  0  0  0  0
    9.3631  -15.4677   19.4073 O   0  0  0  0  0  0  0  0  0  0  0  0
    9.9151  -14.3100   19.9576 C   0  0  0  0  0  0  0  0  0  0  0  0
   11.4073  -14.2337   19.7012 C   0  0  2  0  0  0  0  0  0  0  0  0
   11.7473  -14.5065   18.3345 N   0  0  0  0  0  0  0  0  0  0  0  0
   12.0246  -15.3028   20.5304 C   0  0  0  0  0  0  0  0  0  0  0  0
   12.2259  -16.4424   20.0447 O   0  0  0  0  0  0  0  0  0  0  0  0
   12.4146  -15.1209   21.8737 N   0  0  0  0  0  0  0  0  0  0  0  0
   13.0702  -16.1643   22.6520 C   0  0  1  0  0  0  0  0  0  0  0  0
   14.4699  -15.8084   23.0155 C   0  0  0  0  0  0  0  0  0  0  0  0
   15.4322  -15.6680   21.8899 C   0  0  0  0  0  0  0  0  0  0  0  0
   16.7799  -15.2203   22.2854 C   0  0  0  0  0  0  0  0  0  0  0  0
   17.2394  -15.2311   23.4386 O   0  0  0  0  0  0  0  0  0  0  0  0
   12.2059  -16.4969   23.7947 C   0  0  0  0  0  0  0  0  0  0  0  0
   11.1753  -15.8298   24.0020 O   0  0  0  0  0  0  0  0  0  0  0  0
   17.6277  -14.7371   21.2785 O   0  0  0  0  0  0  0  0  0  0  0  0
   12.4714  -17.5413   24.6888 O   0  0  0  0  0  0  0  0  0  0  0  0
  2  1  1  6
  2  3  1  0
  4  2  1  0
  4  5  1  1
  6  4  1  0
  7  6  2  0
  9  8  1  0
 10  9  1  6
 10 11  1  0
 10 12  1  0
 11  6  1  0
 12 14  1  0
 13 12  2  0
 14 15  1  0
 15 16  1  1
 15 20  1  0
 16 17  1  0
 17 18  1  0
 18 22  1  0
 19 18  2  0
 20 23  1  0
 21 20  2  0
M  END
$$$$
