TSE.pdb
     RDKit          3D

 23 22  0  0  1  0  0  0  0  0999 V2000
    7.3128  -14.5727   16.9377 C   0  0  0  0  0  0  0  0  0  0  0  0
    8.0898  -14.7172   18.2316 C   0  0  1  0  0  0  0  0  0  0  0  0
    9.4112  -14.9412   17.9408 O   0  0  0  0  0  0  0  0  0  0  0  0
    7.8573  -13.4836   19.0593 C   0  0  2  0  0  0  0  0  0  0  0  0
    8.2489  -12.3251   18.2817 N   0  0  0  0  0  0  0  0  0  0  0  0
    8.5546  -13.5076   20.3475 C   0  0  0  0  0  0  0  0  0  0  0  0
    9.5758  -12.8501   20.6286 O   0  0  0  0  0  0  0  0  0  0  0  0
    6.8819  -15.9381   23.2516 O   0  0  0  0  0  0  0  0  0  0  0  0
    7.8397  -15.0503   23.7438 C   0  0  0  0  0  0  0  0  0  0  0  0
    8.7424  -14.5422   22.6370 C   0  0  2  0  0  0  0  0  0  0  0  0
    8.0437  -14.3501   21.3989 N   0  0  0  0  0  0  0  0  0  0  0  0
    9.7568  -15.6057   22.4097 C   0  0  0  0  0  0  0  0  0  0  0  0
    9.5680  -16.4818   21.5311 O   0  0  0  0  0  0  0  0  0  0  0  0
   10.9609  -15.7037   23.1379 N   0  0  0  0  0  0  0  0  0  0  0  0
   11.3191  -16.8850   23.9127 C   0  0  1  0  0  0  0  0  0  0  0  0
   10.4571  -17.0599   25.1146 C   0  0  0  0  0  0  0  0  0  0  0  0
   10.6343  -18.3233   25.8796 C   0  0  0  0  0  0  0  0  0  0  0  0
   11.0217  -18.1389   27.2899 C   0  0  0  0  0  0  0  0  0  0  0  0
   10.3630  -17.5337   28.1508 O   0  0  0  0  0  0  0  0  0  0  0  0
   11.3446  -18.0407   23.0033 C   0  0  0  0  0  0  0  0  0  0  0  0
   10.2997  -18.3922   22.4248 O   0  0  0  0  0  0  0  0  0  0  0  0
   12.2404  -18.6916   27.7087 O   0  0  0  0  0  0  0  0  0  0  0  0
   12.4958  -18.7921   22.7375 O   0  0  0  0  0  0  0  0  0  0  0  0
  2  1  1  6
  2  3  1  0
  4  2  1  0
  4  5  1  6
  6  4  1  0
  7  6  2  0
  9  8  1  0
 10  9  1  1
 10 11  1  0
 10 12  1  0
 11  6  1  0
 12 14  1  0
 13 12  2  0
 14 15  1  0
 15 16  1  1
 15 20  1  0
 16 17  1  0
 17 18  1  0
 18 22  1  0
 19 18  2  0
 20 23  1  0
 21 20  2  0
M  END
$$$$
