TSE.pdb
     RDKit          3D

 23 22  0  0  1  0  0  0  0  0999 V2000
   10.3430  -15.0314   17.7926 C   0  0  0  0  0  0  0  0  0  0  0  0
    9.7769  -13.6314   17.6561 C   0  0  1  0  0  0  0  0  0  0  0  0
    9.7939  -13.2658   16.3344 O   0  0  0  0  0  0  0  0  0  0  0  0
    8.4025  -13.6191   18.2656 C   0  0  2  0  0  0  0  0  0  0  0  0
    7.7640  -12.3597   17.9394 N   0  0  0  0  0  0  0  0  0  0  0  0
    8.4062  -13.8427   19.7134 C   0  0  0  0  0  0  0  0  0  0  0  0
    7.8501  -13.1142   20.5585 O   0  0  0  0  0  0  0  0  0  0  0  0
    7.0233  -16.7119   21.2989 O   0  0  0  0  0  0  0  0  0  0  0  0
    7.5787  -15.6688   22.0415 C   0  0  0  0  0  0  0  0  0  0  0  0
    9.0050  -15.3846   21.6138 C   0  0  2  0  0  0  0  0  0  0  0  0
    9.1009  -14.9913   20.2376 N   0  0  0  0  0  0  0  0  0  0  0  0
    9.7432  -16.6677   21.7575 C   0  0  0  0  0  0  0  0  0  0  0  0
    9.7644  -17.4938   20.8129 O   0  0  0  0  0  0  0  0  0  0  0  0
   10.4476  -17.0361   22.9227 N   0  0  0  0  0  0  0  0  0  0  0  0
   11.4841  -18.0608   22.9259 C   0  0  1  0  0  0  0  0  0  0  0  0
   12.3135  -18.0271   24.1625 C   0  0  0  0  0  0  0  0  0  0  0  0
   12.0143  -19.0602   25.1900 C   0  0  0  0  0  0  0  0  0  0  0  0
   12.6750  -18.8438   26.4900 C   0  0  0  0  0  0  0  0  0  0  0  0
   13.8857  -18.6305   26.6627 O   0  0  0  0  0  0  0  0  0  0  0  0
   10.8486  -19.3581   22.6493 C   0  0  0  0  0  0  0  0  0  0  0  0
    9.6085  -19.4581   22.6933 O   0  0  0  0  0  0  0  0  0  0  0  0
   11.8755  -18.8795   27.6413 O   0  0  0  0  0  0  0  0  0  0  0  0
   11.5640  -20.5190   22.3313 O   0  0  0  0  0  0  0  0  0  0  0  0
  2  1  1  6
  2  3  1  0
  4  2  1  0
  4  5  1  1
  6  4  1  0
  7  6  2  0
  9  8  1  0
 10  9  1  6
 10 11  1  0
 10 12  1  0
 11  6  1  0
 12 14  1  0
 13 12  2  0
 14 15  1  0
 15 16  1  1
 15 20  1  0
 16 17  1  0
 17 18  1  0
 18 22  1  0
 19 18  2  0
 20 23  1  0
 21 20  2  0
M  END
$$$$
