TSE.pdb
     RDKit          3D

 23 22  0  0  1  0  0  0  0  0999 V2000
    8.0687  -16.5632   18.6572 C   0  0  0  0  0  0  0  0  0  0  0  0
    8.4585  -15.2736   17.9616 C   0  0  1  0  0  0  0  0  0  0  0  0
    7.9437  -15.2740   16.6905 O   0  0  0  0  0  0  0  0  0  0  0  0
    7.9805  -14.1230   18.8033 C   0  0  2  0  0  0  0  0  0  0  0  0
    8.1347  -12.8991   18.0427 N   0  0  0  0  0  0  0  0  0  0  0  0
    8.6639  -14.0241   20.0953 C   0  0  0  0  0  0  0  0  0  0  0  0
    9.8379  -13.6401   20.2642 O   0  0  0  0  0  0  0  0  0  0  0  0
    6.5543  -15.3103   23.5133 O   0  0  0  0  0  0  0  0  0  0  0  0
    7.4902  -14.2919   23.7007 C   0  0  0  0  0  0  0  0  0  0  0  0
    8.5298  -14.2872   22.5974 C   0  0  2  0  0  0  0  0  0  0  0  0
    7.9483  -14.3934   21.2903 N   0  0  0  0  0  0  0  0  0  0  0  0
    9.3626  -15.5011   22.8087 C   0  0  0  0  0  0  0  0  0  0  0  0
    9.0652  -16.5788   22.2383 O   0  0  0  0  0  0  0  0  0  0  0  0
   10.5055  -15.5288   23.6350 N   0  0  0  0  0  0  0  0  0  0  0  0
   11.2654  -16.7466   23.8881 C   0  0  1  0  0  0  0  0  0  0  0  0
   12.7360  -16.5282   23.7998 C   0  0  0  0  0  0  0  0  0  0  0  0
   13.2914  -16.2955   22.4397 C   0  0  0  0  0  0  0  0  0  0  0  0
   14.7153  -15.9148   22.4139 C   0  0  0  0  0  0  0  0  0  0  0  0
   15.3814  -15.6631   21.3970 O   0  0  0  0  0  0  0  0  0  0  0  0
   10.8060  -17.3182   25.1631 C   0  0  0  0  0  0  0  0  0  0  0  0
   10.0635  -16.6495   25.9058 O   0  0  0  0  0  0  0  0  0  0  0  0
   15.3883  -15.8255   23.6407 O   0  0  0  0  0  0  0  0  0  0  0  0
   11.1572  -18.5980   25.6095 O   0  0  0  0  0  0  0  0  0  0  0  0
  2  1  1  1
  2  3  1  0
  4  2  1  0
  4  5  1  6
  6  4  1  0
  7  6  2  0
  9  8  1  0
 10  9  1  1
 10 11  1  0
 10 12  1  0
 11  6  1  0
 12 14  1  0
 13 12  2  0
 14 15  1  0
 15 16  1  1
 15 20  1  0
 16 17  1  0
 17 18  1  0
 18 22  1  0
 19 18  2  0
 20 23  1  0
 21 20  2  0
M  END
$$$$
