TSE.pdb
     RDKit          3D

 23 22  0  0  1  0  0  0  0  0999 V2000
    9.7032  -12.1995   19.3415 C   0  0  0  0  0  0  0  0  0  0  0  0
    8.6640  -13.2770   19.1009 C   0  0  1  0  0  0  0  0  0  0  0  0
    7.4887  -12.6895   18.7081 O   0  0  0  0  0  0  0  0  0  0  0  0
    9.2173  -14.2466   18.0937 C   0  0  2  0  0  0  0  0  0  0  0  0
    8.1621  -15.1605   17.7043 N   0  0  0  0  0  0  0  0  0  0  0  0
   10.3908  -14.9794   18.5754 C   0  0  0  0  0  0  0  0  0  0  0  0
   10.3624  -16.0510   19.2119 O   0  0  0  0  0  0  0  0  0  0  0  0
   14.7049  -13.5618   18.8569 O   0  0  0  0  0  0  0  0  0  0  0  0
   14.1404  -14.5361   18.0323 C   0  0  0  0  0  0  0  0  0  0  0  0
   12.9033  -15.1443   18.6628 C   0  0  2  0  0  0  0  0  0  0  0  0
   11.7021  -14.4449   18.3082 N   0  0  0  0  0  0  0  0  0  0  0  0
   13.0769  -15.0036   20.1332 C   0  0  0  0  0  0  0  0  0  0  0  0
   12.5539  -14.0386   20.7418 O   0  0  0  0  0  0  0  0  0  0  0  0
   13.8145  -15.9111   20.9219 N   0  0  0  0  0  0  0  0  0  0  0  0
   13.8568  -15.8367   22.3769 C   0  0  1  0  0  0  0  0  0  0  0  0
   12.7333  -16.5755   23.0172 C   0  0  0  0  0  0  0  0  0  0  0  0
   12.7482  -16.6473   24.5029 C   0  0  0  0  0  0  0  0  0  0  0  0
   11.7475  -17.5603   25.0844 C   0  0  0  0  0  0  0  0  0  0  0  0
   11.6220  -17.8273   26.2903 O   0  0  0  0  0  0  0  0  0  0  0  0
   15.1960  -16.2538   22.8196 C   0  0  0  0  0  0  0  0  0  0  0  0
   15.9045  -16.9486   22.0678 O   0  0  0  0  0  0  0  0  0  0  0  0
   10.8519  -18.1892   24.2078 O   0  0  0  0  0  0  0  0  0  0  0  0
   15.7420  -15.9128   24.0631 O   0  0  0  0  0  0  0  0  0  0  0  0
  2  1  1  6
  2  3  1  0
  4  2  1  0
  4  5  1  1
  6  4  1  0
  7  6  2  0
  9  8  1  0
 10  9  1  6
 10 11  1  0
 10 12  1  0
 11  6  1  0
 12 14  1  0
 13 12  2  0
 14 15  1  0
 15 16  1  1
 15 20  1  0
 16 17  1  0
 17 18  1  0
 18 22  1  0
 19 18  2  0
 20 23  1  0
 21 20  2  0
M  END
$$$$
