TSE.pdb
     RDKit          3D

 23 22  0  0  1  0  0  0  0  0999 V2000
    7.3527  -15.0809   17.4436 C   0  0  0  0  0  0  0  0  0  0  0  0
    8.0924  -15.1081   18.7669 C   0  0  1  0  0  0  0  0  0  0  0  0
    9.4246  -15.3352   18.5336 O   0  0  0  0  0  0  0  0  0  0  0  0
    7.8197  -13.8150   19.4840 C   0  0  2  0  0  0  0  0  0  0  0  0
    8.1886  -12.7171   18.6130 N   0  0  0  0  0  0  0  0  0  0  0  0
    8.5046  -13.7100   20.7747 C   0  0  0  0  0  0  0  0  0  0  0  0
    9.6195  -13.1839   20.9604 O   0  0  0  0  0  0  0  0  0  0  0  0
    6.7270  -15.6822   24.0452 O   0  0  0  0  0  0  0  0  0  0  0  0
    7.5569  -14.6044   24.3578 C   0  0  0  0  0  0  0  0  0  0  0  0
    8.5161  -14.2989   23.2243 C   0  0  2  0  0  0  0  0  0  0  0  0
    7.8641  -14.2492   21.9475 N   0  0  0  0  0  0  0  0  0  0  0  0
    9.4806  -15.4301   23.1825 C   0  0  0  0  0  0  0  0  0  0  0  0
    9.3283  -16.3602   22.3537 O   0  0  0  0  0  0  0  0  0  0  0  0
   10.5959  -15.5363   24.0396 N   0  0  0  0  0  0  0  0  0  0  0  0
   11.5558  -16.6296   23.9516 C   0  0  1  0  0  0  0  0  0  0  0  0
   12.9265  -16.1573   23.6109 C   0  0  0  0  0  0  0  0  0  0  0  0
   13.9986  -17.1883   23.5958 C   0  0  0  0  0  0  0  0  0  0  0  0
   15.3544  -16.6620   23.3551 C   0  0  0  0  0  0  0  0  0  0  0  0
   16.0167  -15.9722   24.1468 O   0  0  0  0  0  0  0  0  0  0  0  0
   11.4694  -17.4177   25.1906 C   0  0  0  0  0  0  0  0  0  0  0  0
   10.9444  -16.9180   26.2028 O   0  0  0  0  0  0  0  0  0  0  0  0
   15.9606  -16.9601   22.1265 O   0  0  0  0  0  0  0  0  0  0  0  0
   11.9508  -18.7270   25.3110 O   0  0  0  0  0  0  0  0  0  0  0  0
  2  1  1  6
  2  3  1  0
  4  2  1  0
  4  5  1  6
  6  4  1  0
  7  6  2  0
  9  8  1  0
 10  9  1  1
 10 11  1  0
 10 12  1  0
 11  6  1  0
 12 14  1  0
 13 12  2  0
 14 15  1  0
 15 16  1  1
 15 20  1  0
 16 17  1  0
 17 18  1  0
 18 22  1  0
 19 18  2  0
 20 23  1  0
 21 20  2  0
M  END
$$$$
