TSE.pdb
     RDKit          3D

 23 22  0  0  1  0  0  0  0  0999 V2000
    6.8532  -14.2771   17.7742 C   0  0  0  0  0  0  0  0  0  0  0  0
    7.6063  -14.6261   19.0431 C   0  0  1  0  0  0  0  0  0  0  0  0
    8.7455  -15.3158   18.7153 O   0  0  0  0  0  0  0  0  0  0  0  0
    7.8708  -13.3527   19.7976 C   0  0  2  0  0  0  0  0  0  0  0  0
    8.5529  -12.4266   18.9159 N   0  0  0  0  0  0  0  0  0  0  0  0
    8.6331  -13.5556   21.0320 C   0  0  0  0  0  0  0  0  0  0  0  0
    9.8668  -13.4197   21.1499 O   0  0  0  0  0  0  0  0  0  0  0  0
    6.5848  -15.2590   24.2812 O   0  0  0  0  0  0  0  0  0  0  0  0
    7.6584  -14.4335   24.6189 C   0  0  0  0  0  0  0  0  0  0  0  0
    8.6092  -14.2585   23.4512 C   0  0  2  0  0  0  0  0  0  0  0  0
    7.9293  -13.9446   22.2277 N   0  0  0  0  0  0  0  0  0  0  0  0
    9.2754  -15.5743   23.2597 C   0  0  0  0  0  0  0  0  0  0  0  0
    8.9158  -16.3352   22.3287 O   0  0  0  0  0  0  0  0  0  0  0  0
   10.3216  -16.0456   24.0801 N   0  0  0  0  0  0  0  0  0  0  0  0
   10.9237  -17.3621   23.9105 C   0  0  1  0  0  0  0  0  0  0  0  0
   12.1791  -17.3147   23.1106 C   0  0  0  0  0  0  0  0  0  0  0  0
   12.9503  -18.5828   23.0112 C   0  0  0  0  0  0  0  0  0  0  0  0
   14.1837  -18.4909   22.2090 C   0  0  0  0  0  0  0  0  0  0  0  0
   14.2582  -18.0969   21.0341 O   0  0  0  0  0  0  0  0  0  0  0  0
   11.0664  -17.9768   25.2392 C   0  0  0  0  0  0  0  0  0  0  0  0
   10.9206  -17.2785   26.2595 O   0  0  0  0  0  0  0  0  0  0  0  0
   15.3862  -18.8803   22.8158 O   0  0  0  0  0  0  0  0  0  0  0  0
   11.3631  -19.3305   25.4386 O   0  0  0  0  0  0  0  0  0  0  0  0
  2  1  1  6
  2  3  1  0
  4  2  1  0
  4  5  1  6
  6  4  1  0
  7  6  2  0
  9  8  1  0
 10  9  1  1
 10 11  1  0
 10 12  1  0
 11  6  1  0
 12 14  1  0
 13 12  2  0
 14 15  1  0
 15 16  1  1
 15 20  1  0
 16 17  1  0
 17 18  1  0
 18 22  1  0
 19 18  2  0
 20 23  1  0
 21 20  2  0
M  END
$$$$
