TSE.pdb
     RDKit          3D

 23 22  0  0  1  0  0  0  0  0999 V2000
    7.0809  -18.9095   17.3346 C   0  0  0  0  0  0  0  0  0  0  0  0
    8.0250  -18.5380   18.4614 C   0  0  1  0  0  0  0  0  0  0  0  0
    9.0276  -19.4707   18.5349 O   0  0  0  0  0  0  0  0  0  0  0  0
    8.5214  -17.1400   18.2164 C   0  0  2  0  0  0  0  0  0  0  0  0
    9.1568  -17.0969   16.9146 N   0  0  0  0  0  0  0  0  0  0  0  0
    9.4310  -16.6550   19.2574 C   0  0  0  0  0  0  0  0  0  0  0  0
   10.6758  -16.7000   19.2074 O   0  0  0  0  0  0  0  0  0  0  0  0
    7.7466  -15.4317   22.9582 O   0  0  0  0  0  0  0  0  0  0  0  0
    8.9283  -14.8076   22.5558 C   0  0  0  0  0  0  0  0  0  0  0  0
    9.6886  -15.6565   21.5561 C   0  0  2  0  0  0  0  0  0  0  0  0
    8.8734  -16.0714   20.4510 N   0  0  0  0  0  0  0  0  0  0  0  0
   10.1001  -16.8855   22.2855 C   0  0  0  0  0  0  0  0  0  0  0  0
    9.4007  -17.9253   22.2166 O   0  0  0  0  0  0  0  0  0  0  0  0
   11.2636  -16.9692   23.0786 N   0  0  0  0  0  0  0  0  0  0  0  0
   11.6372  -18.1767   23.8043 C   0  0  1  0  0  0  0  0  0  0  0  0
   12.8599  -18.8196   23.2477 C   0  0  0  0  0  0  0  0  0  0  0  0
   14.1510  -18.1307   23.5139 C   0  0  0  0  0  0  0  0  0  0  0  0
   15.3218  -18.7458   22.8626 C   0  0  0  0  0  0  0  0  0  0  0  0
   15.6051  -18.6696   21.6563 O   0  0  0  0  0  0  0  0  0  0  0  0
   11.7155  -17.8470   25.2356 C   0  0  0  0  0  0  0  0  0  0  0  0
   11.8039  -18.7626   26.0745 O   0  0  0  0  0  0  0  0  0  0  0  0
   16.2012  -19.4851   23.6664 O   0  0  0  0  0  0  0  0  0  0  0  0
   11.6968  -16.5375   25.7310 O   0  0  0  0  0  0  0  0  0  0  0  0
  2  1  1  6
  2  3  1  0
  4  2  1  0
  4  5  1  6
  6  4  1  0
  7  6  2  0
  9  8  1  0
 10  9  1  1
 10 11  1  0
 10 12  1  0
 11  6  1  0
 12 14  1  0
 13 12  2  0
 14 15  1  0
 15 16  1  6
 15 20  1  0
 16 17  1  0
 17 18  1  0
 18 22  1  0
 19 18  2  0
 20 23  1  0
 21 20  2  0
M  END
$$$$
