TSE.pdb
     RDKit          3D

 23 22  0  0  1  0  0  0  0  0999 V2000
   10.2229  -20.0867   20.1279 C   0  0  0  0  0  0  0  0  0  0  0  0
   10.5144  -19.5104   18.7561 C   0  0  1  0  0  0  0  0  0  0  0  0
   10.0661  -20.3821   17.7969 O   0  0  0  0  0  0  0  0  0  0  0  0
    9.8812  -18.1491   18.6743 C   0  0  2  0  0  0  0  0  0  0  0  0
    9.8796  -17.7229   17.2892 N   0  0  0  0  0  0  0  0  0  0  0  0
   10.5336  -17.1520   19.5264 C   0  0  0  0  0  0  0  0  0  0  0  0
   11.6666  -16.6682   19.3350 O   0  0  0  0  0  0  0  0  0  0  0  0
    8.6523  -16.2191   23.1727 O   0  0  0  0  0  0  0  0  0  0  0  0
    9.4401  -15.2064   22.6235 C   0  0  0  0  0  0  0  0  0  0  0  0
   10.4369  -15.7618   21.6254 C   0  0  2  0  0  0  0  0  0  0  0  0
    9.8354  -16.6685   20.6906 N   0  0  0  0  0  0  0  0  0  0  0  0
   11.4266  -16.5389   22.4181 C   0  0  0  0  0  0  0  0  0  0  0  0
   11.2747  -17.7738   22.5826 O   0  0  0  0  0  0  0  0  0  0  0  0
   12.5661  -15.9660   23.0205 N   0  0  0  0  0  0  0  0  0  0  0  0
   13.5302  -16.7475   23.7847 C   0  0  1  0  0  0  0  0  0  0  0  0
   14.8989  -16.1617   23.7421 C   0  0  0  0  0  0  0  0  0  0  0  0
   15.9914  -16.9860   24.3248 C   0  0  0  0  0  0  0  0  0  0  0  0
   17.3342  -16.3857   24.2256 C   0  0  0  0  0  0  0  0  0  0  0  0
   17.6985  -15.3283   24.7643 O   0  0  0  0  0  0  0  0  0  0  0  0
   12.9905  -16.9466   25.1384 C   0  0  0  0  0  0  0  0  0  0  0  0
   12.1731  -16.1299   25.6016 O   0  0  0  0  0  0  0  0  0  0  0  0
   18.2942  -17.0597   23.4574 O   0  0  0  0  0  0  0  0  0  0  0  0
   13.3440  -18.0217   25.9629 O   0  0  0  0  0  0  0  0  0  0  0  0
  2  1  1  1
  2  3  1  0
  4  2  1  0
  4  5  1  6
  6  4  1  0
  7  6  2  0
  9  8  1  0
 10  9  1  1
 10 11  1  0
 10 12  1  0
 11  6  1  0
 12 14  1  0
 13 12  2  0
 14 15  1  0
 15 16  1  1
 15 20  1  0
 16 17  1  0
 17 18  1  0
 18 22  1  0
 19 18  2  0
 20 23  1  0
 21 20  2  0
M  END
$$$$
