TSE.pdb
     RDKit          3D

 23 22  0  0  1  0  0  0  0  0999 V2000
   -3.4937  -27.2441   28.4394 C   0  0  0  0  0  0  0  0  0  0  0  0
   -2.0721  -26.9342   28.8662 C   0  0  1  0  0  0  0  0  0  0  0  0
   -1.3441  -28.0962   28.8848 O   0  0  0  0  0  0  0  0  0  0  0  0
   -1.5183  -25.8927   27.9337 C   0  0  2  0  0  0  0  0  0  0  0  0
   -0.1064  -25.7257   28.2141 N   0  0  0  0  0  0  0  0  0  0  0  0
   -2.2212  -24.6097   28.0114 C   0  0  0  0  0  0  0  0  0  0  0  0
   -2.2992  -23.8888   29.0255 O   0  0  0  0  0  0  0  0  0  0  0  0
   -2.9227  -21.7286   24.9410 O   0  0  0  0  0  0  0  0  0  0  0  0
   -4.0191  -22.4072   25.4752 C   0  0  0  0  0  0  0  0  0  0  0  0
   -3.7170  -22.9397   26.8620 C   0  0  2  0  0  0  0  0  0  0  0  0
   -2.8881  -24.1102   26.8357 N   0  0  0  0  0  0  0  0  0  0  0  0
   -5.0252  -23.3397   27.4455 C   0  0  0  0  0  0  0  0  0  0  0  0
   -5.5486  -24.4362   27.1312 O   0  0  0  0  0  0  0  0  0  0  0  0
   -5.7465  -22.5452   28.3611 N   0  0  0  0  0  0  0  0  0  0  0  0
   -6.9594  -23.0098   29.0224 C   0  0  1  0  0  0  0  0  0  0  0  0
   -6.7492  -24.2816   29.7683 C   0  0  0  0  0  0  0  0  0  0  0  0
   -7.9107  -24.7965   30.5419 C   0  0  0  0  0  0  0  0  0  0  0  0
   -7.6416  -26.0256   31.3101 C   0  0  0  0  0  0  0  0  0  0  0  0
   -8.3063  -26.4401   32.2732 O   0  0  0  0  0  0  0  0  0  0  0  0
   -7.4928  -21.9046   29.8333 C   0  0  0  0  0  0  0  0  0  0  0  0
   -6.7319  -20.9940   30.2096 O   0  0  0  0  0  0  0  0  0  0  0  0
   -6.5398  -26.8044   30.9287 O   0  0  0  0  0  0  0  0  0  0  0  0
   -8.8347  -21.8055   30.2207 O   0  0  0  0  0  0  0  0  0  0  0  0
  2  1  1  6
  2  3  1  0
  4  2  1  0
  4  5  1  1
  6  4  1  0
  7  6  2  0
  9  8  1  0
 10  9  1  6
 10 11  1  0
 10 12  1  0
 11  6  1  0
 12 14  1  0
 13 12  2  0
 14 15  1  0
 15 16  1  1
 15 20  1  0
 16 17  1  0
 17 18  1  0
 18 22  1  0
 19 18  2  0
 20 23  1  0
 21 20  2  0
M  END
$$$$
