TSE.pdb
     RDKit          3D

 23 22  0  0  1  0  0  0  0  0999 V2000
   -1.2901  -27.6544   26.0670 C   0  0  0  0  0  0  0  0  0  0  0  0
   -2.1724  -26.5970   26.7013 C   0  0  1  0  0  0  0  0  0  0  0  0
   -2.8083  -27.1353   27.7906 O   0  0  0  0  0  0  0  0  0  0  0  0
   -1.3149  -25.4072   27.0331 C   0  0  2  0  0  0  0  0  0  0  0  0
   -0.1937  -25.8551   27.8346 N   0  0  0  0  0  0  0  0  0  0  0  0
   -2.0461  -24.3345   27.7119 C   0  0  0  0  0  0  0  0  0  0  0  0
   -2.1961  -24.2304   28.9451 O   0  0  0  0  0  0  0  0  0  0  0  0
   -4.0748  -21.5695   25.2887 O   0  0  0  0  0  0  0  0  0  0  0  0
   -3.6428  -21.0841   26.5239 C   0  0  0  0  0  0  0  0  0  0  0  0
   -3.3893  -22.2132   27.5032 C   0  0  2  0  0  0  0  0  0  0  0  0
   -2.6544  -23.2972   26.9178 N   0  0  0  0  0  0  0  0  0  0  0  0
   -4.7273  -22.7415   27.8806 C   0  0  0  0  0  0  0  0  0  0  0  0
   -5.1083  -23.8592   27.4557 O   0  0  0  0  0  0  0  0  0  0  0  0
   -5.6324  -22.0504   28.7130 N   0  0  0  0  0  0  0  0  0  0  0  0
   -6.8508  -22.6607   29.2300 C   0  0  1  0  0  0  0  0  0  0  0  0
   -6.5840  -23.9255   29.9697 C   0  0  0  0  0  0  0  0  0  0  0  0
   -7.7367  -24.5271   30.6921 C   0  0  0  0  0  0  0  0  0  0  0  0
   -7.3948  -25.6824   31.5415 C   0  0  0  0  0  0  0  0  0  0  0  0
   -6.7597  -25.6375   32.6073 O   0  0  0  0  0  0  0  0  0  0  0  0
   -7.5836  -21.6436   29.9994 C   0  0  0  0  0  0  0  0  0  0  0  0
   -6.9629  -20.6943   30.5128 O   0  0  0  0  0  0  0  0  0  0  0  0
   -7.8192  -26.9503   31.1190 O   0  0  0  0  0  0  0  0  0  0  0  0
   -8.9692  -21.6721   30.1984 O   0  0  0  0  0  0  0  0  0  0  0  0
  2  1  1  1
  2  3  1  0
  4  2  1  0
  4  5  1  1
  6  4  1  0
  7  6  2  0
  9  8  1  0
 10  9  1  6
 10 11  1  0
 10 12  1  0
 11  6  1  0
 12 14  1  0
 13 12  2  0
 14 15  1  0
 15 16  1  1
 15 20  1  0
 16 17  1  0
 17 18  1  0
 18 22  1  0
 19 18  2  0
 20 23  1  0
 21 20  2  0
M  END
$$$$
