TSE.pdb
     RDKit          3D

 23 22  0  0  1  0  0  0  0  0999 V2000
    7.3301  -19.1456   18.2465 C   0  0  0  0  0  0  0  0  0  0  0  0
    8.0640  -18.3242   19.2885 C   0  0  1  0  0  0  0  0  0  0  0  0
    9.2822  -18.9014   19.5408 O   0  0  0  0  0  0  0  0  0  0  0  0
    8.1612  -16.9096   18.7884 C   0  0  2  0  0  0  0  0  0  0  0  0
    8.7207  -16.9297   17.4517 N   0  0  0  0  0  0  0  0  0  0  0  0
    8.9405  -16.0341   19.6672 C   0  0  0  0  0  0  0  0  0  0  0  0
   10.0737  -15.5800   19.4144 O   0  0  0  0  0  0  0  0  0  0  0  0
    7.4940  -15.3489   23.6345 O   0  0  0  0  0  0  0  0  0  0  0  0
    8.2685  -14.3602   23.0258 C   0  0  0  0  0  0  0  0  0  0  0  0
    9.1386  -14.9384   21.9272 C   0  0  2  0  0  0  0  0  0  0  0  0
    8.3797  -15.6461   20.9366 N   0  0  0  0  0  0  0  0  0  0  0  0
   10.0334  -15.9271   22.5857 C   0  0  0  0  0  0  0  0  0  0  0  0
    9.7828  -17.1546   22.5105 O   0  0  0  0  0  0  0  0  0  0  0  0
   11.1865  -15.5707   23.3157 N   0  0  0  0  0  0  0  0  0  0  0  0
   12.2135  -16.5359   23.6871 C   0  0  1  0  0  0  0  0  0  0  0  0
   13.5543  -16.1760   23.1477 C   0  0  0  0  0  0  0  0  0  0  0  0
   14.6831  -17.0668   23.5283 C   0  0  0  0  0  0  0  0  0  0  0  0
   16.0021  -16.6337   23.0325 C   0  0  0  0  0  0  0  0  0  0  0  0
   16.5666  -15.5635   23.3100 O   0  0  0  0  0  0  0  0  0  0  0  0
   12.1681  -16.7167   25.1461 C   0  0  0  0  0  0  0  0  0  0  0  0
   11.6086  -15.8602   25.8556 O   0  0  0  0  0  0  0  0  0  0  0  0
   16.6904  -17.4989   22.1700 O   0  0  0  0  0  0  0  0  0  0  0  0
   12.7269  -17.8167   25.8082 O   0  0  0  0  0  0  0  0  0  0  0  0
  2  1  1  6
  2  3  1  0
  4  2  1  0
  4  5  1  6
  6  4  1  0
  7  6  2  0
  9  8  1  0
 10  9  1  1
 10 11  1  0
 10 12  1  0
 11  6  1  0
 12 14  1  0
 13 12  2  0
 14 15  1  0
 15 16  1  1
 15 20  1  0
 16 17  1  0
 17 18  1  0
 18 22  1  0
 19 18  2  0
 20 23  1  0
 21 20  2  0
M  END
$$$$
