QFA.pdb
     RDKit          3D

 26 26  0  0  1  0  0  0  0  0999 V2000
    8.6447  -12.2862   18.4151 N   0  0  0  0  0  0  0  0  0  0  0  0
    8.5893  -13.5994   17.9071 C   0  0  0  0  0  0  0  0  0  0  0  0
    8.8636  -13.7754   16.6955 O   0  0  0  0  0  0  0  0  0  0  0  0
    8.2148  -14.6941   18.8120 C   0  0  0  0  0  0  0  0  0  0  0  0
    9.3832  -15.5247   19.2062 C   0  0  0  0  0  0  0  0  0  0  0  0
    9.2093  -16.3702   20.4210 C   0  0  2  0  0  0  0  0  0  0  0  0
    7.8707  -16.9771   20.3053 N   0  0  0  0  0  0  0  0  0  0  0  0
    9.2978  -15.6053   21.6935 C   0  0  0  0  0  0  0  0  0  0  0  0
   10.3343  -14.9318   21.9212 O   0  0  0  0  0  0  0  0  0  0  0  0
    8.2811  -15.5915   22.6646 N   0  0  0  0  0  0  0  0  0  0  0  0
    8.2929  -14.7623   23.8550 C   0  0  1  0  0  0  0  0  0  0  0  0
    6.9327  -14.1200   23.9618 C   0  0  0  0  0  0  0  0  0  0  0  0
    6.8415  -13.2405   25.1562 C   0  0  0  0  0  0  0  0  0  0  0  0
    6.0283  -13.5705   26.2244 C   0  0  0  0  0  0  0  0  0  0  0  0
    5.9258  -12.7714   27.3447 C   0  0  0  0  0  0  0  0  0  0  0  0
    6.6532  -11.6063   27.4096 C   0  0  0  0  0  0  0  0  0  0  0  0
    7.4669  -11.2443   26.3779 C   0  0  0  0  0  0  0  0  0  0  0  0
    7.5541  -12.0600   25.2653 C   0  0  0  0  0  0  0  0  0  0  0  0
    8.6438  -15.6065   24.9906 C   0  0  0  0  0  0  0  0  0  0  0  0
    8.7971  -15.1295   26.1506 O   0  0  0  0  0  0  0  0  0  0  0  0
    8.7469  -19.3050   25.8022 C   0  0  0  0  0  0  0  0  0  0  0  0
    9.1718  -17.8674   25.9947 C   0  0  2  0  0  0  0  0  0  0  0  0
    8.8417  -17.0241   24.8927 N   0  0  0  0  0  0  0  0  0  0  0  0
   10.6203  -17.8428   26.3236 C   0  0  0  0  0  0  0  0  0  0  0  0
   11.3842  -17.1514   25.6258 O   0  0  0  0  0  0  0  0  0  0  0  0
   11.1400  -18.5634   27.3783 O   0  0  0  0  0  0  0  0  0  0  0  0
  2  1  1  0
  3  2  2  0
  4  2  1  0
  5  4  1  0
  6  5  1  0
  6  7  1  6
  8  6  1  0
  8 10  1  0
  9  8  2  0
 11 10  1  0
 11 12  1  1
 12 13  1  0
 13 18  2  0
 13 14  1  0
 14 15  2  0
 15 16  1  0
 17 16  2  0
 18 17  1  0
 19 11  1  0
 20 19  2  0
 22 21  1  6
 22 24  1  0
 22 23  1  0
 23 19  1  0
 24 26  1  0
 25 24  2  0
M  END
$$$$
