QFA.pdb
     RDKit          3D

 26 26  0  0  1  0  0  0  0  0999 V2000
   10.1973  -21.1990   22.0808 N   0  0  0  0  0  0  0  0  0  0  0  0
   10.3742  -21.0445   20.6914 C   0  0  0  0  0  0  0  0  0  0  0  0
   10.3903  -22.0779   19.9801 O   0  0  0  0  0  0  0  0  0  0  0  0
   10.5313  -19.6909   20.1432 C   0  0  0  0  0  0  0  0  0  0  0  0
   10.4573  -18.6438   21.1960 C   0  0  0  0  0  0  0  0  0  0  0  0
    9.5706  -17.4815   20.9066 C   0  0  2  0  0  0  0  0  0  0  0  0
   10.0268  -16.9340   19.6159 N   0  0  0  0  0  0  0  0  0  0  0  0
    9.6298  -16.4177   21.9444 C   0  0  0  0  0  0  0  0  0  0  0  0
   10.7264  -15.8401   22.1538 O   0  0  0  0  0  0  0  0  0  0  0  0
    8.5215  -16.0172   22.7112 N   0  0  0  0  0  0  0  0  0  0  0  0
    8.5744  -15.0445   23.7863 C   0  0  1  0  0  0  0  0  0  0  0  0
    7.2226  -14.3790   23.8494 C   0  0  0  0  0  0  0  0  0  0  0  0
    7.1338  -13.4415   24.9990 C   0  0  0  0  0  0  0  0  0  0  0  0
    6.2733  -13.6853   26.0533 C   0  0  0  0  0  0  0  0  0  0  0  0
    6.1719  -12.8311   27.1322 C   0  0  0  0  0  0  0  0  0  0  0  0
    6.9488  -11.6971   27.1686 C   0  0  0  0  0  0  0  0  0  0  0  0
    7.8101  -11.4197   26.1494 C   0  0  0  0  0  0  0  0  0  0  0  0
    7.8953  -12.2895   25.0784 C   0  0  0  0  0  0  0  0  0  0  0  0
    8.9524  -15.7423   25.0092 C   0  0  0  0  0  0  0  0  0  0  0  0
    8.2492  -16.6786   25.4842 O   0  0  0  0  0  0  0  0  0  0  0  0
   12.0945  -16.2119   27.0229 C   0  0  0  0  0  0  0  0  0  0  0  0
   10.5895  -16.1896   26.8849 C   0  0  2  0  0  0  0  0  0  0  0  0
   10.1319  -15.4336   25.7653 N   0  0  0  0  0  0  0  0  0  0  0  0
   10.0041  -15.7265   28.1693 C   0  0  0  0  0  0  0  0  0  0  0  0
    9.2688  -14.7226   28.1681 O   0  0  0  0  0  0  0  0  0  0  0  0
   10.2527  -16.3770   29.3596 O   0  0  0  0  0  0  0  0  0  0  0  0
  2  1  1  0
  3  2  2  0
  4  2  1  0
  5  4  1  0
  6  5  1  0
  6  7  1  6
  8  6  1  0
  8 10  1  0
  9  8  2  0
 11 10  1  0
 11 12  1  1
 12 13  1  0
 13 18  2  0
 13 14  1  0
 14 15  2  0
 15 16  1  0
 17 16  2  0
 18 17  1  0
 19 11  1  0
 20 19  2  0
 22 21  1  1
 22 24  1  0
 22 23  1  0
 23 19  1  0
 24 26  1  0
 25 24  2  0
M  END
$$$$
