QFA.pdb
     RDKit          3D

 26 26  0  0  1  0  0  0  0  0999 V2000
   13.5317  -20.4669   21.0703 N   0  0  0  0  0  0  0  0  0  0  0  0
   12.7111  -19.5457   20.3895 C   0  0  0  0  0  0  0  0  0  0  0  0
   13.2554  -18.7558   19.5809 O   0  0  0  0  0  0  0  0  0  0  0  0
   11.2666  -19.5515   20.6559 C   0  0  0  0  0  0  0  0  0  0  0  0
   10.8826  -18.5707   21.7051 C   0  0  0  0  0  0  0  0  0  0  0  0
   10.1809  -17.3436   21.2332 C   0  0  2  0  0  0  0  0  0  0  0  0
   10.9946  -16.8110   20.1252 N   0  0  0  0  0  0  0  0  0  0  0  0
   10.0349  -16.3024   22.2853 C   0  0  0  0  0  0  0  0  0  0  0  0
   10.9958  -15.5203   22.4969 O   0  0  0  0  0  0  0  0  0  0  0  0
    8.8751  -16.1408   23.0634 N   0  0  0  0  0  0  0  0  0  0  0  0
    8.6829  -15.0880   24.0430 C   0  0  1  0  0  0  0  0  0  0  0  0
    7.2195  -14.7240   24.0217 C   0  0  0  0  0  0  0  0  0  0  0  0
    6.9072  -13.6775   25.0296 C   0  0  0  0  0  0  0  0  0  0  0  0
    7.3021  -12.3660   24.8417 C   0  0  0  0  0  0  0  0  0  0  0  0
    7.0248  -11.3757   25.7618 C   0  0  0  0  0  0  0  0  0  0  0  0
    6.3330  -11.6948   26.9065 C   0  0  0  0  0  0  0  0  0  0  0  0
    5.9255  -12.9759   27.1301 C   0  0  0  0  0  0  0  0  0  0  0  0
    6.2143  -13.9520   26.1948 C   0  0  0  0  0  0  0  0  0  0  0  0
    9.1560  -15.5779   25.3319 C   0  0  0  0  0  0  0  0  0  0  0  0
    9.1059  -16.8034   25.6360 O   0  0  0  0  0  0  0  0  0  0  0  0
   10.8339  -14.0975   28.4393 C   0  0  0  0  0  0  0  0  0  0  0  0
   10.3750  -15.2030   27.5165 C   0  0  2  0  0  0  0  0  0  0  0  0
    9.7089  -14.7289   26.3478 N   0  0  0  0  0  0  0  0  0  0  0  0
    9.5515  -16.1603   28.2990 C   0  0  0  0  0  0  0  0  0  0  0  0
   10.0633  -16.7352   29.2768 O   0  0  0  0  0  0  0  0  0  0  0  0
    8.2388  -16.4286   27.9722 O   0  0  0  0  0  0  0  0  0  0  0  0
  2  1  1  0
  3  2  2  0
  4  2  1  0
  5  4  1  0
  6  5  1  0
  6  7  1  6
  8  6  1  0
  8 10  1  0
  9  8  2  0
 11 10  1  0
 11 12  1  1
 12 13  1  0
 13 18  2  0
 13 14  1  0
 14 15  2  0
 15 16  1  0
 17 16  2  0
 18 17  1  0
 19 11  1  0
 20 19  2  0
 22 21  1  1
 22 24  1  0
 22 23  1  0
 23 19  1  0
 24 26  1  0
 25 24  2  0
M  END
$$$$
