QFA.pdb
     RDKit          3D

 26 26  0  0  1  0  0  0  0  0999 V2000
    8.9723  -12.0607   18.6107 N   0  0  0  0  0  0  0  0  0  0  0  0
    7.8997  -12.9111   18.2764 C   0  0  0  0  0  0  0  0  0  0  0  0
    7.4387  -12.8494   17.1111 O   0  0  0  0  0  0  0  0  0  0  0  0
    7.3734  -13.8238   19.2999 C   0  0  0  0  0  0  0  0  0  0  0  0
    8.1490  -13.7584   20.5665 C   0  0  0  0  0  0  0  0  0  0  0  0
    8.6195  -15.0606   21.1177 C   0  0  2  0  0  0  0  0  0  0  0  0
    7.5010  -16.0046   20.9404 N   0  0  0  0  0  0  0  0  0  0  0  0
    8.9897  -14.9963   22.5568 C   0  0  0  0  0  0  0  0  0  0  0  0
    9.9126  -14.2184   22.9077 O   0  0  0  0  0  0  0  0  0  0  0  0
    8.3624  -15.7613   23.5559 N   0  0  0  0  0  0  0  0  0  0  0  0
    8.6160  -15.6227   24.9776 C   0  0  1  0  0  0  0  0  0  0  0  0
    7.2890  -15.3508   25.6404 C   0  0  0  0  0  0  0  0  0  0  0  0
    7.1450  -13.9147   25.9947 C   0  0  0  0  0  0  0  0  0  0  0  0
    5.8971  -13.3401   26.1498 C   0  0  0  0  0  0  0  0  0  0  0  0
    5.7360  -12.0096   26.4784 C   0  0  0  0  0  0  0  0  0  0  0  0
    6.8481  -11.2214   26.6596 C   0  0  0  0  0  0  0  0  0  0  0  0
    8.0966  -11.7489   26.5162 C   0  0  0  0  0  0  0  0  0  0  0  0
    8.2344  -13.0843   26.1866 C   0  0  0  0  0  0  0  0  0  0  0  0
    9.2746  -16.8383   25.4399 C   0  0  0  0  0  0  0  0  0  0  0  0
    9.0991  -17.2857   26.6086 O   0  0  0  0  0  0  0  0  0  0  0  0
   11.3919  -19.6157   23.8948 C   0  0  0  0  0  0  0  0  0  0  0  0
   10.7468  -18.8540   25.0297 C   0  0  2  0  0  0  0  0  0  0  0  0
   10.1619  -17.6176   24.6252 N   0  0  0  0  0  0  0  0  0  0  0  0
   11.7463  -18.6889   26.1163 C   0  0  0  0  0  0  0  0  0  0  0  0
   12.0238  -17.5412   26.5093 O   0  0  0  0  0  0  0  0  0  0  0  0
   12.3733  -19.7697   26.6996 O   0  0  0  0  0  0  0  0  0  0  0  0
  2  1  1  0
  3  2  2  0
  4  2  1  0
  5  4  1  0
  6  5  1  0
  6  7  1  1
  8  6  1  0
  8 10  1  0
  9  8  2  0
 11 10  1  0
 11 12  1  1
 12 13  1  0
 13 18  2  0
 13 14  1  0
 14 15  2  0
 15 16  1  0
 17 16  2  0
 18 17  1  0
 19 11  1  0
 20 19  2  0
 22 21  1  6
 22 24  1  0
 22 23  1  0
 23 19  1  0
 24 26  1  0
 25 24  2  0
M  END
$$$$
