QFA.pdb
     RDKit          3D

 26 26  0  0  1  0  0  0  0  0999 V2000
   10.2691  -21.3899   20.7454 N   0  0  0  0  0  0  0  0  0  0  0  0
    9.3603  -20.9133   19.7798 C   0  0  0  0  0  0  0  0  0  0  0  0
    8.8696  -21.7393   18.9728 O   0  0  0  0  0  0  0  0  0  0  0  0
    9.0316  -19.4818   19.7615 C   0  0  0  0  0  0  0  0  0  0  0  0
    9.6367  -18.7495   20.9051 C   0  0  0  0  0  0  0  0  0  0  0  0
    9.2429  -17.3199   21.0531 C   0  0  2  0  0  0  0  0  0  0  0  0
    9.7686  -16.6283   19.8620 N   0  0  0  0  0  0  0  0  0  0  0  0
    9.7886  -16.6784   22.2792 C   0  0  0  0  0  0  0  0  0  0  0  0
   10.9355  -16.1665   22.2323 O   0  0  0  0  0  0  0  0  0  0  0  0
    9.0903  -16.6109   23.4977 N   0  0  0  0  0  0  0  0  0  0  0  0
    9.6481  -16.1041   24.7374 C   0  0  1  0  0  0  0  0  0  0  0  0
    8.5336  -15.4006   25.4703 C   0  0  0  0  0  0  0  0  0  0  0  0
    8.9865  -14.9033   26.7955 C   0  0  0  0  0  0  0  0  0  0  0  0
    8.9488  -15.7162   27.9132 C   0  0  0  0  0  0  0  0  0  0  0  0
    9.3633  -15.2790   29.1546 C   0  0  0  0  0  0  0  0  0  0  0  0
    9.8310  -13.9934   29.2941 C   0  0  0  0  0  0  0  0  0  0  0  0
    9.8846  -13.1597   28.2173 C   0  0  0  0  0  0  0  0  0  0  0  0
    9.4641  -13.6188   26.9831 C   0  0  0  0  0  0  0  0  0  0  0  0
   10.2243  -17.2273   25.4664 C   0  0  0  0  0  0  0  0  0  0  0  0
    9.5292  -18.2272   25.8039 O   0  0  0  0  0  0  0  0  0  0  0  0
   13.7162  -18.5052   26.1873 C   0  0  0  0  0  0  0  0  0  0  0  0
   12.2237  -18.4495   26.4190 C   0  0  2  0  0  0  0  0  0  0  0  0
   11.6033  -17.2948   25.8567 N   0  0  0  0  0  0  0  0  0  0  0  0
   11.9662  -18.5887   27.8755 C   0  0  0  0  0  0  0  0  0  0  0  0
   11.3091  -17.7065   28.4574 O   0  0  0  0  0  0  0  0  0  0  0  0
   12.4341  -19.6659   28.5982 O   0  0  0  0  0  0  0  0  0  0  0  0
  2  1  1  0
  3  2  2  0
  4  2  1  0
  5  4  1  0
  6  5  1  0
  6  7  1  6
  8  6  1  0
  8 10  1  0
  9  8  2  0
 11 10  1  0
 11 12  1  1
 12 13  1  0
 13 18  2  0
 13 14  1  0
 14 15  2  0
 15 16  1  0
 17 16  2  0
 18 17  1  0
 19 11  1  0
 20 19  2  0
 22 21  1  1
 22 24  1  0
 22 23  1  0
 23 19  1  0
 24 26  1  0
 25 24  2  0
M  END
$$$$
