QFA.pdb
     RDKit          3D

 26 26  0  0  1  0  0  0  0  0999 V2000
   13.8683  -20.7264   21.0701 N   0  0  0  0  0  0  0  0  0  0  0  0
   13.1691  -19.7359   20.3520 C   0  0  0  0  0  0  0  0  0  0  0  0
   12.7220  -20.0340   19.2183 O   0  0  0  0  0  0  0  0  0  0  0  0
   12.9973  -18.4092   20.9586 C   0  0  0  0  0  0  0  0  0  0  0  0
   11.7890  -18.3357   21.8216 C   0  0  0  0  0  0  0  0  0  0  0  0
   10.7456  -17.3543   21.4104 C   0  0  2  0  0  0  0  0  0  0  0  0
   11.2366  -16.7375   20.1645 N   0  0  0  0  0  0  0  0  0  0  0  0
   10.4970  -16.2938   22.4233 C   0  0  0  0  0  0  0  0  0  0  0  0
   11.4059  -15.4574   22.6561 O   0  0  0  0  0  0  0  0  0  0  0  0
    9.2945  -16.1715   23.1415 N   0  0  0  0  0  0  0  0  0  0  0  0
    9.0149  -15.1218   24.1031 C   0  0  1  0  0  0  0  0  0  0  0  0
    7.5424  -14.8113   24.0053 C   0  0  0  0  0  0  0  0  0  0  0  0
    7.1606  -13.7038   24.9199 C   0  0  0  0  0  0  0  0  0  0  0  0
    6.4075  -13.9433   26.0542 C   0  0  0  0  0  0  0  0  0  0  0  0
    6.0399  -12.9331   26.9194 C   0  0  0  0  0  0  0  0  0  0  0  0
    6.4314  -11.6422   26.6525 C   0  0  0  0  0  0  0  0  0  0  0  0
    7.1747  -11.3634   25.5447 C   0  0  0  0  0  0  0  0  0  0  0  0
    7.5316  -12.3910   24.6917 C   0  0  0  0  0  0  0  0  0  0  0  0
    9.4392  -15.5880   25.4176 C   0  0  0  0  0  0  0  0  0  0  0  0
    9.4663  -16.8172   25.7096 O   0  0  0  0  0  0  0  0  0  0  0  0
   10.7992  -14.0151   28.6331 C   0  0  0  0  0  0  0  0  0  0  0  0
   10.4485  -15.1469   27.6947 C   0  0  2  0  0  0  0  0  0  0  0  0
    9.8549  -14.7102   26.4735 N   0  0  0  0  0  0  0  0  0  0  0  0
    9.6029  -16.1237   28.4278 C   0  0  0  0  0  0  0  0  0  0  0  0
    8.4341  -16.3140   28.0455 O   0  0  0  0  0  0  0  0  0  0  0  0
   10.0766  -16.8235   29.5176 O   0  0  0  0  0  0  0  0  0  0  0  0
  2  1  1  0
  3  2  2  0
  4  2  1  0
  5  4  1  0
  6  5  1  0
  6  7  1  6
  8  6  1  0
  8 10  1  0
  9  8  2  0
 11 10  1  0
 11 12  1  1
 12 13  1  0
 13 18  2  0
 13 14  1  0
 14 15  2  0
 15 16  1  0
 17 16  2  0
 18 17  1  0
 19 11  1  0
 20 19  2  0
 22 21  1  1
 22 24  1  0
 22 23  1  0
 23 19  1  0
 24 26  1  0
 25 24  2  0
M  END
$$$$
