QFA.pdb
     RDKit          3D

 26 26  0  0  1  0  0  0  0  0999 V2000
   12.0772  -19.8708   20.0254 N   0  0  0  0  0  0  0  0  0  0  0  0
   11.2141  -19.9615   18.9153 C   0  0  0  0  0  0  0  0  0  0  0  0
   11.5797  -20.6596   17.9391 O   0  0  0  0  0  0  0  0  0  0  0  0
    9.9355  -19.2393   18.9508 C   0  0  0  0  0  0  0  0  0  0  0  0
    9.7255  -18.5272   20.2389 C   0  0  0  0  0  0  0  0  0  0  0  0
    8.9074  -17.2832   20.1770 C   0  0  2  0  0  0  0  0  0  0  0  0
    9.2946  -16.6041   18.9270 N   0  0  0  0  0  0  0  0  0  0  0  0
    9.1319  -16.3679   21.3277 C   0  0  0  0  0  0  0  0  0  0  0  0
   10.2832  -15.8967   21.5076 O   0  0  0  0  0  0  0  0  0  0  0  0
    8.1230  -15.9961   22.2336 N   0  0  0  0  0  0  0  0  0  0  0  0
    8.3240  -15.1222   23.3741 C   0  0  1  0  0  0  0  0  0  0  0  0
    7.0401  -14.3581   23.5792 C   0  0  0  0  0  0  0  0  0  0  0  0
    7.1122  -13.4920   24.7846 C   0  0  0  0  0  0  0  0  0  0  0  0
    6.4197  -13.8145   25.9370 C   0  0  0  0  0  0  0  0  0  0  0  0
    6.4698  -13.0276   27.0694 C   0  0  0  0  0  0  0  0  0  0  0  0
    7.2313  -11.8826   27.0606 C   0  0  0  0  0  0  0  0  0  0  0  0
    7.9293  -11.5287   25.9448 C   0  0  0  0  0  0  0  0  0  0  0  0
    7.8646  -12.3319   24.8216 C   0  0  0  0  0  0  0  0  0  0  0  0
    8.7150  -15.9459   24.5115 C   0  0  0  0  0  0  0  0  0  0  0  0
    7.9941  -16.9000   24.9199 O   0  0  0  0  0  0  0  0  0  0  0  0
   11.9318  -16.8268   26.1815 C   0  0  0  0  0  0  0  0  0  0  0  0
   10.4302  -16.6609   26.2278 C   0  0  2  0  0  0  0  0  0  0  0  0
    9.9281  -15.7497   25.2521 N   0  0  0  0  0  0  0  0  0  0  0  0
   10.0379  -16.2937   27.6128 C   0  0  0  0  0  0  0  0  0  0  0  0
    9.3876  -15.2489   27.7971 O   0  0  0  0  0  0  0  0  0  0  0  0
   10.3738  -17.0772   28.6969 O   0  0  0  0  0  0  0  0  0  0  0  0
  2  1  1  0
  3  2  2  0
  4  2  1  0
  5  4  1  0
  6  5  1  0
  6  7  1  6
  8  6  1  0
  8 10  1  0
  9  8  2  0
 11 10  1  0
 11 12  1  1
 12 13  1  0
 13 18  2  0
 13 14  1  0
 14 15  2  0
 15 16  1  0
 17 16  2  0
 18 17  1  0
 19 11  1  0
 20 19  2  0
 22 21  1  1
 22 24  1  0
 22 23  1  0
 23 19  1  0
 24 26  1  0
 25 24  2  0
M  END
$$$$
