QFA.pdb
     RDKit          3D

 26 26  0  0  1  0  0  0  0  0999 V2000
    8.9481  -18.0054   15.3996 N   0  0  0  0  0  0  0  0  0  0  0  0
    9.9369  -17.0042   15.4725 C   0  0  0  0  0  0  0  0  0  0  0  0
   10.0787  -16.2419   14.4862 O   0  0  0  0  0  0  0  0  0  0  0  0
   10.7513  -16.8999   16.6906 C   0  0  0  0  0  0  0  0  0  0  0  0
    9.9273  -16.9579   17.9267 C   0  0  0  0  0  0  0  0  0  0  0  0
   10.4542  -17.8111   19.0290 C   0  0  2  0  0  0  0  0  0  0  0  0
    9.5089  -18.9348   19.1602 N   0  0  0  0  0  0  0  0  0  0  0  0
   10.5609  -17.0993   20.3306 C   0  0  0  0  0  0  0  0  0  0  0  0
   11.5852  -16.4068   20.5569 O   0  0  0  0  0  0  0  0  0  0  0  0
    9.5746  -17.1563   21.3310 N   0  0  0  0  0  0  0  0  0  0  0  0
    9.6117  -16.3956   22.5658 C   0  0  1  0  0  0  0  0  0  0  0  0
    8.2493  -15.7742   22.7451 C   0  0  0  0  0  0  0  0  0  0  0  0
    7.9800  -14.7499   21.7026 C   0  0  0  0  0  0  0  0  0  0  0  0
    8.5975  -13.5136   21.7412 C   0  0  0  0  0  0  0  0  0  0  0  0
    8.3649  -12.5454   20.7859 C   0  0  0  0  0  0  0  0  0  0  0  0
    7.4912  -12.8103   19.7576 C   0  0  0  0  0  0  0  0  0  0  0  0
    6.8616  -14.0167   19.6827 C   0  0  0  0  0  0  0  0  0  0  0  0
    7.1097  -14.9719   20.6507 C   0  0  0  0  0  0  0  0  0  0  0  0
   10.0006  -17.2989   23.6418 C   0  0  0  0  0  0  0  0  0  0  0  0
    9.2609  -18.2569   24.0050 O   0  0  0  0  0  0  0  0  0  0  0  0
   13.1138  -18.0656   25.6789 C   0  0  0  0  0  0  0  0  0  0  0  0
   11.6227  -18.0475   25.4327 C   0  0  2  0  0  0  0  0  0  0  0  0
   11.2322  -17.1820   24.3683 N   0  0  0  0  0  0  0  0  0  0  0  0
   10.9364  -17.7313   26.7118 C   0  0  0  0  0  0  0  0  0  0  0  0
   10.1965  -16.7323   26.7668 O   0  0  0  0  0  0  0  0  0  0  0  0
   11.0966  -18.5127   27.8368 O   0  0  0  0  0  0  0  0  0  0  0  0
  2  1  1  0
  3  2  2  0
  4  2  1  0
  5  4  1  0
  6  5  1  0
  6  7  1  1
  8  6  1  0
  8 10  1  0
  9  8  2  0
 11 10  1  0
 11 12  1  1
 12 13  1  0
 13 18  2  0
 13 14  1  0
 14 15  2  0
 15 16  1  0
 17 16  2  0
 18 17  1  0
 19 11  1  0
 20 19  2  0
 22 21  1  1
 22 24  1  0
 22 23  1  0
 23 19  1  0
 24 26  1  0
 25 24  2  0
M  END
$$$$
