QFA.pdb
     RDKit          3D

 26 26  0  0  1  0  0  0  0  0999 V2000
   11.2046  -17.6247   19.2769 N   0  0  0  0  0  0  0  0  0  0  0  0
    9.9780  -18.2438   19.5893 C   0  0  0  0  0  0  0  0  0  0  0  0
    9.3858  -18.8727   18.6794 O   0  0  0  0  0  0  0  0  0  0  0  0
    9.4519  -18.1250   20.9556 C   0  0  0  0  0  0  0  0  0  0  0  0
    8.1709  -17.3719   21.0032 C   0  0  0  0  0  0  0  0  0  0  0  0
    8.2694  -15.9284   21.3599 C   0  0  2  0  0  0  0  0  0  0  0  0
    9.1428  -15.3170   20.3415 N   0  0  0  0  0  0  0  0  0  0  0  0
    8.8423  -15.6893   22.7116 C   0  0  0  0  0  0  0  0  0  0  0  0
   10.0159  -15.2480   22.7995 O   0  0  0  0  0  0  0  0  0  0  0  0
    8.1417  -15.9302   23.9065 N   0  0  0  0  0  0  0  0  0  0  0  0
    8.6509  -15.6323   25.2319 C   0  0  1  0  0  0  0  0  0  0  0  0
    7.4658  -15.2709   26.0916 C   0  0  0  0  0  0  0  0  0  0  0  0
    7.2733  -13.7988   26.1574 C   0  0  0  0  0  0  0  0  0  0  0  0
    8.3535  -12.9425   26.2640 C   0  0  0  0  0  0  0  0  0  0  0  0
    8.2021  -11.5723   26.3267 C   0  0  0  0  0  0  0  0  0  0  0  0
    6.9385  -11.0318   26.2823 C   0  0  0  0  0  0  0  0  0  0  0  0
    5.8468  -11.8410   26.1775 C   0  0  0  0  0  0  0  0  0  0  0  0
    6.0220  -13.2108   26.1162 C   0  0  0  0  0  0  0  0  0  0  0  0
    9.3954  -16.7942   25.7019 C   0  0  0  0  0  0  0  0  0  0  0  0
    9.7404  -16.9175   26.9113 O   0  0  0  0  0  0  0  0  0  0  0  0
   10.5775  -20.1267   24.2446 C   0  0  0  0  0  0  0  0  0  0  0  0
   10.4541  -19.0571   25.3054 C   0  0  2  0  0  0  0  0  0  0  0  0
    9.7938  -17.8777   24.8500 N   0  0  0  0  0  0  0  0  0  0  0  0
   11.8051  -18.7822   25.8586 C   0  0  0  0  0  0  0  0  0  0  0  0
   12.2252  -17.6108   25.8666 O   0  0  0  0  0  0  0  0  0  0  0  0
   12.6043  -19.7870   26.3621 O   0  0  0  0  0  0  0  0  0  0  0  0
  2  1  1  0
  3  2  2  0
  4  2  1  0
  5  4  1  0
  6  5  1  0
  6  7  1  6
  8  6  1  0
  8 10  1  0
  9  8  2  0
 11 10  1  0
 11 12  1  1
 12 13  1  0
 13 18  2  0
 13 14  1  0
 14 15  2  0
 15 16  1  0
 17 16  2  0
 18 17  1  0
 19 11  1  0
 20 19  2  0
 22 21  1  6
 22 24  1  0
 22 23  1  0
 23 19  1  0
 24 26  1  0
 25 24  2  0
M  END
$$$$
