QFA.pdb
     RDKit          3D

 26 26  0  0  1  0  0  0  0  0999 V2000
    8.9622  -13.7429   15.3359 N   0  0  0  0  0  0  0  0  0  0  0  0
    8.1601  -14.5208   16.1944 C   0  0  0  0  0  0  0  0  0  0  0  0
    7.9938  -15.7315   15.9105 O   0  0  0  0  0  0  0  0  0  0  0  0
    7.5591  -13.8835   17.3735 C   0  0  0  0  0  0  0  0  0  0  0  0
    8.5461  -13.6719   18.4649 C   0  0  0  0  0  0  0  0  0  0  0  0
    8.8009  -14.8383   19.3567 C   0  0  2  0  0  0  0  0  0  0  0  0
    7.6384  -15.7314   19.1995 N   0  0  0  0  0  0  0  0  0  0  0  0
    8.9505  -14.4679   20.7894 C   0  0  0  0  0  0  0  0  0  0  0  0
    9.9187  -13.7405   21.1261 O   0  0  0  0  0  0  0  0  0  0  0  0
    8.0647  -14.8875   21.7975 N   0  0  0  0  0  0  0  0  0  0  0  0
    8.1764  -14.5172   23.1958 C   0  0  1  0  0  0  0  0  0  0  0  0
    6.8556  -13.9130   23.6015 C   0  0  0  0  0  0  0  0  0  0  0  0
    6.9414  -13.2728   24.9399 C   0  0  0  0  0  0  0  0  0  0  0  0
    7.8833  -12.2958   25.2040 C   0  0  0  0  0  0  0  0  0  0  0  0
    7.9838  -11.6858   26.4376 C   0  0  0  0  0  0  0  0  0  0  0  0
    7.1227  -12.0557   27.4439 C   0  0  0  0  0  0  0  0  0  0  0  0
    6.1796  -13.0149   27.2249 C   0  0  0  0  0  0  0  0  0  0  0  0
    6.0969  -13.6127   25.9812 C   0  0  0  0  0  0  0  0  0  0  0  0
    8.5433  -15.7089   23.9511 C   0  0  0  0  0  0  0  0  0  0  0  0
    7.8045  -16.1681   24.8677 O   0  0  0  0  0  0  0  0  0  0  0  0
   11.1964  -18.4349   23.8176 C   0  0  0  0  0  0  0  0  0  0  0  0
   10.1640  -17.5706   24.5043 C   0  0  2  0  0  0  0  0  0  0  0  0
    9.7508  -16.4499   23.7247 N   0  0  0  0  0  0  0  0  0  0  0  0
   10.6863  -17.1810   25.8393 C   0  0  0  0  0  0  0  0  0  0  0  0
   10.7165  -15.9752   26.1452 O   0  0  0  0  0  0  0  0  0  0  0  0
   11.1374  -18.1167   26.7463 O   0  0  0  0  0  0  0  0  0  0  0  0
  2  1  1  0
  3  2  2  0
  4  2  1  0
  5  4  1  0
  6  5  1  0
  6  7  1  1
  8  6  1  0
  8 10  1  0
  9  8  2  0
 11 10  1  0
 11 12  1  1
 12 13  1  0
 13 18  2  0
 13 14  1  0
 14 15  2  0
 15 16  1  0
 17 16  2  0
 18 17  1  0
 19 11  1  0
 20 19  2  0
 22 21  1  6
 22 24  1  0
 22 23  1  0
 23 19  1  0
 24 26  1  0
 25 24  2  0
M  END
$$$$
