QFA.pdb
     RDKit          3D

 26 26  0  0  1  0  0  0  0  0999 V2000
   10.1210  -20.3104   22.6142 N   0  0  0  0  0  0  0  0  0  0  0  0
    9.1486  -21.0007   21.8634 C   0  0  0  0  0  0  0  0  0  0  0  0
    8.7507  -22.1107   22.2918 O   0  0  0  0  0  0  0  0  0  0  0  0
    8.6495  -20.3941   20.6222 C   0  0  0  0  0  0  0  0  0  0  0  0
    9.1436  -19.0046   20.4350 C   0  0  0  0  0  0  0  0  0  0  0  0
    8.1302  -17.9212   20.5776 C   0  0  2  0  0  0  0  0  0  0  0  0
    8.0633  -17.2524   19.2654 N   0  0  0  0  0  0  0  0  0  0  0  0
    8.4730  -16.9228   21.6254 C   0  0  0  0  0  0  0  0  0  0  0  0
    9.4884  -16.2005   21.4608 O   0  0  0  0  0  0  0  0  0  0  0  0
    7.7211  -16.7383   22.7990 N   0  0  0  0  0  0  0  0  0  0  0  0
    8.0456  -15.7824   23.8410 C   0  0  1  0  0  0  0  0  0  0  0  0
    6.7415  -15.2227   24.3513 C   0  0  0  0  0  0  0  0  0  0  0  0
    6.9684  -14.1251   25.3272 C   0  0  0  0  0  0  0  0  0  0  0  0
    6.8017  -12.8017   24.9634 C   0  0  0  0  0  0  0  0  0  0  0  0
    7.0059  -11.7642   25.8501 C   0  0  0  0  0  0  0  0  0  0  0  0
    7.3879  -12.0466   27.1405 C   0  0  0  0  0  0  0  0  0  0  0  0
    7.5631  -13.3379   27.5396 C   0  0  0  0  0  0  0  0  0  0  0  0
    7.3531  -14.3615   26.6346 C   0  0  0  0  0  0  0  0  0  0  0  0
    8.8361  -16.4697   24.8549 C   0  0  0  0  0  0  0  0  0  0  0  0
    8.3820  -17.4627   25.4910 O   0  0  0  0  0  0  0  0  0  0  0  0
   12.4874  -16.5009   25.9232 C   0  0  0  0  0  0  0  0  0  0  0  0
   11.0230  -16.8454   26.0693 C   0  0  2  0  0  0  0  0  0  0  0  0
   10.1718  -16.0869   25.2122 N   0  0  0  0  0  0  0  0  0  0  0  0
   10.6502  -16.7255   27.5023 C   0  0  0  0  0  0  0  0  0  0  0  0
   11.2447  -17.4283   28.3396 O   0  0  0  0  0  0  0  0  0  0  0  0
    9.6657  -15.8590   27.9288 O   0  0  0  0  0  0  0  0  0  0  0  0
  2  1  1  0
  3  2  2  0
  4  2  1  0
  5  4  1  0
  6  5  1  0
  6  7  1  6
  8  6  1  0
  8 10  1  0
  9  8  2  0
 11 10  1  0
 11 12  1  1
 12 13  1  0
 13 18  2  0
 13 14  1  0
 14 15  2  0
 15 16  1  0
 17 16  2  0
 18 17  1  0
 19 11  1  0
 20 19  2  0
 22 21  1  1
 22 24  1  0
 22 23  1  0
 23 19  1  0
 24 26  1  0
 25 24  2  0
M  END
$$$$
