HWN.pdb
     RDKit          3D

 33 35  0  0  1  0  0  0  0  0999 V2000
   28.8016  -20.9972  -17.0083 N   0  0  0  0  0  0  0  0  0  0  0  0
   28.2680  -20.1022  -16.0117 C   0  0  1  0  0  0  0  0  0  0  0  0
   27.6348  -18.8733  -16.5803 C   0  0  0  0  0  0  0  0  0  0  0  0
   28.6253  -18.0931  -17.3612 C   0  0  0  0  0  0  0  0  0  0  0  0
   29.7876  -17.5091  -16.8447 C   0  0  0  0  0  0  0  0  0  0  0  0
   30.4443  -16.8828  -17.8375 N   0  0  0  0  0  0  0  0  0  0  0  0
   29.7493  -17.0425  -18.9680 C   0  0  0  0  0  0  0  0  0  0  0  0
   28.6564  -17.7732  -18.6653 N   0  0  0  0  0  0  0  0  0  0  0  0
   27.4002  -20.8051  -15.0325 C   0  0  0  0  0  0  0  0  0  0  0  0
   26.4744  -21.5664  -15.4662 O   0  0  0  0  0  0  0  0  0  0  0  0
   27.5197  -20.6961  -13.6368 N   0  0  0  0  0  0  0  0  0  0  0  0
   26.7289  -21.5326  -12.6900 C   0  0  1  0  0  0  0  0  0  0  0  0
   27.4329  -21.5041  -11.3948 C   0  0  0  0  0  0  0  0  0  0  0  0
   26.7576  -21.0198  -10.2093 C   0  0  0  0  0  0  0  0  0  0  0  0
   25.4022  -20.7280  -10.0248 C   0  0  0  0  0  0  0  0  0  0  0  0
   25.1945  -20.2949   -8.7722 N   0  0  0  0  0  0  0  0  0  0  0  0
   26.3666  -20.2856   -8.1046 C   0  0  0  0  0  0  0  0  0  0  0  0
   26.6841  -19.9512   -6.8081 C   0  0  0  0  0  0  0  0  0  0  0  0
   27.9899  -20.0683   -6.3969 C   0  0  0  0  0  0  0  0  0  0  0  0
   28.9947  -20.5097   -7.2408 C   0  0  0  0  0  0  0  0  0  0  0  0
   28.6337  -20.8349   -8.5358 C   0  0  0  0  0  0  0  0  0  0  0  0
   27.3466  -20.7347   -8.9902 C   0  0  0  0  0  0  0  0  0  0  0  0
   25.3425  -21.0794  -12.6415 C   0  0  0  0  0  0  0  0  0  0  0  0
   25.1286  -19.8220  -12.6688 O   0  0  0  0  0  0  0  0  0  0  0  0
   20.2054  -20.7785  -13.5815 N   0  0  0  0  0  0  0  0  0  0  0  0
   20.5802  -22.1748  -13.5413 C   0  0  0  0  0  0  0  0  0  0  0  0
   19.7317  -23.0619  -13.8127 O   0  0  0  0  0  0  0  0  0  0  0  0
   21.9448  -22.5305  -13.1841 C   0  0  0  0  0  0  0  0  0  0  0  0
   22.8508  -21.3428  -12.8591 C   0  0  2  0  0  0  0  0  0  0  0  0
   24.1847  -21.8943  -12.5767 N   0  0  0  0  0  0  0  0  0  0  0  0
   22.3895  -20.6521  -11.6502 C   0  0  0  0  0  0  0  0  0  0  0  0
   22.5716  -21.0366  -10.4736 O   0  0  0  0  0  0  0  0  0  0  0  0
   21.6765  -19.4436  -11.7710 O   0  0  0  0  0  0  0  0  0  0  0  0
  2  1  1  6
  2  3  1  0
  3  4  1  0
  4  5  2  0
  4  8  1  0
  5  6  1  0
  6  7  1  0
  8  7  2  0
  9 10  2  0
  9  2  1  0
 11  9  1  0
 12 13  1  1
 12 11  1  0
 13 14  1  0
 14 15  2  0
 14 22  1  0
 15 16  1  0
 16 17  1  0
 17 18  2  0
 19 18  1  0
 20 19  2  0
 21 22  2  0
 21 20  1  0
 22 17  1  0
 23 12  1  0
 24 23  2  0
 25 26  1  0
 26 28  1  0
 27 26  2  0
 29 28  1  1
 29 30  1  0
 30 23  1  0
 31 33  1  0
 31 29  1  0
 32 31  2  0
M  END
$$$$
