HWN.pdb
     RDKit          3D

 33 35  0  0  1  0  0  0  0  0999 V2000
   28.5323  -21.1546  -15.5790 N   0  0  0  0  0  0  0  0  0  0  0  0
   27.7711  -20.1822  -14.8347 C   0  0  1  0  0  0  0  0  0  0  0  0
   27.0996  -19.1570  -15.6905 C   0  0  0  0  0  0  0  0  0  0  0  0
   28.1055  -18.2672  -16.3201 C   0  0  0  0  0  0  0  0  0  0  0  0
   29.4221  -18.0911  -15.8793 C   0  0  0  0  0  0  0  0  0  0  0  0
   30.0436  -17.2143  -16.6881 N   0  0  0  0  0  0  0  0  0  0  0  0
   29.1779  -16.8224  -17.6282 C   0  0  0  0  0  0  0  0  0  0  0  0
   28.0152  -17.4648  -17.3933 N   0  0  0  0  0  0  0  0  0  0  0  0
   26.8516  -20.8178  -13.8567 C   0  0  0  0  0  0  0  0  0  0  0  0
   26.3252  -21.9416  -14.1477 O   0  0  0  0  0  0  0  0  0  0  0  0
   26.5074  -20.2684  -12.6102 N   0  0  0  0  0  0  0  0  0  0  0  0
   25.5731  -20.9385  -11.6617 C   0  0  1  0  0  0  0  0  0  0  0  0
   25.8487  -20.3894  -10.3213 C   0  0  0  0  0  0  0  0  0  0  0  0
   27.1389  -20.5999   -9.6992 C   0  0  0  0  0  0  0  0  0  0  0  0
   28.2878  -21.1931  -10.2326 C   0  0  0  0  0  0  0  0  0  0  0  0
   29.2676  -21.1967   -9.3162 N   0  0  0  0  0  0  0  0  0  0  0  0
   28.8170  -20.6241   -8.1810 C   0  0  0  0  0  0  0  0  0  0  0  0
   29.4272  -20.3700   -6.9739 C   0  0  0  0  0  0  0  0  0  0  0  0
   28.7066  -19.7363   -5.9905 C   0  0  0  0  0  0  0  0  0  0  0  0
   27.3908  -19.3463   -6.1719 C   0  0  0  0  0  0  0  0  0  0  0  0
   26.8146  -19.6209   -7.3990 C   0  0  0  0  0  0  0  0  0  0  0  0
   27.4925  -20.2493   -8.4083 C   0  0  0  0  0  0  0  0  0  0  0  0
   24.1927  -20.7884  -12.1110 C   0  0  0  0  0  0  0  0  0  0  0  0
   23.8368  -19.6497  -12.5627 O   0  0  0  0  0  0  0  0  0  0  0  0
   19.3230  -23.1251  -14.4764 N   0  0  0  0  0  0  0  0  0  0  0  0
   19.7283  -22.7738  -13.1332 C   0  0  0  0  0  0  0  0  0  0  0  0
   18.8692  -22.4029  -12.2936 O   0  0  0  0  0  0  0  0  0  0  0  0
   21.1358  -22.8567  -12.7750 C   0  0  0  0  0  0  0  0  0  0  0  0
   21.8389  -21.5070  -12.6293 C   0  0  2  0  0  0  0  0  0  0  0  0
   23.1868  -21.7869  -12.1116 N   0  0  0  0  0  0  0  0  0  0  0  0
   21.1500  -20.6651  -11.6455 C   0  0  0  0  0  0  0  0  0  0  0  0
   21.2531  -20.7595  -10.4021 O   0  0  0  0  0  0  0  0  0  0  0  0
   20.2875  -19.6439  -12.0890 O   0  0  0  0  0  0  0  0  0  0  0  0
  2  1  1  6
  2  3  1  0
  3  4  1  0
  4  5  2  0
  4  8  1  0
  5  6  1  0
  6  7  1  0
  8  7  2  0
  9 10  2  0
  9  2  1  0
 11  9  1  0
 12 13  1  1
 12 11  1  0
 13 14  1  0
 14 15  2  0
 14 22  1  0
 15 16  1  0
 16 17  1  0
 17 18  2  0
 19 18  1  0
 20 19  2  0
 21 22  2  0
 21 20  1  0
 22 17  1  0
 23 12  1  0
 24 23  2  0
 25 26  1  0
 26 28  1  0
 27 26  2  0
 29 28  1  1
 29 30  1  0
 30 23  1  0
 31 33  1  0
 31 29  1  0
 32 31  2  0
M  END
$$$$
