HWN.pdb
     RDKit          3D

 33 35  0  0  1  0  0  0  0  0999 V2000
   25.4489  -21.0635  -18.8741 N   0  0  0  0  0  0  0  0  0  0  0  0
   24.2144  -20.4571  -18.4409 C   0  0  1  0  0  0  0  0  0  0  0  0
   23.1138  -20.5412  -19.4489 C   0  0  0  0  0  0  0  0  0  0  0  0
   23.4672  -19.7742  -20.6682 C   0  0  0  0  0  0  0  0  0  0  0  0
   23.1169  -18.4427  -20.9192 C   0  0  0  0  0  0  0  0  0  0  0  0
   23.6054  -18.0774  -22.1180 N   0  0  0  0  0  0  0  0  0  0  0  0
   24.2537  -19.1213  -22.6440 C   0  0  0  0  0  0  0  0  0  0  0  0
   24.1617  -20.1357  -21.7594 N   0  0  0  0  0  0  0  0  0  0  0  0
   23.8047  -20.9205  -17.0906 C   0  0  0  0  0  0  0  0  0  0  0  0
   23.8084  -22.1706  -16.8418 O   0  0  0  0  0  0  0  0  0  0  0  0
   23.4044  -20.0740  -16.0431 N   0  0  0  0  0  0  0  0  0  0  0  0
   22.9438  -20.5860  -14.7212 C   0  0  1  0  0  0  0  0  0  0  0  0
   23.5585  -19.7324  -13.6879 C   0  0  0  0  0  0  0  0  0  0  0  0
   24.5297  -20.2867  -12.7684 C   0  0  0  0  0  0  0  0  0  0  0  0
   25.8247  -20.7478  -13.0272 C   0  0  0  0  0  0  0  0  0  0  0  0
   26.3871  -21.1907  -11.8926 N   0  0  0  0  0  0  0  0  0  0  0  0
   25.5133  -21.0427  -10.8756 C   0  0  0  0  0  0  0  0  0  0  0  0
   25.6109  -21.3200   -9.5313 C   0  0  0  0  0  0  0  0  0  0  0  0
   24.5411  -21.0322   -8.7185 C   0  0  0  0  0  0  0  0  0  0  0  0
   23.3711  -20.4746   -9.2049 C   0  0  0  0  0  0  0  0  0  0  0  0
   23.3135  -20.2121  -10.5617 C   0  0  0  0  0  0  0  0  0  0  0  0
   24.3533  -20.4811  -11.4100 C   0  0  0  0  0  0  0  0  0  0  0  0
   21.4864  -20.6468  -14.6753 C   0  0  0  0  0  0  0  0  0  0  0  0
   20.8437  -20.2422  -15.7002 O   0  0  0  0  0  0  0  0  0  0  0  0
   16.8062  -22.5628  -14.5817 N   0  0  0  0  0  0  0  0  0  0  0  0
   17.9792  -23.1841  -15.1559 C   0  0  0  0  0  0  0  0  0  0  0  0
   17.8562  -24.1778  -15.9161 O   0  0  0  0  0  0  0  0  0  0  0  0
   19.2920  -22.6430  -14.8401 C   0  0  0  0  0  0  0  0  0  0  0  0
   19.2864  -21.5094  -13.8143 C   0  0  2  0  0  0  0  0  0  0  0  0
   20.6899  -21.1233  -13.6042 N   0  0  0  0  0  0  0  0  0  0  0  0
   18.7550  -21.9739  -12.5286 C   0  0  0  0  0  0  0  0  0  0  0  0
   19.3393  -22.7385  -11.7290 O   0  0  0  0  0  0  0  0  0  0  0  0
   17.4797  -21.5475  -12.1102 O   0  0  0  0  0  0  0  0  0  0  0  0
  2  1  1  6
  2  3  1  0
  3  4  1  0
  4  5  2  0
  4  8  1  0
  5  6  1  0
  6  7  1  0
  8  7  2  0
  9 10  2  0
  9  2  1  0
 11  9  1  0
 12 13  1  1
 12 11  1  0
 13 14  1  0
 14 15  2  0
 14 22  1  0
 15 16  1  0
 16 17  1  0
 17 18  2  0
 19 18  1  0
 20 19  2  0
 21 22  2  0
 21 20  1  0
 22 17  1  0
 23 12  1  0
 24 23  2  0
 25 26  1  0
 26 28  1  0
 27 26  2  0
 29 28  1  6
 29 30  1  0
 30 23  1  0
 31 33  1  0
 31 29  1  0
 32 31  2  0
M  END
$$$$
