HWN.pdb
     RDKit          3D

 33 35  0  0  1  0  0  0  0  0999 V2000
   27.9411  -21.5382  -15.3637 N   0  0  0  0  0  0  0  0  0  0  0  0
   27.8170  -20.4976  -14.3733 C   0  0  1  0  0  0  0  0  0  0  0  0
   27.2406  -19.2245  -14.9036 C   0  0  0  0  0  0  0  0  0  0  0  0
   28.1114  -18.6632  -15.9650 C   0  0  0  0  0  0  0  0  0  0  0  0
   29.2630  -17.8976  -15.7493 C   0  0  0  0  0  0  0  0  0  0  0  0
   29.7973  -17.5618  -16.9372 N   0  0  0  0  0  0  0  0  0  0  0  0
   29.0342  -18.0815  -17.9037 C   0  0  0  0  0  0  0  0  0  0  0  0
   28.0228  -18.7417  -17.3028 N   0  0  0  0  0  0  0  0  0  0  0  0
   27.1409  -20.9742  -13.1397 C   0  0  0  0  0  0  0  0  0  0  0  0
   26.0702  -21.6571  -13.2497 O   0  0  0  0  0  0  0  0  0  0  0  0
   27.5955  -20.7273  -11.8334 N   0  0  0  0  0  0  0  0  0  0  0  0
   26.8045  -21.0834  -10.6214 C   0  0  1  0  0  0  0  0  0  0  0  0
   27.6663  -20.8309   -9.4519 C   0  0  0  0  0  0  0  0  0  0  0  0
   27.0894  -20.7463   -8.1268 C   0  0  0  0  0  0  0  0  0  0  0  0
   25.8206  -21.1426   -7.6914 C   0  0  0  0  0  0  0  0  0  0  0  0
   25.6839  -20.8798   -6.3830 N   0  0  0  0  0  0  0  0  0  0  0  0
   26.8204  -20.3192   -5.9207 C   0  0  0  0  0  0  0  0  0  0  0  0
   27.1911  -19.8919   -4.6662 C   0  0  0  0  0  0  0  0  0  0  0  0
   28.4519  -19.3746   -4.4909 C   0  0  0  0  0  0  0  0  0  0  0  0
   29.3595  -19.2684   -5.5308 C   0  0  0  0  0  0  0  0  0  0  0  0
   28.9473  -19.7084   -6.7756 C   0  0  0  0  0  0  0  0  0  0  0  0
   27.7021  -20.2311   -6.9983 C   0  0  0  0  0  0  0  0  0  0  0  0
   25.5340  -20.3654  -10.6100 C   0  0  0  0  0  0  0  0  0  0  0  0
   25.5575  -19.1150  -10.8620 O   0  0  0  0  0  0  0  0  0  0  0  0
   20.8159  -19.1797  -12.1659 N   0  0  0  0  0  0  0  0  0  0  0  0
   21.8944  -19.6820  -12.9882 C   0  0  0  0  0  0  0  0  0  0  0  0
   21.8125  -19.6180  -14.2411 O   0  0  0  0  0  0  0  0  0  0  0  0
   23.0651  -20.2575  -12.3445 C   0  0  0  0  0  0  0  0  0  0  0  0
   23.0309  -20.2337  -10.8163 C   0  0  2  0  0  0  0  0  0  0  0  0
   24.2516  -20.9129  -10.3561 N   0  0  0  0  0  0  0  0  0  0  0  0
   21.8818  -20.9915  -10.3097 C   0  0  0  0  0  0  0  0  0  0  0  0
   20.7245  -20.5443  -10.1482 O   0  0  0  0  0  0  0  0  0  0  0  0
   22.0428  -22.3471   -9.9635 O   0  0  0  0  0  0  0  0  0  0  0  0
  2  1  1  6
  2  3  1  0
  3  4  1  0
  4  5  2  0
  4  8  1  0
  5  6  1  0
  6  7  1  0
  8  7  2  0
  9 10  2  0
  9  2  1  0
 11  9  1  0
 12 13  1  1
 12 11  1  0
 13 14  1  0
 14 15  2  0
 14 22  1  0
 15 16  1  0
 16 17  1  0
 17 18  2  0
 19 18  1  0
 20 19  2  0
 21 22  2  0
 21 20  1  0
 22 17  1  0
 23 12  1  0
 24 23  2  0
 25 26  1  0
 26 28  1  0
 27 26  2  0
 29 28  1  6
 29 30  1  0
 30 23  1  0
 31 33  1  0
 31 29  1  0
 32 31  2  0
M  END
$$$$
