HWN.pdb
     RDKit          3D

 33 35  0  0  1  0  0  0  0  0999 V2000
   28.1045  -21.3909  -15.4928 N   0  0  0  0  0  0  0  0  0  0  0  0
   27.9829  -20.3653  -14.4866 C   0  0  1  0  0  0  0  0  0  0  0  0
   27.4637  -19.0648  -15.0093 C   0  0  0  0  0  0  0  0  0  0  0  0
   28.3991  -18.4975  -16.0108 C   0  0  0  0  0  0  0  0  0  0  0  0
   28.1493  -18.3874  -17.3835 C   0  0  0  0  0  0  0  0  0  0  0  0
   29.2157  -17.8265  -17.9814 N   0  0  0  0  0  0  0  0  0  0  0  0
   30.1373  -17.5735  -17.0470 C   0  0  0  0  0  0  0  0  0  0  0  0
   29.6312  -17.9831  -15.8654 N   0  0  0  0  0  0  0  0  0  0  0  0
   27.2544  -20.8425  -13.2835 C   0  0  0  0  0  0  0  0  0  0  0  0
   26.1353  -21.4335  -13.4361 O   0  0  0  0  0  0  0  0  0  0  0  0
   27.7085  -20.6915  -11.9625 N   0  0  0  0  0  0  0  0  0  0  0  0
   26.8722  -21.0310  -10.7764 C   0  0  1  0  0  0  0  0  0  0  0  0
   27.6792  -20.7356   -9.5783 C   0  0  0  0  0  0  0  0  0  0  0  0
   27.0547  -20.6878   -8.2731 C   0  0  0  0  0  0  0  0  0  0  0  0
   25.7528  -21.0438   -7.9059 C   0  0  0  0  0  0  0  0  0  0  0  0
   25.5765  -20.8384   -6.5919 N   0  0  0  0  0  0  0  0  0  0  0  0
   26.7182  -20.3555   -6.0600 C   0  0  0  0  0  0  0  0  0  0  0  0
   27.0580  -20.0074   -4.7727 C   0  0  0  0  0  0  0  0  0  0  0  0
   28.3332  -19.5598   -4.5246 C   0  0  0  0  0  0  0  0  0  0  0  0
   29.2852  -19.4468   -5.5233 C   0  0  0  0  0  0  0  0  0  0  0  0
   28.9030  -19.8060   -6.8031 C   0  0  0  0  0  0  0  0  0  0  0  0
   27.6451  -20.2574   -7.0981 C   0  0  0  0  0  0  0  0  0  0  0  0
   25.5913  -20.3341  -10.8368 C   0  0  0  0  0  0  0  0  0  0  0  0
   25.6083  -19.0832  -11.0865 O   0  0  0  0  0  0  0  0  0  0  0  0
   21.6592  -18.2085  -13.3963 N   0  0  0  0  0  0  0  0  0  0  0  0
   21.6909  -19.5946  -12.9848 C   0  0  0  0  0  0  0  0  0  0  0  0
   20.6502  -20.2962  -13.0570 O   0  0  0  0  0  0  0  0  0  0  0  0
   22.9381  -20.1568  -12.4900 C   0  0  0  0  0  0  0  0  0  0  0  0
   23.0871  -20.1415  -10.9686 C   0  0  2  0  0  0  0  0  0  0  0  0
   24.3059  -20.9031  -10.6561 N   0  0  0  0  0  0  0  0  0  0  0  0
   21.9584  -20.8250  -10.3284 C   0  0  0  0  0  0  0  0  0  0  0  0
   20.9028  -20.2815   -9.9336 O   0  0  0  0  0  0  0  0  0  0  0  0
   22.0178  -22.2165  -10.1197 O   0  0  0  0  0  0  0  0  0  0  0  0
  2  1  1  6
  2  3  1  0
  3  4  1  0
  4  5  2  0
  4  8  1  0
  5  6  1  0
  6  7  1  0
  8  7  2  0
  9 10  2  0
  9  2  1  0
 11  9  1  0
 12 13  1  1
 12 11  1  0
 13 14  1  0
 14 15  2  0
 14 22  1  0
 15 16  1  0
 16 17  1  0
 17 18  2  0
 19 18  1  0
 20 19  2  0
 21 22  2  0
 21 20  1  0
 22 17  1  0
 23 12  1  0
 24 23  2  0
 25 26  1  0
 26 28  1  0
 27 26  2  0
 29 28  1  6
 29 30  1  0
 30 23  1  0
 31 33  1  0
 31 29  1  0
 32 31  2  0
M  END
$$$$
