HWN.pdb
     RDKit          3D

 33 35  0  0  1  0  0  0  0  0999 V2000
   28.5929  -20.8449  -15.2475 N   0  0  0  0  0  0  0  0  0  0  0  0
   27.3765  -20.1125  -14.9961 C   0  0  1  0  0  0  0  0  0  0  0  0
   26.7443  -19.5502  -16.2284 C   0  0  0  0  0  0  0  0  0  0  0  0
   27.6654  -18.5985  -16.8961 C   0  0  0  0  0  0  0  0  0  0  0  0
   28.6424  -17.8290  -16.2541 C   0  0  0  0  0  0  0  0  0  0  0  0
   29.2875  -17.0838  -17.1693 N   0  0  0  0  0  0  0  0  0  0  0  0
   28.7628  -17.3453  -18.3705 C   0  0  0  0  0  0  0  0  0  0  0  0
   27.7870  -18.2591  -18.1898 N   0  0  0  0  0  0  0  0  0  0  0  0
   26.4251  -20.8773  -14.1501 C   0  0  0  0  0  0  0  0  0  0  0  0
   26.5196  -22.1479  -14.1123 O   0  0  0  0  0  0  0  0  0  0  0  0
   25.4073  -20.3010  -13.3716 N   0  0  0  0  0  0  0  0  0  0  0  0
   24.5070  -21.1035  -12.4958 C   0  0  1  0  0  0  0  0  0  0  0  0
   24.3898  -20.3803  -11.2162 C   0  0  0  0  0  0  0  0  0  0  0  0
   25.5726  -19.8634  -10.5608 C   0  0  0  0  0  0  0  0  0  0  0  0
   26.1905  -18.6177  -10.7126 C   0  0  0  0  0  0  0  0  0  0  0  0
   27.2720  -18.5448   -9.9222 N   0  0  0  0  0  0  0  0  0  0  0  0
   27.4037  -19.7016   -9.2408 C   0  0  0  0  0  0  0  0  0  0  0  0
   28.3209  -20.1173   -8.3029 C   0  0  0  0  0  0  0  0  0  0  0  0
   28.1818  -21.3688   -7.7530 C   0  0  0  0  0  0  0  0  0  0  0  0
   27.1532  -22.2238   -8.1100 C   0  0  0  0  0  0  0  0  0  0  0  0
   26.2534  -21.7680   -9.0564 C   0  0  0  0  0  0  0  0  0  0  0  0
   26.3511  -20.5298   -9.6313 C   0  0  0  0  0  0  0  0  0  0  0  0
   23.2382  -21.3646  -13.1680 C   0  0  0  0  0  0  0  0  0  0  0  0
   22.8524  -20.5289  -14.0513 O   0  0  0  0  0  0  0  0  0  0  0  0
   18.6891  -23.3301  -14.8954 N   0  0  0  0  0  0  0  0  0  0  0  0
   19.3919  -24.3688  -14.1752 C   0  0  0  0  0  0  0  0  0  0  0  0
   18.9240  -25.5351  -14.1375 O   0  0  0  0  0  0  0  0  0  0  0  0
   20.6389  -24.0420  -13.5012 C   0  0  0  0  0  0  0  0  0  0  0  0
   21.1141  -22.6024  -13.6985 C   0  0  2  0  0  0  0  0  0  0  0  0
   22.3751  -22.4681  -12.9535 N   0  0  0  0  0  0  0  0  0  0  0  0
   20.1540  -21.6543  -13.1235 C   0  0  0  0  0  0  0  0  0  0  0  0
   20.3115  -21.0050  -12.0656 O   0  0  0  0  0  0  0  0  0  0  0  0
   18.9333  -21.4163  -13.7842 O   0  0  0  0  0  0  0  0  0  0  0  0
  2  1  1  6
  2  3  1  0
  3  4  1  0
  4  5  2  0
  4  8  1  0
  5  6  1  0
  6  7  1  0
  8  7  2  0
  9 10  2  0
  9  2  1  0
 11  9  1  0
 12 13  1  1
 12 11  1  0
 13 14  1  0
 14 15  2  0
 14 22  1  0
 15 16  1  0
 16 17  1  0
 17 18  2  0
 19 18  1  0
 20 19  2  0
 21 22  2  0
 21 20  1  0
 22 17  1  0
 23 12  1  0
 24 23  2  0
 25 26  1  0
 26 28  1  0
 27 26  2  0
 29 28  1  1
 29 30  1  0
 30 23  1  0
 31 33  1  0
 31 29  1  0
 32 31  2  0
M  END
$$$$
