HWN.pdb
     RDKit          3D

 33 35  0  0  1  0  0  0  0  0999 V2000
   25.5770  -35.7552  -13.3559 N   0  0  0  0  0  0  0  0  0  0  0  0
   25.0118  -36.2624  -12.1302 C   0  0  1  0  0  0  0  0  0  0  0  0
   25.4788  -37.6367  -11.7730 C   0  0  0  0  0  0  0  0  0  0  0  0
   24.7345  -38.6564  -12.5517 C   0  0  0  0  0  0  0  0  0  0  0  0
   25.3046  -39.5711  -13.4445 C   0  0  0  0  0  0  0  0  0  0  0  0
   24.3329  -40.3406  -13.9668 N   0  0  0  0  0  0  0  0  0  0  0  0
   23.1645  -39.9552  -13.4443 C   0  0  0  0  0  0  0  0  0  0  0  0
   23.4225  -38.9400  -12.5941 N   0  0  0  0  0  0  0  0  0  0  0  0
   25.1383  -35.2947  -11.0107 C   0  0  0  0  0  0  0  0  0  0  0  0
   26.0986  -34.4566  -11.0274 O   0  0  0  0  0  0  0  0  0  0  0  0
   24.2665  -35.2271   -9.9109 N   0  0  0  0  0  0  0  0  0  0  0  0
   24.4506  -34.2602   -8.7917 C   0  0  1  0  0  0  0  0  0  0  0  0
   23.1260  -33.6850   -8.4938 C   0  0  0  0  0  0  0  0  0  0  0  0
   22.4923  -32.7885   -9.4375 C   0  0  0  0  0  0  0  0  0  0  0  0
   21.5655  -33.0803  -10.4437 C   0  0  0  0  0  0  0  0  0  0  0  0
   21.2359  -31.9580  -11.1006 N   0  0  0  0  0  0  0  0  0  0  0  0
   21.9102  -30.9173  -10.5695 C   0  0  0  0  0  0  0  0  0  0  0  0
   21.9095  -29.5734  -10.8656 C   0  0  0  0  0  0  0  0  0  0  0  0
   22.6993  -28.7326  -10.1192 C   0  0  0  0  0  0  0  0  0  0  0  0
   23.4942  -29.1904   -9.0823 C   0  0  0  0  0  0  0  0  0  0  0  0
   23.4666  -30.5477   -8.8178 C   0  0  0  0  0  0  0  0  0  0  0  0
   22.6958  -31.4233   -9.5335 C   0  0  0  0  0  0  0  0  0  0  0  0
   25.1042  -34.9071   -7.6585 C   0  0  0  0  0  0  0  0  0  0  0  0
   25.5368  -36.0959   -7.8232 O   0  0  0  0  0  0  0  0  0  0  0  0
   27.8437  -36.2028   -3.4915 N   0  0  0  0  0  0  0  0  0  0  0  0
   28.2920  -36.0519   -4.8583 C   0  0  0  0  0  0  0  0  0  0  0  0
   29.4131  -36.5022   -5.2059 O   0  0  0  0  0  0  0  0  0  0  0  0
   27.4293  -35.3756   -5.8146 C   0  0  0  0  0  0  0  0  0  0  0  0
   26.0061  -35.1165   -5.3201 C   0  0  2  0  0  0  0  0  0  0  0  0
   25.3259  -34.3493   -6.3745 N   0  0  0  0  0  0  0  0  0  0  0  0
   26.0189  -34.2919   -4.1072 C   0  0  0  0  0  0  0  0  0  0  0  0
   26.0954  -33.0435   -4.0723 O   0  0  0  0  0  0  0  0  0  0  0  0
   25.9369  -34.9122   -2.8455 O   0  0  0  0  0  0  0  0  0  0  0  0
  2  1  1  6
  2  3  1  0
  3  4  1  0
  4  5  2  0
  4  8  1  0
  5  6  1  0
  6  7  1  0
  8  7  2  0
  9 10  2  0
  9  2  1  0
 11  9  1  0
 12 13  1  1
 12 11  1  0
 13 14  1  0
 14 15  2  0
 14 22  1  0
 15 16  1  0
 16 17  1  0
 17 18  2  0
 19 18  1  0
 20 19  2  0
 21 22  2  0
 21 20  1  0
 22 17  1  0
 23 12  1  0
 24 23  2  0
 25 26  1  0
 26 28  1  0
 27 26  2  0
 29 28  1  6
 29 30  1  0
 30 23  1  0
 31 33  1  0
 31 29  1  0
 32 31  2  0
M  END
$$$$
