HWN.pdb
     RDKit          3D

 33 35  0  0  1  0  0  0  0  0999 V2000
   28.2596  -20.4808  -16.0612 N   0  0  0  0  0  0  0  0  0  0  0  0
   27.2394  -19.6650  -15.4507 C   0  0  1  0  0  0  0  0  0  0  0  0
   26.3259  -19.0049  -16.4326 C   0  0  0  0  0  0  0  0  0  0  0  0
   27.0962  -18.1344  -17.3539 C   0  0  0  0  0  0  0  0  0  0  0  0
   27.5238  -18.4896  -18.6384 C   0  0  0  0  0  0  0  0  0  0  0  0
   28.1914  -17.4560  -19.1816 N   0  0  0  0  0  0  0  0  0  0  0  0
   28.2082  -16.4543  -18.2968 C   0  0  0  0  0  0  0  0  0  0  0  0
   27.5449  -16.8778  -17.2012 N   0  0  0  0  0  0  0  0  0  0  0  0
   26.5142  -20.3855  -14.3732 C   0  0  0  0  0  0  0  0  0  0  0  0
   26.2685  -21.6275  -14.5211 O   0  0  0  0  0  0  0  0  0  0  0  0
   26.0673  -19.7960  -13.1788 N   0  0  0  0  0  0  0  0  0  0  0  0
   25.3847  -20.5683  -12.1022 C   0  0  1  0  0  0  0  0  0  0  0  0
   25.8091  -19.9863  -10.8156 C   0  0  0  0  0  0  0  0  0  0  0  0
   27.0218  -20.4467  -10.1726 C   0  0  0  0  0  0  0  0  0  0  0  0
   28.0869  -21.1717  -10.7171 C   0  0  0  0  0  0  0  0  0  0  0  0
   29.0124  -21.4019   -9.7735 N   0  0  0  0  0  0  0  0  0  0  0  0
   28.6064  -20.8548   -8.6093 C   0  0  0  0  0  0  0  0  0  0  0  0
   29.1944  -20.7952   -7.3665 C   0  0  0  0  0  0  0  0  0  0  0  0
   28.5383  -20.1332   -6.3569 C   0  0  0  0  0  0  0  0  0  0  0  0
   27.3086  -19.5263   -6.5467 C   0  0  0  0  0  0  0  0  0  0  0  0
   26.7519  -19.6099   -7.8101 C   0  0  0  0  0  0  0  0  0  0  0  0
   27.3679  -20.2579   -8.8464 C   0  0  0  0  0  0  0  0  0  0  0  0
   23.9416  -20.5833  -12.3191 C   0  0  0  0  0  0  0  0  0  0  0  0
   23.3927  -19.5073  -12.7295 O   0  0  0  0  0  0  0  0  0  0  0  0
   19.1704  -23.0862  -14.3312 N   0  0  0  0  0  0  0  0  0  0  0  0
   19.7074  -23.0841  -12.9883 C   0  0  0  0  0  0  0  0  0  0  0  0
   18.9345  -23.1822  -12.0017 O   0  0  0  0  0  0  0  0  0  0  0  0
   21.1454  -22.9673  -12.8022 C   0  0  0  0  0  0  0  0  0  0  0  0
   21.6295  -21.5673  -12.4241 C   0  0  2  0  0  0  0  0  0  0  0  0
   23.0662  -21.6821  -12.1316 N   0  0  0  0  0  0  0  0  0  0  0  0
   20.9628  -21.0980  -11.2049 C   0  0  0  0  0  0  0  0  0  0  0  0
   21.3152  -21.3570  -10.0326 O   0  0  0  0  0  0  0  0  0  0  0  0
   19.8227  -20.2779  -11.3093 O   0  0  0  0  0  0  0  0  0  0  0  0
  2  1  1  6
  2  3  1  0
  3  4  1  0
  4  5  2  0
  4  8  1  0
  5  6  1  0
  6  7  1  0
  8  7  2  0
  9 10  2  0
  9  2  1  0
 11  9  1  0
 12 13  1  1
 12 11  1  0
 13 14  1  0
 14 15  2  0
 14 22  1  0
 15 16  1  0
 16 17  1  0
 17 18  2  0
 19 18  1  0
 20 19  2  0
 21 22  2  0
 21 20  1  0
 22 17  1  0
 23 12  1  0
 24 23  2  0
 25 26  1  0
 26 28  1  0
 27 26  2  0
 29 28  1  1
 29 30  1  0
 30 23  1  0
 31 33  1  0
 31 29  1  0
 32 31  2  0
M  END
$$$$
