HWN.pdb
     RDKit          3D

 33 35  0  0  1  0  0  0  0  0999 V2000
   16.0779  -20.9720   -0.2235 N   0  0  0  0  0  0  0  0  0  0  0  0
   15.5290  -20.8701    1.1059 C   0  0  1  0  0  0  0  0  0  0  0  0
   14.6900  -22.0413    1.5045 C   0  0  0  0  0  0  0  0  0  0  0  0
   13.6362  -22.2933    0.4916 C   0  0  0  0  0  0  0  0  0  0  0  0
   12.4831  -21.5210    0.3109 C   0  0  0  0  0  0  0  0  0  0  0  0
   11.7576  -22.0418   -0.6949 N   0  0  0  0  0  0  0  0  0  0  0  0
   12.3998  -23.1159   -1.1647 C   0  0  0  0  0  0  0  0  0  0  0  0
   13.5292  -23.2547   -0.4401 N   0  0  0  0  0  0  0  0  0  0  0  0
   16.5620  -20.5229    2.1150 C   0  0  0  0  0  0  0  0  0  0  0  0
   17.6995  -21.0948    2.0528 O   0  0  0  0  0  0  0  0  0  0  0  0
   16.3827  -19.5955    3.1551 N   0  0  0  0  0  0  0  0  0  0  0  0
   17.4789  -19.2024    4.0854 C   0  0  1  0  0  0  0  0  0  0  0  0
   17.2240  -17.8077    4.4906 C   0  0  0  0  0  0  0  0  0  0  0  0
   17.6440  -16.7139    3.6403 C   0  0  0  0  0  0  0  0  0  0  0  0
   17.0965  -15.4325    3.5185 C   0  0  0  0  0  0  0  0  0  0  0  0
   17.7840  -14.7266    2.6080 N   0  0  0  0  0  0  0  0  0  0  0  0
   18.7788  -15.4905    2.1116 C   0  0  0  0  0  0  0  0  0  0  0  0
   19.7616  -15.2318    1.1837 C   0  0  0  0  0  0  0  0  0  0  0  0
   20.6708  -16.2199    0.8922 C   0  0  0  0  0  0  0  0  0  0  0  0
   20.6315  -17.4640    1.4983 C   0  0  0  0  0  0  0  0  0  0  0  0
   19.6278  -17.6835    2.4242 C   0  0  0  0  0  0  0  0  0  0  0  0
   18.7005  -16.7300    2.7471 C   0  0  0  0  0  0  0  0  0  0  0  0
   17.5776  -20.1508    5.1901 C   0  0  0  0  0  0  0  0  0  0  0  0
   16.5165  -20.7674    5.5387 O   0  0  0  0  0  0  0  0  0  0  0  0
   21.2641  -23.3841    8.6945 N   0  0  0  0  0  0  0  0  0  0  0  0
   20.0687  -23.3813    7.8803 C   0  0  0  0  0  0  0  0  0  0  0  0
   19.1786  -24.2492    8.0669 O   0  0  0  0  0  0  0  0  0  0  0  0
   19.9170  -22.3648    6.8508 C   0  0  0  0  0  0  0  0  0  0  0  0
   18.6994  -21.4565    7.0237 C   0  0  2  0  0  0  0  0  0  0  0  0
   18.7435  -20.4780    5.9266 N   0  0  0  0  0  0  0  0  0  0  0  0
   18.7793  -20.7141    8.2861 C   0  0  0  0  0  0  0  0  0  0  0  0
   19.1713  -19.5330    8.4164 O   0  0  0  0  0  0  0  0  0  0  0  0
   18.3888  -21.3405    9.4854 O   0  0  0  0  0  0  0  0  0  0  0  0
  2  1  1  6
  2  3  1  0
  3  4  1  0
  4  5  2  0
  4  8  1  0
  5  6  1  0
  6  7  1  0
  8  7  2  0
  9 10  2  0
  9  2  1  0
 11  9  1  0
 12 13  1  1
 12 11  1  0
 13 14  1  0
 14 15  2  0
 14 22  1  0
 15 16  1  0
 16 17  1  0
 17 18  2  0
 19 18  1  0
 20 19  2  0
 21 22  2  0
 21 20  1  0
 22 17  1  0
 23 12  1  0
 24 23  2  0
 25 26  1  0
 26 28  1  0
 27 26  2  0
 29 28  1  6
 29 30  1  0
 30 23  1  0
 31 33  1  0
 31 29  1  0
 32 31  2  0
M  END
$$$$
