HWN.pdb
     RDKit          3D

 33 35  0  0  1  0  0  0  0  0999 V2000
   28.1843  -21.0095  -15.1849 N   0  0  0  0  0  0  0  0  0  0  0  0
   27.3016  -20.1674  -14.4163 C   0  0  1  0  0  0  0  0  0  0  0  0
   26.3721  -19.3461  -15.2505 C   0  0  0  0  0  0  0  0  0  0  0  0
   27.1346  -18.3832  -16.0819 C   0  0  0  0  0  0  0  0  0  0  0  0
   27.8775  -17.3015  -15.5954 C   0  0  0  0  0  0  0  0  0  0  0  0
   28.4338  -16.6481  -16.6312 N   0  0  0  0  0  0  0  0  0  0  0  0
   28.0767  -17.2679  -17.7603 C   0  0  0  0  0  0  0  0  0  0  0  0
   27.2944  -18.3107  -17.4135 N   0  0  0  0  0  0  0  0  0  0  0  0
   26.6084  -20.9170  -13.3376 C   0  0  0  0  0  0  0  0  0  0  0  0
   26.2535  -22.1217  -13.5557 O   0  0  0  0  0  0  0  0  0  0  0  0
   26.3054  -20.3941  -12.0692 N   0  0  0  0  0  0  0  0  0  0  0  0
   25.6037  -21.1822  -11.0166 C   0  0  1  0  0  0  0  0  0  0  0  0
   25.9814  -20.6002   -9.7156 C   0  0  0  0  0  0  0  0  0  0  0  0
   27.3086  -20.8160   -9.1789 C   0  0  0  0  0  0  0  0  0  0  0  0
   28.4362  -21.3541   -9.8076 C   0  0  0  0  0  0  0  0  0  0  0  0
   29.4664  -21.3861   -8.9488 N   0  0  0  0  0  0  0  0  0  0  0  0
   29.0703  -20.8861   -7.7602 C   0  0  0  0  0  0  0  0  0  0  0  0
   29.7433  -20.6847   -6.5768 C   0  0  0  0  0  0  0  0  0  0  0  0
   29.0680  -20.1213   -5.5211 C   0  0  0  0  0  0  0  0  0  0  0  0
   27.7369  -19.7508   -5.6070 C   0  0  0  0  0  0  0  0  0  0  0  0
   27.0972  -19.9709   -6.8134 C   0  0  0  0  0  0  0  0  0  0  0  0
   27.7283  -20.5285   -7.8923 C   0  0  0  0  0  0  0  0  0  0  0  0
   24.1679  -21.2181  -11.2756 C   0  0  0  0  0  0  0  0  0  0  0  0
   23.3926  -21.4412  -10.2873 O   0  0  0  0  0  0  0  0  0  0  0  0
   19.2871  -20.3964  -11.7136 N   0  0  0  0  0  0  0  0  0  0  0  0
   20.2559  -19.3305  -11.8436 C   0  0  0  0  0  0  0  0  0  0  0  0
   19.8691  -18.1422  -11.9814 O   0  0  0  0  0  0  0  0  0  0  0  0
   21.6734  -19.6559  -11.8122 C   0  0  0  0  0  0  0  0  0  0  0  0
   22.0619  -20.8989  -12.6129 C   0  0  2  0  0  0  0  0  0  0  0  0
   23.5249  -21.0189  -12.5229 N   0  0  0  0  0  0  0  0  0  0  0  0
   21.7146  -20.7354  -14.0285 C   0  0  0  0  0  0  0  0  0  0  0  0
   22.5044  -20.4087  -14.9423 O   0  0  0  0  0  0  0  0  0  0  0  0
   20.3886  -20.9573  -14.4477 O   0  0  0  0  0  0  0  0  0  0  0  0
  2  1  1  6
  2  3  1  0
  3  4  1  0
  4  5  2  0
  4  8  1  0
  5  6  1  0
  6  7  1  0
  8  7  2  0
  9 10  2  0
  9  2  1  0
 11  9  1  0
 12 13  1  1
 12 11  1  0
 13 14  1  0
 14 15  2  0
 14 22  1  0
 15 16  1  0
 16 17  1  0
 17 18  2  0
 19 18  1  0
 20 19  2  0
 21 22  2  0
 21 20  1  0
 22 17  1  0
 23 12  1  0
 24 23  2  0
 25 26  1  0
 26 28  1  0
 27 26  2  0
 29 28  1  1
 29 30  1  0
 30 23  1  0
 31 33  1  0
 31 29  1  0
 32 31  2  0
M  END
$$$$
