HWN.pdb
     RDKit          3D

 33 35  0  0  1  0  0  0  0  0999 V2000
   24.5531  -20.5964  -14.4285 N   0  0  0  0  0  0  0  0  0  0  0  0
   23.4635  -20.2167  -13.5638 C   0  0  1  0  0  0  0  0  0  0  0  0
   22.1212  -20.2847  -14.2180 C   0  0  0  0  0  0  0  0  0  0  0  0
   22.1206  -19.5102  -15.4829 C   0  0  0  0  0  0  0  0  0  0  0  0
   22.3623  -18.1361  -15.5931 C   0  0  0  0  0  0  0  0  0  0  0  0
   22.2823  -17.7774  -16.8870 N   0  0  0  0  0  0  0  0  0  0  0  0
   21.9992  -18.8662  -17.6088 C   0  0  0  0  0  0  0  0  0  0  0  0
   21.9047  -19.9017  -16.7493 N   0  0  0  0  0  0  0  0  0  0  0  0
   23.5114  -20.9215  -12.2573 C   0  0  0  0  0  0  0  0  0  0  0  0
   23.3262  -22.1824  -12.2313 O   0  0  0  0  0  0  0  0  0  0  0  0
   23.7492  -20.2972  -11.0213 N   0  0  0  0  0  0  0  0  0  0  0  0
   23.7706  -21.0421   -9.7304 C   0  0  1  0  0  0  0  0  0  0  0  0
   24.7546  -20.3725   -8.8601 C   0  0  0  0  0  0  0  0  0  0  0  0
   26.1589  -20.7120   -8.9526 C   0  0  0  0  0  0  0  0  0  0  0  0
   26.8281  -21.4282   -9.9505 C   0  0  0  0  0  0  0  0  0  0  0  0
   28.1311  -21.5264   -9.6465 N   0  0  0  0  0  0  0  0  0  0  0  0
   28.3632  -20.8986   -8.4753 C   0  0  0  0  0  0  0  0  0  0  0  0
   29.5165  -20.6987   -7.7516 C   0  0  0  0  0  0  0  0  0  0  0  0
   29.4454  -19.9831   -6.5808 C   0  0  0  0  0  0  0  0  0  0  0  0
   28.2559  -19.4582   -6.1053 C   0  0  0  0  0  0  0  0  0  0  0  0
   27.1200  -19.6823   -6.8621 C   0  0  0  0  0  0  0  0  0  0  0  0
   27.1419  -20.3883   -8.0344 C   0  0  0  0  0  0  0  0  0  0  0  0
   22.4258  -21.1368   -9.1715 C   0  0  0  0  0  0  0  0  0  0  0  0
   21.5212  -20.3904   -9.6738 O   0  0  0  0  0  0  0  0  0  0  0  0
   18.0018  -23.4307   -8.0668 N   0  0  0  0  0  0  0  0  0  0  0  0
   18.8420  -23.6632   -9.2207 C   0  0  0  0  0  0  0  0  0  0  0  0
   18.3994  -24.3155  -10.2000 O   0  0  0  0  0  0  0  0  0  0  0  0
   20.1968  -23.1333   -9.2270 C   0  0  0  0  0  0  0  0  0  0  0  0
   20.5859  -22.3581   -7.9681 C   0  0  2  0  0  0  0  0  0  0  0  0
   22.0010  -21.9878   -8.1208 N   0  0  0  0  0  0  0  0  0  0  0  0
   20.4740  -23.2084   -6.7782 C   0  0  0  0  0  0  0  0  0  0  0  0
   21.3999  -23.8770   -6.2673 O   0  0  0  0  0  0  0  0  0  0  0  0
   19.2366  -23.3126   -6.1138 O   0  0  0  0  0  0  0  0  0  0  0  0
  2  1  1  6
  2  3  1  0
  3  4  1  0
  4  5  2  0
  4  8  1  0
  5  6  1  0
  6  7  1  0
  8  7  2  0
  9 10  2  0
  9  2  1  0
 11  9  1  0
 12 13  1  1
 12 11  1  0
 13 14  1  0
 14 15  2  0
 14 22  1  0
 15 16  1  0
 16 17  1  0
 17 18  2  0
 19 18  1  0
 20 19  2  0
 21 22  2  0
 21 20  1  0
 22 17  1  0
 23 12  1  0
 24 23  2  0
 25 26  1  0
 26 28  1  0
 27 26  2  0
 29 28  1  6
 29 30  1  0
 30 23  1  0
 31 33  1  0
 31 29  1  0
 32 31  2  0
M  END
$$$$
