HWN.pdb
     RDKit          3D

 33 35  0  0  1  0  0  0  0  0999 V2000
   24.7798  -11.9660  -21.5194 N   0  0  0  0  0  0  0  0  0  0  0  0
   25.0363  -10.8180  -20.6855 C   0  0  1  0  0  0  0  0  0  0  0  0
   25.9377   -9.8044  -21.3136 C   0  0  0  0  0  0  0  0  0  0  0  0
   27.3007  -10.3615  -21.4916 C   0  0  0  0  0  0  0  0  0  0  0  0
   27.7477  -11.5888  -20.9889 C   0  0  0  0  0  0  0  0  0  0  0  0
   29.0327  -11.7681  -21.3435 N   0  0  0  0  0  0  0  0  0  0  0  0
   29.4258  -10.7053  -22.0525 C   0  0  0  0  0  0  0  0  0  0  0  0
   28.3720   -9.8669  -22.1331 N   0  0  0  0  0  0  0  0  0  0  0  0
   23.7863  -10.2286  -20.1413 C   0  0  0  0  0  0  0  0  0  0  0  0
   22.9109   -9.7843  -20.9543 O   0  0  0  0  0  0  0  0  0  0  0  0
   23.4847  -10.1186  -18.7735 N   0  0  0  0  0  0  0  0  0  0  0  0
   22.2294   -9.4919  -18.2705 C   0  0  1  0  0  0  0  0  0  0  0  0
   21.3624  -10.5835  -17.7901 C   0  0  0  0  0  0  0  0  0  0  0  0
   20.1291  -10.2817  -17.0944 C   0  0  0  0  0  0  0  0  0  0  0  0
   19.4781   -9.0523  -16.9487 C   0  0  0  0  0  0  0  0  0  0  0  0
   18.3625   -9.2096  -16.2203 N   0  0  0  0  0  0  0  0  0  0  0  0
   18.2391  -10.5065  -15.8701 C   0  0  0  0  0  0  0  0  0  0  0  0
   17.2756  -11.1778  -15.1528 C   0  0  0  0  0  0  0  0  0  0  0  0
   17.4096  -12.5338  -14.9753 C   0  0  0  0  0  0  0  0  0  0  0  0
   18.4788  -13.2456  -15.4919 C   0  0  0  0  0  0  0  0  0  0  0  0
   19.4253  -12.5332  -16.2058 C   0  0  0  0  0  0  0  0  0  0  0  0
   19.3340  -11.1828  -16.4088 C   0  0  0  0  0  0  0  0  0  0  0  0
   22.5314   -8.4687  -17.2745 C   0  0  0  0  0  0  0  0  0  0  0  0
   23.4059   -8.7447  -16.3876 O   0  0  0  0  0  0  0  0  0  0  0  0
   22.5372   -4.2282  -14.1746 N   0  0  0  0  0  0  0  0  0  0  0  0
   22.1618   -3.8335  -15.5144 C   0  0  0  0  0  0  0  0  0  0  0  0
   22.0069   -2.6171  -15.7916 O   0  0  0  0  0  0  0  0  0  0  0  0
   21.9685   -4.8608  -16.5260 C   0  0  0  0  0  0  0  0  0  0  0  0
   22.2649   -6.2850  -16.0557 C   0  0  2  0  0  0  0  0  0  0  0  0
   21.9594   -7.1750  -17.1861 N   0  0  0  0  0  0  0  0  0  0  0  0
   21.3848   -6.6593  -14.9437 C   0  0  0  0  0  0  0  0  0  0  0  0
   20.2218   -7.1082  -15.0505 O   0  0  0  0  0  0  0  0  0  0  0  0
   21.8440   -6.5231  -13.6193 O   0  0  0  0  0  0  0  0  0  0  0  0
  2  1  1  6
  2  3  1  0
  3  4  1  0
  4  5  2  0
  4  8  1  0
  5  6  1  0
  6  7  1  0
  8  7  2  0
  9 10  2  0
  9  2  1  0
 11  9  1  0
 12 13  1  1
 12 11  1  0
 13 14  1  0
 14 15  2  0
 14 22  1  0
 15 16  1  0
 16 17  1  0
 17 18  2  0
 19 18  1  0
 20 19  2  0
 21 22  2  0
 21 20  1  0
 22 17  1  0
 23 12  1  0
 24 23  2  0
 25 26  1  0
 26 28  1  0
 27 26  2  0
 29 28  1  6
 29 30  1  0
 30 23  1  0
 31 33  1  0
 31 29  1  0
 32 31  2  0
M  END
$$$$
