HWN.pdb
     RDKit          3D

 33 35  0  0  1  0  0  0  0  0999 V2000
   22.9446  -11.8192  -17.9182 N   0  0  0  0  0  0  0  0  0  0  0  0
   22.2360  -10.6292  -18.3195 C   0  0  1  0  0  0  0  0  0  0  0  0
   20.7627  -10.8274  -18.4764 C   0  0  0  0  0  0  0  0  0  0  0  0
   20.4853  -11.8849  -19.4787 C   0  0  0  0  0  0  0  0  0  0  0  0
   20.1169  -13.2032  -19.1867 C   0  0  0  0  0  0  0  0  0  0  0  0
   19.9465  -13.8779  -20.3378 N   0  0  0  0  0  0  0  0  0  0  0  0
   20.1911  -13.0448  -21.3540 C   0  0  0  0  0  0  0  0  0  0  0  0
   20.5144  -11.8485  -20.8210 N   0  0  0  0  0  0  0  0  0  0  0  0
   22.5796   -9.4585  -17.4726 C   0  0  0  0  0  0  0  0  0  0  0  0
   22.2854   -9.4887  -16.2327 O   0  0  0  0  0  0  0  0  0  0  0  0
   23.2159   -8.2955  -17.9377 N   0  0  0  0  0  0  0  0  0  0  0  0
   23.6285   -7.1837  -17.0348 C   0  0  1  0  0  0  0  0  0  0  0  0
   25.0194   -6.8378  -17.3811 C   0  0  0  0  0  0  0  0  0  0  0  0
   26.0640   -7.8353  -17.2829 C   0  0  0  0  0  0  0  0  0  0  0  0
   27.2447   -7.9503  -18.0241 C   0  0  0  0  0  0  0  0  0  0  0  0
   27.9348   -9.0274  -17.6198 N   0  0  0  0  0  0  0  0  0  0  0  0
   27.2579   -9.6431  -16.6286 C   0  0  0  0  0  0  0  0  0  0  0  0
   27.5431  -10.7586  -15.8749 C   0  0  0  0  0  0  0  0  0  0  0  0
   26.6553  -11.1398  -14.8979 C   0  0  0  0  0  0  0  0  0  0  0  0
   25.4862  -10.4421  -14.6471 C   0  0  0  0  0  0  0  0  0  0  0  0
   25.2368   -9.3276  -15.4273 C   0  0  0  0  0  0  0  0  0  0  0  0
   26.0913   -8.9094  -16.4112 C   0  0  0  0  0  0  0  0  0  0  0  0
   22.6836   -6.0749  -17.1231 C   0  0  0  0  0  0  0  0  0  0  0  0
   22.0378   -5.9319  -18.2140 O   0  0  0  0  0  0  0  0  0  0  0  0
   19.1203   -2.4518  -16.5866 N   0  0  0  0  0  0  0  0  0  0  0  0
   18.9150   -3.8789  -16.7004 C   0  0  0  0  0  0  0  0  0  0  0  0
   17.7567   -4.3359  -16.8735 O   0  0  0  0  0  0  0  0  0  0  0  0
   20.0632   -4.7677  -16.6115 C   0  0  0  0  0  0  0  0  0  0  0  0
   21.3927   -4.0681  -16.3284 C   0  0  2  0  0  0  0  0  0  0  0  0
   22.3893   -5.1276  -16.1108 N   0  0  0  0  0  0  0  0  0  0  0  0
   21.3111   -3.2740  -15.0980 C   0  0  0  0  0  0  0  0  0  0  0  0
   21.3661   -3.7243  -13.9319 O   0  0  0  0  0  0  0  0  0  0  0  0
   21.1603   -1.8764  -15.1829 O   0  0  0  0  0  0  0  0  0  0  0  0
  2  1  1  1
  2  3  1  0
  3  4  1  0
  4  5  2  0
  4  8  1  0
  5  6  1  0
  6  7  1  0
  8  7  2  0
  9 10  2  0
  9  2  1  0
 11  9  1  0
 12 13  1  6
 12 11  1  0
 13 14  1  0
 14 15  2  0
 14 22  1  0
 15 16  1  0
 16 17  1  0
 17 18  2  0
 19 18  1  0
 20 19  2  0
 21 22  2  0
 21 20  1  0
 22 17  1  0
 23 12  1  0
 24 23  2  0
 25 26  1  0
 26 28  1  0
 27 26  2  0
 29 28  1  1
 29 30  1  0
 30 23  1  0
 31 33  1  0
 31 29  1  0
 32 31  2  0
M  END
$$$$
