HWN.pdb
     RDKit          3D

 33 35  0  0  1  0  0  0  0  0999 V2000
   28.7389  -22.3863  -16.1544 N   0  0  0  0  0  0  0  0  0  0  0  0
   27.6813  -21.4189  -15.9968 C   0  0  1  0  0  0  0  0  0  0  0  0
   26.8935  -21.1765  -17.2438 C   0  0  0  0  0  0  0  0  0  0  0  0
   27.7449  -20.5444  -18.2808 C   0  0  0  0  0  0  0  0  0  0  0  0
   28.1907  -21.1647  -19.4535 C   0  0  0  0  0  0  0  0  0  0  0  0
   28.9376  -20.2938  -20.1556 N   0  0  0  0  0  0  0  0  0  0  0  0
   28.9877  -19.1419  -19.4796 C   0  0  0  0  0  0  0  0  0  0  0  0
   28.2649  -19.3082  -18.3527 N   0  0  0  0  0  0  0  0  0  0  0  0
   26.8286  -21.7067  -14.8153 C   0  0  0  0  0  0  0  0  0  0  0  0
   26.3242  -22.8705  -14.6895 O   0  0  0  0  0  0  0  0  0  0  0  0
   26.5261  -20.7796  -13.8038 N   0  0  0  0  0  0  0  0  0  0  0  0
   25.7169  -21.1299  -12.6021 C   0  0  1  0  0  0  0  0  0  0  0  0
   26.2187  -20.3062  -11.4867 C   0  0  0  0  0  0  0  0  0  0  0  0
   27.4072  -20.7062  -10.7632 C   0  0  0  0  0  0  0  0  0  0  0  0
   28.6113  -21.2158  -11.2601 C   0  0  0  0  0  0  0  0  0  0  0  0
   29.4542  -21.4660  -10.2469 N   0  0  0  0  0  0  0  0  0  0  0  0
   28.8578  -21.1408   -9.0815 C   0  0  0  0  0  0  0  0  0  0  0  0
   29.2978  -21.1882   -7.7784 C   0  0  0  0  0  0  0  0  0  0  0  0
   28.4560  -20.7579   -6.7813 C   0  0  0  0  0  0  0  0  0  0  0  0
   27.1832  -20.2799   -7.0424 C   0  0  0  0  0  0  0  0  0  0  0  0
   26.7794  -20.2495   -8.3649 C   0  0  0  0  0  0  0  0  0  0  0  0
   27.5827  -20.6670   -9.3914 C   0  0  0  0  0  0  0  0  0  0  0  0
   24.2927  -20.9769  -12.8814 C   0  0  0  0  0  0  0  0  0  0  0  0
   23.9240  -19.9437  -13.5327 O   0  0  0  0  0  0  0  0  0  0  0  0
   19.0182  -23.0781  -14.1092 N   0  0  0  0  0  0  0  0  0  0  0  0
   19.6449  -22.7817  -12.8399 C   0  0  0  0  0  0  0  0  0  0  0  0
   18.9427  -22.4280  -11.8590 O   0  0  0  0  0  0  0  0  0  0  0  0
   21.0899  -22.8993  -12.7205 C   0  0  0  0  0  0  0  0  0  0  0  0
   21.8512  -21.5793  -12.8440 C   0  0  2  0  0  0  0  0  0  0  0  0
   23.2546  -21.8687  -12.5129 N   0  0  0  0  0  0  0  0  0  0  0  0
   21.3566  -20.6004  -11.8702 C   0  0  0  0  0  0  0  0  0  0  0  0
   21.7161  -20.5119  -10.6751 O   0  0  0  0  0  0  0  0  0  0  0  0
   20.3933  -19.6527  -12.2670 O   0  0  0  0  0  0  0  0  0  0  0  0
  2  1  1  6
  2  3  1  0
  3  4  1  0
  4  5  2  0
  4  8  1  0
  5  6  1  0
  6  7  1  0
  8  7  2  0
  9 10  2  0
  9  2  1  0
 11  9  1  0
 12 13  1  1
 12 11  1  0
 13 14  1  0
 14 15  2  0
 14 22  1  0
 15 16  1  0
 16 17  1  0
 17 18  2  0
 19 18  1  0
 20 19  2  0
 21 22  2  0
 21 20  1  0
 22 17  1  0
 23 12  1  0
 24 23  2  0
 25 26  1  0
 26 28  1  0
 27 26  2  0
 29 28  1  1
 29 30  1  0
 30 23  1  0
 31 33  1  0
 31 29  1  0
 32 31  2  0
M  END
$$$$
