HWN.pdb
     RDKit          3D

 33 35  0  0  1  0  0  0  0  0999 V2000
   24.0753  -32.8378  -14.5351 N   0  0  0  0  0  0  0  0  0  0  0  0
   23.0902  -33.0927  -13.5134 C   0  0  1  0  0  0  0  0  0  0  0  0
   22.7753  -34.5419  -13.3261 C   0  0  0  0  0  0  0  0  0  0  0  0
   21.8394  -35.0096  -14.3774 C   0  0  0  0  0  0  0  0  0  0  0  0
   20.5013  -34.6195  -14.5045 C   0  0  0  0  0  0  0  0  0  0  0  0
   19.9609  -35.2402  -15.5684 N   0  0  0  0  0  0  0  0  0  0  0  0
   20.8989  -36.0115  -16.1268 C   0  0  0  0  0  0  0  0  0  0  0  0
   22.0246  -35.8623  -15.3984 N   0  0  0  0  0  0  0  0  0  0  0  0
   23.4078  -32.3961  -12.2408 C   0  0  0  0  0  0  0  0  0  0  0  0
   24.6284  -32.2731  -11.8947 O   0  0  0  0  0  0  0  0  0  0  0  0
   22.4510  -31.8504  -11.3685 N   0  0  0  0  0  0  0  0  0  0  0  0
   22.8173  -31.1069  -10.1298 C   0  0  1  0  0  0  0  0  0  0  0  0
   21.6824  -30.2242   -9.8027 C   0  0  0  0  0  0  0  0  0  0  0  0
   21.3800  -29.0849  -10.6432 C   0  0  0  0  0  0  0  0  0  0  0  0
   22.0262  -28.6515  -11.8056 C   0  0  0  0  0  0  0  0  0  0  0  0
   21.4307  -27.5442  -12.2735 N   0  0  0  0  0  0  0  0  0  0  0  0
   20.4024  -27.2163  -11.4644 C   0  0  0  0  0  0  0  0  0  0  0  0
   19.4800  -26.1965  -11.5165 C   0  0  0  0  0  0  0  0  0  0  0  0
   18.5119  -26.1315  -10.5435 C   0  0  0  0  0  0  0  0  0  0  0  0
   18.4337  -27.0546   -9.5147 C   0  0  0  0  0  0  0  0  0  0  0  0
   19.3800  -28.0632   -9.4984 C   0  0  0  0  0  0  0  0  0  0  0  0
   20.3622  -28.1688  -10.4457 C   0  0  0  0  0  0  0  0  0  0  0  0
   23.1947  -32.0347   -9.0684 C   0  0  0  0  0  0  0  0  0  0  0  0
   22.6488  -33.1878   -9.0672 O   0  0  0  0  0  0  0  0  0  0  0  0
   25.7329  -35.8017   -6.4958 N   0  0  0  0  0  0  0  0  0  0  0  0
   26.2653  -34.4569   -6.4969 C   0  0  0  0  0  0  0  0  0  0  0  0
   27.1720  -34.1387   -5.6862 O   0  0  0  0  0  0  0  0  0  0  0  0
   25.7369  -33.4882   -7.4447 C   0  0  0  0  0  0  0  0  0  0  0  0
   24.4213  -32.8334   -7.0232 C   0  0  2  0  0  0  0  0  0  0  0  0
   24.1247  -31.7986   -8.0252 N   0  0  0  0  0  0  0  0  0  0  0  0
   24.5643  -32.1675   -5.7242 C   0  0  0  0  0  0  0  0  0  0  0  0
   24.4528  -32.7157   -4.6051 O   0  0  0  0  0  0  0  0  0  0  0  0
   24.8561  -30.7905   -5.6788 O   0  0  0  0  0  0  0  0  0  0  0  0
  2  1  1  6
  2  3  1  0
  3  4  1  0
  4  5  2  0
  4  8  1  0
  5  6  1  0
  6  7  1  0
  8  7  2  0
  9 10  2  0
  9  2  1  0
 11  9  1  0
 12 13  1  1
 12 11  1  0
 13 14  1  0
 14 15  2  0
 14 22  1  0
 15 16  1  0
 16 17  1  0
 17 18  2  0
 19 18  1  0
 20 19  2  0
 21 22  2  0
 21 20  1  0
 22 17  1  0
 23 12  1  0
 24 23  2  0
 25 26  1  0
 26 28  1  0
 27 26  2  0
 29 28  1  6
 29 30  1  0
 30 23  1  0
 31 33  1  0
 31 29  1  0
 32 31  2  0
M  END
$$$$
