FMS.pdb
     RDKit          3D

 26 26  0  0  1  0  0  0  0  0999 V2000
   27.9562  -22.5883  -17.3916 N   0  0  0  0  0  0  0  0  0  0  0  0
   27.3657  -21.3875  -16.8922 C   0  0  1  0  0  0  0  0  0  0  0  0
   26.6141  -20.6133  -17.9425 C   0  0  0  0  0  0  0  0  0  0  0  0
   27.6031  -20.0043  -18.8670 C   0  0  0  0  0  0  0  0  0  0  0  0
   27.7201  -20.5011  -20.1439 C   0  0  0  0  0  0  0  0  0  0  0  0
   28.6417  -19.9297  -20.9954 C   0  0  0  0  0  0  0  0  0  0  0  0
   29.4231  -18.8845  -20.5662 C   0  0  0  0  0  0  0  0  0  0  0  0
   29.2933  -18.3907  -19.2673 C   0  0  0  0  0  0  0  0  0  0  0  0
   28.3821  -18.9530  -18.4201 C   0  0  0  0  0  0  0  0  0  0  0  0
   26.4230  -21.6337  -15.7636 C   0  0  0  0  0  0  0  0  0  0  0  0
   25.7919  -22.6964  -15.7229 O   0  0  0  0  0  0  0  0  0  0  0  0
   26.1197  -20.8661   -8.7089 C   0  0  0  0  0  0  0  0  0  0  0  0
   25.4834  -21.4925  -10.2827 S   0  0  0  0  0  0  0  0  0  0  0  0
   24.7425  -20.1418  -11.2686 C   0  0  0  0  0  0  0  0  0  0  0  0
   25.6492  -19.9239  -12.4546 C   0  0  0  0  0  0  0  0  0  0  0  0
   25.3666  -20.8736  -13.5919 C   0  0  2  0  0  0  0  0  0  0  0  0
   26.2165  -20.6886  -14.7210 N   0  0  0  0  0  0  0  0  0  0  0  0
   23.9560  -20.6722  -13.9949 C   0  0  0  0  0  0  0  0  0  0  0  0
   23.6559  -19.5844  -14.5389 O   0  0  0  0  0  0  0  0  0  0  0  0
   19.9937  -20.9711  -11.8664 O   0  0  0  0  0  0  0  0  0  0  0  0
   21.3578  -21.1532  -12.0807 C   0  0  0  0  0  0  0  0  0  0  0  0
   21.5505  -21.3348  -13.5913 C   0  0  2  0  0  0  0  0  0  0  0  0
   22.9312  -21.6269  -13.8050 N   0  0  0  0  0  0  0  0  0  0  0  0
   21.0480  -20.1881  -14.3435 C   0  0  0  0  0  0  0  0  0  0  0  0
   19.9015  -20.2008  -15.1270 O   0  0  0  0  0  0  0  0  0  0  0  0
   21.6865  -19.1052  -14.2889 O   0  0  0  0  0  0  0  0  0  0  0  0
  2  1  1  6
  3  2  1  0
  4  3  1  0
  5  4  2  0
  6  5  1  0
  7  6  2  0
  7  8  1  0
  8  9  2  0
  9  4  1  0
 10  2  1  0
 10 11  2  0
 13 12  1  0
 14 13  1  0
 16 15  1  1
 15 14  1  0
 16 17  1  0
 17 10  1  0
 18 16  1  0
 19 18  2  0
 21 20  1  0
 22 21  1  1
 22 23  1  0
 23 18  1  0
 24 22  1  0
 25 24  1  0
 26 24  2  0
M  END
$$$$
