FMS.pdb
     RDKit          3D

 26 26  0  0  1  0  0  0  0  0999 V2000
   28.5029  -20.1567  -15.1222 N   0  0  0  0  0  0  0  0  0  0  0  0
   27.4208  -19.4869  -14.4736 C   0  0  1  0  0  0  0  0  0  0  0  0
   26.6007  -18.6385  -15.4089 C   0  0  0  0  0  0  0  0  0  0  0  0
   27.3834  -17.4209  -15.7382 C   0  0  0  0  0  0  0  0  0  0  0  0
   27.4168  -16.3826  -14.8371 C   0  0  0  0  0  0  0  0  0  0  0  0
   28.1459  -15.2555  -15.1517 C   0  0  0  0  0  0  0  0  0  0  0  0
   28.8221  -15.1814  -16.3451 C   0  0  0  0  0  0  0  0  0  0  0  0
   28.7791  -16.2430  -17.2500 C   0  0  0  0  0  0  0  0  0  0  0  0
   28.0586  -17.3615  -16.9434 C   0  0  0  0  0  0  0  0  0  0  0  0
   26.4852  -20.4270  -13.7924 C   0  0  0  0  0  0  0  0  0  0  0  0
   26.3198  -21.5604  -14.2588 O   0  0  0  0  0  0  0  0  0  0  0  0
   25.9452  -19.2769   -7.7490 C   0  0  0  0  0  0  0  0  0  0  0  0
   26.2572  -21.0426   -7.9916 S   0  0  0  0  0  0  0  0  0  0  0  0
   26.2289  -21.4698   -9.7698 C   0  0  0  0  0  0  0  0  0  0  0  0
   25.0438  -20.7530  -10.3684 C   0  0  0  0  0  0  0  0  0  0  0  0
   24.9335  -20.9458  -11.8603 C   0  0  2  0  0  0  0  0  0  0  0  0
   25.7674  -20.0721  -12.6170 N   0  0  0  0  0  0  0  0  0  0  0  0
   23.5170  -20.7231  -12.2305 C   0  0  0  0  0  0  0  0  0  0  0  0
   23.0792  -19.5506  -12.1774 O   0  0  0  0  0  0  0  0  0  0  0  0
   19.5964  -22.5966  -14.2445 O   0  0  0  0  0  0  0  0  0  0  0  0
   20.7399  -22.9016  -13.5103 C   0  0  0  0  0  0  0  0  0  0  0  0
   21.2367  -21.5878  -12.8943 C   0  0  2  0  0  0  0  0  0  0  0  0
   22.6319  -21.7467  -12.6386 N   0  0  0  0  0  0  0  0  0  0  0  0
   20.4449  -21.2020  -11.7292 C   0  0  0  0  0  0  0  0  0  0  0  0
   19.3616  -20.3339  -11.7651 O   0  0  0  0  0  0  0  0  0  0  0  0
   20.7524  -21.6803  -10.6067 O   0  0  0  0  0  0  0  0  0  0  0  0
  2  1  1  6
  3  2  1  0
  4  3  1  0
  5  4  2  0
  6  5  1  0
  7  6  2  0
  7  8  1  0
  8  9  2  0
  9  4  1  0
 10  2  1  0
 10 11  2  0
 13 12  1  0
 14 13  1  0
 16 15  1  1
 15 14  1  0
 16 17  1  0
 17 10  1  0
 18 16  1  0
 19 18  2  0
 21 20  1  0
 22 21  1  1
 22 23  1  0
 23 18  1  0
 24 22  1  0
 25 24  1  0
 26 24  2  0
M  END
$$$$
