FMS.pdb
     RDKit          3D

 26 26  0  0  1  0  0  0  0  0999 V2000
   28.5395  -22.2923  -10.0192 N   0  0  0  0  0  0  0  0  0  0  0  0
   27.4751  -21.3682   -9.7888 C   0  0  1  0  0  0  0  0  0  0  0  0
   27.9475  -19.9494   -9.6121 C   0  0  0  0  0  0  0  0  0  0  0  0
   28.0016  -19.6558   -8.1580 C   0  0  0  0  0  0  0  0  0  0  0  0
   26.9305  -19.0341   -7.5603 C   0  0  0  0  0  0  0  0  0  0  0  0
   26.9900  -18.7648   -6.2094 C   0  0  0  0  0  0  0  0  0  0  0  0
   28.1027  -19.1151   -5.4838 C   0  0  0  0  0  0  0  0  0  0  0  0
   29.1823  -19.7456   -6.1040 C   0  0  0  0  0  0  0  0  0  0  0  0
   29.1285  -20.0145   -7.4416 C   0  0  0  0  0  0  0  0  0  0  0  0
   26.4650  -21.3657  -10.8857 C   0  0  0  0  0  0  0  0  0  0  0  0
   26.8324  -21.5783  -12.0472 O   0  0  0  0  0  0  0  0  0  0  0  0
   19.9965  -22.4333   -9.8431 C   0  0  0  0  0  0  0  0  0  0  0  0
   19.9769  -21.2325  -11.1966 S   0  0  0  0  0  0  0  0  0  0  0  0
   21.5746  -21.2299  -12.0868 C   0  0  0  0  0  0  0  0  0  0  0  0
   22.6562  -21.2080  -11.0351 C   0  0  0  0  0  0  0  0  0  0  0  0
   24.0456  -21.2415  -11.6212 C   0  0  2  0  0  0  0  0  0  0  0  0
   25.0828  -21.1268  -10.6505 N   0  0  0  0  0  0  0  0  0  0  0  0
   24.1444  -20.1232  -12.5869 C   0  0  0  0  0  0  0  0  0  0  0  0
   24.0160  -18.9586  -12.1435 O   0  0  0  0  0  0  0  0  0  0  0  0
   25.5082  -20.7438  -16.3950 O   0  0  0  0  0  0  0  0  0  0  0  0
   25.6938  -19.5020  -15.7925 C   0  0  0  0  0  0  0  0  0  0  0  0
   24.4520  -19.2346  -14.9330 C   0  0  2  0  0  0  0  0  0  0  0  0
   24.3738  -20.2870  -13.9718 N   0  0  0  0  0  0  0  0  0  0  0  0
   23.2531  -19.0670  -15.7501 C   0  0  0  0  0  0  0  0  0  0  0  0
   23.0739  -18.0596  -16.6890 O   0  0  0  0  0  0  0  0  0  0  0  0
   22.3068  -19.8837  -15.6059 O   0  0  0  0  0  0  0  0  0  0  0  0
  2  1  1  6
  3  2  1  0
  4  3  1  0
  5  4  2  0
  6  5  1  0
  7  6  2  0
  7  8  1  0
  8  9  2  0
  9  4  1  0
 10  2  1  0
 10 11  2  0
 13 12  1  0
 14 13  1  0
 16 15  1  1
 15 14  1  0
 16 17  1  0
 17 10  1  0
 18 16  1  0
 19 18  2  0
 21 20  1  0
 22 21  1  6
 22 23  1  0
 23 18  1  0
 24 22  1  0
 25 24  1  0
 26 24  2  0
M  END
$$$$
