FMS.pdb
     RDKit          3D

 26 26  0  0  1  0  0  0  0  0999 V2000
   28.3826  -20.4160  -15.6889 N   0  0  0  0  0  0  0  0  0  0  0  0
   27.5968  -19.6389  -14.7842 C   0  0  1  0  0  0  0  0  0  0  0  0
   26.6835  -18.6629  -15.4775 C   0  0  0  0  0  0  0  0  0  0  0  0
   27.4969  -17.5058  -15.9285 C   0  0  0  0  0  0  0  0  0  0  0  0
   28.0561  -17.5297  -17.1845 C   0  0  0  0  0  0  0  0  0  0  0  0
   28.8105  -16.4509  -17.5946 C   0  0  0  0  0  0  0  0  0  0  0  0
   28.9936  -15.3780  -16.7565 C   0  0  0  0  0  0  0  0  0  0  0  0
   28.4199  -15.3677  -15.4843 C   0  0  0  0  0  0  0  0  0  0  0  0
   27.6720  -16.4335  -15.0733 C   0  0  0  0  0  0  0  0  0  0  0  0
   26.7507  -20.4773  -13.8874 C   0  0  0  0  0  0  0  0  0  0  0  0
   26.2880  -21.5422  -14.3132 O   0  0  0  0  0  0  0  0  0  0  0  0
   26.7227  -19.6273   -7.5731 C   0  0  0  0  0  0  0  0  0  0  0  0
   25.2886  -20.7306   -7.5863 S   0  0  0  0  0  0  0  0  0  0  0  0
   24.8908  -21.2597   -9.2914 C   0  0  0  0  0  0  0  0  0  0  0  0
   25.7842  -20.4644  -10.2110 C   0  0  0  0  0  0  0  0  0  0  0  0
   25.5805  -20.8047  -11.6663 C   0  0  2  0  0  0  0  0  0  0  0  0
   26.4500  -20.1007  -12.5493 N   0  0  0  0  0  0  0  0  0  0  0  0
   24.1728  -20.4889  -12.0005 C   0  0  0  0  0  0  0  0  0  0  0  0
   23.8672  -19.2835  -12.1524 O   0  0  0  0  0  0  0  0  0  0  0  0
   21.9215  -22.6729  -14.3205 O   0  0  0  0  0  0  0  0  0  0  0  0
   21.2309  -22.4703  -13.1282 C   0  0  0  0  0  0  0  0  0  0  0  0
   21.7965  -21.1913  -12.4984 C   0  0  2  0  0  0  0  0  0  0  0  0
   23.1567  -21.4585  -12.1582 N   0  0  0  0  0  0  0  0  0  0  0  0
   20.9721  -20.7241  -11.3870 C   0  0  0  0  0  0  0  0  0  0  0  0
   19.8347  -19.9394  -11.5249 O   0  0  0  0  0  0  0  0  0  0  0  0
   21.3014  -21.0459  -10.2159 O   0  0  0  0  0  0  0  0  0  0  0  0
  2  1  1  6
  3  2  1  0
  4  3  1  0
  5  4  2  0
  6  5  1  0
  7  6  2  0
  7  8  1  0
  8  9  2  0
  9  4  1  0
 10  2  1  0
 10 11  2  0
 13 12  1  0
 14 13  1  0
 16 15  1  1
 15 14  1  0
 16 17  1  0
 17 10  1  0
 18 16  1  0
 19 18  2  0
 21 20  1  0
 22 21  1  1
 22 23  1  0
 23 18  1  0
 24 22  1  0
 25 24  1  0
 26 24  2  0
M  END
$$$$
