FMS.pdb
     RDKit          3D

 26 26  0  0  1  0  0  0  0  0999 V2000
   28.2544  -20.7498  -15.2815 N   0  0  0  0  0  0  0  0  0  0  0  0
   27.4071  -19.9452  -14.4602 C   0  0  1  0  0  0  0  0  0  0  0  0
   26.5893  -18.9522  -15.2429 C   0  0  0  0  0  0  0  0  0  0  0  0
   27.4847  -17.8486  -15.6716 C   0  0  0  0  0  0  0  0  0  0  0  0
   28.0705  -17.9063  -16.9144 C   0  0  0  0  0  0  0  0  0  0  0  0
   28.9012  -16.8771  -17.3038 C   0  0  0  0  0  0  0  0  0  0  0  0
   29.1324  -15.8190  -16.4588 C   0  0  0  0  0  0  0  0  0  0  0  0
   28.5309  -15.7739  -15.2002 C   0  0  0  0  0  0  0  0  0  0  0  0
   27.7074  -16.7906  -14.8097 C   0  0  0  0  0  0  0  0  0  0  0  0
   26.4584  -20.7541  -13.6424 C   0  0  0  0  0  0  0  0  0  0  0  0
   25.9674  -21.7815  -14.1248 O   0  0  0  0  0  0  0  0  0  0  0  0
   27.7506  -20.6041   -6.7470 C   0  0  0  0  0  0  0  0  0  0  0  0
   26.2236  -20.3090   -7.6719 S   0  0  0  0  0  0  0  0  0  0  0  0
   26.3218  -21.0480   -9.3421 C   0  0  0  0  0  0  0  0  0  0  0  0
   25.0850  -20.6058  -10.0845 C   0  0  0  0  0  0  0  0  0  0  0  0
   25.0866  -21.0291  -11.5323 C   0  0  2  0  0  0  0  0  0  0  0  0
   26.0902  -20.3907  -12.3176 N   0  0  0  0  0  0  0  0  0  0  0  0
   23.7495  -20.7146  -12.0856 C   0  0  0  0  0  0  0  0  0  0  0  0
   23.5014  -19.5185  -12.3632 O   0  0  0  0  0  0  0  0  0  0  0  0
   21.1446  -23.7545  -12.9894 O   0  0  0  0  0  0  0  0  0  0  0  0
   21.1761  -22.6455  -13.8314 C   0  0  0  0  0  0  0  0  0  0  0  0
   21.4847  -21.4277  -12.9517 C   0  0  2  0  0  0  0  0  0  0  0  0
   22.7400  -21.6757  -12.3191 N   0  0  0  0  0  0  0  0  0  0  0  0
   20.3888  -21.1312  -12.0329 C   0  0  0  0  0  0  0  0  0  0  0  0
   19.1138  -20.7454  -12.4255 O   0  0  0  0  0  0  0  0  0  0  0  0
   20.5973  -21.2269  -10.7957 O   0  0  0  0  0  0  0  0  0  0  0  0
  2  1  1  6
  3  2  1  0
  4  3  1  0
  5  4  2  0
  6  5  1  0
  7  6  2  0
  7  8  1  0
  8  9  2  0
  9  4  1  0
 10  2  1  0
 10 11  2  0
 13 12  1  0
 14 13  1  0
 16 15  1  1
 15 14  1  0
 16 17  1  0
 17 10  1  0
 18 16  1  0
 19 18  2  0
 21 20  1  0
 22 21  1  1
 22 23  1  0
 23 18  1  0
 24 22  1  0
 25 24  1  0
 26 24  2  0
M  END
$$$$
