FMS.pdb
     RDKit          3D

 26 26  0  0  1  0  0  0  0  0999 V2000
   21.8385  -33.8977    0.3215 N   0  0  0  0  0  0  0  0  0  0  0  0
   20.6882  -33.3109    0.9318 C   0  0  1  0  0  0  0  0  0  0  0  0
   19.9986  -34.2290    1.9059 C   0  0  0  0  0  0  0  0  0  0  0  0
   19.3890  -35.3451    1.1401 C   0  0  0  0  0  0  0  0  0  0  0  0
   18.2014  -35.1337    0.4798 C   0  0  0  0  0  0  0  0  0  0  0  0
   17.6424  -36.1762   -0.2284 C   0  0  0  0  0  0  0  0  0  0  0  0
   18.2680  -37.3986   -0.2670 C   0  0  0  0  0  0  0  0  0  0  0  0
   19.4731  -37.5985    0.4080 C   0  0  0  0  0  0  0  0  0  0  0  0
   20.0310  -36.5694    1.1108 C   0  0  0  0  0  0  0  0  0  0  0  0
   21.0017  -32.0476    1.6592 C   0  0  0  0  0  0  0  0  0  0  0  0
   22.1225  -31.9001    2.1606 O   0  0  0  0  0  0  0  0  0  0  0  0
   20.8169  -26.1220   -0.5536 C   0  0  0  0  0  0  0  0  0  0  0  0
   19.8271  -25.9353    0.9496 S   0  0  0  0  0  0  0  0  0  0  0  0
   20.2552  -27.2243    2.1745 C   0  0  0  0  0  0  0  0  0  0  0  0
   19.9558  -28.5536    1.5267 C   0  0  0  0  0  0  0  0  0  0  0  0
   20.3134  -29.7277    2.4035 C   0  0  2  0  0  0  0  0  0  0  0  0
   20.0568  -30.9943    1.8025 N   0  0  0  0  0  0  0  0  0  0  0  0
   19.5259  -29.6026    3.6514 C   0  0  0  0  0  0  0  0  0  0  0  0
   18.2902  -29.7964    3.5816 O   0  0  0  0  0  0  0  0  0  0  0  0
   21.4533  -29.3751    7.1815 O   0  0  0  0  0  0  0  0  0  0  0  0
   20.1713  -29.9190    7.2038 C   0  0  0  0  0  0  0  0  0  0  0  0
   19.3552  -29.1783    6.1372 C   0  0  2  0  0  0  0  0  0  0  0  0
   20.0792  -29.2795    4.9112 N   0  0  0  0  0  0  0  0  0  0  0  0
   19.0412  -27.8120    6.5470 C   0  0  0  0  0  0  0  0  0  0  0  0
   19.4409  -26.6723    5.8617 O   0  0  0  0  0  0  0  0  0  0  0  0
   18.3619  -27.6375    7.5917 O   0  0  0  0  0  0  0  0  0  0  0  0
  2  1  1  1
  3  2  1  0
  4  3  1  0
  5  4  2  0
  6  5  1  0
  7  6  2  0
  7  8  1  0
  8  9  2  0
  9  4  1  0
 10  2  1  0
 10 11  2  0
 13 12  1  0
 14 13  1  0
 16 15  1  6
 15 14  1  0
 16 17  1  0
 17 10  1  0
 18 16  1  0
 19 18  2  0
 21 20  1  0
 22 21  1  1
 22 23  1  0
 23 18  1  0
 24 22  1  0
 25 24  1  0
 26 24  2  0
M  END
$$$$
