FMS.pdb
     RDKit          3D

 26 26  0  0  1  0  0  0  0  0999 V2000
   28.6517  -20.4822  -14.8307 N   0  0  0  0  0  0  0  0  0  0  0  0
   27.5890  -19.7548  -14.2129 C   0  0  1  0  0  0  0  0  0  0  0  0
   26.7262  -19.0115  -15.1980 C   0  0  0  0  0  0  0  0  0  0  0  0
   27.4830  -17.8279  -15.6774 C   0  0  0  0  0  0  0  0  0  0  0  0
   27.5256  -16.6983  -14.8942 C   0  0  0  0  0  0  0  0  0  0  0  0
   28.2304  -15.6037  -15.3479 C   0  0  0  0  0  0  0  0  0  0  0  0
   28.8741  -15.6511  -16.5606 C   0  0  0  0  0  0  0  0  0  0  0  0
   28.8221  -16.8044  -17.3448 C   0  0  0  0  0  0  0  0  0  0  0  0
   28.1255  -17.8912  -16.9001 C   0  0  0  0  0  0  0  0  0  0  0  0
   26.6886  -20.6245  -13.4029 C   0  0  0  0  0  0  0  0  0  0  0  0
   26.2886  -21.6928  -13.8805 O   0  0  0  0  0  0  0  0  0  0  0  0
   27.6938  -20.6142   -6.4030 C   0  0  0  0  0  0  0  0  0  0  0  0
   26.2507  -20.2356   -7.4268 S   0  0  0  0  0  0  0  0  0  0  0  0
   26.4777  -20.8650   -9.1290 C   0  0  0  0  0  0  0  0  0  0  0  0
   25.2139  -20.5357   -9.8845 C   0  0  0  0  0  0  0  0  0  0  0  0
   25.2695  -20.9549  -11.3324 C   0  0  2  0  0  0  0  0  0  0  0  0
   26.2658  -20.2741  -12.0909 N   0  0  0  0  0  0  0  0  0  0  0  0
   23.9351  -20.6935  -11.9191 C   0  0  0  0  0  0  0  0  0  0  0  0
   23.6257  -19.5024  -12.1534 O   0  0  0  0  0  0  0  0  0  0  0  0
   21.8240  -23.7541  -13.4216 O   0  0  0  0  0  0  0  0  0  0  0  0
   21.5579  -22.4959  -13.9564 C   0  0  0  0  0  0  0  0  0  0  0  0
   21.7073  -21.4855  -12.8123 C   0  0  2  0  0  0  0  0  0  0  0  0
   22.9928  -21.6999  -12.2299 N   0  0  0  0  0  0  0  0  0  0  0  0
   20.5929  -21.5633  -11.8715 C   0  0  0  0  0  0  0  0  0  0  0  0
   19.2633  -21.3409  -12.2048 O   0  0  0  0  0  0  0  0  0  0  0  0
   20.8369  -21.8507  -10.6710 O   0  0  0  0  0  0  0  0  0  0  0  0
  2  1  1  6
  3  2  1  0
  4  3  1  0
  5  4  2  0
  6  5  1  0
  7  6  2  0
  7  8  1  0
  8  9  2  0
  9  4  1  0
 10  2  1  0
 10 11  2  0
 13 12  1  0
 14 13  1  0
 16 15  1  1
 15 14  1  0
 16 17  1  0
 17 10  1  0
 18 16  1  0
 19 18  2  0
 21 20  1  0
 22 21  1  6
 22 23  1  0
 23 18  1  0
 24 22  1  0
 25 24  1  0
 26 24  2  0
M  END
$$$$
