FMS.pdb
     RDKit          3D

 26 26  0  0  1  0  0  0  0  0999 V2000
   23.9985  -11.0248  -16.2945 N   0  0  0  0  0  0  0  0  0  0  0  0
   24.8647   -9.8935  -16.3936 C   0  0  1  0  0  0  0  0  0  0  0  0
   26.0767  -10.1462  -17.2508 C   0  0  0  0  0  0  0  0  0  0  0  0
   26.8143  -11.3023  -16.6827 C   0  0  0  0  0  0  0  0  0  0  0  0
   27.4278  -11.1692  -15.4592 C   0  0  0  0  0  0  0  0  0  0  0  0
   28.1111  -12.2481  -14.9397 C   0  0  0  0  0  0  0  0  0  0  0  0
   28.1717  -13.4289  -15.6391 C   0  0  0  0  0  0  0  0  0  0  0  0
   27.5441  -13.5494  -16.8799 C   0  0  0  0  0  0  0  0  0  0  0  0
   26.8661  -12.4840  -17.3989 C   0  0  0  0  0  0  0  0  0  0  0  0
   24.1791   -8.6874  -16.9399 C   0  0  0  0  0  0  0  0  0  0  0  0
   23.2318   -8.8318  -17.7216 O   0  0  0  0  0  0  0  0  0  0  0  0
   26.2517   -2.0844  -16.5754 C   0  0  0  0  0  0  0  0  0  0  0  0
   24.5448   -2.2634  -16.0022 S   0  0  0  0  0  0  0  0  0  0  0  0
   23.7267   -3.6765  -16.8264 C   0  0  0  0  0  0  0  0  0  0  0  0
   24.4947   -4.9130  -16.4294 C   0  0  0  0  0  0  0  0  0  0  0  0
   23.9567   -6.1687  -17.0689 C   0  0  2  0  0  0  0  0  0  0  0  0
   24.5723   -7.3644  -16.5968 N   0  0  0  0  0  0  0  0  0  0  0  0
   24.1681   -6.0456  -18.5294 C   0  0  0  0  0  0  0  0  0  0  0  0
   25.1295   -6.6715  -19.0330 O   0  0  0  0  0  0  0  0  0  0  0  0
   23.0387   -6.8187  -22.6007 O   0  0  0  0  0  0  0  0  0  0  0  0
   23.0525   -6.7737  -21.2088 C   0  0  0  0  0  0  0  0  0  0  0  0
   23.3615   -5.3244  -20.8136 C   0  0  2  0  0  0  0  0  0  0  0  0
   23.3563   -5.2694  -19.3873 N   0  0  0  0  0  0  0  0  0  0  0  0
   22.4545   -4.3808  -21.4618 C   0  0  0  0  0  0  0  0  0  0  0  0
   22.6545   -3.8355  -22.7232 O   0  0  0  0  0  0  0  0  0  0  0  0
   21.4145   -4.0266  -20.8484 O   0  0  0  0  0  0  0  0  0  0  0  0
  2  1  1  6
  3  2  1  0
  4  3  1  0
  5  4  2  0
  6  5  1  0
  7  6  2  0
  7  8  1  0
  8  9  2  0
  9  4  1  0
 10  2  1  0
 10 11  2  0
 13 12  1  0
 14 13  1  0
 16 15  1  1
 15 14  1  0
 16 17  1  0
 17 10  1  0
 18 16  1  0
 19 18  2  0
 21 20  1  0
 22 21  1  1
 22 23  1  0
 23 18  1  0
 24 22  1  0
 25 24  1  0
 26 24  2  0
M  END
$$$$
