FMS.pdb
     RDKit          3D

 26 26  0  0  1  0  0  0  0  0999 V2000
   21.4875   -8.7742  -19.9468 N   0  0  0  0  0  0  0  0  0  0  0  0
   21.1527   -7.5597  -19.2737 C   0  0  1  0  0  0  0  0  0  0  0  0
   20.2139   -6.6836  -20.0601 C   0  0  0  0  0  0  0  0  0  0  0  0
   20.9253   -6.2142  -21.2755 C   0  0  0  0  0  0  0  0  0  0  0  0
   20.8402   -6.9568  -22.4297 C   0  0  0  0  0  0  0  0  0  0  0  0
   21.5047   -6.5134  -23.5534 C   0  0  0  0  0  0  0  0  0  0  0  0
   22.2351   -5.3507  -23.5098 C   0  0  0  0  0  0  0  0  0  0  0  0
   22.3126   -4.6073  -22.3312 C   0  0  0  0  0  0  0  0  0  0  0  0
   21.6563   -5.0420  -21.2156 C   0  0  0  0  0  0  0  0  0  0  0  0
   20.5290   -7.7921  -17.9394 C   0  0  0  0  0  0  0  0  0  0  0  0
   19.8303   -8.7974  -17.7648 O   0  0  0  0  0  0  0  0  0  0  0  0
   21.3962   -9.2999  -10.6510 C   0  0  0  0  0  0  0  0  0  0  0  0
   22.0246   -8.5655  -12.1807 S   0  0  0  0  0  0  0  0  0  0  0  0
   20.6550   -7.8964  -13.1915 C   0  0  0  0  0  0  0  0  0  0  0  0
   21.2393   -7.5531  -14.5395 C   0  0  0  0  0  0  0  0  0  0  0  0
   20.1996   -7.0903  -15.5293 C   0  0  2  0  0  0  0  0  0  0  0  0
   20.7054   -6.8977  -16.8478 N   0  0  0  0  0  0  0  0  0  0  0  0
   19.6427   -5.8157  -15.0209 C   0  0  0  0  0  0  0  0  0  0  0  0
   20.4239   -4.8428  -14.9094 O   0  0  0  0  0  0  0  0  0  0  0  0
   15.4288   -3.8461  -14.1202 O   0  0  0  0  0  0  0  0  0  0  0  0
   16.4356   -4.1805  -15.0225 C   0  0  0  0  0  0  0  0  0  0  0  0
   17.7116   -4.4056  -14.2019 C   0  0  2  0  0  0  0  0  0  0  0  0
   18.2903   -5.6292  -14.6552 N   0  0  0  0  0  0  0  0  0  0  0  0
   17.4490   -4.3524  -12.7661 C   0  0  0  0  0  0  0  0  0  0  0  0
   17.6555   -5.4079  -11.8876 O   0  0  0  0  0  0  0  0  0  0  0  0
   17.0043   -3.2829  -12.2743 O   0  0  0  0  0  0  0  0  0  0  0  0
  2  1  1  6
  3  2  1  0
  4  3  1  0
  5  4  2  0
  6  5  1  0
  7  6  2  0
  7  8  1  0
  8  9  2  0
  9  4  1  0
 10  2  1  0
 10 11  2  0
 13 12  1  0
 14 13  1  0
 16 15  1  1
 15 14  1  0
 16 17  1  0
 17 10  1  0
 18 16  1  0
 19 18  2  0
 21 20  1  0
 22 21  1  6
 22 23  1  0
 23 18  1  0
 24 22  1  0
 25 24  1  0
 26 24  2  0
M  END
$$$$
