FMS.pdb
     RDKit          3D

 26 26  0  0  1  0  0  0  0  0999 V2000
    9.2328  -18.5069    0.4038 N   0  0  0  0  0  0  0  0  0  0  0  0
   10.4864  -18.7304   -0.2432 C   0  0  1  0  0  0  0  0  0  0  0  0
   11.1558  -17.4603   -0.6972 C   0  0  0  0  0  0  0  0  0  0  0  0
   10.2759  -16.8030   -1.6958 C   0  0  0  0  0  0  0  0  0  0  0  0
    9.5159  -15.7237   -1.3108 C   0  0  0  0  0  0  0  0  0  0  0  0
    8.7011  -15.1199   -2.2450 C   0  0  0  0  0  0  0  0  0  0  0  0
    8.6571  -15.5956   -3.5330 C   0  0  0  0  0  0  0  0  0  0  0  0
    9.4342  -16.6920   -3.9094 C   0  0  0  0  0  0  0  0  0  0  0  0
   10.2427  -17.2935   -2.9882 C   0  0  0  0  0  0  0  0  0  0  0  0
   11.4593  -19.4604    0.6193 C   0  0  0  0  0  0  0  0  0  0  0  0
   11.5036  -19.2081    1.8291 O   0  0  0  0  0  0  0  0  0  0  0  0
   16.5809  -25.6164    0.7374 C   0  0  0  0  0  0  0  0  0  0  0  0
   15.5059  -24.4844   -0.1775 S   0  0  0  0  0  0  0  0  0  0  0  0
   14.7285  -23.2719    0.9498 C   0  0  0  0  0  0  0  0  0  0  0  0
   13.9087  -22.3434    0.0882 C   0  0  0  0  0  0  0  0  0  0  0  0
   13.2164  -21.2640    0.8823 C   0  0  2  0  0  0  0  0  0  0  0  0
   12.3475  -20.4447    0.1045 N   0  0  0  0  0  0  0  0  0  0  0  0
   14.2698  -20.4247    1.4981 C   0  0  0  0  0  0  0  0  0  0  0  0
   14.7841  -19.5261    0.7928 O   0  0  0  0  0  0  0  0  0  0  0  0
   15.9157  -17.9259    4.9212 O   0  0  0  0  0  0  0  0  0  0  0  0
   14.9703  -18.8135    4.4130 C   0  0  0  0  0  0  0  0  0  0  0  0
   15.7142  -19.7599    3.4628 C   0  0  2  0  0  0  0  0  0  0  0  0
   14.7290  -20.5735    2.8264 N   0  0  0  0  0  0  0  0  0  0  0  0
   16.7649  -20.5043    4.1519 C   0  0  0  0  0  0  0  0  0  0  0  0
   16.6806  -21.8456    4.5016 O   0  0  0  0  0  0  0  0  0  0  0  0
   17.8274  -19.9035    4.4577 O   0  0  0  0  0  0  0  0  0  0  0  0
  2  1  1  1
  3  2  1  0
  4  3  1  0
  5  4  2  0
  6  5  1  0
  7  6  2  0
  7  8  1  0
  8  9  2  0
  9  4  1  0
 10  2  1  0
 10 11  2  0
 13 12  1  0
 14 13  1  0
 16 15  1  6
 15 14  1  0
 16 17  1  0
 17 10  1  0
 18 16  1  0
 19 18  2  0
 21 20  1  0
 22 21  1  1
 22 23  1  0
 23 18  1  0
 24 22  1  0
 25 24  1  0
 26 24  2  0
M  END
$$$$
