FMS.pdb
     RDKit          3D

 26 26  0  0  1  0  0  0  0  0999 V2000
   27.1414  -18.2589   -7.6376 N   0  0  0  0  0  0  0  0  0  0  0  0
   27.1980  -19.6624   -7.8964 C   0  0  1  0  0  0  0  0  0  0  0  0
   26.8039  -20.5019   -6.7101 C   0  0  0  0  0  0  0  0  0  0  0  0
   27.7377  -20.1992   -5.5965 C   0  0  0  0  0  0  0  0  0  0  0  0
   29.0922  -20.2297   -5.8316 C   0  0  0  0  0  0  0  0  0  0  0  0
   29.9519  -19.9479   -4.7912 C   0  0  0  0  0  0  0  0  0  0  0  0
   29.4542  -19.6437   -3.5475 C   0  0  0  0  0  0  0  0  0  0  0  0
   28.0769  -19.6166   -3.3235 C   0  0  0  0  0  0  0  0  0  0  0  0
   27.2212  -19.8949   -4.3505 C   0  0  0  0  0  0  0  0  0  0  0  0
   26.3320  -20.0743   -9.0382 C   0  0  0  0  0  0  0  0  0  0  0  0
   25.2057  -19.5769   -9.1538 O   0  0  0  0  0  0  0  0  0  0  0  0
   30.8321  -22.3215  -11.4566 C   0  0  0  0  0  0  0  0  0  0  0  0
   30.4993  -20.8592  -12.4690 S   0  0  0  0  0  0  0  0  0  0  0  0
   28.8987  -20.1017  -12.0111 C   0  0  0  0  0  0  0  0  0  0  0  0
   27.8453  -21.1640  -12.2065 C   0  0  0  0  0  0  0  0  0  0  0  0
   26.5869  -20.8945  -11.4198 C   0  0  2  0  0  0  0  0  0  0  0  0
   26.7504  -21.0248  -10.0100 N   0  0  0  0  0  0  0  0  0  0  0  0
   25.5590  -21.8513  -11.8901 C   0  0  0  0  0  0  0  0  0  0  0  0
   25.2493  -22.7946  -11.1262 O   0  0  0  0  0  0  0  0  0  0  0  0
   22.3637  -20.2043  -13.1165 O   0  0  0  0  0  0  0  0  0  0  0  0
   22.6468  -21.4122  -12.4835 C   0  0  0  0  0  0  0  0  0  0  0  0
   23.5756  -22.1971  -13.4181 C   0  0  2  0  0  0  0  0  0  0  0  0
   24.9082  -21.7668  -13.1419 N   0  0  0  0  0  0  0  0  0  0  0  0
   23.1725  -22.0687  -14.8160 C   0  0  0  0  0  0  0  0  0  0  0  0
   22.0616  -22.6861  -15.3757 O   0  0  0  0  0  0  0  0  0  0  0  0
   23.8695  -21.3525  -15.5806 O   0  0  0  0  0  0  0  0  0  0  0  0
  2  1  1  1
  3  2  1  0
  4  3  1  0
  5  4  2  0
  6  5  1  0
  7  6  2  0
  7  8  1  0
  8  9  2  0
  9  4  1  0
 10  2  1  0
 10 11  2  0
 13 12  1  0
 14 13  1  0
 16 15  1  6
 15 14  1  0
 16 17  1  0
 17 10  1  0
 18 16  1  0
 19 18  2  0
 21 20  1  0
 22 21  1  1
 22 23  1  0
 23 18  1  0
 24 22  1  0
 25 24  1  0
 26 24  2  0
M  END
$$$$
