FMS.pdb
     RDKit          3D

 26 26  0  0  1  0  0  0  0  0999 V2000
   24.0510   -9.6699  -17.9267 N   0  0  0  0  0  0  0  0  0  0  0  0
   23.5835   -8.6841  -17.0050 C   0  0  1  0  0  0  0  0  0  0  0  0
   24.6836   -7.8157  -16.4546 C   0  0  0  0  0  0  0  0  0  0  0  0
   25.8415   -8.6851  -16.1272 C   0  0  0  0  0  0  0  0  0  0  0  0
   25.7761   -9.4983  -15.0202 C   0  0  0  0  0  0  0  0  0  0  0  0
   26.8564  -10.3018  -14.7235 C   0  0  0  0  0  0  0  0  0  0  0  0
   27.9719  -10.2827  -15.5251 C   0  0  0  0  0  0  0  0  0  0  0  0
   28.0242   -9.4521  -16.6454 C   0  0  0  0  0  0  0  0  0  0  0  0
   26.9570   -8.6544  -16.9437 C   0  0  0  0  0  0  0  0  0  0  0  0
   22.5588   -7.7782  -17.5988 C   0  0  0  0  0  0  0  0  0  0  0  0
   22.4096   -7.7554  -18.8262 O   0  0  0  0  0  0  0  0  0  0  0  0
   17.3350   -8.8523  -18.2281 C   0  0  0  0  0  0  0  0  0  0  0  0
   17.0158   -7.1700  -18.8133 S   0  0  0  0  0  0  0  0  0  0  0  0
   18.3972   -6.0551  -18.3726 C   0  0  0  0  0  0  0  0  0  0  0  0
   19.4724   -6.9189  -17.7609 C   0  0  0  0  0  0  0  0  0  0  0  0
   20.6659   -6.1254  -17.2907 C   0  0  2  0  0  0  0  0  0  0  0  0
   21.7374   -6.9303  -16.8056 N   0  0  0  0  0  0  0  0  0  0  0  0
   20.1987   -5.2212  -16.2149 C   0  0  0  0  0  0  0  0  0  0  0  0
   20.4664   -5.5368  -15.0325 O   0  0  0  0  0  0  0  0  0  0  0  0
   21.4514   -1.3048  -15.2191 O   0  0  0  0  0  0  0  0  0  0  0  0
   21.2134   -2.4929  -15.9058 C   0  0  0  0  0  0  0  0  0  0  0  0
   19.7103   -2.7771  -15.7953 C   0  0  2  0  0  0  0  0  0  0  0  0
   19.4728   -4.0293  -16.4382 N   0  0  0  0  0  0  0  0  0  0  0  0
   18.9099   -1.6685  -16.3088 C   0  0  0  0  0  0  0  0  0  0  0  0
   18.4781   -1.5510  -17.6233 O   0  0  0  0  0  0  0  0  0  0  0  0
   18.5799   -0.7470  -15.5181 O   0  0  0  0  0  0  0  0  0  0  0  0
  2  1  1  6
  3  2  1  0
  4  3  1  0
  5  4  2  0
  6  5  1  0
  7  6  2  0
  7  8  1  0
  8  9  2  0
  9  4  1  0
 10  2  1  0
 10 11  2  0
 13 12  1  0
 14 13  1  0
 16 15  1  1
 15 14  1  0
 16 17  1  0
 17 10  1  0
 18 16  1  0
 19 18  2  0
 21 20  1  0
 22 21  1  6
 22 23  1  0
 23 18  1  0
 24 22  1  0
 25 24  1  0
 26 24  2  0
M  END
$$$$
