FMS.pdb
     RDKit          3D

 26 26  0  0  1  0  0  0  0  0999 V2000
   26.8476  -11.4470  -18.9656 N   0  0  0  0  0  0  0  0  0  0  0  0
   26.8484  -10.4229  -17.9700 C   0  0  1  0  0  0  0  0  0  0  0  0
   27.4031   -9.1133  -18.4646 C   0  0  0  0  0  0  0  0  0  0  0  0
   28.8450   -9.3028  -18.7624 C   0  0  0  0  0  0  0  0  0  0  0  0
   29.2261   -9.6394  -20.0401 C   0  0  0  0  0  0  0  0  0  0  0  0
   30.5674   -9.8139  -20.3073 C   0  0  0  0  0  0  0  0  0  0  0  0
   31.4970   -9.6521  -19.3089 C   0  0  0  0  0  0  0  0  0  0  0  0
   31.0955   -9.3104  -18.0167 C   0  0  0  0  0  0  0  0  0  0  0  0
   29.7684   -9.1364  -17.7468 C   0  0  0  0  0  0  0  0  0  0  0  0
   25.4890  -10.1496  -17.4218 C   0  0  0  0  0  0  0  0  0  0  0  0
   24.5188  -10.1356  -18.1885 O   0  0  0  0  0  0  0  0  0  0  0  0
   22.4073  -14.1731  -14.4007 C   0  0  0  0  0  0  0  0  0  0  0  0
   22.4699  -12.3724  -14.5682 S   0  0  0  0  0  0  0  0  0  0  0  0
   24.0060  -11.7040  -13.8341 C   0  0  0  0  0  0  0  0  0  0  0  0
   23.9417  -10.2043  -13.9866 C   0  0  0  0  0  0  0  0  0  0  0  0
   23.9797   -9.7586  -15.4270 C   0  0  2  0  0  0  0  0  0  0  0  0
   25.2582   -9.9018  -16.0404 N   0  0  0  0  0  0  0  0  0  0  0  0
   23.5708   -8.3356  -15.4597 C   0  0  0  0  0  0  0  0  0  0  0  0
   24.4721   -7.4693  -15.3803 O   0  0  0  0  0  0  0  0  0  0  0  0
   21.8536   -4.8736  -17.4576 O   0  0  0  0  0  0  0  0  0  0  0  0
   22.2056   -6.2054  -17.2521 C   0  0  0  0  0  0  0  0  0  0  0  0
   21.8154   -6.5512  -15.8098 C   0  0  2  0  0  0  0  0  0  0  0  0
   22.2325   -7.8958  -15.5744 N   0  0  0  0  0  0  0  0  0  0  0  0
   20.3989   -6.3008  -15.5567 C   0  0  0  0  0  0  0  0  0  0  0  0
   19.4455   -7.2920  -15.3646 O   0  0  0  0  0  0  0  0  0  0  0  0
   19.9974   -5.1093  -15.5062 O   0  0  0  0  0  0  0  0  0  0  0  0
  2  1  1  6
  3  2  1  0
  4  3  1  0
  5  4  2  0
  6  5  1  0
  7  6  2  0
  7  8  1  0
  8  9  2  0
  9  4  1  0
 10  2  1  0
 10 11  2  0
 13 12  1  0
 14 13  1  0
 16 15  1  1
 15 14  1  0
 16 17  1  0
 17 10  1  0
 18 16  1  0
 19 18  2  0
 21 20  1  0
 22 21  1  6
 22 23  1  0
 23 18  1  0
 24 22  1  0
 25 24  1  0
 26 24  2  0
M  END
$$$$
