FMS.pdb
     RDKit          3D

 26 26  0  0  1  0  0  0  0  0999 V2000
   28.5567  -21.0569  -15.7986 N   0  0  0  0  0  0  0  0  0  0  0  0
   27.7261  -20.1733  -15.0441 C   0  0  1  0  0  0  0  0  0  0  0  0
   26.8746  -19.2779  -15.9047 C   0  0  0  0  0  0  0  0  0  0  0  0
   27.7252  -18.1688  -16.4046 C   0  0  0  0  0  0  0  0  0  0  0  0
   28.3655  -18.3089  -17.6135 C   0  0  0  0  0  0  0  0  0  0  0  0
   29.1539  -17.2738  -18.0695 C   0  0  0  0  0  0  0  0  0  0  0  0
   29.2904  -16.1290  -17.3227 C   0  0  0  0  0  0  0  0  0  0  0  0
   28.6345  -16.0009  -16.0974 C   0  0  0  0  0  0  0  0  0  0  0  0
   27.8525  -17.0230  -15.6412 C   0  0  0  0  0  0  0  0  0  0  0  0
   26.8109  -20.8947  -14.1138 C   0  0  0  0  0  0  0  0  0  0  0  0
   26.2929  -21.9572  -14.4772 O   0  0  0  0  0  0  0  0  0  0  0  0
   26.8765  -20.4007   -7.6072 C   0  0  0  0  0  0  0  0  0  0  0  0
   25.0903  -20.5068   -7.8764 S   0  0  0  0  0  0  0  0  0  0  0  0
   24.7216  -21.1504   -9.5482 C   0  0  0  0  0  0  0  0  0  0  0  0
   25.7373  -20.5387  -10.4813 C   0  0  0  0  0  0  0  0  0  0  0  0
   25.5662  -20.9877  -11.9111 C   0  0  2  0  0  0  0  0  0  0  0  0
   26.5053  -20.4079  -12.8128 N   0  0  0  0  0  0  0  0  0  0  0  0
   24.1916  -20.6253  -12.3260 C   0  0  0  0  0  0  0  0  0  0  0  0
   23.9602  -19.4215  -12.5844 O   0  0  0  0  0  0  0  0  0  0  0  0
   21.5815  -23.5226  -13.5165 O   0  0  0  0  0  0  0  0  0  0  0  0
   21.5368  -22.2480  -14.0761 C   0  0  0  0  0  0  0  0  0  0  0  0
   21.8228  -21.2545  -12.9433 C   0  0  2  0  0  0  0  0  0  0  0  0
   23.1289  -21.5489  -12.4483 N   0  0  0  0  0  0  0  0  0  0  0  0
   20.7708  -21.2701  -11.9302 C   0  0  0  0  0  0  0  0  0  0  0  0
   19.4341  -20.9866  -12.1779 O   0  0  0  0  0  0  0  0  0  0  0  0
   21.0800  -21.5584  -10.7451 O   0  0  0  0  0  0  0  0  0  0  0  0
  2  1  1  6
  3  2  1  0
  4  3  1  0
  5  4  2  0
  6  5  1  0
  7  6  2  0
  7  8  1  0
  8  9  2  0
  9  4  1  0
 10  2  1  0
 10 11  2  0
 13 12  1  0
 14 13  1  0
 16 15  1  1
 15 14  1  0
 16 17  1  0
 17 10  1  0
 18 16  1  0
 19 18  2  0
 21 20  1  0
 22 21  1  6
 22 23  1  0
 23 18  1  0
 24 22  1  0
 25 24  1  0
 26 24  2  0
M  END
$$$$
