AVY.pdb
     RDKit          3D

 25 25  0  0  1  0  0  0  0  0999 V2000
   24.0847  -24.7101  -14.7010 C   0  0  0  0  0  0  0  0  0  0  0  0
   24.8437  -23.7737  -15.5853 C   0  0  2  0  0  0  0  0  0  0  0  0
   25.6130  -24.5124  -16.5324 N   0  0  0  0  0  0  0  0  0  0  0  0
   25.6986  -22.8251  -14.8392 C   0  0  0  0  0  0  0  0  0  0  0  0
   26.8728  -23.1441  -14.5448 O   0  0  0  0  0  0  0  0  0  0  0  0
   26.5360  -18.2653  -13.0531 C   0  0  0  0  0  0  0  0  0  0  0  0
   25.7458  -19.1952  -13.9453 C   0  0  1  0  0  0  0  0  0  0  0  0
   25.9904  -18.8290  -15.3706 C   0  0  0  0  0  0  0  0  0  0  0  0
   26.0502  -20.6447  -13.6471 C   0  0  2  0  0  0  0  0  0  0  0  0
   25.2390  -21.5448  -14.4340 N   0  0  0  0  0  0  0  0  0  0  0  0
   25.8910  -20.8746  -12.1909 C   0  0  0  0  0  0  0  0  0  0  0  0
   24.7492  -21.1217  -11.6813 O   0  0  0  0  0  0  0  0  0  0  0  0
   28.3405  -19.8831   -3.6742 O   0  0  0  0  0  0  0  0  0  0  0  0
   28.2811  -19.9713   -5.0467 C   0  0  0  0  0  0  0  0  0  0  0  0
   28.6069  -21.1873   -5.6452 C   0  0  0  0  0  0  0  0  0  0  0  0
   28.5520  -21.2921   -7.0244 C   0  0  0  0  0  0  0  0  0  0  0  0
   28.1840  -20.2281   -7.8267 C   0  0  0  0  0  0  0  0  0  0  0  0
   28.1361  -20.3462   -9.2756 C   0  0  0  0  0  0  0  0  0  0  0  0
   26.8920  -20.8894   -9.8712 C   0  0  2  0  0  0  0  0  0  0  0  0
   27.0240  -20.8217  -11.3354 N   0  0  0  0  0  0  0  0  0  0  0  0
   25.7128  -20.1578   -9.4078 C   0  0  0  0  0  0  0  0  0  0  0  0
   24.9306  -20.6417   -8.5545 O   0  0  0  0  0  0  0  0  0  0  0  0
   27.8619  -19.0257   -7.2373 C   0  0  0  0  0  0  0  0  0  0  0  0
   27.9141  -18.9099   -5.8478 C   0  0  0  0  0  0  0  0  0  0  0  0
   25.4493  -18.8899   -9.9263 O   0  0  0  0  0  0  0  0  0  0  0  0
  2  4  1  0
  2  1  1  1
  3  2  1  0
  4  5  2  0
  7  9  1  0
  7  6  1  1
  8  7  1  0
  9 10  1  6
 10  4  1  0
 11  9  1  0
 12 11  2  0
 13 14  1  0
 14 15  2  0
 15 16  1  0
 17 16  2  0
 17 18  1  0
 19 18  1  1
 19 21  1  0
 19 20  1  0
 20 11  1  0
 21 25  1  0
 22 21  2  0
 23 17  1  0
 24 14  1  0
 24 23  2  0
M  END
$$$$
