AVY.pdb
     RDKit          3D

 25 25  0  0  1  0  0  0  0  0999 V2000
   19.1969  -11.9966  -22.6697 C   0  0  0  0  0  0  0  0  0  0  0  0
   19.6932  -10.8114  -23.4338 C   0  0  2  0  0  0  0  0  0  0  0  0
   20.4317  -11.2414  -24.5759 N   0  0  0  0  0  0  0  0  0  0  0  0
   20.4924   -9.8763  -22.6127 C   0  0  0  0  0  0  0  0  0  0  0  0
   21.7220  -10.0649  -22.4733 O   0  0  0  0  0  0  0  0  0  0  0  0
   21.1659   -6.2645  -23.1844 C   0  0  0  0  0  0  0  0  0  0  0  0
   20.5479   -6.3878  -21.8103 C   0  0  1  0  0  0  0  0  0  0  0  0
   19.1235   -5.9490  -21.8745 C   0  0  0  0  0  0  0  0  0  0  0  0
   20.7122   -7.7808  -21.2491 C   0  0  2  0  0  0  0  0  0  0  0  0
   19.9170   -8.7531  -21.9631 N   0  0  0  0  0  0  0  0  0  0  0  0
   20.3940   -7.7512  -19.8010 C   0  0  0  0  0  0  0  0  0  0  0  0
   19.2132   -7.9789  -19.3786 O   0  0  0  0  0  0  0  0  0  0  0  0
   20.9173   -9.0950  -11.2113 O   0  0  0  0  0  0  0  0  0  0  0  0
   21.0993   -8.9922  -12.5719 C   0  0  0  0  0  0  0  0  0  0  0  0
   20.0562   -8.4792  -13.3411 C   0  0  0  0  0  0  0  0  0  0  0  0
   20.2238   -8.3694  -14.7108 C   0  0  0  0  0  0  0  0  0  0  0  0
   21.3937   -8.7528  -15.3396 C   0  0  0  0  0  0  0  0  0  0  0  0
   21.5575   -8.6400  -16.7804 C   0  0  0  0  0  0  0  0  0  0  0  0
   21.1301   -7.3700  -17.4144 C   0  0  2  0  0  0  0  0  0  0  0  0
   21.4147   -7.4651  -18.8552 N   0  0  0  0  0  0  0  0  0  0  0  0
   21.8028   -6.2184  -16.8130 C   0  0  0  0  0  0  0  0  0  0  0  0
   22.9062   -5.8023  -17.2415 O   0  0  0  0  0  0  0  0  0  0  0  0
   22.4256   -9.2601  -14.5814 C   0  0  0  0  0  0  0  0  0  0  0  0
   22.2666   -9.3747  -13.1999 C   0  0  0  0  0  0  0  0  0  0  0  0
   21.2045   -5.5648  -15.7358 O   0  0  0  0  0  0  0  0  0  0  0  0
  2  4  1  0
  2  1  1  1
  3  2  1  0
  4  5  2  0
  7  9  1  0
  7  6  1  6
  8  7  1  0
  9 10  1  6
 10  4  1  0
 11  9  1  0
 12 11  2  0
 13 14  1  0
 14 15  2  0
 15 16  1  0
 17 16  2  0
 17 18  1  0
 19 18  1  1
 19 21  1  0
 19 20  1  0
 20 11  1  0
 21 25  1  0
 22 21  2  0
 23 17  1  0
 24 14  1  0
 24 23  2  0
M  END
$$$$
