AVY.pdb
     RDKit          3D

 25 25  0  0  1  0  0  0  0  0999 V2000
   34.0106  -28.7644  -20.3908 C   0  0  0  0  0  0  0  0  0  0  0  0
   34.8658  -28.4956  -19.1945 C   0  0  2  0  0  0  0  0  0  0  0  0
   35.7056  -29.6185  -18.9327 N   0  0  0  0  0  0  0  0  0  0  0  0
   34.0909  -28.1268  -17.9900 C   0  0  0  0  0  0  0  0  0  0  0  0
   34.4238  -28.5812  -16.8721 O   0  0  0  0  0  0  0  0  0  0  0  0
   34.0217  -24.7282  -16.9514 C   0  0  0  0  0  0  0  0  0  0  0  0
   33.4442  -25.8407  -16.1064 C   0  0  1  0  0  0  0  0  0  0  0  0
   32.9168  -25.2647  -14.8353 C   0  0  0  0  0  0  0  0  0  0  0  0
   32.4109  -26.6383  -16.8670 C   0  0  2  0  0  0  0  0  0  0  0  0
   32.9649  -27.2643  -18.0454 N   0  0  0  0  0  0  0  0  0  0  0  0
   31.2671  -25.7512  -17.1889 C   0  0  0  0  0  0  0  0  0  0  0  0
   31.3495  -24.8735  -18.1095 O   0  0  0  0  0  0  0  0  0  0  0  0
   22.4567  -24.4634  -17.7699 O   0  0  0  0  0  0  0  0  0  0  0  0
   23.7278  -24.8350  -17.3943 C   0  0  0  0  0  0  0  0  0  0  0  0
   24.5882  -25.3287  -18.3736 C   0  0  0  0  0  0  0  0  0  0  0  0
   25.8699  -25.7066  -18.0119 C   0  0  0  0  0  0  0  0  0  0  0  0
   26.3230  -25.6096  -16.7094 C   0  0  0  0  0  0  0  0  0  0  0  0
   27.6693  -26.0159  -16.3380 C   0  0  0  0  0  0  0  0  0  0  0  0
   28.7958  -25.2789  -16.9586 C   0  0  2  0  0  0  0  0  0  0  0  0
   30.0500  -25.8706  -16.4658 N   0  0  0  0  0  0  0  0  0  0  0  0
   28.7282  -23.8481  -16.6610 C   0  0  0  0  0  0  0  0  0  0  0  0
   29.0329  -23.3952  -15.5313 O   0  0  0  0  0  0  0  0  0  0  0  0
   25.4743  -25.1223  -15.7402 C   0  0  0  0  0  0  0  0  0  0  0  0
   24.1805  -24.7386  -16.0947 C   0  0  0  0  0  0  0  0  0  0  0  0
   28.3149  -22.9630  -17.6566 O   0  0  0  0  0  0  0  0  0  0  0  0
  2  4  1  0
  2  1  1  6
  3  2  1  0
  4  5  2  0
  7  9  1  0
  7  6  1  6
  8  7  1  0
  9 10  1  6
 10  4  1  0
 11  9  1  0
 12 11  2  0
 13 14  1  0
 14 15  2  0
 15 16  1  0
 17 16  2  0
 17 18  1  0
 19 18  1  1
 19 21  1  0
 19 20  1  0
 20 11  1  0
 21 25  1  0
 22 21  2  0
 23 17  1  0
 24 14  1  0
 24 23  2  0
M  END
$$$$
