AVY.pdb
     RDKit          3D

 25 25  0  0  1  0  0  0  0  0999 V2000
   27.3569  -24.5638  -16.5729 C   0  0  0  0  0  0  0  0  0  0  0  0
   28.6099  -23.7493  -16.5338 C   0  0  2  0  0  0  0  0  0  0  0  0
   28.4362  -22.5503  -17.2867 N   0  0  0  0  0  0  0  0  0  0  0  0
   29.8055  -24.4892  -16.9923 C   0  0  0  0  0  0  0  0  0  0  0  0
   30.0739  -24.5431  -18.2138 O   0  0  0  0  0  0  0  0  0  0  0  0
   33.4963  -24.0564  -16.2133 C   0  0  0  0  0  0  0  0  0  0  0  0
   33.0985  -25.4649  -15.8345 C   0  0  1  0  0  0  0  0  0  0  0  0
   32.9974  -25.5608  -14.3493 C   0  0  0  0  0  0  0  0  0  0  0  0
   31.8348  -25.8955  -16.5418 C   0  0  2  0  0  0  0  0  0  0  0  0
   30.6792  -25.1537  -16.0925 N   0  0  0  0  0  0  0  0  0  0  0  0
   31.6654  -27.3581  -16.3651 C   0  0  0  0  0  0  0  0  0  0  0  0
   31.4977  -27.8696  -15.2098 O   0  0  0  0  0  0  0  0  0  0  0  0
   28.4728  -35.3189  -16.7515 O   0  0  0  0  0  0  0  0  0  0  0  0
   28.8616  -34.0030  -16.8623 C   0  0  0  0  0  0  0  0  0  0  0  0
   29.3731  -33.3678  -15.7318 C   0  0  0  0  0  0  0  0  0  0  0  0
   29.7685  -32.0446  -15.8270 C   0  0  0  0  0  0  0  0  0  0  0  0
   29.6718  -31.3335  -17.0086 C   0  0  0  0  0  0  0  0  0  0  0  0
   30.0835  -29.9413  -17.0967 C   0  0  0  0  0  0  0  0  0  0  0  0
   31.5165  -29.6733  -17.3654 C   0  0  2  0  0  0  0  0  0  0  0  0
   31.6881  -28.2175  -17.4961 N   0  0  0  0  0  0  0  0  0  0  0  0
   31.9766  -30.3741  -18.5644 C   0  0  0  0  0  0  0  0  0  0  0  0
   32.2460  -31.5994  -18.5487 O   0  0  0  0  0  0  0  0  0  0  0  0
   29.1665  -31.9592  -18.1267 C   0  0  0  0  0  0  0  0  0  0  0  0
   28.7653  -33.2928  -18.0411 C   0  0  0  0  0  0  0  0  0  0  0  0
   32.1201  -29.6643  -19.7566 O   0  0  0  0  0  0  0  0  0  0  0  0
  2  4  1  0
  2  1  1  6
  3  2  1  0
  4  5  2  0
  7  9  1  0
  7  6  1  1
  8  7  1  0
  9 10  1  1
 10  4  1  0
 11  9  1  0
 12 11  2  0
 13 14  1  0
 14 15  2  0
 15 16  1  0
 17 16  2  0
 17 18  1  0
 19 18  1  6
 19 21  1  0
 19 20  1  0
 20 11  1  0
 21 25  1  0
 22 21  2  0
 23 17  1  0
 24 14  1  0
 24 23  2  0
M  END
$$$$
