AVY.pdb
     RDKit          3D

 25 25  0  0  1  0  0  0  0  0999 V2000
   25.4373  -24.2361  -17.2561 C   0  0  0  0  0  0  0  0  0  0  0  0
   26.5898  -23.3840  -17.6811 C   0  0  2  0  0  0  0  0  0  0  0  0
   27.6387  -24.2028  -18.1949 N   0  0  0  0  0  0  0  0  0  0  0  0
   27.0920  -22.4985  -16.6083 C   0  0  0  0  0  0  0  0  0  0  0  0
   28.1688  -22.7694  -16.0303 O   0  0  0  0  0  0  0  0  0  0  0  0
   27.0357  -18.0855  -14.3706 C   0  0  0  0  0  0  0  0  0  0  0  0
   26.7433  -18.9946  -15.5426 C   0  0  1  0  0  0  0  0  0  0  0  0
   27.5976  -18.5923  -16.6974 C   0  0  0  0  0  0  0  0  0  0  0  0
   26.9005  -20.4504  -15.1704 C   0  0  2  0  0  0  0  0  0  0  0  0
   26.3947  -21.3328  -16.1966 N   0  0  0  0  0  0  0  0  0  0  0  0
   26.2447  -20.6802  -13.8604 C   0  0  0  0  0  0  0  0  0  0  0  0
   24.9751  -20.6829  -13.7478 O   0  0  0  0  0  0  0  0  0  0  0  0
   26.4204  -19.4427   -5.0881 O   0  0  0  0  0  0  0  0  0  0  0  0
   26.7165  -19.8110   -6.3811 C   0  0  0  0  0  0  0  0  0  0  0  0
   25.8591  -20.6996   -7.0277 C   0  0  0  0  0  0  0  0  0  0  0  0
   26.1431  -21.0796   -8.3282 C   0  0  0  0  0  0  0  0  0  0  0  0
   27.2507  -20.6050   -9.0056 C   0  0  0  0  0  0  0  0  0  0  0  0
   27.5444  -21.0157  -10.3696 C   0  0  0  0  0  0  0  0  0  0  0  0
   26.4393  -20.9371  -11.3546 C   0  0  2  0  0  0  0  0  0  0  0  0
   27.0339  -20.9032  -12.7004 N   0  0  0  0  0  0  0  0  0  0  0  0
   25.5921  -19.7684  -11.1165 C   0  0  0  0  0  0  0  0  0  0  0  0
   25.9922  -18.6042  -11.3592 O   0  0  0  0  0  0  0  0  0  0  0  0
   28.0993  -19.7269   -8.3684 C   0  0  0  0  0  0  0  0  0  0  0  0
   27.8217  -19.3377   -7.0576 C   0  0  0  0  0  0  0  0  0  0  0  0
   24.3064  -19.9502  -10.6068 O   0  0  0  0  0  0  0  0  0  0  0  0
  2  4  1  0
  2  1  1  1
  3  2  1  0
  4  5  2  0
  7  9  1  0
  7  6  1  1
  8  7  1  0
  9 10  1  6
 10  4  1  0
 11  9  1  0
 12 11  2  0
 13 14  1  0
 14 15  2  0
 15 16  1  0
 17 16  2  0
 17 18  1  0
 19 18  1  1
 19 21  1  0
 19 20  1  0
 20 11  1  0
 21 25  1  0
 22 21  2  0
 23 17  1  0
 24 14  1  0
 24 23  2  0
M  END
$$$$
