AVY.pdb
     RDKit          3D

 25 25  0  0  1  0  0  0  0  0999 V2000
   26.9997  -25.6341  -16.7525 C   0  0  0  0  0  0  0  0  0  0  0  0
   26.8346  -24.4542  -17.6555 C   0  0  2  0  0  0  0  0  0  0  0  0
   28.0006  -24.2885  -18.4602 N   0  0  0  0  0  0  0  0  0  0  0  0
   26.5117  -23.2039  -16.9345 C   0  0  0  0  0  0  0  0  0  0  0  0
   27.3727  -22.3004  -16.8385 O   0  0  0  0  0  0  0  0  0  0  0  0
   23.1598  -19.9597  -15.4093 C   0  0  0  0  0  0  0  0  0  0  0  0
   23.6058  -21.1574  -16.2168 C   0  0  1  0  0  0  0  0  0  0  0  0
   23.6732  -20.7768  -17.6577 C   0  0  0  0  0  0  0  0  0  0  0  0
   24.9037  -21.7283  -15.6952 C   0  0  2  0  0  0  0  0  0  0  0  0
   25.2452  -22.9780  -16.3348 N   0  0  0  0  0  0  0  0  0  0  0  0
   24.8071  -21.8609  -14.2214 C   0  0  0  0  0  0  0  0  0  0  0  0
   24.0034  -22.6910  -13.6834 O   0  0  0  0  0  0  0  0  0  0  0  0
   26.8136  -19.8094   -5.7410 O   0  0  0  0  0  0  0  0  0  0  0  0
   26.7570  -19.9107   -7.1127 C   0  0  0  0  0  0  0  0  0  0  0  0
   27.0945  -21.1292   -7.6996 C   0  0  0  0  0  0  0  0  0  0  0  0
   27.0424  -21.2471   -9.0779 C   0  0  0  0  0  0  0  0  0  0  0  0
   26.6660  -20.1939   -9.8904 C   0  0  0  0  0  0  0  0  0  0  0  0
   26.6211  -20.3257  -11.3382 C   0  0  0  0  0  0  0  0  0  0  0  0
   25.4831  -21.0799  -11.9158 C   0  0  2  0  0  0  0  0  0  0  0  0
   25.6198  -21.0539  -13.3809 N   0  0  0  0  0  0  0  0  0  0  0  0
   24.1996  -20.5215  -11.4902 C   0  0  0  0  0  0  0  0  0  0  0  0
   23.7025  -19.5133  -12.0476 O   0  0  0  0  0  0  0  0  0  0  0  0
   26.3323  -18.9890   -9.3124 C   0  0  0  0  0  0  0  0  0  0  0  0
   26.3815  -18.8600   -7.9240 C   0  0  0  0  0  0  0  0  0  0  0  0
   23.5090  -21.1232  -10.4382 O   0  0  0  0  0  0  0  0  0  0  0  0
  2  4  1  0
  2  1  1  1
  3  2  1  0
  4  5  2  0
  7  9  1  0
  7  6  1  1
  8  7  1  0
  9 10  1  6
 10  4  1  0
 11  9  1  0
 12 11  2  0
 13 14  1  0
 14 15  2  0
 15 16  1  0
 17 16  2  0
 17 18  1  0
 19 18  1  1
 19 21  1  0
 19 20  1  0
 20 11  1  0
 21 25  1  0
 22 21  2  0
 23 17  1  0
 24 14  1  0
 24 23  2  0
M  END
$$$$
