AVY.pdb
     RDKit          3D

 25 25  0  0  1  0  0  0  0  0999 V2000
   42.4279   -5.4286   -6.2693 C   0  0  0  0  0  0  0  0  0  0  0  0
   41.0442   -5.8047   -5.8465 C   0  0  2  0  0  0  0  0  0  0  0  0
   40.9278   -5.7209   -4.4273 N   0  0  0  0  0  0  0  0  0  0  0  0
   40.6246   -7.1378   -6.3303 C   0  0  0  0  0  0  0  0  0  0  0  0
   40.8229   -8.1490   -5.6196 O   0  0  0  0  0  0  0  0  0  0  0  0
   37.1854   -8.3098   -7.7057 C   0  0  0  0  0  0  0  0  0  0  0  0
   38.2609   -8.6465   -8.7133 C   0  0  1  0  0  0  0  0  0  0  0  0
   38.1435   -7.7233   -9.8793 C   0  0  0  0  0  0  0  0  0  0  0  0
   39.6351   -8.6339   -8.0858 C   0  0  2  0  0  0  0  0  0  0  0  0
   39.9949   -7.3260   -7.5885 N   0  0  0  0  0  0  0  0  0  0  0  0
   40.6144   -9.1466   -9.0742 C   0  0  0  0  0  0  0  0  0  0  0  0
   41.2671   -8.3550   -9.8304 O   0  0  0  0  0  0  0  0  0  0  0  0
   46.4713  -10.5148   -5.7969 O   0  0  0  0  0  0  0  0  0  0  0  0
   45.5022  -10.9272   -6.6832 C   0  0  0  0  0  0  0  0  0  0  0  0
   45.7356  -10.7519   -8.0462 C   0  0  0  0  0  0  0  0  0  0  0  0
   44.7706  -11.1616   -8.9502 C   0  0  0  0  0  0  0  0  0  0  0  0
   43.5825  -11.7393   -8.5432 C   0  0  0  0  0  0  0  0  0  0  0  0
   42.5717  -12.1602   -9.5006 C   0  0  0  0  0  0  0  0  0  0  0  0
   41.7885  -11.0957  -10.1722 C   0  0  2  0  0  0  0  0  0  0  0  0
   40.8399  -10.5444   -9.1914 N   0  0  0  0  0  0  0  0  0  0  0  0
   41.0956  -11.6064  -11.3552 C   0  0  0  0  0  0  0  0  0  0  0  0
   39.8444  -11.6882  -11.4018 O   0  0  0  0  0  0  0  0  0  0  0  0
   43.3498  -11.9133   -7.1968 C   0  0  0  0  0  0  0  0  0  0  0  0
   44.3162  -11.5038   -6.2776 C   0  0  0  0  0  0  0  0  0  0  0  0
   41.8425  -12.0133  -12.4608 O   0  0  0  0  0  0  0  0  0  0  0  0
  2  4  1  0
  2  1  1  1
  3  2  1  0
  4  5  2  0
  7  9  1  0
  7  6  1  1
  8  7  1  0
  9 10  1  6
 10  4  1  0
 11  9  1  0
 12 11  2  0
 13 14  1  0
 14 15  2  0
 15 16  1  0
 17 16  2  0
 17 18  1  0
 19 18  1  1
 19 21  1  0
 19 20  1  0
 20 11  1  0
 21 25  1  0
 22 21  2  0
 23 17  1  0
 24 14  1  0
 24 23  2  0
M  END
$$$$
