AVY.pdb
     RDKit          3D

 25 25  0  0  1  0  0  0  0  0999 V2000
   27.6392  -25.5179  -22.6473 C   0  0  0  0  0  0  0  0  0  0  0  0
   27.5604  -26.2096  -21.3244 C   0  0  2  0  0  0  0  0  0  0  0  0
   28.4433  -25.5856  -20.3939 N   0  0  0  0  0  0  0  0  0  0  0  0
   27.8238  -27.6627  -21.4053 C   0  0  0  0  0  0  0  0  0  0  0  0
   26.9614  -28.4255  -21.8966 O   0  0  0  0  0  0  0  0  0  0  0  0
   30.9229  -31.4709  -21.5050 C   0  0  0  0  0  0  0  0  0  0  0  0
   30.5804  -30.0064  -21.6580 C   0  0  1  0  0  0  0  0  0  0  0  0
   30.5959  -29.6503  -23.1066 C   0  0  0  0  0  0  0  0  0  0  0  0
   29.2736  -29.6668  -20.9801 C   0  0  2  0  0  0  0  0  0  0  0  0
   29.0337  -28.2426  -20.9419 N   0  0  0  0  0  0  0  0  0  0  0  0
   29.2679  -30.2726  -19.6266 C   0  0  0  0  0  0  0  0  0  0  0  0
   30.0372  -29.8420  -18.7061 O   0  0  0  0  0  0  0  0  0  0  0  0
   26.2944  -34.0062  -12.2799 O   0  0  0  0  0  0  0  0  0  0  0  0
   26.5282  -33.4050  -13.4960 C   0  0  0  0  0  0  0  0  0  0  0  0
   27.5778  -32.4927  -13.5911 C   0  0  0  0  0  0  0  0  0  0  0  0
   27.8257  -31.8797  -14.8072 C   0  0  0  0  0  0  0  0  0  0  0  0
   27.0647  -32.1443  -15.9305 C   0  0  0  0  0  0  0  0  0  0  0  0
   27.3287  -31.4898  -17.2023 C   0  0  0  0  0  0  0  0  0  0  0  0
   28.4216  -32.0441  -18.0365 C   0  0  2  0  0  0  0  0  0  0  0  0
   28.3937  -31.3540  -19.3361 N   0  0  0  0  0  0  0  0  0  0  0  0
   28.2894  -33.4921  -18.1988 C   0  0  0  0  0  0  0  0  0  0  0  0
   27.5789  -33.9913  -19.1044 O   0  0  0  0  0  0  0  0  0  0  0  0
   26.0269  -33.0453  -15.8387 C   0  0  0  0  0  0  0  0  0  0  0  0
   25.7689  -33.6685  -14.6173 C   0  0  0  0  0  0  0  0  0  0  0  0
   28.9696  -34.3413  -17.3260 O   0  0  0  0  0  0  0  0  0  0  0  0
  2  4  1  0
  2  1  1  6
  3  2  1  0
  4  5  2  0
  7  9  1  0
  7  6  1  6
  8  7  1  0
  9 10  1  1
 10  4  1  0
 11  9  1  0
 12 11  2  0
 13 14  1  0
 14 15  2  0
 15 16  1  0
 17 16  2  0
 17 18  1  0
 19 18  1  1
 19 21  1  0
 19 20  1  0
 20 11  1  0
 21 25  1  0
 22 21  2  0
 23 17  1  0
 24 14  1  0
 24 23  2  0
M  END
$$$$
