AVY.pdb
     RDKit          3D

 25 25  0  0  1  0  0  0  0  0999 V2000
   28.3324  -19.5959  -18.5423 C   0  0  0  0  0  0  0  0  0  0  0  0
   27.2632  -18.8777  -19.3013 C   0  0  2  0  0  0  0  0  0  0  0  0
   27.8040  -17.7129  -19.9222 N   0  0  0  0  0  0  0  0  0  0  0  0
   26.0864  -18.5339  -18.4742 C   0  0  0  0  0  0  0  0  0  0  0  0
   26.0686  -17.4590  -17.8329 O   0  0  0  0  0  0  0  0  0  0  0  0
   21.2895  -18.9334  -17.5507 C   0  0  0  0  0  0  0  0  0  0  0  0
   22.5183  -19.1019  -18.4150 C   0  0  1  0  0  0  0  0  0  0  0  0
   22.4784  -18.1010  -19.5205 C   0  0  0  0  0  0  0  0  0  0  0  0
   23.7873  -19.0299  -17.5983 C   0  0  2  0  0  0  0  0  0  0  0  0
   24.9544  -19.3842  -18.3727 N   0  0  0  0  0  0  0  0  0  0  0  0
   23.6300  -19.8861  -16.3978 C   0  0  0  0  0  0  0  0  0  0  0  0
   23.4778  -21.1474  -16.5005 O   0  0  0  0  0  0  0  0  0  0  0  0
   23.7294  -21.7671   -7.6681 O   0  0  0  0  0  0  0  0  0  0  0  0
   23.7761  -21.1758   -8.9104 C   0  0  0  0  0  0  0  0  0  0  0  0
   25.0034  -21.1177   -9.5687 C   0  0  0  0  0  0  0  0  0  0  0  0
   25.0668  -20.5264  -10.8187 C   0  0  0  0  0  0  0  0  0  0  0  0
   23.9507  -19.9916  -11.4345 C   0  0  0  0  0  0  0  0  0  0  0  0
   24.0289  -19.3660  -12.7452 C   0  0  0  0  0  0  0  0  0  0  0  0
   23.4475  -20.1101  -13.8879 C   0  0  2  0  0  0  0  0  0  0  0  0
   23.6474  -19.3032  -15.1024 N   0  0  0  0  0  0  0  0  0  0  0  0
   22.0310  -20.4040  -13.6703 C   0  0  0  0  0  0  0  0  0  0  0  0
   21.1450  -19.5295  -13.8270 O   0  0  0  0  0  0  0  0  0  0  0  0
   22.7370  -20.0478  -10.7857 C   0  0  0  0  0  0  0  0  0  0  0  0
   22.6626  -20.6419   -9.5254 C   0  0  0  0  0  0  0  0  0  0  0  0
   21.6531  -21.6883  -13.2785 O   0  0  0  0  0  0  0  0  0  0  0  0
  2  4  1  0
  2  1  1  1
  3  2  1  0
  4  5  2  0
  7  9  1  0
  7  6  1  1
  8  7  1  0
  9 10  1  6
 10  4  1  0
 11  9  1  0
 12 11  2  0
 13 14  1  0
 14 15  2  0
 15 16  1  0
 17 16  2  0
 17 18  1  0
 19 18  1  1
 19 21  1  0
 19 20  1  0
 20 11  1  0
 21 25  1  0
 22 21  2  0
 23 17  1  0
 24 14  1  0
 24 23  2  0
M  END
$$$$
