AVY.pdb
     RDKit          3D

 25 25  0  0  1  0  0  0  0  0999 V2000
   17.1903  -23.9573  -12.9116 C   0  0  0  0  0  0  0  0  0  0  0  0
   17.3399  -25.3499  -12.3890 C   0  0  2  0  0  0  0  0  0  0  0  0
   16.5404  -25.5210  -11.2202 N   0  0  0  0  0  0  0  0  0  0  0  0
   18.7446  -25.7300  -12.1251 C   0  0  0  0  0  0  0  0  0  0  0  0
   19.1265  -25.9248  -10.9490 O   0  0  0  0  0  0  0  0  0  0  0  0
   20.0800  -27.9579  -11.1134 C   0  0  0  0  0  0  0  0  0  0  0  0
   20.8347  -27.9296  -12.4229 C   0  0  1  0  0  0  0  0  0  0  0  0
   20.1702  -28.8516  -13.3892 C   0  0  0  0  0  0  0  0  0  0  0  0
   20.9778  -26.5219  -12.9525 C   0  0  2  0  0  0  0  0  0  0  0  0
   19.6975  -25.8870  -13.1653 N   0  0  0  0  0  0  0  0  0  0  0  0
   21.7972  -26.5591  -14.1879 C   0  0  0  0  0  0  0  0  0  0  0  0
   21.2554  -26.5447  -15.3415 O   0  0  0  0  0  0  0  0  0  0  0  0
   28.9946  -24.8927  -19.0820 O   0  0  0  0  0  0  0  0  0  0  0  0
   28.0840  -25.1190  -18.0747 C   0  0  0  0  0  0  0  0  0  0  0  0
   28.3813  -26.0916  -17.1215 C   0  0  0  0  0  0  0  0  0  0  0  0
   27.4758  -26.3309  -16.1022 C   0  0  0  0  0  0  0  0  0  0  0  0
   26.2855  -25.6352  -16.0003 C   0  0  0  0  0  0  0  0  0  0  0  0
   25.3372  -25.8988  -14.9295 C   0  0  0  0  0  0  0  0  0  0  0  0
   24.0667  -26.5679  -15.2979 C   0  0  2  0  0  0  0  0  0  0  0  0
   23.2141  -26.6119  -14.0992 N   0  0  0  0  0  0  0  0  0  0  0  0
   24.3034  -27.9087  -15.8333 C   0  0  0  0  0  0  0  0  0  0  0  0
   24.4392  -28.9038  -15.0812 O   0  0  0  0  0  0  0  0  0  0  0  0
   25.9897  -24.6738  -16.9413 C   0  0  0  0  0  0  0  0  0  0  0  0
   26.8960  -24.4251  -17.9726 C   0  0  0  0  0  0  0  0  0  0  0  0
   24.3806  -28.0880  -17.2144 O   0  0  0  0  0  0  0  0  0  0  0  0
  2  4  1  0
  2  1  1  1
  3  2  1  0
  4  5  2  0
  7  9  1  0
  7  6  1  1
  8  7  1  0
  9 10  1  6
 10  4  1  0
 11  9  1  0
 12 11  2  0
 13 14  1  0
 14 15  2  0
 15 16  1  0
 17 16  2  0
 17 18  1  0
 19 18  1  1
 19 21  1  0
 19 20  1  0
 20 11  1  0
 21 25  1  0
 22 21  2  0
 23 17  1  0
 24 14  1  0
 24 23  2  0
M  END
$$$$
