AVY.pdb
     RDKit          3D

 25 25  0  0  1  0  0  0  0  0999 V2000
   22.0011   -6.4933  -19.6988 C   0  0  0  0  0  0  0  0  0  0  0  0
   20.5677   -6.2711  -20.0604 C   0  0  2  0  0  0  0  0  0  0  0  0
   20.4704   -5.8016  -21.4038 N   0  0  0  0  0  0  0  0  0  0  0  0
   19.8629   -5.3599  -19.1330 C   0  0  0  0  0  0  0  0  0  0  0  0
   19.8814   -4.1253  -19.3390 O   0  0  0  0  0  0  0  0  0  0  0  0
   16.3630   -4.6738  -15.7202 C   0  0  0  0  0  0  0  0  0  0  0  0
   17.0438   -5.4953  -16.7913 C   0  0  1  0  0  0  0  0  0  0  0  0
   16.1454   -5.5900  -17.9785 C   0  0  0  0  0  0  0  0  0  0  0  0
   18.4113   -4.9480  -17.1274 C   0  0  2  0  0  0  0  0  0  0  0  0
   19.1526   -5.8311  -17.9980 N   0  0  0  0  0  0  0  0  0  0  0  0
   19.1357   -4.6682  -15.8641 C   0  0  0  0  0  0  0  0  0  0  0  0
   18.7287   -3.7736  -15.0526 O   0  0  0  0  0  0  0  0  0  0  0  0
   16.9172  -10.1640  -13.3557 O   0  0  0  0  0  0  0  0  0  0  0  0
   17.9859   -9.3035  -13.4670 C   0  0  0  0  0  0  0  0  0  0  0  0
   18.2981   -8.4934  -12.3765 C   0  0  0  0  0  0  0  0  0  0  0  0
   19.3700   -7.6228  -12.4726 C   0  0  0  0  0  0  0  0  0  0  0  0
   20.1406   -7.5318  -13.6168 C   0  0  0  0  0  0  0  0  0  0  0  0
   21.2607   -6.6087  -13.7106 C   0  0  0  0  0  0  0  0  0  0  0  0
   20.9797   -5.2525  -14.2390 C   0  0  2  0  0  0  0  0  0  0  0  0
   20.3069   -5.4036  -15.5391 N   0  0  0  0  0  0  0  0  0  0  0  0
   22.2042   -4.4613  -14.3612 C   0  0  0  0  0  0  0  0  0  0  0  0
   22.6390   -4.0884  -15.4776 O   0  0  0  0  0  0  0  0  0  0  0  0
   19.8336   -8.3313  -14.6955 C   0  0  0  0  0  0  0  0  0  0  0  0
   18.7552   -9.2122  -14.6085 C   0  0  0  0  0  0  0  0  0  0  0  0
   22.9082   -4.1113  -13.2090 O   0  0  0  0  0  0  0  0  0  0  0  0
  2  4  1  0
  2  1  1  1
  3  2  1  0
  4  5  2  0
  7  9  1  0
  7  6  1  1
  8  7  1  0
  9 10  1  6
 10  4  1  0
 11  9  1  0
 12 11  2  0
 13 14  1  0
 14 15  2  0
 15 16  1  0
 17 16  2  0
 17 18  1  0
 19 18  1  6
 19 21  1  0
 19 20  1  0
 20 11  1  0
 21 25  1  0
 22 21  2  0
 23 17  1  0
 24 14  1  0
 24 23  2  0
M  END
$$$$
