AVY.pdb
     RDKit          3D

 25 25  0  0  1  0  0  0  0  0999 V2000
   26.2457  -25.3653  -15.5392 C   0  0  0  0  0  0  0  0  0  0  0  0
   26.1553  -24.0306  -16.2065 C   0  0  2  0  0  0  0  0  0  0  0  0
   27.1688  -23.9136  -17.2033 N   0  0  0  0  0  0  0  0  0  0  0  0
   26.2159  -22.8959  -15.2599 C   0  0  0  0  0  0  0  0  0  0  0  0
   27.1858  -22.1053  -15.2967 O   0  0  0  0  0  0  0  0  0  0  0  0
   23.7461  -19.5344  -12.7281 C   0  0  0  0  0  0  0  0  0  0  0  0
   23.8400  -20.7204  -13.6608 C   0  0  1  0  0  0  0  0  0  0  0  0
   23.5869  -20.2636  -15.0582 C   0  0  0  0  0  0  0  0  0  0  0  0
   25.1553  -21.4474  -13.5060 C   0  0  2  0  0  0  0  0  0  0  0  0
   25.2044  -22.6582  -14.2928 N   0  0  0  0  0  0  0  0  0  0  0  0
   25.3896  -21.7058  -12.0647 C   0  0  0  0  0  0  0  0  0  0  0  0
   24.7842  -22.6469  -11.4546 O   0  0  0  0  0  0  0  0  0  0  0  0
   28.7198  -19.8867   -3.9633 O   0  0  0  0  0  0  0  0  0  0  0  0
   28.4648  -19.9788   -5.3129 C   0  0  0  0  0  0  0  0  0  0  0  0
   27.6003  -19.0482   -5.8870 C   0  0  0  0  0  0  0  0  0  0  0  0
   27.3339  -19.1275   -7.2431 C   0  0  0  0  0  0  0  0  0  0  0  0
   27.8986  -20.1011   -8.0458 C   0  0  0  0  0  0  0  0  0  0  0  0
   27.6069  -20.1803   -9.4685 C   0  0  0  0  0  0  0  0  0  0  0  0
   26.4613  -21.0263   -9.8800 C   0  0  2  0  0  0  0  0  0  0  0  0
   26.3035  -20.8969  -11.3375 N   0  0  0  0  0  0  0  0  0  0  0  0
   25.2361  -20.6480   -9.1755 C   0  0  0  0  0  0  0  0  0  0  0  0
   24.5491  -19.6606   -9.5323 O   0  0  0  0  0  0  0  0  0  0  0  0
   28.7529  -21.0217   -7.4804 C   0  0  0  0  0  0  0  0  0  0  0  0
   29.0280  -20.9503   -6.1144 C   0  0  0  0  0  0  0  0  0  0  0  0
   24.8190  -21.4026   -8.0790 O   0  0  0  0  0  0  0  0  0  0  0  0
  2  4  1  0
  2  1  1  1
  3  2  1  0
  4  5  2  0
  7  9  1  0
  7  6  1  1
  8  7  1  0
  9 10  1  6
 10  4  1  0
 11  9  1  0
 12 11  2  0
 13 14  1  0
 14 15  2  0
 15 16  1  0
 17 16  2  0
 17 18  1  0
 19 18  1  1
 19 21  1  0
 19 20  1  0
 20 11  1  0
 21 25  1  0
 22 21  2  0
 23 17  1  0
 24 14  1  0
 24 23  2  0
M  END
$$$$
