AVY.pdb
     RDKit          3D

 25 25  0  0  1  0  0  0  0  0999 V2000
   22.4843   -9.9935  -21.0102 C   0  0  0  0  0  0  0  0  0  0  0  0
   22.4066  -11.0422  -19.9477 C   0  0  2  0  0  0  0  0  0  0  0  0
   21.4183  -12.0121  -20.2905 N   0  0  0  0  0  0  0  0  0  0  0  0
   22.1572  -10.4926  -18.5975 C   0  0  0  0  0  0  0  0  0  0  0  0
   21.0119  -10.0915  -18.2903 O   0  0  0  0  0  0  0  0  0  0  0  0
   23.5019   -9.9715  -13.8676 C   0  0  0  0  0  0  0  0  0  0  0  0
   23.6437  -10.6342  -15.2189 C   0  0  1  0  0  0  0  0  0  0  0  0
   23.1746  -12.0469  -15.1214 C   0  0  0  0  0  0  0  0  0  0  0  0
   22.9370   -9.8504  -16.3000 C   0  0  2  0  0  0  0  0  0  0  0  0
   23.1776  -10.3975  -17.6154 N   0  0  0  0  0  0  0  0  0  0  0  0
   23.3457   -8.4283  -16.2013 C   0  0  0  0  0  0  0  0  0  0  0  0
   24.4673   -8.0294  -16.6567 O   0  0  0  0  0  0  0  0  0  0  0  0
   23.8161   -0.0489  -17.6588 O   0  0  0  0  0  0  0  0  0  0  0  0
   23.5727   -1.3923  -17.4826 C   0  0  0  0  0  0  0  0  0  0  0  0
   24.6526   -2.2286  -17.2045 C   0  0  0  0  0  0  0  0  0  0  0  0
   24.4242   -3.5820  -17.0247 C   0  0  0  0  0  0  0  0  0  0  0  0
   23.1580   -4.1300  -17.1123 C   0  0  0  0  0  0  0  0  0  0  0  0
   22.9292   -5.5546  -16.9286 C   0  0  0  0  0  0  0  0  0  0  0  0
   22.8155   -6.0494  -15.5359 C   0  0  2  0  0  0  0  0  0  0  0  0
   22.4807   -7.4815  -15.5901 N   0  0  0  0  0  0  0  0  0  0  0  0
   21.8146   -5.2961  -14.7801 C   0  0  0  0  0  0  0  0  0  0  0  0
   22.0878   -4.1986  -14.2371 O   0  0  0  0  0  0  0  0  0  0  0  0
   22.0896   -3.3055  -17.3872 C   0  0  0  0  0  0  0  0  0  0  0  0
   22.3094   -1.9398  -17.5700 C   0  0  0  0  0  0  0  0  0  0  0  0
   20.5231   -5.8090  -14.6587 O   0  0  0  0  0  0  0  0  0  0  0  0
  2  4  1  0
  2  1  1  6
  3  2  1  0
  4  5  2  0
  7  9  1  0
  7  6  1  1
  8  7  1  0
  9 10  1  6
 10  4  1  0
 11  9  1  0
 12 11  2  0
 13 14  1  0
 14 15  2  0
 15 16  1  0
 17 16  2  0
 17 18  1  0
 19 18  1  6
 19 21  1  0
 19 20  1  0
 20 11  1  0
 21 25  1  0
 22 21  2  0
 23 17  1  0
 24 14  1  0
 24 23  2  0
M  END
$$$$
