AVY.pdb
     RDKit          3D

 25 25  0  0  1  0  0  0  0  0999 V2000
   23.4367  -15.8341  -17.9381 C   0  0  0  0  0  0  0  0  0  0  0  0
   23.5327  -14.4237  -18.4243 C   0  0  2  0  0  0  0  0  0  0  0  0
   24.5207  -14.3267  -19.4486 N   0  0  0  0  0  0  0  0  0  0  0  0
   23.7971  -13.4475  -17.3452 C   0  0  0  0  0  0  0  0  0  0  0  0
   23.0102  -13.3633  -16.3753 O   0  0  0  0  0  0  0  0  0  0  0  0
   26.8040  -10.1804  -15.1171 C   0  0  0  0  0  0  0  0  0  0  0  0
   26.6000  -11.3000  -16.1121 C   0  0  1  0  0  0  0  0  0  0  0  0
   27.3433  -12.5072  -15.6478 C   0  0  0  0  0  0  0  0  0  0  0  0
   25.1332  -11.5671  -16.3564 C   0  0  2  0  0  0  0  0  0  0  0  0
   24.9245  -12.5853  -17.3599 N   0  0  0  0  0  0  0  0  0  0  0  0
   24.4688  -10.2889  -16.7082 C   0  0  0  0  0  0  0  0  0  0  0  0
   24.7626   -9.6638  -17.7794 O   0  0  0  0  0  0  0  0  0  0  0  0
   18.3731   -4.6179  -18.8424 O   0  0  0  0  0  0  0  0  0  0  0  0
   19.1684   -5.6583  -18.4181 C   0  0  0  0  0  0  0  0  0  0  0  0
   20.5439   -5.5646  -18.6230 C   0  0  0  0  0  0  0  0  0  0  0  0
   21.3572   -6.6026  -18.2019 C   0  0  0  0  0  0  0  0  0  0  0  0
   20.8475   -7.7295  -17.5843 C   0  0  0  0  0  0  0  0  0  0  0  0
   21.7096   -8.8180  -17.1517 C   0  0  0  0  0  0  0  0  0  0  0  0
   22.7750   -8.4921  -16.1738 C   0  0  2  0  0  0  0  0  0  0  0  0
   23.4841   -9.7389  -15.8444 N   0  0  0  0  0  0  0  0  0  0  0  0
   22.2257   -7.8585  -14.9750 C   0  0  0  0  0  0  0  0  0  0  0  0
   21.9146   -8.5274  -13.9601 O   0  0  0  0  0  0  0  0  0  0  0  0
   19.4885   -7.8242  -17.3811 C   0  0  0  0  0  0  0  0  0  0  0  0
   18.6602   -6.7832  -17.8018 C   0  0  0  0  0  0  0  0  0  0  0  0
   22.0422   -6.4758  -14.9573 O   0  0  0  0  0  0  0  0  0  0  0  0
  2  4  1  0
  2  1  1  1
  3  2  1  0
  4  5  2  0
  7  9  1  0
  7  6  1  1
  8  7  1  0
  9 10  1  6
 10  4  1  0
 11  9  1  0
 12 11  2  0
 13 14  1  0
 14 15  2  0
 15 16  1  0
 17 16  2  0
 17 18  1  0
 19 18  1  6
 19 21  1  0
 19 20  1  0
 20 11  1  0
 21 25  1  0
 22 21  2  0
 23 17  1  0
 24 14  1  0
 24 23  2  0
M  END
$$$$
