AVY.pdb
     RDKit          3D

 25 25  0  0  1  0  0  0  0  0999 V2000
   22.6337  -21.2665  -10.7834 C   0  0  0  0  0  0  0  0  0  0  0  0
   24.0798  -21.2731  -10.4043 C   0  0  2  0  0  0  0  0  0  0  0  0
   24.2191  -21.0235   -9.0068 N   0  0  0  0  0  0  0  0  0  0  0  0
   24.8973  -20.3248  -11.1915 C   0  0  0  0  0  0  0  0  0  0  0  0
   25.1001  -19.1683  -10.7576 O   0  0  0  0  0  0  0  0  0  0  0  0
   28.3125  -19.4956  -14.6521 C   0  0  0  0  0  0  0  0  0  0  0  0
   27.5265  -20.4301  -13.7608 C   0  0  1  0  0  0  0  0  0  0  0  0
   28.4305  -20.9739  -12.7060 C   0  0  0  0  0  0  0  0  0  0  0  0
   26.2971  -19.7577  -13.1960 C   0  0  2  0  0  0  0  0  0  0  0  0
   25.4735  -20.6736  -12.4409 N   0  0  0  0  0  0  0  0  0  0  0  0
   25.5512  -19.1188  -14.3070 C   0  0  0  0  0  0  0  0  0  0  0  0
   24.8766  -19.8131  -15.1361 O   0  0  0  0  0  0  0  0  0  0  0  0
   22.2937  -12.2296  -18.9933 O   0  0  0  0  0  0  0  0  0  0  0  0
   22.9030  -13.0499  -18.0709 C   0  0  0  0  0  0  0  0  0  0  0  0
   22.1011  -13.9003  -17.3115 C   0  0  0  0  0  0  0  0  0  0  0  0
   22.6988  -14.7314  -16.3797 C   0  0  0  0  0  0  0  0  0  0  0  0
   24.0665  -14.7442  -16.1789 C   0  0  0  0  0  0  0  0  0  0  0  0
   24.6844  -15.6163  -15.1923 C   0  0  0  0  0  0  0  0  0  0  0  0
   24.8816  -17.0360  -15.5706 C   0  0  2  0  0  0  0  0  0  0  0  0
   25.5800  -17.7069  -14.4625 N   0  0  0  0  0  0  0  0  0  0  0  0
   25.6283  -17.1576  -16.8228 C   0  0  0  0  0  0  0  0  0  0  0  0
   25.0692  -17.5002  -17.8926 O   0  0  0  0  0  0  0  0  0  0  0  0
   24.8606  -13.9046  -16.9281 C   0  0  0  0  0  0  0  0  0  0  0  0
   24.2678  -13.0631  -17.8700 C   0  0  0  0  0  0  0  0  0  0  0  0
   26.9965  -16.8864  -16.8304 O   0  0  0  0  0  0  0  0  0  0  0  0
  2  4  1  0
  2  1  1  6
  3  2  1  0
  4  5  2  0
  7  9  1  0
  7  6  1  1
  8  7  1  0
  9 10  1  6
 10  4  1  0
 11  9  1  0
 12 11  2  0
 13 14  1  0
 14 15  2  0
 15 16  1  0
 17 16  2  0
 17 18  1  0
 19 18  1  1
 19 21  1  0
 19 20  1  0
 20 11  1  0
 21 25  1  0
 22 21  2  0
 23 17  1  0
 24 14  1  0
 24 23  2  0
M  END
$$$$
