EFA.pdb
     RDKit          3D

 26 26  0  0  1  0  0  0  0  0999 V2000
   28.5050  -21.3201  -14.3808 N   0  0  0  0  0  0  0  0  0  0  0  0
   27.9609  -20.3273  -13.5120 C   0  0  1  0  0  0  0  0  0  0  0  0
   27.8051  -18.9651  -14.1483 C   0  0  0  0  0  0  0  0  0  0  0  0
   26.9233  -18.9889  -15.3729 C   0  0  0  0  0  0  0  0  0  0  0  0
   27.7013  -18.5065  -16.5331 C   0  0  0  0  0  0  0  0  0  0  0  0
   28.6379  -17.6898  -16.4112 O   0  0  0  0  0  0  0  0  0  0  0  0
   26.7316  -20.8062  -12.8795 C   0  0  0  0  0  0  0  0  0  0  0  0
   26.1857  -21.8558  -13.3101 O   0  0  0  0  0  0  0  0  0  0  0  0
   27.3836  -18.9728  -17.7927 O   0  0  0  0  0  0  0  0  0  0  0  0
   26.1877  -20.0686  -11.7920 N   0  0  0  0  0  0  0  0  0  0  0  0
   25.0210  -20.4954  -11.0866 C   0  0  1  0  0  0  0  0  0  0  0  0
   24.8901  -19.6945   -9.8187 C   0  0  0  0  0  0  0  0  0  0  0  0
   26.0190  -19.9489   -8.8963 C   0  0  0  0  0  0  0  0  0  0  0  0
   26.3996  -21.2635   -8.6763 C   0  0  0  0  0  0  0  0  0  0  0  0
   27.4472  -21.5722   -7.8203 C   0  0  0  0  0  0  0  0  0  0  0  0
   28.1150  -20.5481   -7.1824 C   0  0  0  0  0  0  0  0  0  0  0  0
   27.7622  -19.2377   -7.3794 C   0  0  0  0  0  0  0  0  0  0  0  0
   26.7105  -18.9650   -8.2417 C   0  0  0  0  0  0  0  0  0  0  0  0
   23.7927  -20.3830  -11.9321 C   0  0  0  0  0  0  0  0  0  0  0  0
   23.5781  -19.3142  -12.5544 O   0  0  0  0  0  0  0  0  0  0  0  0
   21.3387  -22.7248  -13.4282 C   0  0  0  0  0  0  0  0  0  0  0  0
   21.7301  -21.3756  -12.8519 C   0  0  2  0  0  0  0  0  0  0  0  0
   22.8997  -21.4813  -12.0134 N   0  0  0  0  0  0  0  0  0  0  0  0
   20.6211  -20.8281  -12.0497 C   0  0  0  0  0  0  0  0  0  0  0  0
   19.4141  -20.5245  -12.6500 O   0  0  0  0  0  0  0  0  0  0  0  0
   20.7727  -20.6384  -10.8240 O   0  0  0  0  0  0  0  0  0  0  0  0
  2  7  1  0
  2  1  1  6
  3  2  1  0
  4  3  1  0
  5  6  2  0
  5  4  1  0
  7  8  2  0
  9  5  1  0
 10 11  1  0
 10  7  1  0
 11 12  1  1
 12 13  1  0
 13 18  2  0
 14 13  1  0
 14 15  2  0
 15 16  1  0
 16 17  2  0
 18 17  1  0
 19 23  1  0
 19 11  1  0
 20 19  2  0
 22 23  1  0
 22 21  1  1
 24 22  1  0
 25 24  1  0
 26 24  2  0
M  END
$$$$
