EFA.pdb
     RDKit          3D

 26 26  0  0  1  0  0  0  0  0999 V2000
   28.3358  -22.5882  -17.1600 N   0  0  0  0  0  0  0  0  0  0  0  0
   27.3185  -21.5919  -17.0657 C   0  0  1  0  0  0  0  0  0  0  0  0
   26.4961  -21.4250  -18.3229 C   0  0  0  0  0  0  0  0  0  0  0  0
   26.8957  -20.2116  -19.1265 C   0  0  0  0  0  0  0  0  0  0  0  0
   28.1051  -20.5341  -19.9122 C   0  0  0  0  0  0  0  0  0  0  0  0
   28.0463  -21.1367  -21.0042 O   0  0  0  0  0  0  0  0  0  0  0  0
   26.4996  -21.7954  -15.8705 C   0  0  0  0  0  0  0  0  0  0  0  0
   25.6795  -22.7503  -15.8408 O   0  0  0  0  0  0  0  0  0  0  0  0
   29.3403  -20.1580  -19.4245 O   0  0  0  0  0  0  0  0  0  0  0  0
   26.6553  -20.9047  -14.7728 N   0  0  0  0  0  0  0  0  0  0  0  0
   25.9328  -21.0642  -13.5507 C   0  0  1  0  0  0  0  0  0  0  0  0
   26.6169  -20.2756  -12.4662 C   0  0  0  0  0  0  0  0  0  0  0  0
   25.9587  -20.4702  -11.1552 C   0  0  0  0  0  0  0  0  0  0  0  0
   24.9055  -19.6327  -10.8221 C   0  0  0  0  0  0  0  0  0  0  0  0
   24.2473  -19.7583   -9.6070 C   0  0  0  0  0  0  0  0  0  0  0  0
   24.6541  -20.7349   -8.7225 C   0  0  0  0  0  0  0  0  0  0  0  0
   25.6924  -21.5787   -9.0231 C   0  0  0  0  0  0  0  0  0  0  0  0
   26.3281  -21.4254  -10.2464 C   0  0  0  0  0  0  0  0  0  0  0  0
   24.5009  -20.6594  -13.6992 C   0  0  0  0  0  0  0  0  0  0  0  0
   24.2340  -19.4831  -14.0463 O   0  0  0  0  0  0  0  0  0  0  0  0
   21.3298  -22.3589  -14.3428 C   0  0  0  0  0  0  0  0  0  0  0  0
   22.1027  -21.2370  -13.6724 C   0  0  2  0  0  0  0  0  0  0  0  0
   23.4785  -21.6086  -13.4459 N   0  0  0  0  0  0  0  0  0  0  0  0
   21.4842  -20.9014  -12.3770 C   0  0  0  0  0  0  0  0  0  0  0  0
   20.2960  -20.1974  -12.3369 O   0  0  0  0  0  0  0  0  0  0  0  0
   22.0356  -21.2545  -11.3129 O   0  0  0  0  0  0  0  0  0  0  0  0
  2  7  1  0
  2  1  1  6
  3  2  1  0
  4  3  1  0
  5  6  2  0
  5  4  1  0
  7  8  2  0
  9  5  1  0
 10 11  1  0
 10  7  1  0
 11 12  1  1
 12 13  1  0
 13 18  2  0
 14 13  1  0
 14 15  2  0
 15 16  1  0
 16 17  2  0
 18 17  1  0
 19 23  1  0
 19 11  1  0
 20 19  2  0
 22 23  1  0
 22 21  1  1
 24 22  1  0
 25 24  1  0
 26 24  2  0
M  END
$$$$
