EFA.pdb
     RDKit          3D

 26 26  0  0  1  0  0  0  0  0999 V2000
   20.9568  -20.6981  -10.6234 N   0  0  0  0  0  0  0  0  0  0  0  0
   21.4556  -20.9309  -11.9400 C   0  0  1  0  0  0  0  0  0  0  0  0
   20.4163  -20.7964  -13.0292 C   0  0  0  0  0  0  0  0  0  0  0  0
   19.4324  -21.9407  -13.0435 C   0  0  0  0  0  0  0  0  0  0  0  0
   20.0650  -23.1085  -13.6916 C   0  0  0  0  0  0  0  0  0  0  0  0
   20.4930  -23.0664  -14.8637 O   0  0  0  0  0  0  0  0  0  0  0  0
   22.6539  -20.1302  -12.1919 C   0  0  0  0  0  0  0  0  0  0  0  0
   22.5737  -18.8742  -12.1589 O   0  0  0  0  0  0  0  0  0  0  0  0
   20.1870  -24.2846  -12.9796 O   0  0  0  0  0  0  0  0  0  0  0  0
   23.8791  -20.7976  -12.4676 N   0  0  0  0  0  0  0  0  0  0  0  0
   25.1123  -20.0949  -12.6309 C   0  0  1  0  0  0  0  0  0  0  0  0
   26.1993  -20.8268  -11.8902 C   0  0  0  0  0  0  0  0  0  0  0  0
   26.0844  -20.6348  -10.4274 C   0  0  0  0  0  0  0  0  0  0  0  0
   25.9168  -19.3447   -9.9489 C   0  0  0  0  0  0  0  0  0  0  0  0
   25.8065  -19.0940   -8.5886 C   0  0  0  0  0  0  0  0  0  0  0  0
   25.8657  -20.1515   -7.7056 C   0  0  0  0  0  0  0  0  0  0  0  0
   26.0308  -21.4390   -8.1480 C   0  0  0  0  0  0  0  0  0  0  0  0
   26.1375  -21.6536   -9.5142 C   0  0  0  0  0  0  0  0  0  0  0  0
   25.4596  -19.9179  -14.0746 C   0  0  0  0  0  0  0  0  0  0  0  0
   25.3309  -20.8923  -14.8553 O   0  0  0  0  0  0  0  0  0  0  0  0
   26.1251  -16.9717  -16.2906 C   0  0  0  0  0  0  0  0  0  0  0  0
   26.1186  -18.4501  -15.9447 C   0  0  2  0  0  0  0  0  0  0  0  0
   25.9251  -18.6583  -14.5300 N   0  0  0  0  0  0  0  0  0  0  0  0
   27.3965  -19.0677  -16.3431 C   0  0  0  0  0  0  0  0  0  0  0  0
   27.7103  -19.2121  -17.6810 O   0  0  0  0  0  0  0  0  0  0  0  0
   28.1978  -19.4612  -15.4689 O   0  0  0  0  0  0  0  0  0  0  0  0
  2  7  1  0
  2  1  1  1
  3  2  1  0
  4  3  1  0
  5  6  2  0
  5  4  1  0
  7  8  2  0
  9  5  1  0
 10 11  1  0
 10  7  1  0
 11 12  1  1
 12 13  1  0
 13 18  2  0
 14 13  1  0
 14 15  2  0
 15 16  1  0
 16 17  2  0
 18 17  1  0
 19 23  1  0
 19 11  1  0
 20 19  2  0
 22 23  1  0
 22 21  1  1
 24 22  1  0
 25 24  1  0
 26 24  2  0
M  END
$$$$
