EFA.pdb
     RDKit          3D

 26 26  0  0  1  0  0  0  0  0999 V2000
   28.3650  -20.6802  -18.4611 N   0  0  0  0  0  0  0  0  0  0  0  0
   27.8674  -19.6973  -17.5541 C   0  0  1  0  0  0  0  0  0  0  0  0
   27.0664  -18.5967  -18.2113 C   0  0  0  0  0  0  0  0  0  0  0  0
   26.9891  -18.7452  -19.7112 C   0  0  0  0  0  0  0  0  0  0  0  0
   25.6200  -19.1603  -20.0817 C   0  0  0  0  0  0  0  0  0  0  0  0
   25.3975  -20.1844  -20.7605 O   0  0  0  0  0  0  0  0  0  0  0  0
   27.1625  -20.3281  -16.4379 C   0  0  0  0  0  0  0  0  0  0  0  0
   26.4032  -21.3068  -16.6631 O   0  0  0  0  0  0  0  0  0  0  0  0
   24.5517  -18.3922  -19.6650 O   0  0  0  0  0  0  0  0  0  0  0  0
   27.3573  -19.8148  -15.1261 N   0  0  0  0  0  0  0  0  0  0  0  0
   26.6374  -20.3114  -13.9964 C   0  0  1  0  0  0  0  0  0  0  0  0
   27.3211  -19.8546  -12.7355 C   0  0  0  0  0  0  0  0  0  0  0  0
   26.5823  -20.2885  -11.5289 C   0  0  0  0  0  0  0  0  0  0  0  0
   26.8732  -21.5354  -10.9978 C   0  0  0  0  0  0  0  0  0  0  0  0
   26.2145  -22.0051   -9.8704 C   0  0  0  0  0  0  0  0  0  0  0  0
   25.2563  -21.2118   -9.2752 C   0  0  0  0  0  0  0  0  0  0  0  0
   24.9462  -19.9737   -9.7769 C   0  0  0  0  0  0  0  0  0  0  0  0
   25.6241  -19.5354  -10.9049 C   0  0  0  0  0  0  0  0  0  0  0  0
   25.2041  -19.8857  -14.0246 C   0  0  0  0  0  0  0  0  0  0  0  0
   24.9338  -18.6668  -14.1537 O   0  0  0  0  0  0  0  0  0  0  0  0
   22.0225  -21.1382  -15.0173 C   0  0  0  0  0  0  0  0  0  0  0  0
   22.8036  -20.4440  -13.9158 C   0  0  2  0  0  0  0  0  0  0  0  0
   24.1842  -20.8636  -13.9057 N   0  0  0  0  0  0  0  0  0  0  0  0
   22.2067  -20.7505  -12.6032 C   0  0  0  0  0  0  0  0  0  0  0  0
   20.9427  -20.2883  -12.2905 O   0  0  0  0  0  0  0  0  0  0  0  0
   22.8452  -21.4301  -11.7715 O   0  0  0  0  0  0  0  0  0  0  0  0
  2  7  1  0
  2  1  1  6
  3  2  1  0
  4  3  1  0
  5  6  2  0
  5  4  1  0
  7  8  2  0
  9  5  1  0
 10 11  1  0
 10  7  1  0
 11 12  1  1
 12 13  1  0
 13 18  2  0
 14 13  1  0
 14 15  2  0
 15 16  1  0
 16 17  2  0
 18 17  1  0
 19 23  1  0
 19 11  1  0
 20 19  2  0
 22 23  1  0
 22 21  1  6
 24 22  1  0
 25 24  1  0
 26 24  2  0
M  END
$$$$
