EFA.pdb
     RDKit          3D

 26 26  0  0  1  0  0  0  0  0999 V2000
   14.9030  -11.4733   -9.5723 N   0  0  0  0  0  0  0  0  0  0  0  0
   14.7159  -10.0963   -9.8965 C   0  0  1  0  0  0  0  0  0  0  0  0
   13.6077   -9.4219   -9.1208 C   0  0  0  0  0  0  0  0  0  0  0  0
   12.2548  -10.0398   -9.3768 C   0  0  0  0  0  0  0  0  0  0  0  0
   11.7551   -9.5736  -10.6871 C   0  0  0  0  0  0  0  0  0  0  0  0
   12.4015   -8.7772  -11.3991 O   0  0  0  0  0  0  0  0  0  0  0  0
   15.9837   -9.3689   -9.8304 C   0  0  0  0  0  0  0  0  0  0  0  0
   16.7582   -9.5682   -8.8580 O   0  0  0  0  0  0  0  0  0  0  0  0
   10.5345  -10.0321  -11.1398 O   0  0  0  0  0  0  0  0  0  0  0  0
   16.3047   -8.4547  -10.8714 N   0  0  0  0  0  0  0  0  0  0  0  0
   17.4633   -7.6200  -10.8251 C   0  0  1  0  0  0  0  0  0  0  0  0
   18.4555   -8.0953  -11.8525 C   0  0  0  0  0  0  0  0  0  0  0  0
   19.6305   -7.1989  -11.9286 C   0  0  0  0  0  0  0  0  0  0  0  0
   20.5587   -7.2496  -10.9003 C   0  0  0  0  0  0  0  0  0  0  0  0
   21.6808   -6.4333  -10.9074 C   0  0  0  0  0  0  0  0  0  0  0  0
   21.8676   -5.5605  -11.9585 C   0  0  0  0  0  0  0  0  0  0  0  0
   20.9675   -5.4871  -12.9905 C   0  0  0  0  0  0  0  0  0  0  0  0
   19.8571   -6.3174  -12.9515 C   0  0  0  0  0  0  0  0  0  0  0  0
   17.1147   -6.1801  -11.0285 C   0  0  0  0  0  0  0  0  0  0  0  0
   16.5338   -5.8385  -12.0874 O   0  0  0  0  0  0  0  0  0  0  0  0
   16.9574   -3.1486   -8.8443 C   0  0  0  0  0  0  0  0  0  0  0  0
   17.0185   -3.8651  -10.1816 C   0  0  2  0  0  0  0  0  0  0  0  0
   17.4460   -5.2344  -10.0253 N   0  0  0  0  0  0  0  0  0  0  0  0
   17.9606   -3.1755  -11.0815 C   0  0  0  0  0  0  0  0  0  0  0  0
   17.6924   -1.8912  -11.5150 O   0  0  0  0  0  0  0  0  0  0  0  0
   19.0042   -3.7535  -11.4530 O   0  0  0  0  0  0  0  0  0  0  0  0
  2  7  1  0
  2  1  1  1
  3  2  1  0
  4  3  1  0
  5  6  2  0
  5  4  1  0
  7  8  2  0
  9  5  1  0
 10 11  1  0
 10  7  1  0
 11 12  1  6
 12 13  1  0
 13 18  2  0
 14 13  1  0
 14 15  2  0
 15 16  1  0
 16 17  2  0
 18 17  1  0
 19 23  1  0
 19 11  1  0
 20 19  2  0
 22 23  1  0
 22 21  1  1
 24 22  1  0
 25 24  1  0
 26 24  2  0
M  END
$$$$
