EFA.pdb
     RDKit          3D

 26 26  0  0  1  0  0  0  0  0999 V2000
   19.3898  -10.3036  -15.9343 N   0  0  0  0  0  0  0  0  0  0  0  0
   19.2109   -8.9755  -16.4248 C   0  0  1  0  0  0  0  0  0  0  0  0
   17.8558   -8.7207  -17.0439 C   0  0  0  0  0  0  0  0  0  0  0  0
   17.6896   -9.3930  -18.3848 C   0  0  0  0  0  0  0  0  0  0  0  0
   18.3762   -8.5850  -19.4143 C   0  0  0  0  0  0  0  0  0  0  0  0
   17.8732   -7.5441  -19.8859 O   0  0  0  0  0  0  0  0  0  0  0  0
   19.5661   -7.9908  -15.4026 C   0  0  0  0  0  0  0  0  0  0  0  0
   19.1454   -8.1450  -14.2261 O   0  0  0  0  0  0  0  0  0  0  0  0
   19.6133   -8.9930  -19.8705 O   0  0  0  0  0  0  0  0  0  0  0  0
   20.3799   -6.8839  -15.7702 N   0  0  0  0  0  0  0  0  0  0  0  0
   20.7914   -5.8917  -14.8283 C   0  0  1  0  0  0  0  0  0  0  0  0
   22.2867   -5.9546  -14.6665 C   0  0  0  0  0  0  0  0  0  0  0  0
   22.7281   -7.2913  -14.2103 C   0  0  0  0  0  0  0  0  0  0  0  0
   23.5159   -8.0463  -15.0652 C   0  0  0  0  0  0  0  0  0  0  0  0
   23.9605   -9.3095  -14.7013 C   0  0  0  0  0  0  0  0  0  0  0  0
   23.6082   -9.8139  -13.4672 C   0  0  0  0  0  0  0  0  0  0  0  0
   22.8302   -9.0913  -12.5994 C   0  0  0  0  0  0  0  0  0  0  0  0
   22.4033   -7.8323  -12.9952 C   0  0  0  0  0  0  0  0  0  0  0  0
   20.3438   -4.5243  -15.2360 C   0  0  0  0  0  0  0  0  0  0  0  0
   20.6705   -4.0892  -16.3672 O   0  0  0  0  0  0  0  0  0  0  0  0
   17.9572   -1.9496  -13.9377 C   0  0  0  0  0  0  0  0  0  0  0  0
   19.1703   -2.4159  -14.7229 C   0  0  2  0  0  0  0  0  0  0  0  0
   19.5628   -3.7508  -14.3403 N   0  0  0  0  0  0  0  0  0  0  0  0
   20.3046   -1.5041  -14.4886 C   0  0  0  0  0  0  0  0  0  0  0  0
   21.4129   -1.9406  -13.7883 O   0  0  0  0  0  0  0  0  0  0  0  0
   20.2639   -0.3338  -14.9245 O   0  0  0  0  0  0  0  0  0  0  0  0
  2  7  1  0
  2  1  1  1
  3  2  1  0
  4  3  1  0
  5  6  2  0
  5  4  1  0
  7  8  2  0
  9  5  1  0
 10 11  1  0
 10  7  1  0
 11 12  1  6
 12 13  1  0
 13 18  2  0
 14 13  1  0
 14 15  2  0
 15 16  1  0
 16 17  2  0
 18 17  1  0
 19 23  1  0
 19 11  1  0
 20 19  2  0
 22 23  1  0
 22 21  1  1
 24 22  1  0
 25 24  1  0
 26 24  2  0
M  END
$$$$
