EFA.pdb
     RDKit          3D

 26 26  0  0  1  0  0  0  0  0999 V2000
   18.4058  -11.8455  -19.3379 N   0  0  0  0  0  0  0  0  0  0  0  0
   18.8738  -10.5247  -19.6078 C   0  0  1  0  0  0  0  0  0  0  0  0
   18.1229   -9.8144  -20.7106 C   0  0  0  0  0  0  0  0  0  0  0  0
   18.3112  -10.4647  -22.0594 C   0  0  0  0  0  0  0  0  0  0  0  0
   19.6302  -10.0745  -22.5997 C   0  0  0  0  0  0  0  0  0  0  0  0
   19.9171   -8.8870  -22.8576 O   0  0  0  0  0  0  0  0  0  0  0  0
   18.9566   -9.7397  -18.3759 C   0  0  0  0  0  0  0  0  0  0  0  0
   18.0503   -9.8554  -17.5096 O   0  0  0  0  0  0  0  0  0  0  0  0
   20.5766  -11.0531  -22.8272 O   0  0  0  0  0  0  0  0  0  0  0  0
   20.0634   -8.8658  -18.1928 N   0  0  0  0  0  0  0  0  0  0  0  0
   20.1684   -7.9907  -17.0684 C   0  0  1  0  0  0  0  0  0  0  0  0
   21.4795   -8.2377  -16.3712 C   0  0  0  0  0  0  0  0  0  0  0  0
   21.6443   -7.3549  -15.1950 C   0  0  0  0  0  0  0  0  0  0  0  0
   22.3161   -6.1548  -15.3678 C   0  0  0  0  0  0  0  0  0  0  0  0
   22.5091   -5.2827  -14.3059 C   0  0  0  0  0  0  0  0  0  0  0  0
   22.0212   -5.6235  -13.0619 C   0  0  0  0  0  0  0  0  0  0  0  0
   21.3525   -6.8034  -12.8592 C   0  0  0  0  0  0  0  0  0  0  0  0
   21.1773   -7.6517  -13.9426 C   0  0  0  0  0  0  0  0  0  0  0  0
   20.0254   -6.5572  -17.4694 C   0  0  0  0  0  0  0  0  0  0  0  0
   20.7881   -6.0931  -18.3517 O   0  0  0  0  0  0  0  0  0  0  0  0
   17.4311   -3.9616  -17.2893 C   0  0  0  0  0  0  0  0  0  0  0  0
   18.8910   -4.3773  -17.2518 C   0  0  2  0  0  0  0  0  0  0  0  0
   19.0352   -5.7550  -16.8476 N   0  0  0  0  0  0  0  0  0  0  0  0
   19.6343   -3.5265  -16.3049 C   0  0  0  0  0  0  0  0  0  0  0  0
   19.5021   -3.7233  -14.9436 O   0  0  0  0  0  0  0  0  0  0  0  0
   20.3858   -2.6253  -16.7342 O   0  0  0  0  0  0  0  0  0  0  0  0
  2  7  1  0
  2  1  1  1
  3  2  1  0
  4  3  1  0
  5  6  2  0
  5  4  1  0
  7  8  2  0
  9  5  1  0
 10 11  1  0
 10  7  1  0
 11 12  1  6
 12 13  1  0
 13 18  2  0
 14 13  1  0
 14 15  2  0
 15 16  1  0
 16 17  2  0
 18 17  1  0
 19 23  1  0
 19 11  1  0
 20 19  2  0
 22 23  1  0
 22 21  1  1
 24 22  1  0
 25 24  1  0
 26 24  2  0
M  END
$$$$
