EFA.pdb
     RDKit          3D

 26 26  0  0  1  0  0  0  0  0999 V2000
   18.2739  -13.2657  -16.8733 N   0  0  0  0  0  0  0  0  0  0  0  0
   18.2465  -11.9712  -17.4731 C   0  0  1  0  0  0  0  0  0  0  0  0
   17.0178  -11.7025  -18.3114 C   0  0  0  0  0  0  0  0  0  0  0  0
   17.0046  -12.4894  -19.5991 C   0  0  0  0  0  0  0  0  0  0  0  0
   17.8372  -11.7875  -20.5982 C   0  0  0  0  0  0  0  0  0  0  0  0
   19.0446  -12.0588  -20.7648 O   0  0  0  0  0  0  0  0  0  0  0  0
   18.4967  -10.9300  -16.4762 C   0  0  0  0  0  0  0  0  0  0  0  0
   17.9107  -10.9890  -15.3635 O   0  0  0  0  0  0  0  0  0  0  0  0
   17.2633  -10.7999  -21.3728 O   0  0  0  0  0  0  0  0  0  0  0  0
   19.3986   -9.8777  -16.7953 N   0  0  0  0  0  0  0  0  0  0  0  0
   19.6657   -8.8009  -15.8952 C   0  0  1  0  0  0  0  0  0  0  0  0
   21.1522   -8.6897  -15.6858 C   0  0  0  0  0  0  0  0  0  0  0  0
   21.4917   -7.5642  -14.7869 C   0  0  0  0  0  0  0  0  0  0  0  0
   21.3899   -7.7665  -13.4194 C   0  0  0  0  0  0  0  0  0  0  0  0
   21.6890   -6.7521  -12.5211 C   0  0  0  0  0  0  0  0  0  0  0  0
   22.0935   -5.5260  -13.0055 C   0  0  0  0  0  0  0  0  0  0  0  0
   22.2040   -5.2950  -14.3527 C   0  0  0  0  0  0  0  0  0  0  0  0
   21.8972   -6.3311  -15.2224 C   0  0  0  0  0  0  0  0  0  0  0  0
   19.0864   -7.5132  -16.3878 C   0  0  0  0  0  0  0  0  0  0  0  0
   19.4025   -7.1015  -17.5306 O   0  0  0  0  0  0  0  0  0  0  0  0
   16.2843   -5.2601  -15.5676 C   0  0  0  0  0  0  0  0  0  0  0  0
   17.7225   -5.4957  -15.9941 C   0  0  2  0  0  0  0  0  0  0  0  0
   18.1955   -6.7870  -15.5574 N   0  0  0  0  0  0  0  0  0  0  0  0
   18.5957   -4.4543  -15.4230 C   0  0  0  0  0  0  0  0  0  0  0  0
   19.5925   -4.7974  -14.5297 O   0  0  0  0  0  0  0  0  0  0  0  0
   18.4343   -3.2586  -15.7477 O   0  0  0  0  0  0  0  0  0  0  0  0
  2  7  1  0
  2  1  1  1
  3  2  1  0
  4  3  1  0
  5  6  2  0
  5  4  1  0
  7  8  2  0
  9  5  1  0
 10 11  1  0
 10  7  1  0
 11 12  1  6
 12 13  1  0
 13 18  2  0
 14 13  1  0
 14 15  2  0
 15 16  1  0
 16 17  2  0
 18 17  1  0
 19 23  1  0
 19 11  1  0
 20 19  2  0
 22 23  1  0
 22 21  1  1
 24 22  1  0
 25 24  1  0
 26 24  2  0
M  END
$$$$
