EFA.pdb
     RDKit          3D

 26 26  0  0  1  0  0  0  0  0999 V2000
   17.6576  -14.5302  -16.0052 N   0  0  0  0  0  0  0  0  0  0  0  0
   18.3728  -13.2960  -16.0439 C   0  0  1  0  0  0  0  0  0  0  0  0
   19.4958  -13.2619  -17.0550 C   0  0  0  0  0  0  0  0  0  0  0  0
   20.5683  -14.2855  -16.7727 C   0  0  0  0  0  0  0  0  0  0  0  0
   21.0619  -14.8287  -18.0553 C   0  0  0  0  0  0  0  0  0  0  0  0
   20.5889  -14.4706  -19.1540 O   0  0  0  0  0  0  0  0  0  0  0  0
   17.4533  -12.1652  -16.1732 C   0  0  0  0  0  0  0  0  0  0  0  0
   16.5623  -12.1944  -17.0622 O   0  0  0  0  0  0  0  0  0  0  0  0
   22.0784  -15.7622  -18.0401 O   0  0  0  0  0  0  0  0  0  0  0  0
   17.5940  -11.0622  -15.2866 N   0  0  0  0  0  0  0  0  0  0  0  0
   16.7283   -9.9268  -15.3359 C   0  0  1  0  0  0  0  0  0  0  0  0
   15.7410  -10.0092  -14.2026 C   0  0  0  0  0  0  0  0  0  0  0  0
   14.5836  -10.8629  -14.5512 C   0  0  0  0  0  0  0  0  0  0  0  0
   13.4951  -10.2673  -15.1693 C   0  0  0  0  0  0  0  0  0  0  0  0
   12.3757  -11.0091  -15.5191 C   0  0  0  0  0  0  0  0  0  0  0  0
   12.3545  -12.3601  -15.2436 C   0  0  0  0  0  0  0  0  0  0  0  0
   13.4156  -12.9782  -14.6332 C   0  0  0  0  0  0  0  0  0  0  0  0
   14.5183  -12.2068  -14.2972 C   0  0  0  0  0  0  0  0  0  0  0  0
   17.4969   -8.6446  -15.2977 C   0  0  0  0  0  0  0  0  0  0  0  0
   18.2890   -8.4381  -14.3462 O   0  0  0  0  0  0  0  0  0  0  0  0
   17.8727   -5.6422  -17.5454 C   0  0  0  0  0  0  0  0  0  0  0  0
   18.0057   -6.4277  -16.2528 C   0  0  2  0  0  0  0  0  0  0  0  0
   17.3160   -7.6926  -16.3329 N   0  0  0  0  0  0  0  0  0  0  0  0
   17.4445   -5.6533  -15.1310 C   0  0  0  0  0  0  0  0  0  0  0  0
   18.2054   -4.6823  -14.5086 O   0  0  0  0  0  0  0  0  0  0  0  0
   16.2780   -5.8752  -14.7423 O   0  0  0  0  0  0  0  0  0  0  0  0
  2  7  1  0
  2  1  1  6
  3  2  1  0
  4  3  1  0
  5  6  2  0
  5  4  1  0
  7  8  2  0
  9  5  1  0
 10 11  1  0
 10  7  1  0
 11 12  1  1
 12 13  1  0
 13 18  2  0
 14 13  1  0
 14 15  2  0
 15 16  1  0
 16 17  2  0
 18 17  1  0
 19 23  1  0
 19 11  1  0
 20 19  2  0
 22 23  1  0
 22 21  1  6
 24 22  1  0
 25 24  1  0
 26 24  2  0
M  END
$$$$
