EFA.pdb
     RDKit          3D

 26 26  0  0  1  0  0  0  0  0999 V2000
   26.1706  -22.0564  -13.2731 N   0  0  0  0  0  0  0  0  0  0  0  0
   25.3762  -21.1832  -12.4714 C   0  0  1  0  0  0  0  0  0  0  0  0
   23.9026  -21.2029  -12.8071 C   0  0  0  0  0  0  0  0  0  0  0  0
   23.6195  -20.7677  -14.2242 C   0  0  0  0  0  0  0  0  0  0  0  0
   24.0532  -19.3647  -14.3903 C   0  0  0  0  0  0  0  0  0  0  0  0
   23.5952  -18.4404  -13.6868 O   0  0  0  0  0  0  0  0  0  0  0  0
   25.6408  -21.3978  -11.0486 C   0  0  0  0  0  0  0  0  0  0  0  0
   25.4138  -22.5285  -10.5435 O   0  0  0  0  0  0  0  0  0  0  0  0
   24.9947  -19.0647  -15.3539 O   0  0  0  0  0  0  0  0  0  0  0  0
   26.1490  -20.3180  -10.2752 N   0  0  0  0  0  0  0  0  0  0  0  0
   26.4435  -20.4470   -8.8831 C   0  0  1  0  0  0  0  0  0  0  0  0
   27.4346  -19.3853   -8.4877 C   0  0  0  0  0  0  0  0  0  0  0  0
   27.8149  -19.5009   -7.0622 C   0  0  0  0  0  0  0  0  0  0  0  0
   28.7053  -20.5005   -6.7025 C   0  0  0  0  0  0  0  0  0  0  0  0
   29.1006  -20.6668   -5.3828 C   0  0  0  0  0  0  0  0  0  0  0  0
   28.5943  -19.8192   -4.4200 C   0  0  0  0  0  0  0  0  0  0  0  0
   27.7120  -18.8208   -4.7444 C   0  0  0  0  0  0  0  0  0  0  0  0
   27.3383  -18.6829   -6.0731 C   0  0  0  0  0  0  0  0  0  0  0  0
   25.2050  -20.3755   -8.0480 C   0  0  0  0  0  0  0  0  0  0  0  0
   24.4063  -19.4235   -8.2246 O   0  0  0  0  0  0  0  0  0  0  0  0
   22.9705  -22.6669   -6.4673 C   0  0  0  0  0  0  0  0  0  0  0  0
   23.7219  -21.3539   -6.3367 C   0  0  2  0  0  0  0  0  0  0  0  0
   24.9595  -21.3803   -7.0782 N   0  0  0  0  0  0  0  0  0  0  0  0
   24.0254  -21.0845   -4.9195 C   0  0  0  0  0  0  0  0  0  0  0  0
   23.0008  -20.8499   -4.0226 O   0  0  0  0  0  0  0  0  0  0  0  0
   25.2120  -21.0686   -4.5283 O   0  0  0  0  0  0  0  0  0  0  0  0
  2  7  1  0
  2  1  1  6
  3  2  1  0
  4  3  1  0
  5  6  2  0
  5  4  1  0
  7  8  2  0
  9  5  1  0
 10 11  1  0
 10  7  1  0
 11 12  1  1
 12 13  1  0
 13 18  2  0
 14 13  1  0
 14 15  2  0
 15 16  1  0
 16 17  2  0
 18 17  1  0
 19 23  1  0
 19 11  1  0
 20 19  2  0
 22 23  1  0
 22 21  1  1
 24 22  1  0
 25 24  1  0
 26 24  2  0
M  END
$$$$
