EFA.pdb
     RDKit          3D

 26 26  0  0  1  0  0  0  0  0999 V2000
   22.6369  -35.3384   -2.5255 N   0  0  0  0  0  0  0  0  0  0  0  0
   23.0207  -34.0042   -2.8554 C   0  0  1  0  0  0  0  0  0  0  0  0
   23.4438  -33.8189   -4.2945 C   0  0  0  0  0  0  0  0  0  0  0  0
   24.7114  -34.5652   -4.6323 C   0  0  0  0  0  0  0  0  0  0  0  0
   25.8709  -33.7743   -4.1696 C   0  0  0  0  0  0  0  0  0  0  0  0
   26.2472  -33.7817   -2.9791 O   0  0  0  0  0  0  0  0  0  0  0  0
   21.9963  -33.0484   -2.4337 C   0  0  0  0  0  0  0  0  0  0  0  0
   20.7822  -33.3236   -2.6219 O   0  0  0  0  0  0  0  0  0  0  0  0
   26.5611  -33.0019   -5.0817 O   0  0  0  0  0  0  0  0  0  0  0  0
   22.4045  -31.8317   -1.8208 N   0  0  0  0  0  0  0  0  0  0  0  0
   21.4730  -30.8171   -1.4413 C   0  0  1  0  0  0  0  0  0  0  0  0
   22.1825  -29.7814   -0.6106 C   0  0  0  0  0  0  0  0  0  0  0  0
   21.2693  -28.6886   -0.2085 C   0  0  0  0  0  0  0  0  0  0  0  0
   21.1996  -27.5647   -1.0168 C   0  0  0  0  0  0  0  0  0  0  0  0
   20.3670  -26.5020   -0.6958 C   0  0  0  0  0  0  0  0  0  0  0  0
   19.6000  -26.5738    0.4480 C   0  0  0  0  0  0  0  0  0  0  0  0
   19.6468  -27.6720    1.2678 C   0  0  0  0  0  0  0  0  0  0  0  0
   20.4898  -28.7161    0.9168 C   0  0  0  0  0  0  0  0  0  0  0  0
   20.8117  -30.2013   -2.6328 C   0  0  0  0  0  0  0  0  0  0  0  0
   21.4910  -29.9981   -3.6685 O   0  0  0  0  0  0  0  0  0  0  0  0
   17.3913  -29.9946   -3.9038 C   0  0  0  0  0  0  0  0  0  0  0  0
   18.7741  -29.3846   -3.7584 C   0  0  2  0  0  0  0  0  0  0  0  0
   19.4366  -29.8613   -2.5685 N   0  0  0  0  0  0  0  0  0  0  0  0
   18.6732  -27.9157   -3.6872 C   0  0  0  0  0  0  0  0  0  0  0  0
   19.1460  -27.1363   -4.7257 O   0  0  0  0  0  0  0  0  0  0  0  0
   18.1588  -27.3741   -2.6856 O   0  0  0  0  0  0  0  0  0  0  0  0
  2  7  1  0
  2  1  1  6
  3  2  1  0
  4  3  1  0
  5  6  2  0
  5  4  1  0
  7  8  2  0
  9  5  1  0
 10 11  1  0
 10  7  1  0
 11 12  1  6
 12 13  1  0
 13 18  2  0
 14 13  1  0
 14 15  2  0
 15 16  1  0
 16 17  2  0
 18 17  1  0
 19 23  1  0
 19 11  1  0
 20 19  2  0
 22 23  1  0
 22 21  1  1
 24 22  1  0
 25 24  1  0
 26 24  2  0
M  END
$$$$
