EFA.pdb
     RDKit          3D

 26 26  0  0  1  0  0  0  0  0999 V2000
   23.0772  -17.8070  -15.4430 N   0  0  0  0  0  0  0  0  0  0  0  0
   22.3003  -16.9416  -16.2701 C   0  0  1  0  0  0  0  0  0  0  0  0
   20.8202  -17.2482  -16.2699 C   0  0  0  0  0  0  0  0  0  0  0  0
   20.5229  -18.6965  -15.9669 C   0  0  0  0  0  0  0  0  0  0  0  0
   19.3247  -18.7696  -15.1049 C   0  0  0  0  0  0  0  0  0  0  0  0
   18.7618  -17.7468  -14.6622 O   0  0  0  0  0  0  0  0  0  0  0  0
   22.5930  -15.5387  -15.9755 C   0  0  0  0  0  0  0  0  0  0  0  0
   22.9237  -15.2109  -14.8058 O   0  0  0  0  0  0  0  0  0  0  0  0
   18.8101  -20.0077  -14.7775 O   0  0  0  0  0  0  0  0  0  0  0  0
   22.4950  -14.5830  -17.0241 N   0  0  0  0  0  0  0  0  0  0  0  0
   22.7218  -13.1887  -16.8110 C   0  0  1  0  0  0  0  0  0  0  0  0
   23.9463  -12.7649  -17.5772 C   0  0  0  0  0  0  0  0  0  0  0  0
   25.1794  -13.3332  -16.9886 C   0  0  0  0  0  0  0  0  0  0  0  0
   25.7002  -14.4878  -17.5518 C   0  0  0  0  0  0  0  0  0  0  0  0
   26.8512  -15.0751  -17.0461 C   0  0  0  0  0  0  0  0  0  0  0  0
   27.4807  -14.4938  -15.9656 C   0  0  0  0  0  0  0  0  0  0  0  0
   26.9901  -13.3516  -15.3866 C   0  0  0  0  0  0  0  0  0  0  0  0
   25.8377  -12.7911  -15.9175 C   0  0  0  0  0  0  0  0  0  0  0  0
   21.5294  -12.3708  -17.1924 C   0  0  0  0  0  0  0  0  0  0  0  0
   21.0012  -12.5526  -18.3164 O   0  0  0  0  0  0  0  0  0  0  0  0
   19.0036  -10.3811  -15.3584 C   0  0  0  0  0  0  0  0  0  0  0  0
   19.8056  -10.7064  -16.6060 C   0  0  2  0  0  0  0  0  0  0  0  0
   21.0219  -11.4111  -16.2803 N   0  0  0  0  0  0  0  0  0  0  0  0
   20.1551   -9.4648  -17.3197 C   0  0  0  0  0  0  0  0  0  0  0  0
   19.1624   -8.6812  -17.8763 O   0  0  0  0  0  0  0  0  0  0  0  0
   21.3518   -9.1201  -17.4215 O   0  0  0  0  0  0  0  0  0  0  0  0
  2  7  1  0
  2  1  1  1
  3  2  1  0
  4  3  1  0
  5  6  2  0
  5  4  1  0
  7  8  2  0
  9  5  1  0
 10 11  1  0
 10  7  1  0
 11 12  1  6
 12 13  1  0
 13 18  2  0
 14 13  1  0
 14 15  2  0
 15 16  1  0
 16 17  2  0
 18 17  1  0
 19 23  1  0
 19 11  1  0
 20 19  2  0
 22 23  1  0
 22 21  1  1
 24 22  1  0
 25 24  1  0
 26 24  2  0
M  END
$$$$
