PPQ.pdb
     RDKit          3D

 24 25  0  0  1  0  0  0  0  0999 V2000
   12.8461  -19.5456    0.7075 N   0  0  0  0  0  0  0  0  0  0  0  0
   11.4258  -19.6621    0.5499 C   0  0  0  0  0  0  0  0  0  0  0  0
   10.9218  -19.6687    1.9867 C   0  0  0  0  0  0  0  0  0  0  0  0
   11.8784  -18.7010    2.6627 C   0  0  0  0  0  0  0  0  0  0  0  0
   13.1635  -18.7500    1.8445 C   0  0  1  0  0  0  0  0  0  0  0  0
   14.2169  -19.3766    2.6877 C   0  0  0  0  0  0  0  0  0  0  0  0
   14.2445  -20.6200    2.6830 O   0  0  0  0  0  0  0  0  0  0  0  0
   15.0934  -18.5993    3.4176 N   0  0  0  0  0  0  0  0  0  0  0  0
   15.4452  -17.2119    3.0112 C   0  0  0  0  0  0  0  0  0  0  0  0
   15.1382  -16.5023    4.3131 C   0  0  0  0  0  0  0  0  0  0  0  0
   15.2953  -17.5665    5.4117 C   0  0  0  0  0  0  0  0  0  0  0  0
   15.8769  -18.7161    4.5971 C   0  0  1  0  0  0  0  0  0  0  0  0
   15.9755  -19.9560    5.3063 C   0  0  0  0  0  0  0  0  0  0  0  0
   14.9733  -20.5917    5.7090 O   0  0  0  0  0  0  0  0  0  0  0  0
   19.8787  -23.4385    3.5586 N   0  0  0  0  0  0  0  0  0  0  0  0
   18.8497  -24.2574    4.0831 C   0  0  0  0  0  0  0  0  0  0  0  0
   18.5549  -25.2882    3.4376 O   0  0  0  0  0  0  0  0  0  0  0  0
   18.1473  -23.9335    5.3212 C   0  0  0  0  0  0  0  0  0  0  0  0
   18.5016  -22.6355    5.9628 C   0  0  0  0  0  0  0  0  0  0  0  0
   17.3290  -21.8158    6.3616 C   0  0  2  0  0  0  0  0  0  0  0  0
   17.2178  -20.5804    5.6194 N   0  0  0  0  0  0  0  0  0  0  0  0
   17.3253  -21.5091    7.8019 C   0  0  0  0  0  0  0  0  0  0  0  0
   17.7627  -20.4513    8.3122 O   0  0  0  0  0  0  0  0  0  0  0  0
   16.8042  -22.4344    8.7256 O   0  0  0  0  0  0  0  0  0  0  0  0
  1  5  1  0
  1  2  1  0
  2  3  1  0
  4  3  1  0
  5  4  1  0
  6  8  1  0
  5  6  1  1
  7  6  2  0
  8 12  1  0
  9  8  1  0
  9 10  1  0
 10 11  1  0
 12 11  1  0
 12 13  1  1
 13 14  2  0
 16 15  1  0
 16 17  2  0
 18 16  1  0
 19 18  1  0
 20 19  1  6
 20 21  1  0
 21 13  1  0
 22 20  1  0
 22 24  1  0
 23 22  2  0
M  END
$$$$
