PPQ.pdb
     RDKit          3D

 24 25  0  0  1  0  0  0  0  0999 V2000
   27.5320  -19.6022  -16.1784 N   0  0  0  0  0  0  0  0  0  0  0  0
   27.8804  -18.3270  -16.7333 C   0  0  0  0  0  0  0  0  0  0  0  0
   27.0521  -17.3553  -15.9038 C   0  0  0  0  0  0  0  0  0  0  0  0
   27.0845  -18.0036  -14.5301 C   0  0  0  0  0  0  0  0  0  0  0  0
   27.2869  -19.4935  -14.7802 C   0  0  1  0  0  0  0  0  0  0  0  0
   26.0400  -20.1970  -14.3758 C   0  0  0  0  0  0  0  0  0  0  0  0
   25.0929  -20.1227  -15.1784 O   0  0  0  0  0  0  0  0  0  0  0  0
   25.9706  -20.8806  -13.1787 N   0  0  0  0  0  0  0  0  0  0  0  0
   27.0978  -21.7127  -12.6778 C   0  0  0  0  0  0  0  0  0  0  0  0
   27.2368  -21.1099  -11.2957 C   0  0  0  0  0  0  0  0  0  0  0  0
   25.8526  -20.5346  -10.9538 C   0  0  0  0  0  0  0  0  0  0  0  0
   25.0372  -21.0710  -12.1246 C   0  0  1  0  0  0  0  0  0  0  0  0
   23.7047  -20.5532  -12.2067 C   0  0  0  0  0  0  0  0  0  0  0  0
   23.2653  -19.6772  -11.4257 O   0  0  0  0  0  0  0  0  0  0  0  0
   21.2453  -17.9332  -17.0840 N   0  0  0  0  0  0  0  0  0  0  0  0
   20.2273  -17.8850  -16.1012 C   0  0  0  0  0  0  0  0  0  0  0  0
   19.2626  -17.1169  -16.3151 O   0  0  0  0  0  0  0  0  0  0  0  0
   20.2790  -18.6862  -14.8820 C   0  0  0  0  0  0  0  0  0  0  0  0
   21.5293  -19.4653  -14.6548 C   0  0  0  0  0  0  0  0  0  0  0  0
   21.5045  -20.3096  -13.4331 C   0  0  2  0  0  0  0  0  0  0  0  0
   22.7576  -20.9843  -13.1806 N   0  0  0  0  0  0  0  0  0  0  0  0
   20.4229  -21.3084  -13.4659 C   0  0  0  0  0  0  0  0  0  0  0  0
   20.5167  -22.4525  -13.9688 O   0  0  0  0  0  0  0  0  0  0  0  0
   19.1654  -21.0149  -12.9060 O   0  0  0  0  0  0  0  0  0  0  0  0
  1  5  1  0
  1  2  1  0
  2  3  1  0
  4  3  1  0
  5  4  1  0
  6  8  1  0
  5  6  1  6
  7  6  2  0
  8 12  1  0
  9  8  1  0
  9 10  1  0
 10 11  1  0
 12 11  1  0
 12 13  1  6
 13 14  2  0
 16 15  1  0
 16 17  2  0
 18 16  1  0
 19 18  1  0
 20 19  1  6
 20 21  1  0
 21 13  1  0
 22 20  1  0
 22 24  1  0
 23 22  2  0
M  END
$$$$
