PPQ.pdb
     RDKit          3D

 24 25  0  0  1  0  0  0  0  0999 V2000
   29.6488  -19.1636  -18.6132 N   0  0  0  0  0  0  0  0  0  0  0  0
   29.6709  -19.3519  -20.0343 C   0  0  0  0  0  0  0  0  0  0  0  0
   28.2123  -19.1608  -20.4273 C   0  0  0  0  0  0  0  0  0  0  0  0
   27.7659  -18.0701  -19.4685 C   0  0  0  0  0  0  0  0  0  0  0  0
   28.6704  -18.1961  -18.2481 C   0  0  1  0  0  0  0  0  0  0  0  0
   27.8335  -18.6523  -17.1058 C   0  0  0  0  0  0  0  0  0  0  0  0
   27.6835  -19.8826  -17.0030 O   0  0  0  0  0  0  0  0  0  0  0  0
   27.2729  -17.7422  -16.2325 N   0  0  0  0  0  0  0  0  0  0  0  0
   28.0065  -16.5311  -15.7753 C   0  0  0  0  0  0  0  0  0  0  0  0
   26.9678  -15.4847  -16.1208 C   0  0  0  0  0  0  0  0  0  0  0  0
   25.6168  -16.2183  -16.0951 C   0  0  0  0  0  0  0  0  0  0  0  0
   26.0490  -17.5672  -15.5322 C   0  0  1  0  0  0  0  0  0  0  0  0
   25.0297  -18.5726  -15.5508 C   0  0  0  0  0  0  0  0  0  0  0  0
   24.3823  -18.8668  -16.5828 O   0  0  0  0  0  0  0  0  0  0  0  0
   24.8890  -24.1484  -14.1026 N   0  0  0  0  0  0  0  0  0  0  0  0
   23.5295  -23.9225  -13.7781 C   0  0  0  0  0  0  0  0  0  0  0  0
   22.7648  -24.9129  -13.7996 O   0  0  0  0  0  0  0  0  0  0  0  0
   23.0178  -22.6000  -13.4314 C   0  0  0  0  0  0  0  0  0  0  0  0
   24.0064  -21.4843  -13.4419 C   0  0  0  0  0  0  0  0  0  0  0  0
   23.7086  -20.4193  -14.4333 C   0  0  2  0  0  0  0  0  0  0  0  0
   24.6576  -19.3294  -14.4020 N   0  0  0  0  0  0  0  0  0  0  0  0
   22.3499  -19.8735  -14.2762 C   0  0  0  0  0  0  0  0  0  0  0  0
   22.0420  -18.9180  -13.5259 O   0  0  0  0  0  0  0  0  0  0  0  0
   21.2736  -20.4244  -14.9965 O   0  0  0  0  0  0  0  0  0  0  0  0
  1  5  1  0
  1  2  1  0
  2  3  1  0
  4  3  1  0
  5  4  1  0
  6  8  1  0
  5  6  1  1
  7  6  2  0
  8 12  1  0
  9  8  1  0
  9 10  1  0
 10 11  1  0
 12 11  1  0
 12 13  1  6
 13 14  2  0
 16 15  1  0
 16 17  2  0
 18 16  1  0
 19 18  1  0
 20 19  1  1
 20 21  1  0
 21 13  1  0
 22 20  1  0
 22 24  1  0
 23 22  2  0
M  END
$$$$
