PPQ.pdb
     RDKit          3D

 24 25  0  0  1  0  0  0  0  0999 V2000
   16.1032  -21.5730    2.5801 N   0  0  0  0  0  0  0  0  0  0  0  0
   15.7593  -20.2356    2.9656 C   0  0  0  0  0  0  0  0  0  0  0  0
   16.5194  -20.0500    4.2718 C   0  0  0  0  0  0  0  0  0  0  0  0
   17.7995  -20.8241    4.0064 C   0  0  0  0  0  0  0  0  0  0  0  0
   17.4357  -21.8839    2.9731 C   0  0  1  0  0  0  0  0  0  0  0  0
   17.5270  -23.2141    3.6331 C   0  0  0  0  0  0  0  0  0  0  0  0
   16.5762  -23.5152    4.3762 O   0  0  0  0  0  0  0  0  0  0  0  0
   18.6117  -24.0390    3.4139 N   0  0  0  0  0  0  0  0  0  0  0  0
   19.2984  -24.1073    2.0957 C   0  0  0  0  0  0  0  0  0  0  0  0
   20.7183  -23.8578    2.5589 C   0  0  0  0  0  0  0  0  0  0  0  0
   20.7637  -24.3232    4.0236 C   0  0  0  0  0  0  0  0  0  0  0  0
   19.3911  -24.9746    4.1459 C   0  0  1  0  0  0  0  0  0  0  0  0
   19.0341  -25.3617    5.4774 C   0  0  0  0  0  0  0  0  0  0  0  0
   18.8173  -24.5332    6.3924 O   0  0  0  0  0  0  0  0  0  0  0  0
   16.4324  -30.8848    6.9558 N   0  0  0  0  0  0  0  0  0  0  0  0
   15.8735  -29.6795    6.4666 C   0  0  0  0  0  0  0  0  0  0  0  0
   14.7609  -29.7549    5.8985 O   0  0  0  0  0  0  0  0  0  0  0  0
   16.5475  -28.3921    6.6058 C   0  0  0  0  0  0  0  0  0  0  0  0
   17.8528  -28.4030    7.3256 C   0  0  0  0  0  0  0  0  0  0  0  0
   18.6022  -27.1234    7.2422 C   0  0  2  0  0  0  0  0  0  0  0  0
   18.8928  -26.7201    5.8848 N   0  0  0  0  0  0  0  0  0  0  0  0
   19.8593  -27.1610    8.0083 C   0  0  0  0  0  0  0  0  0  0  0  0
   19.9415  -27.3477    9.2449 O   0  0  0  0  0  0  0  0  0  0  0  0
   21.0947  -26.9801    7.3587 O   0  0  0  0  0  0  0  0  0  0  0  0
  1  5  1  0
  1  2  1  0
  2  3  1  0
  4  3  1  0
  5  4  1  0
  6  8  1  0
  5  6  1  1
  7  6  2  0
  8 12  1  0
  9  8  1  0
  9 10  1  0
 10 11  1  0
 12 11  1  0
 12 13  1  1
 13 14  2  0
 16 15  1  0
 16 17  2  0
 18 16  1  0
 19 18  1  0
 20 19  1  6
 20 21  1  0
 21 13  1  0
 22 20  1  0
 22 24  1  0
 23 22  2  0
M  END
$$$$
