PPQ.pdb
     RDKit          3D

 24 25  0  0  1  0  0  0  0  0999 V2000
   27.4509  -19.8217  -15.6683 N   0  0  0  0  0  0  0  0  0  0  0  0
   27.8106  -18.5621  -16.2511 C   0  0  0  0  0  0  0  0  0  0  0  0
   27.0106  -17.5629  -15.4265 C   0  0  0  0  0  0  0  0  0  0  0  0
   27.0541  -18.1873  -14.0422 C   0  0  0  0  0  0  0  0  0  0  0  0
   27.2293  -19.6845  -14.2688 C   0  0  1  0  0  0  0  0  0  0  0  0
   25.9779  -20.3608  -13.8329 C   0  0  0  0  0  0  0  0  0  0  0  0
   25.0302  -20.3144  -14.6369 O   0  0  0  0  0  0  0  0  0  0  0  0
   25.9053  -20.9915  -12.6073 N   0  0  0  0  0  0  0  0  0  0  0  0
   27.0872  -21.6473  -11.9853 C   0  0  0  0  0  0  0  0  0  0  0  0
   27.0459  -20.9683  -10.6324 C   0  0  0  0  0  0  0  0  0  0  0  0
   25.5788  -20.5612  -10.4183 C   0  0  0  0  0  0  0  0  0  0  0  0
   24.9268  -21.2518  -11.6105 C   0  0  1  0  0  0  0  0  0  0  0  0
   23.5500  -20.9146  -11.8121 C   0  0  0  0  0  0  0  0  0  0  0  0
   22.6799  -21.0418  -10.9190 O   0  0  0  0  0  0  0  0  0  0  0  0
   20.2980  -16.7591  -15.6894 N   0  0  0  0  0  0  0  0  0  0  0  0
   21.1582  -17.7386  -16.2419 C   0  0  0  0  0  0  0  0  0  0  0  0
   21.2660  -17.7666  -17.4884 O   0  0  0  0  0  0  0  0  0  0  0  0
   21.8972  -18.6868  -15.4137 C   0  0  0  0  0  0  0  0  0  0  0  0
   21.7716  -18.5149  -13.9384 C   0  0  0  0  0  0  0  0  0  0  0  0
   21.7408  -19.7911  -13.1794 C   0  0  2  0  0  0  0  0  0  0  0  0
   23.0424  -20.4048  -13.0424 N   0  0  0  0  0  0  0  0  0  0  0  0
   20.8116  -20.7697  -13.7688 C   0  0  0  0  0  0  0  0  0  0  0  0
   21.1431  -21.7024  -14.5376 O   0  0  0  0  0  0  0  0  0  0  0  0
   19.4346  -20.7047  -13.4850 O   0  0  0  0  0  0  0  0  0  0  0  0
  1  5  1  0
  1  2  1  0
  2  3  1  0
  4  3  1  0
  5  4  1  0
  6  8  1  0
  5  6  1  6
  7  6  2  0
  8 12  1  0
  9  8  1  0
  9 10  1  0
 10 11  1  0
 12 11  1  0
 12 13  1  6
 13 14  2  0
 16 15  1  0
 16 17  2  0
 18 16  1  0
 19 18  1  0
 20 19  1  6
 20 21  1  0
 21 13  1  0
 22 20  1  0
 22 24  1  0
 23 22  2  0
M  END
$$$$
