PPQ.pdb
     RDKit          3D

 24 25  0  0  1  0  0  0  0  0999 V2000
   27.8049  -20.5570  -15.3494 N   0  0  0  0  0  0  0  0  0  0  0  0
   28.3692  -19.4497  -16.0643 C   0  0  0  0  0  0  0  0  0  0  0  0
   27.5828  -18.2607  -15.5291 C   0  0  0  0  0  0  0  0  0  0  0  0
   27.3823  -18.6430  -14.0724 C   0  0  0  0  0  0  0  0  0  0  0  0
   27.4229  -20.1663  -14.0348 C   0  0  1  0  0  0  0  0  0  0  0  0
   26.0609  -20.6499  -13.6825 C   0  0  0  0  0  0  0  0  0  0  0  0
   25.2610  -20.7500  -14.6295 O   0  0  0  0  0  0  0  0  0  0  0  0
   25.7366  -20.9598  -12.3771 N   0  0  0  0  0  0  0  0  0  0  0  0
   26.7015  -21.6246  -11.4601 C   0  0  0  0  0  0  0  0  0  0  0  0
   26.6313  -20.6514  -10.3020 C   0  0  0  0  0  0  0  0  0  0  0  0
   25.2479  -19.9879  -10.4022 C   0  0  0  0  0  0  0  0  0  0  0  0
   24.6207  -20.8297  -11.5073 C   0  0  1  0  0  0  0  0  0  0  0  0
   23.3598  -20.3436  -11.9808 C   0  0  0  0  0  0  0  0  0  0  0  0
   23.0796  -19.1236  -12.0414 O   0  0  0  0  0  0  0  0  0  0  0  0
   21.0111  -20.7123  -17.3299 N   0  0  0  0  0  0  0  0  0  0  0  0
   19.8298  -20.4404  -16.5984 C   0  0  0  0  0  0  0  0  0  0  0  0
   18.8369  -20.0383  -17.2454 O   0  0  0  0  0  0  0  0  0  0  0  0
   19.7493  -20.6128  -15.1510 C   0  0  0  0  0  0  0  0  0  0  0  0
   20.9764  -21.1237  -14.4763 C   0  0  0  0  0  0  0  0  0  0  0  0
   21.0982  -20.7205  -13.0521 C   0  0  2  0  0  0  0  0  0  0  0  0
   22.3099  -21.1987  -12.4255 N   0  0  0  0  0  0  0  0  0  0  0  0
   19.9427  -21.1527  -12.2480 C   0  0  0  0  0  0  0  0  0  0  0  0
   19.9152  -22.1728  -11.5203 O   0  0  0  0  0  0  0  0  0  0  0  0
   18.7502  -20.4053  -12.2559 O   0  0  0  0  0  0  0  0  0  0  0  0
  1  5  1  0
  1  2  1  0
  2  3  1  0
  4  3  1  0
  5  4  1  0
  6  8  1  0
  5  6  1  6
  7  6  2  0
  8 12  1  0
  9  8  1  0
  9 10  1  0
 10 11  1  0
 12 11  1  0
 12 13  1  6
 13 14  2  0
 16 15  1  0
 16 17  2  0
 18 16  1  0
 19 18  1  0
 20 19  1  6
 20 21  1  0
 21 13  1  0
 22 20  1  0
 22 24  1  0
 23 22  2  0
M  END
$$$$
