PPQ.pdb
     RDKit          3D

 24 25  0  0  1  0  0  0  0  0999 V2000
   26.7256  -19.9530  -10.1241 N   0  0  0  0  0  0  0  0  0  0  0  0
   26.2183  -20.1496   -8.7975 C   0  0  0  0  0  0  0  0  0  0  0  0
   24.7270  -20.3522   -9.0283 C   0  0  0  0  0  0  0  0  0  0  0  0
   24.7105  -21.1219  -10.3381 C   0  0  0  0  0  0  0  0  0  0  0  0
   25.9920  -20.7302  -11.0645 C   0  0  1  0  0  0  0  0  0  0  0  0
   25.6114  -19.9395  -12.2658 C   0  0  0  0  0  0  0  0  0  0  0  0
   24.8151  -19.0049  -12.0678 O   0  0  0  0  0  0  0  0  0  0  0  0
   26.1270  -20.2490  -13.5082 N   0  0  0  0  0  0  0  0  0  0  0  0
   27.5854  -20.1851  -13.7964 C   0  0  0  0  0  0  0  0  0  0  0  0
   27.7722  -21.5762  -14.3647 C   0  0  0  0  0  0  0  0  0  0  0  0
   26.3989  -21.9829  -14.9237 C   0  0  0  0  0  0  0  0  0  0  0  0
   25.6438  -20.6669  -14.7774 C   0  0  1  0  0  0  0  0  0  0  0  0
   24.2406  -20.7541  -15.0485 C   0  0  0  0  0  0  0  0  0  0  0  0
   23.4602  -21.4679  -14.3760 O   0  0  0  0  0  0  0  0  0  0  0  0
   19.4692  -17.1475  -16.3212 N   0  0  0  0  0  0  0  0  0  0  0  0
   20.7936  -16.6855  -16.1284 C   0  0  0  0  0  0  0  0  0  0  0  0
   21.0072  -15.4672  -16.3191 O   0  0  0  0  0  0  0  0  0  0  0  0
   21.8804  -17.5731  -15.7257 C   0  0  0  0  0  0  0  0  0  0  0  0
   21.5046  -18.9828  -15.4200 C   0  0  0  0  0  0  0  0  0  0  0  0
   22.1698  -19.9894  -16.2860 C   0  0  2  0  0  0  0  0  0  0  0  0
   23.6029  -20.0402  -16.1043 N   0  0  0  0  0  0  0  0  0  0  0  0
   21.8770  -19.7792  -17.7138 C   0  0  0  0  0  0  0  0  0  0  0  0
   20.7366  -19.8416  -18.2300 O   0  0  0  0  0  0  0  0  0  0  0  0
   22.9146  -19.4825  -18.6173 O   0  0  0  0  0  0  0  0  0  0  0  0
  1  5  1  0
  1  2  1  0
  2  3  1  0
  4  3  1  0
  5  4  1  0
  6  8  1  0
  5  6  1  6
  7  6  2  0
  8 12  1  0
  9  8  1  0
  9 10  1  0
 10 11  1  0
 12 11  1  0
 12 13  1  1
 13 14  2  0
 16 15  1  0
 16 17  2  0
 18 16  1  0
 19 18  1  0
 20 19  1  1
 20 21  1  0
 21 13  1  0
 22 20  1  0
 22 24  1  0
 23 22  2  0
M  END
$$$$
