PPQ.pdb
     RDKit          3D

 24 25  0  0  1  0  0  0  0  0999 V2000
   12.9332  -22.8367   -1.0237 N   0  0  0  0  0  0  0  0  0  0  0  0
   13.0629  -22.7522   -2.4491 C   0  0  0  0  0  0  0  0  0  0  0  0
   14.4013  -22.0490   -2.6295 C   0  0  0  0  0  0  0  0  0  0  0  0
   15.2170  -22.6204   -1.4822 C   0  0  0  0  0  0  0  0  0  0  0  0
   14.2061  -23.0139   -0.4114 C   0  0  1  0  0  0  0  0  0  0  0  0
   14.3973  -22.1059    0.7514 C   0  0  0  0  0  0  0  0  0  0  0  0
   14.0664  -20.9205    0.5718 O   0  0  0  0  0  0  0  0  0  0  0  0
   14.9117  -22.5799    1.9413 N   0  0  0  0  0  0  0  0  0  0  0  0
   14.6562  -23.9669    2.4155 C   0  0  0  0  0  0  0  0  0  0  0  0
   16.0872  -24.3968    2.6616 C   0  0  0  0  0  0  0  0  0  0  0  0
   16.8677  -23.1005    2.9348 C   0  0  0  0  0  0  0  0  0  0  0  0
   15.7195  -22.1006    3.0074 C   0  0  1  0  0  0  0  0  0  0  0  0
   16.1290  -20.7301    3.0739 C   0  0  0  0  0  0  0  0  0  0  0  0
   16.5451  -20.0947    2.0771 O   0  0  0  0  0  0  0  0  0  0  0  0
   13.2871  -15.9245    2.6950 N   0  0  0  0  0  0  0  0  0  0  0  0
   14.4876  -15.4004    3.2322 C   0  0  0  0  0  0  0  0  0  0  0  0
   14.6156  -14.1555    3.2376 O   0  0  0  0  0  0  0  0  0  0  0  0
   15.5459  -16.2553    3.7618 C   0  0  0  0  0  0  0  0  0  0  0  0
   15.3111  -17.7252    3.6820 C   0  0  0  0  0  0  0  0  0  0  0  0
   16.3692  -18.5443    4.3265 C   0  0  2  0  0  0  0  0  0  0  0  0
   16.1018  -19.9640    4.2753 N   0  0  0  0  0  0  0  0  0  0  0  0
   16.6036  -18.1531    5.7267 C   0  0  0  0  0  0  0  0  0  0  0  0
   17.0629  -17.0471    6.0962 O   0  0  0  0  0  0  0  0  0  0  0  0
   16.3093  -19.0458    6.7743 O   0  0  0  0  0  0  0  0  0  0  0  0
  1  5  1  0
  1  2  1  0
  2  3  1  0
  4  3  1  0
  5  4  1  0
  6  8  1  0
  5  6  1  1
  7  6  2  0
  8 12  1  0
  9  8  1  0
  9 10  1  0
 10 11  1  0
 12 11  1  0
 12 13  1  6
 13 14  2  0
 16 15  1  0
 16 17  2  0
 18 16  1  0
 19 18  1  0
 20 19  1  1
 20 21  1  0
 21 13  1  0
 22 20  1  0
 22 24  1  0
 23 22  2  0
M  END
$$$$
