PPQ.pdb
     RDKit          3D

 24 25  0  0  1  0  0  0  0  0999 V2000
   19.5120  -10.4724  -15.1618 N   0  0  0  0  0  0  0  0  0  0  0  0
   19.0135  -10.7166  -16.4837 C   0  0  0  0  0  0  0  0  0  0  0  0
   18.1590   -9.4869  -16.7594 C   0  0  0  0  0  0  0  0  0  0  0  0
   18.9492   -8.3898  -16.0665 C   0  0  0  0  0  0  0  0  0  0  0  0
   19.7289   -9.0809  -14.9539 C   0  0  1  0  0  0  0  0  0  0  0  0
   19.1745   -8.6178  -13.6534 C   0  0  0  0  0  0  0  0  0  0  0  0
   18.0492   -9.0573  -13.3582 O   0  0  0  0  0  0  0  0  0  0  0  0
   19.8892   -7.7545  -12.8476 N   0  0  0  0  0  0  0  0  0  0  0  0
   21.3703   -7.8294  -12.7280 C   0  0  0  0  0  0  0  0  0  0  0  0
   21.7031   -6.3855  -13.0401 C   0  0  0  0  0  0  0  0  0  0  0  0
   20.4518   -5.5796  -12.6546 C   0  0  0  0  0  0  0  0  0  0  0  0
   19.6267   -6.6654  -11.9736 C   0  0  1  0  0  0  0  0  0  0  0  0
   18.2875   -6.2772  -11.6483 C   0  0  0  0  0  0  0  0  0  0  0  0
   17.4944   -5.7958  -12.4907 O   0  0  0  0  0  0  0  0  0  0  0  0
   14.1302   -9.1235   -7.8169 N   0  0  0  0  0  0  0  0  0  0  0  0
   13.5338   -7.8915   -8.1788 C   0  0  0  0  0  0  0  0  0  0  0  0
   12.3383   -7.7177   -7.8520 O   0  0  0  0  0  0  0  0  0  0  0  0
   14.2613   -6.8537   -8.9033 C   0  0  0  0  0  0  0  0  0  0  0  0
   15.6864   -7.1479   -9.2268 C   0  0  0  0  0  0  0  0  0  0  0  0
   16.3597   -6.0877  -10.0196 C   0  0  2  0  0  0  0  0  0  0  0  0
   17.7336   -6.4016  -10.3410 N   0  0  0  0  0  0  0  0  0  0  0  0
   16.3136   -4.7760   -9.3518 C   0  0  0  0  0  0  0  0  0  0  0  0
   17.2273   -4.3013   -8.6372 O   0  0  0  0  0  0  0  0  0  0  0  0
   15.1848   -3.9466   -9.4887 O   0  0  0  0  0  0  0  0  0  0  0  0
  1  5  1  0
  1  2  1  0
  2  3  1  0
  4  3  1  0
  5  4  1  0
  6  8  1  0
  5  6  1  1
  7  6  2  0
  8 12  1  0
  9  8  1  0
  9 10  1  0
 10 11  1  0
 12 11  1  0
 12 13  1  6
 13 14  2  0
 16 15  1  0
 16 17  2  0
 18 16  1  0
 19 18  1  0
 20 19  1  1
 20 21  1  0
 21 13  1  0
 22 20  1  0
 22 24  1  0
 23 22  2  0
M  END
$$$$
