PPQ.pdb
     RDKit          3D

 24 25  0  0  1  0  0  0  0  0999 V2000
   19.7254  -13.2970  -17.0860 N   0  0  0  0  0  0  0  0  0  0  0  0
   19.5650  -13.8609  -18.3944 C   0  0  0  0  0  0  0  0  0  0  0  0
   20.1707  -12.7984  -19.3013 C   0  0  0  0  0  0  0  0  0  0  0  0
   21.3255  -12.2833  -18.4590 C   0  0  0  0  0  0  0  0  0  0  0  0
   20.9246  -12.5335  -17.0098 C   0  0  1  0  0  0  0  0  0  0  0  0
   20.7046  -11.2119  -16.3633 C   0  0  0  0  0  0  0  0  0  0  0  0
   19.6434  -10.6350  -16.6598 O   0  0  0  0  0  0  0  0  0  0  0  0
   21.6386  -10.6863  -15.4934 N   0  0  0  0  0  0  0  0  0  0  0  0
   22.3425  -11.5272  -14.4878 C   0  0  0  0  0  0  0  0  0  0  0  0
   23.7697  -11.1534  -14.8289 C   0  0  0  0  0  0  0  0  0  0  0  0
   23.6914   -9.7542  -15.4612 C   0  0  0  0  0  0  0  0  0  0  0  0
   22.2247   -9.4231  -15.2111 C   0  0  1  0  0  0  0  0  0  0  0  0
   21.7673   -8.2289  -15.8551 C   0  0  0  0  0  0  0  0  0  0  0  0
   21.6817   -8.1169  -17.1004 O   0  0  0  0  0  0  0  0  0  0  0  0
   17.1697   -4.4131  -16.8264 N   0  0  0  0  0  0  0  0  0  0  0  0
   17.2475   -5.2494  -15.6867 C   0  0  0  0  0  0  0  0  0  0  0  0
   16.2398   -5.3016  -14.9464 O   0  0  0  0  0  0  0  0  0  0  0  0
   18.4415   -6.0261  -15.3669 C   0  0  0  0  0  0  0  0  0  0  0  0
   19.5415   -5.9928  -16.3724 C   0  0  0  0  0  0  0  0  0  0  0  0
   20.8978   -5.8534  -15.7833 C   0  0  2  0  0  0  0  0  0  0  0  0
   21.3683   -7.0608  -15.1429 N   0  0  0  0  0  0  0  0  0  0  0  0
   20.9779   -4.7409  -14.8219 C   0  0  0  0  0  0  0  0  0  0  0  0
   20.8904   -3.5265  -15.1195 O   0  0  0  0  0  0  0  0  0  0  0  0
   21.1663   -4.9968  -13.4508 O   0  0  0  0  0  0  0  0  0  0  0  0
  1  5  1  0
  1  2  1  0
  2  3  1  0
  4  3  1  0
  5  4  1  0
  6  8  1  0
  5  6  1  6
  7  6  2  0
  8 12  1  0
  9  8  1  0
  9 10  1  0
 10 11  1  0
 12 11  1  0
 12 13  1  6
 13 14  2  0
 16 15  1  0
 16 17  2  0
 18 16  1  0
 19 18  1  0
 20 19  1  1
 20 21  1  0
 21 13  1  0
 22 20  1  0
 22 24  1  0
 23 22  2  0
M  END
$$$$
