PPQ.pdb
     RDKit          3D

 24 25  0  0  1  0  0  0  0  0999 V2000
   27.9780  -20.5362  -15.2870 N   0  0  0  0  0  0  0  0  0  0  0  0
   28.4336  -19.4023  -16.0368 C   0  0  0  0  0  0  0  0  0  0  0  0
   27.5047  -18.2891  -15.5715 C   0  0  0  0  0  0  0  0  0  0  0  0
   27.3091  -18.6319  -14.1043 C   0  0  0  0  0  0  0  0  0  0  0  0
   27.5193  -20.1379  -13.9995 C   0  0  1  0  0  0  0  0  0  0  0  0
   26.2110  -20.7578  -13.6567 C   0  0  0  0  0  0  0  0  0  0  0  0
   25.4802  -21.0460  -14.6209 O   0  0  0  0  0  0  0  0  0  0  0  0
   25.8599  -20.9860  -12.3415 N   0  0  0  0  0  0  0  0  0  0  0  0
   26.7921  -21.6268  -11.3749 C   0  0  0  0  0  0  0  0  0  0  0  0
   26.7350  -20.5897  -10.2729 C   0  0  0  0  0  0  0  0  0  0  0  0
   25.3735  -19.8930  -10.4303 C   0  0  0  0  0  0  0  0  0  0  0  0
   24.7366  -20.7759  -11.4972 C   0  0  1  0  0  0  0  0  0  0  0  0
   23.4973  -20.2805  -12.0157 C   0  0  0  0  0  0  0  0  0  0  0  0
   23.1823  -19.0678  -11.9846 O   0  0  0  0  0  0  0  0  0  0  0  0
   21.8878  -20.6516  -17.7298 N   0  0  0  0  0  0  0  0  0  0  0  0
   20.6704  -20.2488  -17.1296 C   0  0  0  0  0  0  0  0  0  0  0  0
   19.7420  -19.9053  -17.8953 O   0  0  0  0  0  0  0  0  0  0  0  0
   20.4826  -20.2255  -15.6820 C   0  0  0  0  0  0  0  0  0  0  0  0
   21.6419  -20.6703  -14.8572 C   0  0  0  0  0  0  0  0  0  0  0  0
   21.4007  -20.6161  -13.3927 C   0  0  2  0  0  0  0  0  0  0  0  0
   22.5101  -21.1169  -12.6131 N   0  0  0  0  0  0  0  0  0  0  0  0
   20.1779  -21.3369  -13.0005 C   0  0  0  0  0  0  0  0  0  0  0  0
   19.0164  -20.8710  -13.0687 O   0  0  0  0  0  0  0  0  0  0  0  0
   20.2546  -22.6516  -12.5042 O   0  0  0  0  0  0  0  0  0  0  0  0
  1  5  1  0
  1  2  1  0
  2  3  1  0
  4  3  1  0
  5  4  1  0
  6  8  1  0
  5  6  1  6
  7  6  2  0
  8 12  1  0
  9  8  1  0
  9 10  1  0
 10 11  1  0
 12 11  1  0
 12 13  1  6
 13 14  2  0
 16 15  1  0
 16 17  2  0
 18 16  1  0
 19 18  1  0
 20 19  1  6
 20 21  1  0
 21 13  1  0
 22 20  1  0
 22 24  1  0
 23 22  2  0
M  END
$$$$
