PPQ.pdb
     RDKit          3D

 24 25  0  0  1  0  0  0  0  0999 V2000
   26.3203  -21.2526  -13.8456 N   0  0  0  0  0  0  0  0  0  0  0  0
   26.1091  -20.4508  -15.0153 C   0  0  0  0  0  0  0  0  0  0  0  0
   24.9068  -19.5983  -14.6330 C   0  0  0  0  0  0  0  0  0  0  0  0
   25.1545  -19.3454  -13.1555 C   0  0  0  0  0  0  0  0  0  0  0  0
   25.9905  -20.5232  -12.6683 C   0  0  1  0  0  0  0  0  0  0  0  0
   25.1522  -21.3214  -11.7338 C   0  0  0  0  0  0  0  0  0  0  0  0
   24.4161  -22.1737  -12.2616 O   0  0  0  0  0  0  0  0  0  0  0  0
   25.2107  -21.1056  -10.3718 N   0  0  0  0  0  0  0  0  0  0  0  0
   26.5029  -20.9373   -9.6536 C   0  0  0  0  0  0  0  0  0  0  0  0
   26.2066  -19.6338   -8.9422 C   0  0  0  0  0  0  0  0  0  0  0  0
   24.6764  -19.5766   -8.8032 C   0  0  0  0  0  0  0  0  0  0  0  0
   24.3061  -20.9748   -9.2840 C   0  0  1  0  0  0  0  0  0  0  0  0
   22.9009  -21.1917   -9.4534 C   0  0  0  0  0  0  0  0  0  0  0  0
   22.2012  -20.5284  -10.2541 O   0  0  0  0  0  0  0  0  0  0  0  0
   19.0681  -25.8439   -6.7982 N   0  0  0  0  0  0  0  0  0  0  0  0
   18.2486  -24.9637   -7.5453 C   0  0  0  0  0  0  0  0  0  0  0  0
   17.0199  -25.2011   -7.5600 O   0  0  0  0  0  0  0  0  0  0  0  0
   18.7904  -23.8221   -8.2763 C   0  0  0  0  0  0  0  0  0  0  0  0
   20.2575  -23.5905   -8.1486 C   0  0  0  0  0  0  0  0  0  0  0  0
   20.7513  -22.4038   -8.8927 C   0  0  2  0  0  0  0  0  0  0  0  0
   22.1697  -22.1782   -8.7300 N   0  0  0  0  0  0  0  0  0  0  0  0
   20.0276  -21.1743   -8.5278 C   0  0  0  0  0  0  0  0  0  0  0  0
   20.3796  -20.3731   -7.6305 O   0  0  0  0  0  0  0  0  0  0  0  0
   18.8444  -20.8179   -9.2014 O   0  0  0  0  0  0  0  0  0  0  0  0
  1  5  1  0
  1  2  1  0
  2  3  1  0
  4  3  1  0
  5  4  1  0
  6  8  1  0
  5  6  1  1
  7  6  2  0
  8 12  1  0
  9  8  1  0
  9 10  1  0
 10 11  1  0
 12 11  1  0
 12 13  1  6
 13 14  2  0
 16 15  1  0
 16 17  2  0
 18 16  1  0
 19 18  1  0
 20 19  1  1
 20 21  1  0
 21 13  1  0
 22 20  1  0
 22 24  1  0
 23 22  2  0
M  END
$$$$
