PPQ.pdb
     RDKit          3D

 24 25  0  0  1  0  0  0  0  0999 V2000
   15.9760  -19.5776    1.5020 N   0  0  0  0  0  0  0  0  0  0  0  0
   14.6923  -20.2091    1.4079 C   0  0  0  0  0  0  0  0  0  0  0  0
   13.9966  -19.7617    2.6863 C   0  0  0  0  0  0  0  0  0  0  0  0
   14.5160  -18.3434    2.8503 C   0  0  0  0  0  0  0  0  0  0  0  0
   15.8704  -18.3152    2.1514 C   0  0  1  0  0  0  0  0  0  0  0  0
   16.9170  -18.1341    3.1931 C   0  0  0  0  0  0  0  0  0  0  0  0
   17.2162  -19.1524    3.8414 O   0  0  0  0  0  0  0  0  0  0  0  0
   17.5000  -16.9006    3.4023 N   0  0  0  0  0  0  0  0  0  0  0  0
   17.8040  -15.9704    2.2816 C   0  0  0  0  0  0  0  0  0  0  0  0
   17.1103  -14.7327    2.8108 C   0  0  0  0  0  0  0  0  0  0  0  0
   17.0900  -14.8915    4.3400 C   0  0  0  0  0  0  0  0  0  0  0  0
   17.9688  -16.1269    4.4980 C   0  0  1  0  0  0  0  0  0  0  0  0
   18.0076  -16.6621    5.8254 C   0  0  0  0  0  0  0  0  0  0  0  0
   16.9790  -16.8356    6.5200 O   0  0  0  0  0  0  0  0  0  0  0  0
   18.7950  -22.4703    8.4734 N   0  0  0  0  0  0  0  0  0  0  0  0
   18.6971  -21.5400    7.4106 C   0  0  0  0  0  0  0  0  0  0  0  0
   17.9987  -21.8693    6.4256 O   0  0  0  0  0  0  0  0  0  0  0  0
   19.3735  -20.2467    7.4388 C   0  0  0  0  0  0  0  0  0  0  0  0
   18.5127  -19.0551    7.6862 C   0  0  0  0  0  0  0  0  0  0  0  0
   19.2546  -17.7692    7.7291 C   0  0  2  0  0  0  0  0  0  0  0  0
   19.2150  -17.0459    6.4782 N   0  0  0  0  0  0  0  0  0  0  0  0
   20.6595  -17.9477    8.1327 C   0  0  0  0  0  0  0  0  0  0  0  0
   21.0371  -18.4062    9.2364 O   0  0  0  0  0  0  0  0  0  0  0  0
   21.7026  -17.5949    7.2561 O   0  0  0  0  0  0  0  0  0  0  0  0
  1  5  1  0
  1  2  1  0
  2  3  1  0
  4  3  1  0
  5  4  1  0
  6  8  1  0
  5  6  1  1
  7  6  2  0
  8 12  1  0
  9  8  1  0
  9 10  1  0
 10 11  1  0
 12 11  1  0
 12 13  1  1
 13 14  2  0
 16 15  1  0
 16 17  2  0
 18 16  1  0
 19 18  1  0
 20 19  1  6
 20 21  1  0
 21 13  1  0
 22 20  1  0
 22 24  1  0
 23 22  2  0
M  END
$$$$
