PPQ.pdb
     RDKit          3D

 24 25  0  0  1  0  0  0  0  0999 V2000
   28.1511  -20.4049  -16.7340 N   0  0  0  0  0  0  0  0  0  0  0  0
   28.2822  -19.2198  -17.5302 C   0  0  0  0  0  0  0  0  0  0  0  0
   28.0170  -18.1039  -16.5288 C   0  0  0  0  0  0  0  0  0  0  0  0
   28.6523  -18.6556  -15.2637 C   0  0  0  0  0  0  0  0  0  0  0  0
   28.6073  -20.1727  -15.4056 C   0  0  1  0  0  0  0  0  0  0  0  0
   27.6562  -20.6974  -14.3891 C   0  0  0  0  0  0  0  0  0  0  0  0
   26.4668  -20.7656  -14.7461 O   0  0  0  0  0  0  0  0  0  0  0  0
   28.0975  -21.0765  -13.1374 N   0  0  0  0  0  0  0  0  0  0  0  0
   29.2815  -21.9580  -12.9508 C   0  0  0  0  0  0  0  0  0  0  0  0
   30.0630  -21.0971  -11.9807 C   0  0  0  0  0  0  0  0  0  0  0  0
   29.0165  -20.2313  -11.2599 C   0  0  0  0  0  0  0  0  0  0  0  0
   27.7320  -20.8654  -11.7807 C   0  0  1  0  0  0  0  0  0  0  0  0
   26.5369  -20.1577  -11.4325 C   0  0  0  0  0  0  0  0  0  0  0  0
   26.3172  -18.9762  -11.7880 O   0  0  0  0  0  0  0  0  0  0  0  0
   22.0293  -21.2153  -14.4682 N   0  0  0  0  0  0  0  0  0  0  0  0
   21.4258  -20.4215  -13.4631 C   0  0  0  0  0  0  0  0  0  0  0  0
   20.2744  -19.9878  -13.6921 O   0  0  0  0  0  0  0  0  0  0  0  0
   22.0983  -20.1075  -12.2060 C   0  0  0  0  0  0  0  0  0  0  0  0
   23.4701  -20.6645  -12.0324 C   0  0  0  0  0  0  0  0  0  0  0  0
   24.1083  -20.3129  -10.7382 C   0  0  2  0  0  0  0  0  0  0  0  0
   25.4900  -20.7286  -10.6521 N   0  0  0  0  0  0  0  0  0  0  0  0
   23.3727  -20.8595   -9.5855 C   0  0  0  0  0  0  0  0  0  0  0  0
   22.2484  -20.4641   -9.1978 O   0  0  0  0  0  0  0  0  0  0  0  0
   23.9220  -21.9064   -8.8218 O   0  0  0  0  0  0  0  0  0  0  0  0
  1  5  1  0
  1  2  1  0
  2  3  1  0
  4  3  1  0
  5  4  1  0
  6  8  1  0
  5  6  1  1
  7  6  2  0
  8 12  1  0
  9  8  1  0
  9 10  1  0
 10 11  1  0
 12 11  1  0
 12 13  1  6
 13 14  2  0
 16 15  1  0
 16 17  2  0
 18 16  1  0
 19 18  1  0
 20 19  1  6
 20 21  1  0
 21 13  1  0
 22 20  1  0
 22 24  1  0
 23 22  2  0
M  END
$$$$
