FIW.pdb
     RDKit          3D

 34 36  0  0  1  0  0  0  0  0999 V2000
   25.6338  -21.5951  -13.5123 N   0  0  0  0  0  0  0  0  0  0  0  0
   24.8133  -20.4430  -13.1059 C   0  0  1  0  0  0  0  0  0  0  0  0
   25.6391  -19.7538  -12.0226 C   0  0  0  0  0  0  0  0  0  0  0  0
   25.3950  -20.4973  -10.7633 C   0  0  0  0  0  0  0  0  0  0  0  0
   24.1247  -20.6342  -10.2483 C   0  0  0  0  0  0  0  0  0  0  0  0
   23.9115  -21.3384   -9.0597 C   0  0  0  0  0  0  0  0  0  0  0  0
   24.9733  -21.9059   -8.3869 C   0  0  0  0  0  0  0  0  0  0  0  0
   26.2375  -21.7744   -8.8918 C   0  0  0  0  0  0  0  0  0  0  0  0
   26.4265  -21.0799  -10.0592 C   0  0  0  0  0  0  0  0  0  0  0  0
   24.5805  -19.5856  -14.2637 C   0  0  0  0  0  0  0  0  0  0  0  0
   25.5339  -19.3245  -15.0476 O   0  0  0  0  0  0  0  0  0  0  0  0
   22.0151  -21.1275  -16.7017 C   0  0  0  0  0  0  0  0  0  0  0  0
   22.5873  -19.9103  -17.3625 C   0  0  0  0  0  0  0  0  0  0  0  0
   22.2071  -18.6612  -16.6560 C   0  0  2  0  0  0  0  0  0  0  0  0
   21.4351  -17.6871  -17.5238 C   0  0  0  0  0  0  0  0  0  0  0  0
   23.1713  -18.0536  -15.7105 C   0  0  2  0  0  0  0  0  0  0  0  0
   23.3321  -18.9973  -14.6000 N   0  0  0  0  0  0  0  0  0  0  0  0
   22.9194  -16.6979  -15.2435 C   0  0  0  0  0  0  0  0  0  0  0  0
   22.0662  -16.5208  -14.3425 O   0  0  0  0  0  0  0  0  0  0  0  0
   23.5827  -15.5477  -15.7491 N   0  0  0  0  0  0  0  0  0  0  0  0
   23.1530  -14.2372  -15.3513 C   0  0  1  0  0  0  0  0  0  0  0  0
   24.2876  -13.2893  -15.0276 C   0  0  0  0  0  0  0  0  0  0  0  0
   23.7930  -11.9550  -14.6085 C   0  0  0  0  0  0  0  0  0  0  0  0
   23.4368  -11.5309  -13.3222 C   0  0  0  0  0  0  0  0  0  0  0  0
   23.0330  -10.2470  -13.3638 N   0  0  0  0  0  0  0  0  0  0  0  0
   23.1027   -9.7874  -14.6284 C   0  0  0  0  0  0  0  0  0  0  0  0
   22.8067   -8.5593  -15.1956 C   0  0  0  0  0  0  0  0  0  0  0  0
   22.9676   -8.3376  -16.5489 C   0  0  0  0  0  0  0  0  0  0  0  0
   23.4310   -9.3737  -17.3171 C   0  0  0  0  0  0  0  0  0  0  0  0
   23.7275  -10.6004  -16.7553 C   0  0  0  0  0  0  0  0  0  0  0  0
   23.5693  -10.8348  -15.3944 C   0  0  0  0  0  0  0  0  0  0  0  0
   22.1633  -13.6121  -16.2436 C   0  0  0  0  0  0  0  0  0  0  0  0
   22.3360  -13.6235  -17.4778 O   0  0  0  0  0  0  0  0  0  0  0  0
   21.0445  -13.0123  -15.7180 O   0  0  0  0  0  0  0  0  0  0  0  0
  2  1  1  6
  2  3  1  0
  4  5  2  0
  4  3  1  0
  6  5  1  0
  7  6  2  0
  8  7  1  0
  8  9  2  0
  9  4  1  0
 10  2  1  0
 11 10  2  0
 12 13  1  0
 13 14  1  0
 14 15  1  6
 16 14  1  0
 16 17  1  1
 17 10  1  0
 18 16  1  0
 18 20  1  0
 19 18  2  0
 21 20  1  0
 21 22  1  6
 22 23  1  0
 23 24  2  0
 24 25  1  0
 26 25  1  0
 27 26  2  0
 28 27  1  0
 29 30  1  0
 29 28  2  0
 30 31  2  0
 31 23  1  0
 31 26  1  0
 32 21  1  0
 33 32  2  0
 34 32  1  0
M  END
$$$$
