FIW.pdb
     RDKit          3D

 34 36  0  0  1  0  0  0  0  0999 V2000
   28.8423  -25.2980  -16.9661 N   0  0  0  0  0  0  0  0  0  0  0  0
   27.8589  -24.3895  -17.5771 C   0  0  1  0  0  0  0  0  0  0  0  0
   26.6863  -25.2945  -17.9467 C   0  0  0  0  0  0  0  0  0  0  0  0
   26.9357  -25.7719  -19.3280 C   0  0  0  0  0  0  0  0  0  0  0  0
   27.3584  -27.0595  -19.5743 C   0  0  0  0  0  0  0  0  0  0  0  0
   27.5890  -27.4941  -20.8829 C   0  0  0  0  0  0  0  0  0  0  0  0
   27.3954  -26.6363  -21.9453 C   0  0  0  0  0  0  0  0  0  0  0  0
   26.9757  -25.3563  -21.7090 C   0  0  0  0  0  0  0  0  0  0  0  0
   26.7548  -24.9487  -20.4183 C   0  0  0  0  0  0  0  0  0  0  0  0
   27.4894  -23.3600  -16.6109 C   0  0  0  0  0  0  0  0  0  0  0  0
   27.5331  -23.6189  -15.3769 O   0  0  0  0  0  0  0  0  0  0  0  0
   29.4515  -18.5292  -17.2473 C   0  0  0  0  0  0  0  0  0  0  0  0
   28.9445  -19.8265  -16.6944 C   0  0  0  0  0  0  0  0  0  0  0  0
   27.4892  -19.7787  -16.4047 C   0  0  2  0  0  0  0  0  0  0  0  0
   27.0488  -18.4935  -15.7324 C   0  0  0  0  0  0  0  0  0  0  0  0
   26.8129  -21.0111  -15.9393 C   0  0  2  0  0  0  0  0  0  0  0  0
   27.0700  -22.0450  -16.9466 N   0  0  0  0  0  0  0  0  0  0  0  0
   25.4033  -20.9328  -15.5839 C   0  0  0  0  0  0  0  0  0  0  0  0
   24.5840  -20.5526  -16.4530 O   0  0  0  0  0  0  0  0  0  0  0  0
   24.8884  -21.2604  -14.3009 N   0  0  0  0  0  0  0  0  0  0  0  0
   23.4809  -21.1497  -14.0416 C   0  0  1  0  0  0  0  0  0  0  0  0
   23.0016  -21.9898  -12.8775 C   0  0  0  0  0  0  0  0  0  0  0  0
   23.6083  -21.5575  -11.5948 C   0  0  0  0  0  0  0  0  0  0  0  0
   24.8959  -21.0523  -11.3753 C   0  0  0  0  0  0  0  0  0  0  0  0
   25.0599  -20.7819  -10.0664 N   0  0  0  0  0  0  0  0  0  0  0  0
   23.9329  -21.0849   -9.3932 C   0  0  0  0  0  0  0  0  0  0  0  0
   23.5893  -20.9952   -8.0547 C   0  0  0  0  0  0  0  0  0  0  0  0
   22.3406  -21.3794   -7.6081 C   0  0  0  0  0  0  0  0  0  0  0  0
   21.4475  -21.8540   -8.5331 C   0  0  0  0  0  0  0  0  0  0  0  0
   21.7861  -21.9452   -9.8693 C   0  0  0  0  0  0  0  0  0  0  0  0
   23.0401  -21.5614  -10.3300 C   0  0  0  0  0  0  0  0  0  0  0  0
   22.9726  -19.7708  -13.9595 C   0  0  0  0  0  0  0  0  0  0  0  0
   23.7427  -18.8345  -13.6704 O   0  0  0  0  0  0  0  0  0  0  0  0
   21.6452  -19.5110  -14.2009 O   0  0  0  0  0  0  0  0  0  0  0  0
  2  1  1  1
  2  3  1  0
  4  5  2  0
  4  3  1  0
  6  5  1  0
  7  6  2  0
  8  7  1  0
  8  9  2  0
  9  4  1  0
 10  2  1  0
 11 10  2  0
 12 13  1  0
 13 14  1  0
 14 15  1  1
 16 14  1  0
 16 17  1  6
 17 10  1  0
 18 16  1  0
 18 20  1  0
 19 18  2  0
 21 20  1  0
 21 22  1  1
 22 23  1  0
 23 24  2  0
 24 25  1  0
 26 25  1  0
 27 26  2  0
 28 27  1  0
 29 30  1  0
 29 28  2  0
 30 31  2  0
 31 23  1  0
 31 26  1  0
 32 21  1  0
 33 32  2  0
 34 32  1  0
M  END
$$$$
