FIW.pdb
     RDKit          3D

 34 36  0  0  1  0  0  0  0  0999 V2000
   28.2716  -24.4551  -17.9426 N   0  0  0  0  0  0  0  0  0  0  0  0
   27.0789  -23.8150  -17.3652 C   0  0  1  0  0  0  0  0  0  0  0  0
   26.2524  -24.9771  -16.8201 C   0  0  0  0  0  0  0  0  0  0  0  0
   25.4149  -25.4667  -17.9413 C   0  0  0  0  0  0  0  0  0  0  0  0
   25.6939  -26.6572  -18.5756 C   0  0  0  0  0  0  0  0  0  0  0  0
   24.8942  -27.1048  -19.6313 C   0  0  0  0  0  0  0  0  0  0  0  0
   23.8136  -26.3577  -20.0510 C   0  0  0  0  0  0  0  0  0  0  0  0
   23.5300  -25.1747  -19.4262 C   0  0  0  0  0  0  0  0  0  0  0  0
   24.3262  -24.7524  -18.3926 C   0  0  0  0  0  0  0  0  0  0  0  0
   27.4911  -22.8823  -16.3211 C   0  0  0  0  0  0  0  0  0  0  0  0
   28.4803  -23.1625  -15.5901 O   0  0  0  0  0  0  0  0  0  0  0  0
   27.5197  -16.9716  -15.0344 C   0  0  0  0  0  0  0  0  0  0  0  0
   27.4839  -18.3216  -14.3850 C   0  0  0  0  0  0  0  0  0  0  0  0
   27.2676  -19.4097  -15.3717 C   0  0  2  0  0  0  0  0  0  0  0  0
   26.2796  -19.0482  -16.4630 C   0  0  0  0  0  0  0  0  0  0  0  0
   27.2089  -20.8089  -14.8903 C   0  0  2  0  0  0  0  0  0  0  0  0
   26.8560  -21.6423  -16.0438 N   0  0  0  0  0  0  0  0  0  0  0  0
   26.3826  -21.1053  -13.7288 C   0  0  0  0  0  0  0  0  0  0  0  0
   25.1454  -21.2297  -13.8866 O   0  0  0  0  0  0  0  0  0  0  0  0
   26.8914  -21.2623  -12.4116 N   0  0  0  0  0  0  0  0  0  0  0  0
   25.9916  -21.4809  -11.3149 C   0  0  1  0  0  0  0  0  0  0  0  0
   26.6610  -22.0126  -10.0660 C   0  0  0  0  0  0  0  0  0  0  0  0
   26.8440  -20.9551   -9.0419 C   0  0  0  0  0  0  0  0  0  0  0  0
   25.9398  -19.9556   -8.6615 C   0  0  0  0  0  0  0  0  0  0  0  0
   26.4888  -19.1900   -7.6993 N   0  0  0  0  0  0  0  0  0  0  0  0
   27.7287  -19.6338   -7.4150 C   0  0  0  0  0  0  0  0  0  0  0  0
   28.6943  -19.2043   -6.5200 C   0  0  0  0  0  0  0  0  0  0  0  0
   29.9130  -19.8451   -6.4187 C   0  0  0  0  0  0  0  0  0  0  0  0
   30.1395  -20.9234   -7.2337 C   0  0  0  0  0  0  0  0  0  0  0  0
   29.1790  -21.3552   -8.1279 C   0  0  0  0  0  0  0  0  0  0  0  0
   27.9488  -20.7178   -8.2384 C   0  0  0  0  0  0  0  0  0  0  0  0
   25.0987  -20.3509  -11.0111 C   0  0  0  0  0  0  0  0  0  0  0  0
   25.5090  -19.1794  -11.1238 O   0  0  0  0  0  0  0  0  0  0  0  0
   23.8083  -20.5840  -10.6010 O   0  0  0  0  0  0  0  0  0  0  0  0
  2  1  1  1
  2  3  1  0
  4  5  2  0
  4  3  1  0
  6  5  1  0
  7  6  2  0
  8  7  1  0
  8  9  2  0
  9  4  1  0
 10  2  1  0
 11 10  2  0
 12 13  1  0
 13 14  1  0
 14 15  1  1
 16 14  1  0
 16 17  1  6
 17 10  1  0
 18 16  1  0
 18 20  1  0
 19 18  2  0
 21 20  1  0
 21 22  1  1
 22 23  1  0
 23 24  2  0
 24 25  1  0
 26 25  1  0
 27 26  2  0
 28 27  1  0
 29 30  1  0
 29 28  2  0
 30 31  2  0
 31 23  1  0
 31 26  1  0
 32 21  1  0
 33 32  2  0
 34 32  1  0
M  END
$$$$
