FIW.pdb
     RDKit          3D

 34 36  0  0  1  0  0  0  0  0999 V2000
   25.0170  -17.5358  -15.9111 N   0  0  0  0  0  0  0  0  0  0  0  0
   26.0900  -17.9522  -14.9939 C   0  0  1  0  0  0  0  0  0  0  0  0
   26.6119  -16.6444  -14.4040 C   0  0  0  0  0  0  0  0  0  0  0  0
   27.3739  -15.9660  -15.4798 C   0  0  0  0  0  0  0  0  0  0  0  0
   27.0943  -14.6674  -15.8447 C   0  0  0  0  0  0  0  0  0  0  0  0
   27.8222  -14.0421  -16.8612 C   0  0  0  0  0  0  0  0  0  0  0  0
   28.8315  -14.7199  -17.5125 C   0  0  0  0  0  0  0  0  0  0  0  0
   29.1151  -16.0094  -17.1560 C   0  0  0  0  0  0  0  0  0  0  0  0
   28.3899  -16.6057  -16.1563 C   0  0  0  0  0  0  0  0  0  0  0  0
   25.5369  -18.8434  -13.9792 C   0  0  0  0  0  0  0  0  0  0  0  0
   24.4742  -18.5223  -13.3800 O   0  0  0  0  0  0  0  0  0  0  0  0
   24.6484  -23.7882  -15.0719 C   0  0  0  0  0  0  0  0  0  0  0  0
   24.6515  -22.3887  -14.5363 C   0  0  0  0  0  0  0  0  0  0  0  0
   25.3411  -22.2947  -13.2249 C   0  0  2  0  0  0  0  0  0  0  0  0
   25.0086  -23.4359  -12.2841 C   0  0  0  0  0  0  0  0  0  0  0  0
   25.4938  -20.9647  -12.5920 C   0  0  2  0  0  0  0  0  0  0  0  0
   26.1079  -20.0849  -13.5912 N   0  0  0  0  0  0  0  0  0  0  0  0
   26.1701  -20.8860  -11.3052 C   0  0  0  0  0  0  0  0  0  0  0  0
   27.4182  -20.9968  -11.2738 O   0  0  0  0  0  0  0  0  0  0  0  0
   25.5009  -20.6922  -10.0669 N   0  0  0  0  0  0  0  0  0  0  0  0
   26.2487  -20.6685   -8.8419 C   0  0  1  0  0  0  0  0  0  0  0  0
   27.1604  -19.4689   -8.7003 C   0  0  0  0  0  0  0  0  0  0  0  0
   27.4474  -19.1550   -7.2792 C   0  0  0  0  0  0  0  0  0  0  0  0
   26.8593  -18.1694   -6.4767 C   0  0  0  0  0  0  0  0  0  0  0  0
   27.4007  -18.2057   -5.2443 N   0  0  0  0  0  0  0  0  0  0  0  0
   28.3316  -19.1777   -5.1832 C   0  0  0  0  0  0  0  0  0  0  0  0
   29.1607  -19.6171   -4.1648 C   0  0  0  0  0  0  0  0  0  0  0  0
   30.0483  -20.6562   -4.3614 C   0  0  0  0  0  0  0  0  0  0  0  0
   30.0843  -21.2423   -5.5998 C   0  0  0  0  0  0  0  0  0  0  0  0
   29.2590  -20.8071   -6.6185 C   0  0  0  0  0  0  0  0  0  0  0  0
   28.3618  -19.7620   -6.4319 C   0  0  0  0  0  0  0  0  0  0  0  0
   25.4509  -20.8887   -7.6247 C   0  0  0  0  0  0  0  0  0  0  0  0
   24.2713  -20.4905   -7.5672 O   0  0  0  0  0  0  0  0  0  0  0  0
   26.0051  -21.5342   -6.5458 O   0  0  0  0  0  0  0  0  0  0  0  0
  2  1  1  6
  2  3  1  0
  4  5  2  0
  4  3  1  0
  6  5  1  0
  7  6  2  0
  8  7  1  0
  8  9  2  0
  9  4  1  0
 10  2  1  0
 11 10  2  0
 12 13  1  0
 13 14  1  0
 14 15  1  1
 16 14  1  0
 16 17  1  6
 17 10  1  0
 18 16  1  0
 18 20  1  0
 19 18  2  0
 21 20  1  0
 21 22  1  1
 22 23  1  0
 23 24  2  0
 24 25  1  0
 26 25  1  0
 27 26  2  0
 28 27  1  0
 29 30  1  0
 29 28  2  0
 30 31  2  0
 31 23  1  0
 31 26  1  0
 32 21  1  0
 33 32  2  0
 34 32  1  0
M  END
$$$$
