FIW.pdb
     RDKit          3D

 34 36  0  0  1  0  0  0  0  0999 V2000
   23.4021  -23.2814  -16.1936 N   0  0  0  0  0  0  0  0  0  0  0  0
   23.3630  -22.1078  -15.3065 C   0  0  1  0  0  0  0  0  0  0  0  0
   22.1123  -22.3178  -14.4565 C   0  0  0  0  0  0  0  0  0  0  0  0
   20.9509  -22.0020  -15.3223 C   0  0  0  0  0  0  0  0  0  0  0  0
   20.7497  -20.7308  -15.8134 C   0  0  0  0  0  0  0  0  0  0  0  0
   19.6495  -20.4495  -16.6286 C   0  0  0  0  0  0  0  0  0  0  0  0
   18.7502  -21.4440  -16.9516 C   0  0  0  0  0  0  0  0  0  0  0  0
   18.9431  -22.7086  -16.4680 C   0  0  0  0  0  0  0  0  0  0  0  0
   20.0285  -22.9650  -15.6697 C   0  0  0  0  0  0  0  0  0  0  0  0
   24.5835  -22.0675  -14.5074 C   0  0  0  0  0  0  0  0  0  0  0  0
   25.0829  -23.1434  -14.0778 O   0  0  0  0  0  0  0  0  0  0  0  0
   28.8935  -18.9538  -15.2811 C   0  0  0  0  0  0  0  0  0  0  0  0
   27.9218  -20.0449  -14.9484 C   0  0  0  0  0  0  0  0  0  0  0  0
   27.3579  -19.8928  -13.5834 C   0  0  2  0  0  0  0  0  0  0  0  0
   28.3868  -19.4892  -12.5460 C   0  0  0  0  0  0  0  0  0  0  0  0
   26.3269  -20.8521  -13.1257 C   0  0  2  0  0  0  0  0  0  0  0  0
   25.2853  -20.8833  -14.1571 N   0  0  0  0  0  0  0  0  0  0  0  0
   25.7698  -20.6824  -11.7914 C   0  0  0  0  0  0  0  0  0  0  0  0
   24.7303  -19.9950  -11.6565 O   0  0  0  0  0  0  0  0  0  0  0  0
   26.3344  -21.2488  -10.6171 N   0  0  0  0  0  0  0  0  0  0  0  0
   25.7309  -21.0019   -9.3383 C   0  0  1  0  0  0  0  0  0  0  0  0
   26.4949  -21.5924   -8.1729 C   0  0  0  0  0  0  0  0  0  0  0  0
   26.9701  -20.5466   -7.2343 C   0  0  0  0  0  0  0  0  0  0  0  0
   26.3592  -19.3264   -6.9197 C   0  0  0  0  0  0  0  0  0  0  0  0
   27.1130  -18.6593   -6.0252 N   0  0  0  0  0  0  0  0  0  0  0  0
   28.2094  -19.3818   -5.7234 C   0  0  0  0  0  0  0  0  0  0  0  0
   29.2794  -19.1493   -4.8757 C   0  0  0  0  0  0  0  0  0  0  0  0
   30.3001  -20.0693   -4.7411 C   0  0  0  0  0  0  0  0  0  0  0  0
   30.2221  -21.2244   -5.4748 C   0  0  0  0  0  0  0  0  0  0  0  0
   29.1564  -21.4603   -6.3216 C   0  0  0  0  0  0  0  0  0  0  0  0
   28.1236  -20.5413   -6.4649 C   0  0  0  0  0  0  0  0  0  0  0  0
   25.3611  -19.5994   -9.0881 C   0  0  0  0  0  0  0  0  0  0  0  0
   26.1851  -18.6871   -9.2936 O   0  0  0  0  0  0  0  0  0  0  0  0
   24.1047  -19.2907   -8.6256 O   0  0  0  0  0  0  0  0  0  0  0  0
  2  1  1  6
  2  3  1  0
  4  5  2  0
  4  3  1  0
  6  5  1  0
  7  6  2  0
  8  7  1  0
  8  9  2  0
  9  4  1  0
 10  2  1  0
 11 10  2  0
 12 13  1  0
 13 14  1  0
 14 15  1  1
 16 14  1  0
 16 17  1  6
 17 10  1  0
 18 16  1  0
 18 20  1  0
 19 18  2  0
 21 20  1  0
 21 22  1  1
 22 23  1  0
 23 24  2  0
 24 25  1  0
 26 25  1  0
 27 26  2  0
 28 27  1  0
 29 30  1  0
 29 28  2  0
 30 31  2  0
 31 23  1  0
 31 26  1  0
 32 21  1  0
 33 32  2  0
 34 32  1  0
M  END
$$$$
