FIW.pdb
     RDKit          3D

 34 36  0  0  1  0  0  0  0  0999 V2000
   27.2815  -24.1830  -19.6102 N   0  0  0  0  0  0  0  0  0  0  0  0
   26.4174  -23.0342  -19.2950 C   0  0  1  0  0  0  0  0  0  0  0  0
   25.0007  -23.6005  -19.3485 C   0  0  0  0  0  0  0  0  0  0  0  0
   24.6148  -23.6481  -20.7792 C   0  0  0  0  0  0  0  0  0  0  0  0
   24.4964  -24.8463  -21.4485 C   0  0  0  0  0  0  0  0  0  0  0  0
   24.1315  -24.8739  -22.7977 C   0  0  0  0  0  0  0  0  0  0  0  0
   23.8851  -23.6988  -23.4762 C   0  0  0  0  0  0  0  0  0  0  0  0
   24.0005  -22.5052  -22.8187 C   0  0  0  0  0  0  0  0  0  0  0  0
   24.3595  -22.4986  -21.4951 C   0  0  0  0  0  0  0  0  0  0  0  0
   26.7653  -22.5181  -17.9750 C   0  0  0  0  0  0  0  0  0  0  0  0
   27.2525  -23.2966  -17.1100 O   0  0  0  0  0  0  0  0  0  0  0  0
   29.2944  -17.8595  -17.6954 C   0  0  0  0  0  0  0  0  0  0  0  0
   28.8271  -19.2690  -17.4946 C   0  0  0  0  0  0  0  0  0  0  0  0
   27.7070  -19.3525  -16.5237 C   0  0  2  0  0  0  0  0  0  0  0  0
   27.8946  -18.4679  -15.3072 C   0  0  0  0  0  0  0  0  0  0  0  0
   27.0792  -20.6693  -16.2693 C   0  0  2  0  0  0  0  0  0  0  0  0
   26.5988  -21.1695  -17.5611 N   0  0  0  0  0  0  0  0  0  0  0  0
   26.0587  -20.7592  -15.2348 C   0  0  0  0  0  0  0  0  0  0  0  0
   24.8981  -20.3663  -15.4989 O   0  0  0  0  0  0  0  0  0  0  0  0
   26.2944  -21.2666  -13.9288 N   0  0  0  0  0  0  0  0  0  0  0  0
   25.2868  -21.1372  -12.9148 C   0  0  1  0  0  0  0  0  0  0  0  0
   25.4639  -22.0832  -11.7468 C   0  0  0  0  0  0  0  0  0  0  0  0
   25.0768  -21.4544  -10.4603 C   0  0  0  0  0  0  0  0  0  0  0  0
   23.8058  -21.3975   -9.8748 C   0  0  0  0  0  0  0  0  0  0  0  0
   23.8746  -20.7329   -8.7057 N   0  0  0  0  0  0  0  0  0  0  0  0
   25.1428  -20.3387   -8.4788 C   0  0  0  0  0  0  0  0  0  0  0  0
   25.7334  -19.6367   -7.4414 C   0  0  0  0  0  0  0  0  0  0  0  0
   27.0846  -19.3534   -7.4459 C   0  0  0  0  0  0  0  0  0  0  0  0
   27.8270  -19.7895   -8.5122 C   0  0  0  0  0  0  0  0  0  0  0  0
   27.2419  -20.4900   -9.5492 C   0  0  0  0  0  0  0  0  0  0  0  0
   25.8827  -20.7808   -9.5551 C   0  0  0  0  0  0  0  0  0  0  0  0
   25.0365  -19.7592  -12.4621 C   0  0  0  0  0  0  0  0  0  0  0  0
   25.9850  -18.9629  -12.3220 O   0  0  0  0  0  0  0  0  0  0  0  0
   23.7545  -19.3456  -12.1914 O   0  0  0  0  0  0  0  0  0  0  0  0
  2  1  1  1
  2  3  1  0
  4  5  2  0
  4  3  1  0
  6  5  1  0
  7  6  2  0
  8  7  1  0
  8  9  2  0
  9  4  1  0
 10  2  1  0
 11 10  2  0
 12 13  1  0
 13 14  1  0
 14 15  1  1
 16 14  1  0
 16 17  1  6
 17 10  1  0
 18 16  1  0
 18 20  1  0
 19 18  2  0
 21 20  1  0
 21 22  1  1
 22 23  1  0
 23 24  2  0
 24 25  1  0
 26 25  1  0
 27 26  2  0
 28 27  1  0
 29 30  1  0
 29 28  2  0
 30 31  2  0
 31 23  1  0
 31 26  1  0
 32 21  1  0
 33 32  2  0
 34 32  1  0
M  END
$$$$
