PGY.pdb
     RDKit          3D

 24 25  0  0  1  0  0  0  0  0999 V2000
    7.1599  -14.4278   19.7071 N   0  0  0  0  0  0  0  0  0  0  0  0
    6.6880  -13.1474   19.2776 C   0  0  0  0  0  0  0  0  0  0  0  0
    7.8929  -12.2065   19.2810 C   0  0  0  0  0  0  0  0  0  0  0  0
    8.7720  -12.9120   20.3227 C   0  0  0  0  0  0  0  0  0  0  0  0
    8.5947  -14.3528   19.8682 C   0  0  1  0  0  0  0  0  0  0  0  0
    9.1193  -15.3177   20.8276 C   0  0  0  0  0  0  0  0  0  0  0  0
   10.3552  -15.3999   21.0178 O   0  0  0  0  0  0  0  0  0  0  0  0
    8.2581  -16.1647   21.5493 N   0  0  0  0  0  0  0  0  0  0  0  0
    8.7474  -17.1879   22.4532 C   0  0  0  0  0  0  0  0  0  0  0  0
    9.3268  -16.5226   23.6407 C   0  0  0  0  0  0  0  0  0  0  0  0
   10.4050  -15.8820   23.5711 O   0  0  0  0  0  0  0  0  0  0  0  0
    5.8155  -10.9733   25.8696 O   0  0  0  0  0  0  0  0  0  0  0  0
    6.4393  -12.1751   26.1897 C   0  0  0  0  0  0  0  0  0  0  0  0
    5.7334  -13.3533   26.0138 C   0  0  0  0  0  0  0  0  0  0  0  0
    6.3260  -14.5557   26.3223 C   0  0  0  0  0  0  0  0  0  0  0  0
    7.6140  -14.5920   26.8038 C   0  0  0  0  0  0  0  0  0  0  0  0
    8.2222  -15.9100   27.1256 C   0  0  0  0  0  0  0  0  0  0  0  0
    9.3029  -16.2588   26.1121 C   0  0  2  0  0  0  0  0  0  0  0  0
    8.6352  -16.6212   24.8772 N   0  0  0  0  0  0  0  0  0  0  0  0
   10.1438  -17.3809   26.6028 C   0  0  0  0  0  0  0  0  0  0  0  0
   10.0331  -18.5107   26.0627 O   0  0  0  0  0  0  0  0  0  0  0  0
    8.3108  -13.4166   26.9764 C   0  0  0  0  0  0  0  0  0  0  0  0
    7.7223  -12.2120   26.6692 C   0  0  0  0  0  0  0  0  0  0  0  0
   11.0585  -17.2539   27.6382 O   0  0  0  0  0  0  0  0  0  0  0  0
  1  5  1  0
  2  1  1  0
  3  4  1  0
  3  2  1  0
  4  5  1  0
  5  6  1  1
  6  7  2  0
  8  6  1  0
  8  9  1  0
  9 10  1  0
 10 19  1  0
 10 11  2  0
 12 13  1  0
 13 14  2  0
 14 15  1  0
 16 17  1  0
 16 15  2  0
 18 17  1  1
 18 20  1  0
 19 18  1  0
 20 24  1  0
 21 20  2  0
 22 16  1  0
 23 22  2  0
 23 13  1  0
M  END
$$$$
