PGY.pdb
     RDKit          3D

 24 25  0  0  1  0  0  0  0  0999 V2000
    8.5030  -18.7420   19.9129 N   0  0  0  0  0  0  0  0  0  0  0  0
    8.0697  -19.6324   18.8805 C   0  0  0  0  0  0  0  0  0  0  0  0
    8.6719  -19.1209   17.5717 C   0  0  0  0  0  0  0  0  0  0  0  0
    8.8508  -17.6388   17.9285 C   0  0  0  0  0  0  0  0  0  0  0  0
    9.4175  -17.7842   19.3327 C   0  0  1  0  0  0  0  0  0  0  0  0
    9.4656  -16.5196   20.0574 C   0  0  0  0  0  0  0  0  0  0  0  0
   10.4004  -15.7128   19.8435 O   0  0  0  0  0  0  0  0  0  0  0  0
    8.4752  -16.1852   20.9994 N   0  0  0  0  0  0  0  0  0  0  0  0
    8.4785  -14.9275   21.7216 C   0  0  0  0  0  0  0  0  0  0  0  0
    9.2312  -15.1152   22.9813 C   0  0  0  0  0  0  0  0  0  0  0  0
   10.4438  -14.8006   23.0724 O   0  0  0  0  0  0  0  0  0  0  0  0
    5.7196  -10.6270   26.6410 O   0  0  0  0  0  0  0  0  0  0  0  0
    6.3495  -11.8672   26.6098 C   0  0  0  0  0  0  0  0  0  0  0  0
    5.6354  -12.9593   26.1463 C   0  0  0  0  0  0  0  0  0  0  0  0
    6.2337  -14.1973   26.1047 C   0  0  0  0  0  0  0  0  0  0  0  0
    7.5354  -14.3540   26.5209 C   0  0  0  0  0  0  0  0  0  0  0  0
    8.1494  -15.7067   26.4606 C   0  0  0  0  0  0  0  0  0  0  0  0
    9.2229  -15.7562   25.3828 C   0  0  2  0  0  0  0  0  0  0  0  0
    8.5515  -15.6643   24.1009 N   0  0  0  0  0  0  0  0  0  0  0  0
   10.0062  -17.0151   25.4759 C   0  0  0  0  0  0  0  0  0  0  0  0
    9.8953  -17.8740   24.5645 O   0  0  0  0  0  0  0  0  0  0  0  0
    8.2402  -13.2638   26.9807 C   0  0  0  0  0  0  0  0  0  0  0  0
    7.6461  -12.0240   27.0241 C   0  0  0  0  0  0  0  0  0  0  0  0
   10.8664  -17.3038   26.5254 O   0  0  0  0  0  0  0  0  0  0  0  0
  1  5  1  0
  2  1  1  0
  3  4  1  0
  3  2  1  0
  4  5  1  0
  5  6  1  1
  6  7  2  0
  8  6  1  0
  8  9  1  0
  9 10  1  0
 10 19  1  0
 10 11  2  0
 12 13  1  0
 13 14  2  0
 14 15  1  0
 16 17  1  0
 16 15  2  0
 18 17  1  1
 18 20  1  0
 19 18  1  0
 20 24  1  0
 21 20  2  0
 22 16  1  0
 23 22  2  0
 23 13  1  0
M  END
$$$$
