PGY.pdb
     RDKit          3D

 24 25  0  0  1  0  0  0  0  0999 V2000
    7.8137  -13.1786   20.7221 N   0  0  0  0  0  0  0  0  0  0  0  0
    8.1045  -11.9511   20.0474 C   0  0  0  0  0  0  0  0  0  0  0  0
    7.8505  -12.1919   18.5592 C   0  0  0  0  0  0  0  0  0  0  0  0
    8.0589  -13.7114   18.5014 C   0  0  0  0  0  0  0  0  0  0  0  0
    7.2961  -14.1184   19.7530 C   0  0  1  0  0  0  0  0  0  0  0  0
    7.5184  -15.5112   20.1237 C   0  0  0  0  0  0  0  0  0  0  0  0
    7.1716  -16.4278   19.3426 O   0  0  0  0  0  0  0  0  0  0  0  0
    8.1193  -15.8484   21.3505 N   0  0  0  0  0  0  0  0  0  0  0  0
    8.3925  -17.2201   21.7343 C   0  0  0  0  0  0  0  0  0  0  0  0
    9.0305  -17.2125   23.0690 C   0  0  0  0  0  0  0  0  0  0  0  0
    9.1652  -18.2682   23.7362 O   0  0  0  0  0  0  0  0  0  0  0  0
    5.9867  -10.9551   26.2863 O   0  0  0  0  0  0  0  0  0  0  0  0
    6.6388  -12.1761   26.1450 C   0  0  0  0  0  0  0  0  0  0  0  0
    6.0035  -13.3206   26.5966 C   0  0  0  0  0  0  0  0  0  0  0  0
    6.6254  -14.5409   26.4693 C   0  0  0  0  0  0  0  0  0  0  0  0
    7.8730  -14.6284   25.8966 C   0  0  0  0  0  0  0  0  0  0  0  0
    8.5139  -15.9644   25.7749 C   0  0  0  0  0  0  0  0  0  0  0  0
    9.8192  -15.8595   24.9992 C   0  0  2  0  0  0  0  0  0  0  0  0
    9.4945  -15.9758   23.5909 N   0  0  0  0  0  0  0  0  0  0  0  0
   10.7642  -16.9297   25.4099 C   0  0  0  0  0  0  0  0  0  0  0  0
   10.7308  -18.0372   24.8158 O   0  0  0  0  0  0  0  0  0  0  0  0
    8.4994  -13.4863   25.4494 C   0  0  0  0  0  0  0  0  0  0  0  0
    7.8815  -12.2639   25.5746 C   0  0  0  0  0  0  0  0  0  0  0  0
   11.6963  -16.7770   26.4262 O   0  0  0  0  0  0  0  0  0  0  0  0
  1  5  1  0
  2  1  1  0
  3  4  1  0
  3  2  1  0
  4  5  1  0
  5  6  1  1
  6  7  2  0
  8  6  1  0
  8  9  1  0
  9 10  1  0
 10 19  1  0
 10 11  2  0
 12 13  1  0
 13 14  2  0
 14 15  1  0
 16 17  1  0
 16 15  2  0
 18 17  1  1
 18 20  1  0
 19 18  1  0
 20 24  1  0
 21 20  2  0
 22 16  1  0
 23 22  2  0
 23 13  1  0
M  END
$$$$
