PGY.pdb
     RDKit          3D

 24 25  0  0  1  0  0  0  0  0999 V2000
    8.7374  -14.8372   18.6894 N   0  0  0  0  0  0  0  0  0  0  0  0
    8.5780  -14.0532   17.5035 C   0  0  0  0  0  0  0  0  0  0  0  0
    8.1929  -12.6433   17.9521 C   0  0  0  0  0  0  0  0  0  0  0  0
    7.5598  -12.9661   19.3125 C   0  0  0  0  0  0  0  0  0  0  0  0
    8.5792  -13.9678   19.8337 C   0  0  1  0  0  0  0  0  0  0  0  0
    8.1257  -14.6661   21.0310 C   0  0  0  0  0  0  0  0  0  0  0  0
    7.8670  -14.0173   22.0715 O   0  0  0  0  0  0  0  0  0  0  0  0
    7.9718  -16.0647   21.0407 N   0  0  0  0  0  0  0  0  0  0  0  0
    7.4963  -16.7891   22.2036 C   0  0  0  0  0  0  0  0  0  0  0  0
    8.4374  -16.5487   23.3195 C   0  0  0  0  0  0  0  0  0  0  0  0
    9.6599  -16.3474   23.1130 O   0  0  0  0  0  0  0  0  0  0  0  0
    6.1069  -10.6441   26.3047 O   0  0  0  0  0  0  0  0  0  0  0  0
    6.6010  -11.9340   26.4722 C   0  0  0  0  0  0  0  0  0  0  0  0
    5.7286  -12.9996   26.3279 C   0  0  0  0  0  0  0  0  0  0  0  0
    6.1905  -14.2854   26.4881 C   0  0  0  0  0  0  0  0  0  0  0  0
    7.5125  -14.5160   26.7903 C   0  0  0  0  0  0  0  0  0  0  0  0
    7.9760  -15.9190   26.9550 C   0  0  0  0  0  0  0  0  0  0  0  0
    8.8267  -16.3413   25.7656 C   0  0  2  0  0  0  0  0  0  0  0  0
    7.9294  -16.5491   24.6458 N   0  0  0  0  0  0  0  0  0  0  0  0
    9.5808  -17.5842   26.0714 C   0  0  0  0  0  0  0  0  0  0  0  0
   10.5400  -17.5345   26.8826 O   0  0  0  0  0  0  0  0  0  0  0  0
    8.3751  -13.4518   26.9322 C   0  0  0  0  0  0  0  0  0  0  0  0
    7.9178  -12.1644   26.7731 C   0  0  0  0  0  0  0  0  0  0  0  0
    9.2847  -18.8161   25.5059 O   0  0  0  0  0  0  0  0  0  0  0  0
  1  5  1  0
  2  1  1  0
  3  4  1  0
  3  2  1  0
  4  5  1  0
  5  6  1  1
  6  7  2  0
  8  6  1  0
  8  9  1  0
  9 10  1  0
 10 19  1  0
 10 11  2  0
 12 13  1  0
 13 14  2  0
 14 15  1  0
 16 17  1  0
 16 15  2  0
 18 17  1  1
 18 20  1  0
 19 18  1  0
 20 24  1  0
 21 20  2  0
 22 16  1  0
 23 22  2  0
 23 13  1  0
M  END
$$$$
