PGY.pdb
     RDKit          3D

 24 25  0  0  1  0  0  0  0  0999 V2000
    7.6605  -16.3257   21.2193 N   0  0  0  0  0  0  0  0  0  0  0  0
    6.3427  -15.8145   20.9992 C   0  0  0  0  0  0  0  0  0  0  0  0
    6.4963  -14.3436   20.6115 C   0  0  0  0  0  0  0  0  0  0  0  0
    7.8434  -14.0369   21.2802 C   0  0  0  0  0  0  0  0  0  0  0  0
    8.6117  -15.2892   20.8857 C   0  0  1  0  0  0  0  0  0  0  0  0
    9.8806  -15.4209   21.5923 C   0  0  0  0  0  0  0  0  0  0  0  0
   10.7958  -14.5888   21.3918 O   0  0  0  0  0  0  0  0  0  0  0  0
   10.0988  -16.4723   22.5017 N   0  0  0  0  0  0  0  0  0  0  0  0
   11.3329  -16.6123   23.2506 C   0  0  0  0  0  0  0  0  0  0  0  0
   11.0229  -16.4736   24.6904 C   0  0  0  0  0  0  0  0  0  0  0  0
   11.9329  -16.3438   25.5464 O   0  0  0  0  0  0  0  0  0  0  0  0
    6.6560  -10.8692   26.0049 O   0  0  0  0  0  0  0  0  0  0  0  0
    6.9107  -12.2297   26.1463 C   0  0  0  0  0  0  0  0  0  0  0  0
    8.1692  -12.6260   26.5664 C   0  0  0  0  0  0  0  0  0  0  0  0
    8.4483  -13.9649   26.7146 C   0  0  0  0  0  0  0  0  0  0  0  0
    7.4842  -14.9090   26.4476 C   0  0  0  0  0  0  0  0  0  0  0  0
    7.8216  -16.3467   26.6198 C   0  0  0  0  0  0  0  0  0  0  0  0
    9.3245  -16.5581   26.5032 C   0  0  2  0  0  0  0  0  0  0  0  0
    9.6615  -16.4899   25.0947 N   0  0  0  0  0  0  0  0  0  0  0  0
    9.7182  -17.8719   27.0741 C   0  0  0  0  0  0  0  0  0  0  0  0
    9.8068  -17.9954   28.3221 O   0  0  0  0  0  0  0  0  0  0  0  0
    6.2345  -14.5082   26.0302 C   0  0  0  0  0  0  0  0  0  0  0  0
    5.9509  -13.1707   25.8806 C   0  0  0  0  0  0  0  0  0  0  0  0
    9.9983  -18.9883   26.2994 O   0  0  0  0  0  0  0  0  0  0  0  0
  1  5  1  0
  2  1  1  0
  3  4  1  0
  3  2  1  0
  4  5  1  0
  5  6  1  1
  6  7  2  0
  8  6  1  0
  8  9  1  0
  9 10  1  0
 10 19  1  0
 10 11  2  0
 12 13  1  0
 13 14  2  0
 14 15  1  0
 16 17  1  0
 16 15  2  0
 18 17  1  6
 18 20  1  0
 19 18  1  0
 20 24  1  0
 21 20  2  0
 22 16  1  0
 23 22  2  0
 23 13  1  0
M  END
$$$$
