PGY.pdb
     RDKit          3D

 24 25  0  0  1  0  0  0  0  0999 V2000
    7.5131  -15.0642   20.3086 N   0  0  0  0  0  0  0  0  0  0  0  0
    6.3847  -14.2280   20.0366 C   0  0  0  0  0  0  0  0  0  0  0  0
    6.9219  -12.8120   19.8278 C   0  0  0  0  0  0  0  0  0  0  0  0
    8.2230  -12.9045   20.6367 C   0  0  0  0  0  0  0  0  0  0  0  0
    8.7122  -14.2680   20.1723 C   0  0  1  0  0  0  0  0  0  0  0  0
    9.8304  -14.7679   20.9639 C   0  0  0  0  0  0  0  0  0  0  0  0
   10.9209  -14.1506   20.9630 O   0  0  0  0  0  0  0  0  0  0  0  0
    9.7076  -15.9389   21.7343 N   0  0  0  0  0  0  0  0  0  0  0  0
   10.8282  -16.5286   22.4413 C   0  0  0  0  0  0  0  0  0  0  0  0
   10.6616  -16.2592   23.8864 C   0  0  0  0  0  0  0  0  0  0  0  0
   11.6327  -15.9130   24.6039 O   0  0  0  0  0  0  0  0  0  0  0  0
    6.8948  -10.6620   26.5139 O   0  0  0  0  0  0  0  0  0  0  0  0
    7.0889  -12.0360   26.4116 C   0  0  0  0  0  0  0  0  0  0  0  0
    7.8535  -12.6689   27.3770 C   0  0  0  0  0  0  0  0  0  0  0  0
    8.0614  -14.0265   27.3002 C   0  0  0  0  0  0  0  0  0  0  0  0
    7.5140  -14.7559   26.2703 C   0  0  0  0  0  0  0  0  0  0  0  0
    7.7593  -16.2214   26.2204 C   0  0  0  0  0  0  0  0  0  0  0  0
    9.2188  -16.5057   25.8953 C   0  0  2  0  0  0  0  0  0  0  0  0
    9.3687  -16.4003   24.4570 N   0  0  0  0  0  0  0  0  0  0  0  0
    9.6100  -17.8595   26.3658 C   0  0  0  0  0  0  0  0  0  0  0  0
    9.9708  -18.0119   27.5604 O   0  0  0  0  0  0  0  0  0  0  0  0
    6.7544  -14.1204   25.3133 C   0  0  0  0  0  0  0  0  0  0  0  0
    6.5438  -12.7631   25.3861 C   0  0  0  0  0  0  0  0  0  0  0  0
    9.6004  -18.9833   25.5522 O   0  0  0  0  0  0  0  0  0  0  0  0
  1  5  1  0
  2  1  1  0
  3  4  1  0
  3  2  1  0
  4  5  1  0
  5  6  1  1
  6  7  2  0
  8  6  1  0
  8  9  1  0
  9 10  1  0
 10 19  1  0
 10 11  2  0
 12 13  1  0
 13 14  2  0
 14 15  1  0
 16 17  1  0
 16 15  2  0
 18 17  1  6
 18 20  1  0
 19 18  1  0
 20 24  1  0
 21 20  2  0
 22 16  1  0
 23 22  2  0
 23 13  1  0
M  END
$$$$
