PGY.pdb
     RDKit          3D

 24 25  0  0  1  0  0  0  0  0999 V2000
    7.3213  -20.2022   22.8266 N   0  0  0  0  0  0  0  0  0  0  0  0
    6.2774  -21.0847   23.2485 C   0  0  0  0  0  0  0  0  0  0  0  0
    5.0825  -20.8297   22.3297 C   0  0  0  0  0  0  0  0  0  0  0  0
    5.3815  -19.3847   21.9075 C   0  0  0  0  0  0  0  0  0  0  0  0
    6.8748  -19.5035   21.6423 C   0  0  1  0  0  0  0  0  0  0  0  0
    7.5214  -18.2095   21.4570 C   0  0  0  0  0  0  0  0  0  0  0  0
    8.1097  -17.9543   20.3804 O   0  0  0  0  0  0  0  0  0  0  0  0
    7.4974  -17.2347   22.4714 N   0  0  0  0  0  0  0  0  0  0  0  0
    7.8561  -15.8501   22.2313 C   0  0  0  0  0  0  0  0  0  0  0  0
    8.9608  -15.4891   23.1465 C   0  0  0  0  0  0  0  0  0  0  0  0
    9.5264  -14.3695   23.0803 O   0  0  0  0  0  0  0  0  0  0  0  0
    6.0897  -10.8006   26.6330 O   0  0  0  0  0  0  0  0  0  0  0  0
    6.4611  -12.1265   26.4335 C   0  0  0  0  0  0  0  0  0  0  0  0
    7.8089  -12.4267   26.3297 C   0  0  0  0  0  0  0  0  0  0  0  0
    8.2041  -13.7294   26.1322 C   0  0  0  0  0  0  0  0  0  0  0  0
    7.2676  -14.7326   26.0376 C   0  0  0  0  0  0  0  0  0  0  0  0
    7.7319  -16.1289   25.8250 C   0  0  0  0  0  0  0  0  0  0  0  0
    9.2243  -16.1538   25.5271 C   0  0  2  0  0  0  0  0  0  0  0  0
    9.3772  -16.4416   24.1142 N   0  0  0  0  0  0  0  0  0  0  0  0
    9.9093  -17.1839   26.3496 C   0  0  0  0  0  0  0  0  0  0  0  0
   10.0630  -16.9814   27.5809 O   0  0  0  0  0  0  0  0  0  0  0  0
    5.9287  -14.4274   26.1417 C   0  0  0  0  0  0  0  0  0  0  0  0
    5.5289  -13.1263   26.3392 C   0  0  0  0  0  0  0  0  0  0  0  0
   10.3971  -18.3748   25.8315 O   0  0  0  0  0  0  0  0  0  0  0  0
  1  5  1  0
  2  1  1  0
  3  4  1  0
  3  2  1  0
  4  5  1  0
  5  6  1  1
  6  7  2  0
  8  6  1  0
  8  9  1  0
  9 10  1  0
 10 19  1  0
 10 11  2  0
 12 13  1  0
 13 14  2  0
 14 15  1  0
 16 17  1  0
 16 15  2  0
 18 17  1  1
 18 20  1  0
 19 18  1  0
 20 24  1  0
 21 20  2  0
 22 16  1  0
 23 22  2  0
 23 13  1  0
M  END
$$$$
