PGY.pdb
     RDKit          3D

 24 25  0  0  1  0  0  0  0  0999 V2000
    7.2783  -14.0587   21.1212 N   0  0  0  0  0  0  0  0  0  0  0  0
    7.3681  -12.6575   20.8471 C   0  0  0  0  0  0  0  0  0  0  0  0
    8.1700  -12.5089   19.5540 C   0  0  0  0  0  0  0  0  0  0  0  0
    8.9793  -13.8122   19.5975 C   0  0  0  0  0  0  0  0  0  0  0  0
    7.8817  -14.7766   20.0209 C   0  0  1  0  0  0  0  0  0  0  0  0
    8.3953  -16.0880   20.3995 C   0  0  0  0  0  0  0  0  0  0  0  0
    8.9473  -16.8139   19.5400 O   0  0  0  0  0  0  0  0  0  0  0  0
    8.2823  -16.5575   21.7211 N   0  0  0  0  0  0  0  0  0  0  0  0
    8.9051  -17.7888   22.1674 C   0  0  0  0  0  0  0  0  0  0  0  0
    9.7163  -17.4922   23.3685 C   0  0  0  0  0  0  0  0  0  0  0  0
   10.7099  -18.1959   23.6774 O   0  0  0  0  0  0  0  0  0  0  0  0
    4.9733  -12.4387   25.9670 O   0  0  0  0  0  0  0  0  0  0  0  0
    6.2602  -12.9586   25.8697 C   0  0  0  0  0  0  0  0  0  0  0  0
    6.8511  -13.0302   24.6195 C   0  0  0  0  0  0  0  0  0  0  0  0
    8.1227  -13.5399   24.4945 C   0  0  0  0  0  0  0  0  0  0  0  0
    8.8077  -13.9778   25.6041 C   0  0  0  0  0  0  0  0  0  0  0  0
   10.1804  -14.5217   25.4307 C   0  0  0  0  0  0  0  0  0  0  0  0
   10.1433  -16.0407   25.3405 C   0  0  2  0  0  0  0  0  0  0  0  0
    9.3487  -16.3843   24.1774 N   0  0  0  0  0  0  0  0  0  0  0  0
    9.5536  -16.6279   26.5710 C   0  0  0  0  0  0  0  0  0  0  0  0
    8.4040  -17.1341   26.5177 O   0  0  0  0  0  0  0  0  0  0  0  0
    8.2143  -13.9038   26.8448 C   0  0  0  0  0  0  0  0  0  0  0  0
    6.9432  -13.3949   26.9746 C   0  0  0  0  0  0  0  0  0  0  0  0
   10.2066  -16.6513   27.7950 O   0  0  0  0  0  0  0  0  0  0  0  0
  1  5  1  0
  2  1  1  0
  3  4  1  0
  3  2  1  0
  4  5  1  0
  5  6  1  1
  6  7  2  0
  8  6  1  0
  8  9  1  0
  9 10  1  0
 10 19  1  0
 10 11  2  0
 12 13  1  0
 13 14  2  0
 14 15  1  0
 16 17  1  0
 16 15  2  0
 18 17  1  1
 18 20  1  0
 19 18  1  0
 20 24  1  0
 21 20  2  0
 22 16  1  0
 23 22  2  0
 23 13  1  0
M  END
$$$$
