PGY.pdb
     RDKit          3D

 24 25  0  0  1  0  0  0  0  0999 V2000
    7.6854  -16.4984   21.0976 N   0  0  0  0  0  0  0  0  0  0  0  0
    6.3621  -16.0711   20.7617 C   0  0  0  0  0  0  0  0  0  0  0  0
    6.4551  -14.5917   20.3876 C   0  0  0  0  0  0  0  0  0  0  0  0
    7.7157  -14.2029   21.1721 C   0  0  0  0  0  0  0  0  0  0  0  0
    8.5941  -15.4019   20.8482 C   0  0  1  0  0  0  0  0  0  0  0  0
    9.8017  -15.4558   21.6641 C   0  0  0  0  0  0  0  0  0  0  0  0
   10.6716  -14.5609   21.5511 O   0  0  0  0  0  0  0  0  0  0  0  0
   10.0107  -16.5011   22.5825 N   0  0  0  0  0  0  0  0  0  0  0  0
   11.1734  -16.5588   23.4474 C   0  0  0  0  0  0  0  0  0  0  0  0
   10.7085  -16.6098   24.8508 C   0  0  0  0  0  0  0  0  0  0  0  0
   11.5144  -16.5268   25.8108 O   0  0  0  0  0  0  0  0  0  0  0  0
    6.8914  -10.9157   26.8547 O   0  0  0  0  0  0  0  0  0  0  0  0
    7.0428  -12.2968   26.7814 C   0  0  0  0  0  0  0  0  0  0  0  0
    6.0668  -13.0349   26.1333 C   0  0  0  0  0  0  0  0  0  0  0  0
    6.1913  -14.4021   26.0462 C   0  0  0  0  0  0  0  0  0  0  0  0
    7.2790  -15.0372   26.5991 C   0  0  0  0  0  0  0  0  0  0  0  0
    7.3803  -16.5161   26.4845 C   0  0  0  0  0  0  0  0  0  0  0  0
    8.8394  -16.9485   26.4538 C   0  0  2  0  0  0  0  0  0  0  0  0
    9.3178  -16.7562   25.0987 N   0  0  0  0  0  0  0  0  0  0  0  0
    8.9768  -18.3703   26.8621 C   0  0  0  0  0  0  0  0  0  0  0  0
    9.0825  -19.2546   25.9747 O   0  0  0  0  0  0  0  0  0  0  0  0
    8.2463  -14.2973   27.2423 C   0  0  0  0  0  0  0  0  0  0  0  0
    8.1260  -12.9301   27.3319 C   0  0  0  0  0  0  0  0  0  0  0  0
    8.9957  -18.7867   28.1854 O   0  0  0  0  0  0  0  0  0  0  0  0
  1  5  1  0
  2  1  1  0
  3  4  1  0
  3  2  1  0
  4  5  1  0
  5  6  1  1
  6  7  2  0
  8  6  1  0
  8  9  1  0
  9 10  1  0
 10 19  1  0
 10 11  2  0
 12 13  1  0
 13 14  2  0
 14 15  1  0
 16 17  1  0
 16 15  2  0
 18 17  1  6
 18 20  1  0
 19 18  1  0
 20 24  1  0
 21 20  2  0
 22 16  1  0
 23 22  2  0
 23 13  1  0
M  END
$$$$
