PGY.pdb
     RDKit          3D

 24 25  0  0  1  0  0  0  0  0999 V2000
    7.5788  -14.9569   19.9658 N   0  0  0  0  0  0  0  0  0  0  0  0
    6.4813  -14.0877   19.6719 C   0  0  0  0  0  0  0  0  0  0  0  0
    6.9921  -12.6564   19.8377 C   0  0  0  0  0  0  0  0  0  0  0  0
    8.1418  -12.9023   20.8243 C   0  0  0  0  0  0  0  0  0  0  0  0
    8.7529  -14.1450   20.1948 C   0  0  1  0  0  0  0  0  0  0  0  0
    9.7406  -14.7875   21.0541 C   0  0  0  0  0  0  0  0  0  0  0  0
   10.8164  -14.2004   21.3158 O   0  0  0  0  0  0  0  0  0  0  0  0
    9.5074  -16.0636   21.5992 N   0  0  0  0  0  0  0  0  0  0  0  0
   10.5243  -16.7990   22.3261 C   0  0  0  0  0  0  0  0  0  0  0  0
   10.4092  -16.4591   23.7613 C   0  0  0  0  0  0  0  0  0  0  0  0
   11.4263  -16.2529   24.4688 O   0  0  0  0  0  0  0  0  0  0  0  0
    6.5808  -10.6009   26.7444 O   0  0  0  0  0  0  0  0  0  0  0  0
    6.8349  -11.9610   26.5981 C   0  0  0  0  0  0  0  0  0  0  0  0
    5.9301  -12.7291   25.8848 C   0  0  0  0  0  0  0  0  0  0  0  0
    6.1566  -14.0764   25.7248 C   0  0  0  0  0  0  0  0  0  0  0  0
    7.2759  -14.6621   26.2693 C   0  0  0  0  0  0  0  0  0  0  0  0
    7.4882  -16.1207   26.0750 C   0  0  0  0  0  0  0  0  0  0  0  0
    8.9520  -16.4099   25.7743 C   0  0  2  0  0  0  0  0  0  0  0  0
    9.1127  -16.3685   24.3339 N   0  0  0  0  0  0  0  0  0  0  0  0
    9.3478  -17.7384   26.3086 C   0  0  0  0  0  0  0  0  0  0  0  0
    9.3086  -18.7399   25.5496 O   0  0  0  0  0  0  0  0  0  0  0  0
    8.1719  -13.8925   26.9775 C   0  0  0  0  0  0  0  0  0  0  0  0
    7.9496  -12.5450   27.1401 C   0  0  0  0  0  0  0  0  0  0  0  0
    9.7646  -17.9426   27.6160 O   0  0  0  0  0  0  0  0  0  0  0  0
  1  5  1  0
  2  1  1  0
  3  4  1  0
  3  2  1  0
  4  5  1  0
  5  6  1  1
  6  7  2  0
  8  6  1  0
  8  9  1  0
  9 10  1  0
 10 19  1  0
 10 11  2  0
 12 13  1  0
 13 14  2  0
 14 15  1  0
 16 17  1  0
 16 15  2  0
 18 17  1  6
 18 20  1  0
 19 18  1  0
 20 24  1  0
 21 20  2  0
 22 16  1  0
 23 22  2  0
 23 13  1  0
M  END
$$$$
