PGY.pdb
     RDKit          3D

 24 25  0  0  1  0  0  0  0  0999 V2000
    7.1354  -14.4952   18.3351 N   0  0  0  0  0  0  0  0  0  0  0  0
    7.2896  -13.3505   17.4911 C   0  0  0  0  0  0  0  0  0  0  0  0
    8.7008  -12.8121   17.7271 C   0  0  0  0  0  0  0  0  0  0  0  0
    8.9480  -13.3411   19.1465 C   0  0  0  0  0  0  0  0  0  0  0  0
    8.3991  -14.7511   18.9892 C   0  0  1  0  0  0  0  0  0  0  0  0
    8.2595  -15.4495   20.2618 C   0  0  0  0  0  0  0  0  0  0  0  0
    9.2518  -16.0188   20.7734 O   0  0  0  0  0  0  0  0  0  0  0  0
    7.0229  -15.4968   20.9316 N   0  0  0  0  0  0  0  0  0  0  0  0
    6.8688  -16.0956   22.2434 C   0  0  0  0  0  0  0  0  0  0  0  0
    7.8689  -15.4927   23.1516 C   0  0  0  0  0  0  0  0  0  0  0  0
    8.1349  -14.2658   23.1105 O   0  0  0  0  0  0  0  0  0  0  0  0
    5.4806  -11.0667   26.6493 O   0  0  0  0  0  0  0  0  0  0  0  0
    6.2323  -12.2356   26.5827 C   0  0  0  0  0  0  0  0  0  0  0  0
    7.6109  -12.1405   26.6710 C   0  0  0  0  0  0  0  0  0  0  0  0
    8.3783  -13.2804   26.6080 C   0  0  0  0  0  0  0  0  0  0  0  0
    7.7828  -14.5113   26.4578 C   0  0  0  0  0  0  0  0  0  0  0  0
    8.6442  -15.7214   26.3946 C   0  0  0  0  0  0  0  0  0  0  0  0
    9.4127  -15.7594   25.0813 C   0  0  2  0  0  0  0  0  0  0  0  0
    8.5324  -16.3348   24.0831 N   0  0  0  0  0  0  0  0  0  0  0  0
   10.6510  -16.5686   25.2180 C   0  0  0  0  0  0  0  0  0  0  0  0
   10.6098  -17.7989   24.9621 O   0  0  0  0  0  0  0  0  0  0  0  0
    6.4112  -14.5990   26.3707 C   0  0  0  0  0  0  0  0  0  0  0  0
    5.6398  -13.4620   26.4332 C   0  0  0  0  0  0  0  0  0  0  0  0
   11.8695  -16.0389   25.6175 O   0  0  0  0  0  0  0  0  0  0  0  0
  1  5  1  0
  2  1  1  0
  3  4  1  0
  3  2  1  0
  4  5  1  0
  5  6  1  1
  6  7  2  0
  8  6  1  0
  8  9  1  0
  9 10  1  0
 10 19  1  0
 10 11  2  0
 12 13  1  0
 13 14  2  0
 14 15  1  0
 16 17  1  0
 16 15  2  0
 18 17  1  1
 18 20  1  0
 19 18  1  0
 20 24  1  0
 21 20  2  0
 22 16  1  0
 23 22  2  0
 23 13  1  0
M  END
$$$$
