PGY.pdb
     RDKit          3D

 24 25  0  0  1  0  0  0  0  0999 V2000
    7.4723  -15.1313   20.9486 N   0  0  0  0  0  0  0  0  0  0  0  0
    6.4384  -14.1980   20.6224 C   0  0  0  0  0  0  0  0  0  0  0  0
    7.0443  -13.1873   19.6483 C   0  0  0  0  0  0  0  0  0  0  0  0
    8.5240  -13.3032   20.0389 C   0  0  0  0  0  0  0  0  0  0  0  0
    8.6371  -14.8160   20.1524 C   0  0  1  0  0  0  0  0  0  0  0  0
    9.8889  -15.2456   20.7650 C   0  0  0  0  0  0  0  0  0  0  0  0
   10.9590  -15.1695   20.1174 O   0  0  0  0  0  0  0  0  0  0  0  0
    9.9185  -15.7479   22.0791 N   0  0  0  0  0  0  0  0  0  0  0  0
   11.1403  -15.8270   22.8565 C   0  0  0  0  0  0  0  0  0  0  0  0
   10.7808  -16.1187   24.2616 C   0  0  0  0  0  0  0  0  0  0  0  0
   11.6588  -16.2231   25.1538 O   0  0  0  0  0  0  0  0  0  0  0  0
    6.8913  -10.6713   26.1662 O   0  0  0  0  0  0  0  0  0  0  0  0
    7.0230  -12.0559   26.1282 C   0  0  0  0  0  0  0  0  0  0  0  0
    8.1008  -12.6350   26.7766 C   0  0  0  0  0  0  0  0  0  0  0  0
    8.2554  -14.0017   26.7550 C   0  0  0  0  0  0  0  0  0  0  0  0
    7.3456  -14.7933   26.0932 C   0  0  0  0  0  0  0  0  0  0  0  0
    7.5445  -16.2667   26.0921 C   0  0  0  0  0  0  0  0  0  0  0  0
    9.0219  -16.6039   25.9495 C   0  0  2  0  0  0  0  0  0  0  0  0
    9.4086  -16.2811   24.5899 N   0  0  0  0  0  0  0  0  0  0  0  0
    9.2650  -18.0410   26.2370 C   0  0  0  0  0  0  0  0  0  0  0  0
    9.3958  -18.8437   25.2782 O   0  0  0  0  0  0  0  0  0  0  0  0
    6.2758  -14.2111   25.4504 C   0  0  0  0  0  0  0  0  0  0  0  0
    6.1172  -12.8450   25.4693 C   0  0  0  0  0  0  0  0  0  0  0  0
    9.3578  -18.5581   27.5211 O   0  0  0  0  0  0  0  0  0  0  0  0
  1  5  1  0
  2  1  1  0
  3  4  1  0
  3  2  1  0
  4  5  1  0
  5  6  1  1
  6  7  2  0
  8  6  1  0
  8  9  1  0
  9 10  1  0
 10 19  1  0
 10 11  2  0
 12 13  1  0
 13 14  2  0
 14 15  1  0
 16 17  1  0
 16 15  2  0
 18 17  1  6
 18 20  1  0
 19 18  1  0
 20 24  1  0
 21 20  2  0
 22 16  1  0
 23 22  2  0
 23 13  1  0
M  END
$$$$
