PGY.pdb
     RDKit          3D

 24 25  0  0  1  0  0  0  0  0999 V2000
    7.2998  -14.6922   20.2901 N   0  0  0  0  0  0  0  0  0  0  0  0
    6.6248  -13.4343   20.1967 C   0  0  0  0  0  0  0  0  0  0  0  0
    7.7053  -12.3544   20.1366 C   0  0  0  0  0  0  0  0  0  0  0  0
    8.8502  -13.0910   20.8453 C   0  0  0  0  0  0  0  0  0  0  0  0
    8.7217  -14.4541   20.1823 C   0  0  1  0  0  0  0  0  0  0  0  0
    9.5298  -15.4787   20.8334 C   0  0  0  0  0  0  0  0  0  0  0  0
   10.7802  -15.4158   20.7784 O   0  0  0  0  0  0  0  0  0  0  0  0
    8.9282  -16.5446   21.5275 N   0  0  0  0  0  0  0  0  0  0  0  0
    9.6647  -17.7267   21.9319 C   0  0  0  0  0  0  0  0  0  0  0  0
   10.0214  -17.5876   23.3609 C   0  0  0  0  0  0  0  0  0  0  0  0
   10.8337  -18.3712   23.9121 O   0  0  0  0  0  0  0  0  0  0  0  0
    5.0826  -12.0692   25.3347 O   0  0  0  0  0  0  0  0  0  0  0  0
    6.2717  -12.7833   25.4444 C   0  0  0  0  0  0  0  0  0  0  0  0
    6.4629  -13.5807   26.5602 C   0  0  0  0  0  0  0  0  0  0  0  0
    7.6293  -14.2975   26.6942 C   0  0  0  0  0  0  0  0  0  0  0  0
    8.6041  -14.2252   25.7263 C   0  0  0  0  0  0  0  0  0  0  0  0
    9.8512  -15.0147   25.9045 C   0  0  0  0  0  0  0  0  0  0  0  0
    9.6127  -16.4745   25.5454 C   0  0  2  0  0  0  0  0  0  0  0  0
    9.4225  -16.5397   24.1095 N   0  0  0  0  0  0  0  0  0  0  0  0
    8.4215  -17.0049   26.2572 C   0  0  0  0  0  0  0  0  0  0  0  0
    7.3514  -17.1729   25.6190 O   0  0  0  0  0  0  0  0  0  0  0  0
    8.4077  -13.4304   24.6189 C   0  0  0  0  0  0  0  0  0  0  0  0
    7.2430  -12.7119   24.4806 C   0  0  0  0  0  0  0  0  0  0  0  0
    8.4199  -17.3311   27.6057 O   0  0  0  0  0  0  0  0  0  0  0  0
  1  5  1  0
  2  1  1  0
  3  4  1  0
  3  2  1  0
  4  5  1  0
  5  6  1  1
  6  7  2  0
  8  6  1  0
  8  9  1  0
  9 10  1  0
 10 19  1  0
 10 11  2  0
 12 13  1  0
 13 14  2  0
 14 15  1  0
 16 17  1  0
 16 15  2  0
 18 17  1  1
 18 20  1  0
 19 18  1  0
 20 24  1  0
 21 20  2  0
 22 16  1  0
 23 22  2  0
 23 13  1  0
M  END
$$$$
