PGY.pdb
     RDKit          3D

 24 25  0  0  1  0  0  0  0  0999 V2000
    7.4177  -15.7097   20.9530 N   0  0  0  0  0  0  0  0  0  0  0  0
    6.1900  -15.0349   20.6632 C   0  0  0  0  0  0  0  0  0  0  0  0
    6.5582  -13.7172   19.9812 C   0  0  0  0  0  0  0  0  0  0  0  0
    7.9726  -13.5188   20.5431 C   0  0  0  0  0  0  0  0  0  0  0  0
    8.5041  -14.9364   20.3944 C   0  0  1  0  0  0  0  0  0  0  0  0
    9.7726  -15.1407   21.0843 C   0  0  0  0  0  0  0  0  0  0  0  0
   10.8478  -14.8378   20.5162 O   0  0  0  0  0  0  0  0  0  0  0  0
    9.8130  -15.6752   22.3853 N   0  0  0  0  0  0  0  0  0  0  0  0
   11.0517  -15.8484   23.1194 C   0  0  0  0  0  0  0  0  0  0  0  0
   10.7220  -16.0720   24.5441 C   0  0  0  0  0  0  0  0  0  0  0  0
   11.5780  -15.9051   25.4480 O   0  0  0  0  0  0  0  0  0  0  0  0
    6.7553  -10.9048   25.9921 O   0  0  0  0  0  0  0  0  0  0  0  0
    6.9490  -12.2804   26.0698 C   0  0  0  0  0  0  0  0  0  0  0  0
    7.4842  -12.8076   27.2330 C   0  0  0  0  0  0  0  0  0  0  0  0
    7.6863  -14.1643   27.3368 C   0  0  0  0  0  0  0  0  0  0  0  0
    7.3595  -14.9972   26.2920 C   0  0  0  0  0  0  0  0  0  0  0  0
    7.5910  -16.4583   26.4405 C   0  0  0  0  0  0  0  0  0  0  0  0
    9.0661  -16.7847   26.2552 C   0  0  2  0  0  0  0  0  0  0  0  0
    9.4045  -16.4841   24.8777 N   0  0  0  0  0  0  0  0  0  0  0  0
    9.3325  -18.2139   26.5611 C   0  0  0  0  0  0  0  0  0  0  0  0
    9.5680  -19.0087   25.6159 O   0  0  0  0  0  0  0  0  0  0  0  0
    6.8274  -14.4666   25.1378 C   0  0  0  0  0  0  0  0  0  0  0  0
    6.6236  -13.1107   25.0295 C   0  0  0  0  0  0  0  0  0  0  0  0
    9.3369  -18.7316   27.8482 O   0  0  0  0  0  0  0  0  0  0  0  0
  1  5  1  0
  2  1  1  0
  3  4  1  0
  3  2  1  0
  4  5  1  0
  5  6  1  1
  6  7  2  0
  8  6  1  0
  8  9  1  0
  9 10  1  0
 10 19  1  0
 10 11  2  0
 12 13  1  0
 13 14  2  0
 14 15  1  0
 16 17  1  0
 16 15  2  0
 18 17  1  6
 18 20  1  0
 19 18  1  0
 20 24  1  0
 21 20  2  0
 22 16  1  0
 23 22  2  0
 23 13  1  0
M  END
$$$$
