PGY.pdb
     RDKit          3D

 24 25  0  0  1  0  0  0  0  0999 V2000
    8.7010  -14.9344   18.4473 N   0  0  0  0  0  0  0  0  0  0  0  0
    8.5695  -14.2229   17.2132 C   0  0  0  0  0  0  0  0  0  0  0  0
    8.3419  -12.7539   17.5702 C   0  0  0  0  0  0  0  0  0  0  0  0
    7.7373  -12.9164   18.9715 C   0  0  0  0  0  0  0  0  0  0  0  0
    8.6753  -13.9761   19.5295 C   0  0  1  0  0  0  0  0  0  0  0  0
    8.2062  -14.5405   20.7897 C   0  0  0  0  0  0  0  0  0  0  0  0
    8.0459  -13.7967   21.7854 O   0  0  0  0  0  0  0  0  0  0  0  0
    7.9279  -15.9146   20.9101 N   0  0  0  0  0  0  0  0  0  0  0  0
    7.4320  -16.5053   22.1383 C   0  0  0  0  0  0  0  0  0  0  0  0
    8.4384  -16.2866   23.2004 C   0  0  0  0  0  0  0  0  0  0  0  0
    9.6439  -16.0662   22.9245 O   0  0  0  0  0  0  0  0  0  0  0  0
    5.6350  -10.7982   26.3576 O   0  0  0  0  0  0  0  0  0  0  0  0
    6.2961  -12.0148   26.4939 C   0  0  0  0  0  0  0  0  0  0  0  0
    5.5704  -13.1829   26.3318 C   0  0  0  0  0  0  0  0  0  0  0  0
    6.1990  -14.3997   26.4611 C   0  0  0  0  0  0  0  0  0  0  0  0
    7.5426  -14.4601   26.7501 C   0  0  0  0  0  0  0  0  0  0  0  0
    8.1883  -15.7929   26.8814 C   0  0  0  0  0  0  0  0  0  0  0  0
    8.9745  -16.1295   25.6223 C   0  0  2  0  0  0  0  0  0  0  0  0
    8.0140  -16.3305   24.5550 N   0  0  0  0  0  0  0  0  0  0  0  0
    9.7972  -17.3498   25.8247 C   0  0  0  0  0  0  0  0  0  0  0  0
    9.3929  -18.4451   25.3583 O   0  0  0  0  0  0  0  0  0  0  0  0
    8.2587  -13.2947   26.9100 C   0  0  0  0  0  0  0  0  0  0  0  0
    7.6344  -12.0758   26.7817 C   0  0  0  0  0  0  0  0  0  0  0  0
   11.0044  -17.3525   26.5086 O   0  0  0  0  0  0  0  0  0  0  0  0
  1  5  1  0
  2  1  1  0
  3  4  1  0
  3  2  1  0
  4  5  1  0
  5  6  1  1
  6  7  2  0
  8  6  1  0
  8  9  1  0
  9 10  1  0
 10 19  1  0
 10 11  2  0
 12 13  1  0
 13 14  2  0
 14 15  1  0
 16 17  1  0
 16 15  2  0
 18 17  1  1
 18 20  1  0
 19 18  1  0
 20 24  1  0
 21 20  2  0
 22 16  1  0
 23 22  2  0
 23 13  1  0
M  END
$$$$
