SQA.pdb
     RDKit          3D

 21 20  0  0  1  0  0  0  0  0999 V2000
   15.1109   -8.7209  -17.2081 O   0  0  0  0  0  0  0  0  0  0  0  0
   16.3223   -9.2899  -17.5677 C   0  0  0  0  0  0  0  0  0  0  0  0
   16.9283   -9.8888  -16.3160 C   0  0  2  0  0  0  0  0  0  0  0  0
   16.0773  -10.8537  -15.6950 N   0  0  0  0  0  0  0  0  0  0  0  0
   17.2231   -8.7629  -15.3655 C   0  0  0  0  0  0  0  0  0  0  0  0
   16.5543   -8.6209  -14.2992 O   0  0  0  0  0  0  0  0  0  0  0  0
   22.8373   -6.4643  -14.3963 N   0  0  0  0  0  0  0  0  0  0  0  0
   22.0459   -5.5535  -13.6566 C   0  0  0  0  0  0  0  0  0  0  0  0
   22.6210   -4.7360  -12.9110 O   0  0  0  0  0  0  0  0  0  0  0  0
   20.5675   -5.5498  -13.7465 C   0  0  0  0  0  0  0  0  0  0  0  0
   20.0001   -6.6105  -14.6192 C   0  0  0  0  0  0  0  0  0  0  0  0
   18.4888   -6.6853  -14.6788 C   0  0  2  0  0  0  0  0  0  0  0  0
   18.2380   -7.8219  -15.6011 N   0  0  0  0  0  0  0  0  0  0  0  0
   17.9863   -5.4352  -15.2975 C   0  0  0  0  0  0  0  0  0  0  0  0
   18.2902   -5.2235  -16.5061 O   0  0  0  0  0  0  0  0  0  0  0  0
   15.4168   -2.8609  -14.7672 C   0  0  0  0  0  0  0  0  0  0  0  0
   16.7159   -3.3327  -15.4027 C   0  0  2  0  0  0  0  0  0  0  0  0
   17.1928   -4.4744  -14.6294 N   0  0  0  0  0  0  0  0  0  0  0  0
   17.7174   -2.2561  -15.4535 C   0  0  0  0  0  0  0  0  0  0  0  0
   18.9620   -2.3107  -14.8468 O   0  0  0  0  0  0  0  0  0  0  0  0
   17.4264   -1.2152  -16.0900 O   0  0  0  0  0  0  0  0  0  0  0  0
  1  2  1  0
  3  2  1  0
  3  4  1  1
  5  3  1  0
  5 13  1  0
  6  5  2  0
  7  8  1  0
  8 10  1  0
  8  9  2  0
 10 11  1  0
 12 11  1  6
 12 13  1  0
 12 14  1  0
 14 15  2  0
 14 18  1  0
 17 16  1  1
 17 19  1  0
 18 17  1  0
 19 20  1  0
 21 19  2  0
M  END
$$$$
