SQA.pdb
     RDKit          3D

 21 20  0  0  1  0  0  0  0  0999 V2000
   17.2761  -13.5111  -13.6813 O   0  0  0  0  0  0  0  0  0  0  0  0
   17.3678  -12.1586  -13.9693 C   0  0  0  0  0  0  0  0  0  0  0  0
   16.2517  -11.4615  -13.2203 C   0  0  2  0  0  0  0  0  0  0  0  0
   14.9655  -11.6994  -13.7945 N   0  0  0  0  0  0  0  0  0  0  0  0
   16.5558   -9.9899  -13.2100 C   0  0  0  0  0  0  0  0  0  0  0  0
   16.3195   -9.2706  -14.2256 O   0  0  0  0  0  0  0  0  0  0  0  0
   16.1460   -6.6582   -8.0486 N   0  0  0  0  0  0  0  0  0  0  0  0
   15.1495   -6.9569   -9.0082 C   0  0  0  0  0  0  0  0  0  0  0  0
   13.9534   -6.9007   -8.6601 O   0  0  0  0  0  0  0  0  0  0  0  0
   15.4912   -7.3309  -10.4000 C   0  0  0  0  0  0  0  0  0  0  0  0
   16.9468   -7.4848  -10.6576 C   0  0  0  0  0  0  0  0  0  0  0  0
   17.3352   -7.8732  -12.0688 C   0  0  2  0  0  0  0  0  0  0  0  0
   17.1088   -9.3408  -12.0948 N   0  0  0  0  0  0  0  0  0  0  0  0
   18.7818   -7.5998  -12.2439 C   0  0  0  0  0  0  0  0  0  0  0  0
   19.5772   -8.1369  -11.4213 O   0  0  0  0  0  0  0  0  0  0  0  0
   21.1644   -6.6935  -14.8090 C   0  0  0  0  0  0  0  0  0  0  0  0
   20.7771   -6.6685  -13.3380 C   0  0  2  0  0  0  0  0  0  0  0  0
   19.3246   -6.7866  -13.2653 N   0  0  0  0  0  0  0  0  0  0  0  0
   21.2557   -5.4474  -12.6715 C   0  0  0  0  0  0  0  0  0  0  0  0
   20.4364   -4.4241  -12.2224 O   0  0  0  0  0  0  0  0  0  0  0  0
   22.4914   -5.3217  -12.4964 O   0  0  0  0  0  0  0  0  0  0  0  0
  1  2  1  0
  3  2  1  0
  3  4  1  6
  5  3  1  0
  5 13  1  0
  6  5  2  0
  7  8  1  0
  8 10  1  0
  8  9  2  0
 10 11  1  0
 12 11  1  1
 12 13  1  0
 12 14  1  0
 14 15  2  0
 14 18  1  0
 17 16  1  6
 17 19  1  0
 18 17  1  0
 19 20  1  0
 21 19  2  0
M  END
$$$$
