SQA.pdb
     RDKit          3D

 21 20  0  0  1  0  0  0  0  0999 V2000
   26.6037  -29.4402  -16.7391 O   0  0  0  0  0  0  0  0  0  0  0  0
   26.3555  -28.3743  -17.5894 C   0  0  0  0  0  0  0  0  0  0  0  0
   27.4682  -27.3675  -17.3866 C   0  0  2  0  0  0  0  0  0  0  0  0
   28.6630  -27.9577  -16.8719 N   0  0  0  0  0  0  0  0  0  0  0  0
   26.9624  -26.3079  -16.4489 C   0  0  0  0  0  0  0  0  0  0  0  0
   27.4434  -26.1886  -15.2832 O   0  0  0  0  0  0  0  0  0  0  0  0
   27.4449  -20.0837  -16.7188 N   0  0  0  0  0  0  0  0  0  0  0  0
   27.4008  -21.3662  -17.3158 C   0  0  0  0  0  0  0  0  0  0  0  0
   27.5909  -21.4563  -18.5449 O   0  0  0  0  0  0  0  0  0  0  0  0
   27.1364  -22.5891  -16.5232 C   0  0  0  0  0  0  0  0  0  0  0  0
   25.7328  -23.0736  -16.5866 C   0  0  0  0  0  0  0  0  0  0  0  0
   25.4442  -24.3730  -15.8645 C   0  0  2  0  0  0  0  0  0  0  0  0
   25.9466  -25.4066  -16.8051 N   0  0  0  0  0  0  0  0  0  0  0  0
   23.9745  -24.5113  -15.7274 C   0  0  0  0  0  0  0  0  0  0  0  0
   23.3154  -24.7631  -16.7763 O   0  0  0  0  0  0  0  0  0  0  0  0
   21.3286  -24.7541  -13.1394 C   0  0  0  0  0  0  0  0  0  0  0  0
   21.8137  -24.4786  -14.5548 C   0  0  2  0  0  0  0  0  0  0  0  0
   23.2690  -24.3844  -14.5087 N   0  0  0  0  0  0  0  0  0  0  0  0
   21.2087  -23.2568  -15.1076 C   0  0  0  0  0  0  0  0  0  0  0  0
   19.9212  -23.1764  -15.6137 O   0  0  0  0  0  0  0  0  0  0  0  0
   21.9051  -22.2137  -15.1229 O   0  0  0  0  0  0  0  0  0  0  0  0
  1  2  1  0
  3  2  1  0
  3  4  1  1
  5  3  1  0
  5 13  1  0
  6  5  2  0
  7  8  1  0
  8 10  1  0
  8  9  2  0
 10 11  1  0
 12 11  1  6
 12 13  1  0
 12 14  1  0
 14 15  2  0
 14 18  1  0
 17 16  1  1
 17 19  1  0
 18 17  1  0
 19 20  1  0
 21 19  2  0
M  END
$$$$
