SQA.pdb
     RDKit          3D

 21 20  0  0  1  0  0  0  0  0999 V2000
   15.9482  -13.3373  -12.4691 O   0  0  0  0  0  0  0  0  0  0  0  0
   16.1508  -12.0103  -12.8135 C   0  0  0  0  0  0  0  0  0  0  0  0
   15.4461  -11.1625  -11.7755 C   0  0  2  0  0  0  0  0  0  0  0  0
   14.0233  -11.2721  -11.8431 N   0  0  0  0  0  0  0  0  0  0  0  0
   15.8711   -9.7363  -11.9831 C   0  0  0  0  0  0  0  0  0  0  0  0
   15.4192   -9.0582  -12.9530 O   0  0  0  0  0  0  0  0  0  0  0  0
   16.0448   -5.6628   -7.5516 N   0  0  0  0  0  0  0  0  0  0  0  0
   15.0162   -6.1214   -8.4088 C   0  0  0  0  0  0  0  0  0  0  0  0
   13.8321   -5.8964   -8.0893 O   0  0  0  0  0  0  0  0  0  0  0  0
   15.3110   -6.8544   -9.6615 C   0  0  0  0  0  0  0  0  0  0  0  0
   16.7581   -7.0633   -9.9280 C   0  0  0  0  0  0  0  0  0  0  0  0
   17.1082   -7.6465  -11.2809 C   0  0  2  0  0  0  0  0  0  0  0  0
   16.7766   -9.0862  -11.1294 N   0  0  0  0  0  0  0  0  0  0  0  0
   18.5695   -7.5015  -11.4848 C   0  0  0  0  0  0  0  0  0  0  0  0
   19.3305   -8.0482  -10.6364 O   0  0  0  0  0  0  0  0  0  0  0  0
   21.0158   -6.9293  -14.0841 C   0  0  0  0  0  0  0  0  0  0  0  0
   20.6188   -6.7628  -12.6250 C   0  0  2  0  0  0  0  0  0  0  0  0
   19.1616   -6.8001  -12.5602 N   0  0  0  0  0  0  0  0  0  0  0  0
   21.1549   -5.5167  -12.0556 C   0  0  0  0  0  0  0  0  0  0  0  0
   22.4616   -5.3463  -11.6269 O   0  0  0  0  0  0  0  0  0  0  0  0
   20.3766   -4.5387  -11.9498 O   0  0  0  0  0  0  0  0  0  0  0  0
  1  2  1  0
  3  2  1  0
  3  4  1  6
  5  3  1  0
  5 13  1  0
  6  5  2  0
  7  8  1  0
  8 10  1  0
  8  9  2  0
 10 11  1  0
 12 11  1  1
 12 13  1  0
 12 14  1  0
 14 15  2  0
 14 18  1  0
 17 16  1  6
 17 19  1  0
 18 17  1  0
 19 20  1  0
 21 19  2  0
M  END
$$$$
