SQA.pdb
     RDKit          3D

 21 20  0  0  1  0  0  0  0  0999 V2000
   20.0549  -13.6239  -15.6627 O   0  0  0  0  0  0  0  0  0  0  0  0
   20.1711  -12.3528  -16.2024 C   0  0  0  0  0  0  0  0  0  0  0  0
   18.8071  -11.7009  -16.1183 C   0  0  2  0  0  0  0  0  0  0  0  0
   17.8605  -12.2773  -17.0196 N   0  0  0  0  0  0  0  0  0  0  0  0
   18.9802  -10.2366  -16.4077 C   0  0  0  0  0  0  0  0  0  0  0  0
   19.1953   -9.8285  -17.5875 O   0  0  0  0  0  0  0  0  0  0  0  0
   15.5056   -6.1597  -13.7383 N   0  0  0  0  0  0  0  0  0  0  0  0
   15.3798   -6.7172  -15.0330 C   0  0  0  0  0  0  0  0  0  0  0  0
   14.2588   -6.7046  -15.5791 O   0  0  0  0  0  0  0  0  0  0  0  0
   16.5356   -7.3091  -15.7453 C   0  0  0  0  0  0  0  0  0  0  0  0
   17.8274   -7.2053  -15.0178 C   0  0  0  0  0  0  0  0  0  0  0  0
   19.0317   -7.8071  -15.7111 C   0  0  2  0  0  0  0  0  0  0  0  0
   18.9145   -9.2557  -15.4054 N   0  0  0  0  0  0  0  0  0  0  0  0
   20.2544   -7.2702  -15.0671 C   0  0  0  0  0  0  0  0  0  0  0  0
   20.5410   -7.7036  -13.9147 O   0  0  0  0  0  0  0  0  0  0  0  0
   23.2045   -5.1376  -15.8132 C   0  0  0  0  0  0  0  0  0  0  0  0
   22.2486   -5.8462  -14.8653 C   0  0  2  0  0  0  0  0  0  0  0  0
   21.1152   -6.3152  -15.6554 N   0  0  0  0  0  0  0  0  0  0  0  0
   21.8176   -4.9640  -13.7696 C   0  0  0  0  0  0  0  0  0  0  0  0
   22.5086   -4.7911  -12.5810 O   0  0  0  0  0  0  0  0  0  0  0  0
   20.7502   -4.3225  -13.9197 O   0  0  0  0  0  0  0  0  0  0  0  0
  1  2  1  0
  3  2  1  0
  3  4  1  6
  5  3  1  0
  5 13  1  0
  6  5  2  0
  7  8  1  0
  8 10  1  0
  8  9  2  0
 10 11  1  0
 12 11  1  1
 12 13  1  0
 12 14  1  0
 14 15  2  0
 14 18  1  0
 17 16  1  6
 17 19  1  0
 18 17  1  0
 19 20  1  0
 21 19  2  0
M  END
$$$$
