SQA.pdb
     RDKit          3D

 21 20  0  0  1  0  0  0  0  0999 V2000
   12.7771  -12.0252  -11.6515 O   0  0  0  0  0  0  0  0  0  0  0  0
   13.3063  -11.8428  -12.9193 C   0  0  0  0  0  0  0  0  0  0  0  0
   14.6796  -12.4803  -12.9306 C   0  0  2  0  0  0  0  0  0  0  0  0
   14.6583  -13.8504  -12.5265 N   0  0  0  0  0  0  0  0  0  0  0  0
   15.5643  -11.6795  -12.0173 C   0  0  0  0  0  0  0  0  0  0  0  0
   15.9822  -12.1672  -10.9254 O   0  0  0  0  0  0  0  0  0  0  0  0
   19.9630   -8.0255  -14.0460 N   0  0  0  0  0  0  0  0  0  0  0  0
   20.0184   -7.7420  -12.6606 C   0  0  0  0  0  0  0  0  0  0  0  0
   20.9912   -7.0948  -12.2249 O   0  0  0  0  0  0  0  0  0  0  0  0
   18.9600   -8.1918  -11.7273 C   0  0  0  0  0  0  0  0  0  0  0  0
   17.8892   -9.0082  -12.3564 C   0  0  0  0  0  0  0  0  0  0  0  0
   16.8583   -9.5934  -11.4141 C   0  0  2  0  0  0  0  0  0  0  0  0
   15.9705  -10.3694  -12.3169 N   0  0  0  0  0  0  0  0  0  0  0  0
   16.0891   -8.4760  -10.8159 C   0  0  0  0  0  0  0  0  0  0  0  0
   15.2717   -7.8685  -11.5646 O   0  0  0  0  0  0  0  0  0  0  0  0
   15.2186   -7.0993   -7.4997 C   0  0  0  0  0  0  0  0  0  0  0  0
   15.3146   -6.9930   -9.0142 C   0  0  2  0  0  0  0  0  0  0  0  0
   16.2074   -8.0523   -9.4722 N   0  0  0  0  0  0  0  0  0  0  0  0
   15.7876   -5.6653   -9.4361 C   0  0  0  0  0  0  0  0  0  0  0  0
   15.0519   -4.4963   -9.3244 O   0  0  0  0  0  0  0  0  0  0  0  0
   16.9369   -5.5833   -9.9318 O   0  0  0  0  0  0  0  0  0  0  0  0
  1  2  1  0
  3  2  1  0
  3  4  1  1
  5  3  1  0
  5 13  1  0
  6  5  2  0
  7  8  1  0
  8 10  1  0
  8  9  2  0
 10 11  1  0
 12 11  1  6
 12 13  1  0
 12 14  1  0
 14 15  2  0
 14 18  1  0
 17 16  1  1
 17 19  1  0
 18 17  1  0
 19 20  1  0
 21 19  2  0
M  END
$$$$
