SQA.pdb
     RDKit          3D

 21 20  0  0  1  0  0  0  0  0999 V2000
   17.2755  -24.3030  -12.4622 O   0  0  0  0  0  0  0  0  0  0  0  0
   17.4920  -22.9813  -12.1059 C   0  0  0  0  0  0  0  0  0  0  0  0
   18.8958  -22.8896  -11.5459 C   0  0  2  0  0  0  0  0  0  0  0  0
   18.9266  -22.9234  -10.1181 N   0  0  0  0  0  0  0  0  0  0  0  0
   19.5089  -21.6146  -12.0522 C   0  0  0  0  0  0  0  0  0  0  0  0
   19.5875  -20.5916  -11.3092 O   0  0  0  0  0  0  0  0  0  0  0  0
   24.4270  -21.8084  -15.5545 N   0  0  0  0  0  0  0  0  0  0  0  0
   24.3769  -21.5433  -14.1652 C   0  0  0  0  0  0  0  0  0  0  0  0
   25.3933  -21.7711  -13.4798 O   0  0  0  0  0  0  0  0  0  0  0  0
   23.1586  -21.0083  -13.5146 C   0  0  0  0  0  0  0  0  0  0  0  0
   22.0030  -20.8192  -14.4298 C   0  0  0  0  0  0  0  0  0  0  0  0
   20.7402  -20.2680  -13.8018 C   0  0  2  0  0  0  0  0  0  0  0  0
   20.0202  -21.4871  -13.3536 N   0  0  0  0  0  0  0  0  0  0  0  0
   19.9498  -19.5967  -14.8613 C   0  0  0  0  0  0  0  0  0  0  0  0
   19.5390  -20.3117  -15.8193 O   0  0  0  0  0  0  0  0  0  0  0  0
   17.5281  -17.2374  -15.5081 C   0  0  0  0  0  0  0  0  0  0  0  0
   18.8853  -17.7031  -16.0132 C   0  0  2  0  0  0  0  0  0  0  0  0
   19.6256  -18.2204  -14.8672 N   0  0  0  0  0  0  0  0  0  0  0  0
   19.6160  -16.6172  -16.6851 C   0  0  0  0  0  0  0  0  0  0  0  0
   19.2819  -16.0933  -17.9237 O   0  0  0  0  0  0  0  0  0  0  0  0
   20.6114  -16.1300  -16.0975 O   0  0  0  0  0  0  0  0  0  0  0  0
  1  2  1  0
  3  2  1  0
  3  4  1  1
  5  3  1  0
  5 13  1  0
  6  5  2  0
  7  8  1  0
  8 10  1  0
  8  9  2  0
 10 11  1  0
 12 11  1  6
 12 13  1  0
 12 14  1  0
 14 15  2  0
 14 18  1  0
 17 16  1  1
 17 19  1  0
 18 17  1  0
 19 20  1  0
 21 19  2  0
M  END
$$$$
