SQA.pdb
     RDKit          3D

 21 20  0  0  1  0  0  0  0  0999 V2000
   16.0936  -11.7893  -14.6706 O   0  0  0  0  0  0  0  0  0  0  0  0
   17.2058  -10.9629  -14.6955 C   0  0  0  0  0  0  0  0  0  0  0  0
   18.0174  -11.3361  -15.9180 C   0  0  2  0  0  0  0  0  0  0  0  0
   18.5856  -12.6437  -15.8284 N   0  0  0  0  0  0  0  0  0  0  0  0
   19.0990  -10.3060  -16.0822 C   0  0  0  0  0  0  0  0  0  0  0  0
   20.2994  -10.5698  -15.7754 O   0  0  0  0  0  0  0  0  0  0  0  0
   18.7570   -5.9017  -20.4164 N   0  0  0  0  0  0  0  0  0  0  0  0
   19.9415   -5.5221  -19.7414 C   0  0  0  0  0  0  0  0  0  0  0  0
   20.6404   -4.6138  -20.2328 O   0  0  0  0  0  0  0  0  0  0  0  0
   20.3651   -6.1719  -18.4797 C   0  0  0  0  0  0  0  0  0  0  0  0
   19.4853   -7.2832  -18.0327 C   0  0  0  0  0  0  0  0  0  0  0  0
   19.9314   -8.0268  -16.7912 C   0  0  2  0  0  0  0  0  0  0  0  0
   18.8452   -9.0164  -16.5758 N   0  0  0  0  0  0  0  0  0  0  0  0
   19.9509   -7.0699  -15.6590 C   0  0  0  0  0  0  0  0  0  0  0  0
   18.8355   -6.6795  -15.2104 O   0  0  0  0  0  0  0  0  0  0  0  0
   22.0304   -5.9265  -12.9201 C   0  0  0  0  0  0  0  0  0  0  0  0
   20.9745   -5.6077  -13.9679 C   0  0  2  0  0  0  0  0  0  0  0  0
   21.1269   -6.5729  -15.0515 N   0  0  0  0  0  0  0  0  0  0  0  0
   21.0926   -4.2241  -14.4537 C   0  0  0  0  0  0  0  0  0  0  0  0
   20.7711   -3.0996  -13.7106 O   0  0  0  0  0  0  0  0  0  0  0  0
   21.5135   -4.0476  -15.6221 O   0  0  0  0  0  0  0  0  0  0  0  0
  1  2  1  0
  3  2  1  0
  3  4  1  1
  5  3  1  0
  5 13  1  0
  6  5  2  0
  7  8  1  0
  8 10  1  0
  8  9  2  0
 10 11  1  0
 12 11  1  6
 12 13  1  0
 12 14  1  0
 14 15  2  0
 14 18  1  0
 17 16  1  1
 17 19  1  0
 18 17  1  0
 19 20  1  0
 21 19  2  0
M  END
$$$$
