SQA.pdb
     RDKit          3D

 21 20  0  0  1  0  0  0  0  0999 V2000
   21.3302  -13.8805  -15.8747 O   0  0  0  0  0  0  0  0  0  0  0  0
   21.3159  -12.5692  -16.3228 C   0  0  0  0  0  0  0  0  0  0  0  0
   19.8818  -12.2262  -16.6670 C   0  0  2  0  0  0  0  0  0  0  0  0
   19.4210  -12.8880  -17.8462 N   0  0  0  0  0  0  0  0  0  0  0  0
   19.7949  -10.7356  -16.8361 C   0  0  0  0  0  0  0  0  0  0  0  0
   20.0273  -10.1943  -17.9576 O   0  0  0  0  0  0  0  0  0  0  0  0
   15.6395   -7.3194  -13.9400 N   0  0  0  0  0  0  0  0  0  0  0  0
   15.5820   -7.8921  -15.2329 C   0  0  0  0  0  0  0  0  0  0  0  0
   14.4655   -8.0413  -15.7677 O   0  0  0  0  0  0  0  0  0  0  0  0
   16.8036   -8.3139  -15.9564 C   0  0  0  0  0  0  0  0  0  0  0  0
   18.0726   -8.0539  -15.2278 C   0  0  0  0  0  0  0  0  0  0  0  0
   19.3475   -8.4048  -15.9659 C   0  0  2  0  0  0  0  0  0  0  0  0
   19.4575   -9.8741  -15.7802 N   0  0  0  0  0  0  0  0  0  0  0  0
   20.4800   -7.7401  -15.2779 C   0  0  0  0  0  0  0  0  0  0  0  0
   20.8537   -8.2271  -14.1729 O   0  0  0  0  0  0  0  0  0  0  0  0
   23.0557   -5.1304  -15.9195 C   0  0  0  0  0  0  0  0  0  0  0  0
   22.3477   -6.1573  -15.0487 C   0  0  2  0  0  0  0  0  0  0  0  0
   21.1656   -6.6082  -15.7757 N   0  0  0  0  0  0  0  0  0  0  0  0
   21.9955   -5.6023  -13.7325 C   0  0  0  0  0  0  0  0  0  0  0  0
   20.7087   -5.2754  -13.3357 O   0  0  0  0  0  0  0  0  0  0  0  0
   22.9233   -5.4107  -12.9104 O   0  0  0  0  0  0  0  0  0  0  0  0
  1  2  1  0
  3  2  1  0
  3  4  1  6
  5  3  1  0
  5 13  1  0
  6  5  2  0
  7  8  1  0
  8 10  1  0
  8  9  2  0
 10 11  1  0
 12 11  1  1
 12 13  1  0
 12 14  1  0
 14 15  2  0
 14 18  1  0
 17 16  1  6
 17 19  1  0
 18 17  1  0
 19 20  1  0
 21 19  2  0
M  END
$$$$
