SQA.pdb
     RDKit          3D

 21 20  0  0  1  0  0  0  0  0999 V2000
   17.9643  -15.1217  -14.4694 O   0  0  0  0  0  0  0  0  0  0  0  0
   17.1427  -14.4236  -15.3401 C   0  0  0  0  0  0  0  0  0  0  0  0
   17.7201  -14.5835  -16.7307 C   0  0  2  0  0  0  0  0  0  0  0  0
   18.2451  -15.8911  -16.9660 N   0  0  0  0  0  0  0  0  0  0  0  0
   18.7965  -13.5492  -16.9019 C   0  0  0  0  0  0  0  0  0  0  0  0
   20.0162  -13.8852  -16.9659 O   0  0  0  0  0  0  0  0  0  0  0  0
   17.3848   -7.9040  -19.2151 N   0  0  0  0  0  0  0  0  0  0  0  0
   18.7713   -7.7635  -18.9680 C   0  0  0  0  0  0  0  0  0  0  0  0
   19.3249   -6.6908  -19.2807 O   0  0  0  0  0  0  0  0  0  0  0  0
   19.5702   -8.8492  -18.3542 C   0  0  0  0  0  0  0  0  0  0  0  0
   18.7872  -10.0562  -17.9818 C   0  0  0  0  0  0  0  0  0  0  0  0
   19.5661  -11.1797  -17.3303 C   0  0  2  0  0  0  0  0  0  0  0  0
   18.5166  -12.1768  -16.9989 N   0  0  0  0  0  0  0  0  0  0  0  0
   20.1624  -10.6637  -16.0748 C   0  0  0  0  0  0  0  0  0  0  0  0
   19.3955  -10.5363  -15.0781 O   0  0  0  0  0  0  0  0  0  0  0  0
   23.4761  -10.1167  -14.5338 C   0  0  0  0  0  0  0  0  0  0  0  0
   21.9714   -9.9012  -14.5944 C   0  0  2  0  0  0  0  0  0  0  0  0
   21.5230  -10.3114  -15.9210 N   0  0  0  0  0  0  0  0  0  0  0  0
   21.6115   -8.5035  -14.3089 C   0  0  0  0  0  0  0  0  0  0  0  0
   21.4901   -7.9669  -13.0371 O   0  0  0  0  0  0  0  0  0  0  0  0
   21.3992   -7.7426  -15.2832 O   0  0  0  0  0  0  0  0  0  0  0  0
  1  2  1  0
  3  2  1  0
  3  4  1  1
  5  3  1  0
  5 13  1  0
  6  5  2  0
  7  8  1  0
  8 10  1  0
  8  9  2  0
 10 11  1  0
 12 11  1  1
 12 13  1  0
 12 14  1  0
 14 15  2  0
 14 18  1  0
 17 16  1  6
 17 19  1  0
 18 17  1  0
 19 20  1  0
 21 19  2  0
M  END
$$$$
