SQA.pdb
     RDKit          3D

 21 20  0  0  1  0  0  0  0  0999 V2000
   13.0193  -11.9711  -14.5056 O   0  0  0  0  0  0  0  0  0  0  0  0
   13.7104  -11.3689  -13.4661 C   0  0  0  0  0  0  0  0  0  0  0  0
   15.1879  -11.5580  -13.7378 C   0  0  2  0  0  0  0  0  0  0  0  0
   15.5619  -12.9332  -13.8366 N   0  0  0  0  0  0  0  0  0  0  0  0
   15.9475  -10.8879  -12.6279 C   0  0  0  0  0  0  0  0  0  0  0  0
   16.0894  -11.4540  -11.5036 O   0  0  0  0  0  0  0  0  0  0  0  0
   20.5085   -6.7390  -13.5360 N   0  0  0  0  0  0  0  0  0  0  0  0
   20.6627   -8.1248  -13.2937 C   0  0  0  0  0  0  0  0  0  0  0  0
   21.7387   -8.6678  -13.6136 O   0  0  0  0  0  0  0  0  0  0  0  0
   19.5875   -8.9352  -12.6767 C   0  0  0  0  0  0  0  0  0  0  0  0
   18.3472   -8.1786  -12.3639 C   0  0  0  0  0  0  0  0  0  0  0  0
   17.2550   -8.9541  -11.6577 C   0  0  2  0  0  0  0  0  0  0  0  0
   16.5324   -9.6197  -12.7714 N   0  0  0  0  0  0  0  0  0  0  0  0
   16.3481   -7.9836  -10.9991 C   0  0  0  0  0  0  0  0  0  0  0  0
   15.6619   -7.2309  -11.7477 O   0  0  0  0  0  0  0  0  0  0  0  0
   14.9517   -7.1537   -7.6669 C   0  0  0  0  0  0  0  0  0  0  0  0
   15.2958   -6.8143   -9.1094 C   0  0  2  0  0  0  0  0  0  0  0  0
   16.2001   -7.8493   -9.5994 N   0  0  0  0  0  0  0  0  0  0  0  0
   15.8926   -5.4745   -9.2241 C   0  0  0  0  0  0  0  0  0  0  0  0
   15.1836   -4.2874   -9.1334 O   0  0  0  0  0  0  0  0  0  0  0  0
   17.1297   -5.3990   -9.4175 O   0  0  0  0  0  0  0  0  0  0  0  0
  1  2  1  0
  3  2  1  0
  3  4  1  1
  5  3  1  0
  5 13  1  0
  6  5  2  0
  7  8  1  0
  8 10  1  0
  8  9  2  0
 10 11  1  0
 12 11  1  6
 12 13  1  0
 12 14  1  0
 14 15  2  0
 14 18  1  0
 17 16  1  1
 17 19  1  0
 18 17  1  0
 19 20  1  0
 21 19  2  0
M  END
$$$$
