SQA.pdb
     RDKit          3D

 21 20  0  0  1  0  0  0  0  0999 V2000
   27.3708  -10.9416  -15.5394 O   0  0  0  0  0  0  0  0  0  0  0  0
   26.4429  -10.0572  -16.0662 C   0  0  0  0  0  0  0  0  0  0  0  0
   25.1346  -10.8066  -16.2056 C   0  0  2  0  0  0  0  0  0  0  0  0
   25.2074  -11.8792  -17.1463 N   0  0  0  0  0  0  0  0  0  0  0  0
   24.0819   -9.8178  -16.6205 C   0  0  0  0  0  0  0  0  0  0  0  0
   23.8531   -9.5878  -17.8449 O   0  0  0  0  0  0  0  0  0  0  0  0
   18.5684   -9.7665  -14.5202 N   0  0  0  0  0  0  0  0  0  0  0  0
   19.0384  -10.2064  -15.7806 C   0  0  0  0  0  0  0  0  0  0  0  0
   18.3720  -11.0604  -16.3983 O   0  0  0  0  0  0  0  0  0  0  0  0
   20.2895   -9.6821  -16.3752 C   0  0  0  0  0  0  0  0  0  0  0  0
   20.9977   -8.6795  -15.5372 C   0  0  0  0  0  0  0  0  0  0  0  0
   22.2807   -8.1182  -16.1132 C   0  0  2  0  0  0  0  0  0  0  0  0
   23.3065   -9.1058  -15.6915 N   0  0  0  0  0  0  0  0  0  0  0  0
   22.5554   -6.8185  -15.4549 C   0  0  0  0  0  0  0  0  0  0  0  0
   22.8719   -6.8437  -14.2313 O   0  0  0  0  0  0  0  0  0  0  0  0
   22.9781   -3.2204  -16.3226 C   0  0  0  0  0  0  0  0  0  0  0  0
   22.9160   -4.3886  -15.3500 C   0  0  2  0  0  0  0  0  0  0  0  0
   22.4902   -5.5636  -16.1030 N   0  0  0  0  0  0  0  0  0  0  0  0
   22.0116   -4.1095  -14.2237 C   0  0  0  0  0  0  0  0  0  0  0  0
   22.3879   -3.4720  -13.0523 O   0  0  0  0  0  0  0  0  0  0  0  0
   20.8157   -4.4731  -14.3290 O   0  0  0  0  0  0  0  0  0  0  0  0
  1  2  1  0
  3  2  1  0
  3  4  1  6
  5  3  1  0
  5 13  1  0
  6  5  2  0
  7  8  1  0
  8 10  1  0
  8  9  2  0
 10 11  1  0
 12 11  1  1
 12 13  1  0
 12 14  1  0
 14 15  2  0
 14 18  1  0
 17 16  1  6
 17 19  1  0
 18 17  1  0
 19 20  1  0
 21 19  2  0
M  END
$$$$
