SQA.pdb
     RDKit          3D

 21 20  0  0  1  0  0  0  0  0999 V2000
   17.6158  -23.8710  -12.8333 O   0  0  0  0  0  0  0  0  0  0  0  0
   18.2935  -22.7341  -13.2440 C   0  0  0  0  0  0  0  0  0  0  0  0
   19.5382  -22.6178  -12.3896 C   0  0  2  0  0  0  0  0  0  0  0  0
   19.2462  -22.5259  -10.9942 N   0  0  0  0  0  0  0  0  0  0  0  0
   20.2960  -21.4034  -12.8465 C   0  0  0  0  0  0  0  0  0  0  0  0
   20.2905  -20.3382  -12.1610 O   0  0  0  0  0  0  0  0  0  0  0  0
   25.9377  -21.5263  -14.5233 N   0  0  0  0  0  0  0  0  0  0  0  0
   24.9253  -22.3764  -15.0287 C   0  0  0  0  0  0  0  0  0  0  0  0
   25.2535  -23.4982  -15.4632 O   0  0  0  0  0  0  0  0  0  0  0  0
   23.5018  -21.9683  -15.0537 C   0  0  0  0  0  0  0  0  0  0  0  0
   23.2318  -20.6352  -14.4547 C   0  0  0  0  0  0  0  0  0  0  0  0
   21.7889  -20.1761  -14.4760 C   0  0  2  0  0  0  0  0  0  0  0  0
   21.0396  -21.3809  -14.0371 N   0  0  0  0  0  0  0  0  0  0  0  0
   21.4236  -19.8582  -15.8772 C   0  0  0  0  0  0  0  0  0  0  0  0
   21.0884  -20.8229  -16.6222 O   0  0  0  0  0  0  0  0  0  0  0  0
   20.2795  -17.0618  -17.9239 C   0  0  0  0  0  0  0  0  0  0  0  0
   20.9837  -18.4056  -17.8116 C   0  0  2  0  0  0  0  0  0  0  0  0
   21.4226  -18.5561  -16.4282 N   0  0  0  0  0  0  0  0  0  0  0  0
   22.1105  -18.5079  -18.7519 C   0  0  0  0  0  0  0  0  0  0  0  0
   21.9793  -18.6676  -20.1221 O   0  0  0  0  0  0  0  0  0  0  0  0
   23.2722  -18.4467  -18.2827 O   0  0  0  0  0  0  0  0  0  0  0  0
  1  2  1  0
  3  2  1  0
  3  4  1  1
  5  3  1  0
  5 13  1  0
  6  5  2  0
  7  8  1  0
  8 10  1  0
  8  9  2  0
 10 11  1  0
 12 11  1  6
 12 13  1  0
 12 14  1  0
 14 15  2  0
 14 18  1  0
 17 16  1  1
 17 19  1  0
 18 17  1  0
 19 20  1  0
 21 19  2  0
M  END
$$$$
