SQA.pdb
     RDKit          3D

 21 20  0  0  1  0  0  0  0  0999 V2000
   27.8978  -17.2383  -17.1689 O   0  0  0  0  0  0  0  0  0  0  0  0
   27.2202  -17.7821  -16.0891 C   0  0  0  0  0  0  0  0  0  0  0  0
   28.0611  -18.9237  -15.5578 C   0  0  2  0  0  0  0  0  0  0  0  0
   28.8242  -19.5714  -16.5772 N   0  0  0  0  0  0  0  0  0  0  0  0
   27.1358  -19.9045  -14.8945 C   0  0  0  0  0  0  0  0  0  0  0  0
   26.6828  -20.9023  -15.5299 O   0  0  0  0  0  0  0  0  0  0  0  0
   26.1999  -19.9006   -8.6434 N   0  0  0  0  0  0  0  0  0  0  0  0
   25.3561  -20.9540   -9.0694 C   0  0  0  0  0  0  0  0  0  0  0  0
   24.7670  -21.6308   -8.2035 O   0  0  0  0  0  0  0  0  0  0  0  0
   25.1598  -21.2674  -10.5036 C   0  0  0  0  0  0  0  0  0  0  0  0
   26.0146  -20.4797  -11.4297 C   0  0  0  0  0  0  0  0  0  0  0  0
   25.8298  -20.7599  -12.9063 C   0  0  2  0  0  0  0  0  0  0  0  0
   26.7285  -19.7730  -13.5574 N   0  0  0  0  0  0  0  0  0  0  0  0
   24.4248  -20.4509  -13.2651 C   0  0  0  0  0  0  0  0  0  0  0  0
   24.0854  -19.2334  -13.2837 O   0  0  0  0  0  0  0  0  0  0  0  0
   21.6009  -21.8231  -15.0714 C   0  0  0  0  0  0  0  0  0  0  0  0
   22.1124  -20.9512  -13.9345 C   0  0  2  0  0  0  0  0  0  0  0  0
   23.4494  -21.4221  -13.5884 N   0  0  0  0  0  0  0  0  0  0  0  0
   21.2082  -20.9865  -12.7745 C   0  0  0  0  0  0  0  0  0  0  0  0
   19.9496  -20.4079  -12.7406 O   0  0  0  0  0  0  0  0  0  0  0  0
   21.6021  -21.5814  -11.7428 O   0  0  0  0  0  0  0  0  0  0  0  0
  1  2  1  0
  3  2  1  0
  3  4  1  6
  5  3  1  0
  5 13  1  0
  6  5  2  0
  7  8  1  0
  8 10  1  0
  8  9  2  0
 10 11  1  0
 12 11  1  1
 12 13  1  0
 12 14  1  0
 14 15  2  0
 14 18  1  0
 17 16  1  6
 17 19  1  0
 18 17  1  0
 19 20  1  0
 21 19  2  0
M  END
$$$$
