SQA.pdb
     RDKit          3D

 21 20  0  0  1  0  0  0  0  0999 V2000
   18.9071  -12.8989  -15.4833 O   0  0  0  0  0  0  0  0  0  0  0  0
   18.8879  -11.5157  -15.5674 C   0  0  0  0  0  0  0  0  0  0  0  0
   17.5002  -11.0592  -15.1691 C   0  0  2  0  0  0  0  0  0  0  0  0
   16.5315  -11.2665  -16.1983 N   0  0  0  0  0  0  0  0  0  0  0  0
   17.5816   -9.6015  -14.8135 C   0  0  0  0  0  0  0  0  0  0  0  0
   17.4044   -8.7073  -15.6931 O   0  0  0  0  0  0  0  0  0  0  0  0
   16.4832   -7.6695   -8.9978 N   0  0  0  0  0  0  0  0  0  0  0  0
   16.8253   -6.4506   -9.6304 C   0  0  0  0  0  0  0  0  0  0  0  0
   16.7472   -5.3958   -8.9697 O   0  0  0  0  0  0  0  0  0  0  0  0
   17.2681   -6.3998  -11.0428 C   0  0  0  0  0  0  0  0  0  0  0  0
   17.3686   -7.7263  -11.7056 C   0  0  0  0  0  0  0  0  0  0  0  0
   17.8295   -7.7160  -13.1481 C   0  0  2  0  0  0  0  0  0  0  0  0
   17.8538   -9.1561  -13.5102 N   0  0  0  0  0  0  0  0  0  0  0  0
   19.2109   -7.1793  -13.1901 C   0  0  0  0  0  0  0  0  0  0  0  0
   20.1241   -7.8877  -12.6783 O   0  0  0  0  0  0  0  0  0  0  0  0
   21.1819   -4.5221  -14.8474 C   0  0  0  0  0  0  0  0  0  0  0  0
   20.9838   -5.5772  -13.7696 C   0  0  2  0  0  0  0  0  0  0  0  0
   19.5700   -5.9381  -13.7641 N   0  0  0  0  0  0  0  0  0  0  0  0
   21.4253   -5.0958  -12.4513 C   0  0  0  0  0  0  0  0  0  0  0  0
   22.7464   -5.0386  -12.0371 O   0  0  0  0  0  0  0  0  0  0  0  0
   20.5462   -4.7096  -11.6443 O   0  0  0  0  0  0  0  0  0  0  0  0
  1  2  1  0
  3  2  1  0
  3  4  1  6
  5  3  1  0
  5 13  1  0
  6  5  2  0
  7  8  1  0
  8 10  1  0
  8  9  2  0
 10 11  1  0
 12 11  1  1
 12 13  1  0
 12 14  1  0
 14 15  2  0
 14 18  1  0
 17 16  1  6
 17 19  1  0
 18 17  1  0
 19 20  1  0
 21 19  2  0
M  END
$$$$
