SQA.pdb
     RDKit          3D

 21 20  0  0  1  0  0  0  0  0999 V2000
   25.2880  -11.3424  -16.4908 O   0  0  0  0  0  0  0  0  0  0  0  0
   24.4216  -11.7531  -15.4901 C   0  0  0  0  0  0  0  0  0  0  0  0
   23.0982  -12.0838  -16.1473 C   0  0  2  0  0  0  0  0  0  0  0  0
   23.2492  -12.8507  -17.3430 N   0  0  0  0  0  0  0  0  0  0  0  0
   22.3964  -10.7882  -16.4420 C   0  0  0  0  0  0  0  0  0  0  0  0
   22.3318  -10.3387  -17.6246 O   0  0  0  0  0  0  0  0  0  0  0  0
   17.1557   -9.3977  -13.9525 N   0  0  0  0  0  0  0  0  0  0  0  0
   17.4457   -9.9710  -15.2135 C   0  0  0  0  0  0  0  0  0  0  0  0
   16.5615  -10.6461  -15.7768 O   0  0  0  0  0  0  0  0  0  0  0  0
   18.7603   -9.7900  -15.8712 C   0  0  0  0  0  0  0  0  0  0  0  0
   19.7169   -8.9408  -15.1143 C   0  0  0  0  0  0  0  0  0  0  0  0
   21.0785   -8.7458  -15.7476 C   0  0  2  0  0  0  0  0  0  0  0  0
   21.7837  -10.0166  -15.4419 N   0  0  0  0  0  0  0  0  0  0  0  0
   21.7598   -7.6298  -15.0488 C   0  0  0  0  0  0  0  0  0  0  0  0
   22.3454   -7.8979  -13.9611 O   0  0  0  0  0  0  0  0  0  0  0  0
   22.7861   -4.1061  -15.5826 C   0  0  0  0  0  0  0  0  0  0  0  0
   22.4934   -5.3092  -14.6988 C   0  0  2  0  0  0  0  0  0  0  0  0
   21.7993   -6.2968  -15.5185 N   0  0  0  0  0  0  0  0  0  0  0  0
   21.7026   -4.9342  -13.5162 C   0  0  0  0  0  0  0  0  0  0  0  0
   22.2289   -4.3727  -12.3639 O   0  0  0  0  0  0  0  0  0  0  0  0
   20.4650   -5.1360  -13.5512 O   0  0  0  0  0  0  0  0  0  0  0  0
  1  2  1  0
  3  2  1  0
  3  4  1  6
  5  3  1  0
  5 13  1  0
  6  5  2  0
  7  8  1  0
  8 10  1  0
  8  9  2  0
 10 11  1  0
 12 11  1  1
 12 13  1  0
 12 14  1  0
 14 15  2  0
 14 18  1  0
 17 16  1  6
 17 19  1  0
 18 17  1  0
 19 20  1  0
 21 19  2  0
M  END
$$$$
