RRG.pdb
     RDKit          3D

 27 26  0  0  1  0  0  0  0  0999 V2000
   20.4131  -23.0529   -7.7247 N   0  0  0  0  0  0  0  0  0  0  0  0
   19.8048  -22.4254   -8.8359 C   0  0  0  0  0  0  0  0  0  0  0  0
   18.5124  -22.5119   -8.9390 N   0  0  0  0  0  0  0  0  0  0  0  0
   20.4991  -21.7204   -9.8280 N   0  0  0  0  0  0  0  0  0  0  0  0
   21.9625  -21.7215   -9.9659 C   0  0  0  0  0  0  0  0  0  0  0  0
   22.4970  -20.7792   -8.9156 C   0  0  0  0  0  0  0  0  0  0  0  0
   23.5890  -19.8910   -9.4384 C   0  0  0  0  0  0  0  0  0  0  0  0
   24.8337  -20.6845   -9.7326 C   0  0  2  0  0  0  0  0  0  0  0  0
   25.8206  -20.4333   -8.7046 N   0  0  0  0  0  0  0  0  0  0  0  0
   25.3618  -20.1962  -11.0505 C   0  0  0  0  0  0  0  0  0  0  0  0
   25.8759  -19.0345  -11.1058 O   0  0  0  0  0  0  0  0  0  0  0  0
   17.9674  -22.1064   -9.7307 N   0  0  0  0  0  0  0  0  0  0  0  0
   26.8711  -23.3976  -17.8922 C   0  0  0  0  0  0  0  0  0  0  0  0
   28.0096  -22.5668  -18.1866 N   0  0  0  0  0  0  0  0  0  0  0  0
   28.2227  -22.3193  -19.4402 N   0  0  0  0  0  0  0  0  0  0  0  0
   28.8167  -22.0676  -17.1486 C   0  0  0  0  0  0  0  0  0  0  0  0
   28.4205  -22.2552  -15.7801 C   0  0  0  0  0  0  0  0  0  0  0  0
   27.2851  -21.4089  -15.3519 C   0  0  0  0  0  0  0  0  0  0  0  0
   26.8454  -21.4403  -13.9528 C   0  0  1  0  0  0  0  0  0  0  0  0
   25.7330  -20.6030  -13.4893 N   0  0  0  0  0  0  0  0  0  0  0  0
   25.2688  -21.0371  -12.1695 C   0  0  0  0  0  0  0  0  0  0  0  0
   24.5964  -20.3306  -14.3823 O   0  0  0  0  0  0  0  0  0  0  0  0
   23.5766  -21.0645  -14.3927 N   0  0  0  0  0  0  0  0  0  0  0  0
   29.0242  -21.8202  -19.8363 C   0  0  0  0  0  0  0  0  0  0  0  0
   24.5998  -19.2281  -15.2912 C   0  0  0  0  0  0  0  0  0  0  0  0
   23.5147  -18.9534  -16.1686 O   0  0  0  0  0  0  0  0  0  0  0  0
   23.6191  -17.8027  -17.0717 O   0  0  0  0  0  0  0  0  0  0  0  0
  2  1  1  0
  3  2  2  0
  4  2  1  0
  5  4  1  0
  6  5  1  0
  7  8  1  0
  7  6  1  0
  8 10  1  0
  8  9  1  1
 10 11  2  0
 13 12  1  0
 13 14  2  0
 15 16  1  0
 15 13  1  0
 17 16  1  0
 18 17  1  0
 19 18  1  1
 19 21  1  0
 20 10  1  0
 20 19  1  0
 21 22  2  0
 23 24  1  0
 23 21  1  0
 25 26  1  0
 25 24  1  0
 27 25  2  0
M  END
$$$$
