RRG.pdb
     RDKit          3D

 27 26  0  0  1  0  0  0  0  0999 V2000
   30.1007  -25.1751  -16.7027 N   0  0  0  0  0  0  0  0  0  0  0  0
   28.7302  -25.1857  -17.0488 C   0  0  0  0  0  0  0  0  0  0  0  0
   28.0908  -26.3104  -16.9280 N   0  0  0  0  0  0  0  0  0  0  0  0
   28.0194  -24.0702  -17.5113 N   0  0  0  0  0  0  0  0  0  0  0  0
   27.3756  -23.0833  -16.6326 C   0  0  0  0  0  0  0  0  0  0  0  0
   28.4850  -22.2961  -15.9797 C   0  0  0  0  0  0  0  0  0  0  0  0
   27.9751  -21.3050  -14.9735 C   0  0  0  0  0  0  0  0  0  0  0  0
   26.6802  -20.6900  -15.4322 C   0  0  2  0  0  0  0  0  0  0  0  0
   26.9600  -19.5696  -16.3042 N   0  0  0  0  0  0  0  0  0  0  0  0
   25.9736  -20.1926  -14.2044 C   0  0  0  0  0  0  0  0  0  0  0  0
   26.0218  -18.9502  -13.9376 O   0  0  0  0  0  0  0  0  0  0  0  0
   27.0930  -26.4404  -17.2035 N   0  0  0  0  0  0  0  0  0  0  0  0
   21.2295  -22.5087  -16.0916 C   0  0  0  0  0  0  0  0  0  0  0  0
   20.5504  -21.2391  -16.0977 N   0  0  0  0  0  0  0  0  0  0  0  0
   20.1626  -20.8084  -17.2563 N   0  0  0  0  0  0  0  0  0  0  0  0
   20.3344  -20.5391  -14.8971 C   0  0  0  0  0  0  0  0  0  0  0  0
   20.9575  -20.9902  -13.6833 C   0  0  0  0  0  0  0  0  0  0  0  0
   22.3933  -20.6514  -13.5719 C   0  0  0  0  0  0  0  0  0  0  0  0
   23.1219  -20.9802  -12.3419 C   0  0  2  0  0  0  0  0  0  0  0  0
   24.5529  -20.6848  -12.2069 N   0  0  0  0  0  0  0  0  0  0  0  0
   25.2882  -21.1140  -13.3988 C   0  0  0  0  0  0  0  0  0  0  0  0
   25.2701  -21.0679  -10.9811 O   0  0  0  0  0  0  0  0  0  0  0  0
   25.5580  -22.2656  -10.7338 N   0  0  0  0  0  0  0  0  0  0  0  0
   19.6831  -19.9247  -17.4498 C   0  0  0  0  0  0  0  0  0  0  0  0
   25.6627  -20.1013  -10.0048 C   0  0  0  0  0  0  0  0  0  0  0  0
   24.8607  -19.7829   -8.8743 O   0  0  0  0  0  0  0  0  0  0  0  0
   24.4869  -20.8626   -7.9550 O   0  0  0  0  0  0  0  0  0  0  0  0
  2  1  1  0
  3  2  2  0
  4  2  1  0
  5  4  1  0
  6  5  1  0
  7  8  1  0
  7  6  1  0
  8 10  1  0
  8  9  1  6
 10 11  2  0
 13 12  1  0
 13 14  2  0
 15 16  1  0
 15 13  1  0
 17 16  1  0
 18 17  1  0
 19 18  1  6
 19 21  1  0
 20 10  1  0
 20 19  1  0
 21 22  2  0
 23 24  1  0
 23 21  1  0
 25 26  1  0
 25 24  1  0
 27 25  2  0
M  END
$$$$
