RRG.pdb
     RDKit          3D

 27 26  0  0  1  0  0  0  0  0999 V2000
   27.0382  -17.3924  -22.8382 N   0  0  0  0  0  0  0  0  0  0  0  0
   27.1658  -16.5032  -21.7466 C   0  0  0  0  0  0  0  0  0  0  0  0
   26.6153  -15.3318  -21.8612 N   0  0  0  0  0  0  0  0  0  0  0  0
   27.8427  -16.7994  -20.5561 N   0  0  0  0  0  0  0  0  0  0  0  0
   28.1605  -18.1628  -20.1083 C   0  0  0  0  0  0  0  0  0  0  0  0
   26.9351  -18.6816  -19.3971 C   0  0  0  0  0  0  0  0  0  0  0  0
   27.0257  -18.5313  -17.9058 C   0  0  0  0  0  0  0  0  0  0  0  0
   27.8275  -19.6518  -17.2998 C   0  0  2  0  0  0  0  0  0  0  0  0
   28.0660  -20.6704  -18.2995 N   0  0  0  0  0  0  0  0  0  0  0  0
   26.9969  -20.2344  -16.1930 C   0  0  0  0  0  0  0  0  0  0  0  0
   26.2205  -21.2047  -16.4629 O   0  0  0  0  0  0  0  0  0  0  0  0
   26.6564  -14.5989  -21.1199 N   0  0  0  0  0  0  0  0  0  0  0  0
   25.4085  -20.0165   -8.6604 C   0  0  0  0  0  0  0  0  0  0  0  0
   24.4576  -20.9850   -9.1410 N   0  0  0  0  0  0  0  0  0  0  0  0
   23.2525  -20.8751   -8.6786 N   0  0  0  0  0  0  0  0  0  0  0  0
   24.8488  -21.9740  -10.0612 C   0  0  0  0  0  0  0  0  0  0  0  0
   25.3571  -21.5921  -11.3499 C   0  0  0  0  0  0  0  0  0  0  0  0
   26.5756  -20.7544  -11.3017 C   0  0  0  0  0  0  0  0  0  0  0  0
   27.0887  -20.1503  -12.5361 C   0  0  2  0  0  0  0  0  0  0  0  0
   26.3222  -20.2131  -13.7858 N   0  0  0  0  0  0  0  0  0  0  0  0
   27.1074  -19.6885  -14.9056 C   0  0  0  0  0  0  0  0  0  0  0  0
   24.9426  -19.7048  -13.8282 O   0  0  0  0  0  0  0  0  0  0  0  0
   24.6955  -18.4737  -13.8721 N   0  0  0  0  0  0  0  0  0  0  0  0
   22.4582  -21.4844   -8.8934 C   0  0  0  0  0  0  0  0  0  0  0  0
   23.8154  -20.5827  -13.8077 C   0  0  0  0  0  0  0  0  0  0  0  0
   22.4743  -20.1108  -13.8456 O   0  0  0  0  0  0  0  0  0  0  0  0
   21.8980  -19.7438  -15.1433 O   0  0  0  0  0  0  0  0  0  0  0  0
  2  1  1  0
  3  2  2  0
  4  2  1  0
  5  4  1  0
  6  5  1  0
  7  8  1  0
  7  6  1  0
  8 10  1  0
  8  9  1  6
 10 11  2  0
 13 12  1  0
 13 14  2  0
 15 16  1  0
 15 13  1  0
 17 16  1  0
 18 17  1  0
 19 18  1  6
 19 21  1  0
 20 10  1  0
 20 19  1  0
 21 22  2  0
 23 24  1  0
 23 21  1  0
 25 26  1  0
 25 24  1  0
 27 25  2  0
M  END
$$$$
