RRG.pdb
     RDKit          3D

 27 26  0  0  1  0  0  0  0  0999 V2000
   32.4471  -22.0155  -10.8546 N   0  0  0  0  0  0  0  0  0  0  0  0
   31.9930  -22.1369  -12.1877 C   0  0  0  0  0  0  0  0  0  0  0  0
   32.4931  -23.0976  -12.9055 N   0  0  0  0  0  0  0  0  0  0  0  0
   31.0447  -21.2945  -12.7833 N   0  0  0  0  0  0  0  0  0  0  0  0
   30.0250  -20.5457  -12.0351 C   0  0  0  0  0  0  0  0  0  0  0  0
   28.8673  -21.4887  -11.8184 C   0  0  0  0  0  0  0  0  0  0  0  0
   27.5379  -20.8402  -12.0769 C   0  0  0  0  0  0  0  0  0  0  0  0
   26.5915  -21.0774  -10.9308 C   0  0  2  0  0  0  0  0  0  0  0  0
   26.9122  -22.3357  -10.2924 N   0  0  0  0  0  0  0  0  0  0  0  0
   25.2106  -21.1603  -11.5144 C   0  0  0  0  0  0  0  0  0  0  0  0
   24.8667  -22.2297  -12.1104 O   0  0  0  0  0  0  0  0  0  0  0  0
   32.2589  -23.2503  -13.9106 N   0  0  0  0  0  0  0  0  0  0  0  0
   18.5996  -23.4197   -9.7988 C   0  0  0  0  0  0  0  0  0  0  0  0
   19.5631  -23.1380   -8.7667 N   0  0  0  0  0  0  0  0  0  0  0  0
   19.7469  -24.0746   -7.8908 N   0  0  0  0  0  0  0  0  0  0  0  0
   20.2484  -21.9100   -8.7455 C   0  0  0  0  0  0  0  0  0  0  0  0
   20.7783  -21.3646   -9.9648 C   0  0  0  0  0  0  0  0  0  0  0  0
   21.5199  -20.0958   -9.7942 C   0  0  0  0  0  0  0  0  0  0  0  0
   22.0638  -19.4106  -10.9718 C   0  0  2  0  0  0  0  0  0  0  0  0
   22.9802  -20.0954  -11.8907 N   0  0  0  0  0  0  0  0  0  0  0  0
   24.3531  -20.0582  -11.3814 C   0  0  0  0  0  0  0  0  0  0  0  0
   22.9451  -19.7876  -13.3286 O   0  0  0  0  0  0  0  0  0  0  0  0
   23.5304  -18.7812  -13.8011 N   0  0  0  0  0  0  0  0  0  0  0  0
   20.4134  -24.0616   -7.1137 C   0  0  0  0  0  0  0  0  0  0  0  0
   22.2338  -20.6079  -14.2574 C   0  0  0  0  0  0  0  0  0  0  0  0
   22.2661  -20.3831  -15.6614 O   0  0  0  0  0  0  0  0  0  0  0  0
   21.4217  -21.2167  -16.5232 O   0  0  0  0  0  0  0  0  0  0  0  0
  2  1  1  0
  3  2  2  0
  4  2  1  0
  5  4  1  0
  6  5  1  0
  7  8  1  0
  7  6  1  0
  8 10  1  0
  8  9  1  6
 10 11  2  0
 13 12  1  0
 13 14  2  0
 15 16  1  0
 15 13  1  0
 17 16  1  0
 18 17  1  0
 19 18  1  1
 19 21  1  0
 20 10  1  0
 20 19  1  0
 21 22  2  0
 23 24  1  0
 23 21  1  0
 25 26  1  0
 25 24  1  0
 27 25  2  0
M  END
$$$$
