RRG.pdb
     RDKit          3D

 27 26  0  0  1  0  0  0  0  0999 V2000
   23.9903  -18.7020  -20.9355 N   0  0  0  0  0  0  0  0  0  0  0  0
   25.0994  -17.8841  -20.6204 C   0  0  0  0  0  0  0  0  0  0  0  0
   25.5466  -17.0968  -21.5523 N   0  0  0  0  0  0  0  0  0  0  0  0
   25.7450  -17.8662  -19.3769 N   0  0  0  0  0  0  0  0  0  0  0  0
   27.0833  -18.4248  -19.1373 C   0  0  0  0  0  0  0  0  0  0  0  0
   26.9185  -19.5187  -18.1112 C   0  0  0  0  0  0  0  0  0  0  0  0
   27.5259  -19.1628  -16.7848 C   0  0  0  0  0  0  0  0  0  0  0  0
   27.3939  -20.3016  -15.8095 C   0  0  2  0  0  0  0  0  0  0  0  0
   28.0143  -21.4858  -16.3633 N   0  0  0  0  0  0  0  0  0  0  0  0
   25.9250  -20.5548  -15.6296 C   0  0  0  0  0  0  0  0  0  0  0  0
   25.3214  -21.2664  -16.4935 O   0  0  0  0  0  0  0  0  0  0  0  0
   26.3985  -16.5036  -21.4482 N   0  0  0  0  0  0  0  0  0  0  0  0
   25.2921  -19.8529   -8.6150 C   0  0  0  0  0  0  0  0  0  0  0  0
   24.9797  -20.8283   -9.6270 N   0  0  0  0  0  0  0  0  0  0  0  0
   25.9848  -21.4888  -10.1083 N   0  0  0  0  0  0  0  0  0  0  0  0
   23.6501  -21.0281  -10.0397 C   0  0  0  0  0  0  0  0  0  0  0  0
   23.3267  -22.1287  -10.9051 C   0  0  0  0  0  0  0  0  0  0  0  0
   23.6132  -21.8847  -12.3360 C   0  0  0  0  0  0  0  0  0  0  0  0
   23.6038  -20.5119  -12.8528 C   0  0  2  0  0  0  0  0  0  0  0  0
   23.8497  -20.2352  -14.2727 N   0  0  0  0  0  0  0  0  0  0  0  0
   25.2742  -19.9986  -14.5184 C   0  0  0  0  0  0  0  0  0  0  0  0
   23.0231  -19.2472  -14.9828 O   0  0  0  0  0  0  0  0  0  0  0  0
   23.4033  -18.0596  -15.1368 N   0  0  0  0  0  0  0  0  0  0  0  0
   25.9470  -22.2282  -10.8155 C   0  0  0  0  0  0  0  0  0  0  0  0
   21.7427  -19.5833  -15.5204 C   0  0  0  0  0  0  0  0  0  0  0  0
   20.9458  -18.6534  -16.2436 O   0  0  0  0  0  0  0  0  0  0  0  0
   20.7605  -18.8617  -17.6834 O   0  0  0  0  0  0  0  0  0  0  0  0
  2  1  1  0
  3  2  2  0
  4  2  1  0
  5  4  1  0
  6  5  1  0
  7  8  1  0
  7  6  1  0
  8 10  1  0
  8  9  1  6
 10 11  2  0
 13 12  1  0
 13 14  2  0
 15 16  1  0
 15 13  1  0
 17 16  1  0
 18 17  1  0
 19 18  1  6
 19 21  1  0
 20 10  1  0
 20 19  1  0
 21 22  2  0
 23 24  1  0
 23 21  1  0
 25 26  1  0
 25 24  1  0
 27 25  2  0
M  END
$$$$
