RRG.pdb
     RDKit          3D

 27 26  0  0  1  0  0  0  0  0999 V2000
   26.7229  -19.5797   -9.7731 N   0  0  0  0  0  0  0  0  0  0  0  0
   26.5669  -20.4856  -10.8470 C   0  0  0  0  0  0  0  0  0  0  0  0
   25.7674  -21.4942  -10.6682 N   0  0  0  0  0  0  0  0  0  0  0  0
   27.2137  -20.3689  -12.0846 N   0  0  0  0  0  0  0  0  0  0  0  0
   26.5744  -19.8458  -13.3003 C   0  0  0  0  0  0  0  0  0  0  0  0
   26.8497  -18.3626  -13.3302 C   0  0  0  0  0  0  0  0  0  0  0  0
   26.0211  -17.6418  -14.3543 C   0  0  0  0  0  0  0  0  0  0  0  0
   25.8939  -18.4561  -15.6137 C   0  0  2  0  0  0  0  0  0  0  0  0
   26.0667  -17.5959  -16.7643 N   0  0  0  0  0  0  0  0  0  0  0  0
   24.5039  -19.0235  -15.6287 C   0  0  0  0  0  0  0  0  0  0  0  0
   23.5758  -18.3420  -16.1682 O   0  0  0  0  0  0  0  0  0  0  0  0
   25.6289  -22.2534  -11.3702 N   0  0  0  0  0  0  0  0  0  0  0  0
   22.0098  -27.1954  -15.2343 C   0  0  0  0  0  0  0  0  0  0  0  0
   20.7646  -26.6063  -14.8152 N   0  0  0  0  0  0  0  0  0  0  0  0
   19.7087  -27.3406  -14.9701 N   0  0  0  0  0  0  0  0  0  0  0  0
   20.7357  -25.3102  -14.2699 C   0  0  0  0  0  0  0  0  0  0  0  0
   21.9516  -24.5522  -14.1603 C   0  0  0  0  0  0  0  0  0  0  0  0
   21.8492  -23.1600  -14.6502 C   0  0  0  0  0  0  0  0  0  0  0  0
   23.0035  -22.2629  -14.5297 C   0  0  2  0  0  0  0  0  0  0  0  0
   22.9454  -20.8828  -15.0247 N   0  0  0  0  0  0  0  0  0  0  0  0
   24.2807  -20.2810  -15.0485 C   0  0  0  0  0  0  0  0  0  0  0  0
   21.9565  -19.9447  -14.4718 O   0  0  0  0  0  0  0  0  0  0  0  0
   21.9631  -19.6207  -13.2579 N   0  0  0  0  0  0  0  0  0  0  0  0
   18.7637  -27.1289  -14.6377 C   0  0  0  0  0  0  0  0  0  0  0  0
   20.9318  -19.3661  -15.2823 C   0  0  0  0  0  0  0  0  0  0  0  0
   19.6590  -19.9749  -15.4608 O   0  0  0  0  0  0  0  0  0  0  0  0
   18.6848  -19.8935  -14.3676 O   0  0  0  0  0  0  0  0  0  0  0  0
  2  1  1  0
  3  2  2  0
  4  2  1  0
  5  4  1  0
  6  5  1  0
  7  8  1  0
  7  6  1  0
  8 10  1  0
  8  9  1  6
 10 11  2  0
 13 12  1  0
 13 14  2  0
 15 16  1  0
 15 13  1  0
 17 16  1  0
 18 17  1  0
 19 18  1  6
 19 21  1  0
 20 10  1  0
 20 19  1  0
 21 22  2  0
 23 24  1  0
 23 21  1  0
 25 26  1  0
 25 24  1  0
 27 25  2  0
M  END
$$$$
