RRG.pdb
     RDKit          3D

 27 26  0  0  1  0  0  0  0  0999 V2000
   24.4175  -17.3837  -20.3050 N   0  0  0  0  0  0  0  0  0  0  0  0
   24.7684  -16.1243  -19.7672 C   0  0  0  0  0  0  0  0  0  0  0  0
   23.8133  -15.2609  -19.5921 N   0  0  0  0  0  0  0  0  0  0  0  0
   26.0706  -15.7472  -19.4127 N   0  0  0  0  0  0  0  0  0  0  0  0
   27.0490  -16.6527  -18.7938 C   0  0  0  0  0  0  0  0  0  0  0  0
   26.3717  -17.9940  -18.6569 C   0  0  0  0  0  0  0  0  0  0  0  0
   27.2562  -19.0253  -18.0178 C   0  0  0  0  0  0  0  0  0  0  0  0
   27.4226  -18.7545  -16.5466 C   0  0  2  0  0  0  0  0  0  0  0  0
   28.7981  -18.3973  -16.2740 N   0  0  0  0  0  0  0  0  0  0  0  0
   27.0947  -20.0310  -15.8275 C   0  0  0  0  0  0  0  0  0  0  0  0
   27.9720  -20.9510  -15.7929 O   0  0  0  0  0  0  0  0  0  0  0  0
   23.9540  -14.3243  -19.1547 N   0  0  0  0  0  0  0  0  0  0  0  0
   23.8632  -20.4361   -9.9048 C   0  0  0  0  0  0  0  0  0  0  0  0
   25.1894  -20.6481   -9.3859 N   0  0  0  0  0  0  0  0  0  0  0  0
   25.4560  -20.0719   -8.2568 N   0  0  0  0  0  0  0  0  0  0  0  0
   26.1122  -21.4437  -10.0885 C   0  0  0  0  0  0  0  0  0  0  0  0
   26.6584  -20.9770  -11.3330 C   0  0  0  0  0  0  0  0  0  0  0  0
   25.6844  -20.2854  -12.2059 C   0  0  0  0  0  0  0  0  0  0  0  0
   24.9090  -21.0592  -13.1815 C   0  0  2  0  0  0  0  0  0  0  0  0
   25.4597  -21.3813  -14.5029 N   0  0  0  0  0  0  0  0  0  0  0  0
   25.8361  -20.1619  -15.2220 C   0  0  0  0  0  0  0  0  0  0  0  0
   24.7468  -22.3143  -15.3888 O   0  0  0  0  0  0  0  0  0  0  0  0
   23.8683  -21.9165  -16.1941 N   0  0  0  0  0  0  0  0  0  0  0  0
   26.3555  -20.0742   -7.7676 C   0  0  0  0  0  0  0  0  0  0  0  0
   25.0066  -23.7193  -15.3690 C   0  0  0  0  0  0  0  0  0  0  0  0
   26.1501  -24.2971  -15.9865 O   0  0  0  0  0  0  0  0  0  0  0  0
   26.2429  -25.7589  -16.0585 O   0  0  0  0  0  0  0  0  0  0  0  0
  2  1  1  0
  3  2  2  0
  4  2  1  0
  5  4  1  0
  6  5  1  0
  7  8  1  0
  7  6  1  0
  8 10  1  0
  8  9  1  6
 10 11  2  0
 13 12  1  0
 13 14  2  0
 15 16  1  0
 15 13  1  0
 17 16  1  0
 18 17  1  0
 19 18  1  1
 19 21  1  0
 20 10  1  0
 20 19  1  0
 21 22  2  0
 23 24  1  0
 23 21  1  0
 25 26  1  0
 25 24  1  0
 27 25  2  0
M  END
$$$$
