RRG.pdb
     RDKit          3D

 27 26  0  0  1  0  0  0  0  0999 V2000
   28.3005  -19.9835  -15.2782 N   0  0  0  0  0  0  0  0  0  0  0  0
   28.0655  -20.8992  -16.3292 C   0  0  0  0  0  0  0  0  0  0  0  0
   28.8888  -21.8974  -16.4489 N   0  0  0  0  0  0  0  0  0  0  0  0
   27.0099  -20.8025  -17.2455 N   0  0  0  0  0  0  0  0  0  0  0  0
   25.9566  -19.7793  -17.1813 C   0  0  0  0  0  0  0  0  0  0  0  0
   24.7054  -20.4752  -16.7050 C   0  0  0  0  0  0  0  0  0  0  0  0
   24.1816  -19.9055  -15.4183 C   0  0  0  0  0  0  0  0  0  0  0  0
   24.3500  -20.8850  -14.2880 C   0  0  2  0  0  0  0  0  0  0  0  0
   24.9568  -22.0997  -14.7882 N   0  0  0  0  0  0  0  0  0  0  0  0
   22.9750  -21.1985  -13.7729 C   0  0  0  0  0  0  0  0  0  0  0  0
   22.3017  -22.1074  -14.3540 O   0  0  0  0  0  0  0  0  0  0  0  0
   28.9217  -22.5225  -17.2834 N   0  0  0  0  0  0  0  0  0  0  0  0
   19.7270  -24.1193   -7.3465 C   0  0  0  0  0  0  0  0  0  0  0  0
   18.5979  -23.4641   -7.9538 N   0  0  0  0  0  0  0  0  0  0  0  0
   17.4784  -24.1150   -7.9204 N   0  0  0  0  0  0  0  0  0  0  0  0
   18.7387  -22.1909   -8.5348 C   0  0  0  0  0  0  0  0  0  0  0  0
   19.8327  -21.9289   -9.4288 C   0  0  0  0  0  0  0  0  0  0  0  0
   19.9091  -20.5306   -9.9063 C   0  0  0  0  0  0  0  0  0  0  0  0
   20.9992  -20.1297  -10.8024 C   0  0  2  0  0  0  0  0  0  0  0  0
   21.1473  -20.7323  -12.1320 N   0  0  0  0  0  0  0  0  0  0  0  0
   22.4848  -20.4793  -12.6729 C   0  0  0  0  0  0  0  0  0  0  0  0
   20.1160  -20.5125  -13.1576 O   0  0  0  0  0  0  0  0  0  0  0  0
   20.0893  -19.4648  -13.8506 N   0  0  0  0  0  0  0  0  0  0  0  0
   16.5911  -23.8255   -8.3414 C   0  0  0  0  0  0  0  0  0  0  0  0
   19.0862  -21.4708  -13.4080 C   0  0  0  0  0  0  0  0  0  0  0  0
   18.0284  -21.2377  -14.3296 O   0  0  0  0  0  0  0  0  0  0  0  0
   18.3147  -21.3408  -15.7642 O   0  0  0  0  0  0  0  0  0  0  0  0
  2  1  1  0
  3  2  2  0
  4  2  1  0
  5  4  1  0
  6  5  1  0
  7  8  1  0
  7  6  1  0
  8 10  1  0
  8  9  1  6
 10 11  2  0
 13 12  1  0
 13 14  2  0
 15 16  1  0
 15 13  1  0
 17 16  1  0
 18 17  1  0
 19 18  1  1
 19 21  1  0
 20 10  1  0
 20 19  1  0
 21 22  2  0
 23 24  1  0
 23 21  1  0
 25 26  1  0
 25 24  1  0
 27 25  2  0
M  END
$$$$
