RRG.pdb
     RDKit          3D

 27 26  0  0  1  0  0  0  0  0999 V2000
   17.7234  -31.0266   -2.6809 N   0  0  0  0  0  0  0  0  0  0  0  0
   18.0413  -31.1124   -4.0557 C   0  0  0  0  0  0  0  0  0  0  0  0
   18.0427  -32.2934   -4.5974 N   0  0  0  0  0  0  0  0  0  0  0  0
   18.3537  -30.0145   -4.8684 N   0  0  0  0  0  0  0  0  0  0  0  0
   18.3481  -28.6199   -4.4041 C   0  0  0  0  0  0  0  0  0  0  0  0
   16.9391  -28.3182   -3.9565 C   0  0  0  0  0  0  0  0  0  0  0  0
   16.7826  -26.9138   -3.4486 C   0  0  0  0  0  0  0  0  0  0  0  0
   16.7748  -25.9280   -4.5859 C   0  0  2  0  0  0  0  0  0  0  0  0
   18.1272  -25.7271   -5.0599 N   0  0  0  0  0  0  0  0  0  0  0  0
   16.2488  -24.6329   -4.0380 C   0  0  0  0  0  0  0  0  0  0  0  0
   17.0486  -23.8705   -3.4086 O   0  0  0  0  0  0  0  0  0  0  0  0
   18.2625  -32.4682   -5.6021 N   0  0  0  0  0  0  0  0  0  0  0  0
    9.8270  -19.9778   -2.9868 C   0  0  0  0  0  0  0  0  0  0  0  0
   10.9885  -19.1273   -2.9619 N   0  0  0  0  0  0  0  0  0  0  0  0
   10.9861  -18.1891   -2.0686 N   0  0  0  0  0  0  0  0  0  0  0  0
   12.0456  -19.3358   -3.8660 C   0  0  0  0  0  0  0  0  0  0  0  0
   11.9526  -20.3811   -4.8476 C   0  0  0  0  0  0  0  0  0  0  0  0
   12.2430  -21.7351   -4.3267 C   0  0  0  0  0  0  0  0  0  0  0  0
   13.4978  -22.3994   -4.6956 C   0  0  1  0  0  0  0  0  0  0  0  0
   14.3158  -23.0861   -3.6894 N   0  0  0  0  0  0  0  0  0  0  0  0
   14.8981  -24.3123   -4.2397 C   0  0  0  0  0  0  0  0  0  0  0  0
   13.7785  -23.3196   -2.3401 O   0  0  0  0  0  0  0  0  0  0  0  0
   13.2884  -24.4282   -2.0093 N   0  0  0  0  0  0  0  0  0  0  0  0
   11.7314  -17.5087   -1.8959 C   0  0  0  0  0  0  0  0  0  0  0  0
   13.7739  -22.2957   -1.3435 C   0  0  0  0  0  0  0  0  0  0  0  0
   14.6944  -22.2757   -0.2595 O   0  0  0  0  0  0  0  0  0  0  0  0
   14.6120  -21.1771    0.7083 O   0  0  0  0  0  0  0  0  0  0  0  0
  2  1  1  0
  3  2  2  0
  4  2  1  0
  5  4  1  0
  6  5  1  0
  7  8  1  0
  7  6  1  0
  8 10  1  0
  8  9  1  1
 10 11  2  0
 13 12  1  0
 13 14  2  0
 15 16  1  0
 15 13  1  0
 17 16  1  0
 18 17  1  0
 19 18  1  6
 19 21  1  0
 20 10  1  0
 20 19  1  0
 21 22  2  0
 23 24  1  0
 23 21  1  0
 25 26  1  0
 25 24  1  0
 27 25  2  0
M  END
$$$$
