YVA.pdb
     RDKit          3D

 25 25  0  0  1  0  0  0  0  0999 V2000
   10.4396  -14.3377   31.3695 O   0  0  0  0  0  0  0  0  0  0  0  0
   10.2009  -14.7567   30.0558 C   0  0  0  0  0  0  0  0  0  0  0  0
    9.7978  -13.8737   29.0769 C   0  0  0  0  0  0  0  0  0  0  0  0
    9.5629  -14.2967   27.7760 C   0  0  0  0  0  0  0  0  0  0  0  0
    9.7233  -15.6217   27.4079 C   0  0  0  0  0  0  0  0  0  0  0  0
    9.4761  -16.0909   26.0197 C   0  0  0  0  0  0  0  0  0  0  0  0
    8.0010  -16.2782   25.7468 C   0  0  2  0  0  0  0  0  0  0  0  0
    7.4820  -17.3924   26.4755 N   0  0  0  0  0  0  0  0  0  0  0  0
    7.9084  -16.5290   24.2462 C   0  0  0  0  0  0  0  0  0  0  0  0
    7.4987  -17.6510   23.8902 O   0  0  0  0  0  0  0  0  0  0  0  0
   10.1277  -16.4937   28.4011 C   0  0  0  0  0  0  0  0  0  0  0  0
   10.3623  -16.0770   29.6955 C   0  0  0  0  0  0  0  0  0  0  0  0
    7.6838  -14.1888   19.9071 C   0  0  0  0  0  0  0  0  0  0  0  0
    7.9246  -14.0902   21.4170 C   0  0  1  0  0  0  0  0  0  0  0  0
    6.5308  -13.6729   21.9384 C   0  0  0  0  0  0  0  0  0  0  0  0
    8.2288  -15.4700   21.9598 C   0  0  2  0  0  0  0  0  0  0  0  0
    8.2840  -15.4977   23.3971 N   0  0  0  0  0  0  0  0  0  0  0  0
    9.3592  -16.1774   21.4268 C   0  0  0  0  0  0  0  0  0  0  0  0
   10.5289  -15.7210   21.7636 O   0  0  0  0  0  0  0  0  0  0  0  0
   10.5139  -19.4570   20.2310 C   0  0  0  0  0  0  0  0  0  0  0  0
   10.5964  -17.9460   20.1635 C   0  0  2  0  0  0  0  0  0  0  0  0
    9.3791  -17.3143   20.5837 N   0  0  0  0  0  0  0  0  0  0  0  0
   11.0499  -17.5015   18.8231 C   0  0  0  0  0  0  0  0  0  0  0  0
   12.1636  -17.8323   18.3429 O   0  0  0  0  0  0  0  0  0  0  0  0
   10.2504  -16.6899   18.0328 O   0  0  0  0  0  0  0  0  0  0  0  0
  2  1  1  0
  3  2  2  0
  4  3  1  0
  5 11  1  0
  5  4  2  0
  6  7  1  0
  6  5  1  0
  7  8  1  1
  9  7  1  0
 10  9  2  0
 11 12  2  0
 12  2  1  0
 14 16  1  0
 14 13  1  6
 15 14  1  0
 16 17  1  1
 17  9  1  0
 18 22  1  0
 18 16  1  0
 19 18  2  0
 21 20  1  6
 21 23  1  0
 21 22  1  0
 23 25  1  0
 24 23  2  0
M  END
$$$$
