YVA.pdb
     RDKit          3D

 25 25  0  0  1  0  0  0  0  0999 V2000
    5.7081  -10.6399   28.0831 O   0  0  0  0  0  0  0  0  0  0  0  0
    6.2197  -11.7968   27.4848 C   0  0  0  0  0  0  0  0  0  0  0  0
    5.4708  -12.5469   26.6031 C   0  0  0  0  0  0  0  0  0  0  0  0
    5.9850  -13.6933   26.0136 C   0  0  0  0  0  0  0  0  0  0  0  0
    7.2700  -14.1310   26.2862 C   0  0  0  0  0  0  0  0  0  0  0  0
    7.8356  -15.3560   25.6635 C   0  0  0  0  0  0  0  0  0  0  0  0
    6.7936  -16.1136   24.8724 C   0  0  2  0  0  0  0  0  0  0  0  0
    6.3016  -17.2328   25.6122 N   0  0  0  0  0  0  0  0  0  0  0  0
    7.5177  -16.5790   23.6145 C   0  0  0  0  0  0  0  0  0  0  0  0
    7.7952  -17.7921   23.5446 O   0  0  0  0  0  0  0  0  0  0  0  0
    8.0071  -13.3678   27.1720 C   0  0  0  0  0  0  0  0  0  0  0  0
    7.4995  -12.2274   27.7601 C   0  0  0  0  0  0  0  0  0  0  0  0
    6.5311  -14.4343   20.4906 C   0  0  0  0  0  0  0  0  0  0  0  0
    8.0292  -14.7330   20.3728 C   0  0  1  0  0  0  0  0  0  0  0  0
    8.6604  -13.4168   20.8808 C   0  0  0  0  0  0  0  0  0  0  0  0
    8.3927  -15.8294   21.3509 C   0  0  2  0  0  0  0  0  0  0  0  0
    7.8106  -15.6249   22.6505 N   0  0  0  0  0  0  0  0  0  0  0  0
    9.7781  -16.1772   21.4998 C   0  0  0  0  0  0  0  0  0  0  0  0
   10.3697  -16.6333   20.4358 O   0  0  0  0  0  0  0  0  0  0  0  0
   12.8868  -15.3763   23.1607 C   0  0  0  0  0  0  0  0  0  0  0  0
   11.9790  -16.4758   22.6492 C   0  0  2  0  0  0  0  0  0  0  0  0
   10.5983  -16.0874   22.6499 N   0  0  0  0  0  0  0  0  0  0  0  0
   12.2267  -17.7452   23.3754 C   0  0  0  0  0  0  0  0  0  0  0  0
   11.3137  -18.3727   23.9695 O   0  0  0  0  0  0  0  0  0  0  0  0
   13.4963  -18.3000   23.4288 O   0  0  0  0  0  0  0  0  0  0  0  0
  2  1  1  0
  3  2  2  0
  4  3  1  0
  5 11  1  0
  5  4  2  0
  6  7  1  0
  6  5  1  0
  7  8  1  1
  9  7  1  0
 10  9  2  0
 11 12  2  0
 12  2  1  0
 14 16  1  0
 14 13  1  1
 15 14  1  0
 16 17  1  1
 17  9  1  0
 18 22  1  0
 18 16  1  0
 19 18  2  0
 21 20  1  1
 21 23  1  0
 21 22  1  0
 23 25  1  0
 24 23  2  0
M  END
$$$$
