YVA.pdb
     RDKit          3D

 25 25  0  0  1  0  0  0  0  0999 V2000
   11.3406  -20.6990   30.5308 O   0  0  0  0  0  0  0  0  0  0  0  0
   10.7097  -20.0194   29.4828 C   0  0  0  0  0  0  0  0  0  0  0  0
    9.3445  -19.8285   29.4627 C   0  0  0  0  0  0  0  0  0  0  0  0
    8.7258  -19.1534   28.4197 C   0  0  0  0  0  0  0  0  0  0  0  0
    9.4531  -18.6442   27.3573 C   0  0  0  0  0  0  0  0  0  0  0  0
    8.8063  -17.9190   26.2331 C   0  0  0  0  0  0  0  0  0  0  0  0
    7.3027  -17.8774   26.3854 C   0  0  2  0  0  0  0  0  0  0  0  0
    6.7159  -19.1293   26.0243 N   0  0  0  0  0  0  0  0  0  0  0  0
    6.8426  -16.7763   25.4373 C   0  0  0  0  0  0  0  0  0  0  0  0
    6.0690  -17.1141   24.5203 O   0  0  0  0  0  0  0  0  0  0  0  0
   10.8202  -18.8443   27.3930 C   0  0  0  0  0  0  0  0  0  0  0  0
   11.4391  -19.5149   28.4281 C   0  0  0  0  0  0  0  0  0  0  0  0
    6.8494  -11.8147   24.9269 C   0  0  0  0  0  0  0  0  0  0  0  0
    7.1062  -13.0486   25.7981 C   0  0  1  0  0  0  0  0  0  0  0  0
    5.8908  -13.0270   26.7526 C   0  0  0  0  0  0  0  0  0  0  0  0
    6.9995  -14.2905   24.9395 C   0  0  2  0  0  0  0  0  0  0  0  0
    7.3158  -15.4918   25.6650 N   0  0  0  0  0  0  0  0  0  0  0  0
    7.6810  -14.3050   23.6755 C   0  0  0  0  0  0  0  0  0  0  0  0
    8.9650  -14.5029   23.7215 O   0  0  0  0  0  0  0  0  0  0  0  0
    7.1164  -14.1149   19.9257 C   0  0  0  0  0  0  0  0  0  0  0  0
    7.9363  -14.2865   21.1877 C   0  0  2  0  0  0  0  0  0  0  0  0
    7.1462  -14.1381   22.3756 N   0  0  0  0  0  0  0  0  0  0  0  0
    9.1278  -13.4033   21.1674 C   0  0  0  0  0  0  0  0  0  0  0  0
   10.0381  -13.5169   20.3079 O   0  0  0  0  0  0  0  0  0  0  0  0
    9.2878  -12.4002   22.1111 O   0  0  0  0  0  0  0  0  0  0  0  0
  2  1  1  0
  3  2  2  0
  4  3  1  0
  5 11  1  0
  5  4  2  0
  6  7  1  0
  6  5  1  0
  7  8  1  6
  9  7  1  0
 10  9  2  0
 11 12  2  0
 12  2  1  0
 14 16  1  0
 14 13  1  6
 15 14  1  0
 16 17  1  1
 17  9  1  0
 18 22  1  0
 18 16  1  0
 19 18  2  0
 21 20  1  6
 21 23  1  0
 21 22  1  0
 23 25  1  0
 24 23  2  0
M  END
$$$$
