YVA.pdb
     RDKit          3D

 25 25  0  0  1  0  0  0  0  0999 V2000
    0.1508  -20.5827   20.9237 O   0  0  0  0  0  0  0  0  0  0  0  0
    1.3915  -19.9718   21.1377 C   0  0  0  0  0  0  0  0  0  0  0  0
    1.7034  -18.7518   20.5764 C   0  0  0  0  0  0  0  0  0  0  0  0
    2.9362  -18.1521   20.7931 C   0  0  0  0  0  0  0  0  0  0  0  0
    3.9028  -18.7534   21.5812 C   0  0  0  0  0  0  0  0  0  0  0  0
    5.2273  -18.1247   21.8233 C   0  0  0  0  0  0  0  0  0  0  0  0
    5.8849  -17.6906   20.5331 C   0  0  2  0  0  0  0  0  0  0  0  0
    5.9727  -18.7786   19.6109 N   0  0  0  0  0  0  0  0  0  0  0  0
    7.2760  -17.2198   20.9408 C   0  0  0  0  0  0  0  0  0  0  0  0
    8.2131  -18.0222   20.7633 O   0  0  0  0  0  0  0  0  0  0  0  0
    3.5740  -19.9757   22.1361 C   0  0  0  0  0  0  0  0  0  0  0  0
    2.3496  -20.5753   21.9230 C   0  0  0  0  0  0  0  0  0  0  0  0
    7.7467  -13.3760   20.4934 C   0  0  0  0  0  0  0  0  0  0  0  0
    8.4504  -13.7519   21.8015 C   0  0  1  0  0  0  0  0  0  0  0  0
    7.4089  -13.3258   22.8609 C   0  0  0  0  0  0  0  0  0  0  0  0
    8.5931  -15.2571   21.8708 C   0  0  2  0  0  0  0  0  0  0  0  0
    7.3930  -15.9441   21.4742 N   0  0  0  0  0  0  0  0  0  0  0  0
    9.0948  -15.8384   23.0844 C   0  0  0  0  0  0  0  0  0  0  0  0
    8.2258  -16.4698   23.8167 O   0  0  0  0  0  0  0  0  0  0  0  0
   10.9178  -18.2206   23.4912 C   0  0  0  0  0  0  0  0  0  0  0  0
   10.9848  -16.9395   24.2967 C   0  0  2  0  0  0  0  0  0  0  0  0
   10.4141  -15.8251   23.5970 N   0  0  0  0  0  0  0  0  0  0  0  0
   12.3678  -16.6842   24.7682 C   0  0  0  0  0  0  0  0  0  0  0  0
   13.1296  -15.8551   24.2093 O   0  0  0  0  0  0  0  0  0  0  0  0
   12.8842  -17.3611   25.8625 O   0  0  0  0  0  0  0  0  0  0  0  0
  2  1  1  0
  3  2  2  0
  4  3  1  0
  5 11  1  0
  5  4  2  0
  6  7  1  0
  6  5  1  0
  7  8  1  6
  9  7  1  0
 10  9  2  0
 11 12  2  0
 12  2  1  0
 14 16  1  0
 14 13  1  6
 15 14  1  0
 16 17  1  1
 17  9  1  0
 18 22  1  0
 18 16  1  0
 19 18  2  0
 21 20  1  6
 21 23  1  0
 21 22  1  0
 23 25  1  0
 24 23  2  0
M  END
$$$$
