YVA.pdb
     RDKit          3D

 25 25  0  0  1  0  0  0  0  0999 V2000
   10.6799  -14.3394   30.7726 O   0  0  0  0  0  0  0  0  0  0  0  0
   10.3831  -14.6605   29.4433 C   0  0  0  0  0  0  0  0  0  0  0  0
    9.9276  -13.7104   28.5541 C   0  0  0  0  0  0  0  0  0  0  0  0
    9.6352  -14.0364   27.2371 C   0  0  0  0  0  0  0  0  0  0  0  0
    9.7887  -15.3278   26.7620 C   0  0  0  0  0  0  0  0  0  0  0  0
    9.4804  -15.6933   25.3550 C   0  0  0  0  0  0  0  0  0  0  0  0
    7.9925  -15.6818   25.0871 C   0  0  2  0  0  0  0  0  0  0  0  0
    7.3196  -16.6550   25.8884 N   0  0  0  0  0  0  0  0  0  0  0  0
    7.8577  -16.0201   23.6071 C   0  0  0  0  0  0  0  0  0  0  0  0
    7.4111  -17.1501   23.3294 O   0  0  0  0  0  0  0  0  0  0  0  0
   10.2461  -16.2678   27.6661 C   0  0  0  0  0  0  0  0  0  0  0  0
   10.5379  -15.9477   28.9763 C   0  0  0  0  0  0  0  0  0  0  0  0
    7.7055  -14.0167   19.0999 C   0  0  0  0  0  0  0  0  0  0  0  0
    7.9571  -13.7991   20.5955 C   0  0  1  0  0  0  0  0  0  0  0  0
    6.5808  -13.2920   21.0828 C   0  0  0  0  0  0  0  0  0  0  0  0
    8.2173  -15.1375   21.2526 C   0  0  2  0  0  0  0  0  0  0  0  0
    8.2392  -15.0524   22.6885 N   0  0  0  0  0  0  0  0  0  0  0  0
    9.3431  -15.9085   20.8048 C   0  0  0  0  0  0  0  0  0  0  0  0
   10.5140  -15.4655   21.1550 O   0  0  0  0  0  0  0  0  0  0  0  0
   11.4296  -16.7865   18.7642 C   0  0  0  0  0  0  0  0  0  0  0  0
   10.5713  -17.7193   19.5935 C   0  0  2  0  0  0  0  0  0  0  0  0
    9.3570  -17.0957   20.0340 N   0  0  0  0  0  0  0  0  0  0  0  0
   11.3566  -18.3123   20.7033 C   0  0  0  0  0  0  0  0  0  0  0  0
   11.0085  -18.2102   21.9069 O   0  0  0  0  0  0  0  0  0  0  0  0
   12.5255  -19.0149   20.4535 O   0  0  0  0  0  0  0  0  0  0  0  0
  2  1  1  0
  3  2  2  0
  4  3  1  0
  5 11  1  0
  5  4  2  0
  6  7  1  0
  6  5  1  0
  7  8  1  1
  9  7  1  0
 10  9  2  0
 11 12  2  0
 12  2  1  0
 14 16  1  0
 14 13  1  6
 15 14  1  0
 16 17  1  1
 17  9  1  0
 18 22  1  0
 18 16  1  0
 19 18  2  0
 21 20  1  1
 21 23  1  0
 21 22  1  0
 23 25  1  0
 24 23  2  0
M  END
$$$$
