YVA.pdb
     RDKit          3D

 25 25  0  0  1  0  0  0  0  0999 V2000
    5.9875  -10.4955   28.0101 O   0  0  0  0  0  0  0  0  0  0  0  0
    6.4333  -11.6708   27.3952 C   0  0  0  0  0  0  0  0  0  0  0  0
    7.4503  -12.4288   27.9354 C   0  0  0  0  0  0  0  0  0  0  0  0
    7.8872  -13.5935   27.3198 C   0  0  0  0  0  0  0  0  0  0  0  0
    7.3204  -14.0420   26.1389 C   0  0  0  0  0  0  0  0  0  0  0  0
    7.7763  -15.2867   25.4672 C   0  0  0  0  0  0  0  0  0  0  0  0
    6.6555  -15.9516   24.7007 C   0  0  2  0  0  0  0  0  0  0  0  0
    6.1604  -17.0930   25.4034 N   0  0  0  0  0  0  0  0  0  0  0  0
    7.2804  -16.3680   23.3743 C   0  0  0  0  0  0  0  0  0  0  0  0
    7.3531  -17.5918   23.1494 O   0  0  0  0  0  0  0  0  0  0  0  0
    6.3023  -13.2707   25.6109 C   0  0  0  0  0  0  0  0  0  0  0  0
    5.8651  -12.1122   26.2199 C   0  0  0  0  0  0  0  0  0  0  0  0
    8.7547  -14.4858   18.9965 C   0  0  0  0  0  0  0  0  0  0  0  0
    8.1417  -14.2438   20.3797 C   0  0  1  0  0  0  0  0  0  0  0  0
    6.6427  -14.0770   20.0424 C   0  0  0  0  0  0  0  0  0  0  0  0
    8.2927  -15.4980   21.2133 C   0  0  2  0  0  0  0  0  0  0  0  0
    7.7174  -15.3616   22.5248 N   0  0  0  0  0  0  0  0  0  0  0  0
    9.5972  -16.0882   21.3253 C   0  0  0  0  0  0  0  0  0  0  0  0
   10.4657  -15.4241   22.0287 O   0  0  0  0  0  0  0  0  0  0  0  0
   11.6266  -19.1633   20.4160 C   0  0  0  0  0  0  0  0  0  0  0  0
   11.4106  -17.7766   20.9862 C   0  0  2  0  0  0  0  0  0  0  0  0
   10.0726  -17.3038   20.7778 N   0  0  0  0  0  0  0  0  0  0  0  0
   12.4441  -16.8352   20.4907 C   0  0  0  0  0  0  0  0  0  0  0  0
   12.3409  -16.2371   19.3899 O   0  0  0  0  0  0  0  0  0  0  0  0
   13.5846  -16.5728   21.2343 O   0  0  0  0  0  0  0  0  0  0  0  0
  2  1  1  0
  3  2  2  0
  4  3  1  0
  5 11  1  0
  5  4  2  0
  6  7  1  0
  6  5  1  0
  7  8  1  1
  9  7  1  0
 10  9  2  0
 11 12  2  0
 12  2  1  0
 14 16  1  0
 14 13  1  6
 15 14  1  0
 16 17  1  1
 17  9  1  0
 18 22  1  0
 18 16  1  0
 19 18  2  0
 21 20  1  6
 21 23  1  0
 21 22  1  0
 23 25  1  0
 24 23  2  0
M  END
$$$$
