YVA.pdb
     RDKit          3D

 25 25  0  0  1  0  0  0  0  0999 V2000
    5.7686  -10.8282   28.8879 O   0  0  0  0  0  0  0  0  0  0  0  0
    6.2533  -11.7287   27.9326 C   0  0  0  0  0  0  0  0  0  0  0  0
    5.7930  -11.7219   26.6331 C   0  0  0  0  0  0  0  0  0  0  0  0
    6.2786  -12.6182   25.6912 C   0  0  0  0  0  0  0  0  0  0  0  0
    7.2442  -13.5554   26.0171 C   0  0  0  0  0  0  0  0  0  0  0  0
    7.7747  -14.5217   25.0206 C   0  0  0  0  0  0  0  0  0  0  0  0
    6.6720  -15.3535   24.4059 C   0  0  2  0  0  0  0  0  0  0  0  0
    6.3116  -16.4400   25.2612 N   0  0  0  0  0  0  0  0  0  0  0  0
    7.2552  -15.8725   23.0968 C   0  0  0  0  0  0  0  0  0  0  0  0
    7.5631  -17.0797   23.0606 O   0  0  0  0  0  0  0  0  0  0  0  0
    7.6947  -13.5486   27.3237 C   0  0  0  0  0  0  0  0  0  0  0  0
    7.2145  -12.6592   28.2632 C   0  0  0  0  0  0  0  0  0  0  0  0
    8.4150  -12.8843   20.1338 C   0  0  0  0  0  0  0  0  0  0  0  0
    7.5453  -14.0905   19.7647 C   0  0  1  0  0  0  0  0  0  0  0  0
    8.0981  -14.4716   18.3726 C   0  0  0  0  0  0  0  0  0  0  0  0
    7.8521  -15.2294   20.7132 C   0  0  2  0  0  0  0  0  0  0  0  0
    7.3981  -14.9691   22.0532 N   0  0  0  0  0  0  0  0  0  0  0  0
    9.1949  -15.7369   20.7561 C   0  0  0  0  0  0  0  0  0  0  0  0
   10.0354  -15.0663   21.4867 O   0  0  0  0  0  0  0  0  0  0  0  0
   11.2135  -18.7777   20.5663 C   0  0  0  0  0  0  0  0  0  0  0  0
   11.0964  -17.2930   20.2900 C   0  0  2  0  0  0  0  0  0  0  0  0
    9.7351  -16.8769   20.1140 N   0  0  0  0  0  0  0  0  0  0  0  0
   11.9767  -16.8945   19.1647 C   0  0  0  0  0  0  0  0  0  0  0  0
   13.2240  -17.0470   19.1962 O   0  0  0  0  0  0  0  0  0  0  0  0
   11.4502  -16.3284   18.0137 O   0  0  0  0  0  0  0  0  0  0  0  0
  2  1  1  0
  3  2  2  0
  4  3  1  0
  5 11  1  0
  5  4  2  0
  6  7  1  0
  6  5  1  0
  7  8  1  1
  9  7  1  0
 10  9  2  0
 11 12  2  0
 12  2  1  0
 14 16  1  0
 14 13  1  1
 15 14  1  0
 16 17  1  1
 17  9  1  0
 18 22  1  0
 18 16  1  0
 19 18  2  0
 21 20  1  6
 21 23  1  0
 21 22  1  0
 23 25  1  0
 24 23  2  0
M  END
$$$$
