YVA.pdb
     RDKit          3D

 25 25  0  0  1  0  0  0  0  0999 V2000
    6.5461  -10.6521   27.8242 O   0  0  0  0  0  0  0  0  0  0  0  0
    6.8424  -11.9187   27.3083 C   0  0  0  0  0  0  0  0  0  0  0  0
    5.9250  -12.6292   26.5639 C   0  0  0  0  0  0  0  0  0  0  0  0
    6.2262  -13.8851   26.0555 C   0  0  0  0  0  0  0  0  0  0  0  0
    7.4591  -14.4758   26.2745 C   0  0  0  0  0  0  0  0  0  0  0  0
    7.7975  -15.8193   25.7372 C   0  0  0  0  0  0  0  0  0  0  0  0
    6.6801  -16.3795   24.8869 C   0  0  2  0  0  0  0  0  0  0  0  0
    6.1716  -17.5936   25.4431 N   0  0  0  0  0  0  0  0  0  0  0  0
    7.3149  -16.6381   23.5254 C   0  0  0  0  0  0  0  0  0  0  0  0
    7.4471  -17.8302   23.1867 O   0  0  0  0  0  0  0  0  0  0  0  0
    8.3670  -13.7502   27.0225 C   0  0  0  0  0  0  0  0  0  0  0  0
    8.0714  -12.5014   27.5297 C   0  0  0  0  0  0  0  0  0  0  0  0
    8.6772  -14.3520   19.3210 C   0  0  0  0  0  0  0  0  0  0  0  0
    8.0648  -14.2382   20.7208 C   0  0  1  0  0  0  0  0  0  0  0  0
    6.5530  -14.1722   20.4061 C   0  0  0  0  0  0  0  0  0  0  0  0
    8.3249  -15.5217   21.4797 C   0  0  2  0  0  0  0  0  0  0  0  0
    7.6942  -15.5359   22.7726 N   0  0  0  0  0  0  0  0  0  0  0  0
    9.6819  -15.9741   21.6075 C   0  0  0  0  0  0  0  0  0  0  0  0
   10.4765  -15.2085   22.2948 O   0  0  0  0  0  0  0  0  0  0  0  0
   12.5210  -16.3705   20.4799 C   0  0  0  0  0  0  0  0  0  0  0  0
   11.6855  -17.4126   21.1943 C   0  0  2  0  0  0  0  0  0  0  0  0
   10.2795  -17.1487   21.0908 N   0  0  0  0  0  0  0  0  0  0  0  0
   12.1432  -17.5870   22.5944 C   0  0  0  0  0  0  0  0  0  0  0  0
   11.3697  -17.4660   23.5779 O   0  0  0  0  0  0  0  0  0  0  0  0
   13.4646  -17.8957   22.8791 O   0  0  0  0  0  0  0  0  0  0  0  0
  2  1  1  0
  3  2  2  0
  4  3  1  0
  5 11  1  0
  5  4  2  0
  6  7  1  0
  6  5  1  0
  7  8  1  1
  9  7  1  0
 10  9  2  0
 11 12  2  0
 12  2  1  0
 14 16  1  0
 14 13  1  6
 15 14  1  0
 16 17  1  1
 17  9  1  0
 18 22  1  0
 18 16  1  0
 19 18  2  0
 21 20  1  1
 21 23  1  0
 21 22  1  0
 23 25  1  0
 24 23  2  0
M  END
$$$$
