YVA.pdb
     RDKit          3D

 25 25  0  0  1  0  0  0  0  0999 V2000
    6.0302  -10.5660   28.7825 O   0  0  0  0  0  0  0  0  0  0  0  0
    6.4815  -11.5394   27.8841 C   0  0  0  0  0  0  0  0  0  0  0  0
    7.5158  -12.3935   28.2026 C   0  0  0  0  0  0  0  0  0  0  0  0
    7.9580  -13.3566   27.3063 C   0  0  0  0  0  0  0  0  0  0  0  0
    7.3794  -13.4995   26.0566 C   0  0  0  0  0  0  0  0  0  0  0  0
    7.8408  -14.5254   25.0856 C   0  0  0  0  0  0  0  0  0  0  0  0
    6.6798  -15.2522   24.4456 C   0  0  2  0  0  0  0  0  0  0  0  0
    6.0699  -16.1570   25.3681 N   0  0  0  0  0  0  0  0  0  0  0  0
    7.2905  -16.0119   23.2738 C   0  0  0  0  0  0  0  0  0  0  0  0
    7.3675  -17.2506   23.3888 O   0  0  0  0  0  0  0  0  0  0  0  0
    6.3441  -12.6355   25.7534 C   0  0  0  0  0  0  0  0  0  0  0  0
    5.9015  -11.6767   26.6416 C   0  0  0  0  0  0  0  0  0  0  0  0
    6.5930  -14.3332   19.8206 C   0  0  0  0  0  0  0  0  0  0  0  0
    8.0466  -14.8163   19.7875 C   0  0  1  0  0  0  0  0  0  0  0  0
    8.8255  -13.5120   20.0721 C   0  0  0  0  0  0  0  0  0  0  0  0
    8.2805  -15.7588   20.9484 C   0  0  2  0  0  0  0  0  0  0  0  0
    7.7109  -15.2732   22.1769 N   0  0  0  0  0  0  0  0  0  0  0  0
    9.6189  -16.2180   21.1936 C   0  0  0  0  0  0  0  0  0  0  0  0
   10.3335  -15.4900   21.9995 O   0  0  0  0  0  0  0  0  0  0  0  0
   11.9258  -19.1661   20.8396 C   0  0  0  0  0  0  0  0  0  0  0  0
   11.6325  -17.6891   21.0038 C   0  0  2  0  0  0  0  0  0  0  0  0
   10.2732  -17.3640   20.6815 N   0  0  0  0  0  0  0  0  0  0  0  0
   12.6190  -16.8691   20.2591 C   0  0  0  0  0  0  0  0  0  0  0  0
   12.3814  -16.3975   19.1183 O   0  0  0  0  0  0  0  0  0  0  0  0
   13.8634  -16.5851   20.8005 O   0  0  0  0  0  0  0  0  0  0  0  0
  2  1  1  0
  3  2  2  0
  4  3  1  0
  5 11  1  0
  5  4  2  0
  6  7  1  0
  6  5  1  0
  7  8  1  1
  9  7  1  0
 10  9  2  0
 11 12  2  0
 12  2  1  0
 14 16  1  0
 14 13  1  1
 15 14  1  0
 16 17  1  1
 17  9  1  0
 18 22  1  0
 18 16  1  0
 19 18  2  0
 21 20  1  6
 21 23  1  0
 21 22  1  0
 23 25  1  0
 24 23  2  0
M  END
$$$$
