YVA.pdb
     RDKit          3D

 25 25  0  0  1  0  0  0  0  0999 V2000
    6.6018  -10.4610   27.9540 O   0  0  0  0  0  0  0  0  0  0  0  0
    6.8465  -11.7557   27.4826 C   0  0  0  0  0  0  0  0  0  0  0  0
    5.8528  -12.5133   26.9002 C   0  0  0  0  0  0  0  0  0  0  0  0
    6.1031  -13.7968   26.4351 C   0  0  0  0  0  0  0  0  0  0  0  0
    7.3598  -14.3690   26.5364 C   0  0  0  0  0  0  0  0  0  0  0  0
    7.6444  -15.7416   26.0433 C   0  0  0  0  0  0  0  0  0  0  0  0
    6.5738  -16.2280   25.0932 C   0  0  2  0  0  0  0  0  0  0  0  0
    5.9374  -17.4043   25.5963 N   0  0  0  0  0  0  0  0  0  0  0  0
    7.3106  -16.5311   23.7938 C   0  0  0  0  0  0  0  0  0  0  0  0
    7.5619  -17.7292   23.5590 O   0  0  0  0  0  0  0  0  0  0  0  0
    8.3443  -13.5962   27.1226 C   0  0  0  0  0  0  0  0  0  0  0  0
    8.0995  -12.3198   27.5863 C   0  0  0  0  0  0  0  0  0  0  0  0
    8.9164  -14.3725   19.5887 C   0  0  0  0  0  0  0  0  0  0  0  0
    8.1708  -14.2278   20.9194 C   0  0  1  0  0  0  0  0  0  0  0  0
    6.6955  -14.1973   20.4597 C   0  0  0  0  0  0  0  0  0  0  0  0
    8.3751  -15.4836   21.7393 C   0  0  2  0  0  0  0  0  0  0  0  0
    7.6432  -15.4594   22.9775 N   0  0  0  0  0  0  0  0  0  0  0  0
    9.7196  -15.9217   21.9901 C   0  0  0  0  0  0  0  0  0  0  0  0
   10.4050  -15.2074   22.8327 O   0  0  0  0  0  0  0  0  0  0  0  0
   12.1620  -18.7436   21.4000 C   0  0  0  0  0  0  0  0  0  0  0  0
   11.7783  -17.3222   21.7563 C   0  0  2  0  0  0  0  0  0  0  0  0
   10.4073  -17.0342   21.4486 N   0  0  0  0  0  0  0  0  0  0  0  0
   12.7259  -16.3530   21.1540 C   0  0  0  0  0  0  0  0  0  0  0  0
   12.5675  -15.8822   19.9992 O   0  0  0  0  0  0  0  0  0  0  0  0
   13.8428  -15.9201   21.8522 O   0  0  0  0  0  0  0  0  0  0  0  0
  2  1  1  0
  3  2  2  0
  4  3  1  0
  5 11  1  0
  5  4  2  0
  6  7  1  0
  6  5  1  0
  7  8  1  1
  9  7  1  0
 10  9  2  0
 11 12  2  0
 12  2  1  0
 14 16  1  0
 14 13  1  6
 15 14  1  0
 16 17  1  1
 17  9  1  0
 18 22  1  0
 18 16  1  0
 19 18  2  0
 21 20  1  6
 21 23  1  0
 21 22  1  0
 23 25  1  0
 24 23  2  0
M  END
$$$$
