YVA.pdb
     RDKit          3D

 25 25  0  0  1  0  0  0  0  0999 V2000
    2.2747  -23.3217   24.3670 O   0  0  0  0  0  0  0  0  0  0  0  0
    3.3422  -22.4562   24.1029 C   0  0  0  0  0  0  0  0  0  0  0  0
    4.5733  -22.6229   24.7005 C   0  0  0  0  0  0  0  0  0  0  0  0
    5.6275  -21.7603   24.4336 C   0  0  0  0  0  0  0  0  0  0  0  0
    5.4865  -20.6978   23.5571 C   0  0  0  0  0  0  0  0  0  0  0  0
    6.6049  -19.7655   23.2604 C   0  0  0  0  0  0  0  0  0  0  0  0
    6.5454  -19.2548   21.8387 C   0  0  2  0  0  0  0  0  0  0  0  0
    6.8526  -20.2939   20.9072 N   0  0  0  0  0  0  0  0  0  0  0  0
    7.5936  -18.1500   21.7745 C   0  0  0  0  0  0  0  0  0  0  0  0
    8.7096  -18.4631   21.3161 O   0  0  0  0  0  0  0  0  0  0  0  0
    4.2462  -20.5450   22.9668 C   0  0  0  0  0  0  0  0  0  0  0  0
    3.1957  -21.4004   23.2295 C   0  0  0  0  0  0  0  0  0  0  0  0
    8.2242  -13.2495   22.0740 C   0  0  0  0  0  0  0  0  0  0  0  0
    7.2569  -14.4366   22.1222 C   0  0  1  0  0  0  0  0  0  0  0  0
    6.6908  -14.4488   20.6841 C   0  0  0  0  0  0  0  0  0  0  0  0
    8.0487  -15.7113   22.3197 C   0  0  2  0  0  0  0  0  0  0  0  0
    7.2291  -16.8900   22.2273 N   0  0  0  0  0  0  0  0  0  0  0  0
    8.8993  -15.8129   23.4724 C   0  0  0  0  0  0  0  0  0  0  0  0
    8.3309  -15.5994   24.6219 O   0  0  0  0  0  0  0  0  0  0  0  0
   12.0145  -17.3782   24.7222 C   0  0  0  0  0  0  0  0  0  0  0  0
   10.9863  -16.2670   24.7734 C   0  0  2  0  0  0  0  0  0  0  0  0
   10.2796  -16.1206   23.5339 N   0  0  0  0  0  0  0  0  0  0  0  0
   11.5994  -15.0020   25.2465 C   0  0  0  0  0  0  0  0  0  0  0  0
   11.7927  -14.0195   24.4866 O   0  0  0  0  0  0  0  0  0  0  0  0
   11.9903  -14.8499   26.5681 O   0  0  0  0  0  0  0  0  0  0  0  0
  2  1  1  0
  3  2  2  0
  4  3  1  0
  5 11  1  0
  5  4  2  0
  6  7  1  0
  6  5  1  0
  7  8  1  6
  9  7  1  0
 10  9  2  0
 11 12  2  0
 12  2  1  0
 14 16  1  0
 14 13  1  6
 15 14  1  0
 16 17  1  1
 17  9  1  0
 18 22  1  0
 18 16  1  0
 19 18  2  0
 21 20  1  6
 21 23  1  0
 21 22  1  0
 23 25  1  0
 24 23  2  0
M  END
$$$$
