YVA.pdb
     RDKit          3D

 25 25  0  0  1  0  0  0  0  0999 V2000
    5.9879  -10.5971   27.7120 O   0  0  0  0  0  0  0  0  0  0  0  0
    6.4189  -11.8973   27.4258 C   0  0  0  0  0  0  0  0  0  0  0  0
    7.7192  -12.2949   27.6533 C   0  0  0  0  0  0  0  0  0  0  0  0
    8.1393  -13.5863   27.3669 C   0  0  0  0  0  0  0  0  0  0  0  0
    7.2710  -14.5279   26.8412 C   0  0  0  0  0  0  0  0  0  0  0  0
    7.7047  -15.9145   26.5291 C   0  0  0  0  0  0  0  0  0  0  0  0
    6.7880  -16.5747   25.5244 C   0  0  2  0  0  0  0  0  0  0  0  0
    6.2898  -17.8174   26.0237 N   0  0  0  0  0  0  0  0  0  0  0  0
    7.6554  -16.8013   24.2917 C   0  0  0  0  0  0  0  0  0  0  0  0
    8.1684  -17.9305   24.1679 O   0  0  0  0  0  0  0  0  0  0  0  0
    5.9714  -14.1131   26.6192 C   0  0  0  0  0  0  0  0  0  0  0  0
    5.5498  -12.8301   26.9027 C   0  0  0  0  0  0  0  0  0  0  0  0
    9.0654  -14.5696   20.0429 C   0  0  0  0  0  0  0  0  0  0  0  0
    8.2881  -14.4754   21.3599 C   0  0  1  0  0  0  0  0  0  0  0  0
    6.8229  -14.5605   20.8755 C   0  0  0  0  0  0  0  0  0  0  0  0
    8.5740  -15.7074   22.1914 C   0  0  2  0  0  0  0  0  0  0  0  0
    7.8068  -15.7423   23.4079 N   0  0  0  0  0  0  0  0  0  0  0  0
    9.9428  -16.0296   22.4829 C   0  0  0  0  0  0  0  0  0  0  0  0
   10.5830  -15.1790   23.2291 O   0  0  0  0  0  0  0  0  0  0  0  0
   12.5445  -18.7607   22.1885 C   0  0  0  0  0  0  0  0  0  0  0  0
   12.0686  -17.3463   22.4483 C   0  0  2  0  0  0  0  0  0  0  0  0
   10.6975  -17.1549   22.0734 N   0  0  0  0  0  0  0  0  0  0  0  0
   12.9849  -16.3587   21.8276 C   0  0  0  0  0  0  0  0  0  0  0  0
   13.9303  -15.8239   22.4603 O   0  0  0  0  0  0  0  0  0  0  0  0
   12.8327  -15.9797   20.5026 O   0  0  0  0  0  0  0  0  0  0  0  0
  2  1  1  0
  3  2  2  0
  4  3  1  0
  5 11  1  0
  5  4  2  0
  6  7  1  0
  6  5  1  0
  7  8  1  1
  9  7  1  0
 10  9  2  0
 11 12  2  0
 12  2  1  0
 14 16  1  0
 14 13  1  6
 15 14  1  0
 16 17  1  1
 17  9  1  0
 18 22  1  0
 18 16  1  0
 19 18  2  0
 21 20  1  6
 21 23  1  0
 21 22  1  0
 23 25  1  0
 24 23  2  0
M  END
$$$$
