YYV.pdb
     RDKit          3D

 32 33  0  0  1  0  0  0  0  0999 V2000
   23.0246  -16.8523  -15.0305 O   0  0  0  0  0  0  0  0  0  0  0  0
   22.3934  -15.7004  -15.4478 C   0  0  0  0  0  0  0  0  0  0  0  0
   22.7864  -14.4741  -14.9084 C   0  0  0  0  0  0  0  0  0  0  0  0
   22.1627  -13.2917  -15.3144 C   0  0  0  0  0  0  0  0  0  0  0  0
   21.1578  -13.3408  -16.2497 C   0  0  0  0  0  0  0  0  0  0  0  0
   20.4715  -12.1186  -16.7078 C   0  0  0  0  0  0  0  0  0  0  0  0
   19.3497  -11.8336  -15.7322 C   0  0  2  0  0  0  0  0  0  0  0  0
   18.3604  -12.8807  -15.8897 N   0  0  0  0  0  0  0  0  0  0  0  0
   18.7460  -10.4878  -15.9563 C   0  0  0  0  0  0  0  0  0  0  0  0
   17.6783  -10.3560  -16.6081 O   0  0  0  0  0  0  0  0  0  0  0  0
   20.7955  -14.5635  -16.7601 C   0  0  0  0  0  0  0  0  0  0  0  0
   21.3852  -15.7395  -16.3846 C   0  0  0  0  0  0  0  0  0  0  0  0
   13.6189   -9.3586  -18.5382 O   0  0  0  0  0  0  0  0  0  0  0  0
   14.5840   -9.0282  -17.6177 C   0  0  0  0  0  0  0  0  0  0  0  0
   15.2083   -7.7855  -17.6741 C   0  0  0  0  0  0  0  0  0  0  0  0
   16.1764   -7.4568  -16.7492 C   0  0  0  0  0  0  0  0  0  0  0  0
   16.4979   -8.3813  -15.7872 C   0  0  0  0  0  0  0  0  0  0  0  0
   17.5399   -8.0378  -14.7850 C   0  0  0  0  0  0  0  0  0  0  0  0
   18.8738   -8.0189  -15.4948 C   0  0  2  0  0  0  0  0  0  0  0  0
   19.4150   -9.3610  -15.4105 N   0  0  0  0  0  0  0  0  0  0  0  0
   19.8473   -7.1143  -14.8388 C   0  0  0  0  0  0  0  0  0  0  0  0
   20.2957   -7.3404  -13.6868 O   0  0  0  0  0  0  0  0  0  0  0  0
   15.8857   -9.6176  -15.7205 C   0  0  0  0  0  0  0  0  0  0  0  0
   14.9326   -9.9326  -16.6366 C   0  0  0  0  0  0  0  0  0  0  0  0
   22.2542   -4.2909  -17.0631 C   0  0  0  0  0  0  0  0  0  0  0  0
   22.5518   -4.8956  -15.7280 C   0  0  2  0  0  0  0  0  0  0  0  0
   23.2969   -6.1978  -15.8163 C   0  0  0  0  0  0  0  0  0  0  0  0
   21.2910   -5.0405  -14.8654 C   0  0  2  0  0  0  0  0  0  0  0  0
   20.3296   -5.9274  -15.4901 N   0  0  0  0  0  0  0  0  0  0  0  0
   20.7068   -3.7093  -14.5774 C   0  0  0  0  0  0  0  0  0  0  0  0
   21.3876   -2.8795  -13.6987 O   0  0  0  0  0  0  0  0  0  0  0  0
   19.6361   -3.2836  -15.0767 O   0  0  0  0  0  0  0  0  0  0  0  0
  2  1  1  0
  3  2  2  0
  4  3  1  0
  5  4  2  0
  5 11  1  0
  6  5  1  0
  7  8  1  6
  7  9  1  0
  7  6  1  0
  9 20  1  0
 10  9  2  0
 11 12  2  0
 12  2  1  0
 14 13  1  0
 15 14  2  0
 16 15  1  0
 17 16  2  0
 17 23  1  0
 18 17  1  0
 19 18  1  1
 20 19  1  0
 21 29  1  0
 21 19  1  0
 22 21  2  0
 23 24  2  0
 24 14  1  0
 26 25  1  6
 26 27  1  0
 26 28  1  0
 28 29  1  6
 28 30  1  0
 30 31  1  0
 32 30  2  0
M  END
$$$$
