YYV.pdb
     RDKit          3D

 32 33  0  0  1  0  0  0  0  0999 V2000
   24.3739  -30.4555  -10.1972 O   0  0  0  0  0  0  0  0  0  0  0  0
   24.8807  -31.4122   -9.3443 C   0  0  0  0  0  0  0  0  0  0  0  0
   24.7142  -32.7624   -9.6582 C   0  0  0  0  0  0  0  0  0  0  0  0
   25.2184  -33.7518   -8.8105 C   0  0  0  0  0  0  0  0  0  0  0  0
   25.8809  -33.3896   -7.6629 C   0  0  0  0  0  0  0  0  0  0  0  0
   26.4296  -34.3994   -6.7390 C   0  0  0  0  0  0  0  0  0  0  0  0
   27.9252  -34.4586   -6.9653 C   0  0  2  0  0  0  0  0  0  0  0  0
   28.1465  -35.1187   -8.2362 N   0  0  0  0  0  0  0  0  0  0  0  0
   28.6272  -35.1742   -5.8603 C   0  0  0  0  0  0  0  0  0  0  0  0
   28.9389  -36.3879   -5.9683 O   0  0  0  0  0  0  0  0  0  0  0  0
   26.0273  -32.0526   -7.3839 C   0  0  0  0  0  0  0  0  0  0  0  0
   25.5461  -31.0589   -8.1919 C   0  0  0  0  0  0  0  0  0  0  0  0
   34.5442  -37.0229   -7.0511 O   0  0  0  0  0  0  0  0  0  0  0  0
   33.6902  -36.3289   -6.2284 C   0  0  0  0  0  0  0  0  0  0  0  0
   32.8929  -35.3120   -6.7455 C   0  0  0  0  0  0  0  0  0  0  0  0
   32.0370  -34.6174   -5.9175 C   0  0  0  0  0  0  0  0  0  0  0  0
   31.9987  -34.9572   -4.5883 C   0  0  0  0  0  0  0  0  0  0  0  0
   31.0799  -34.2151   -3.6866 C   0  0  0  0  0  0  0  0  0  0  0  0
   29.7748  -34.9748   -3.6314 C   0  0  2  0  0  0  0  0  0  0  0  0
   28.9320  -34.4414   -4.6834 N   0  0  0  0  0  0  0  0  0  0  0  0
   29.0574  -34.7683   -2.3512 C   0  0  0  0  0  0  0  0  0  0  0  0
   28.5884  -33.6495   -2.0230 O   0  0  0  0  0  0  0  0  0  0  0  0
   32.7848  -35.9641   -4.0631 C   0  0  0  0  0  0  0  0  0  0  0  0
   33.6254  -36.6432   -4.8871 C   0  0  0  0  0  0  0  0  0  0  0  0
   28.0904  -38.1206    0.3101 C   0  0  0  0  0  0  0  0  0  0  0  0
   27.2918  -36.8625    0.1822 C   0  0  2  0  0  0  0  0  0  0  0  0
   26.1444  -36.9805   -0.7814 C   0  0  0  0  0  0  0  0  0  0  0  0
   28.1715  -35.6516   -0.1556 C   0  0  2  0  0  0  0  0  0  0  0  0
   28.8612  -35.8420   -1.4163 N   0  0  0  0  0  0  0  0  0  0  0  0
   29.1157  -35.3743    0.9526 C   0  0  0  0  0  0  0  0  0  0  0  0
   28.6095  -34.7884    2.1036 O   0  0  0  0  0  0  0  0  0  0  0  0
   30.3436  -35.6351    0.9178 O   0  0  0  0  0  0  0  0  0  0  0  0
  2  1  1  0
  3  2  2  0
  4  3  1  0
  5  4  2  0
  5 11  1  0
  6  5  1  0
  7  8  1  6
  7  9  1  0
  7  6  1  0
  9 20  1  0
 10  9  2  0
 11 12  2  0
 12  2  1  0
 14 13  1  0
 15 14  2  0
 16 15  1  0
 17 16  2  0
 17 23  1  0
 18 17  1  0
 19 18  1  1
 20 19  1  0
 21 29  1  0
 21 19  1  0
 22 21  2  0
 23 24  2  0
 24 14  1  0
 26 25  1  6
 26 27  1  0
 26 28  1  0
 28 29  1  6
 28 30  1  0
 30 31  1  0
 32 30  2  0
M  END
$$$$
