YYV.pdb
     RDKit          3D

 32 33  0  0  1  0  0  0  0  0999 V2000
   24.8705  -10.8292  -22.7086 O   0  0  0  0  0  0  0  0  0  0  0  0
   23.9525  -10.3471  -21.8007 C   0  0  0  0  0  0  0  0  0  0  0  0
   24.3554  -10.1082  -20.4854 C   0  0  0  0  0  0  0  0  0  0  0  0
   23.4445   -9.6195  -19.5456 C   0  0  0  0  0  0  0  0  0  0  0  0
   22.1464   -9.3743  -19.9220 C   0  0  0  0  0  0  0  0  0  0  0  0
   21.1510   -8.8585  -18.9641 C   0  0  0  0  0  0  0  0  0  0  0  0
   21.2960   -9.6539  -17.6843 C   0  0  2  0  0  0  0  0  0  0  0  0
   20.9084  -11.0196  -17.9753 N   0  0  0  0  0  0  0  0  0  0  0  0
   20.4695   -9.0859  -16.5797 C   0  0  0  0  0  0  0  0  0  0  0  0
   19.2736   -9.4395  -16.4165 O   0  0  0  0  0  0  0  0  0  0  0  0
   21.7830   -9.6201  -21.2237 C   0  0  0  0  0  0  0  0  0  0  0  0
   22.6493  -10.0983  -22.1686 C   0  0  0  0  0  0  0  0  0  0  0  0
   18.1865   -5.4974   -9.1763 O   0  0  0  0  0  0  0  0  0  0  0  0
   18.9241   -6.0043  -10.2188 C   0  0  0  0  0  0  0  0  0  0  0  0
   18.8873   -7.3659  -10.5049 C   0  0  0  0  0  0  0  0  0  0  0  0
   19.6284   -7.8716  -11.5516 C   0  0  0  0  0  0  0  0  0  0  0  0
   20.3909   -7.0010  -12.2894 C   0  0  0  0  0  0  0  0  0  0  0  0
   21.1939   -7.5350  -13.4200 C   0  0  0  0  0  0  0  0  0  0  0  0
   20.3430   -7.4587  -14.6664 C   0  0  2  0  0  0  0  0  0  0  0  0
   21.0761   -8.1339  -15.7190 N   0  0  0  0  0  0  0  0  0  0  0  0
   20.1244   -6.0628  -15.1136 C   0  0  0  0  0  0  0  0  0  0  0  0
   21.0578   -5.3547  -15.5681 O   0  0  0  0  0  0  0  0  0  0  0  0
   20.4359   -5.6480  -12.0157 C   0  0  0  0  0  0  0  0  0  0  0  0
   19.7019   -5.1588  -10.9819 C   0  0  0  0  0  0  0  0  0  0  0  0
   16.3245   -4.4983  -16.4840 C   0  0  0  0  0  0  0  0  0  0  0  0
   17.7267   -4.0550  -16.7562 C   0  0  2  0  0  0  0  0  0  0  0  0
   18.3817   -4.8070  -17.8807 C   0  0  0  0  0  0  0  0  0  0  0  0
   18.5977   -4.0853  -15.4933 C   0  0  2  0  0  0  0  0  0  0  0  0
   18.8279   -5.4459  -15.0497 N   0  0  0  0  0  0  0  0  0  0  0  0
   17.9906   -3.2535  -14.4275 C   0  0  0  0  0  0  0  0  0  0  0  0
   17.3965   -3.9052  -13.3566 O   0  0  0  0  0  0  0  0  0  0  0  0
   17.9788   -1.9978  -14.4304 O   0  0  0  0  0  0  0  0  0  0  0  0
  2  1  1  0
  3  2  2  0
  4  3  1  0
  5  4  2  0
  5 11  1  0
  6  5  1  0
  7  8  1  6
  7  9  1  0
  7  6  1  0
  9 20  1  0
 10  9  2  0
 11 12  2  0
 12  2  1  0
 14 13  1  0
 15 14  2  0
 16 15  1  0
 17 16  2  0
 17 23  1  0
 18 17  1  0
 19 18  1  1
 20 19  1  0
 21 29  1  0
 21 19  1  0
 22 21  2  0
 23 24  2  0
 24 14  1  0
 26 25  1  1
 26 27  1  0
 26 28  1  0
 28 29  1  1
 28 30  1  0
 30 31  1  0
 32 30  2  0
M  END
$$$$
