YYV.pdb
     RDKit          3D

 32 33  0  0  1  0  0  0  0  0999 V2000
   33.7366  -27.5797  -22.7623 O   0  0  0  0  0  0  0  0  0  0  0  0
   32.9931  -28.4980  -22.0530 C   0  0  0  0  0  0  0  0  0  0  0  0
   33.4710  -29.8027  -21.9166 C   0  0  0  0  0  0  0  0  0  0  0  0
   32.7365  -30.7527  -21.2026 C   0  0  0  0  0  0  0  0  0  0  0  0
   31.5381  -30.3967  -20.6332 C   0  0  0  0  0  0  0  0  0  0  0  0
   30.7294  -31.3660  -19.8709 C   0  0  0  0  0  0  0  0  0  0  0  0
   30.9406  -31.0779  -18.3999 C   0  0  2  0  0  0  0  0  0  0  0  0
   32.2810  -31.5116  -18.0604 N   0  0  0  0  0  0  0  0  0  0  0  0
   29.9243  -31.7610  -17.5477 C   0  0  0  0  0  0  0  0  0  0  0  0
   30.2174  -32.7910  -16.8879 O   0  0  0  0  0  0  0  0  0  0  0  0
   31.0969  -29.1049  -20.7863 C   0  0  0  0  0  0  0  0  0  0  0  0
   31.7909  -28.1506  -21.4788 C   0  0  0  0  0  0  0  0  0  0  0  0
   26.6676  -25.6243  -17.0663 O   0  0  0  0  0  0  0  0  0  0  0  0
   26.8652  -26.9230  -16.6638 C   0  0  0  0  0  0  0  0  0  0  0  0
   25.7761  -27.7645  -16.4560 C   0  0  0  0  0  0  0  0  0  0  0  0
   25.9776  -29.0672  -16.0522 C   0  0  0  0  0  0  0  0  0  0  0  0
   27.2670  -29.4986  -15.8653 C   0  0  0  0  0  0  0  0  0  0  0  0
   27.4960  -30.9008  -15.4301 C   0  0  0  0  0  0  0  0  0  0  0  0
   27.5678  -31.7624  -16.6694 C   0  0  2  0  0  0  0  0  0  0  0  0
   28.6162  -31.2115  -17.5054 N   0  0  0  0  0  0  0  0  0  0  0  0
   26.3136  -31.7192  -17.4578 C   0  0  0  0  0  0  0  0  0  0  0  0
   26.1103  -30.8471  -18.3394 O   0  0  0  0  0  0  0  0  0  0  0  0
   28.3559  -28.6735  -16.0681 C   0  0  0  0  0  0  0  0  0  0  0  0
   28.1474  -27.3910  -16.4661 C   0  0  0  0  0  0  0  0  0  0  0  0
   23.9902  -35.1467  -18.2185 C   0  0  0  0  0  0  0  0  0  0  0  0
   23.9225  -33.8467  -18.9549 C   0  0  2  0  0  0  0  0  0  0  0  0
   24.9207  -33.7429  -20.0736 C   0  0  0  0  0  0  0  0  0  0  0  0
   24.0270  -32.6416  -18.0108 C   0  0  2  0  0  0  0  0  0  0  0  0
   25.2620  -32.6771  -17.2528 N   0  0  0  0  0  0  0  0  0  0  0  0
   22.8395  -32.5742  -17.1265 C   0  0  0  0  0  0  0  0  0  0  0  0
   21.6583  -32.0846  -17.6644 O   0  0  0  0  0  0  0  0  0  0  0  0
   22.8327  -32.9313  -15.9226 O   0  0  0  0  0  0  0  0  0  0  0  0
  2  1  1  0
  3  2  2  0
  4  3  1  0
  5  4  2  0
  5 11  1  0
  6  5  1  0
  7  8  1  1
  7  9  1  0
  7  6  1  0
  9 20  1  0
 10  9  2  0
 11 12  2  0
 12  2  1  0
 14 13  1  0
 15 14  2  0
 16 15  1  0
 17 16  2  0
 17 23  1  0
 18 17  1  0
 19 18  1  1
 20 19  1  0
 21 29  1  0
 21 19  1  0
 22 21  2  0
 23 24  2  0
 24 14  1  0
 26 25  1  1
 26 27  1  0
 26 28  1  0
 28 29  1  1
 28 30  1  0
 30 31  1  0
 32 30  2  0
M  END
$$$$
