YYV.pdb
     RDKit          3D

 32 33  0  0  1  0  0  0  0  0999 V2000
   27.5794  -11.8760  -16.8996 O   0  0  0  0  0  0  0  0  0  0  0  0
   26.8510  -13.0450  -16.8529 C   0  0  0  0  0  0  0  0  0  0  0  0
   26.3509  -13.5845  -18.0396 C   0  0  0  0  0  0  0  0  0  0  0  0
   25.6095  -14.7684  -18.0196 C   0  0  0  0  0  0  0  0  0  0  0  0
   25.3737  -15.4018  -16.8237 C   0  0  0  0  0  0  0  0  0  0  0  0
   24.5966  -16.6531  -16.7549 C   0  0  0  0  0  0  0  0  0  0  0  0
   25.5624  -17.7713  -16.4257 C   0  0  2  0  0  0  0  0  0  0  0  0
   26.4917  -17.8825  -17.5321 N   0  0  0  0  0  0  0  0  0  0  0  0
   24.8566  -19.0638  -16.1867 C   0  0  0  0  0  0  0  0  0  0  0  0
   24.2683  -19.6644  -17.1222 O   0  0  0  0  0  0  0  0  0  0  0  0
   25.8799  -14.8443  -15.6749 C   0  0  0  0  0  0  0  0  0  0  0  0
   26.6094  -13.6870  -15.6591 C   0  0  0  0  0  0  0  0  0  0  0  0
   29.0546  -23.9137  -16.8830 O   0  0  0  0  0  0  0  0  0  0  0  0
   28.0963  -23.3412  -16.0819 C   0  0  0  0  0  0  0  0  0  0  0  0
   28.3459  -22.1252  -15.4524 C   0  0  0  0  0  0  0  0  0  0  0  0
   27.3824  -21.5532  -14.6492 C   0  0  0  0  0  0  0  0  0  0  0  0
   26.1889  -22.2128  -14.4941 C   0  0  0  0  0  0  0  0  0  0  0  0
   25.1431  -21.6056  -13.6306 C   0  0  0  0  0  0  0  0  0  0  0  0
   24.2006  -20.8317  -14.5228 C   0  0  2  0  0  0  0  0  0  0  0  0
   24.8701  -19.5938  -14.8699 N   0  0  0  0  0  0  0  0  0  0  0  0
   22.9422  -20.4674  -13.8300 C   0  0  0  0  0  0  0  0  0  0  0  0
   22.9274  -19.7006  -12.8344 O   0  0  0  0  0  0  0  0  0  0  0  0
   25.9291  -23.4199  -15.1132 C   0  0  0  0  0  0  0  0  0  0  0  0
   26.8850  -23.9758  -15.9031 C   0  0  0  0  0  0  0  0  0  0  0  0
   20.3953  -18.3962  -14.7980 C   0  0  0  0  0  0  0  0  0  0  0  0
   19.6179  -19.6299  -14.4657 C   0  0  2  0  0  0  0  0  0  0  0  0
   18.2831  -19.3420  -13.8379 C   0  0  0  0  0  0  0  0  0  0  0  0
   20.4290  -20.6106  -13.6085 C   0  0  2  0  0  0  0  0  0  0  0  0
   21.6695  -20.9750  -14.2638 N   0  0  0  0  0  0  0  0  0  0  0  0
   19.6122  -21.8011  -13.2738 C   0  0  0  0  0  0  0  0  0  0  0  0
   18.8017  -21.7354  -12.1499 O   0  0  0  0  0  0  0  0  0  0  0  0
   19.6059  -22.8651  -13.9408 O   0  0  0  0  0  0  0  0  0  0  0  0
  2  1  1  0
  3  2  2  0
  4  3  1  0
  5  4  2  0
  5 11  1  0
  6  5  1  0
  7  8  1  6
  7  9  1  0
  7  6  1  0
  9 20  1  0
 10  9  2  0
 11 12  2  0
 12  2  1  0
 14 13  1  0
 15 14  2  0
 16 15  1  0
 17 16  2  0
 17 23  1  0
 18 17  1  0
 19 18  1  1
 20 19  1  0
 21 29  1  0
 21 19  1  0
 22 21  2  0
 23 24  2  0
 24 14  1  0
 26 25  1  1
 26 27  1  0
 26 28  1  0
 28 29  1  6
 28 30  1  0
 30 31  1  0
 32 30  2  0
M  END
$$$$
