YYV.pdb
     RDKit          3D

 32 33  0  0  1  0  0  0  0  0999 V2000
   29.6314    2.5843  -13.7254 O   0  0  0  0  0  0  0  0  0  0  0  0
   30.0896    1.4847  -14.4184 C   0  0  0  0  0  0  0  0  0  0  0  0
   31.2051    1.6176  -15.2475 C   0  0  0  0  0  0  0  0  0  0  0  0
   31.6896    0.5185  -15.9609 C   0  0  0  0  0  0  0  0  0  0  0  0
   31.0621   -0.6977  -15.8430 C   0  0  0  0  0  0  0  0  0  0  0  0
   31.5385   -1.8847  -16.5769 C   0  0  0  0  0  0  0  0  0  0  0  0
   32.6925   -2.4720  -15.7926 C   0  0  2  0  0  0  0  0  0  0  0  0
   33.7466   -1.4781  -15.7608 N   0  0  0  0  0  0  0  0  0  0  0  0
   33.1783   -3.7496  -16.3904 C   0  0  0  0  0  0  0  0  0  0  0  0
   33.9800   -3.7489  -17.3595 O   0  0  0  0  0  0  0  0  0  0  0  0
   29.9674   -0.7941  -15.0189 C   0  0  0  0  0  0  0  0  0  0  0  0
   29.4673    0.2616  -14.3067 C   0  0  0  0  0  0  0  0  0  0  0  0
   35.2791  -12.0612  -16.9404 O   0  0  0  0  0  0  0  0  0  0  0  0
   34.8118  -10.8493  -16.4924 C   0  0  0  0  0  0  0  0  0  0  0  0
   33.4432  -10.6316  -16.3634 C   0  0  0  0  0  0  0  0  0  0  0  0
   32.9772   -9.4145  -15.9137 C   0  0  0  0  0  0  0  0  0  0  0  0
   33.8937   -8.4414  -15.6027 C   0  0  0  0  0  0  0  0  0  0  0  0
   33.4028   -7.1257  -15.1170 C   0  0  0  0  0  0  0  0  0  0  0  0
   33.1231   -6.2631  -16.3258 C   0  0  2  0  0  0  0  0  0  0  0  0
   32.7068   -4.9659  -15.8305 N   0  0  0  0  0  0  0  0  0  0  0  0
   32.0108   -6.7928  -17.1495 C   0  0  0  0  0  0  0  0  0  0  0  0
   30.8260   -6.8196  -16.7314 O   0  0  0  0  0  0  0  0  0  0  0  0
   35.2542   -8.6450  -15.7264 C   0  0  0  0  0  0  0  0  0  0  0  0
   35.7039   -9.8480  -16.1705 C   0  0  0  0  0  0  0  0  0  0  0  0
   32.1430   -7.1268  -21.4474 C   0  0  0  0  0  0  0  0  0  0  0  0
   30.9394   -7.1098  -20.5598 C   0  0  2  0  0  0  0  0  0  0  0  0
   30.4323   -5.7250  -20.2699 C   0  0  0  0  0  0  0  0  0  0  0  0
   31.1679   -7.8950  -19.2614 C   0  0  2  0  0  0  0  0  0  0  0  0
   32.2322   -7.3047  -18.4741 N   0  0  0  0  0  0  0  0  0  0  0  0
   31.4308   -9.3225  -19.5609 C   0  0  0  0  0  0  0  0  0  0  0  0
   30.3400  -10.1462  -19.7976 O   0  0  0  0  0  0  0  0  0  0  0  0
   32.5760   -9.8349  -19.6145 O   0  0  0  0  0  0  0  0  0  0  0  0
  2  1  1  0
  3  2  2  0
  4  3  1  0
  5  4  2  0
  5 11  1  0
  6  5  1  0
  7  8  1  6
  7  9  1  0
  7  6  1  0
  9 20  1  0
 10  9  2  0
 11 12  2  0
 12  2  1  0
 14 13  1  0
 15 14  2  0
 16 15  1  0
 17 16  2  0
 17 23  1  0
 18 17  1  0
 19 18  1  1
 20 19  1  0
 21 29  1  0
 21 19  1  0
 22 21  2  0
 23 24  2  0
 24 14  1  0
 26 25  1  1
 26 27  1  0
 26 28  1  0
 28 29  1  6
 28 30  1  0
 30 31  1  0
 32 30  2  0
M  END
$$$$
