YYV.pdb
     RDKit          3D

 32 33  0  0  1  0  0  0  0  0999 V2000
   29.4921  -29.0920  -19.0923 O   0  0  0  0  0  0  0  0  0  0  0  0
   28.7145  -28.3387  -18.2394 C   0  0  0  0  0  0  0  0  0  0  0  0
   27.3239  -28.4206  -18.3334 C   0  0  0  0  0  0  0  0  0  0  0  0
   26.5130  -27.6675  -17.4807 C   0  0  0  0  0  0  0  0  0  0  0  0
   27.0914  -26.8433  -16.5462 C   0  0  0  0  0  0  0  0  0  0  0  0
   26.2751  -26.0304  -15.6257 C   0  0  0  0  0  0  0  0  0  0  0  0
   25.8413  -24.7897  -16.3768 C   0  0  2  0  0  0  0  0  0  0  0  0
   27.0277  -23.9956  -16.6259 N   0  0  0  0  0  0  0  0  0  0  0  0
   24.8225  -24.0076  -15.6177 C   0  0  0  0  0  0  0  0  0  0  0  0
   25.0759  -22.8505  -15.1946 O   0  0  0  0  0  0  0  0  0  0  0  0
   28.4622  -26.7863  -16.4804 C   0  0  0  0  0  0  0  0  0  0  0  0
   29.2850  -27.5099  -17.2997 C   0  0  0  0  0  0  0  0  0  0  0  0
   20.4660  -24.9064  -20.5953 O   0  0  0  0  0  0  0  0  0  0  0  0
   20.8673  -24.3758  -19.3932 C   0  0  0  0  0  0  0  0  0  0  0  0
   19.9744  -24.3019  -18.3281 C   0  0  0  0  0  0  0  0  0  0  0  0
   20.3799  -23.7689  -17.1231 C   0  0  0  0  0  0  0  0  0  0  0  0
   21.6725  -23.3213  -17.0115 C   0  0  0  0  0  0  0  0  0  0  0  0
   22.1205  -22.7448  -15.7173 C   0  0  0  0  0  0  0  0  0  0  0  0
   22.4502  -23.8923  -14.7910 C   0  0  2  0  0  0  0  0  0  0  0  0
   23.5583  -24.6111  -15.3884 N   0  0  0  0  0  0  0  0  0  0  0  0
   21.3276  -24.8512  -14.6617 C   0  0  0  0  0  0  0  0  0  0  0  0
   21.2135  -25.8494  -15.4165 O   0  0  0  0  0  0  0  0  0  0  0  0
   22.5680  -23.3890  -18.0608 C   0  0  0  0  0  0  0  0  0  0  0  0
   22.1591  -23.9160  -19.2448 C   0  0  0  0  0  0  0  0  0  0  0  0
   19.0958  -25.5435  -11.0005 C   0  0  0  0  0  0  0  0  0  0  0  0
   19.3395  -26.4099  -12.1949 C   0  0  2  0  0  0  0  0  0  0  0  0
   20.6411  -27.1587  -12.1323 C   0  0  0  0  0  0  0  0  0  0  0  0
   19.2170  -25.6287  -13.5100 C   0  0  2  0  0  0  0  0  0  0  0  0
   20.3083  -24.6868  -13.6619 N   0  0  0  0  0  0  0  0  0  0  0  0
   17.8968  -24.9603  -13.5922 C   0  0  0  0  0  0  0  0  0  0  0  0
   16.7795  -25.7563  -13.7980 O   0  0  0  0  0  0  0  0  0  0  0  0
   17.7235  -23.7209  -13.4879 O   0  0  0  0  0  0  0  0  0  0  0  0
  2  1  1  0
  3  2  2  0
  4  3  1  0
  5  4  2  0
  5 11  1  0
  6  5  1  0
  7  8  1  1
  7  9  1  0
  7  6  1  0
  9 20  1  0
 10  9  2  0
 11 12  2  0
 12  2  1  0
 14 13  1  0
 15 14  2  0
 16 15  1  0
 17 16  2  0
 17 23  1  0
 18 17  1  0
 19 18  1  6
 20 19  1  0
 21 29  1  0
 21 19  1  0
 22 21  2  0
 23 24  2  0
 24 14  1  0
 26 25  1  1
 26 27  1  0
 26 28  1  0
 28 29  1  1
 28 30  1  0
 30 31  1  0
 32 30  2  0
M  END
$$$$
