YYV.pdb
     RDKit          3D

 32 33  0  0  1  0  0  0  0  0999 V2000
   15.8379  -13.7238  -17.8806 O   0  0  0  0  0  0  0  0  0  0  0  0
   16.1836  -12.9238  -16.8130 C   0  0  0  0  0  0  0  0  0  0  0  0
   17.2466  -13.3046  -15.9918 C   0  0  0  0  0  0  0  0  0  0  0  0
   17.6173  -12.5114  -14.9031 C   0  0  0  0  0  0  0  0  0  0  0  0
   16.9292  -11.3513  -14.6429 C   0  0  0  0  0  0  0  0  0  0  0  0
   17.2852  -10.4832  -13.5053 C   0  0  0  0  0  0  0  0  0  0  0  0
   18.0845   -9.3200  -14.0529 C   0  0  2  0  0  0  0  0  0  0  0  0
   19.3948   -9.8240  -14.4119 N   0  0  0  0  0  0  0  0  0  0  0  0
   18.1906   -8.2050  -13.0673 C   0  0  0  0  0  0  0  0  0  0  0  0
   19.0002   -8.2632  -12.1065 O   0  0  0  0  0  0  0  0  0  0  0  0
   15.8887  -11.0058  -15.4704 C   0  0  0  0  0  0  0  0  0  0  0  0
   15.5000  -11.7593  -16.5442 C   0  0  0  0  0  0  0  0  0  0  0  0
   22.7672   -5.3019  -15.5403 O   0  0  0  0  0  0  0  0  0  0  0  0
   21.5171   -5.1564  -14.9890 C   0  0  0  0  0  0  0  0  0  0  0  0
   21.3673   -4.5504  -13.7449 C   0  0  0  0  0  0  0  0  0  0  0  0
   20.1117   -4.4058  -13.1943 C   0  0  0  0  0  0  0  0  0  0  0  0
   19.0327   -4.8719  -13.9029 C   0  0  0  0  0  0  0  0  0  0  0  0
   17.6746   -4.7214  -13.3191 C   0  0  0  0  0  0  0  0  0  0  0  0
   17.4322   -5.9004  -12.4055 C   0  0  2  0  0  0  0  0  0  0  0  0
   17.3486   -7.0766  -13.2486 N   0  0  0  0  0  0  0  0  0  0  0  0
   16.1454   -5.7931  -11.6781 C   0  0  0  0  0  0  0  0  0  0  0  0
   15.0408   -5.9832  -12.2464 O   0  0  0  0  0  0  0  0  0  0  0  0
   19.1681   -5.4749  -15.1381 C   0  0  0  0  0  0  0  0  0  0  0  0
   20.4098   -5.6130  -15.6727 C   0  0  0  0  0  0  0  0  0  0  0  0
   15.7959   -5.9409   -7.3530 C   0  0  0  0  0  0  0  0  0  0  0  0
   14.7293   -6.1996   -8.3690 C   0  0  2  0  0  0  0  0  0  0  0  0
   14.6580   -7.6360   -8.8055 C   0  0  0  0  0  0  0  0  0  0  0  0
   14.8437   -5.2621   -9.5783 C   0  0  2  0  0  0  0  0  0  0  0  0
   16.0959   -5.4646  -10.2799 N   0  0  0  0  0  0  0  0  0  0  0  0
   14.6702   -3.8520   -9.1565 C   0  0  0  0  0  0  0  0  0  0  0  0
   13.4096   -3.4515   -8.7383 O   0  0  0  0  0  0  0  0  0  0  0  0
   15.5893   -2.9964   -9.1529 O   0  0  0  0  0  0  0  0  0  0  0  0
  2  1  1  0
  3  2  2  0
  4  3  1  0
  5  4  2  0
  5 11  1  0
  6  5  1  0
  7  8  1  1
  7  9  1  0
  7  6  1  0
  9 20  1  0
 10  9  2  0
 11 12  2  0
 12  2  1  0
 14 13  1  0
 15 14  2  0
 16 15  1  0
 17 16  2  0
 17 23  1  0
 18 17  1  0
 19 18  1  6
 20 19  1  0
 21 29  1  0
 21 19  1  0
 22 21  2  0
 23 24  2  0
 24 14  1  0
 26 25  1  1
 26 27  1  0
 26 28  1  0
 28 29  1  1
 28 30  1  0
 30 31  1  0
 32 30  2  0
M  END
$$$$
