YYV.pdb
     RDKit          3D

 32 33  0  0  1  0  0  0  0  0999 V2000
   28.2184  -33.7315  -13.4072 O   0  0  0  0  0  0  0  0  0  0  0  0
   28.2646  -33.0826  -14.6222 C   0  0  0  0  0  0  0  0  0  0  0  0
   27.5889  -31.8702  -14.7737 C   0  0  0  0  0  0  0  0  0  0  0  0
   27.6199  -31.1923  -15.9949 C   0  0  0  0  0  0  0  0  0  0  0  0
   28.3203  -31.7253  -17.0497 C   0  0  0  0  0  0  0  0  0  0  0  0
   28.3806  -31.0449  -18.3565 C   0  0  0  0  0  0  0  0  0  0  0  0
   29.7378  -30.3829  -18.4630 C   0  0  2  0  0  0  0  0  0  0  0  0
   29.7437  -29.2553  -17.5528 N   0  0  0  0  0  0  0  0  0  0  0  0
   30.0364  -29.9472  -19.8583 C   0  0  0  0  0  0  0  0  0  0  0  0
   29.9612  -28.7362  -20.1899 O   0  0  0  0  0  0  0  0  0  0  0  0
   28.9738  -32.9196  -16.8669 C   0  0  0  0  0  0  0  0  0  0  0  0
   28.9638  -33.6088  -15.6851 C   0  0  0  0  0  0  0  0  0  0  0  0
   35.2318  -26.6160  -20.6259 O   0  0  0  0  0  0  0  0  0  0  0  0
   34.4861  -27.6858  -21.0586 C   0  0  0  0  0  0  0  0  0  0  0  0
   34.0503  -27.7465  -22.3791 C   0  0  0  0  0  0  0  0  0  0  0  0
   33.3022  -28.8212  -22.8104 C   0  0  0  0  0  0  0  0  0  0  0  0
   33.0068  -29.8124  -21.9083 C   0  0  0  0  0  0  0  0  0  0  0  0
   32.2010  -30.9755  -22.3621 C   0  0  0  0  0  0  0  0  0  0  0  0
   30.7425  -30.6275  -22.1741 C   0  0  2  0  0  0  0  0  0  0  0  0
   30.4079  -30.9428  -20.7993 N   0  0  0  0  0  0  0  0  0  0  0  0
   29.8543  -31.4417  -23.0368 C   0  0  0  0  0  0  0  0  0  0  0  0
   29.7169  -32.6799  -22.8715 O   0  0  0  0  0  0  0  0  0  0  0  0
   33.4332  -29.7639  -20.5954 C   0  0  0  0  0  0  0  0  0  0  0  0
   34.1702  -28.7005  -20.1796 C   0  0  0  0  0  0  0  0  0  0  0  0
   26.4794  -29.7557  -24.8459 C   0  0  0  0  0  0  0  0  0  0  0  0
   26.7167  -31.2121  -24.6026 C   0  0  2  0  0  0  0  0  0  0  0  0
   26.3079  -31.6609  -23.2277 C   0  0  0  0  0  0  0  0  0  0  0  0
   28.1642  -31.6205  -24.9069 C   0  0  2  0  0  0  0  0  0  0  0  0
   29.1019  -30.8536  -24.1108 N   0  0  0  0  0  0  0  0  0  0  0  0
   28.4417  -31.4955  -26.3574 C   0  0  0  0  0  0  0  0  0  0  0  0
   29.1879  -30.4062  -26.7826 O   0  0  0  0  0  0  0  0  0  0  0  0
   28.0456  -32.3110  -27.2263 O   0  0  0  0  0  0  0  0  0  0  0  0
  2  1  1  0
  3  2  2  0
  4  3  1  0
  5  4  2  0
  5 11  1  0
  6  5  1  0
  7  8  1  1
  7  9  1  0
  7  6  1  0
  9 20  1  0
 10  9  2  0
 11 12  2  0
 12  2  1  0
 14 13  1  0
 15 14  2  0
 16 15  1  0
 17 16  2  0
 17 23  1  0
 18 17  1  0
 19 18  1  6
 20 19  1  0
 21 29  1  0
 21 19  1  0
 22 21  2  0
 23 24  2  0
 24 14  1  0
 26 25  1  1
 26 27  1  0
 26 28  1  0
 28 29  1  1
 28 30  1  0
 30 31  1  0
 32 30  2  0
M  END
$$$$
