YYV.pdb
     RDKit          3D

 32 33  0  0  1  0  0  0  0  0999 V2000
   32.3808  -32.3568  -19.6998 O   0  0  0  0  0  0  0  0  0  0  0  0
   31.2547  -31.8786  -19.0652 C   0  0  0  0  0  0  0  0  0  0  0  0
   31.3938  -30.9181  -18.0615 C   0  0  0  0  0  0  0  0  0  0  0  0
   30.2682  -30.4171  -17.4028 C   0  0  0  0  0  0  0  0  0  0  0  0
   29.0198  -30.8748  -17.7478 C   0  0  0  0  0  0  0  0  0  0  0  0
   27.8042  -30.3745  -17.0797 C   0  0  0  0  0  0  0  0  0  0  0  0
   27.1477  -29.3805  -18.0138 C   0  0  2  0  0  0  0  0  0  0  0  0
   27.9185  -28.1547  -17.9552 N   0  0  0  0  0  0  0  0  0  0  0  0
   25.7215  -29.1346  -17.6514 C   0  0  0  0  0  0  0  0  0  0  0  0
   25.3890  -28.1312  -16.9699 O   0  0  0  0  0  0  0  0  0  0  0  0
   28.9184  -31.8199  -18.7394 C   0  0  0  0  0  0  0  0  0  0  0  0
   29.9994  -32.3312  -19.4041 C   0  0  0  0  0  0  0  0  0  0  0  0
   23.0957  -24.5018  -20.8094 O   0  0  0  0  0  0  0  0  0  0  0  0
   22.9730  -25.8045  -20.3902 C   0  0  0  0  0  0  0  0  0  0  0  0
   21.8867  -26.1888  -19.6095 C   0  0  0  0  0  0  0  0  0  0  0  0
   21.7662  -27.4966  -19.1905 C   0  0  0  0  0  0  0  0  0  0  0  0
   22.7377  -28.3916  -19.5631 C   0  0  0  0  0  0  0  0  0  0  0  0
   22.6181  -29.8039  -19.1171 C   0  0  0  0  0  0  0  0  0  0  0  0
   23.3412  -29.9332  -17.7966 C   0  0  2  0  0  0  0  0  0  0  0  0
   24.7521  -30.0694  -18.1003 N   0  0  0  0  0  0  0  0  0  0  0  0
   22.9367  -31.1481  -17.0504 C   0  0  0  0  0  0  0  0  0  0  0  0
   23.6374  -32.1913  -17.0452 O   0  0  0  0  0  0  0  0  0  0  0  0
   23.8203  -28.0227  -20.3375 C   0  0  0  0  0  0  0  0  0  0  0  0
   23.9305  -26.7312  -20.7458 C   0  0  0  0  0  0  0  0  0  0  0  0
   22.5292  -31.4777  -13.3564 C   0  0  0  0  0  0  0  0  0  0  0  0
   22.4841  -32.5572  -14.3906 C   0  0  2  0  0  0  0  0  0  0  0  0
   23.8102  -32.8025  -15.0540 C   0  0  0  0  0  0  0  0  0  0  0  0
   21.3843  -32.3136  -15.4326 C   0  0  2  0  0  0  0  0  0  0  0  0
   21.7170  -31.1945  -16.2916 N   0  0  0  0  0  0  0  0  0  0  0  0
   20.0740  -32.1262  -14.7659 C   0  0  0  0  0  0  0  0  0  0  0  0
   19.5425  -33.2010  -14.0683 O   0  0  0  0  0  0  0  0  0  0  0  0
   19.4137  -31.0583  -14.7912 O   0  0  0  0  0  0  0  0  0  0  0  0
  2  1  1  0
  3  2  2  0
  4  3  1  0
  5  4  2  0
  5 11  1  0
  6  5  1  0
  7  8  1  1
  7  9  1  0
  7  6  1  0
  9 20  1  0
 10  9  2  0
 11 12  2  0
 12  2  1  0
 14 13  1  0
 15 14  2  0
 16 15  1  0
 17 16  2  0
 17 23  1  0
 18 17  1  0
 19 18  1  6
 20 19  1  0
 21 29  1  0
 21 19  1  0
 22 21  2  0
 23 24  2  0
 24 14  1  0
 26 25  1  1
 26 27  1  0
 26 28  1  0
 28 29  1  1
 28 30  1  0
 30 31  1  0
 32 30  2  0
M  END
$$$$
