YYV.pdb
     RDKit          3D

 32 33  0  0  1  0  0  0  0  0999 V2000
   22.3818  -14.2446  -22.7137 O   0  0  0  0  0  0  0  0  0  0  0  0
   22.2479  -15.3630  -21.9194 C   0  0  0  0  0  0  0  0  0  0  0  0
   22.3946  -15.2386  -20.5366 C   0  0  0  0  0  0  0  0  0  0  0  0
   22.2637  -16.3567  -19.7092 C   0  0  0  0  0  0  0  0  0  0  0  0
   21.9890  -17.5831  -20.2636 C   0  0  0  0  0  0  0  0  0  0  0  0
   21.8423  -18.7901  -19.4293 C   0  0  0  0  0  0  0  0  0  0  0  0
   23.2084  -19.1255  -18.8697 C   0  0  2  0  0  0  0  0  0  0  0  0
   23.9511  -19.8029  -19.9135 N   0  0  0  0  0  0  0  0  0  0  0  0
   23.1152  -19.9704  -17.6436 C   0  0  0  0  0  0  0  0  0  0  0  0
   23.0734  -21.2250  -17.7219 O   0  0  0  0  0  0  0  0  0  0  0  0
   21.8507  -17.6706  -21.6274 C   0  0  0  0  0  0  0  0  0  0  0  0
   21.9726  -16.5964  -22.4659 C   0  0  0  0  0  0  0  0  0  0  0  0
   23.3624  -21.8542   -9.1973 O   0  0  0  0  0  0  0  0  0  0  0  0
   23.4236  -21.1879  -10.3973 C   0  0  0  0  0  0  0  0  0  0  0  0
   24.4780  -21.4229  -11.2750 C   0  0  0  0  0  0  0  0  0  0  0  0
   24.5367  -20.7529  -12.4784 C   0  0  0  0  0  0  0  0  0  0  0  0
   23.5367  -19.8613  -12.7764 C   0  0  0  0  0  0  0  0  0  0  0  0
   23.5898  -19.1334  -14.0707 C   0  0  0  0  0  0  0  0  0  0  0  0
   23.0056  -20.0366  -15.1320 C   0  0  2  0  0  0  0  0  0  0  0  0
   23.0751  -19.3130  -16.3861 N   0  0  0  0  0  0  0  0  0  0  0  0
   21.5771  -20.3443  -14.8847 C   0  0  0  0  0  0  0  0  0  0  0  0
   20.6961  -19.4483  -14.8652 O   0  0  0  0  0  0  0  0  0  0  0  0
   22.4853  -19.6193  -11.9141 C   0  0  0  0  0  0  0  0  0  0  0  0
   22.4360  -20.2846  -10.7301 C   0  0  0  0  0  0  0  0  0  0  0  0
   17.9127  -23.6819  -14.9098 C   0  0  0  0  0  0  0  0  0  0  0  0
   19.3544  -23.3370  -15.1080 C   0  0  2  0  0  0  0  0  0  0  0  0
   20.2926  -24.4337  -14.6885 C   0  0  0  0  0  0  0  0  0  0  0  0
   19.7279  -22.0077  -14.4388 C   0  0  2  0  0  0  0  0  0  0  0  0
   21.1255  -21.6889  -14.6536 N   0  0  0  0  0  0  0  0  0  0  0  0
   19.3857  -22.0415  -12.9972 C   0  0  0  0  0  0  0  0  0  0  0  0
   18.1842  -21.4709  -12.6031 O   0  0  0  0  0  0  0  0  0  0  0  0
   20.1120  -22.5528  -12.1095 O   0  0  0  0  0  0  0  0  0  0  0  0
  2  1  1  0
  3  2  2  0
  4  3  1  0
  5  4  2  0
  5 11  1  0
  6  5  1  0
  7  8  1  6
  7  9  1  0
  7  6  1  0
  9 20  1  0
 10  9  2  0
 11 12  2  0
 12  2  1  0
 14 13  1  0
 15 14  2  0
 16 15  1  0
 17 16  2  0
 17 23  1  0
 18 17  1  0
 19 18  1  1
 20 19  1  0
 21 29  1  0
 21 19  1  0
 22 21  2  0
 23 24  2  0
 24 14  1  0
 26 25  1  1
 26 27  1  0
 26 28  1  0
 28 29  1  1
 28 30  1  0
 30 31  1  0
 32 30  2  0
M  END
$$$$
