YYV.pdb
     RDKit          3D

 32 33  0  0  1  0  0  0  0  0999 V2000
   17.4241  -24.2105  -19.1989 O   0  0  0  0  0  0  0  0  0  0  0  0
   17.9526  -23.2367  -18.3792 C   0  0  0  0  0  0  0  0  0  0  0  0
   17.1769  -22.1209  -18.0585 C   0  0  0  0  0  0  0  0  0  0  0  0
   17.6890  -21.1196  -17.2296 C   0  0  0  0  0  0  0  0  0  0  0  0
   18.9631  -21.2376  -16.7298 C   0  0  0  0  0  0  0  0  0  0  0  0
   19.5446  -20.2057  -15.8515 C   0  0  0  0  0  0  0  0  0  0  0  0
   19.6272  -20.7887  -14.4569 C   0  0  2  0  0  0  0  0  0  0  0  0
   18.4222  -20.4007  -13.7518 N   0  0  0  0  0  0  0  0  0  0  0  0
   20.8456  -20.3250  -13.7314 C   0  0  0  0  0  0  0  0  0  0  0  0
   20.9087  -19.1676  -13.2429 O   0  0  0  0  0  0  0  0  0  0  0  0
   19.6992  -22.3479  -17.0650 C   0  0  0  0  0  0  0  0  0  0  0  0
   19.2284  -23.3461  -17.8735 C   0  0  0  0  0  0  0  0  0  0  0  0
   27.9514  -20.2920   -9.0308 O   0  0  0  0  0  0  0  0  0  0  0  0
   26.8539  -20.6993   -9.7502 C   0  0  0  0  0  0  0  0  0  0  0  0
   26.9966  -21.6242  -10.7804 C   0  0  0  0  0  0  0  0  0  0  0  0
   25.8935  -22.0309  -11.5005 C   0  0  0  0  0  0  0  0  0  0  0  0
   24.6706  -21.5016  -11.1722 C   0  0  0  0  0  0  0  0  0  0  0  0
   23.4748  -21.9328  -11.9416 C   0  0  0  0  0  0  0  0  0  0  0  0
   23.1810  -20.8676  -12.9725 C   0  0  2  0  0  0  0  0  0  0  0  0
   21.9311  -21.2316  -13.6101 N   0  0  0  0  0  0  0  0  0  0  0  0
   24.2129  -20.8134  -14.0349 C   0  0  0  0  0  0  0  0  0  0  0  0
   24.3044  -21.6998  -14.9210 O   0  0  0  0  0  0  0  0  0  0  0  0
   24.5159  -20.5832  -10.1522 C   0  0  0  0  0  0  0  0  0  0  0  0
   25.6091  -20.1883   -9.4480 C   0  0  0  0  0  0  0  0  0  0  0  0
   27.8138  -18.1709  -16.3100 C   0  0  0  0  0  0  0  0  0  0  0  0
   26.8623  -18.3044  -15.1639 C   0  0  2  0  0  0  0  0  0  0  0  0
   27.4793  -17.9690  -13.8351 C   0  0  0  0  0  0  0  0  0  0  0  0
   26.1924  -19.6844  -15.1267 C   0  0  2  0  0  0  0  0  0  0  0  0
   25.1651  -19.7393  -14.1056 N   0  0  0  0  0  0  0  0  0  0  0  0
   27.2092  -20.7469  -14.9432 C   0  0  0  0  0  0  0  0  0  0  0  0
   27.8587  -21.2240  -16.0723 O   0  0  0  0  0  0  0  0  0  0  0  0
   27.5211  -21.2434  -13.8327 O   0  0  0  0  0  0  0  0  0  0  0  0
  2  1  1  0
  3  2  2  0
  4  3  1  0
  5  4  2  0
  5 11  1  0
  6  5  1  0
  7  8  1  1
  7  9  1  0
  7  6  1  0
  9 20  1  0
 10  9  2  0
 11 12  2  0
 12  2  1  0
 14 13  1  0
 15 14  2  0
 16 15  1  0
 17 16  2  0
 17 23  1  0
 18 17  1  0
 19 18  1  1
 20 19  1  0
 21 29  1  0
 21 19  1  0
 22 21  2  0
 23 24  2  0
 24 14  1  0
 26 25  1  6
 26 27  1  0
 26 28  1  0
 28 29  1  1
 28 30  1  0
 30 31  1  0
 32 30  2  0
M  END
$$$$
