PEY.pdb
     RDKit          3D

 29 30  0  0  1  0  0  0  0  0999 V2000
    9.3604  -14.1046   20.8618 N   0  0  0  0  0  0  0  0  0  0  0  0
    9.8747  -13.1605   19.8864 C   0  0  0  0  0  0  0  0  0  0  0  0
    8.7159  -13.0300   18.9276 C   0  0  0  0  0  0  0  0  0  0  0  0
    7.4814  -13.5060   19.6858 C   0  0  0  0  0  0  0  0  0  0  0  0
    8.0279  -13.5758   21.1027 C   0  0  1  0  0  0  0  0  0  0  0  0
    7.2743  -14.5246   21.9487 C   0  0  0  0  0  0  0  0  0  0  0  0
    6.0525  -14.3308   22.1992 O   0  0  0  0  0  0  0  0  0  0  0  0
    7.9123  -15.6884   22.5058 N   0  0  0  0  0  0  0  0  0  0  0  0
    7.2180  -16.5285   23.4484 C   0  0  1  0  0  0  0  0  0  0  0  0
    7.9323  -17.8356   23.7068 C   0  0  0  0  0  0  0  0  0  0  0  0
    9.3792  -17.7913   23.3516 C   0  0  0  0  0  0  0  0  0  0  0  0
   10.0782  -18.9051   24.0371 C   0  0  0  0  0  0  0  0  0  0  0  0
    9.4406  -19.7012   24.7688 O   0  0  0  0  0  0  0  0  0  0  0  0
    6.9564  -15.7918   24.7166 C   0  0  0  0  0  0  0  0  0  0  0  0
    6.3253  -16.3395   25.6748 O   0  0  0  0  0  0  0  0  0  0  0  0
   11.4372  -19.0902   23.8870 O   0  0  0  0  0  0  0  0  0  0  0  0
   11.9222  -16.4469   29.2752 O   0  0  0  0  0  0  0  0  0  0  0  0
   11.0588  -15.5997   28.5828 C   0  0  0  0  0  0  0  0  0  0  0  0
   11.0099  -15.6137   27.2196 C   0  0  0  0  0  0  0  0  0  0  0  0
   10.1597  -14.7800   26.5262 C   0  0  0  0  0  0  0  0  0  0  0  0
    9.3500  -13.9218   27.2385 C   0  0  0  0  0  0  0  0  0  0  0  0
    8.4534  -13.0406   26.4828 C   0  0  0  0  0  0  0  0  0  0  0  0
    7.1417  -13.6777   26.0901 C   0  0  2  0  0  0  0  0  0  0  0  0
    7.4078  -14.4643   24.8768 N   0  0  0  0  0  0  0  0  0  0  0  0
    6.0670  -12.7093   25.8804 C   0  0  0  0  0  0  0  0  0  0  0  0
    5.5387  -12.0301   26.9790 O   0  0  0  0  0  0  0  0  0  0  0  0
    9.3872  -13.8957   28.6095 C   0  0  0  0  0  0  0  0  0  0  0  0
   10.2403  -14.7336   29.2744 C   0  0  0  0  0  0  0  0  0  0  0  0
    5.6139  -12.4803   24.7327 O   0  0  0  0  0  0  0  0  0  0  0  0
  1  5  1  0
  2  3  1  0
  2  1  1  0
  3  4  1  0
  5  4  1  0
  6  7  2  0
  5  6  1  1
  8  6  1  0
  9  8  1  0
  9 10  1  1
 11 10  1  0
 12 11  1  0
 13 12  2  0
 14  9  1  0
 14 15  2  0
 16 12  1  0
 18 17  1  0
 19 18  2  0
 20 19  1  0
 21 20  2  0
 21 27  1  0
 22 21  1  0
 23 24  1  0
 23 22  1  6
 24 14  1  0
 25 23  1  0
 26 25  1  0
 27 28  2  0
 28 18  1  0
 29 25  2  0
M  END
$$$$
