PEY.pdb
     RDKit          3D

 29 30  0  0  1  0  0  0  0  0999 V2000
    9.1997  -14.0005   19.3315 N   0  0  0  0  0  0  0  0  0  0  0  0
    8.8907  -12.8979   18.4394 C   0  0  0  0  0  0  0  0  0  0  0  0
    7.3893  -12.7992   18.5630 C   0  0  0  0  0  0  0  0  0  0  0  0
    7.0232  -13.5015   19.8662 C   0  0  0  0  0  0  0  0  0  0  0  0
    8.3970  -13.6649   20.4961 C   0  0  1  0  0  0  0  0  0  0  0  0
    8.4436  -14.7861   21.4577 C   0  0  0  0  0  0  0  0  0  0  0  0
    7.6377  -14.8337   22.4280 O   0  0  0  0  0  0  0  0  0  0  0  0
    9.4051  -15.8473   21.3123 N   0  0  0  0  0  0  0  0  0  0  0  0
    9.4802  -16.9110   22.2814 C   0  0  1  0  0  0  0  0  0  0  0  0
   10.4485  -18.0012   21.8825 C   0  0  0  0  0  0  0  0  0  0  0  0
   10.3998  -19.1857   22.7859 C   0  0  0  0  0  0  0  0  0  0  0  0
   11.3560  -20.2069   22.2939 C   0  0  0  0  0  0  0  0  0  0  0  0
   11.2818  -21.3934   22.6968 O   0  0  0  0  0  0  0  0  0  0  0  0
    9.7969  -16.3701   23.6329 C   0  0  0  0  0  0  0  0  0  0  0  0
   10.7843  -15.5893   23.8117 O   0  0  0  0  0  0  0  0  0  0  0  0
   12.3429  -19.8776   21.3877 O   0  0  0  0  0  0  0  0  0  0  0  0
    5.9719  -10.8627   26.0247 O   0  0  0  0  0  0  0  0  0  0  0  0
    6.4703  -12.1500   26.2170 C   0  0  0  0  0  0  0  0  0  0  0  0
    7.8135  -12.3747   26.2977 C   0  0  0  0  0  0  0  0  0  0  0  0
    8.3158  -13.6437   26.4877 C   0  0  0  0  0  0  0  0  0  0  0  0
    7.4310  -14.6947   26.5963 C   0  0  0  0  0  0  0  0  0  0  0  0
    7.9847  -16.0383   26.7959 C   0  0  0  0  0  0  0  0  0  0  0  0
    9.3105  -16.2718   26.1117 C   0  0  2  0  0  0  0  0  0  0  0  0
    9.0009  -16.7176   24.7452 N   0  0  0  0  0  0  0  0  0  0  0  0
   10.1631  -17.2309   26.8119 C   0  0  0  0  0  0  0  0  0  0  0  0
   10.4322  -18.4640   26.2166 O   0  0  0  0  0  0  0  0  0  0  0  0
    6.0776  -14.4854   26.5174 C   0  0  0  0  0  0  0  0  0  0  0  0
    5.6042  -13.2157   26.3284 C   0  0  0  0  0  0  0  0  0  0  0  0
   10.6547  -16.9637   27.9353 O   0  0  0  0  0  0  0  0  0  0  0  0
  1  5  1  0
  2  3  1  0
  2  1  1  0
  3  4  1  0
  5  4  1  0
  6  7  2  0
  5  6  1  1
  8  6  1  0
  9  8  1  0
  9 10  1  6
 11 10  1  0
 12 11  1  0
 13 12  2  0
 14  9  1  0
 14 15  2  0
 16 12  1  0
 18 17  1  0
 19 18  2  0
 20 19  1  0
 21 20  2  0
 21 27  1  0
 22 21  1  0
 23 24  1  0
 23 22  1  1
 24 14  1  0
 25 23  1  0
 26 25  1  0
 27 28  2  0
 28 18  1  0
 29 25  2  0
M  END
$$$$
