PEY.pdb
     RDKit          3D

 29 30  0  0  1  0  0  0  0  0999 V2000
    9.1010  -14.3683   18.8927 N   0  0  0  0  0  0  0  0  0  0  0  0
    9.0769  -13.2745   17.9387 C   0  0  0  0  0  0  0  0  0  0  0  0
    7.6777  -12.7337   18.1093 C   0  0  0  0  0  0  0  0  0  0  0  0
    7.1953  -13.2249   19.4700 C   0  0  0  0  0  0  0  0  0  0  0  0
    8.4949  -13.7486   20.0598 C   0  0  1  0  0  0  0  0  0  0  0  0
    8.2667  -14.7795   21.0937 C   0  0  0  0  0  0  0  0  0  0  0  0
    7.5693  -14.5223   22.1138 O   0  0  0  0  0  0  0  0  0  0  0  0
    8.8316  -16.0969   20.9638 N   0  0  0  0  0  0  0  0  0  0  0  0
    8.6448  -17.0836   21.9972 C   0  0  1  0  0  0  0  0  0  0  0  0
    9.1812  -18.4439   21.6138 C   0  0  0  0  0  0  0  0  0  0  0  0
    8.9947  -19.4679   22.6807 C   0  0  0  0  0  0  0  0  0  0  0  0
    9.5342  -20.7644   22.2041 C   0  0  0  0  0  0  0  0  0  0  0  0
   10.5840  -20.8020   21.5171 O   0  0  0  0  0  0  0  0  0  0  0  0
    9.2266  -16.6129   23.2854 C   0  0  0  0  0  0  0  0  0  0  0  0
   10.4007  -16.1279   23.3361 O   0  0  0  0  0  0  0  0  0  0  0  0
    8.8979  -21.9515   22.5035 O   0  0  0  0  0  0  0  0  0  0  0  0
    6.3514  -10.5304   26.0406 O   0  0  0  0  0  0  0  0  0  0  0  0
    6.7304  -11.8634   26.1897 C   0  0  0  0  0  0  0  0  0  0  0  0
    5.7930  -12.8480   26.3037 C   0  0  0  0  0  0  0  0  0  0  0  0
    6.1578  -14.1686   26.4513 C   0  0  0  0  0  0  0  0  0  0  0  0
    7.4992  -14.4836   26.4826 C   0  0  0  0  0  0  0  0  0  0  0  0
    7.8678  -15.8942   26.6427 C   0  0  0  0  0  0  0  0  0  0  0  0
    9.0351  -16.3320   25.7904 C   0  0  2  0  0  0  0  0  0  0  0  0
    8.4791  -16.6980   24.4794 N   0  0  0  0  0  0  0  0  0  0  0  0
    9.8014  -17.4300   26.3770 C   0  0  0  0  0  0  0  0  0  0  0  0
   10.6921  -17.1593   27.4166 O   0  0  0  0  0  0  0  0  0  0  0  0
    8.4540  -13.5052   26.3692 C   0  0  0  0  0  0  0  0  0  0  0  0
    8.0656  -12.2014   26.2235 C   0  0  0  0  0  0  0  0  0  0  0  0
    9.6714  -18.6072   25.9619 O   0  0  0  0  0  0  0  0  0  0  0  0
  1  5  1  0
  2  3  1  0
  2  1  1  0
  3  4  1  0
  5  4  1  0
  6  7  2  0
  5  6  1  1
  8  6  1  0
  9  8  1  0
  9 10  1  6
 11 10  1  0
 12 11  1  0
 13 12  2  0
 14  9  1  0
 14 15  2  0
 16 12  1  0
 18 17  1  0
 19 18  2  0
 20 19  1  0
 21 20  2  0
 21 27  1  0
 22 21  1  0
 23 24  1  0
 23 22  1  1
 24 14  1  0
 25 23  1  0
 26 25  1  0
 27 28  2  0
 28 18  1  0
 29 25  2  0
M  END
$$$$
