PEY.pdb
     RDKit          3D

 29 30  0  0  1  0  0  0  0  0999 V2000
    8.4987  -14.6514   19.0666 N   0  0  0  0  0  0  0  0  0  0  0  0
    8.6817  -13.6921   17.9927 C   0  0  0  0  0  0  0  0  0  0  0  0
    7.6285  -12.6571   18.3073 C   0  0  0  0  0  0  0  0  0  0  0  0
    7.2761  -12.8433   19.7792 C   0  0  0  0  0  0  0  0  0  0  0  0
    8.3917  -13.7762   20.2223 C   0  0  1  0  0  0  0  0  0  0  0  0
    8.0161  -14.5777   21.4056 C   0  0  0  0  0  0  0  0  0  0  0  0
    7.7382  -14.0148   22.5006 O   0  0  0  0  0  0  0  0  0  0  0  0
    7.9580  -16.0144   21.3392 N   0  0  0  0  0  0  0  0  0  0  0  0
    7.5629  -16.7894   22.4880 C   0  0  1  0  0  0  0  0  0  0  0  0
    7.4242  -18.2633   22.1821 C   0  0  0  0  0  0  0  0  0  0  0  0
    6.8205  -19.0387   23.3027 C   0  0  0  0  0  0  0  0  0  0  0  0
    6.7412  -20.4673   22.9128 C   0  0  0  0  0  0  0  0  0  0  0  0
    5.7129  -20.9164   22.3503 O   0  0  0  0  0  0  0  0  0  0  0  0
    8.4951  -16.5555   23.6263 C   0  0  0  0  0  0  0  0  0  0  0  0
    9.7486  -16.4572   23.4376 O   0  0  0  0  0  0  0  0  0  0  0  0
    7.7898  -21.3297   23.1582 O   0  0  0  0  0  0  0  0  0  0  0  0
    6.4760  -10.3448   25.8469 O   0  0  0  0  0  0  0  0  0  0  0  0
    6.8614  -11.6435   26.1750 C   0  0  0  0  0  0  0  0  0  0  0  0
    8.1720  -11.9477   26.4003 C   0  0  0  0  0  0  0  0  0  0  0  0
    8.5629  -13.2286   26.7251 C   0  0  0  0  0  0  0  0  0  0  0  0
    7.5990  -14.2091   26.8201 C   0  0  0  0  0  0  0  0  0  0  0  0
    8.0346  -15.5666   27.1646 C   0  0  0  0  0  0  0  0  0  0  0  0
    8.8764  -16.2368   26.1049 C   0  0  2  0  0  0  0  0  0  0  0  0
    7.9991  -16.4381   24.9423 N   0  0  0  0  0  0  0  0  0  0  0  0
    9.4779  -17.4923   26.5507 C   0  0  0  0  0  0  0  0  0  0  0  0
    9.0508  -18.6921   25.9804 O   0  0  0  0  0  0  0  0  0  0  0  0
    6.2769  -13.9192   26.5966 C   0  0  0  0  0  0  0  0  0  0  0  0
    5.9148  -12.6395   26.2755 C   0  0  0  0  0  0  0  0  0  0  0  0
   10.3687  -17.5078   27.4347 O   0  0  0  0  0  0  0  0  0  0  0  0
  1  5  1  0
  2  3  1  0
  2  1  1  0
  3  4  1  0
  5  4  1  0
  6  7  2  0
  5  6  1  1
  8  6  1  0
  9  8  1  0
  9 10  1  6
 11 10  1  0
 12 11  1  0
 13 12  2  0
 14  9  1  0
 14 15  2  0
 16 12  1  0
 18 17  1  0
 19 18  2  0
 20 19  1  0
 21 20  2  0
 21 27  1  0
 22 21  1  0
 23 24  1  0
 23 22  1  1
 24 14  1  0
 25 23  1  0
 26 25  1  0
 27 28  2  0
 28 18  1  0
 29 25  2  0
M  END
$$$$
