PEY.pdb
     RDKit          3D

 29 30  0  0  1  0  0  0  0  0999 V2000
    8.7622  -14.2505   18.0805 N   0  0  0  0  0  0  0  0  0  0  0  0
    8.1793  -13.2410   17.2155 C   0  0  0  0  0  0  0  0  0  0  0  0
    6.8446  -12.9889   17.8745 C   0  0  0  0  0  0  0  0  0  0  0  0
    6.9776  -13.4898   19.3087 C   0  0  0  0  0  0  0  0  0  0  0  0
    8.4803  -13.7021   19.3970 C   0  0  1  0  0  0  0  0  0  0  0  0
    8.8469  -14.6971   20.4263 C   0  0  0  0  0  0  0  0  0  0  0  0
    8.4995  -14.5346   21.6288 O   0  0  0  0  0  0  0  0  0  0  0  0
    9.6061  -15.8712   20.0846 N   0  0  0  0  0  0  0  0  0  0  0  0
    9.8547  -16.8984   21.0642 C   0  0  1  0  0  0  0  0  0  0  0  0
   10.6634  -18.0509   20.5138 C   0  0  0  0  0  0  0  0  0  0  0  0
   10.3581  -18.3501   19.0860 C   0  0  0  0  0  0  0  0  0  0  0  0
   11.2398  -19.4496   18.6246 C   0  0  0  0  0  0  0  0  0  0  0  0
   12.4875  -19.3125   18.6393 O   0  0  0  0  0  0  0  0  0  0  0  0
   10.4893  -16.3212   22.2822 C   0  0  0  0  0  0  0  0  0  0  0  0
   11.5979  -15.7025   22.2133 O   0  0  0  0  0  0  0  0  0  0  0  0
   10.7116  -20.6409   18.1715 O   0  0  0  0  0  0  0  0  0  0  0  0
   11.0167  -14.2635   30.9098 O   0  0  0  0  0  0  0  0  0  0  0  0
   10.6032  -14.6541   29.6374 C   0  0  0  0  0  0  0  0  0  0  0  0
   10.4986  -15.9746   29.3112 C   0  0  0  0  0  0  0  0  0  0  0  0
   10.0908  -16.3708   28.0560 C   0  0  0  0  0  0  0  0  0  0  0  0
    9.7867  -15.4019   27.1242 C   0  0  0  0  0  0  0  0  0  0  0  0
    9.3566  -15.8431   25.7930 C   0  0  0  0  0  0  0  0  0  0  0  0
   10.4739  -15.9491   24.7825 C   0  0  2  0  0  0  0  0  0  0  0  0
    9.8666  -16.4525   23.5418 N   0  0  0  0  0  0  0  0  0  0  0  0
   11.5778  -16.7985   25.2262 C   0  0  0  0  0  0  0  0  0  0  0  0
   11.4597  -18.1842   25.1102 O   0  0  0  0  0  0  0  0  0  0  0  0
    9.8867  -14.0700   27.4365 C   0  0  0  0  0  0  0  0  0  0  0  0
   10.2940  -13.7028   28.6900 C   0  0  0  0  0  0  0  0  0  0  0  0
   12.6256  -16.3032   25.7076 O   0  0  0  0  0  0  0  0  0  0  0  0
  1  5  1  0
  2  3  1  0
  2  1  1  0
  3  4  1  0
  5  4  1  0
  6  7  2  0
  5  6  1  1
  8  6  1  0
  9  8  1  0
  9 10  1  6
 11 10  1  0
 12 11  1  0
 13 12  2  0
 14  9  1  0
 14 15  2  0
 16 12  1  0
 18 17  1  0
 19 18  2  0
 20 19  1  0
 21 20  2  0
 21 27  1  0
 22 21  1  0
 23 24  1  0
 23 22  1  1
 24 14  1  0
 25 23  1  0
 26 25  1  0
 27 28  2  0
 28 18  1  0
 29 25  2  0
M  END
$$$$
