PEY.pdb
     RDKit          3D

 29 30  0  0  1  0  0  0  0  0999 V2000
    9.1438  -14.0732   18.3681 N   0  0  0  0  0  0  0  0  0  0  0  0
    8.6721  -12.9343   17.6016 C   0  0  0  0  0  0  0  0  0  0  0  0
    7.2103  -12.8822   17.9754 C   0  0  0  0  0  0  0  0  0  0  0  0
    7.0773  -13.6607   19.2799 C   0  0  0  0  0  0  0  0  0  0  0  0
    8.5391  -13.8201   19.6656 C   0  0  1  0  0  0  0  0  0  0  0  0
    8.7639  -14.9881   20.5425 C   0  0  0  0  0  0  0  0  0  0  0  0
    8.1252  -15.1112   21.6242 O   0  0  0  0  0  0  0  0  0  0  0  0
    9.7129  -16.0100   20.1865 N   0  0  0  0  0  0  0  0  0  0  0  0
   10.0634  -17.0479   21.1226 C   0  0  1  0  0  0  0  0  0  0  0  0
   11.0095  -18.0713   20.5371 C   0  0  0  0  0  0  0  0  0  0  0  0
   10.5646  -18.5880   19.2118 C   0  0  0  0  0  0  0  0  0  0  0  0
   11.7448  -19.0962   18.4715 C   0  0  0  0  0  0  0  0  0  0  0  0
   12.7910  -19.4171   19.0864 O   0  0  0  0  0  0  0  0  0  0  0  0
   10.6069  -16.4612   22.3795 C   0  0  0  0  0  0  0  0  0  0  0  0
   11.5157  -15.5726   22.3488 O   0  0  0  0  0  0  0  0  0  0  0  0
   11.7195  -19.2268   17.0982 O   0  0  0  0  0  0  0  0  0  0  0  0
   10.9531  -14.3725   30.9445 O   0  0  0  0  0  0  0  0  0  0  0  0
   10.6109  -14.7411   29.6446 C   0  0  0  0  0  0  0  0  0  0  0  0
   10.3870  -13.7963   28.6863 C   0  0  0  0  0  0  0  0  0  0  0  0
   10.0483  -14.1507   27.3984 C   0  0  0  0  0  0  0  0  0  0  0  0
    9.9378  -15.4893   27.0893 C   0  0  0  0  0  0  0  0  0  0  0  0
    9.5742  -15.8468   25.7140 C   0  0  0  0  0  0  0  0  0  0  0  0
   10.7055  -16.4358   24.9054 C   0  0  2  0  0  0  0  0  0  0  0  0
   10.1188  -16.8846   23.6341 N   0  0  0  0  0  0  0  0  0  0  0  0
   11.4034  -17.5221   25.5908 C   0  0  0  0  0  0  0  0  0  0  0  0
   12.5073  -17.2242   26.3907 O   0  0  0  0  0  0  0  0  0  0  0  0
   10.1598  -16.4514   28.0416 C   0  0  0  0  0  0  0  0  0  0  0  0
   10.4949  -16.0733   29.3130 C   0  0  0  0  0  0  0  0  0  0  0  0
   11.0268  -18.7134   25.4715 O   0  0  0  0  0  0  0  0  0  0  0  0
  1  5  1  0
  2  3  1  0
  2  1  1  0
  3  4  1  0
  5  4  1  0
  6  7  2  0
  5  6  1  1
  8  6  1  0
  9  8  1  0
  9 10  1  6
 11 10  1  0
 12 11  1  0
 13 12  2  0
 14  9  1  0
 14 15  2  0
 16 12  1  0
 18 17  1  0
 19 18  2  0
 20 19  1  0
 21 20  2  0
 21 27  1  0
 22 21  1  0
 23 24  1  0
 23 22  1  1
 24 14  1  0
 25 23  1  0
 26 25  1  0
 27 28  2  0
 28 18  1  0
 29 25  2  0
M  END
$$$$
