PEY.pdb
     RDKit          3D

 29 30  0  0  1  0  0  0  0  0999 V2000
    8.8509  -14.2058   19.8280 N   0  0  0  0  0  0  0  0  0  0  0  0
    8.3812  -13.2112   18.8808 C   0  0  0  0  0  0  0  0  0  0  0  0
    6.8901  -13.2257   19.1168 C   0  0  0  0  0  0  0  0  0  0  0  0
    6.6842  -13.8433   20.4957 C   0  0  0  0  0  0  0  0  0  0  0  0
    8.1097  -13.8402   21.0239 C   0  0  1  0  0  0  0  0  0  0  0  0
    8.3255  -14.8688   22.0627 C   0  0  0  0  0  0  0  0  0  0  0  0
    7.5410  -14.9616   23.0471 O   0  0  0  0  0  0  0  0  0  0  0  0
    9.4310  -15.7867   21.9780 N   0  0  0  0  0  0  0  0  0  0  0  0
    9.5710  -16.8607   22.9285 C   0  0  1  0  0  0  0  0  0  0  0  0
   10.5910  -17.8919   22.5028 C   0  0  0  0  0  0  0  0  0  0  0  0
   10.4295  -18.3236   21.0854 C   0  0  0  0  0  0  0  0  0  0  0  0
   11.5671  -19.2001   20.7157 C   0  0  0  0  0  0  0  0  0  0  0  0
   12.5360  -18.7422   20.0622 O   0  0  0  0  0  0  0  0  0  0  0  0
    9.8721  -16.3259   24.2860 C   0  0  0  0  0  0  0  0  0  0  0  0
   10.7476  -15.4195   24.4542 O   0  0  0  0  0  0  0  0  0  0  0  0
   11.5859  -20.5309   21.0796 O   0  0  0  0  0  0  0  0  0  0  0  0
    6.2551  -11.0526   25.5067 O   0  0  0  0  0  0  0  0  0  0  0  0
    6.7441  -12.2685   25.9812 C   0  0  0  0  0  0  0  0  0  0  0  0
    6.0413  -13.4234   25.7991 C   0  0  0  0  0  0  0  0  0  0  0  0
    6.5165  -14.6303   26.2645 C   0  0  0  0  0  0  0  0  0  0  0  0
    7.7262  -14.6535   26.9244 C   0  0  0  0  0  0  0  0  0  0  0  0
    8.2143  -15.9470   27.4144 C   0  0  0  0  0  0  0  0  0  0  0  0
    9.5112  -16.3998   26.7869 C   0  0  2  0  0  0  0  0  0  0  0  0
    9.1860  -16.8198   25.4160 N   0  0  0  0  0  0  0  0  0  0  0  0
   10.1755  -17.4660   27.5346 C   0  0  0  0  0  0  0  0  0  0  0  0
   10.3310  -18.7191   26.9405 O   0  0  0  0  0  0  0  0  0  0  0  0
    8.4450  -13.5009   27.1155 C   0  0  0  0  0  0  0  0  0  0  0  0
    7.9513  -12.3153   26.6437 C   0  0  0  0  0  0  0  0  0  0  0  0
   10.6063  -17.2727   28.6974 O   0  0  0  0  0  0  0  0  0  0  0  0
  1  5  1  0
  2  3  1  0
  2  1  1  0
  3  4  1  0
  5  4  1  0
  6  7  2  0
  5  6  1  1
  8  6  1  0
  9  8  1  0
  9 10  1  6
 11 10  1  0
 12 11  1  0
 13 12  2  0
 14  9  1  0
 14 15  2  0
 16 12  1  0
 18 17  1  0
 19 18  2  0
 20 19  1  0
 21 20  2  0
 21 27  1  0
 22 21  1  0
 23 24  1  0
 23 22  1  1
 24 14  1  0
 25 23  1  0
 26 25  1  0
 27 28  2  0
 28 18  1  0
 29 25  2  0
M  END
$$$$
