PEY.pdb
     RDKit          3D

 29 30  0  0  1  0  0  0  0  0999 V2000
    8.9843  -14.2001   19.3068 N   0  0  0  0  0  0  0  0  0  0  0  0
    8.8785  -13.1077   18.3567 C   0  0  0  0  0  0  0  0  0  0  0  0
    7.4586  -12.6396   18.5663 C   0  0  0  0  0  0  0  0  0  0  0  0
    7.0389  -13.1566   19.9382 C   0  0  0  0  0  0  0  0  0  0  0  0
    8.3791  -13.6137   20.4913 C   0  0  1  0  0  0  0  0  0  0  0  0
    8.2319  -14.6562   21.5284 C   0  0  0  0  0  0  0  0  0  0  0  0
    7.5130  -14.4529   22.5457 O   0  0  0  0  0  0  0  0  0  0  0  0
    8.9020  -15.9240   21.4046 N   0  0  0  0  0  0  0  0  0  0  0  0
    8.6259  -16.9961   22.3271 C   0  0  1  0  0  0  0  0  0  0  0  0
    9.1796  -18.3248   21.8654 C   0  0  0  0  0  0  0  0  0  0  0  0
    8.6817  -18.7302   20.5204 C   0  0  0  0  0  0  0  0  0  0  0  0
    9.3571  -19.9865   20.1147 C   0  0  0  0  0  0  0  0  0  0  0  0
   10.5506  -20.2000   20.4396 O   0  0  0  0  0  0  0  0  0  0  0  0
    9.1079  -16.6513   23.6939 C   0  0  0  0  0  0  0  0  0  0  0  0
   10.2176  -16.0555   23.8669 O   0  0  0  0  0  0  0  0  0  0  0  0
    8.6927  -20.9433   19.3753 O   0  0  0  0  0  0  0  0  0  0  0  0
    6.6059  -10.6796   26.1225 O   0  0  0  0  0  0  0  0  0  0  0  0
    6.8499  -12.0372   26.3227 C   0  0  0  0  0  0  0  0  0  0  0  0
    5.8203  -12.9293   26.3936 C   0  0  0  0  0  0  0  0  0  0  0  0
    6.0514  -14.2733   26.5913 C   0  0  0  0  0  0  0  0  0  0  0  0
    7.3532  -14.7079   26.7179 C   0  0  0  0  0  0  0  0  0  0  0  0
    7.5789  -16.1416   26.9301 C   0  0  0  0  0  0  0  0  0  0  0  0
    8.7788  -16.6964   26.1999 C   0  0  2  0  0  0  0  0  0  0  0  0
    8.3354  -16.9825   24.8276 N   0  0  0  0  0  0  0  0  0  0  0  0
    9.3506  -17.8797   26.8400 C   0  0  0  0  0  0  0  0  0  0  0  0
    9.3283  -19.0987   26.1610 O   0  0  0  0  0  0  0  0  0  0  0  0
    8.3995  -13.8235   26.6489 C   0  0  0  0  0  0  0  0  0  0  0  0
    8.1433  -12.4940   26.4519 C   0  0  0  0  0  0  0  0  0  0  0  0
    9.8590  -17.8167   27.9856 O   0  0  0  0  0  0  0  0  0  0  0  0
  1  5  1  0
  2  3  1  0
  2  1  1  0
  3  4  1  0
  5  4  1  0
  6  7  2  0
  5  6  1  1
  8  6  1  0
  9  8  1  0
  9 10  1  6
 11 10  1  0
 12 11  1  0
 13 12  2  0
 14  9  1  0
 14 15  2  0
 16 12  1  0
 18 17  1  0
 19 18  2  0
 20 19  1  0
 21 20  2  0
 21 27  1  0
 22 21  1  0
 23 24  1  0
 23 22  1  1
 24 14  1  0
 25 23  1  0
 26 25  1  0
 27 28  2  0
 28 18  1  0
 29 25  2  0
M  END
$$$$
