PEY.pdb
     RDKit          3D

 29 30  0  0  1  0  0  0  0  0999 V2000
    8.9626  -14.2151   18.1672 N   0  0  0  0  0  0  0  0  0  0  0  0
    8.4986  -13.1089   17.3497 C   0  0  0  0  0  0  0  0  0  0  0  0
    7.0966  -12.8962   17.8678 C   0  0  0  0  0  0  0  0  0  0  0  0
    7.0502  -13.5452   19.2469 C   0  0  0  0  0  0  0  0  0  0  0  0
    8.5290  -13.7993   19.4909 C   0  0  1  0  0  0  0  0  0  0  0  0
    8.7585  -14.9031   20.4463 C   0  0  0  0  0  0  0  0  0  0  0  0
    8.2467  -14.8709   21.5996 O   0  0  0  0  0  0  0  0  0  0  0  0
    9.5681  -16.0376   20.0869 N   0  0  0  0  0  0  0  0  0  0  0  0
    9.8435  -17.0788   21.0443 C   0  0  1  0  0  0  0  0  0  0  0  0
   10.6986  -18.1880   20.4755 C   0  0  0  0  0  0  0  0  0  0  0  0
   10.9111  -19.3114   21.4317 C   0  0  0  0  0  0  0  0  0  0  0  0
   11.7171  -20.3641   20.7674 C   0  0  0  0  0  0  0  0  0  0  0  0
   12.0638  -21.3923   21.3986 O   0  0  0  0  0  0  0  0  0  0  0  0
   10.4447  -16.5091   22.2827 C   0  0  0  0  0  0  0  0  0  0  0  0
   11.3986  -15.6707   22.2226 O   0  0  0  0  0  0  0  0  0  0  0  0
   12.1019  -20.2377   19.4485 O   0  0  0  0  0  0  0  0  0  0  0  0
   10.6564  -14.4707   30.8944 O   0  0  0  0  0  0  0  0  0  0  0  0
   10.3212  -14.8545   29.5971 C   0  0  0  0  0  0  0  0  0  0  0  0
   10.2817  -16.1722   29.2463 C   0  0  0  0  0  0  0  0  0  0  0  0
    9.9514  -16.5615   27.9663 C   0  0  0  0  0  0  0  0  0  0  0  0
    9.6583  -15.5887   27.0351 C   0  0  0  0  0  0  0  0  0  0  0  0
    9.3113  -16.0225   25.6776 C   0  0  0  0  0  0  0  0  0  0  0  0
   10.5011  -16.3429   24.8045 C   0  0  2  0  0  0  0  0  0  0  0  0
    9.9623  -16.8931   23.5521 N   0  0  0  0  0  0  0  0  0  0  0  0
   11.4504  -17.2601   25.4324 C   0  0  0  0  0  0  0  0  0  0  0  0
   12.5503  -16.7393   26.1154 O   0  0  0  0  0  0  0  0  0  0  0  0
    9.6936  -14.2594   27.3722 C   0  0  0  0  0  0  0  0  0  0  0  0
   10.0244  -13.8990   28.6499 C   0  0  0  0  0  0  0  0  0  0  0  0
   11.2924  -18.5034   25.3672 O   0  0  0  0  0  0  0  0  0  0  0  0
  1  5  1  0
  2  3  1  0
  2  1  1  0
  3  4  1  0
  5  4  1  0
  6  7  2  0
  5  6  1  1
  8  6  1  0
  9  8  1  0
  9 10  1  6
 11 10  1  0
 12 11  1  0
 13 12  2  0
 14  9  1  0
 14 15  2  0
 16 12  1  0
 18 17  1  0
 19 18  2  0
 20 19  1  0
 21 20  2  0
 21 27  1  0
 22 21  1  0
 23 24  1  0
 23 22  1  1
 24 14  1  0
 25 23  1  0
 26 25  1  0
 27 28  2  0
 28 18  1  0
 29 25  2  0
M  END
$$$$
