PEY.pdb
     RDKit          3D

 29 30  0  0  1  0  0  0  0  0999 V2000
    8.8386  -14.3793   17.8988 N   0  0  0  0  0  0  0  0  0  0  0  0
    8.3732  -13.3429   16.9952 C   0  0  0  0  0  0  0  0  0  0  0  0
    6.9989  -13.0382   17.5407 C   0  0  0  0  0  0  0  0  0  0  0  0
    6.9889  -13.5500   18.9772 C   0  0  0  0  0  0  0  0  0  0  0  0
    8.4686  -13.8251   19.1908 C   0  0  1  0  0  0  0  0  0  0  0  0
    8.7053  -14.8386   20.2399 C   0  0  0  0  0  0  0  0  0  0  0  0
    8.2402  -14.6799   21.4025 O   0  0  0  0  0  0  0  0  0  0  0  0
    9.4688  -16.0269   19.9631 N   0  0  0  0  0  0  0  0  0  0  0  0
    9.6597  -17.0325   20.9774 C   0  0  1  0  0  0  0  0  0  0  0  0
   10.4185  -18.2387   20.4726 C   0  0  0  0  0  0  0  0  0  0  0  0
    9.7410  -18.9209   19.3338 C   0  0  0  0  0  0  0  0  0  0  0  0
   10.5898  -20.0458   18.8718 C   0  0  0  0  0  0  0  0  0  0  0  0
   11.0282  -20.0699   17.6958 O   0  0  0  0  0  0  0  0  0  0  0  0
   10.3096  -16.4467   22.1832 C   0  0  0  0  0  0  0  0  0  0  0  0
   11.4446  -15.8791   22.1058 O   0  0  0  0  0  0  0  0  0  0  0  0
   10.9148  -21.0850   19.7191 O   0  0  0  0  0  0  0  0  0  0  0  0
   10.8971  -14.3429   30.7974 O   0  0  0  0  0  0  0  0  0  0  0  0
   10.4684  -14.7036   29.5212 C   0  0  0  0  0  0  0  0  0  0  0  0
   10.3771  -16.0158   29.1595 C   0  0  0  0  0  0  0  0  0  0  0  0
    9.9544  -16.3824   27.9002 C   0  0  0  0  0  0  0  0  0  0  0  0
    9.6214  -15.3923   27.0012 C   0  0  0  0  0  0  0  0  0  0  0  0
    9.1758  -15.8021   25.6651 C   0  0  0  0  0  0  0  0  0  0  0  0
   10.2954  -16.0081   24.6728 C   0  0  2  0  0  0  0  0  0  0  0  0
    9.6719  -16.5124   23.4405 N   0  0  0  0  0  0  0  0  0  0  0  0
   11.3402  -16.9088   25.1566 C   0  0  0  0  0  0  0  0  0  0  0  0
   11.1415  -18.2877   25.0753 O   0  0  0  0  0  0  0  0  0  0  0  0
    9.7078  -14.0683   27.3495 C   0  0  0  0  0  0  0  0  0  0  0  0
   10.1304  -13.7306   28.6062 C   0  0  0  0  0  0  0  0  0  0  0  0
   12.4084  -16.4633   25.6418 O   0  0  0  0  0  0  0  0  0  0  0  0
  1  5  1  0
  2  3  1  0
  2  1  1  0
  3  4  1  0
  5  4  1  0
  6  7  2  0
  5  6  1  1
  8  6  1  0
  9  8  1  0
  9 10  1  6
 11 10  1  0
 12 11  1  0
 13 12  2  0
 14  9  1  0
 14 15  2  0
 16 12  1  0
 18 17  1  0
 19 18  2  0
 20 19  1  0
 21 20  2  0
 21 27  1  0
 22 21  1  0
 23 24  1  0
 23 22  1  1
 24 14  1  0
 25 23  1  0
 26 25  1  0
 27 28  2  0
 28 18  1  0
 29 25  2  0
M  END
$$$$
