GCF.pdb
     RDKit          3D

 22 22  0  0  1  0  0  0  0  0999 V2000
   29.0803  -18.2527  -15.3332 N   0  0  0  0  0  0  0  0  0  0  0  0
   28.6572  -19.4690  -14.6644 C   0  0  0  0  0  0  0  0  0  0  0  0
   27.5463  -19.2014  -13.7136 C   0  0  0  0  0  0  0  0  0  0  0  0
   26.6809  -18.3638  -14.0053 O   0  0  0  0  0  0  0  0  0  0  0  0
   27.4559  -19.8963  -12.4603 N   0  0  0  0  0  0  0  0  0  0  0  0
   26.1857  -20.1369  -11.8110 C   0  0  1  0  0  0  0  0  0  0  0  0
   25.4808  -21.2821  -12.5509 C   0  0  0  0  0  0  0  0  0  0  0  0
   23.7932  -21.5047  -12.0111 S   0  0  0  0  0  0  0  0  0  0  0  0
   26.4530  -20.6461  -10.4438 C   0  0  0  0  0  0  0  0  0  0  0  0
   26.8989  -21.8103  -10.3227 O   0  0  0  0  0  0  0  0  0  0  0  0
   26.2298  -19.8846   -9.2773 N   0  0  0  0  0  0  0  0  0  0  0  0
   26.1926  -20.5502   -7.9964 C   0  0  1  0  0  0  0  0  0  0  0  0
   26.3197  -19.5600   -6.8613 C   0  0  0  0  0  0  0  0  0  0  0  0
   27.6105  -19.7189   -6.1701 C   0  0  0  0  0  0  0  0  0  0  0  0
   28.4205  -18.6271   -5.9459 C   0  0  0  0  0  0  0  0  0  0  0  0
   29.6152  -18.7955   -5.2953 C   0  0  0  0  0  0  0  0  0  0  0  0
   30.0601  -20.0165   -4.8451 C   0  0  0  0  0  0  0  0  0  0  0  0
   29.2586  -21.1190   -5.0631 C   0  0  0  0  0  0  0  0  0  0  0  0
   28.0572  -20.9610   -5.7152 C   0  0  0  0  0  0  0  0  0  0  0  0
   24.9452  -21.3431   -7.9659 C   0  0  0  0  0  0  0  0  0  0  0  0
   23.9463  -20.9944   -8.6354 O   0  0  0  0  0  0  0  0  0  0  0  0
   24.8289  -22.4935   -7.2036 O   0  0  0  0  0  0  0  0  0  0  0  0
  2  1  1  0
  3  2  1  0
  4  3  2  0
  5  3  1  0
  6  5  1  0
  6  9  1  0
  6  7  1  6
  8  7  1  0
  9 10  2  0
 11  9  1  0
 11 12  1  0
 12 13  1  1
 13 14  1  0
 14 19  2  0
 15 16  2  0
 15 14  1  0
 16 17  1  0
 17 18  2  0
 19 18  1  0
 20 12  1  0
 20 22  1  0
 21 20  2  0
M  END
$$$$
