GCF.pdb
     RDKit          3D

 22 22  0  0  1  0  0  0  0  0999 V2000
   30.9864  -25.3720  -16.6908 N   0  0  0  0  0  0  0  0  0  0  0  0
   30.1928  -24.4917  -17.5282 C   0  0  0  0  0  0  0  0  0  0  0  0
   29.5563  -23.4149  -16.7251 C   0  0  0  0  0  0  0  0  0  0  0  0
   29.6254  -23.4530  -15.4884 O   0  0  0  0  0  0  0  0  0  0  0  0
   28.8610  -22.3284  -17.3557 N   0  0  0  0  0  0  0  0  0  0  0  0
   28.2733  -21.2512  -16.5893 C   0  0  1  0  0  0  0  0  0  0  0  0
   28.1469  -20.0268  -17.5062 C   0  0  0  0  0  0  0  0  0  0  0  0
   29.7056  -19.1867  -17.7388 S   0  0  0  0  0  0  0  0  0  0  0  0
   26.8844  -21.6358  -16.2387 C   0  0  0  0  0  0  0  0  0  0  0  0
   26.1648  -22.1353  -17.1341 O   0  0  0  0  0  0  0  0  0  0  0  0
   26.3369  -21.4668  -14.9494 N   0  0  0  0  0  0  0  0  0  0  0  0
   24.9844  -21.9035  -14.6943 C   0  0  1  0  0  0  0  0  0  0  0  0
   24.6948  -21.9494  -13.2114 C   0  0  0  0  0  0  0  0  0  0  0  0
   23.2998  -22.3511  -12.9626 C   0  0  0  0  0  0  0  0  0  0  0  0
   22.3706  -21.4229  -12.5461 C   0  0  0  0  0  0  0  0  0  0  0  0
   21.0760  -21.8161  -12.3259 C   0  0  0  0  0  0  0  0  0  0  0  0
   20.6436  -23.1099  -12.5004 C   0  0  0  0  0  0  0  0  0  0  0  0
   21.5641  -24.0502  -12.9172 C   0  0  0  0  0  0  0  0  0  0  0  0
   22.8664  -23.6662  -13.1412 C   0  0  0  0  0  0  0  0  0  0  0  0
   24.0954  -20.9981  -15.4530 C   0  0  0  0  0  0  0  0  0  0  0  0
   23.1227  -21.4475  -16.1006 O   0  0  0  0  0  0  0  0  0  0  0  0
   24.2980  -19.6283  -15.4797 O   0  0  0  0  0  0  0  0  0  0  0  0
  2  1  1  0
  3  2  1  0
  4  3  2  0
  5  3  1  0
  6  5  1  0
  6  9  1  0
  6  7  1  6
  8  7  1  0
  9 10  2  0
 11  9  1  0
 11 12  1  0
 12 13  1  1
 13 14  1  0
 14 19  2  0
 15 16  2  0
 15 14  1  0
 16 17  1  0
 17 18  2  0
 19 18  1  0
 20 12  1  0
 20 22  1  0
 21 20  2  0
M  END
$$$$
