GCF.pdb
     RDKit          3D

 22 22  0  0  1  0  0  0  0  0999 V2000
   25.7980  -14.1416  -19.4943 N   0  0  0  0  0  0  0  0  0  0  0  0
   24.6118  -13.7854  -18.7382 C   0  0  0  0  0  0  0  0  0  0  0  0
   24.1981  -12.3847  -19.0149 C   0  0  0  0  0  0  0  0  0  0  0  0
   24.9221  -11.6603  -19.7126 O   0  0  0  0  0  0  0  0  0  0  0  0
   22.9728  -11.8528  -18.4882 N   0  0  0  0  0  0  0  0  0  0  0  0
   22.5096  -10.5246  -18.8265 C   0  0  1  0  0  0  0  0  0  0  0  0
   21.0867  -10.6442  -19.3892 C   0  0  0  0  0  0  0  0  0  0  0  0
   20.3337   -9.0514  -19.6808 S   0  0  0  0  0  0  0  0  0  0  0  0
   22.3813   -9.7447  -17.5714 C   0  0  0  0  0  0  0  0  0  0  0  0
   21.7918  -10.2761  -16.6023 O   0  0  0  0  0  0  0  0  0  0  0  0
   22.8897   -8.4377  -17.4173 N   0  0  0  0  0  0  0  0  0  0  0  0
   22.8077   -7.7963  -16.1262 C   0  0  1  0  0  0  0  0  0  0  0  0
   24.1779   -7.4056  -15.6213 C   0  0  0  0  0  0  0  0  0  0  0  0
   25.0766   -8.5722  -15.5902 C   0  0  0  0  0  0  0  0  0  0  0  0
   26.1288   -8.6655  -16.4747 C   0  0  0  0  0  0  0  0  0  0  0  0
   26.9571   -9.7566  -16.4251 C   0  0  0  0  0  0  0  0  0  0  0  0
   26.7941  -10.7836  -15.5251 C   0  0  0  0  0  0  0  0  0  0  0  0
   25.7437  -10.7030  -14.6331 C   0  0  0  0  0  0  0  0  0  0  0  0
   24.9062   -9.6120  -14.6742 C   0  0  0  0  0  0  0  0  0  0  0  0
   21.8750   -6.6590  -16.2755 C   0  0  0  0  0  0  0  0  0  0  0  0
   21.4507   -6.3205  -17.4038 O   0  0  0  0  0  0  0  0  0  0  0  0
   21.4351   -5.9267  -15.1854 O   0  0  0  0  0  0  0  0  0  0  0  0
  2  1  1  0
  3  2  1  0
  4  3  2  0
  5  3  1  0
  6  5  1  0
  6  9  1  0
  6  7  1  1
  8  7  1  0
  9 10  2  0
 11  9  1  0
 11 12  1  0
 12 13  1  6
 13 14  1  0
 14 19  2  0
 15 16  2  0
 15 14  1  0
 16 17  1  0
 17 18  2  0
 19 18  1  0
 20 12  1  0
 20 22  1  0
 21 20  2  0
M  END
$$$$
