GCF.pdb
     RDKit          3D

 22 22  0  0  1  0  0  0  0  0999 V2000
   25.9077  -23.3727  -16.2574 N   0  0  0  0  0  0  0  0  0  0  0  0
   27.0065  -23.1028  -15.3488 C   0  0  0  0  0  0  0  0  0  0  0  0
   26.7127  -21.9310  -14.4826 C   0  0  0  0  0  0  0  0  0  0  0  0
   26.9036  -20.7865  -14.9177 O   0  0  0  0  0  0  0  0  0  0  0  0
   26.2107  -22.0995  -13.1479 N   0  0  0  0  0  0  0  0  0  0  0  0
   25.6305  -21.0009  -12.4065 C   0  0  1  0  0  0  0  0  0  0  0  0
   24.1032  -21.1413  -12.4624 C   0  0  0  0  0  0  0  0  0  0  0  0
   23.2728  -19.9746  -11.3954 S   0  0  0  0  0  0  0  0  0  0  0  0
   25.9969  -21.1610  -10.9782 C   0  0  0  0  0  0  0  0  0  0  0  0
   25.8173  -22.2791  -10.4430 O   0  0  0  0  0  0  0  0  0  0  0  0
   26.5362  -20.1177  -10.1962 N   0  0  0  0  0  0  0  0  0  0  0  0
   26.8730  -20.3725   -8.8154 C   0  0  1  0  0  0  0  0  0  0  0  0
   27.8049  -19.3121   -8.2749 C   0  0  0  0  0  0  0  0  0  0  0  0
   28.1524  -19.5871   -6.8703 C   0  0  0  0  0  0  0  0  0  0  0  0
   27.5984  -18.8376   -5.8555 C   0  0  0  0  0  0  0  0  0  0  0  0
   27.9303  -19.1137   -4.5544 C   0  0  0  0  0  0  0  0  0  0  0  0
   28.8020  -20.1157   -4.1976 C   0  0  0  0  0  0  0  0  0  0  0  0
   29.3645  -20.8743   -5.2044 C   0  0  0  0  0  0  0  0  0  0  0  0
   29.0381  -20.6057   -6.5139 C   0  0  0  0  0  0  0  0  0  0  0  0
   25.5953  -20.4818   -8.0798 C   0  0  0  0  0  0  0  0  0  0  0  0
   24.6333  -19.7268   -8.3484 O   0  0  0  0  0  0  0  0  0  0  0  0
   25.4093  -21.4141   -7.0726 O   0  0  0  0  0  0  0  0  0  0  0  0
  2  1  1  0
  3  2  1  0
  4  3  2  0
  5  3  1  0
  6  5  1  0
  6  9  1  0
  6  7  1  1
  8  7  1  0
  9 10  2  0
 11  9  1  0
 11 12  1  0
 12 13  1  1
 13 14  1  0
 14 19  2  0
 15 16  2  0
 15 14  1  0
 16 17  1  0
 17 18  2  0
 19 18  1  0
 20 12  1  0
 20 22  1  0
 21 20  2  0
M  END
$$$$
