GCF.pdb
     RDKit          3D

 22 22  0  0  1  0  0  0  0  0999 V2000
   26.6502  -18.4563  -15.7348 N   0  0  0  0  0  0  0  0  0  0  0  0
   26.9072  -19.5453  -14.8108 C   0  0  0  0  0  0  0  0  0  0  0  0
   26.3286  -19.2618  -13.4712 C   0  0  0  0  0  0  0  0  0  0  0  0
   26.5873  -18.1884  -12.9086 O   0  0  0  0  0  0  0  0  0  0  0  0
   25.4735  -20.2099  -12.8142 N   0  0  0  0  0  0  0  0  0  0  0  0
   24.9065  -19.9497  -11.5088 C   0  0  1  0  0  0  0  0  0  0  0  0
   23.4800  -20.5156  -11.4866 C   0  0  0  0  0  0  0  0  0  0  0  0
   22.4445  -19.7046  -10.2786 S   0  0  0  0  0  0  0  0  0  0  0  0
   25.6669  -20.7370  -10.5078 C   0  0  0  0  0  0  0  0  0  0  0  0
   26.0298  -21.8951  -10.8177 O   0  0  0  0  0  0  0  0  0  0  0  0
   25.9999  -20.2456   -9.2279 N   0  0  0  0  0  0  0  0  0  0  0  0
   26.6597  -21.1192   -8.2863 C   0  0  1  0  0  0  0  0  0  0  0  0
   28.0674  -20.6497   -7.9982 C   0  0  0  0  0  0  0  0  0  0  0  0
   28.1714  -20.1158   -6.6294 C   0  0  0  0  0  0  0  0  0  0  0  0
   28.6812  -20.8950   -5.6139 C   0  0  0  0  0  0  0  0  0  0  0  0
   28.7751  -20.3771   -4.3482 C   0  0  0  0  0  0  0  0  0  0  0  0
   28.3813  -19.0989   -4.0282 C   0  0  0  0  0  0  0  0  0  0  0  0
   27.8685  -18.3073   -5.0360 C   0  0  0  0  0  0  0  0  0  0  0  0
   27.7699  -18.8173   -6.3103 C   0  0  0  0  0  0  0  0  0  0  0  0
   25.7923  -21.1882   -7.0912 C   0  0  0  0  0  0  0  0  0  0  0  0
   24.7919  -20.4435   -6.9802 O   0  0  0  0  0  0  0  0  0  0  0  0
   26.0461  -22.0700   -6.0539 O   0  0  0  0  0  0  0  0  0  0  0  0
  2  1  1  0
  3  2  1  0
  4  3  2  0
  5  3  1  0
  6  5  1  0
  6  9  1  0
  6  7  1  6
  8  7  1  0
  9 10  2  0
 11  9  1  0
 11 12  1  0
 12 13  1  1
 13 14  1  0
 14 19  2  0
 15 16  2  0
 15 14  1  0
 16 17  1  0
 17 18  2  0
 19 18  1  0
 20 12  1  0
 20 22  1  0
 21 20  2  0
M  END
$$$$
