GCF.pdb
     RDKit          3D

 22 22  0  0  1  0  0  0  0  0999 V2000
   18.5206  -11.4827  -15.4742 N   0  0  0  0  0  0  0  0  0  0  0  0
   17.4881  -10.5709  -15.0175 C   0  0  0  0  0  0  0  0  0  0  0  0
   17.9348   -9.8076  -13.8227 C   0  0  0  0  0  0  0  0  0  0  0  0
   19.0617  -10.0154  -13.3511 O   0  0  0  0  0  0  0  0  0  0  0  0
   17.0838   -8.8314  -13.2025 N   0  0  0  0  0  0  0  0  0  0  0  0
   17.5488   -7.9909  -12.1206 C   0  0  1  0  0  0  0  0  0  0  0  0
   18.1327   -6.7087  -12.7295 C   0  0  0  0  0  0  0  0  0  0  0  0
   17.0136   -5.9328  -13.8848 S   0  0  0  0  0  0  0  0  0  0  0  0
   16.3707   -7.5599  -11.3292 C   0  0  0  0  0  0  0  0  0  0  0  0
   15.2823   -7.3997  -11.9280 O   0  0  0  0  0  0  0  0  0  0  0  0
   16.4173   -7.3226   -9.9392 N   0  0  0  0  0  0  0  0  0  0  0  0
   15.2266   -6.8676   -9.2608 C   0  0  1  0  0  0  0  0  0  0  0  0
   15.1322   -7.4522   -7.8699 C   0  0  0  0  0  0  0  0  0  0  0  0
   13.9284   -6.9626   -7.1768 C   0  0  0  0  0  0  0  0  0  0  0  0
   12.7083   -7.5669   -7.3876 C   0  0  0  0  0  0  0  0  0  0  0  0
   11.6011   -7.0998   -6.7280 C   0  0  0  0  0  0  0  0  0  0  0  0
   11.6398   -6.0413   -5.8508 C   0  0  0  0  0  0  0  0  0  0  0  0
   12.8559   -5.4263   -5.6305 C   0  0  0  0  0  0  0  0  0  0  0  0
   13.9737   -5.8874   -6.2874 C   0  0  0  0  0  0  0  0  0  0  0  0
   15.2588   -5.3899   -9.2911 C   0  0  0  0  0  0  0  0  0  0  0  0
   16.3456   -4.7703   -9.2401 O   0  0  0  0  0  0  0  0  0  0  0  0
   14.1007   -4.6353   -9.3763 O   0  0  0  0  0  0  0  0  0  0  0  0
  2  1  1  0
  3  2  1  0
  4  3  2  0
  5  3  1  0
  6  5  1  0
  6  9  1  0
  6  7  1  6
  8  7  1  0
  9 10  2  0
 11  9  1  0
 11 12  1  0
 12 13  1  1
 13 14  1  0
 14 19  2  0
 15 16  2  0
 15 14  1  0
 16 17  1  0
 17 18  2  0
 19 18  1  0
 20 12  1  0
 20 22  1  0
 21 20  2  0
M  END
$$$$
