GCF.pdb
     RDKit          3D

 22 22  0  0  1  0  0  0  0  0999 V2000
   15.5330  -14.0253  -17.1035 N   0  0  0  0  0  0  0  0  0  0  0  0
   14.9013  -12.7338  -16.9062 C   0  0  0  0  0  0  0  0  0  0  0  0
   15.7717  -11.6299  -17.3894 C   0  0  0  0  0  0  0  0  0  0  0  0
   16.8226  -11.8983  -17.9888 O   0  0  0  0  0  0  0  0  0  0  0  0
   15.4179  -10.2550  -17.1748 N   0  0  0  0  0  0  0  0  0  0  0  0
   16.2049   -9.1704  -17.7202 C   0  0  1  0  0  0  0  0  0  0  0  0
   15.2429   -8.0643  -18.1750 C   0  0  0  0  0  0  0  0  0  0  0  0
   13.9799   -7.7188  -16.9607 S   0  0  0  0  0  0  0  0  0  0  0  0
   17.0054   -8.5797  -16.6201 C   0  0  0  0  0  0  0  0  0  0  0  0
   16.5828   -8.7051  -15.4476 O   0  0  0  0  0  0  0  0  0  0  0  0
   18.2157   -7.8859  -16.8302 N   0  0  0  0  0  0  0  0  0  0  0  0
   18.9283   -7.3499  -15.6944 C   0  0  1  0  0  0  0  0  0  0  0  0
   20.3873   -7.7439  -15.7282 C   0  0  0  0  0  0  0  0  0  0  0  0
   21.1526   -7.0062  -14.7086 C   0  0  0  0  0  0  0  0  0  0  0  0
   21.6883   -5.7702  -14.9978 C   0  0  0  0  0  0  0  0  0  0  0  0
   22.3920   -5.0974  -14.0328 C   0  0  0  0  0  0  0  0  0  0  0  0
   22.5979   -5.5960  -12.7678 C   0  0  0  0  0  0  0  0  0  0  0  0
   22.0668   -6.8336  -12.4646 C   0  0  0  0  0  0  0  0  0  0  0  0
   21.3585   -7.5175  -13.4259 C   0  0  0  0  0  0  0  0  0  0  0  0
   18.6994   -5.8894  -15.7000 C   0  0  0  0  0  0  0  0  0  0  0  0
   18.5346   -5.2695  -16.7753 O   0  0  0  0  0  0  0  0  0  0  0  0
   18.6579   -5.1517  -14.5287 O   0  0  0  0  0  0  0  0  0  0  0  0
  2  1  1  0
  3  2  1  0
  4  3  2  0
  5  3  1  0
  6  5  1  0
  6  9  1  0
  6  7  1  1
  8  7  1  0
  9 10  2  0
 11  9  1  0
 11 12  1  0
 12 13  1  6
 13 14  1  0
 14 19  2  0
 15 16  2  0
 15 14  1  0
 16 17  1  0
 17 18  2  0
 19 18  1  0
 20 12  1  0
 20 22  1  0
 21 20  2  0
M  END
$$$$
