GCF.pdb
     RDKit          3D

 22 22  0  0  1  0  0  0  0  0999 V2000
   18.1165  -11.9834  -21.8645 N   0  0  0  0  0  0  0  0  0  0  0  0
   18.7366  -11.9950  -20.5526 C   0  0  0  0  0  0  0  0  0  0  0  0
   19.0209  -10.6147  -20.0799 C   0  0  0  0  0  0  0  0  0  0  0  0
   20.1957  -10.2504  -19.9290 O   0  0  0  0  0  0  0  0  0  0  0  0
   17.9582   -9.6925  -19.7938 N   0  0  0  0  0  0  0  0  0  0  0  0
   18.2199   -8.3366  -19.3622 C   0  0  1  0  0  0  0  0  0  0  0  0
   16.8918   -7.5673  -19.3740 C   0  0  0  0  0  0  0  0  0  0  0  0
   17.0513   -5.9234  -18.6947 S   0  0  0  0  0  0  0  0  0  0  0  0
   18.6488   -8.3765  -17.9429 C   0  0  0  0  0  0  0  0  0  0  0  0
   18.0348   -9.1380  -17.1605 O   0  0  0  0  0  0  0  0  0  0  0  0
   19.7114   -7.6006  -17.4337 N   0  0  0  0  0  0  0  0  0  0  0  0
   20.0367   -7.6846  -16.0294 C   0  0  1  0  0  0  0  0  0  0  0  0
   21.5239   -7.8584  -15.8217 C   0  0  0  0  0  0  0  0  0  0  0  0
   21.8589   -7.8314  -14.3877 C   0  0  0  0  0  0  0  0  0  0  0  0
   22.1142   -6.6350  -13.7538 C   0  0  0  0  0  0  0  0  0  0  0  0
   22.4182   -6.6311  -12.4171 C   0  0  0  0  0  0  0  0  0  0  0  0
   22.4844   -7.7760  -11.6582 C   0  0  0  0  0  0  0  0  0  0  0  0
   22.2311   -8.9818  -12.2806 C   0  0  0  0  0  0  0  0  0  0  0  0
   21.9248   -8.9970  -13.6221 C   0  0  0  0  0  0  0  0  0  0  0  0
   19.4777   -6.4741  -15.3908 C   0  0  0  0  0  0  0  0  0  0  0  0
   19.0735   -6.5017  -14.2061 O   0  0  0  0  0  0  0  0  0  0  0  0
   19.3782   -5.2703  -16.0681 O   0  0  0  0  0  0  0  0  0  0  0  0
  2  1  1  0
  3  2  1  0
  4  3  2  0
  5  3  1  0
  6  5  1  0
  6  9  1  0
  6  7  1  1
  8  7  1  0
  9 10  2  0
 11  9  1  0
 11 12  1  0
 12 13  1  6
 13 14  1  0
 14 19  2  0
 15 16  2  0
 15 14  1  0
 16 17  1  0
 17 18  2  0
 19 18  1  0
 20 12  1  0
 20 22  1  0
 21 20  2  0
M  END
$$$$
