GCF.pdb
     RDKit          3D

 22 22  0  0  1  0  0  0  0  0999 V2000
   27.8600  -21.2209  -15.6672 N   0  0  0  0  0  0  0  0  0  0  0  0
   28.5124  -20.9690  -14.3957 C   0  0  0  0  0  0  0  0  0  0  0  0
   27.5945  -20.2873  -13.4459 C   0  0  0  0  0  0  0  0  0  0  0  0
   27.3449  -19.0827  -13.5955 O   0  0  0  0  0  0  0  0  0  0  0  0
   26.9894  -20.9989  -12.3553 N   0  0  0  0  0  0  0  0  0  0  0  0
   25.9190  -20.4245  -11.5696 C   0  0  1  0  0  0  0  0  0  0  0  0
   24.5992  -21.0657  -12.0200 C   0  0  0  0  0  0  0  0  0  0  0  0
   23.8038  -20.1416  -13.3248 S   0  0  0  0  0  0  0  0  0  0  0  0
   26.1062  -20.8392  -10.1579 C   0  0  0  0  0  0  0  0  0  0  0  0
   26.3180  -22.0507   -9.9203 O   0  0  0  0  0  0  0  0  0  0  0  0
   26.0573  -19.9377   -9.0738 N   0  0  0  0  0  0  0  0  0  0  0  0
   26.0712  -20.4542   -7.7254 C   0  0  1  0  0  0  0  0  0  0  0  0
   26.3221  -19.3532   -6.7204 C   0  0  0  0  0  0  0  0  0  0  0  0
   27.6466  -19.5071   -6.0949 C   0  0  0  0  0  0  0  0  0  0  0  0
   27.9375  -20.6252   -5.3443 C   0  0  0  0  0  0  0  0  0  0  0  0
   29.1784  -20.7520   -4.7756 C   0  0  0  0  0  0  0  0  0  0  0  0
   30.1687  -19.8080   -4.9145 C   0  0  0  0  0  0  0  0  0  0  0  0
   29.8907  -18.6825   -5.6639 C   0  0  0  0  0  0  0  0  0  0  0  0
   28.6482  -18.5452   -6.2392 C   0  0  0  0  0  0  0  0  0  0  0  0
   24.7905  -21.1663   -7.5300 C   0  0  0  0  0  0  0  0  0  0  0  0
   23.7873  -20.8853   -8.2245 O   0  0  0  0  0  0  0  0  0  0  0  0
   24.6466  -22.1642   -6.5806 O   0  0  0  0  0  0  0  0  0  0  0  0
  2  1  1  0
  3  2  1  0
  4  3  2  0
  5  3  1  0
  6  5  1  0
  6  9  1  0
  6  7  1  6
  8  7  1  0
  9 10  2  0
 11  9  1  0
 11 12  1  0
 12 13  1  1
 13 14  1  0
 14 19  2  0
 15 16  2  0
 15 14  1  0
 16 17  1  0
 17 18  2  0
 19 18  1  0
 20 12  1  0
 20 22  1  0
 21 20  2  0
M  END
$$$$
