PPK.pdb
     RDKit          3D

 24 25  0  0  1  0  0  0  0  0999 V2000
    8.7618  -16.4321   16.3678 N   0  0  0  0  0  0  0  0  0  0  0  0
    8.5172  -17.8377   16.2901 C   0  0  0  0  0  0  0  0  0  0  0  0
    7.0959  -18.0623   16.7515 C   0  0  0  0  0  0  0  0  0  0  0  0
    6.8172  -16.8309   17.5518 C   0  0  0  0  0  0  0  0  0  0  0  0
    7.9536  -15.8777   17.4240 C   0  0  1  0  0  0  0  0  0  0  0  0
    8.7313  -15.7426   18.6985 C   0  0  0  0  0  0  0  0  0  0  0  0
    9.6313  -16.5842   18.8821 O   0  0  0  0  0  0  0  0  0  0  0  0
    8.4772  -14.7377   19.6392 N   0  0  0  0  0  0  0  0  0  0  0  0
    8.0844  -13.3686   19.2036 C   0  0  0  0  0  0  0  0  0  0  0  0
    6.8109  -13.2388   20.0238 C   0  0  0  0  0  0  0  0  0  0  0  0
    7.0250  -14.1215   21.2659 C   0  0  0  0  0  0  0  0  0  0  0  0
    8.4593  -14.5683   21.0221 C   0  0  1  0  0  0  0  0  0  0  0  0
    8.9126  -15.5910   21.9311 C   0  0  0  0  0  0  0  0  0  0  0  0
    8.1235  -16.4042   22.4456 O   0  0  0  0  0  0  0  0  0  0  0  0
   10.2931  -15.7389   22.3011 N   0  0  0  0  0  0  0  0  0  0  0  0
   10.7923  -16.7044   23.2508 C   0  0  1  0  0  0  0  0  0  0  0  0
   11.6952  -17.7104   22.6632 C   0  0  0  0  0  0  0  0  0  0  0  0
   11.2512  -18.4436   21.4569 C   0  0  0  0  0  0  0  0  0  0  0  0
   12.2256  -19.4740   20.9538 C   0  0  0  0  0  0  0  0  0  0  0  0
   11.6162  -20.2334   19.7928 C   0  0  0  0  0  0  0  0  0  0  0  0
   12.6256  -21.1354   19.2501 N   0  0  0  0  0  0  0  0  0  0  0  0
   11.3912  -16.0660   24.4410 C   0  0  0  0  0  0  0  0  0  0  0  0
   11.7048  -16.8467   25.5386 O   0  0  0  0  0  0  0  0  0  0  0  0
   11.6515  -14.8412   24.5581 O   0  0  0  0  0  0  0  0  0  0  0  0
  1  2  1  0
  3  2  1  0
  4  5  1  0
  4  3  1  0
  5  1  1  0
  6  7  2  0
  5  6  1  1
  8  6  1  0
  9  8  1  0
 10  9  1  0
 11 10  1  0
 11 12  1  0
 12  8  1  0
 12 13  1  1
 14 13  2  0
 15 13  1  0
 16 22  1  0
 16 15  1  0
 17 18  1  0
 16 17  1  6
 18 19  1  0
 20 19  1  0
 20 21  1  0
 22 23  1  0
 24 22  2  0
M  END
$$$$
