PPK.pdb
     RDKit          3D

 24 25  0  0  1  0  0  0  0  0999 V2000
    8.0284  -15.0217   18.9555 N   0  0  0  0  0  0  0  0  0  0  0  0
    6.8994  -14.1547   18.8316 C   0  0  0  0  0  0  0  0  0  0  0  0
    7.3425  -12.7873   19.2978 C   0  0  0  0  0  0  0  0  0  0  0  0
    8.5343  -13.1042   20.1426 C   0  0  0  0  0  0  0  0  0  0  0  0
    8.8569  -14.5536   20.0375 C   0  0  1  0  0  0  0  0  0  0  0  0
    8.5721  -15.2954   21.3088 C   0  0  0  0  0  0  0  0  0  0  0  0
    7.5737  -14.9172   21.9510 O   0  0  0  0  0  0  0  0  0  0  0  0
    9.3681  -16.3527   21.7647 N   0  0  0  0  0  0  0  0  0  0  0  0
    9.6243  -17.5396   20.9022 C   0  0  0  0  0  0  0  0  0  0  0  0
   11.1433  -17.5279   20.9656 C   0  0  0  0  0  0  0  0  0  0  0  0
   11.4975  -16.8915   22.3212 C   0  0  0  0  0  0  0  0  0  0  0  0
   10.0998  -16.7100   22.8954 C   0  0  1  0  0  0  0  0  0  0  0  0
   10.0664  -15.9383   24.1123 C   0  0  0  0  0  0  0  0  0  0  0  0
   10.8617  -15.0028   24.3146 O   0  0  0  0  0  0  0  0  0  0  0  0
    9.1215  -16.1949   25.1639 N   0  0  0  0  0  0  0  0  0  0  0  0
    9.1128  -15.5281   26.4440 C   0  0  1  0  0  0  0  0  0  0  0  0
    7.8565  -14.8160   26.7395 C   0  0  0  0  0  0  0  0  0  0  0  0
    7.7156  -13.4117   26.2943 C   0  0  0  0  0  0  0  0  0  0  0  0
    6.3967  -12.7735   26.6368 C   0  0  0  0  0  0  0  0  0  0  0  0
    6.4057  -11.3181   26.2154 C   0  0  0  0  0  0  0  0  0  0  0  0
    5.1017  -10.7407   26.5208 N   0  0  0  0  0  0  0  0  0  0  0  0
    9.5006  -16.4274   27.5502 C   0  0  0  0  0  0  0  0  0  0  0  0
    9.6470  -17.7796   27.2998 O   0  0  0  0  0  0  0  0  0  0  0  0
    9.7168  -16.0720   28.7370 O   0  0  0  0  0  0  0  0  0  0  0  0
  1  2  1  0
  3  2  1  0
  4  5  1  0
  4  3  1  0
  5  1  1  0
  6  7  2  0
  5  6  1  1
  8  6  1  0
  9  8  1  0
 10  9  1  0
 11 10  1  0
 11 12  1  0
 12  8  1  0
 12 13  1  1
 14 13  2  0
 15 13  1  0
 16 22  1  0
 16 15  1  0
 17 18  1  0
 16 17  1  1
 18 19  1  0
 20 19  1  0
 20 21  1  0
 22 23  1  0
 24 22  2  0
M  END
$$$$
