PPK.pdb
     RDKit          3D

 24 25  0  0  1  0  0  0  0  0999 V2000
    8.8835  -14.2561   20.5692 N   0  0  0  0  0  0  0  0  0  0  0  0
    8.2406  -15.2613   19.7831 C   0  0  0  0  0  0  0  0  0  0  0  0
    6.7528  -15.0215   19.8951 C   0  0  0  0  0  0  0  0  0  0  0  0
    6.6478  -14.2232   21.1546 C   0  0  0  0  0  0  0  0  0  0  0  0
    8.0091  -13.8835   21.6521 C   0  0  1  0  0  0  0  0  0  0  0  0
    8.3544  -14.6148   22.9144 C   0  0  0  0  0  0  0  0  0  0  0  0
    8.8517  -15.7482   22.7715 O   0  0  0  0  0  0  0  0  0  0  0  0
    8.1390  -14.0742   24.1874 N   0  0  0  0  0  0  0  0  0  0  0  0
    8.1130  -12.5993   24.3938 C   0  0  0  0  0  0  0  0  0  0  0  0
    6.7634  -12.5027   25.0872 C   0  0  0  0  0  0  0  0  0  0  0  0
    6.5676  -13.8499   25.8045 C   0  0  0  0  0  0  0  0  0  0  0  0
    7.9039  -14.5072   25.4907 C   0  0  1  0  0  0  0  0  0  0  0  0
    7.9711  -15.8971   25.8664 C   0  0  0  0  0  0  0  0  0  0  0  0
    6.9680  -16.6327   25.8309 O   0  0  0  0  0  0  0  0  0  0  0  0
    9.1895  -16.5212   26.3032 N   0  0  0  0  0  0  0  0  0  0  0  0
    9.3273  -17.9207   26.6284 C   0  0  1  0  0  0  0  0  0  0  0  0
   10.0287  -18.7083   25.5987 C   0  0  0  0  0  0  0  0  0  0  0  0
   10.2894  -20.1419   25.8575 C   0  0  0  0  0  0  0  0  0  0  0  0
   10.9943  -20.8637   24.7412 C   0  0  0  0  0  0  0  0  0  0  0  0
   11.2239  -22.3103   25.1294 C   0  0  0  0  0  0  0  0  0  0  0  0
   11.9889  -22.9571   24.0695 N   0  0  0  0  0  0  0  0  0  0  0  0
    9.9139  -18.1326   27.9678 C   0  0  0  0  0  0  0  0  0  0  0  0
    9.7316  -19.3497   28.5986 O   0  0  0  0  0  0  0  0  0  0  0  0
   10.5842  -17.2859   28.6124 O   0  0  0  0  0  0  0  0  0  0  0  0
  1  2  1  0
  3  2  1  0
  4  5  1  0
  4  3  1  0
  5  1  1  0
  6  7  2  0
  5  6  1  1
  8  6  1  0
  9  8  1  0
 10  9  1  0
 11 10  1  0
 11 12  1  0
 12  8  1  0
 12 13  1  6
 14 13  2  0
 15 13  1  0
 16 22  1  0
 16 15  1  0
 17 18  1  0
 16 17  1  6
 18 19  1  0
 20 19  1  0
 20 21  1  0
 22 23  1  0
 24 22  2  0
M  END
$$$$
