PPK.pdb
     RDKit          3D

 24 25  0  0  1  0  0  0  0  0999 V2000
    9.0632  -14.0493   20.9382 N   0  0  0  0  0  0  0  0  0  0  0  0
    8.1317  -14.5714   19.9887 C   0  0  0  0  0  0  0  0  0  0  0  0
    6.9726  -13.6035   19.9327 C   0  0  0  0  0  0  0  0  0  0  0  0
    7.0911  -12.8813   21.2363 C   0  0  0  0  0  0  0  0  0  0  0  0
    8.3409  -13.2952   21.9310 C   0  0  1  0  0  0  0  0  0  0  0  0
    8.0682  -14.1169   23.1550 C   0  0  0  0  0  0  0  0  0  0  0  0
    8.1798  -15.3506   23.0217 O   0  0  0  0  0  0  0  0  0  0  0  0
    7.7085  -13.5512   24.3837 N   0  0  0  0  0  0  0  0  0  0  0  0
    7.8715  -12.0907   24.6264 C   0  0  0  0  0  0  0  0  0  0  0  0
    6.4486  -11.7856   25.0668 C   0  0  0  0  0  0  0  0  0  0  0  0
    5.9205  -13.0868   25.6960 C   0  0  0  0  0  0  0  0  0  0  0  0
    7.1750  -13.9443   25.6094 C   0  0  1  0  0  0  0  0  0  0  0  0
    6.9583  -15.3282   25.9490 C   0  0  0  0  0  0  0  0  0  0  0  0
    6.0501  -15.6759   26.7253 O   0  0  0  0  0  0  0  0  0  0  0  0
    7.7690  -16.3896   25.4189 N   0  0  0  0  0  0  0  0  0  0  0  0
    7.5920  -17.7900   25.7201 C   0  0  1  0  0  0  0  0  0  0  0  0
    7.4989  -18.6517   24.5278 C   0  0  0  0  0  0  0  0  0  0  0  0
    7.3012  -20.1060   24.7173 C   0  0  0  0  0  0  0  0  0  0  0  0
    7.2625  -20.9060   23.4435 C   0  0  0  0  0  0  0  0  0  0  0  0
    7.2403  -22.3861   23.7671 C   0  0  0  0  0  0  0  0  0  0  0  0
    5.9591  -22.9339   23.3365 N   0  0  0  0  0  0  0  0  0  0  0  0
    8.6003  -18.2924   26.6760 C   0  0  0  0  0  0  0  0  0  0  0  0
    8.3328  -19.4429   27.3953 O   0  0  0  0  0  0  0  0  0  0  0  0
    9.7147  -17.7579   26.9082 O   0  0  0  0  0  0  0  0  0  0  0  0
  1  2  1  0
  3  2  1  0
  4  5  1  0
  4  3  1  0
  5  1  1  0
  6  7  2  0
  5  6  1  1
  8  6  1  0
  9  8  1  0
 10  9  1  0
 11 10  1  0
 11 12  1  0
 12  8  1  0
 12 13  1  6
 14 13  2  0
 15 13  1  0
 16 22  1  0
 16 15  1  0
 17 18  1  0
 16 17  1  6
 18 19  1  0
 20 19  1  0
 20 21  1  0
 22 23  1  0
 24 22  2  0
M  END
$$$$
