PPK.pdb
     RDKit          3D

 24 25  0  0  1  0  0  0  0  0999 V2000
    8.4475  -14.0257   20.9531 N   0  0  0  0  0  0  0  0  0  0  0  0
    8.1114  -15.2901   20.3786 C   0  0  0  0  0  0  0  0  0  0  0  0
    6.6535  -15.5394   20.6880 C   0  0  0  0  0  0  0  0  0  0  0  0
    6.4143  -14.6448   21.8614 C   0  0  0  0  0  0  0  0  0  0  0  0
    7.6192  -13.8072   22.1117 C   0  0  1  0  0  0  0  0  0  0  0  0
    8.3287  -14.1910   23.3754 C   0  0  0  0  0  0  0  0  0  0  0  0
    9.1798  -15.0948   23.2720 O   0  0  0  0  0  0  0  0  0  0  0  0
    8.0652  -13.5823   24.6080 N   0  0  0  0  0  0  0  0  0  0  0  0
    7.5931  -12.1712   24.6749 C   0  0  0  0  0  0  0  0  0  0  0  0
    6.3477  -12.4006   25.5163 C   0  0  0  0  0  0  0  0  0  0  0  0
    6.6503  -13.6398   26.3770 C   0  0  0  0  0  0  0  0  0  0  0  0
    8.0932  -13.8950   25.9655 C   0  0  1  0  0  0  0  0  0  0  0  0
    8.6280  -15.1386   26.4605 C   0  0  0  0  0  0  0  0  0  0  0  0
    7.9121  -16.1461   26.6054 O   0  0  0  0  0  0  0  0  0  0  0  0
   10.0110  -15.2973   26.8166 N   0  0  0  0  0  0  0  0  0  0  0  0
   10.4945  -16.1340   27.8887 C   0  0  1  0  0  0  0  0  0  0  0  0
   10.4422  -15.4958   29.2164 C   0  0  0  0  0  0  0  0  0  0  0  0
   10.7321  -16.3195   30.4112 C   0  0  0  0  0  0  0  0  0  0  0  0
   12.1199  -16.8995   30.4527 C   0  0  0  0  0  0  0  0  0  0  0  0
   12.2870  -17.7425   31.7007 C   0  0  0  0  0  0  0  0  0  0  0  0
   13.6457  -18.2722   31.7218 N   0  0  0  0  0  0  0  0  0  0  0  0
    9.8508  -17.4638   27.8995 C   0  0  0  0  0  0  0  0  0  0  0  0
   10.5917  -18.5742   27.5381 O   0  0  0  0  0  0  0  0  0  0  0  0
    8.6549  -17.6923   28.2144 O   0  0  0  0  0  0  0  0  0  0  0  0
  1  2  1  0
  3  2  1  0
  4  5  1  0
  4  3  1  0
  5  1  1  0
  6  7  2  0
  5  6  1  1
  8  6  1  0
  9  8  1  0
 10  9  1  0
 11 10  1  0
 11 12  1  0
 12  8  1  0
 12 13  1  6
 14 13  2  0
 15 13  1  0
 16 22  1  0
 16 15  1  0
 17 18  1  0
 16 17  1  1
 18 19  1  0
 20 19  1  0
 20 21  1  0
 22 23  1  0
 24 22  2  0
M  END
$$$$
