PPK.pdb
     RDKit          3D

 24 25  0  0  1  0  0  0  0  0999 V2000
    8.4624  -14.5511   21.1841 N   0  0  0  0  0  0  0  0  0  0  0  0
    8.1929  -15.8984   20.7917 C   0  0  0  0  0  0  0  0  0  0  0  0
    6.7324  -16.1564   21.0815 C   0  0  0  0  0  0  0  0  0  0  0  0
    6.4148  -15.1091   22.0997 C   0  0  0  0  0  0  0  0  0  0  0  0
    7.5797  -14.1973   22.2665 C   0  0  1  0  0  0  0  0  0  0  0  0
    8.2482  -14.3631   23.5981 C   0  0  0  0  0  0  0  0  0  0  0  0
    9.0927  -15.2757   23.6764 O   0  0  0  0  0  0  0  0  0  0  0  0
    7.9555  -13.5514   24.7002 N   0  0  0  0  0  0  0  0  0  0  0  0
    7.5736  -12.1237   24.5143 C   0  0  0  0  0  0  0  0  0  0  0  0
    6.2700  -12.1460   25.2964 C   0  0  0  0  0  0  0  0  0  0  0  0
    6.4415  -13.2464   26.3584 C   0  0  0  0  0  0  0  0  0  0  0  0
    7.8857  -13.6439   26.0887 C   0  0  1  0  0  0  0  0  0  0  0  0
    8.3090  -14.8200   26.8064 C   0  0  0  0  0  0  0  0  0  0  0  0
    7.5712  -15.8154   26.9226 O   0  0  0  0  0  0  0  0  0  0  0  0
    9.5995  -14.9215   27.4302 N   0  0  0  0  0  0  0  0  0  0  0  0
   10.1029  -16.1001   28.0941 C   0  0  1  0  0  0  0  0  0  0  0  0
   11.2457  -16.7308   27.4093 C   0  0  0  0  0  0  0  0  0  0  0  0
   10.9853  -17.8575   26.4858 C   0  0  0  0  0  0  0  0  0  0  0  0
   12.2152  -18.4423   25.8459 C   0  0  0  0  0  0  0  0  0  0  0  0
   11.8209  -19.5612   24.9032 C   0  0  0  0  0  0  0  0  0  0  0  0
   13.0204  -20.0366   24.2233 N   0  0  0  0  0  0  0  0  0  0  0  0
   10.3903  -15.8618   29.5236 C   0  0  0  0  0  0  0  0  0  0  0  0
   10.7210  -16.9338   30.3323 O   0  0  0  0  0  0  0  0  0  0  0  0
   10.3616  -14.7426   30.0963 O   0  0  0  0  0  0  0  0  0  0  0  0
  1  2  1  0
  3  2  1  0
  4  5  1  0
  4  3  1  0
  5  1  1  0
  6  7  2  0
  5  6  1  1
  8  6  1  0
  9  8  1  0
 10  9  1  0
 11 10  1  0
 11 12  1  0
 12  8  1  0
 12 13  1  6
 14 13  2  0
 15 13  1  0
 16 22  1  0
 16 15  1  0
 17 18  1  0
 16 17  1  6
 18 19  1  0
 20 19  1  0
 20 21  1  0
 22 23  1  0
 24 22  2  0
M  END
$$$$
