PPK.pdb
     RDKit          3D

 24 25  0  0  1  0  0  0  0  0999 V2000
    7.4202  -14.1181   18.6089 N   0  0  0  0  0  0  0  0  0  0  0  0
    7.7092  -12.7233   18.4958 C   0  0  0  0  0  0  0  0  0  0  0  0
    9.2048  -12.5976   18.3201 C   0  0  0  0  0  0  0  0  0  0  0  0
    9.7054  -13.8933   18.8726 C   0  0  0  0  0  0  0  0  0  0  0  0
    8.5558  -14.7814   19.1976 C   0  0  1  0  0  0  0  0  0  0  0  0
    8.3788  -14.9685   20.6745 C   0  0  0  0  0  0  0  0  0  0  0  0
    8.5534  -13.9560   21.3790 O   0  0  0  0  0  0  0  0  0  0  0  0
    8.0377  -16.1991   21.2477 N   0  0  0  0  0  0  0  0  0  0  0  0
    6.8277  -16.9405   20.7952 C   0  0  0  0  0  0  0  0  0  0  0  0
    7.4953  -18.2692   20.4782 C   0  0  0  0  0  0  0  0  0  0  0  0
    8.7138  -18.3555   21.4141 C   0  0  0  0  0  0  0  0  0  0  0  0
    8.5143  -17.0785   22.2177 C   0  0  1  0  0  0  0  0  0  0  0  0
    9.6246  -16.7523   23.0769 C   0  0  0  0  0  0  0  0  0  0  0  0
   10.8032  -16.8918   22.7027 O   0  0  0  0  0  0  0  0  0  0  0  0
    9.4471  -16.2488   24.4110 N   0  0  0  0  0  0  0  0  0  0  0  0
   10.5215  -15.9205   25.3170 C   0  0  1  0  0  0  0  0  0  0  0  0
   10.1419  -14.9677   26.3757 C   0  0  0  0  0  0  0  0  0  0  0  0
   10.0736  -15.4503   27.7730 C   0  0  0  0  0  0  0  0  0  0  0  0
    9.7389  -14.3909   28.7878 C   0  0  0  0  0  0  0  0  0  0  0  0
    9.6144  -15.0171   30.1619 C   0  0  0  0  0  0  0  0  0  0  0  0
   10.5043  -14.3088   31.0748 N   0  0  0  0  0  0  0  0  0  0  0  0
   11.1738  -17.1224   25.8763 C   0  0  0  0  0  0  0  0  0  0  0  0
   12.5241  -17.0805   26.1720 O   0  0  0  0  0  0  0  0  0  0  0  0
   10.6026  -18.2167   26.1167 O   0  0  0  0  0  0  0  0  0  0  0  0
  1  2  1  0
  3  2  1  0
  4  5  1  0
  4  3  1  0
  5  1  1  0
  6  7  2  0
  5  6  1  1
  8  6  1  0
  9  8  1  0
 10  9  1  0
 11 10  1  0
 11 12  1  0
 12  8  1  0
 12 13  1  6
 14 13  2  0
 15 13  1  0
 16 22  1  0
 16 15  1  0
 17 18  1  0
 16 17  1  1
 18 19  1  0
 20 19  1  0
 20 21  1  0
 22 23  1  0
 24 22  2  0
M  END
$$$$
