PPK.pdb
     RDKit          3D

 24 25  0  0  1  0  0  0  0  0999 V2000
    8.8368  -14.0279   21.1320 N   0  0  0  0  0  0  0  0  0  0  0  0
    8.4786  -15.2123   20.4172 C   0  0  0  0  0  0  0  0  0  0  0  0
    6.9709  -15.3073   20.4523 C   0  0  0  0  0  0  0  0  0  0  0  0
    6.6204  -14.4551   21.6295 C   0  0  0  0  0  0  0  0  0  0  0  0
    7.8420  -13.7773   22.1437 C   0  0  1  0  0  0  0  0  0  0  0  0
    8.2698  -14.3079   23.4790 C   0  0  0  0  0  0  0  0  0  0  0  0
    8.9580  -15.3462   23.4602 O   0  0  0  0  0  0  0  0  0  0  0  0
    7.9271  -13.6885   24.6866 N   0  0  0  0  0  0  0  0  0  0  0  0
    7.7768  -12.2088   24.7675 C   0  0  0  0  0  0  0  0  0  0  0  0
    6.3790  -12.1667   25.3641 C   0  0  0  0  0  0  0  0  0  0  0  0
    6.2353  -13.4652   26.1774 C   0  0  0  0  0  0  0  0  0  0  0  0
    7.6354  -14.0359   26.0040 C   0  0  1  0  0  0  0  0  0  0  0  0
    7.7801  -15.3824   26.4975 C   0  0  0  0  0  0  0  0  0  0  0  0
    6.8008  -16.1391   26.6278 O   0  0  0  0  0  0  0  0  0  0  0  0
    9.0528  -15.9364   26.8687 N   0  0  0  0  0  0  0  0  0  0  0  0
    9.2850  -17.3247   27.1884 C   0  0  1  0  0  0  0  0  0  0  0  0
    9.5341  -18.1764   26.0114 C   0  0  0  0  0  0  0  0  0  0  0  0
   10.7523  -17.9354   25.2065 C   0  0  0  0  0  0  0  0  0  0  0  0
   10.9243  -18.8629   24.0342 C   0  0  0  0  0  0  0  0  0  0  0  0
   12.1535  -18.4665   23.2418 C   0  0  0  0  0  0  0  0  0  0  0  0
   12.2675  -19.3548   22.0908 N   0  0  0  0  0  0  0  0  0  0  0  0
   10.3321  -17.4985   28.2161 C   0  0  0  0  0  0  0  0  0  0  0  0
   10.5049  -18.7407   28.7989 O   0  0  0  0  0  0  0  0  0  0  0  0
   11.1068  -16.5972   28.6274 O   0  0  0  0  0  0  0  0  0  0  0  0
  1  2  1  0
  3  2  1  0
  4  5  1  0
  4  3  1  0
  5  1  1  0
  6  7  2  0
  5  6  1  1
  8  6  1  0
  9  8  1  0
 10  9  1  0
 11 10  1  0
 11 12  1  0
 12  8  1  0
 12 13  1  6
 14 13  2  0
 15 13  1  0
 16 22  1  0
 16 15  1  0
 17 18  1  0
 16 17  1  6
 18 19  1  0
 20 19  1  0
 20 21  1  0
 22 23  1  0
 24 22  2  0
M  END
$$$$
