PPK.pdb
     RDKit          3D

 24 25  0  0  1  0  0  0  0  0999 V2000
    8.1743  -15.1787   18.0131 N   0  0  0  0  0  0  0  0  0  0  0  0
    7.1144  -14.2391   17.8242 C   0  0  0  0  0  0  0  0  0  0  0  0
    7.6407  -12.8905   18.2576 C   0  0  0  0  0  0  0  0  0  0  0  0
    8.7816  -13.2602   19.1500 C   0  0  0  0  0  0  0  0  0  0  0  0
    9.0023  -14.7317   19.1042 C   0  0  1  0  0  0  0  0  0  0  0  0
    8.6282  -15.4051   20.3903 C   0  0  0  0  0  0  0  0  0  0  0  0
    7.6425  -14.9332   20.9885 O   0  0  0  0  0  0  0  0  0  0  0  0
    9.3313  -16.5003   20.9055 N   0  0  0  0  0  0  0  0  0  0  0  0
    9.4913  -17.7468   20.1061 C   0  0  0  0  0  0  0  0  0  0  0  0
   11.0057  -17.8581   20.1816 C   0  0  0  0  0  0  0  0  0  0  0  0
   11.4061  -17.1851   21.5062 C   0  0  0  0  0  0  0  0  0  0  0  0
   10.0260  -16.8591   22.0588 C   0  0  1  0  0  0  0  0  0  0  0  0
   10.0520  -16.0264   23.2350 C   0  0  0  0  0  0  0  0  0  0  0  0
   11.0523  -15.3491   23.5339 O   0  0  0  0  0  0  0  0  0  0  0  0
    8.9352  -15.9232   24.1332 N   0  0  0  0  0  0  0  0  0  0  0  0
    8.8791  -15.0490   25.2803 C   0  0  1  0  0  0  0  0  0  0  0  0
    7.7252  -14.1318   25.2781 C   0  0  0  0  0  0  0  0  0  0  0  0
    7.5541  -13.2045   26.4187 C   0  0  0  0  0  0  0  0  0  0  0  0
    6.3048  -12.3675   26.3658 C   0  0  0  0  0  0  0  0  0  0  0  0
    6.2705  -11.4208   27.5484 C   0  0  0  0  0  0  0  0  0  0  0  0
    4.9905  -10.7218   27.5436 N   0  0  0  0  0  0  0  0  0  0  0  0
    8.9843  -15.7865   26.5562 C   0  0  0  0  0  0  0  0  0  0  0  0
    8.8940  -17.1665   26.5465 O   0  0  0  0  0  0  0  0  0  0  0  0
    9.1525  -15.2649   27.6881 O   0  0  0  0  0  0  0  0  0  0  0  0
  1  2  1  0
  3  2  1  0
  4  5  1  0
  4  3  1  0
  5  1  1  0
  6  7  2  0
  5  6  1  1
  8  6  1  0
  9  8  1  0
 10  9  1  0
 11 10  1  0
 11 12  1  0
 12  8  1  0
 12 13  1  1
 14 13  2  0
 15 13  1  0
 16 22  1  0
 16 15  1  0
 17 18  1  0
 16 17  1  1
 18 19  1  0
 20 19  1  0
 20 21  1  0
 22 23  1  0
 24 22  2  0
M  END
$$$$
