PPK.pdb
     RDKit          3D

 24 25  0  0  1  0  0  0  0  0999 V2000
    9.5051  -17.3289   18.0021 N   0  0  0  0  0  0  0  0  0  0  0  0
    9.2189  -18.6781   18.3757 C   0  0  0  0  0  0  0  0  0  0  0  0
    7.7162  -18.7941   18.4852 C   0  0  0  0  0  0  0  0  0  0  0  0
    7.2953  -17.3727   18.6783 C   0  0  0  0  0  0  0  0  0  0  0  0
    8.4713  -16.4727   18.5257 C   0  0  1  0  0  0  0  0  0  0  0  0
    8.8819  -15.8452   19.8238 C   0  0  0  0  0  0  0  0  0  0  0  0
    9.6124  -16.5367   20.5589 O   0  0  0  0  0  0  0  0  0  0  0  0
    8.4796  -14.5601   20.2058 N   0  0  0  0  0  0  0  0  0  0  0  0
    8.3158  -13.4808   19.1925 C   0  0  0  0  0  0  0  0  0  0  0  0
    6.8917  -13.0756   19.5378 C   0  0  0  0  0  0  0  0  0  0  0  0
    6.7192  -13.3974   21.0327 C   0  0  0  0  0  0  0  0  0  0  0  0
    8.1297  -13.8650   21.3616 C   0  0  1  0  0  0  0  0  0  0  0  0
    8.2604  -14.4390   22.6772 C   0  0  0  0  0  0  0  0  0  0  0  0
    7.9327  -13.8102   23.6999 O   0  0  0  0  0  0  0  0  0  0  0  0
    8.7732  -15.7636   22.8945 N   0  0  0  0  0  0  0  0  0  0  0  0
    8.9069  -16.3932   24.1864 C   0  0  1  0  0  0  0  0  0  0  0  0
    8.0607  -17.5874   24.3608 C   0  0  0  0  0  0  0  0  0  0  0  0
    8.1721  -18.3581   25.6193 C   0  0  0  0  0  0  0  0  0  0  0  0
    7.3430  -19.6130   25.6630 C   0  0  0  0  0  0  0  0  0  0  0  0
    7.4296  -20.2380   27.0406 C   0  0  0  0  0  0  0  0  0  0  0  0
    6.4691  -21.3332   27.1121 N   0  0  0  0  0  0  0  0  0  0  0  0
   10.3157  -16.6702   24.5349 C   0  0  0  0  0  0  0  0  0  0  0  0
   11.2582  -16.7417   23.5254 O   0  0  0  0  0  0  0  0  0  0  0  0
   10.7563  -16.8547   25.6983 O   0  0  0  0  0  0  0  0  0  0  0  0
  1  2  1  0
  3  2  1  0
  4  5  1  0
  4  3  1  0
  5  1  1  0
  6  7  2  0
  5  6  1  1
  8  6  1  0
  9  8  1  0
 10  9  1  0
 11 10  1  0
 11 12  1  0
 12  8  1  0
 12 13  1  1
 14 13  2  0
 15 13  1  0
 16 22  1  0
 16 15  1  0
 17 18  1  0
 16 17  1  6
 18 19  1  0
 20 19  1  0
 20 21  1  0
 22 23  1  0
 24 22  2  0
M  END
$$$$
