PPK.pdb
     RDKit          3D

 24 25  0  0  1  0  0  0  0  0999 V2000
    7.2451  -13.7478   18.7136 N   0  0  0  0  0  0  0  0  0  0  0  0
    8.2145  -12.7839   18.2978 C   0  0  0  0  0  0  0  0  0  0  0  0
    9.4896  -13.5408   18.0068 C   0  0  0  0  0  0  0  0  0  0  0  0
    9.2994  -14.8048   18.7820 C   0  0  0  0  0  0  0  0  0  0  0  0
    7.9257  -14.8444   19.3542 C   0  0  1  0  0  0  0  0  0  0  0  0
    7.9243  -14.6965   20.8460 C   0  0  0  0  0  0  0  0  0  0  0  0
    8.5739  -13.7357   21.3011 O   0  0  0  0  0  0  0  0  0  0  0  0
    7.2403  -15.5746   21.6947 N   0  0  0  0  0  0  0  0  0  0  0  0
    5.8282  -15.9577   21.4160 C   0  0  0  0  0  0  0  0  0  0  0  0
    6.0057  -17.4674   21.4410 C   0  0  0  0  0  0  0  0  0  0  0  0
    7.1887  -17.7309   22.3892 C   0  0  0  0  0  0  0  0  0  0  0  0
    7.4679  -16.3096   22.8564 C   0  0  1  0  0  0  0  0  0  0  0  0
    8.6779  -16.1781   23.6285 C   0  0  0  0  0  0  0  0  0  0  0  0
    9.7386  -16.7273   23.2794 O   0  0  0  0  0  0  0  0  0  0  0  0
    8.7402  -15.4114   24.8422 N   0  0  0  0  0  0  0  0  0  0  0  0
    9.9291  -15.2263   25.6392 C   0  0  1  0  0  0  0  0  0  0  0  0
    9.7983  -14.1881   26.6774 C   0  0  0  0  0  0  0  0  0  0  0  0
    9.3170  -14.5840   28.0197 C   0  0  0  0  0  0  0  0  0  0  0  0
   10.3991  -14.7450   29.0528 C   0  0  0  0  0  0  0  0  0  0  0  0
    9.7855  -15.1327   30.3829 C   0  0  0  0  0  0  0  0  0  0  0  0
   10.8629  -15.4460   31.3147 N   0  0  0  0  0  0  0  0  0  0  0  0
   10.4338  -16.4960   26.2013 C   0  0  0  0  0  0  0  0  0  0  0  0
   11.7964  -16.6660   26.3655 O   0  0  0  0  0  0  0  0  0  0  0  0
    9.7219  -17.4703   26.5559 O   0  0  0  0  0  0  0  0  0  0  0  0
  1  2  1  0
  3  2  1  0
  4  5  1  0
  4  3  1  0
  5  1  1  0
  6  7  2  0
  5  6  1  1
  8  6  1  0
  9  8  1  0
 10  9  1  0
 11 10  1  0
 11 12  1  0
 12  8  1  0
 12 13  1  6
 14 13  2  0
 15 13  1  0
 16 22  1  0
 16 15  1  0
 17 18  1  0
 16 17  1  1
 18 19  1  0
 20 19  1  0
 20 21  1  0
 22 23  1  0
 24 22  2  0
M  END
$$$$
