PPK.pdb
     RDKit          3D

 24 25  0  0  1  0  0  0  0  0999 V2000
    8.7972  -16.9362   17.0199 N   0  0  0  0  0  0  0  0  0  0  0  0
    8.3952  -18.3048   17.1047 C   0  0  0  0  0  0  0  0  0  0  0  0
    6.9268  -18.3098   17.4616 C   0  0  0  0  0  0  0  0  0  0  0  0
    6.7362  -16.9559   18.0660 C   0  0  0  0  0  0  0  0  0  0  0  0
    7.9832  -16.1566   17.9176 C   0  0  1  0  0  0  0  0  0  0  0  0
    8.6741  -15.9281   19.2283 C   0  0  0  0  0  0  0  0  0  0  0  0
    9.4401  -16.8342   19.6083 O   0  0  0  0  0  0  0  0  0  0  0  0
    8.4837  -14.7725   19.9949 N   0  0  0  0  0  0  0  0  0  0  0  0
    8.2989  -13.4470   19.3410 C   0  0  0  0  0  0  0  0  0  0  0  0
    6.9975  -13.0515   20.0202 C   0  0  0  0  0  0  0  0  0  0  0  0
    7.0102  -13.7593   21.3866 C   0  0  0  0  0  0  0  0  0  0  0  0
    8.3900  -14.3993   21.3340 C   0  0  1  0  0  0  0  0  0  0  0  0
    8.6451  -15.3213   22.4121 C   0  0  0  0  0  0  0  0  0  0  0  0
    7.7268  -15.7574   23.1298 O   0  0  0  0  0  0  0  0  0  0  0  0
    9.9645  -15.7946   22.7279 N   0  0  0  0  0  0  0  0  0  0  0  0
   10.2742  -16.7253   23.7867 C   0  0  1  0  0  0  0  0  0  0  0  0
   10.6198  -18.0776   23.3130 C   0  0  0  0  0  0  0  0  0  0  0  0
   10.9222  -19.1243   24.3145 C   0  0  0  0  0  0  0  0  0  0  0  0
   11.3802  -20.4351   23.7347 C   0  0  0  0  0  0  0  0  0  0  0  0
   11.5285  -21.4614   24.8394 C   0  0  0  0  0  0  0  0  0  0  0  0
   12.0260  -22.7013   24.2543 N   0  0  0  0  0  0  0  0  0  0  0  0
   11.2926  -16.1994   24.7189 C   0  0  0  0  0  0  0  0  0  0  0  0
   11.3492  -16.6991   26.0072 O   0  0  0  0  0  0  0  0  0  0  0  0
   12.1407  -15.3115   24.4469 O   0  0  0  0  0  0  0  0  0  0  0  0
  1  2  1  0
  3  2  1  0
  4  5  1  0
  4  3  1  0
  5  1  1  0
  6  7  2  0
  5  6  1  1
  8  6  1  0
  9  8  1  0
 10  9  1  0
 11 10  1  0
 11 12  1  0
 12  8  1  0
 12 13  1  1
 14 13  2  0
 15 13  1  0
 16 22  1  0
 16 15  1  0
 17 18  1  0
 16 17  1  6
 18 19  1  0
 20 19  1  0
 20 21  1  0
 22 23  1  0
 24 22  2  0
M  END
$$$$
