ILK.pdb
     RDKit          3D

 26 25  0  0  1  0  0  0  0  0999 V2000
   20.4440  -16.1733  -18.8012 C   0  0  0  0  0  0  0  0  0  0  0  0
   20.8874  -14.8221  -19.2728 C   0  0  0  0  0  0  0  0  0  0  0  0
   21.3022  -13.9782  -18.1050 C   0  0  2  0  0  0  0  0  0  0  0  0
   20.1582  -13.9102  -17.1384 C   0  0  0  0  0  0  0  0  0  0  0  0
   21.7022  -12.5884  -18.5557 C   0  0  2  0  0  0  0  0  0  0  0  0
   22.6846  -12.6096  -19.5940 N   0  0  0  0  0  0  0  0  0  0  0  0
   22.1985  -11.8617  -17.3356 C   0  0  0  0  0  0  0  0  0  0  0  0
   21.5758  -11.9185  -16.2455 O   0  0  0  0  0  0  0  0  0  0  0  0
   26.0255  -11.7071  -14.7539 C   0  0  0  0  0  0  0  0  0  0  0  0
   26.2238  -11.0690  -16.1119 C   0  0  2  0  0  0  0  0  0  0  0  0
   27.6639  -10.8308  -16.4371 C   0  0  0  0  0  0  0  0  0  0  0  0
   25.2631  -10.0125  -16.4448 C   0  0  0  0  0  0  0  0  0  0  0  0
   23.8102  -10.2213  -16.3039 C   0  0  2  0  0  0  0  0  0  0  0  0
   23.3923  -11.1055  -17.4404 N   0  0  0  0  0  0  0  0  0  0  0  0
   22.9200   -9.0572  -16.3495 C   0  0  0  0  0  0  0  0  0  0  0  0
   22.8269   -8.3590  -17.4266 O   0  0  0  0  0  0  0  0  0  0  0  0
   22.1081   -8.6143  -15.2709 N   0  0  0  0  0  0  0  0  0  0  0  0
   21.2990   -7.4523  -15.4378 C   0  0  1  0  0  0  0  0  0  0  0  0
   19.9078   -7.7883  -15.9560 C   0  0  0  0  0  0  0  0  0  0  0  0
   19.1223   -6.5394  -16.2938 C   0  0  0  0  0  0  0  0  0  0  0  0
   17.7729   -6.9434  -16.8223 C   0  0  0  0  0  0  0  0  0  0  0  0
   16.9953   -5.7941  -17.4078 C   0  0  0  0  0  0  0  0  0  0  0  0
   15.6945   -6.2547  -17.9157 N   0  0  0  0  0  0  0  0  0  0  0  0
   21.1286   -6.6361  -14.2221 C   0  0  0  0  0  0  0  0  0  0  0  0
   21.4065   -7.0350  -13.0767 O   0  0  0  0  0  0  0  0  0  0  0  0
   20.6225   -5.3175  -14.3199 O   0  0  0  0  0  0  0  0  0  0  0  0
  2  1  1  0
  3  2  1  0
  3  4  1  1
  5  3  1  0
  5  6  1  6
  7  5  1  0
  8  7  2  0
 10  9  1  1
 10 12  1  0
 11 10  1  0
 13 12  1  6
 13 15  1  0
 13 14  1  0
 14  7  1  0
 15 16  2  0
 17 15  1  0
 17 18  1  0
 18 24  1  0
 18 19  1  1
 20 19  1  0
 21 20  1  0
 22 21  1  0
 23 22  1  0
 24 25  2  0
 24 26  1  0
M  END
$$$$
