ILK.pdb
     RDKit          3D

 26 25  0  0  1  0  0  0  0  0999 V2000
   27.7554  -17.4035  -17.4065 C   0  0  0  0  0  0  0  0  0  0  0  0
   28.3101  -18.1955  -16.2622 C   0  0  0  0  0  0  0  0  0  0  0  0
   27.2013  -18.8897  -15.5293 C   0  0  2  0  0  0  0  0  0  0  0  0
   26.2703  -17.8498  -14.9819 C   0  0  0  0  0  0  0  0  0  0  0  0
   27.7484  -19.7555  -14.4132 C   0  0  2  0  0  0  0  0  0  0  0  0
   28.7200  -20.6971  -14.8749 N   0  0  0  0  0  0  0  0  0  0  0  0
   26.5698  -20.4400  -13.7764 C   0  0  0  0  0  0  0  0  0  0  0  0
   26.0451  -21.4548  -14.3000 O   0  0  0  0  0  0  0  0  0  0  0  0
   26.8144  -21.9237   -9.6381 C   0  0  0  0  0  0  0  0  0  0  0  0
   26.3048  -20.4999   -9.5795 C   0  0  2  0  0  0  0  0  0  0  0  0
   26.3455  -19.9248   -8.1996 C   0  0  0  0  0  0  0  0  0  0  0  0
   25.1170  -20.2340  -10.3970 C   0  0  0  0  0  0  0  0  0  0  0  0
   25.0292  -20.6883  -11.7971 C   0  0  2  0  0  0  0  0  0  0  0  0
   26.0585  -19.9137  -12.5642 N   0  0  0  0  0  0  0  0  0  0  0  0
   23.7670  -20.5098  -12.5214 C   0  0  0  0  0  0  0  0  0  0  0  0
   23.3878  -19.3319  -12.8749 O   0  0  0  0  0  0  0  0  0  0  0  0
   22.8895  -21.5635  -12.8937 N   0  0  0  0  0  0  0  0  0  0  0  0
   21.7094  -21.2601  -13.6341 C   0  0  1  0  0  0  0  0  0  0  0  0
   21.4323  -22.2870  -14.7230 C   0  0  0  0  0  0  0  0  0  0  0  0
   20.1867  -21.9419  -15.5105 C   0  0  0  0  0  0  0  0  0  0  0  0
   19.9989  -22.9676  -16.5950 C   0  0  0  0  0  0  0  0  0  0  0  0
   18.8876  -22.6245  -17.5518 C   0  0  0  0  0  0  0  0  0  0  0  0
   18.7946  -23.6312  -18.6195 N   0  0  0  0  0  0  0  0  0  0  0  0
   20.4838  -21.1389  -12.8240 C   0  0  0  0  0  0  0  0  0  0  0  0
   19.3714  -20.8381  -13.2935 O   0  0  0  0  0  0  0  0  0  0  0  0
   20.5322  -21.3698  -11.4280 O   0  0  0  0  0  0  0  0  0  0  0  0
  2  1  1  0
  3  2  1  0
  3  4  1  1
  5  3  1  0
  5  6  1  6
  7  5  1  0
  8  7  2  0
 10  9  1  1
 10 12  1  0
 11 10  1  0
 13 12  1  1
 13 15  1  0
 13 14  1  0
 14  7  1  0
 15 16  2  0
 17 15  1  0
 17 18  1  0
 18 24  1  0
 18 19  1  6
 20 19  1  0
 21 20  1  0
 22 21  1  0
 23 22  1  0
 24 25  2  0
 24 26  1  0
M  END
$$$$
