ILK.pdb
     RDKit          3D

 26 25  0  0  1  0  0  0  0  0999 V2000
   20.5268  -17.0723  -18.3549 C   0  0  0  0  0  0  0  0  0  0  0  0
   20.6316  -15.5989  -18.6055 C   0  0  0  0  0  0  0  0  0  0  0  0
   21.8118  -15.3072  -19.4833 C   0  0  2  0  0  0  0  0  0  0  0  0
   23.0454  -15.8265  -18.8079 C   0  0  0  0  0  0  0  0  0  0  0  0
   21.9352  -13.8211  -19.7490 C   0  0  2  0  0  0  0  0  0  0  0  0
   22.8965  -13.5229  -20.7642 N   0  0  0  0  0  0  0  0  0  0  0  0
   22.2915  -13.1734  -18.4387 C   0  0  0  0  0  0  0  0  0  0  0  0
   21.5899  -13.3527  -17.4116 O   0  0  0  0  0  0  0  0  0  0  0  0
   27.5262  -10.9726  -16.1304 C   0  0  0  0  0  0  0  0  0  0  0  0
   26.0232  -11.0158  -15.9584 C   0  0  2  0  0  0  0  0  0  0  0  0
   25.6076  -11.2929  -14.5487 C   0  0  0  0  0  0  0  0  0  0  0  0
   25.2972  -11.7001  -17.0330 C   0  0  0  0  0  0  0  0  0  0  0  0
   23.8238  -11.6934  -17.0917 C   0  0  2  0  0  0  0  0  0  0  0  0
   23.4437  -12.3503  -18.3847 N   0  0  0  0  0  0  0  0  0  0  0  0
   23.1204  -10.4071  -17.0703 C   0  0  0  0  0  0  0  0  0  0  0  0
   23.1116   -9.6599  -18.1181 O   0  0  0  0  0  0  0  0  0  0  0  0
   22.4089   -9.8903  -15.9543 N   0  0  0  0  0  0  0  0  0  0  0  0
   21.8220   -8.5938  -16.0403 C   0  0  1  0  0  0  0  0  0  0  0  0
   20.4901   -8.6118  -16.7770 C   0  0  0  0  0  0  0  0  0  0  0  0
   19.8536   -7.2390  -16.8110 C   0  0  0  0  0  0  0  0  0  0  0  0
   18.5421   -7.3306  -17.5426 C   0  0  0  0  0  0  0  0  0  0  0  0
   17.8143   -6.0147  -17.6252 C   0  0  0  0  0  0  0  0  0  0  0  0
   16.5068   -6.1863  -18.2756 N   0  0  0  0  0  0  0  0  0  0  0  0
   21.5971   -7.9283  -14.7444 C   0  0  0  0  0  0  0  0  0  0  0  0
   21.7182   -8.4973  -13.6445 O   0  0  0  0  0  0  0  0  0  0  0  0
   21.2203   -6.5641  -14.7051 O   0  0  0  0  0  0  0  0  0  0  0  0
  2  1  1  0
  3  2  1  0
  3  4  1  1
  5  3  1  0
  5  6  1  6
  7  5  1  0
  8  7  2  0
 10  9  1  1
 10 12  1  0
 11 10  1  0
 13 12  1  6
 13 15  1  0
 13 14  1  0
 14  7  1  0
 15 16  2  0
 17 15  1  0
 17 18  1  0
 18 24  1  0
 18 19  1  1
 20 19  1  0
 21 20  1  0
 22 21  1  0
 23 22  1  0
 24 25  2  0
 24 26  1  0
M  END
$$$$
