ILK.pdb
     RDKit          3D

 26 25  0  0  1  0  0  0  0  0999 V2000
   14.0975  -13.1289  -10.9483 C   0  0  0  0  0  0  0  0  0  0  0  0
   15.2540  -12.1817  -11.0480 C   0  0  0  0  0  0  0  0  0  0  0  0
   14.7946  -10.7774  -10.7928 C   0  0  2  0  0  0  0  0  0  0  0  0
   13.7067  -10.4488  -11.7708 C   0  0  0  0  0  0  0  0  0  0  0  0
   15.9434   -9.7990  -10.9252 C   0  0  2  0  0  0  0  0  0  0  0  0
   16.9367   -9.9785   -9.9129 N   0  0  0  0  0  0  0  0  0  0  0  0
   15.3465   -8.4189  -10.8797 C   0  0  0  0  0  0  0  0  0  0  0  0
   14.4952   -8.0493  -11.7271 O   0  0  0  0  0  0  0  0  0  0  0  0
   12.7504   -5.0983   -8.2368 C   0  0  0  0  0  0  0  0  0  0  0  0
   13.9201   -5.7774   -7.5578 C   0  0  2  0  0  0  0  0  0  0  0  0
   14.0163   -5.4503   -6.1016 C   0  0  0  0  0  0  0  0  0  0  0  0
   15.1614   -5.7976   -8.3381 C   0  0  0  0  0  0  0  0  0  0  0  0
   15.1665   -6.1649   -9.7662 C   0  0  2  0  0  0  0  0  0  0  0  0
   15.7663   -7.5362   -9.8537 N   0  0  0  0  0  0  0  0  0  0  0  0
   15.9217   -5.3331  -10.7083 C   0  0  0  0  0  0  0  0  0  0  0  0
   17.2063   -5.4028  -10.7431 O   0  0  0  0  0  0  0  0  0  0  0  0
   15.3412   -4.4240  -11.6331 N   0  0  0  0  0  0  0  0  0  0  0  0
   16.1817   -3.7374  -12.5578 C   0  0  1  0  0  0  0  0  0  0  0  0
   16.2905   -4.4670  -13.8893 C   0  0  0  0  0  0  0  0  0  0  0  0
   17.1372   -3.6966  -14.8794 C   0  0  0  0  0  0  0  0  0  0  0  0
   17.1818   -4.4588  -16.1757 C   0  0  0  0  0  0  0  0  0  0  0  0
   18.0204   -3.7876  -17.2314 C   0  0  0  0  0  0  0  0  0  0  0  0
   18.0476   -4.5939  -18.4608 N   0  0  0  0  0  0  0  0  0  0  0  0
   15.7778   -2.3501  -12.8501 C   0  0  0  0  0  0  0  0  0  0  0  0
   14.6040   -1.9429  -12.7836 O   0  0  0  0  0  0  0  0  0  0  0  0
   16.7508   -1.3951  -13.2319 O   0  0  0  0  0  0  0  0  0  0  0  0
  2  1  1  0
  3  2  1  0
  3  4  1  6
  5  3  1  0
  5  6  1  1
  7  5  1  0
  8  7  2  0
 10  9  1  6
 10 12  1  0
 11 10  1  0
 13 12  1  1
 13 15  1  0
 13 14  1  0
 14  7  1  0
 15 16  2  0
 17 15  1  0
 17 18  1  0
 18 24  1  0
 18 19  1  6
 20 19  1  0
 21 20  1  0
 22 21  1  0
 23 22  1  0
 24 25  2  0
 24 26  1  0
M  END
$$$$
