ILK.pdb
     RDKit          3D

 26 25  0  0  1  0  0  0  0  0999 V2000
   16.8810  -14.7514  -17.9422 C   0  0  0  0  0  0  0  0  0  0  0  0
   17.5181  -13.4973  -18.4578 C   0  0  0  0  0  0  0  0  0  0  0  0
   17.7955  -12.5556  -17.3245 C   0  0  2  0  0  0  0  0  0  0  0  0
   16.5057  -12.2757  -16.6133 C   0  0  0  0  0  0  0  0  0  0  0  0
   18.4160  -11.2690  -17.8287 C   0  0  2  0  0  0  0  0  0  0  0  0
   19.5728  -11.4973  -18.6369 N   0  0  0  0  0  0  0  0  0  0  0  0
   18.7397  -10.4384  -16.6168 C   0  0  0  0  0  0  0  0  0  0  0  0
   17.8958  -10.2648  -15.7019 O   0  0  0  0  0  0  0  0  0  0  0  0
   21.7043  -10.3573  -13.0689 C   0  0  0  0  0  0  0  0  0  0  0  0
   22.3757  -10.0764  -14.3959 C   0  0  2  0  0  0  0  0  0  0  0  0
   23.8674  -10.1493  -14.3191 C   0  0  0  0  0  0  0  0  0  0  0  0
   21.7829   -8.9806  -15.1691 C   0  0  0  0  0  0  0  0  0  0  0  0
   20.3292   -8.9034  -15.4043 C   0  0  2  0  0  0  0  0  0  0  0  0
   20.0260   -9.8507  -16.5262 N   0  0  0  0  0  0  0  0  0  0  0  0
   19.7422   -7.6171  -15.7922 C   0  0  0  0  0  0  0  0  0  0  0  0
   19.9397   -7.1490  -16.9746 O   0  0  0  0  0  0  0  0  0  0  0  0
   18.9326   -6.8082  -14.9501 N   0  0  0  0  0  0  0  0  0  0  0  0
   18.4101   -5.5810  -15.4539 C   0  0  1  0  0  0  0  0  0  0  0  0
   16.9329   -5.4076  -15.1304 C   0  0  0  0  0  0  0  0  0  0  0  0
   16.3662   -4.1565  -15.7664 C   0  0  0  0  0  0  0  0  0  0  0  0
   14.8997   -4.0692  -15.4421 C   0  0  0  0  0  0  0  0  0  0  0  0
   14.2050   -2.9257  -16.1336 C   0  0  0  0  0  0  0  0  0  0  0  0
   12.7737   -2.9100  -15.7968 N   0  0  0  0  0  0  0  0  0  0  0  0
   19.1070   -4.3708  -14.9820 C   0  0  0  0  0  0  0  0  0  0  0  0
   18.8580   -3.2238  -15.3952 O   0  0  0  0  0  0  0  0  0  0  0  0
   20.1244   -4.4761  -14.0030 O   0  0  0  0  0  0  0  0  0  0  0  0
  2  1  1  0
  3  2  1  0
  3  4  1  6
  5  3  1  0
  5  6  1  1
  7  5  1  0
  8  7  2  0
 10  9  1  1
 10 12  1  0
 11 10  1  0
 13 12  1  6
 13 15  1  0
 13 14  1  0
 14  7  1  0
 15 16  2  0
 17 15  1  0
 17 18  1  0
 18 24  1  0
 18 19  1  1
 20 19  1  0
 21 20  1  0
 22 21  1  0
 23 22  1  0
 24 25  2  0
 24 26  1  0
M  END
$$$$
