ILK.pdb
     RDKit          3D

 26 25  0  0  1  0  0  0  0  0999 V2000
   19.5773  -38.9095   -5.6336 C   0  0  0  0  0  0  0  0  0  0  0  0
   19.8886  -37.8356   -6.6309 C   0  0  0  0  0  0  0  0  0  0  0  0
   21.3033  -37.3685   -6.4618 C   0  0  2  0  0  0  0  0  0  0  0  0
   21.4392  -36.7483   -5.1036 C   0  0  0  0  0  0  0  0  0  0  0  0
   21.6784  -36.3745   -7.5414 C   0  0  2  0  0  0  0  0  0  0  0  0
   21.5476  -36.9177   -8.8572 N   0  0  0  0  0  0  0  0  0  0  0  0
   23.0897  -35.9372   -7.2584 C   0  0  0  0  0  0  0  0  0  0  0  0
   24.0716  -36.6379   -7.6108 O   0  0  0  0  0  0  0  0  0  0  0  0
   26.1055  -33.5237   -8.9439 C   0  0  0  0  0  0  0  0  0  0  0  0
   25.0118  -32.6575   -8.3575 C   0  0  2  0  0  0  0  0  0  0  0  0
   25.0497  -31.2512   -8.8649 C   0  0  0  0  0  0  0  0  0  0  0  0
   24.7604  -32.8626   -6.9275 C   0  0  0  0  0  0  0  0  0  0  0  0
   24.6881  -34.2154   -6.3453 C   0  0  2  0  0  0  0  0  0  0  0  0
   23.2921  -34.7091   -6.5811 N   0  0  0  0  0  0  0  0  0  0  0  0
   24.9385  -34.3829   -4.9104 C   0  0  0  0  0  0  0  0  0  0  0  0
   24.0832  -33.9495   -4.0520 O   0  0  0  0  0  0  0  0  0  0  0  0
   26.0836  -35.0149   -4.3554 N   0  0  0  0  0  0  0  0  0  0  0  0
   26.1978  -35.1331   -2.9391 C   0  0  1  0  0  0  0  0  0  0  0  0
   26.6504  -36.5220   -2.5113 C   0  0  0  0  0  0  0  0  0  0  0  0
   25.5081  -37.3252   -1.9276 C   0  0  0  0  0  0  0  0  0  0  0  0
   25.8456  -38.7882   -2.0228 C   0  0  0  0  0  0  0  0  0  0  0  0
   24.7339  -39.6869   -1.5488 C   0  0  0  0  0  0  0  0  0  0  0  0
   25.1959  -41.0801   -1.4620 N   0  0  0  0  0  0  0  0  0  0  0  0
   27.1090  -34.1614   -2.3078 C   0  0  0  0  0  0  0  0  0  0  0  0
   27.7455  -33.2987   -2.9393 O   0  0  0  0  0  0  0  0  0  0  0  0
   27.2989  -34.1771   -0.9048 O   0  0  0  0  0  0  0  0  0  0  0  0
  2  1  1  0
  3  2  1  0
  3  4  1  1
  5  3  1  0
  5  6  1  6
  7  5  1  0
  8  7  2  0
 10  9  1  1
 10 12  1  0
 11 10  1  0
 13 12  1  1
 13 15  1  0
 13 14  1  0
 14  7  1  0
 15 16  2  0
 17 15  1  0
 17 18  1  0
 18 24  1  0
 18 19  1  6
 20 19  1  0
 21 20  1  0
 22 21  1  0
 23 22  1  0
 24 25  2  0
 24 26  1  0
M  END
$$$$
