ILK.pdb
     RDKit          3D

 26 25  0  0  1  0  0  0  0  0999 V2000
   23.9796  -20.9752   -7.2267 C   0  0  0  0  0  0  0  0  0  0  0  0
   23.7395  -21.3814   -8.6487 C   0  0  0  0  0  0  0  0  0  0  0  0
   24.5264  -20.5043   -9.5760 C   0  0  2  0  0  0  0  0  0  0  0  0
   24.1216  -19.0802   -9.3399 C   0  0  0  0  0  0  0  0  0  0  0  0
   24.2896  -20.8932  -11.0207 C   0  0  2  0  0  0  0  0  0  0  0  0
   24.1079  -22.3013  -11.1875 N   0  0  0  0  0  0  0  0  0  0  0  0
   25.4692  -20.3881  -11.8058 C   0  0  0  0  0  0  0  0  0  0  0  0
   25.6679  -19.1572  -11.9633 O   0  0  0  0  0  0  0  0  0  0  0  0
   29.7807  -19.5690  -11.5946 C   0  0  0  0  0  0  0  0  0  0  0  0
   29.4703  -21.0493  -11.5433 C   0  0  2  0  0  0  0  0  0  0  0  0
   30.6188  -21.8667  -11.0441 C   0  0  0  0  0  0  0  0  0  0  0  0
   28.7119  -21.5622  -12.6887 C   0  0  0  0  0  0  0  0  0  0  0  0
   27.5174  -20.8622  -13.1962 C   0  0  2  0  0  0  0  0  0  0  0  0
   26.3599  -21.3354  -12.3689 N   0  0  0  0  0  0  0  0  0  0  0  0
   27.1219  -21.0595  -14.5941 C   0  0  0  0  0  0  0  0  0  0  0  0
   26.9146  -22.2474  -15.0438 O   0  0  0  0  0  0  0  0  0  0  0  0
   26.9289  -20.0147  -15.5375 N   0  0  0  0  0  0  0  0  0  0  0  0
   26.3629  -20.3194  -16.8102 C   0  0  1  0  0  0  0  0  0  0  0  0
   24.8631  -20.5668  -16.7296 C   0  0  0  0  0  0  0  0  0  0  0  0
   24.1344  -19.3825  -16.1319 C   0  0  0  0  0  0  0  0  0  0  0  0
   22.6692  -19.7114  -16.0386 C   0  0  0  0  0  0  0  0  0  0  0  0
   21.8319  -18.5610  -15.5450 C   0  0  0  0  0  0  0  0  0  0  0  0
   20.4274  -18.9698  -15.3954 N   0  0  0  0  0  0  0  0  0  0  0  0
   26.5830  -19.2953  -17.8474 C   0  0  0  0  0  0  0  0  0  0  0  0
   27.0134  -18.1522  -17.6103 O   0  0  0  0  0  0  0  0  0  0  0  0
   26.3009  -19.5890  -19.2034 O   0  0  0  0  0  0  0  0  0  0  0  0
  2  1  1  0
  3  2  1  0
  3  4  1  6
  5  3  1  0
  5  6  1  1
  7  5  1  0
  8  7  2  0
 10  9  1  6
 10 12  1  0
 11 10  1  0
 13 12  1  1
 13 15  1  0
 13 14  1  0
 14  7  1  0
 15 16  2  0
 17 15  1  0
 17 18  1  0
 18 24  1  0
 18 19  1  1
 20 19  1  0
 21 20  1  0
 22 21  1  0
 23 22  1  0
 24 25  2  0
 24 26  1  0
M  END
$$$$
