ILK.pdb
     RDKit          3D

 26 25  0  0  1  0  0  0  0  0999 V2000
   27.6644  -20.5672  -15.9246 C   0  0  0  0  0  0  0  0  0  0  0  0
   26.4229  -20.1913  -15.1750 C   0  0  0  0  0  0  0  0  0  0  0  0
   26.4552  -20.7782  -13.7955 C   0  0  2  0  0  0  0  0  0  0  0  0
   26.5525  -22.2694  -13.9163 C   0  0  0  0  0  0  0  0  0  0  0  0
   25.2198  -20.3867  -13.0112 C   0  0  2  0  0  0  0  0  0  0  0  0
   24.9903  -18.9757  -13.0168 N   0  0  0  0  0  0  0  0  0  0  0  0
   25.4065  -20.9138  -11.6146 C   0  0  0  0  0  0  0  0  0  0  0  0
   25.5394  -22.1441  -11.3953 O   0  0  0  0  0  0  0  0  0  0  0  0
   27.4387  -18.6479   -6.3109 C   0  0  0  0  0  0  0  0  0  0  0  0
   26.9143  -19.8508   -7.0648 C   0  0  2  0  0  0  0  0  0  0  0  0
   27.7377  -21.0795   -6.8430 C   0  0  0  0  0  0  0  0  0  0  0  0
   26.4531  -19.5730   -8.4287 C   0  0  0  0  0  0  0  0  0  0  0  0
   25.5387  -20.4904   -9.1334 C   0  0  2  0  0  0  0  0  0  0  0  0
   25.4298  -19.9882  -10.5419 N   0  0  0  0  0  0  0  0  0  0  0  0
   24.1626  -20.6302   -8.6471 C   0  0  0  0  0  0  0  0  0  0  0  0
   23.3499  -19.6348   -8.7177 O   0  0  0  0  0  0  0  0  0  0  0  0
   23.6163  -21.8172   -8.0890 N   0  0  0  0  0  0  0  0  0  0  0  0
   22.2888  -21.7971   -7.5692 C   0  0  1  0  0  0  0  0  0  0  0  0
   21.4465  -22.9506   -8.0954 C   0  0  0  0  0  0  0  0  0  0  0  0
   20.0399  -22.9132   -7.5377 C   0  0  0  0  0  0  0  0  0  0  0  0
   19.2575  -24.0598   -8.1180 C   0  0  0  0  0  0  0  0  0  0  0  0
   17.8209  -24.0880   -7.6666 C   0  0  0  0  0  0  0  0  0  0  0  0
   17.1089  -25.2208   -8.2765 N   0  0  0  0  0  0  0  0  0  0  0  0
   22.1990  -21.8244   -6.0981 C   0  0  0  0  0  0  0  0  0  0  0  0
   21.1738  -21.5200   -5.4620 O   0  0  0  0  0  0  0  0  0  0  0  0
   23.3211  -22.2136   -5.3274 O   0  0  0  0  0  0  0  0  0  0  0  0
  2  1  1  0
  3  2  1  0
  3  4  1  6
  5  3  1  0
  5  6  1  1
  7  5  1  0
  8  7  2  0
 10  9  1  6
 10 12  1  0
 11 10  1  0
 13 12  1  1
 13 15  1  0
 13 14  1  0
 14  7  1  0
 15 16  2  0
 17 15  1  0
 17 18  1  0
 18 24  1  0
 18 19  1  6
 20 19  1  0
 21 20  1  0
 22 21  1  0
 23 22  1  0
 24 25  2  0
 24 26  1  0
M  END
$$$$
