ILK.pdb
     RDKit          3D

 26 25  0  0  1  0  0  0  0  0999 V2000
   28.9482  -19.3183  -17.7435 C   0  0  0  0  0  0  0  0  0  0  0  0
   27.7259  -18.6407  -17.2036 C   0  0  0  0  0  0  0  0  0  0  0  0
   26.9491  -19.5887  -16.3399 C   0  0  2  0  0  0  0  0  0  0  0  0
   26.6758  -20.8340  -17.1287 C   0  0  0  0  0  0  0  0  0  0  0  0
   25.6531  -18.9585  -15.8733 C   0  0  2  0  0  0  0  0  0  0  0  0
   25.8648  -17.7649  -15.1154 N   0  0  0  0  0  0  0  0  0  0  0  0
   24.9251  -20.0035  -15.0726 C   0  0  0  0  0  0  0  0  0  0  0  0
   24.5790  -21.0956  -15.5892 O   0  0  0  0  0  0  0  0  0  0  0  0
   26.2177  -22.1161  -11.4451 C   0  0  0  0  0  0  0  0  0  0  0  0
   25.6370  -20.8004  -10.9737 C   0  0  2  0  0  0  0  0  0  0  0  0
   25.9143  -20.5271   -9.5298 C   0  0  0  0  0  0  0  0  0  0  0  0
   24.2948  -20.4996  -11.4817 C   0  0  0  0  0  0  0  0  0  0  0  0
   23.9270  -20.7609  -12.8856 C   0  0  2  0  0  0  0  0  0  0  0  0
   24.6349  -19.7301  -13.7128 N   0  0  0  0  0  0  0  0  0  0  0  0
   22.5147  -20.6888  -13.2725 C   0  0  0  0  0  0  0  0  0  0  0  0
   21.8741  -19.5774  -13.1692 O   0  0  0  0  0  0  0  0  0  0  0  0
   21.7567  -21.7773  -13.7818 N   0  0  0  0  0  0  0  0  0  0  0  0
   20.3935  -21.5694  -14.1443 C   0  0  1  0  0  0  0  0  0  0  0  0
   20.0197  -22.3017  -15.4253 C   0  0  0  0  0  0  0  0  0  0  0  0
   18.5904  -22.0164  -15.8335 C   0  0  0  0  0  0  0  0  0  0  0  0
   18.2735  -22.8063  -17.0740 C   0  0  0  0  0  0  0  0  0  0  0  0
   16.9594  -22.4239  -17.7028 C   0  0  0  0  0  0  0  0  0  0  0  0
   16.7999  -23.0807  -19.0087 N   0  0  0  0  0  0  0  0  0  0  0  0
   19.4125  -21.9582  -13.1151 C   0  0  0  0  0  0  0  0  0  0  0  0
   19.6943  -22.6412  -12.1139 O   0  0  0  0  0  0  0  0  0  0  0  0
   18.0616  -21.5515  -13.2351 O   0  0  0  0  0  0  0  0  0  0  0  0
  2  1  1  0
  3  2  1  0
  3  4  1  6
  5  3  1  0
  5  6  1  1
  7  5  1  0
  8  7  2  0
 10  9  1  1
 10 12  1  0
 11 10  1  0
 13 12  1  1
 13 15  1  0
 13 14  1  0
 14  7  1  0
 15 16  2  0
 17 15  1  0
 17 18  1  0
 18 24  1  0
 18 19  1  6
 20 19  1  0
 21 20  1  0
 22 21  1  0
 23 22  1  0
 24 25  2  0
 24 26  1  0
M  END
$$$$
