ILK.pdb
     RDKit          3D

 26 25  0  0  1  0  0  0  0  0999 V2000
   14.8035  -21.6502    3.7542 C   0  0  0  0  0  0  0  0  0  0  0  0
   15.1192  -20.4906    2.8595 C   0  0  0  0  0  0  0  0  0  0  0  0
   16.1068  -19.5793    3.5248 C   0  0  2  0  0  0  0  0  0  0  0  0
   15.5047  -19.0794    4.8036 C   0  0  0  0  0  0  0  0  0  0  0  0
   16.4709  -18.4212    2.6188 C   0  0  2  0  0  0  0  0  0  0  0  0
   16.9655  -18.8523    1.3487 N   0  0  0  0  0  0  0  0  0  0  0  0
   17.4859  -17.5931    3.3586 C   0  0  0  0  0  0  0  0  0  0  0  0
   18.7068  -17.8906    3.3407 O   0  0  0  0  0  0  0  0  0  0  0  0
   19.2068  -13.0514    6.0083 C   0  0  0  0  0  0  0  0  0  0  0  0
   18.9400  -13.2260    4.5289 C   0  0  2  0  0  0  0  0  0  0  0  0
   18.8488  -11.9247    3.7976 C   0  0  0  0  0  0  0  0  0  0  0  0
   17.9643  -14.2684    4.1952 C   0  0  0  0  0  0  0  0  0  0  0  0
   18.0264  -15.6063    4.8123 C   0  0  2  0  0  0  0  0  0  0  0  0
   17.0347  -16.4613    4.0820 N   0  0  0  0  0  0  0  0  0  0  0  0
   17.7070  -15.7444    6.2365 C   0  0  0  0  0  0  0  0  0  0  0  0
   16.4884  -15.6400    6.6368 O   0  0  0  0  0  0  0  0  0  0  0  0
   18.6584  -16.0031    7.2597 N   0  0  0  0  0  0  0  0  0  0  0  0
   18.2194  -16.0989    8.6128 C   0  0  1  0  0  0  0  0  0  0  0  0
   18.4325  -17.4909    9.1907 C   0  0  0  0  0  0  0  0  0  0  0  0
   17.1950  -17.9945    9.9018 C   0  0  0  0  0  0  0  0  0  0  0  0
   17.4992  -19.3344   10.5145 C   0  0  0  0  0  0  0  0  0  0  0  0
   16.3208  -19.9433   11.2278 C   0  0  0  0  0  0  0  0  0  0  0  0
   16.6855  -21.2409   11.8155 N   0  0  0  0  0  0  0  0  0  0  0  0
   18.8491  -15.1393    9.5379 C   0  0  0  0  0  0  0  0  0  0  0  0
   19.8812  -14.4975    9.2716 O   0  0  0  0  0  0  0  0  0  0  0  0
   18.2781  -14.9056   10.8122 O   0  0  0  0  0  0  0  0  0  0  0  0
  2  1  1  0
  3  2  1  0
  3  4  1  1
  5  3  1  0
  5  6  1  6
  7  5  1  0
  8  7  2  0
 10  9  1  1
 10 12  1  0
 11 10  1  0
 13 12  1  6
 13 15  1  0
 13 14  1  0
 14  7  1  0
 15 16  2  0
 17 15  1  0
 17 18  1  0
 18 24  1  0
 18 19  1  1
 20 19  1  0
 21 20  1  0
 22 21  1  0
 23 22  1  0
 24 25  2  0
 24 26  1  0
M  END
$$$$
