ILK.pdb
     RDKit          3D

 26 25  0  0  1  0  0  0  0  0999 V2000
   23.6243  -20.9917   -6.3770 C   0  0  0  0  0  0  0  0  0  0  0  0
   23.0480  -21.5213   -7.6545 C   0  0  0  0  0  0  0  0  0  0  0  0
   23.4960  -20.6789   -8.8112 C   0  0  2  0  0  0  0  0  0  0  0  0
   23.0040  -19.2789   -8.5975 C   0  0  0  0  0  0  0  0  0  0  0  0
   22.9728  -21.2336  -10.1201 C   0  0  2  0  0  0  0  0  0  0  0  0
   23.1831  -22.6423  -10.2425 N   0  0  0  0  0  0  0  0  0  0  0  0
   23.6593  -20.4715  -11.2206 C   0  0  0  0  0  0  0  0  0  0  0  0
   23.4991  -19.2319  -11.3523 O   0  0  0  0  0  0  0  0  0  0  0  0
   28.7992  -21.3049  -14.3804 C   0  0  0  0  0  0  0  0  0  0  0  0
   27.4942  -20.5398  -14.3350 C   0  0  2  0  0  0  0  0  0  0  0  0
   27.6750  -19.0700  -14.5442 C   0  0  0  0  0  0  0  0  0  0  0  0
   26.5597  -20.9726  -13.2913 C   0  0  0  0  0  0  0  0  0  0  0  0
   25.1807  -20.4537  -13.2300 C   0  0  2  0  0  0  0  0  0  0  0  0
   24.4973  -21.1845  -12.1134 N   0  0  0  0  0  0  0  0  0  0  0  0
   24.3141  -20.6067  -14.4026 C   0  0  0  0  0  0  0  0  0  0  0  0
   23.9281  -21.7780  -14.7704 O   0  0  0  0  0  0  0  0  0  0  0  0
   23.8321  -19.5342  -15.2004 N   0  0  0  0  0  0  0  0  0  0  0  0
   22.8831  -19.8021  -16.2301 C   0  0  1  0  0  0  0  0  0  0  0  0
   21.5374  -19.1442  -15.9590 C   0  0  0  0  0  0  0  0  0  0  0  0
   20.5573  -19.3958  -17.0845 C   0  0  0  0  0  0  0  0  0  0  0  0
   19.2624  -18.7000  -16.7645 C   0  0  0  0  0  0  0  0  0  0  0  0
   18.1920  -18.9310  -17.7986 C   0  0  0  0  0  0  0  0  0  0  0  0
   16.9253  -18.3131  -17.3793 N   0  0  0  0  0  0  0  0  0  0  0  0
   23.3050  -19.3953  -17.5827 C   0  0  0  0  0  0  0  0  0  0  0  0
   22.6494  -19.6344  -18.6129 O   0  0  0  0  0  0  0  0  0  0  0  0
   24.5195  -18.6904  -17.7633 O   0  0  0  0  0  0  0  0  0  0  0  0
  2  1  1  0
  3  2  1  0
  3  4  1  1
  5  3  1  0
  5  6  1  6
  7  5  1  0
  8  7  2  0
 10  9  1  1
 10 12  1  0
 11 10  1  0
 13 12  1  6
 13 15  1  0
 13 14  1  0
 14  7  1  0
 15 16  2  0
 17 15  1  0
 17 18  1  0
 18 24  1  0
 18 19  1  1
 20 19  1  0
 21 20  1  0
 22 21  1  0
 23 22  1  0
 24 25  2  0
 24 26  1  0
M  END
$$$$
