ILK.pdb
     RDKit          3D

 26 25  0  0  1  0  0  0  0  0999 V2000
   26.8262  -20.2190   -7.8875 C   0  0  0  0  0  0  0  0  0  0  0  0
   26.5812  -21.1031   -9.0721 C   0  0  0  0  0  0  0  0  0  0  0  0
   25.7848  -20.3684  -10.1085 C   0  0  2  0  0  0  0  0  0  0  0  0
   24.4849  -19.9428   -9.4946 C   0  0  0  0  0  0  0  0  0  0  0  0
   25.5403  -21.2405  -11.3226 C   0  0  2  0  0  0  0  0  0  0  0  0
   26.7114  -21.9498  -11.7338 N   0  0  0  0  0  0  0  0  0  0  0  0
   25.0270  -20.3372  -12.4106 C   0  0  0  0  0  0  0  0  0  0  0  0
   24.0106  -19.6190  -12.2352 O   0  0  0  0  0  0  0  0  0  0  0  0
   26.4052  -16.6380  -14.8186 C   0  0  0  0  0  0  0  0  0  0  0  0
   27.1936  -17.8810  -15.1703 C   0  0  2  0  0  0  0  0  0  0  0  0
   28.4136  -17.5844  -15.9829 C   0  0  0  0  0  0  0  0  0  0  0  0
   26.3818  -19.0406  -15.5527 C   0  0  0  0  0  0  0  0  0  0  0  0
   25.2058  -19.4505  -14.7632 C   0  0  2  0  0  0  0  0  0  0  0  0
   25.7178  -20.3114  -13.6475 N   0  0  0  0  0  0  0  0  0  0  0  0
   24.1483  -20.2261  -15.4189 C   0  0  0  0  0  0  0  0  0  0  0  0
   24.3257  -21.4763  -15.6674 O   0  0  0  0  0  0  0  0  0  0  0  0
   22.8871  -19.7050  -15.8147 N   0  0  0  0  0  0  0  0  0  0  0  0
   21.9665  -20.5509  -16.5000 C   0  0  1  0  0  0  0  0  0  0  0  0
   20.5911  -20.5537  -15.8480 C   0  0  0  0  0  0  0  0  0  0  0  0
   20.4340  -21.7095  -14.8835 C   0  0  0  0  0  0  0  0  0  0  0  0
   19.0224  -21.7183  -14.3629 C   0  0  0  0  0  0  0  0  0  0  0  0
   18.7837  -22.7681  -13.3097 C   0  0  0  0  0  0  0  0  0  0  0  0
   18.9297  -22.1937  -11.9640 N   0  0  0  0  0  0  0  0  0  0  0  0
   21.7747  -20.2310  -17.9262 C   0  0  0  0  0  0  0  0  0  0  0  0
   22.2893  -19.2483  -18.4898 O   0  0  0  0  0  0  0  0  0  0  0  0
   20.9660  -21.0644  -18.7361 O   0  0  0  0  0  0  0  0  0  0  0  0
  2  1  1  0
  3  2  1  0
  3  4  1  1
  5  3  1  0
  5  6  1  6
  7  5  1  0
  8  7  2  0
 10  9  1  6
 10 12  1  0
 11 10  1  0
 13 12  1  6
 13 15  1  0
 13 14  1  0
 14  7  1  0
 15 16  2  0
 17 15  1  0
 17 18  1  0
 18 24  1  0
 18 19  1  1
 20 19  1  0
 21 20  1  0
 22 21  1  0
 23 22  1  0
 24 25  2  0
 24 26  1  0
M  END
$$$$
