AKI.pdb
     RDKit          3D

 23 22  0  0  1  0  0  0  0  0999 V2000
    8.0876  -12.4757   20.0274 C   0  0  0  0  0  0  0  0  0  0  0  0
    7.9654  -13.9590   19.7455 C   0  0  2  0  0  0  0  0  0  0  0  0
    6.7950  -14.1980   18.9570 N   0  0  0  0  0  0  0  0  0  0  0  0
    7.9481  -14.7647   20.9915 C   0  0  0  0  0  0  0  0  0  0  0  0
    6.8408  -14.9682   21.5453 O   0  0  0  0  0  0  0  0  0  0  0  0
    9.1241  -15.3049   21.5695 N   0  0  0  0  0  0  0  0  0  0  0  0
    9.0818  -16.1308   22.7726 C   0  0  1  0  0  0  0  0  0  0  0  0
    9.9987  -17.3066   22.5558 C   0  0  0  0  0  0  0  0  0  0  0  0
   10.0243  -18.2954   23.6664 C   0  0  0  0  0  0  0  0  0  0  0  0
   10.9284  -19.4659   23.3444 C   0  0  0  0  0  0  0  0  0  0  0  0
   10.9321  -20.4728   24.4967 C   0  0  0  0  0  0  0  0  0  0  0  0
   11.7204  -21.6328   24.1490 N   0  0  0  0  0  0  0  0  0  0  0  0
    9.4137  -15.3552   23.9789 C   0  0  0  0  0  0  0  0  0  0  0  0
   10.4506  -14.6563   23.9781 O   0  0  0  0  0  0  0  0  0  0  0  0
    5.8920  -12.3904   26.5352 C   0  0  0  0  0  0  0  0  0  0  0  0
    7.0868  -13.0528   25.8863 C   0  0  0  0  0  0  0  0  0  0  0  0
    7.9180  -13.7845   26.9068 C   0  0  2  0  0  0  0  0  0  0  0  0
    8.3560  -12.8696   27.9994 C   0  0  0  0  0  0  0  0  0  0  0  0
    9.0358  -14.5708   26.2736 C   0  0  2  0  0  0  0  0  0  0  0  0
    8.6177  -15.3538   25.1555 N   0  0  0  0  0  0  0  0  0  0  0  0
    9.5865  -15.4575   27.3605 C   0  0  0  0  0  0  0  0  0  0  0  0
    9.4183  -16.8196   27.3703 O   0  0  0  0  0  0  0  0  0  0  0  0
   10.2265  -14.9224   28.2959 O   0  0  0  0  0  0  0  0  0  0  0  0
  2  1  1  1
  2  3  1  0
  4  5  2  0
  4  2  1  0
  6  4  1  0
  7  6  1  0
  7  8  1  6
  9 10  1  0
  9  8  1  0
 10 11  1  0
 11 12  1  0
 13  7  1  0
 13 20  1  0
 14 13  2  0
 16 15  1  0
 17 16  1  0
 17 19  1  0
 17 18  1  1
 19 20  1  6
 19 21  1  0
 21 22  1  0
 23 21  2  0
M  END
$$$$
