AKI.pdb
     RDKit          3D

 23 22  0  0  1  0  0  0  0  0999 V2000
    8.5949  -12.4733   19.1698 C   0  0  0  0  0  0  0  0  0  0  0  0
    8.0148  -13.8605   18.9852 C   0  0  2  0  0  0  0  0  0  0  0  0
    6.9339  -13.8026   18.0487 N   0  0  0  0  0  0  0  0  0  0  0  0
    7.5806  -14.4599   20.2713 C   0  0  0  0  0  0  0  0  0  0  0  0
    6.4070  -14.2394   20.6568 O   0  0  0  0  0  0  0  0  0  0  0  0
    8.4348  -15.2623   21.0683 N   0  0  0  0  0  0  0  0  0  0  0  0
    7.9551  -15.9421   22.2679 C   0  0  1  0  0  0  0  0  0  0  0  0
    8.3201  -17.3991   22.1479 C   0  0  0  0  0  0  0  0  0  0  0  0
    7.9316  -18.2410   23.3107 C   0  0  0  0  0  0  0  0  0  0  0  0
    8.2539  -19.7002   23.0694 C   0  0  0  0  0  0  0  0  0  0  0  0
    7.8115  -20.5507   24.2621 C   0  0  0  0  0  0  0  0  0  0  0  0
    8.0018  -21.9545   23.9774 N   0  0  0  0  0  0  0  0  0  0  0  0
    8.4751  -15.3164   23.4946 C   0  0  0  0  0  0  0  0  0  0  0  0
    9.6797  -14.9836   23.5359 O   0  0  0  0  0  0  0  0  0  0  0  0
    5.4871  -11.8385   26.2396 C   0  0  0  0  0  0  0  0  0  0  0  0
    6.6410  -12.5333   25.5518 C   0  0  0  0  0  0  0  0  0  0  0  0
    7.3338  -13.4857   26.4903 C   0  0  2  0  0  0  0  0  0  0  0  0
    7.9507  -12.7581   27.6360 C   0  0  0  0  0  0  0  0  0  0  0  0
    8.2753  -14.4135   25.7682 C   0  0  2  0  0  0  0  0  0  0  0  0
    7.6812  -15.0657   24.6458 N   0  0  0  0  0  0  0  0  0  0  0  0
    8.7230  -15.4271   26.7894 C   0  0  0  0  0  0  0  0  0  0  0  0
    8.2973  -16.7319   26.7833 O   0  0  0  0  0  0  0  0  0  0  0  0
    9.5203  -15.0573   27.6830 O   0  0  0  0  0  0  0  0  0  0  0  0
  2  1  1  1
  2  3  1  0
  4  5  2  0
  4  2  1  0
  6  4  1  0
  7  6  1  0
  7  8  1  6
  9 10  1  0
  9  8  1  0
 10 11  1  0
 11 12  1  0
 13  7  1  0
 13 20  1  0
 14 13  2  0
 16 15  1  0
 17 16  1  0
 17 19  1  0
 17 18  1  1
 19 20  1  6
 19 21  1  0
 21 22  1  0
 23 21  2  0
M  END
$$$$
