AKI.pdb
     RDKit          3D

 23 22  0  0  1  0  0  0  0  0999 V2000
    8.6258  -12.2871   19.4326 C   0  0  0  0  0  0  0  0  0  0  0  0
    8.1537  -13.6914   19.1165 C   0  0  2  0  0  0  0  0  0  0  0  0
    7.1347  -13.6354   18.1130 N   0  0  0  0  0  0  0  0  0  0  0  0
    7.6780  -14.4063   20.3267 C   0  0  0  0  0  0  0  0  0  0  0  0
    6.5047  -14.1894   20.7151 O   0  0  0  0  0  0  0  0  0  0  0  0
    8.4928  -15.3135   21.0490 N   0  0  0  0  0  0  0  0  0  0  0  0
    7.9973  -16.0282   22.2217 C   0  0  1  0  0  0  0  0  0  0  0  0
    8.3285  -17.4875   22.0447 C   0  0  0  0  0  0  0  0  0  0  0  0
    7.9894  -18.3530   23.2056 C   0  0  0  0  0  0  0  0  0  0  0  0
    8.4329  -19.7823   22.9782 C   0  0  0  0  0  0  0  0  0  0  0  0
    7.9621  -20.6782   24.1260 C   0  0  0  0  0  0  0  0  0  0  0  0
    8.9794  -20.7626   25.1486 N   0  0  0  0  0  0  0  0  0  0  0  0
    8.5316  -15.4630   23.4714 C   0  0  0  0  0  0  0  0  0  0  0  0
    9.7310  -15.1112   23.5079 O   0  0  0  0  0  0  0  0  0  0  0  0
    5.9767  -11.7554   26.1912 C   0  0  0  0  0  0  0  0  0  0  0  0
    7.0489  -12.6092   25.5519 C   0  0  0  0  0  0  0  0  0  0  0  0
    7.5092  -13.6911   26.4928 C   0  0  2  0  0  0  0  0  0  0  0  0
    8.1160  -13.1101   27.7244 C   0  0  0  0  0  0  0  0  0  0  0  0
    8.3706  -14.7170   25.8041 C   0  0  2  0  0  0  0  0  0  0  0  0
    7.7574  -15.2917   24.6501 N   0  0  0  0  0  0  0  0  0  0  0  0
    8.6534  -15.7798   26.8341 C   0  0  0  0  0  0  0  0  0  0  0  0
    9.6669  -15.6779   27.7540 O   0  0  0  0  0  0  0  0  0  0  0  0
    7.9275  -16.8016   26.8476 O   0  0  0  0  0  0  0  0  0  0  0  0
  2  1  1  1
  2  3  1  0
  4  5  2  0
  4  2  1  0
  6  4  1  0
  7  6  1  0
  7  8  1  6
  9 10  1  0
  9  8  1  0
 10 11  1  0
 11 12  1  0
 13  7  1  0
 13 20  1  0
 14 13  2  0
 16 15  1  0
 17 16  1  0
 17 19  1  0
 17 18  1  1
 19 20  1  6
 19 21  1  0
 21 22  1  0
 23 21  2  0
M  END
$$$$
