AKI.pdb
     RDKit          3D

 23 22  0  0  1  0  0  0  0  0999 V2000
    3.7636  -17.6891   21.7639 C   0  0  0  0  0  0  0  0  0  0  0  0
    5.0449  -17.9754   21.0083 C   0  0  2  0  0  0  0  0  0  0  0  0
    4.9659  -19.2753   20.4144 N   0  0  0  0  0  0  0  0  0  0  0  0
    6.2435  -17.8519   21.8743 C   0  0  0  0  0  0  0  0  0  0  0  0
    6.3890  -18.6861   22.8003 O   0  0  0  0  0  0  0  0  0  0  0  0
    7.2165  -16.8372   21.6937 N   0  0  0  0  0  0  0  0  0  0  0  0
    8.3605  -16.6986   22.5900 C   0  0  1  0  0  0  0  0  0  0  0  0
    9.6108  -16.7431   21.7502 C   0  0  0  0  0  0  0  0  0  0  0  0
   10.8834  -16.7519   22.5197 C   0  0  0  0  0  0  0  0  0  0  0  0
   12.0859  -16.7431   21.6003 C   0  0  0  0  0  0  0  0  0  0  0  0
   13.3707  -16.5203   22.4010 C   0  0  0  0  0  0  0  0  0  0  0  0
   14.5115  -16.4616   21.5161 N   0  0  0  0  0  0  0  0  0  0  0  0
    8.2630  -15.4838   23.4154 C   0  0  0  0  0  0  0  0  0  0  0  0
    8.4492  -14.3722   22.8739 O   0  0  0  0  0  0  0  0  0  0  0  0
    5.3448  -12.5192   26.1575 C   0  0  0  0  0  0  0  0  0  0  0  0
    6.5566  -13.0344   25.4135 C   0  0  0  0  0  0  0  0  0  0  0  0
    7.5503  -13.6508   26.3625 C   0  0  2  0  0  0  0  0  0  0  0  0
    8.1500  -12.6200   27.2572 C   0  0  0  0  0  0  0  0  0  0  0  0
    8.5588  -14.5137   25.6504 C   0  0  2  0  0  0  0  0  0  0  0  0
    7.9669  -15.4998   24.8047 N   0  0  0  0  0  0  0  0  0  0  0  0
    9.3787  -15.1705   26.7307 C   0  0  0  0  0  0  0  0  0  0  0  0
   10.4463  -14.5561   27.3361 O   0  0  0  0  0  0  0  0  0  0  0  0
    9.0679  -16.3305   27.0895 O   0  0  0  0  0  0  0  0  0  0  0  0
  2  1  1  1
  2  3  1  0
  4  5  2  0
  4  2  1  0
  6  4  1  0
  7  6  1  0
  7  8  1  6
  9 10  1  0
  9  8  1  0
 10 11  1  0
 11 12  1  0
 13  7  1  0
 13 20  1  0
 14 13  2  0
 16 15  1  0
 17 16  1  0
 17 19  1  0
 17 18  1  6
 19 20  1  1
 19 21  1  0
 21 22  1  0
 23 21  2  0
M  END
$$$$
