AKI.pdb
     RDKit          3D

 23 22  0  0  1  0  0  0  0  0999 V2000
    6.1531  -18.8522   25.3234 C   0  0  0  0  0  0  0  0  0  0  0  0
    6.2991  -18.8831   23.8160 C   0  0  2  0  0  0  0  0  0  0  0  0
    6.7192  -20.1885   23.4061 N   0  0  0  0  0  0  0  0  0  0  0  0
    7.2315  -17.8389   23.3237 C   0  0  0  0  0  0  0  0  0  0  0  0
    8.4599  -18.0943   23.3346 O   0  0  0  0  0  0  0  0  0  0  0  0
    6.7875  -16.5797   22.8480 N   0  0  0  0  0  0  0  0  0  0  0  0
    7.7239  -15.5244   22.4725 C   0  0  1  0  0  0  0  0  0  0  0  0
    7.0406  -14.6425   21.4597 C   0  0  0  0  0  0  0  0  0  0  0  0
    7.9174  -13.6255   20.8204 C   0  0  0  0  0  0  0  0  0  0  0  0
    7.4919  -13.3456   19.3950 C   0  0  0  0  0  0  0  0  0  0  0  0
    8.5641  -12.5333   18.6656 C   0  0  0  0  0  0  0  0  0  0  0  0
    8.1842  -12.3206   17.2878 N   0  0  0  0  0  0  0  0  0  0  0  0
    8.2109  -14.7834   23.6474 C   0  0  0  0  0  0  0  0  0  0  0  0
    8.2934  -13.5375   23.5808 O   0  0  0  0  0  0  0  0  0  0  0  0
    6.1828  -11.9358   25.9701 C   0  0  0  0  0  0  0  0  0  0  0  0
    7.3166  -12.7804   25.4329 C   0  0  0  0  0  0  0  0  0  0  0  0
    7.8246  -13.7323   26.4834 C   0  0  2  0  0  0  0  0  0  0  0  0
    8.1201  -13.0182   27.7583 C   0  0  0  0  0  0  0  0  0  0  0  0
    8.9562  -14.5882   25.9776 C   0  0  2  0  0  0  0  0  0  0  0  0
    8.5965  -15.4064   24.8645 N   0  0  0  0  0  0  0  0  0  0  0  0
    9.3824  -15.4431   27.1431 C   0  0  0  0  0  0  0  0  0  0  0  0
    9.2080  -16.8041   27.1745 O   0  0  0  0  0  0  0  0  0  0  0  0
    9.9200  -14.8813   28.1261 O   0  0  0  0  0  0  0  0  0  0  0  0
  2  1  1  1
  2  3  1  0
  4  5  2  0
  4  2  1  0
  6  4  1  0
  7  6  1  0
  7  8  1  6
  9 10  1  0
  9  8  1  0
 10 11  1  0
 11 12  1  0
 13  7  1  0
 13 20  1  0
 14 13  2  0
 16 15  1  0
 17 16  1  0
 17 19  1  0
 17 18  1  1
 19 20  1  6
 19 21  1  0
 21 22  1  0
 23 21  2  0
M  END
$$$$
