AKI.pdb
     RDKit          3D

 23 22  0  0  1  0  0  0  0  0999 V2000
    7.4507  -12.4236   18.7012 C   0  0  0  0  0  0  0  0  0  0  0  0
    8.4954  -13.2896   19.3745 C   0  0  2  0  0  0  0  0  0  0  0  0
    8.9541  -14.2839   18.4526 N   0  0  0  0  0  0  0  0  0  0  0  0
    7.9872  -13.9083   20.6238 C   0  0  0  0  0  0  0  0  0  0  0  0
    7.4991  -13.1525   21.4985 O   0  0  0  0  0  0  0  0  0  0  0  0
    8.0338  -15.3051   20.8597 N   0  0  0  0  0  0  0  0  0  0  0  0
    7.4455  -15.9047   22.0537 C   0  0  1  0  0  0  0  0  0  0  0  0
    7.4405  -17.3994   21.8629 C   0  0  0  0  0  0  0  0  0  0  0  0
    6.7210  -17.8746   20.6511 C   0  0  0  0  0  0  0  0  0  0  0  0
    6.8690  -19.3702   20.4708 C   0  0  0  0  0  0  0  0  0  0  0  0
    6.0778  -19.8434   19.2495 C   0  0  0  0  0  0  0  0  0  0  0  0
    6.2669  -21.2613   19.0456 N   0  0  0  0  0  0  0  0  0  0  0  0
    8.1450  -15.4819   23.2779 C   0  0  0  0  0  0  0  0  0  0  0  0
    9.3931  -15.4074   23.2622 O   0  0  0  0  0  0  0  0  0  0  0  0
    6.1196  -11.5049   26.2503 C   0  0  0  0  0  0  0  0  0  0  0  0
    7.0143  -12.4474   25.4767 C   0  0  0  0  0  0  0  0  0  0  0  0
    7.5138  -13.5619   26.3578 C   0  0  2  0  0  0  0  0  0  0  0  0
    8.2792  -13.0266   27.5198 C   0  0  0  0  0  0  0  0  0  0  0  0
    8.2401  -14.6247   25.5758 C   0  0  2  0  0  0  0  0  0  0  0  0
    7.4792  -15.1502   24.4882 N   0  0  0  0  0  0  0  0  0  0  0  0
    8.5684  -15.7145   26.5633 C   0  0  0  0  0  0  0  0  0  0  0  0
    9.6645  -15.6699   27.3882 O   0  0  0  0  0  0  0  0  0  0  0  0
    7.8029  -16.7047   26.6310 O   0  0  0  0  0  0  0  0  0  0  0  0
  2  1  1  6
  2  3  1  0
  4  5  2  0
  4  2  1  0
  6  4  1  0
  7  6  1  0
  7  8  1  6
  9 10  1  0
  9  8  1  0
 10 11  1  0
 11 12  1  0
 13  7  1  0
 13 20  1  0
 14 13  2  0
 16 15  1  0
 17 16  1  0
 17 19  1  0
 17 18  1  1
 19 20  1  6
 19 21  1  0
 21 22  1  0
 23 21  2  0
M  END
$$$$
