AKI.pdb
     RDKit          3D

 23 22  0  0  1  0  0  0  0  0999 V2000
    7.4227  -12.6958   18.9047 C   0  0  0  0  0  0  0  0  0  0  0  0
    8.3807  -13.7222   19.4734 C   0  0  2  0  0  0  0  0  0  0  0  0
    8.5404  -14.7930   18.5372 N   0  0  0  0  0  0  0  0  0  0  0  0
    7.9379  -14.2265   20.7969 C   0  0  0  0  0  0  0  0  0  0  0  0
    7.6509  -13.3843   21.6816 O   0  0  0  0  0  0  0  0  0  0  0  0
    7.8297  -15.6086   21.0917 N   0  0  0  0  0  0  0  0  0  0  0  0
    7.2324  -16.0865   22.3351 C   0  0  1  0  0  0  0  0  0  0  0  0
    7.1415  -17.5884   22.2541 C   0  0  0  0  0  0  0  0  0  0  0  0
    6.0385  -18.1050   21.4007 C   0  0  0  0  0  0  0  0  0  0  0  0
    6.0489  -19.6174   21.3388 C   0  0  0  0  0  0  0  0  0  0  0  0
    4.9610  -20.1221   20.3883 C   0  0  0  0  0  0  0  0  0  0  0  0
    4.9611  -21.5664   20.3446 N   0  0  0  0  0  0  0  0  0  0  0  0
    7.9773  -15.6165   23.5144 C   0  0  0  0  0  0  0  0  0  0  0  0
    9.2261  -15.5792   23.4614 O   0  0  0  0  0  0  0  0  0  0  0  0
    5.9526  -11.6606   26.6533 C   0  0  0  0  0  0  0  0  0  0  0  0
    6.8256  -12.5508   25.7972 C   0  0  0  0  0  0  0  0  0  0  0  0
    7.4483  -13.6476   26.6200 C   0  0  2  0  0  0  0  0  0  0  0  0
    8.2740  -13.0864   27.7273 C   0  0  0  0  0  0  0  0  0  0  0  0
    8.1644  -14.6626   25.7681 C   0  0  2  0  0  0  0  0  0  0  0  0
    7.3552  -15.1985   24.7212 N   0  0  0  0  0  0  0  0  0  0  0  0
    8.6026  -15.7567   26.7070 C   0  0  0  0  0  0  0  0  0  0  0  0
    9.7254  -15.6634   27.4909 O   0  0  0  0  0  0  0  0  0  0  0  0
    7.9070  -16.7974   26.7717 O   0  0  0  0  0  0  0  0  0  0  0  0
  2  1  1  6
  2  3  1  0
  4  5  2  0
  4  2  1  0
  6  4  1  0
  7  6  1  0
  7  8  1  6
  9 10  1  0
  9  8  1  0
 10 11  1  0
 11 12  1  0
 13  7  1  0
 13 20  1  0
 14 13  2  0
 16 15  1  0
 17 16  1  0
 17 19  1  0
 17 18  1  1
 19 20  1  6
 19 21  1  0
 21 22  1  0
 23 21  2  0
M  END
$$$$
