AKI.pdb
     RDKit          3D

 23 22  0  0  1  0  0  0  0  0999 V2000
    8.7906  -12.7228   19.3730 C   0  0  0  0  0  0  0  0  0  0  0  0
    8.0989  -14.0559   19.1752 C   0  0  2  0  0  0  0  0  0  0  0  0
    7.0864  -13.9216   18.1724 N   0  0  0  0  0  0  0  0  0  0  0  0
    7.5348  -14.5857   20.4413 C   0  0  0  0  0  0  0  0  0  0  0  0
    6.4122  -14.1619   20.8083 O   0  0  0  0  0  0  0  0  0  0  0  0
    8.2119  -15.5413   21.2396 N   0  0  0  0  0  0  0  0  0  0  0  0
    7.6388  -16.0527   22.4812 C   0  0  1  0  0  0  0  0  0  0  0  0
    7.8133  -17.5493   22.4859 C   0  0  0  0  0  0  0  0  0  0  0  0
    7.3792  -18.2275   23.7363 C   0  0  0  0  0  0  0  0  0  0  0  0
    7.5088  -19.7314   23.6236 C   0  0  0  0  0  0  0  0  0  0  0  0
    6.9422  -20.4129   24.8711 C   0  0  0  0  0  0  0  0  0  0  0  0
    7.0033  -21.8498   24.7314 N   0  0  0  0  0  0  0  0  0  0  0  0
    8.2257  -15.3998   23.6627 C   0  0  0  0  0  0  0  0  0  0  0  0
    9.4437  -15.1169   23.6506 O   0  0  0  0  0  0  0  0  0  0  0  0
    5.5306  -11.6885   26.5575 C   0  0  0  0  0  0  0  0  0  0  0  0
    6.5688  -12.4764   25.7902 C   0  0  0  0  0  0  0  0  0  0  0  0
    7.2524  -13.4791   26.6819 C   0  0  2  0  0  0  0  0  0  0  0  0
    7.9200  -12.8075   27.8334 C   0  0  0  0  0  0  0  0  0  0  0  0
    8.1456  -14.4136   25.9088 C   0  0  2  0  0  0  0  0  0  0  0  0
    7.4827  -15.0688   24.8274 N   0  0  0  0  0  0  0  0  0  0  0  0
    8.6507  -15.4241   26.9060 C   0  0  0  0  0  0  0  0  0  0  0  0
    9.8157  -15.2588   27.6124 O   0  0  0  0  0  0  0  0  0  0  0  0
    7.9726  -16.4611   27.0956 O   0  0  0  0  0  0  0  0  0  0  0  0
  2  1  1  1
  2  3  1  0
  4  5  2  0
  4  2  1  0
  6  4  1  0
  7  6  1  0
  7  8  1  1
  9 10  1  0
  9  8  1  0
 10 11  1  0
 11 12  1  0
 13  7  1  0
 13 20  1  0
 14 13  2  0
 16 15  1  0
 17 16  1  0
 17 19  1  0
 17 18  1  1
 19 20  1  6
 19 21  1  0
 21 22  1  0
 23 21  2  0
M  END
$$$$
