PTY.pdb
     RDKit          3D

 27 28  0  0  1  0  0  0  0  0999 V2000
   26.8265  -20.5824  -12.1017 N   0  0  0  0  0  0  0  0  0  0  0  0
   27.9027  -21.2455  -11.3983 C   0  0  0  0  0  0  0  0  0  0  0  0
   28.9184  -21.6504  -12.4171 C   0  0  0  0  0  0  0  0  0  0  0  0
   28.4754  -20.9881  -13.7046 C   0  0  0  0  0  0  0  0  0  0  0  0
   27.4916  -19.9641  -13.2077 C   0  0  1  0  0  0  0  0  0  0  0  0
   26.5773  -19.4945  -14.2623 C   0  0  0  0  0  0  0  0  0  0  0  0
   27.0700  -18.8879  -15.2414 O   0  0  0  0  0  0  0  0  0  0  0  0
   25.1930  -21.0519  -16.9643 C   0  0  0  0  0  0  0  0  0  0  0  0
   24.0023  -20.4858  -16.2657 C   0  0  1  0  0  0  0  0  0  0  0  0
   23.4503  -21.5331  -15.4870 O   0  0  0  0  0  0  0  0  0  0  0  0
   24.2875  -19.3672  -15.3273 C   0  0  2  0  0  0  0  0  0  0  0  0
   25.1756  -19.6805  -14.2487 N   0  0  0  0  0  0  0  0  0  0  0  0
   23.0033  -18.8708  -14.7691 C   0  0  0  0  0  0  0  0  0  0  0  0
   22.6009  -19.2032  -13.6131 O   0  0  0  0  0  0  0  0  0  0  0  0
   15.7823  -13.9950  -13.4021 O   0  0  0  0  0  0  0  0  0  0  0  0
   16.9666  -14.5207  -13.9163 C   0  0  0  0  0  0  0  0  0  0  0  0
   18.2108  -14.1422  -13.4623 C   0  0  0  0  0  0  0  0  0  0  0  0
   19.3466  -14.6957  -14.0082 C   0  0  0  0  0  0  0  0  0  0  0  0
   19.2887  -15.6328  -15.0114 C   0  0  0  0  0  0  0  0  0  0  0  0
   20.5488  -16.2018  -15.5734 C   0  0  0  0  0  0  0  0  0  0  0  0
   20.9345  -17.4889  -14.9288 C   0  0  2  0  0  0  0  0  0  0  0  0
   22.1511  -17.9837  -15.5227 N   0  0  0  0  0  0  0  0  0  0  0  0
   19.8174  -18.4717  -15.0792 C   0  0  0  0  0  0  0  0  0  0  0  0
   18.9599  -18.6283  -14.0192 O   0  0  0  0  0  0  0  0  0  0  0  0
   18.0528  -16.0201  -15.4743 C   0  0  0  0  0  0  0  0  0  0  0  0
   16.9323  -15.4618  -14.9227 C   0  0  0  0  0  0  0  0  0  0  0  0
   19.6400  -19.1419  -16.1135 O   0  0  0  0  0  0  0  0  0  0  0  0
  1  5  1  0
  1  2  1  0
  2  3  1  0
  4  3  1  0
  5  4  1  0
  6  7  2  0
  5  6  1  6
  9  8  1  1
 10  9  1  0
 11  9  1  0
 11 12  1  1
 12  6  1  0
 13 11  1  0
 14 13  2  0
 16 17  2  0
 16 15  1  0
 18 17  1  0
 19 18  2  0
 21 20  1  6
 20 19  1  0
 21 22  1  0
 22 13  1  0
 23 24  1  0
 23 21  1  0
 25 19  1  0
 25 26  2  0
 26 16  1  0
 27 23  2  0
M  END
$$$$
