PTY.pdb
     RDKit          3D

 27 28  0  0  1  0  0  0  0  0999 V2000
   17.4162  -12.7294  -16.9920 N   0  0  0  0  0  0  0  0  0  0  0  0
   17.0837  -14.1372  -17.0017 C   0  0  0  0  0  0  0  0  0  0  0  0
   18.2067  -14.8559  -17.6769 C   0  0  0  0  0  0  0  0  0  0  0  0
   19.2954  -13.8180  -17.8501 C   0  0  0  0  0  0  0  0  0  0  0  0
   18.8449  -12.7319  -16.9114 C   0  0  1  0  0  0  0  0  0  0  0  0
   19.4583  -11.4278  -17.2138 C   0  0  0  0  0  0  0  0  0  0  0  0
   20.7008  -11.3200  -17.0955 O   0  0  0  0  0  0  0  0  0  0  0  0
   19.0599   -9.2012  -20.4654 C   0  0  0  0  0  0  0  0  0  0  0  0
   18.8244   -8.4022  -19.2275 C   0  0  1  0  0  0  0  0  0  0  0  0
   17.4203   -8.2754  -19.0851 O   0  0  0  0  0  0  0  0  0  0  0  0
   19.3225   -9.0183  -17.9683 C   0  0  2  0  0  0  0  0  0  0  0  0
   18.7412  -10.2824  -17.6302 N   0  0  0  0  0  0  0  0  0  0  0  0
   19.0995   -8.0673  -16.8489 C   0  0  0  0  0  0  0  0  0  0  0  0
   18.0798   -8.1417  -16.0981 O   0  0  0  0  0  0  0  0  0  0  0  0
   24.7768   -9.9097  -13.8044 O   0  0  0  0  0  0  0  0  0  0  0  0
   23.5983   -9.1715  -13.9018 C   0  0  0  0  0  0  0  0  0  0  0  0
   23.5806   -7.8316  -14.2209 C   0  0  0  0  0  0  0  0  0  0  0  0
   22.3857   -7.1535  -14.3029 C   0  0  0  0  0  0  0  0  0  0  0  0
   21.1810   -7.7733  -14.0737 C   0  0  0  0  0  0  0  0  0  0  0  0
   19.9116   -6.9944  -14.1715 C   0  0  0  0  0  0  0  0  0  0  0  0
   19.8386   -6.1698  -15.4106 C   0  0  2  0  0  0  0  0  0  0  0  0
   20.0386   -7.0097  -16.5650 N   0  0  0  0  0  0  0  0  0  0  0  0
   20.8652   -5.0844  -15.3438 C   0  0  0  0  0  0  0  0  0  0  0  0
   20.7760   -4.1862  -14.3101 O   0  0  0  0  0  0  0  0  0  0  0  0
   21.1838   -9.1111  -13.7542 C   0  0  0  0  0  0  0  0  0  0  0  0
   22.3787   -9.7725  -13.6763 C   0  0  0  0  0  0  0  0  0  0  0  0
   21.7825   -4.9679  -16.1779 O   0  0  0  0  0  0  0  0  0  0  0  0
  1  5  1  0
  1  2  1  0
  2  3  1  0
  4  3  1  0
  5  4  1  0
  6  7  2  0
  5  6  1  6
  9  8  1  6
 10  9  1  0
 11  9  1  0
 11 12  1  1
 12  6  1  0
 13 11  1  0
 14 13  2  0
 16 17  2  0
 16 15  1  0
 18 17  1  0
 19 18  2  0
 21 20  1  1
 20 19  1  0
 21 22  1  0
 22 13  1  0
 23 24  1  0
 23 21  1  0
 25 19  1  0
 25 26  2  0
 26 16  1  0
 27 23  2  0
M  END
$$$$
