PTY.pdb
     RDKit          3D

 27 28  0  0  1  0  0  0  0  0999 V2000
   27.3828  -12.0823  -16.5809 N   0  0  0  0  0  0  0  0  0  0  0  0
   28.6601  -12.7557  -16.6667 C   0  0  0  0  0  0  0  0  0  0  0  0
   28.5331  -14.0485  -15.9277 C   0  0  0  0  0  0  0  0  0  0  0  0
   27.0588  -14.1808  -15.6092 C   0  0  0  0  0  0  0  0  0  0  0  0
   26.4464  -13.1633  -16.5328 C   0  0  1  0  0  0  0  0  0  0  0  0
   25.0934  -12.7579  -16.1161 C   0  0  0  0  0  0  0  0  0  0  0  0
   24.2130  -13.6451  -16.0309 O   0  0  0  0  0  0  0  0  0  0  0  0
   23.2134  -12.7220  -13.4762 C   0  0  0  0  0  0  0  0  0  0  0  0
   23.1696  -11.2874  -13.8843 C   0  0  1  0  0  0  0  0  0  0  0  0
   24.1986  -10.6280  -13.1673 O   0  0  0  0  0  0  0  0  0  0  0  0
   23.4267  -11.0281  -15.3264 C   0  0  2  0  0  0  0  0  0  0  0  0
   24.7150  -11.4318  -15.8037 N   0  0  0  0  0  0  0  0  0  0  0  0
   23.2438   -9.5780  -15.5925 C   0  0  0  0  0  0  0  0  0  0  0  0
   24.2168   -8.7644  -15.5750 O   0  0  0  0  0  0  0  0  0  0  0  0
   17.4163   -3.6733  -18.6283 O   0  0  0  0  0  0  0  0  0  0  0  0
   18.4617   -4.5576  -18.3664 C   0  0  0  0  0  0  0  0  0  0  0  0
   19.7379   -4.1366  -18.0642 C   0  0  0  0  0  0  0  0  0  0  0  0
   20.7311   -5.0562  -17.8144 C   0  0  0  0  0  0  0  0  0  0  0  0
   20.4958   -6.4093  -17.8552 C   0  0  0  0  0  0  0  0  0  0  0  0
   21.6064   -7.3676  -17.5799 C   0  0  0  0  0  0  0  0  0  0  0  0
   21.8048   -7.6126  -16.1234 C   0  0  2  0  0  0  0  0  0  0  0  0
   21.9426   -9.0273  -15.8837 N   0  0  0  0  0  0  0  0  0  0  0  0
   20.6494   -7.0427  -15.3640 C   0  0  0  0  0  0  0  0  0  0  0  0
   20.6701   -5.6987  -15.0871 O   0  0  0  0  0  0  0  0  0  0  0  0
   19.2258   -6.8438  -18.1556 C   0  0  0  0  0  0  0  0  0  0  0  0
   18.2485   -5.9188  -18.4016 C   0  0  0  0  0  0  0  0  0  0  0  0
   19.6856   -7.7315  -14.9802 O   0  0  0  0  0  0  0  0  0  0  0  0
  1  5  1  0
  1  2  1  0
  2  3  1  0
  4  3  1  0
  5  4  1  0
  6  7  2  0
  5  6  1  1
  9  8  1  6
 10  9  1  0
 11  9  1  0
 11 12  1  1
 12  6  1  0
 13 11  1  0
 14 13  2  0
 16 17  2  0
 16 15  1  0
 18 17  1  0
 19 18  2  0
 21 20  1  6
 20 19  1  0
 21 22  1  0
 22 13  1  0
 23 24  1  0
 23 21  1  0
 25 19  1  0
 25 26  2  0
 26 16  1  0
 27 23  2  0
M  END
$$$$
