PTY.pdb
     RDKit          3D

 27 28  0  0  1  0  0  0  0  0999 V2000
   27.9143  -24.3792  -17.8072 N   0  0  0  0  0  0  0  0  0  0  0  0
   28.5048  -25.2775  -18.7751 C   0  0  0  0  0  0  0  0  0  0  0  0
   29.8453  -24.7246  -19.1369 C   0  0  0  0  0  0  0  0  0  0  0  0
   30.0834  -23.5906  -18.1622 C   0  0  0  0  0  0  0  0  0  0  0  0
   29.0495  -23.8648  -17.1041 C   0  0  1  0  0  0  0  0  0  0  0  0
   28.7507  -22.6815  -16.2802 C   0  0  0  0  0  0  0  0  0  0  0  0
   29.6844  -22.1759  -15.6154 O   0  0  0  0  0  0  0  0  0  0  0  0
   27.7764  -19.1452  -17.1415 C   0  0  0  0  0  0  0  0  0  0  0  0
   26.7423  -19.7161  -16.2298 C   0  0  1  0  0  0  0  0  0  0  0  0
   25.6759  -20.1604  -17.0503 O   0  0  0  0  0  0  0  0  0  0  0  0
   27.1786  -20.8926  -15.4306 C   0  0  2  0  0  0  0  0  0  0  0  0
   27.4783  -22.0718  -16.1853 N   0  0  0  0  0  0  0  0  0  0  0  0
   26.1253  -21.2108  -14.4323 C   0  0  0  0  0  0  0  0  0  0  0  0
   25.3187  -22.1765  -14.5923 O   0  0  0  0  0  0  0  0  0  0  0  0
   21.1153  -21.1215   -7.1627 O   0  0  0  0  0  0  0  0  0  0  0  0
   22.0622  -20.8103   -8.1374 C   0  0  0  0  0  0  0  0  0  0  0  0
   21.7577  -20.0901   -9.2714 C   0  0  0  0  0  0  0  0  0  0  0  0
   22.7346  -19.8125  -10.2003 C   0  0  0  0  0  0  0  0  0  0  0  0
   24.0322  -20.2345  -10.0388 C   0  0  0  0  0  0  0  0  0  0  0  0
   25.0557  -19.9111  -11.0759 C   0  0  0  0  0  0  0  0  0  0  0  0
   24.9240  -20.7576  -12.2952 C   0  0  2  0  0  0  0  0  0  0  0  0
   25.9718  -20.4296  -13.2293 N   0  0  0  0  0  0  0  0  0  0  0  0
   23.5722  -20.5481  -12.8993 C   0  0  0  0  0  0  0  0  0  0  0  0
   22.6006  -21.4775  -12.6240 O   0  0  0  0  0  0  0  0  0  0  0  0
   24.3504  -20.9545   -8.9110 C   0  0  0  0  0  0  0  0  0  0  0  0
   23.3695  -21.2232   -7.9961 C   0  0  0  0  0  0  0  0  0  0  0  0
   23.3005  -19.5777  -13.6307 O   0  0  0  0  0  0  0  0  0  0  0  0
  1  5  1  0
  1  2  1  0
  2  3  1  0
  4  3  1  0
  5  4  1  0
  6  7  2  0
  5  6  1  6
  9  8  1  6
 10  9  1  0
 11  9  1  0
 11 12  1  6
 12  6  1  0
 13 11  1  0
 14 13  2  0
 16 17  2  0
 16 15  1  0
 18 17  1  0
 19 18  2  0
 21 20  1  1
 20 19  1  0
 21 22  1  0
 22 13  1  0
 23 24  1  0
 23 21  1  0
 25 19  1  0
 25 26  2  0
 26 16  1  0
 27 23  2  0
M  END
$$$$
