PTY.pdb
     RDKit          3D

 27 28  0  0  1  0  0  0  0  0999 V2000
   20.3931  -11.0118  -20.1473 N   0  0  0  0  0  0  0  0  0  0  0  0
   20.0454  -12.1394  -20.9841 C   0  0  0  0  0  0  0  0  0  0  0  0
   21.3084  -12.8821  -21.2788 C   0  0  0  0  0  0  0  0  0  0  0  0
   22.3570  -12.2522  -20.3865 C   0  0  0  0  0  0  0  0  0  0  0  0
   21.5131  -11.4941  -19.3984 C   0  0  1  0  0  0  0  0  0  0  0  0
   22.2633  -10.4339  -18.7045 C   0  0  0  0  0  0  0  0  0  0  0  0
   23.2552  -10.7686  -18.0163 O   0  0  0  0  0  0  0  0  0  0  0  0
   24.3890   -7.6753  -20.0274 C   0  0  0  0  0  0  0  0  0  0  0  0
   23.3528   -7.0683  -19.1419 C   0  0  1  0  0  0  0  0  0  0  0  0
   22.3187   -6.5967  -19.9881 O   0  0  0  0  0  0  0  0  0  0  0  0
   22.7147   -8.0027  -18.1760 C   0  0  2  0  0  0  0  0  0  0  0  0
   21.9425   -9.0578  -18.7597 N   0  0  0  0  0  0  0  0  0  0  0  0
   21.8500   -7.2221  -17.2541 C   0  0  0  0  0  0  0  0  0  0  0  0
   20.6699   -6.8799  -17.5691 O   0  0  0  0  0  0  0  0  0  0  0  0
   17.4099  -11.0486  -15.6884 O   0  0  0  0  0  0  0  0  0  0  0  0
   18.2740  -10.0378  -15.2698 C   0  0  0  0  0  0  0  0  0  0  0  0
   17.9659   -8.6996  -15.3780 C   0  0  0  0  0  0  0  0  0  0  0  0
   18.8589   -7.7449  -14.9475 C   0  0  0  0  0  0  0  0  0  0  0  0
   20.0742   -8.0802  -14.4012 C   0  0  0  0  0  0  0  0  0  0  0  0
   21.0105   -7.0083  -13.9517 C   0  0  0  0  0  0  0  0  0  0  0  0
   21.4287   -6.1086  -15.0636 C   0  0  2  0  0  0  0  0  0  0  0  0
   22.3177   -6.8153  -15.9514 N   0  0  0  0  0  0  0  0  0  0  0  0
   22.0838   -4.8906  -14.4947 C   0  0  0  0  0  0  0  0  0  0  0  0
   21.3233   -4.0717  -13.6982 O   0  0  0  0  0  0  0  0  0  0  0  0
   20.3950   -9.4128  -14.2870 C   0  0  0  0  0  0  0  0  0  0  0  0
   19.4979  -10.3510  -14.7189 C   0  0  0  0  0  0  0  0  0  0  0  0
   23.2740   -4.5972  -14.7137 O   0  0  0  0  0  0  0  0  0  0  0  0
  1  5  1  0
  1  2  1  0
  2  3  1  0
  4  3  1  0
  5  4  1  0
  6  7  2  0
  5  6  1  6
  9  8  1  6
 10  9  1  0
 11  9  1  0
 11 12  1  6
 12  6  1  0
 13 11  1  0
 14 13  2  0
 16 17  2  0
 16 15  1  0
 18 17  1  0
 19 18  2  0
 21 20  1  1
 20 19  1  0
 21 22  1  0
 22 13  1  0
 23 24  1  0
 23 21  1  0
 25 19  1  0
 25 26  2  0
 26 16  1  0
 27 23  2  0
M  END
$$$$
