PTY.pdb
     RDKit          3D

 27 28  0  0  1  0  0  0  0  0999 V2000
   17.6429    0.1422  -16.6402 N   0  0  0  0  0  0  0  0  0  0  0  0
   17.2419    0.8235  -15.4288 C   0  0  0  0  0  0  0  0  0  0  0  0
   17.3996   -0.1435  -14.3003 C   0  0  0  0  0  0  0  0  0  0  0  0
   18.1215   -1.3341  -14.8954 C   0  0  0  0  0  0  0  0  0  0  0  0
   18.6494   -0.7676  -16.1852 C   0  0  1  0  0  0  0  0  0  0  0  0
   18.9935   -1.8104  -17.1663 C   0  0  0  0  0  0  0  0  0  0  0  0
   18.2154   -1.9904  -18.1315 O   0  0  0  0  0  0  0  0  0  0  0  0
   20.2892   -2.0795  -20.1243 C   0  0  0  0  0  0  0  0  0  0  0  0
   21.1889   -2.9480  -19.3103 C   0  0  1  0  0  0  0  0  0  0  0  0
   22.2431   -2.1221  -18.8471 O   0  0  0  0  0  0  0  0  0  0  0  0
   20.5662   -3.5547  -18.1031 C   0  0  2  0  0  0  0  0  0  0  0  0
   20.1454   -2.6275  -17.0964 N   0  0  0  0  0  0  0  0  0  0  0  0
   21.5238   -4.5195  -17.5037 C   0  0  0  0  0  0  0  0  0  0  0  0
   22.0163   -4.3460  -16.3477 O   0  0  0  0  0  0  0  0  0  0  0  0
   25.2380  -11.5723  -14.3172 O   0  0  0  0  0  0  0  0  0  0  0  0
   24.5088  -10.4952  -14.8187 C   0  0  0  0  0  0  0  0  0  0  0  0
   23.3713  -10.6529  -15.5793 C   0  0  0  0  0  0  0  0  0  0  0  0
   22.6916   -9.5516  -16.0479 C   0  0  0  0  0  0  0  0  0  0  0  0
   23.1116   -8.2708  -15.7816 C   0  0  0  0  0  0  0  0  0  0  0  0
   22.3423   -7.1082  -16.3148 C   0  0  0  0  0  0  0  0  0  0  0  0
   22.8866   -6.6045  -17.6075 C   0  0  2  0  0  0  0  0  0  0  0  0
   21.9392   -5.7038  -18.2149 N   0  0  0  0  0  0  0  0  0  0  0  0
   23.1859   -7.7638  -18.5035 C   0  0  0  0  0  0  0  0  0  0  0  0
   22.1863   -8.1992  -19.3370 O   0  0  0  0  0  0  0  0  0  0  0  0
   24.2460   -8.0985  -15.0232 C   0  0  0  0  0  0  0  0  0  0  0  0
   24.9115   -9.2020  -14.5640 C   0  0  0  0  0  0  0  0  0  0  0  0
   24.2903   -8.3387  -18.5207 O   0  0  0  0  0  0  0  0  0  0  0  0
  1  5  1  0
  1  2  1  0
  2  3  1  0
  4  3  1  0
  5  4  1  0
  6  7  2  0
  5  6  1  6
  9  8  1  1
 10  9  1  0
 11  9  1  0
 11 12  1  1
 12  6  1  0
 13 11  1  0
 14 13  2  0
 16 17  2  0
 16 15  1  0
 18 17  1  0
 19 18  2  0
 21 20  1  1
 20 19  1  0
 21 22  1  0
 22 13  1  0
 23 24  1  0
 23 21  1  0
 25 19  1  0
 25 26  2  0
 26 16  1  0
 27 23  2  0
M  END
$$$$
