PTY.pdb
     RDKit          3D

 27 28  0  0  1  0  0  0  0  0999 V2000
   39.3530  -29.9567    1.6464 N   0  0  0  0  0  0  0  0  0  0  0  0
   40.6619  -30.5556    1.5024 C   0  0  0  0  0  0  0  0  0  0  0  0
   41.6668  -29.5436    1.9491 C   0  0  0  0  0  0  0  0  0  0  0  0
   40.8555  -28.4232    2.5648 C   0  0  0  0  0  0  0  0  0  0  0  0
   39.5167  -29.0795    2.7651 C   0  0  1  0  0  0  0  0  0  0  0  0
   38.4230  -28.1057    2.9201 C   0  0  0  0  0  0  0  0  0  0  0  0
   38.0796  -27.4411    1.9152 O   0  0  0  0  0  0  0  0  0  0  0  0
   34.8636  -28.4888    3.3065 C   0  0  0  0  0  0  0  0  0  0  0  0
   35.2928  -27.6257    4.4455 C   0  0  1  0  0  0  0  0  0  0  0  0
   35.3937  -28.4683    5.5802 O   0  0  0  0  0  0  0  0  0  0  0  0
   36.6202  -26.9735    4.2845 C   0  0  2  0  0  0  0  0  0  0  0  0
   37.7290  -27.8659    4.1286 N   0  0  0  0  0  0  0  0  0  0  0  0
   36.8670  -26.0938    5.4560 C   0  0  0  0  0  0  0  0  0  0  0  0
   37.9733  -26.0970    6.0765 O   0  0  0  0  0  0  0  0  0  0  0  0
   42.4602  -24.1191    4.9457 O   0  0  0  0  0  0  0  0  0  0  0  0
   41.0893  -23.8819    5.0334 C   0  0  0  0  0  0  0  0  0  0  0  0
   40.2013  -24.2619    4.0514 C   0  0  0  0  0  0  0  0  0  0  0  0
   38.8572  -24.0011    4.1925 C   0  0  0  0  0  0  0  0  0  0  0  0
   38.3532  -23.3616    5.2992 C   0  0  0  0  0  0  0  0  0  0  0  0
   36.8878  -23.0983    5.4050 C   0  0  0  0  0  0  0  0  0  0  0  0
   36.2354  -23.9070    6.4731 C   0  0  2  0  0  0  0  0  0  0  0  0
   35.8522  -25.1918    5.9434 N   0  0  0  0  0  0  0  0  0  0  0  0
   35.0517  -23.1629    7.0037 C   0  0  0  0  0  0  0  0  0  0  0  0
   33.8048  -23.6414    6.6879 O   0  0  0  0  0  0  0  0  0  0  0  0
   39.2286  -22.9765    6.2877 C   0  0  0  0  0  0  0  0  0  0  0  0
   40.5617  -23.2422    6.1344 C   0  0  0  0  0  0  0  0  0  0  0  0
   35.1544  -22.1424    7.7096 O   0  0  0  0  0  0  0  0  0  0  0  0
  1  5  1  0
  1  2  1  0
  2  3  1  0
  4  3  1  0
  5  4  1  0
  6  7  2  0
  5  6  1  6
  9  8  1  6
 10  9  1  0
 11  9  1  0
 11 12  1  1
 12  6  1  0
 13 11  1  0
 14 13  2  0
 16 17  2  0
 16 15  1  0
 18 17  1  0
 19 18  2  0
 21 20  1  6
 20 19  1  0
 21 22  1  0
 22 13  1  0
 23 24  1  0
 23 21  1  0
 25 19  1  0
 25 26  2  0
 26 16  1  0
 27 23  2  0
M  END
$$$$
