PTY.pdb
     RDKit          3D

 27 28  0  0  1  0  0  0  0  0999 V2000
   27.4287  -22.2945  -20.5467 N   0  0  0  0  0  0  0  0  0  0  0  0
   27.5735  -22.8454  -21.8764 C   0  0  0  0  0  0  0  0  0  0  0  0
   28.7018  -22.1225  -22.5382 C   0  0  0  0  0  0  0  0  0  0  0  0
   29.3365  -21.2905  -21.4439 C   0  0  0  0  0  0  0  0  0  0  0  0
   28.7657  -21.9186  -20.2018 C   0  0  1  0  0  0  0  0  0  0  0  0
   28.8488  -21.0344  -19.0271 C   0  0  0  0  0  0  0  0  0  0  0  0
   29.9836  -20.6600  -18.6512 O   0  0  0  0  0  0  0  0  0  0  0  0
   27.8005  -17.5207  -18.6363 C   0  0  0  0  0  0  0  0  0  0  0  0
   27.1518  -18.2966  -17.5392 C   0  0  1  0  0  0  0  0  0  0  0  0
   25.8278  -18.5719  -17.9624 O   0  0  0  0  0  0  0  0  0  0  0  0
   27.7788  -19.6104  -17.2325 C   0  0  2  0  0  0  0  0  0  0  0  0
   27.7332  -20.5754  -18.2893 N   0  0  0  0  0  0  0  0  0  0  0  0
   27.1273  -20.1820  -16.0258 C   0  0  0  0  0  0  0  0  0  0  0  0
   26.2570  -21.1014  -16.1048 O   0  0  0  0  0  0  0  0  0  0  0  0
   24.5296  -21.3450   -7.6559 O   0  0  0  0  0  0  0  0  0  0  0  0
   25.2393  -20.9830   -8.7998 C   0  0  0  0  0  0  0  0  0  0  0  0
   26.0072  -21.8748   -9.5157 C   0  0  0  0  0  0  0  0  0  0  0  0
   26.6867  -21.4602  -10.6386 C   0  0  0  0  0  0  0  0  0  0  0  0
   26.6290  -20.1620  -11.0852 C   0  0  0  0  0  0  0  0  0  0  0  0
   27.3863  -19.7597  -12.3067 C   0  0  0  0  0  0  0  0  0  0  0  0
   26.7351  -20.2241  -13.5641 C   0  0  2  0  0  0  0  0  0  0  0  0
   27.4573  -19.7129  -14.7021 N   0  0  0  0  0  0  0  0  0  0  0  0
   25.3091  -19.7737  -13.5783 C   0  0  0  0  0  0  0  0  0  0  0  0
   24.3586  -20.6546  -13.1267 O   0  0  0  0  0  0  0  0  0  0  0  0
   25.8659  -19.2608  -10.3800 C   0  0  0  0  0  0  0  0  0  0  0  0
   25.1959  -19.6867   -9.2659 C   0  0  0  0  0  0  0  0  0  0  0  0
   24.9588  -18.6477  -13.9782 O   0  0  0  0  0  0  0  0  0  0  0  0
  1  5  1  0
  1  2  1  0
  2  3  1  0
  4  3  1  0
  5  4  1  0
  6  7  2  0
  5  6  1  1
  9  8  1  6
 10  9  1  0
 11  9  1  0
 11 12  1  6
 12  6  1  0
 13 11  1  0
 14 13  2  0
 16 17  2  0
 16 15  1  0
 18 17  1  0
 19 18  2  0
 21 20  1  1
 20 19  1  0
 21 22  1  0
 22 13  1  0
 23 24  1  0
 23 21  1  0
 25 19  1  0
 25 26  2  0
 26 16  1  0
 27 23  2  0
M  END
$$$$
