PTY.pdb
     RDKit          3D

 27 28  0  0  1  0  0  0  0  0999 V2000
   19.8340  -13.4014  -16.9307 N   0  0  0  0  0  0  0  0  0  0  0  0
   19.7040  -14.7790  -17.3525 C   0  0  0  0  0  0  0  0  0  0  0  0
   20.0503  -14.8350  -18.8053 C   0  0  0  0  0  0  0  0  0  0  0  0
   20.6000  -13.4635  -19.1358 C   0  0  0  0  0  0  0  0  0  0  0  0
   20.8801  -12.9006  -17.7689 C   0  0  1  0  0  0  0  0  0  0  0  0
   20.9881  -11.4320  -17.7693 C   0  0  0  0  0  0  0  0  0  0  0  0
   22.0413  -10.9193  -18.2137 O   0  0  0  0  0  0  0  0  0  0  0  0
   18.8828   -8.8616  -19.6088 C   0  0  0  0  0  0  0  0  0  0  0  0
   18.9288   -8.4954  -18.1631 C   0  0  1  0  0  0  0  0  0  0  0  0
   17.7152   -8.9487  -17.5889 O   0  0  0  0  0  0  0  0  0  0  0  0
   20.0268   -9.1257  -17.3819 C   0  0  2  0  0  0  0  0  0  0  0  0
   19.9827  -10.5546  -17.3016 N   0  0  0  0  0  0  0  0  0  0  0  0
   20.0209   -8.5626  -16.0071 C   0  0  0  0  0  0  0  0  0  0  0  0
   19.9686   -9.3032  -14.9786 O   0  0  0  0  0  0  0  0  0  0  0  0
   25.8554   -5.0202  -16.9358 O   0  0  0  0  0  0  0  0  0  0  0  0
   24.7954   -5.5339  -16.1902 C   0  0  0  0  0  0  0  0  0  0  0  0
   24.4881   -6.8762  -16.1557 C   0  0  0  0  0  0  0  0  0  0  0  0
   23.4288   -7.3264  -15.4009 C   0  0  0  0  0  0  0  0  0  0  0  0
   22.6467   -6.4711  -14.6630 C   0  0  0  0  0  0  0  0  0  0  0  0
   21.5066   -7.0069  -13.8625 C   0  0  0  0  0  0  0  0  0  0  0  0
   20.1808   -6.6359  -14.4330 C   0  0  2  0  0  0  0  0  0  0  0  0
   20.0740   -7.1391  -15.7796 N   0  0  0  0  0  0  0  0  0  0  0  0
   20.0240   -5.1492  -14.3942 C   0  0  0  0  0  0  0  0  0  0  0  0
   19.9092   -4.5529  -13.1635 O   0  0  0  0  0  0  0  0  0  0  0  0
   22.9423   -5.1280  -14.6881 C   0  0  0  0  0  0  0  0  0  0  0  0
   23.9979   -4.6946  -15.4425 C   0  0  0  0  0  0  0  0  0  0  0  0
   19.9944   -4.4446  -15.4204 O   0  0  0  0  0  0  0  0  0  0  0  0
  1  5  1  0
  1  2  1  0
  2  3  1  0
  4  3  1  0
  5  4  1  0
  6  7  2  0
  5  6  1  6
  9  8  1  6
 10  9  1  0
 11  9  1  0
 11 12  1  1
 12  6  1  0
 13 11  1  0
 14 13  2  0
 16 17  2  0
 16 15  1  0
 18 17  1  0
 19 18  2  0
 21 20  1  6
 20 19  1  0
 21 22  1  0
 22 13  1  0
 23 24  1  0
 23 21  1  0
 25 19  1  0
 25 26  2  0
 26 16  1  0
 27 23  2  0
M  END
$$$$
