PTY.pdb
     RDKit          3D

 27 28  0  0  1  0  0  0  0  0999 V2000
   27.4034  -22.2105  -19.3965 N   0  0  0  0  0  0  0  0  0  0  0  0
   27.2889  -22.3861  -20.8277 C   0  0  0  0  0  0  0  0  0  0  0  0
   27.8535  -21.1624  -21.4737 C   0  0  0  0  0  0  0  0  0  0  0  0
   28.4986  -20.3810  -20.3486 C   0  0  0  0  0  0  0  0  0  0  0  0
   28.5846  -21.4146  -19.2587 C   0  0  1  0  0  0  0  0  0  0  0  0
   28.7462  -20.8195  -17.9214 C   0  0  0  0  0  0  0  0  0  0  0  0
   29.7031  -20.0317  -17.7393 O   0  0  0  0  0  0  0  0  0  0  0  0
   27.6952  -18.0626  -17.0188 C   0  0  0  0  0  0  0  0  0  0  0  0
   27.0259  -18.9173  -15.9952 C   0  0  1  0  0  0  0  0  0  0  0  0
   25.7479  -19.2464  -16.5112 O   0  0  0  0  0  0  0  0  0  0  0  0
   27.7065  -20.2067  -15.6995 C   0  0  2  0  0  0  0  0  0  0  0  0
   27.8938  -21.0750  -16.8225 N   0  0  0  0  0  0  0  0  0  0  0  0
   26.9354  -20.9267  -14.6535 C   0  0  0  0  0  0  0  0  0  0  0  0
   27.2557  -22.0910  -14.2654 O   0  0  0  0  0  0  0  0  0  0  0  0
   25.6447  -20.4824   -6.2284 O   0  0  0  0  0  0  0  0  0  0  0  0
   25.8828  -20.3469   -7.5953 C   0  0  0  0  0  0  0  0  0  0  0  0
   25.7927  -19.1399   -8.2529 C   0  0  0  0  0  0  0  0  0  0  0  0
   26.0392  -19.0663   -9.6050 C   0  0  0  0  0  0  0  0  0  0  0  0
   26.3793  -20.1741  -10.3432 C   0  0  0  0  0  0  0  0  0  0  0  0
   26.6340  -20.0441  -11.8081 C   0  0  0  0  0  0  0  0  0  0  0  0
   25.5149  -20.5784  -12.6345 C   0  0  2  0  0  0  0  0  0  0  0  0
   25.7799  -20.3297  -14.0294 N   0  0  0  0  0  0  0  0  0  0  0  0
   24.2329  -19.9408  -12.2027 C   0  0  0  0  0  0  0  0  0  0  0  0
   23.5028  -20.5746  -11.2287 O   0  0  0  0  0  0  0  0  0  0  0  0
   26.4730  -21.3859   -9.6994 C   0  0  0  0  0  0  0  0  0  0  0  0
   26.2255  -21.4444   -8.3553 C   0  0  0  0  0  0  0  0  0  0  0  0
   23.8109  -18.8738  -12.6865 O   0  0  0  0  0  0  0  0  0  0  0  0
  1  5  1  0
  1  2  1  0
  2  3  1  0
  4  3  1  0
  5  4  1  0
  6  7  2  0
  5  6  1  1
  9  8  1  6
 10  9  1  0
 11  9  1  0
 11 12  1  6
 12  6  1  0
 13 11  1  0
 14 13  2  0
 16 17  2  0
 16 15  1  0
 18 17  1  0
 19 18  2  0
 21 20  1  1
 20 19  1  0
 21 22  1  0
 22 13  1  0
 23 24  1  0
 23 21  1  0
 25 19  1  0
 25 26  2  0
 26 16  1  0
 27 23  2  0
M  END
$$$$
