PTY.pdb
     RDKit          3D

 27 28  0  0  1  0  0  0  0  0999 V2000
   27.4932  -22.5085  -16.2995 N   0  0  0  0  0  0  0  0  0  0  0  0
   28.4165  -23.1587  -17.2034 C   0  0  0  0  0  0  0  0  0  0  0  0
   28.7375  -22.1841  -18.2901 C   0  0  0  0  0  0  0  0  0  0  0  0
   28.1289  -20.8728  -17.8400 C   0  0  0  0  0  0  0  0  0  0  0  0
   27.8727  -21.1311  -16.3802 C   0  0  1  0  0  0  0  0  0  0  0  0
   26.8805  -20.2078  -15.8044 C   0  0  0  0  0  0  0  0  0  0  0  0
   27.0907  -18.9773  -15.9098 O   0  0  0  0  0  0  0  0  0  0  0  0
   24.6399  -18.4221  -17.0162 C   0  0  0  0  0  0  0  0  0  0  0  0
   23.8468  -19.3143  -16.1210 C   0  0  1  0  0  0  0  0  0  0  0  0
   23.5306  -20.4715  -16.8751 O   0  0  0  0  0  0  0  0  0  0  0  0
   24.5567  -19.7858  -14.9016 C   0  0  2  0  0  0  0  0  0  0  0  0
   25.7013  -20.6130  -15.1375 N   0  0  0  0  0  0  0  0  0  0  0  0
   23.5948  -20.5229  -14.0423 C   0  0  0  0  0  0  0  0  0  0  0  0
   23.4849  -21.7858  -14.0881 O   0  0  0  0  0  0  0  0  0  0  0  0
   18.0244  -22.5241   -7.5053 O   0  0  0  0  0  0  0  0  0  0  0  0
   18.8584  -21.8407   -8.3890 C   0  0  0  0  0  0  0  0  0  0  0  0
   18.3796  -21.1128   -9.4560 C   0  0  0  0  0  0  0  0  0  0  0  0
   19.2512  -20.4579  -10.2961 C   0  0  0  0  0  0  0  0  0  0  0  0
   20.6118  -20.5016  -10.1095 C   0  0  0  0  0  0  0  0  0  0  0  0
   21.5167  -19.7771  -11.0496 C   0  0  0  0  0  0  0  0  0  0  0  0
   21.8593  -20.5858  -12.2536 C   0  0  2  0  0  0  0  0  0  0  0  0
   22.7368  -19.8303  -13.1121 N   0  0  0  0  0  0  0  0  0  0  0  0
   20.6016  -20.9707  -12.9653 C   0  0  0  0  0  0  0  0  0  0  0  0
   20.1121  -22.2354  -12.7546 O   0  0  0  0  0  0  0  0  0  0  0  0
   21.1037  -21.2246   -9.0479 C   0  0  0  0  0  0  0  0  0  0  0  0
   20.2260  -21.8705   -8.2209 C   0  0  0  0  0  0  0  0  0  0  0  0
   19.9927  -20.1986  -13.7292 O   0  0  0  0  0  0  0  0  0  0  0  0
  1  5  1  0
  1  2  1  0
  2  3  1  0
  4  3  1  0
  5  4  1  0
  6  7  2  0
  5  6  1  6
  9  8  1  6
 10  9  1  0
 11  9  1  0
 11 12  1  6
 12  6  1  0
 13 11  1  0
 14 13  2  0
 16 17  2  0
 16 15  1  0
 18 17  1  0
 19 18  2  0
 21 20  1  1
 20 19  1  0
 21 22  1  0
 22 13  1  0
 23 24  1  0
 23 21  1  0
 25 19  1  0
 25 26  2  0
 26 16  1  0
 27 23  2  0
M  END
$$$$
