YLM.pdb
     RDKit          3D

 29 29  0  0  1  0  0  0  0  0999 V2000
    6.0941  -22.3125   28.9062 O   0  0  0  0  0  0  0  0  0  0  0  0
    6.5293  -21.3728   27.9830 C   0  0  0  0  0  0  0  0  0  0  0  0
    7.8416  -20.8884   28.0038 C   0  0  0  0  0  0  0  0  0  0  0  0
    8.2732  -19.9591   27.0912 C   0  0  0  0  0  0  0  0  0  0  0  0
    7.4513  -19.4613   26.1214 C   0  0  0  0  0  0  0  0  0  0  0  0
    7.8401  -18.4684   25.1185 C   0  0  0  0  0  0  0  0  0  0  0  0
    7.3312  -18.7499   23.7252 C   0  0  2  0  0  0  0  0  0  0  0  0
    7.6064  -20.1748   23.4891 N   0  0  0  0  0  0  0  0  0  0  0  0
    8.0943  -17.9924   22.7092 C   0  0  0  0  0  0  0  0  0  0  0  0
    8.9854  -18.6119   22.0304 O   0  0  0  0  0  0  0  0  0  0  0  0
    6.1388  -19.9369   26.0902 C   0  0  0  0  0  0  0  0  0  0  0  0
    5.6919  -20.8730   27.0038 C   0  0  0  0  0  0  0  0  0  0  0  0
    6.8665  -14.7593   19.7792 C   0  0  0  0  0  0  0  0  0  0  0  0
    6.9693  -14.1897   21.2042 C   0  0  2  0  0  0  0  0  0  0  0  0
    6.3944  -12.8268   21.1493 C   0  0  0  0  0  0  0  0  0  0  0  0
    8.3558  -14.3490   21.6431 C   0  0  0  0  0  0  0  0  0  0  0  0
    8.8541  -15.6929   22.0188 C   0  0  2  0  0  0  0  0  0  0  0  0
    7.8620  -16.6106   22.4742 N   0  0  0  0  0  0  0  0  0  0  0  0
   10.0661  -15.6770   22.8807 C   0  0  0  0  0  0  0  0  0  0  0  0
   11.0387  -14.9025   22.5795 O   0  0  0  0  0  0  0  0  0  0  0  0
   10.3197  -13.1670   29.2271 C   0  0  0  0  0  0  0  0  0  0  0  0
    9.9192  -14.8788   28.8277 S   0  0  0  0  0  0  0  0  0  0  0  0
   11.0430  -15.4605   27.5588 C   0  0  0  0  0  0  0  0  0  0  0  0
   10.3645  -15.7548   26.2934 C   0  0  0  0  0  0  0  0  0  0  0  0
   11.1820  -16.1513   25.1054 C   0  0  2  0  0  0  0  0  0  0  0  0
   10.2055  -16.4852   24.0361 N   0  0  0  0  0  0  0  0  0  0  0  0
   11.9590  -17.3557   25.3284 C   0  0  0  0  0  0  0  0  0  0  0  0
   12.9183  -17.3170   26.1691 O   0  0  0  0  0  0  0  0  0  0  0  0
   11.7898  -18.5933   24.7346 O   0  0  0  0  0  0  0  0  0  0  0  0
  2  3  2  0
  2  1  1  0
  4  3  1  0
  5  4  2  0
  6  5  1  0
  7  9  1  0
  7  6  1  0
  7  8  1  6
  9 10  2  0
 11  5  1  0
 11 12  2  0
 12  2  1  0
 14 13  1  6
 14 15  1  0
 16 14  1  0
 17 16  1  1
 18 17  1  0
 18  9  1  0
 19 20  2  0
 19 17  1  0
 22 23  1  0
 22 21  1  0
 23 24  1  0
 25 24  1  1
 25 27  1  0
 25 26  1  0
 26 19  1  0
 27 29  1  0
 28 27  2  0
M  END
$$$$
