YLM.pdb
     RDKit          3D

 29 29  0  0  1  0  0  0  0  0999 V2000
    7.3814  -21.9022   29.6346 O   0  0  0  0  0  0  0  0  0  0  0  0
    7.2594  -21.0712   28.5304 C   0  0  0  0  0  0  0  0  0  0  0  0
    6.2610  -21.2785   27.5726 C   0  0  0  0  0  0  0  0  0  0  0  0
    6.1393  -20.4573   26.4801 C   0  0  0  0  0  0  0  0  0  0  0  0
    6.9797  -19.4019   26.2710 C   0  0  0  0  0  0  0  0  0  0  0  0
    6.9126  -18.4873   25.1300 C   0  0  0  0  0  0  0  0  0  0  0  0
    7.1923  -19.1294   23.7925 C   0  0  2  0  0  0  0  0  0  0  0  0
    8.1074  -20.2443   24.0779 N   0  0  0  0  0  0  0  0  0  0  0  0
    7.9128  -18.2043   22.8905 C   0  0  0  0  0  0  0  0  0  0  0  0
    9.1678  -18.3824   22.7122 O   0  0  0  0  0  0  0  0  0  0  0  0
    7.9807  -19.1845   27.2200 C   0  0  0  0  0  0  0  0  0  0  0  0
    8.1137  -20.0045   28.3247 C   0  0  0  0  0  0  0  0  0  0  0  0
    6.4475  -12.8629   20.0521 C   0  0  0  0  0  0  0  0  0  0  0  0
    7.6103  -13.7706   20.4874 C   0  0  2  0  0  0  0  0  0  0  0  0
    8.5180  -13.8705   19.3225 C   0  0  0  0  0  0  0  0  0  0  0  0
    7.0305  -14.9984   21.0322 C   0  0  0  0  0  0  0  0  0  0  0  0
    7.8903  -15.9420   21.7846 C   0  0  2  0  0  0  0  0  0  0  0  0
    7.2500  -17.1371   22.2270 N   0  0  0  0  0  0  0  0  0  0  0  0
    8.7187  -15.3043   22.8424 C   0  0  0  0  0  0  0  0  0  0  0  0
    9.6971  -14.5529   22.5038 O   0  0  0  0  0  0  0  0  0  0  0  0
    5.7966  -11.3396   26.5388 C   0  0  0  0  0  0  0  0  0  0  0  0
    6.5467  -12.4270   27.7656 S   0  0  0  0  0  0  0  0  0  0  0  0
    8.0721  -13.0924   27.1009 C   0  0  0  0  0  0  0  0  0  0  0  0
    7.8528  -13.9603   25.9403 C   0  0  0  0  0  0  0  0  0  0  0  0
    9.0355  -14.5509   25.2407 C   0  0  2  0  0  0  0  0  0  0  0  0
    8.4803  -15.4855   24.2274 N   0  0  0  0  0  0  0  0  0  0  0  0
    9.8673  -15.3562   26.1147 C   0  0  0  0  0  0  0  0  0  0  0  0
    9.8324  -16.6259   25.9920 O   0  0  0  0  0  0  0  0  0  0  0  0
   10.7342  -14.9164   27.0984 O   0  0  0  0  0  0  0  0  0  0  0  0
  2  3  2  0
  2  1  1  0
  4  3  1  0
  5  4  2  0
  6  5  1  0
  7  9  1  0
  7  6  1  0
  7  8  1  1
  9 10  2  0
 11  5  1  0
 11 12  2  0
 12  2  1  0
 14 13  1  6
 14 15  1  0
 16 14  1  0
 17 16  1  1
 18 17  1  0
 18  9  1  0
 19 20  2  0
 19 17  1  0
 22 23  1  0
 22 21  1  0
 23 24  1  0
 25 24  1  1
 25 27  1  0
 25 26  1  0
 26 19  1  0
 27 29  1  0
 28 27  2  0
M  END
$$$$
