YLM.pdb
     RDKit          3D

 29 29  0  0  1  0  0  0  0  0999 V2000
    8.8484  -22.2547   30.0003 O   0  0  0  0  0  0  0  0  0  0  0  0
    8.4528  -21.2168   29.1690 C   0  0  0  0  0  0  0  0  0  0  0  0
    9.3638  -20.2492   28.7321 C   0  0  0  0  0  0  0  0  0  0  0  0
    8.9737  -19.2222   27.9099 C   0  0  0  0  0  0  0  0  0  0  0  0
    7.6855  -19.0909   27.4775 C   0  0  0  0  0  0  0  0  0  0  0  0
    7.1968  -18.0225   26.6042 C   0  0  0  0  0  0  0  0  0  0  0  0
    6.7793  -18.4782   25.2267 C   0  0  2  0  0  0  0  0  0  0  0  0
    7.6651  -19.6063   24.9032 N   0  0  0  0  0  0  0  0  0  0  0  0
    7.0319  -17.4311   24.2128 C   0  0  0  0  0  0  0  0  0  0  0  0
    7.5710  -17.7750   23.1039 O   0  0  0  0  0  0  0  0  0  0  0  0
    6.7664  -20.0506   27.9068 C   0  0  0  0  0  0  0  0  0  0  0  0
    7.1469  -21.0898   28.7350 C   0  0  0  0  0  0  0  0  0  0  0  0
    5.9810  -13.6265   26.4523 C   0  0  0  0  0  0  0  0  0  0  0  0
    7.0430  -13.0453   25.5036 C   0  0  2  0  0  0  0  0  0  0  0  0
    6.9730  -11.5743   25.6528 C   0  0  0  0  0  0  0  0  0  0  0  0
    6.8176  -13.6276   24.1805 C   0  0  0  0  0  0  0  0  0  0  0  0
    7.3795  -14.9615   23.8632 C   0  0  2  0  0  0  0  0  0  0  0  0
    6.6932  -16.0702   24.4409 N   0  0  0  0  0  0  0  0  0  0  0  0
    8.8564  -15.0544   24.0121 C   0  0  0  0  0  0  0  0  0  0  0  0
    9.6076  -14.3432   23.2595 O   0  0  0  0  0  0  0  0  0  0  0  0
   10.2548  -13.2271   29.0487 C   0  0  0  0  0  0  0  0  0  0  0  0
   11.7208  -14.2659   29.1969 S   0  0  0  0  0  0  0  0  0  0  0  0
   12.0024  -15.1040   27.6382 C   0  0  0  0  0  0  0  0  0  0  0  0
   10.7757  -15.2648   26.8523 C   0  0  0  0  0  0  0  0  0  0  0  0
   10.8810  -15.6545   25.4121 C   0  0  2  0  0  0  0  0  0  0  0  0
    9.4879  -15.9004   24.9571 N   0  0  0  0  0  0  0  0  0  0  0  0
   11.5934  -16.9023   25.2131 C   0  0  0  0  0  0  0  0  0  0  0  0
   12.8371  -16.9475   25.4953 O   0  0  0  0  0  0  0  0  0  0  0  0
   11.0853  -18.1011   24.7468 O   0  0  0  0  0  0  0  0  0  0  0  0
  2  3  2  0
  2  1  1  0
  4  3  1  0
  5  4  2  0
  6  5  1  0
  7  9  1  0
  7  6  1  0
  7  8  1  6
  9 10  2  0
 11  5  1  0
 11 12  2  0
 12  2  1  0
 14 13  1  1
 14 15  1  0
 16 14  1  0
 17 16  1  1
 18 17  1  0
 18  9  1  0
 19 20  2  0
 19 17  1  0
 22 23  1  0
 22 21  1  0
 23 24  1  0
 25 24  1  1
 25 27  1  0
 25 26  1  0
 26 19  1  0
 27 29  1  0
 28 27  2  0
M  END
$$$$
