YLM.pdb
     RDKit          3D

 29 29  0  0  1  0  0  0  0  0999 V2000
   10.3528  -21.1844   30.5949 O   0  0  0  0  0  0  0  0  0  0  0  0
    9.5166  -20.5319   29.7007 C   0  0  0  0  0  0  0  0  0  0  0  0
    9.8514  -19.2792   29.1755 C   0  0  0  0  0  0  0  0  0  0  0  0
    9.0251  -18.6328   28.2910 C   0  0  0  0  0  0  0  0  0  0  0  0
    7.8411  -19.1736   27.8793 C   0  0  0  0  0  0  0  0  0  0  0  0
    6.9093  -18.5426   26.9431 C   0  0  0  0  0  0  0  0  0  0  0  0
    7.3209  -18.6281   25.4930 C   0  0  2  0  0  0  0  0  0  0  0  0
    8.7626  -18.3395   25.4783 N   0  0  0  0  0  0  0  0  0  0  0  0
    6.6657  -17.5774   24.6837 C   0  0  0  0  0  0  0  0  0  0  0  0
    6.0324  -17.9286   23.6281 O   0  0  0  0  0  0  0  0  0  0  0  0
    7.4956  -20.4238   28.3965 C   0  0  0  0  0  0  0  0  0  0  0  0
    8.3192  -21.0851   29.2881 C   0  0  0  0  0  0  0  0  0  0  0  0
    5.3566  -13.4499   26.4286 C   0  0  0  0  0  0  0  0  0  0  0  0
    6.6817  -13.1785   25.6964 C   0  0  2  0  0  0  0  0  0  0  0  0
    6.8881  -11.7134   25.7401 C   0  0  0  0  0  0  0  0  0  0  0  0
    6.6073  -13.8379   24.3925 C   0  0  0  0  0  0  0  0  0  0  0  0
    7.2309  -15.1696   24.2098 C   0  0  2  0  0  0  0  0  0  0  0  0
    6.7236  -16.2055   25.0485 N   0  0  0  0  0  0  0  0  0  0  0  0
    8.7170  -15.1467   24.1536 C   0  0  0  0  0  0  0  0  0  0  0  0
    9.3002  -14.3765   23.3151 O   0  0  0  0  0  0  0  0  0  0  0  0
   10.1664  -12.7968   29.4270 C   0  0  0  0  0  0  0  0  0  0  0  0
   11.1670  -14.1145   28.7113 S   0  0  0  0  0  0  0  0  0  0  0  0
   10.7502  -14.2877   26.9770 C   0  0  0  0  0  0  0  0  0  0  0  0
   11.4218  -15.4266   26.3445 C   0  0  0  0  0  0  0  0  0  0  0  0
   11.0177  -15.8329   24.9629 C   0  0  2  0  0  0  0  0  0  0  0  0
    9.5361  -15.9436   24.9914 N   0  0  0  0  0  0  0  0  0  0  0  0
   11.5101  -17.1457   24.5913 C   0  0  0  0  0  0  0  0  0  0  0  0
   10.6827  -18.1158   24.5372 O   0  0  0  0  0  0  0  0  0  0  0  0
   12.8066  -17.5022   24.2672 O   0  0  0  0  0  0  0  0  0  0  0  0
  2  3  2  0
  2  1  1  0
  4  3  1  0
  5  4  2  0
  6  5  1  0
  7  9  1  0
  7  6  1  0
  7  8  1  1
  9 10  2  0
 11  5  1  0
 11 12  2  0
 12  2  1  0
 14 13  1  6
 14 15  1  0
 16 14  1  0
 17 16  1  1
 18 17  1  0
 18  9  1  0
 19 20  2  0
 19 17  1  0
 22 23  1  0
 22 21  1  0
 23 24  1  0
 25 24  1  1
 25 27  1  0
 25 26  1  0
 26 19  1  0
 27 29  1  0
 28 27  2  0
M  END
$$$$
