YLM.pdb
     RDKit          3D

 29 29  0  0  1  0  0  0  0  0999 V2000
    6.7570  -21.4663   17.8282 O   0  0  0  0  0  0  0  0  0  0  0  0
    7.1952  -20.6267   18.8419 C   0  0  0  0  0  0  0  0  0  0  0  0
    8.5580  -20.4706   19.1170 C   0  0  0  0  0  0  0  0  0  0  0  0
    8.9927  -19.6405   20.1193 C   0  0  0  0  0  0  0  0  0  0  0  0
    8.1251  -18.9278   20.8958 C   0  0  0  0  0  0  0  0  0  0  0  0
    8.5146  -18.0273   21.9823 C   0  0  0  0  0  0  0  0  0  0  0  0
    8.3967  -16.5584   21.6541 C   0  0  2  0  0  0  0  0  0  0  0  0
    9.3828  -16.3152   20.5909 N   0  0  0  0  0  0  0  0  0  0  0  0
    8.7906  -15.7156   22.8042 C   0  0  0  0  0  0  0  0  0  0  0  0
   10.0378  -15.5658   23.0502 O   0  0  0  0  0  0  0  0  0  0  0  0
    6.7619  -19.0749   20.6312 C   0  0  0  0  0  0  0  0  0  0  0  0
    6.3114  -19.9080   19.6243 C   0  0  0  0  0  0  0  0  0  0  0  0
    7.3665  -13.1252   27.4681 C   0  0  0  0  0  0  0  0  0  0  0  0
    7.4618  -12.2803   26.1864 C   0  0  2  0  0  0  0  0  0  0  0  0
    6.5712  -11.1156   26.3894 C   0  0  0  0  0  0  0  0  0  0  0  0
    7.2065  -13.1694   25.0529 C   0  0  0  0  0  0  0  0  0  0  0  0
    8.1431  -14.2825   24.7712 C   0  0  2  0  0  0  0  0  0  0  0  0
    7.8266  -15.0776   23.6303 N   0  0  0  0  0  0  0  0  0  0  0  0
    8.5007  -15.0975   25.9628 C   0  0  0  0  0  0  0  0  0  0  0  0
    7.5923  -15.7805   26.5500 O   0  0  0  0  0  0  0  0  0  0  0  0
   14.1685  -18.3599   26.5336 C   0  0  0  0  0  0  0  0  0  0  0  0
   12.6569  -19.1285   25.9219 S   0  0  0  0  0  0  0  0  0  0  0  0
   11.2517  -18.4091   26.7698 C   0  0  0  0  0  0  0  0  0  0  0  0
   11.3356  -16.9490   26.8661 C   0  0  0  0  0  0  0  0  0  0  0  0
   10.2021  -16.1951   27.4859 C   0  0  2  0  0  0  0  0  0  0  0  0
    9.8135  -15.1607   26.4922 N   0  0  0  0  0  0  0  0  0  0  0  0
   10.5885  -15.4743   28.6839 C   0  0  0  0  0  0  0  0  0  0  0  0
   10.7564  -14.2114   28.6096 O   0  0  0  0  0  0  0  0  0  0  0  0
   10.8014  -15.9898   29.9495 O   0  0  0  0  0  0  0  0  0  0  0  0
  2  3  2  0
  2  1  1  0
  4  3  1  0
  5  4  2  0
  6  5  1  0
  7  9  1  0
  7  6  1  0
  7  8  1  6
  9 10  2  0
 11  5  1  0
 11 12  2  0
 12  2  1  0
 14 13  1  1
 14 15  1  0
 16 14  1  0
 17 16  1  1
 18 17  1  0
 18  9  1  0
 19 20  2  0
 19 17  1  0
 22 23  1  0
 22 21  1  0
 23 24  1  0
 25 24  1  6
 25 27  1  0
 25 26  1  0
 26 19  1  0
 27 29  1  0
 28 27  2  0
M  END
$$$$
