YLM.pdb
     RDKit          3D

 29 29  0  0  1  0  0  0  0  0999 V2000
    7.2886  -11.5882   26.7691 O   0  0  0  0  0  0  0  0  0  0  0  0
    7.0751  -12.9297   26.4872 C   0  0  0  0  0  0  0  0  0  0  0  0
    7.9983  -13.9080   26.8715 C   0  0  0  0  0  0  0  0  0  0  0  0
    7.7883  -15.2352   26.5934 C   0  0  0  0  0  0  0  0  0  0  0  0
    6.6755  -15.6686   25.9318 C   0  0  0  0  0  0  0  0  0  0  0  0
    6.3862  -17.0643   25.5983 C   0  0  0  0  0  0  0  0  0  0  0  0
    6.2202  -17.3364   24.1226 C   0  0  2  0  0  0  0  0  0  0  0  0
    5.9527  -18.7785   24.0188 N   0  0  0  0  0  0  0  0  0  0  0  0
    7.4750  -17.0794   23.3824 C   0  0  0  0  0  0  0  0  0  0  0  0
    8.3444  -18.0165   23.3144 O   0  0  0  0  0  0  0  0  0  0  0  0
    5.7463  -14.7015   25.5428 C   0  0  0  0  0  0  0  0  0  0  0  0
    5.9463  -13.3616   25.8170 C   0  0  0  0  0  0  0  0  0  0  0  0
    7.4725  -14.7468   19.4774 C   0  0  0  0  0  0  0  0  0  0  0  0
    7.7221  -13.7694   20.6384 C   0  0  2  0  0  0  0  0  0  0  0  0
    7.7039  -12.4115   20.0496 C   0  0  0  0  0  0  0  0  0  0  0  0
    8.9277  -14.2148   21.3375 C   0  0  0  0  0  0  0  0  0  0  0  0
    8.9261  -15.5198   22.0393 C   0  0  2  0  0  0  0  0  0  0  0  0
    7.7318  -15.8313   22.7539 N   0  0  0  0  0  0  0  0  0  0  0  0
   10.1585  -15.7929   22.8259 C   0  0  0  0  0  0  0  0  0  0  0  0
   11.2994  -15.7000   22.2548 O   0  0  0  0  0  0  0  0  0  0  0  0
    9.8075  -15.4248   29.4875 C   0  0  0  0  0  0  0  0  0  0  0  0
   11.2608  -14.5578   28.8658 S   0  0  0  0  0  0  0  0  0  0  0  0
   11.8990  -15.4362   27.4402 C   0  0  0  0  0  0  0  0  0  0  0  0
   10.9406  -15.4899   26.3326 C   0  0  0  0  0  0  0  0  0  0  0  0
   11.3647  -16.0970   25.0331 C   0  0  2  0  0  0  0  0  0  0  0  0
   10.1386  -16.1558   24.1954 N   0  0  0  0  0  0  0  0  0  0  0  0
   11.8222  -17.4667   25.1699 C   0  0  0  0  0  0  0  0  0  0  0  0
   12.9019  -17.6888   25.8129 O   0  0  0  0  0  0  0  0  0  0  0  0
   11.2186  -18.6124   24.6844 O   0  0  0  0  0  0  0  0  0  0  0  0
  2  3  2  0
  2  1  1  0
  4  3  1  0
  5  4  2  0
  6  5  1  0
  7  9  1  0
  7  6  1  0
  7  8  1  1
  9 10  2  0
 11  5  1  0
 11 12  2  0
 12  2  1  0
 14 13  1  6
 14 15  1  0
 16 14  1  0
 17 16  1  1
 18 17  1  0
 18  9  1  0
 19 20  2  0
 19 17  1  0
 22 23  1  0
 22 21  1  0
 23 24  1  0
 25 24  1  1
 25 27  1  0
 25 26  1  0
 26 19  1  0
 27 29  1  0
 28 27  2  0
M  END
$$$$
