YLM.pdb
     RDKit          3D

 29 29  0  0  1  0  0  0  0  0999 V2000
    6.5687  -22.1824   17.5770 O   0  0  0  0  0  0  0  0  0  0  0  0
    7.0257  -21.3271   18.5690 C   0  0  0  0  0  0  0  0  0  0  0  0
    6.1560  -20.4558   19.2336 C   0  0  0  0  0  0  0  0  0  0  0  0
    6.6068  -19.6093   20.2150 C   0  0  0  0  0  0  0  0  0  0  0  0
    7.9182  -19.5724   20.5924 C   0  0  0  0  0  0  0  0  0  0  0  0
    8.4708  -18.6958   21.6264 C   0  0  0  0  0  0  0  0  0  0  0  0
    8.3542  -17.2204   21.3277 C   0  0  2  0  0  0  0  0  0  0  0  0
    9.2595  -16.9783   20.1947 N   0  0  0  0  0  0  0  0  0  0  0  0
    8.8507  -16.4012   22.4550 C   0  0  0  0  0  0  0  0  0  0  0  0
   10.0788  -16.0402   22.4505 O   0  0  0  0  0  0  0  0  0  0  0  0
    8.7965  -20.4374   19.9364 C   0  0  0  0  0  0  0  0  0  0  0  0
    8.3548  -21.2948   18.9463 C   0  0  0  0  0  0  0  0  0  0  0  0
    7.9020  -12.3495   24.4361 C   0  0  0  0  0  0  0  0  0  0  0  0
    6.7918  -13.3772   24.7135 C   0  0  2  0  0  0  0  0  0  0  0  0
    5.7090  -12.6425   25.4055 C   0  0  0  0  0  0  0  0  0  0  0  0
    7.4078  -14.5193   25.3894 C   0  0  0  0  0  0  0  0  0  0  0  0
    8.4460  -15.3108   24.6886 C   0  0  2  0  0  0  0  0  0  0  0  0
    8.0045  -16.0120   23.5279 N   0  0  0  0  0  0  0  0  0  0  0  0
    9.2858  -16.1487   25.5857 C   0  0  0  0  0  0  0  0  0  0  0  0
    8.7206  -16.9808   26.3760 O   0  0  0  0  0  0  0  0  0  0  0  0
   10.7842  -13.8992   31.8395 C   0  0  0  0  0  0  0  0  0  0  0  0
   10.3818  -13.7471   30.0888 S   0  0  0  0  0  0  0  0  0  0  0  0
   11.2672  -15.0087   29.1746 C   0  0  0  0  0  0  0  0  0  0  0  0
   10.8520  -15.0870   27.7711 C   0  0  0  0  0  0  0  0  0  0  0  0
   11.4570  -16.1346   26.8916 C   0  0  2  0  0  0  0  0  0  0  0  0
   10.7006  -16.0755   25.6137 N   0  0  0  0  0  0  0  0  0  0  0  0
   11.2737  -17.4794   27.4034 C   0  0  0  0  0  0  0  0  0  0  0  0
   12.0280  -17.8804   28.3514 O   0  0  0  0  0  0  0  0  0  0  0  0
   10.3496  -18.4225   26.9915 O   0  0  0  0  0  0  0  0  0  0  0  0
  2  3  2  0
  2  1  1  0
  4  3  1  0
  5  4  2  0
  6  5  1  0
  7  9  1  0
  7  6  1  0
  7  8  1  6
  9 10  2  0
 11  5  1  0
 11 12  2  0
 12  2  1  0
 14 13  1  1
 14 15  1  0
 16 14  1  0
 17 16  1  1
 18 17  1  0
 18  9  1  0
 19 20  2  0
 19 17  1  0
 22 23  1  0
 22 21  1  0
 23 24  1  0
 25 24  1  1
 25 27  1  0
 25 26  1  0
 26 19  1  0
 27 29  1  0
 28 27  2  0
M  END
$$$$
