YLM.pdb
     RDKit          3D

 29 29  0  0  1  0  0  0  0  0999 V2000
    6.2825  -23.9783   28.4751 O   0  0  0  0  0  0  0  0  0  0  0  0
    6.5420  -22.7887   27.8102 C   0  0  0  0  0  0  0  0  0  0  0  0
    7.8292  -22.2417   27.7766 C   0  0  0  0  0  0  0  0  0  0  0  0
    8.0871  -21.0652   27.1193 C   0  0  0  0  0  0  0  0  0  0  0  0
    7.1088  -20.3707   26.4680 C   0  0  0  0  0  0  0  0  0  0  0  0
    7.3084  -19.1107   25.7501 C   0  0  0  0  0  0  0  0  0  0  0  0
    6.9401  -19.1560   24.2866 C   0  0  2  0  0  0  0  0  0  0  0  0
    7.8628  -20.1277   23.6813 N   0  0  0  0  0  0  0  0  0  0  0  0
    7.1932  -17.8566   23.6264 C   0  0  0  0  0  0  0  0  0  0  0  0
    8.1056  -17.7966   22.7304 O   0  0  0  0  0  0  0  0  0  0  0  0
    5.8194  -20.9063   26.4943 C   0  0  0  0  0  0  0  0  0  0  0  0
    5.5468  -22.0906   27.1528 C   0  0  0  0  0  0  0  0  0  0  0  0
    5.7821  -12.4273   26.2121 C   0  0  0  0  0  0  0  0  0  0  0  0
    6.7396  -13.1097   25.2206 C   0  0  2  0  0  0  0  0  0  0  0  0
    6.8090  -12.2263   24.0349 C   0  0  0  0  0  0  0  0  0  0  0  0
    6.2809  -14.4876   25.0428 C   0  0  0  0  0  0  0  0  0  0  0  0
    7.0301  -15.3977   24.1449 C   0  0  2  0  0  0  0  0  0  0  0  0
    6.4550  -16.6897   23.9613 N   0  0  0  0  0  0  0  0  0  0  0  0
    8.4932  -15.4479   24.4071 C   0  0  0  0  0  0  0  0  0  0  0  0
    9.2903  -14.8144   23.6327 O   0  0  0  0  0  0  0  0  0  0  0  0
    9.6782  -13.6701   29.9662 C   0  0  0  0  0  0  0  0  0  0  0  0
   10.9810  -14.9159   29.9938 S   0  0  0  0  0  0  0  0  0  0  0  0
   11.4037  -15.3560   28.3089 C   0  0  0  0  0  0  0  0  0  0  0  0
   10.2252  -15.5086   27.4511 C   0  0  0  0  0  0  0  0  0  0  0  0
   10.4163  -15.8489   26.0072 C   0  0  2  0  0  0  0  0  0  0  0  0
    9.0625  -16.1700   25.4851 N   0  0  0  0  0  0  0  0  0  0  0  0
   11.2160  -17.0425   25.8072 C   0  0  0  0  0  0  0  0  0  0  0  0
   12.4512  -17.0109   26.1263 O   0  0  0  0  0  0  0  0  0  0  0  0
   10.8030  -18.2626   25.3037 O   0  0  0  0  0  0  0  0  0  0  0  0
  2  3  2  0
  2  1  1  0
  4  3  1  0
  5  4  2  0
  6  5  1  0
  7  9  1  0
  7  6  1  0
  7  8  1  6
  9 10  2  0
 11  5  1  0
 11 12  2  0
 12  2  1  0
 14 13  1  1
 14 15  1  0
 16 14  1  0
 17 16  1  1
 18 17  1  0
 18  9  1  0
 19 20  2  0
 19 17  1  0
 22 23  1  0
 22 21  1  0
 23 24  1  0
 25 24  1  1
 25 27  1  0
 25 26  1  0
 26 19  1  0
 27 29  1  0
 28 27  2  0
M  END
$$$$
