YLM.pdb
     RDKit          3D

 29 29  0  0  1  0  0  0  0  0999 V2000
    6.0145  -23.7738   28.7003 O   0  0  0  0  0  0  0  0  0  0  0  0
    6.4058  -22.6361   28.0094 C   0  0  0  0  0  0  0  0  0  0  0  0
    7.3199  -22.7069   26.9527 C   0  0  0  0  0  0  0  0  0  0  0  0
    7.7076  -21.5824   26.2687 C   0  0  0  0  0  0  0  0  0  0  0  0
    7.2256  -20.3438   26.5803 C   0  0  0  0  0  0  0  0  0  0  0  0
    7.5951  -19.1021   25.8985 C   0  0  0  0  0  0  0  0  0  0  0  0
    6.5093  -18.5154   25.0290 C   0  0  2  0  0  0  0  0  0  0  0  0
    6.3144  -19.4841   23.9402 N   0  0  0  0  0  0  0  0  0  0  0  0
    6.9461  -17.2488   24.4020 C   0  0  0  0  0  0  0  0  0  0  0  0
    7.2774  -17.2642   23.1656 O   0  0  0  0  0  0  0  0  0  0  0  0
    6.3124  -20.2598   27.6333 C   0  0  0  0  0  0  0  0  0  0  0  0
    5.9139  -21.3851   28.3302 C   0  0  0  0  0  0  0  0  0  0  0  0
    6.4051  -11.8973   23.9618 C   0  0  0  0  0  0  0  0  0  0  0  0
    6.0801  -12.8065   25.1591 C   0  0  2  0  0  0  0  0  0  0  0  0
    5.5520  -11.9215   26.2216 C   0  0  0  0  0  0  0  0  0  0  0  0
    7.2723  -13.6065   25.4408 C   0  0  0  0  0  0  0  0  0  0  0  0
    7.5506  -14.8147   24.6294 C   0  0  2  0  0  0  0  0  0  0  0  0
    7.0047  -16.0321   25.1333 N   0  0  0  0  0  0  0  0  0  0  0  0
    8.9683  -14.9505   24.2007 C   0  0  0  0  0  0  0  0  0  0  0  0
    9.4812  -14.0578   23.4414 O   0  0  0  0  0  0  0  0  0  0  0  0
   11.2921  -13.8661   30.4116 C   0  0  0  0  0  0  0  0  0  0  0  0
   10.7857  -13.9949   28.6862 S   0  0  0  0  0  0  0  0  0  0  0  0
   10.6398  -15.7264   28.2483 C   0  0  0  0  0  0  0  0  0  0  0  0
    9.9653  -15.9304   26.9632 C   0  0  0  0  0  0  0  0  0  0  0  0
   10.7734  -15.8981   25.7050 C   0  0  2  0  0  0  0  0  0  0  0  0
    9.7961  -16.0313   24.5935 N   0  0  0  0  0  0  0  0  0  0  0  0
   11.6760  -17.0270   25.5819 C   0  0  0  0  0  0  0  0  0  0  0  0
   11.2625  -18.0778   24.9875 O   0  0  0  0  0  0  0  0  0  0  0  0
   12.9799  -17.1204   26.0333 O   0  0  0  0  0  0  0  0  0  0  0  0
  2  3  2  0
  2  1  1  0
  4  3  1  0
  5  4  2  0
  6  5  1  0
  7  9  1  0
  7  6  1  0
  7  8  1  6
  9 10  2  0
 11  5  1  0
 11 12  2  0
 12  2  1  0
 14 13  1  6
 14 15  1  0
 16 14  1  0
 17 16  1  1
 18 17  1  0
 18  9  1  0
 19 20  2  0
 19 17  1  0
 22 23  1  0
 22 21  1  0
 23 24  1  0
 25 24  1  1
 25 27  1  0
 25 26  1  0
 26 19  1  0
 27 29  1  0
 28 27  2  0
M  END
$$$$
