YLM.pdb
     RDKit          3D

 29 29  0  0  1  0  0  0  0  0999 V2000
   65.3363  534.8089  277.1772 O   0  0  0  0  0  0  0  0  0  0  0  0
   66.0785  534.1188  276.2302 C   0  0  0  0  0  0  0  0  0  0  0  0
   66.0436  534.4775  274.8784 C   0  0  0  0  0  0  0  0  0  0  0  0
   66.7772  533.7953  273.9404 C   0  0  0  0  0  0  0  0  0  0  0  0
   67.5744  532.7390  274.2738 C   0  0  0  0  0  0  0  0  0  0  0  0
   68.3811  531.9637  273.3294 C   0  0  0  0  0  0  0  0  0  0  0  0
   68.4018  532.5123  271.9229 C   0  0  2  0  0  0  0  0  0  0  0  0
   67.5405  533.7039  271.9551 N   0  0  0  0  0  0  0  0  0  0  0  0
   67.7877  531.5660  270.9661 C   0  0  0  0  0  0  0  0  0  0  0  0
   68.5326  530.6741  270.4290 O   0  0  0  0  0  0  0  0  0  0  0  0
   67.6179  532.3709  275.6201 C   0  0  0  0  0  0  0  0  0  0  0  0
   66.8835  533.0499  276.5744 C   0  0  0  0  0  0  0  0  0  0  0  0
   64.2010  530.8511  268.4954 C   0  0  0  0  0  0  0  0  0  0  0  0
   63.5030  530.3800  269.7824 C   0  0  2  0  0  0  0  0  0  0  0  0
   62.0520  530.3753  269.4904 C   0  0  0  0  0  0  0  0  0  0  0  0
   63.9949  531.2127  270.8803 C   0  0  0  0  0  0  0  0  0  0  0  0
   65.3695  531.0079  271.3940 C   0  0  2  0  0  0  0  0  0  0  0  0
   66.4072  531.6253  270.6352 N   0  0  0  0  0  0  0  0  0  0  0  0
   65.6817  529.6011  271.7627 C   0  0  0  0  0  0  0  0  0  0  0  0
   66.6783  529.0164  271.2138 O   0  0  0  0  0  0  0  0  0  0  0  0
   61.3754  529.5233  274.7704 C   0  0  0  0  0  0  0  0  0  0  0  0
   62.0200  527.8928  274.3519 S   0  0  0  0  0  0  0  0  0  0  0  0
   63.4804  527.5713  275.3390 C   0  0  0  0  0  0  0  0  0  0  0  0
   64.6775  527.3493  274.5229 C   0  0  0  0  0  0  0  0  0  0  0  0
   65.4630  528.5306  274.0486 C   0  0  2  0  0  0  0  0  0  0  0  0
   64.9241  528.8608  272.7036 N   0  0  0  0  0  0  0  0  0  0  0  0
   66.8697  528.2352  273.8546 C   0  0  0  0  0  0  0  0  0  0  0  0
   67.5181  527.6955  274.8120 O   0  0  0  0  0  0  0  0  0  0  0  0
   67.6334  528.4611  272.7239 O   0  0  0  0  0  0  0  0  0  0  0  0
  2  3  2  0
  2  1  1  0
  4  3  1  0
  5  4  2  0
  6  5  1  0
  7  9  1  0
  7  6  1  0
  7  8  1  1
  9 10  2  0
 11  5  1  0
 11 12  2  0
 12  2  1  0
 14 13  1  6
 14 15  1  0
 16 14  1  0
 17 16  1  6
 18 17  1  0
 18  9  1  0
 19 20  2  0
 19 17  1  0
 22 23  1  0
 22 21  1  0
 23 24  1  0
 25 24  1  6
 25 27  1  0
 25 26  1  0
 26 19  1  0
 27 29  1  0
 28 27  2  0
M  END
$$$$
