LDT.pdb
     RDKit          3D

 24 23  0  0  1  0  0  0  0  0999 V2000
   20.6654  -14.7216  -19.7772 C   0  0  0  0  0  0  0  0  0  0  0  0
   20.0280  -14.6631  -18.4033 C   0  0  2  0  0  0  0  0  0  0  0  0
   18.8837  -15.6431  -18.2708 C   0  0  0  0  0  0  0  0  0  0  0  0
   19.4538  -13.2750  -18.2194 C   0  0  0  0  0  0  0  0  0  0  0  0
   20.5625  -12.2441  -18.4284 C   0  0  2  0  0  0  0  0  0  0  0  0
   21.6155  -12.5008  -17.4815 N   0  0  0  0  0  0  0  0  0  0  0  0
   19.9406  -10.9151  -18.2450 C   0  0  0  0  0  0  0  0  0  0  0  0
   18.8315  -10.7169  -18.8051 O   0  0  0  0  0  0  0  0  0  0  0  0
   20.5251   -9.8680  -17.4793 N   0  0  0  0  0  0  0  0  0  0  0  0
   19.8305   -8.6342  -17.1775 C   0  0  1  0  0  0  0  0  0  0  0  0
   18.4840   -8.8687  -16.5706 C   0  0  0  0  0  0  0  0  0  0  0  0
   17.7571   -7.6470  -16.2292 C   0  0  0  0  0  0  0  0  0  0  0  0
   17.8558   -6.6063  -16.8913 O   0  0  0  0  0  0  0  0  0  0  0  0
   20.6744   -7.7076  -16.3860 C   0  0  0  0  0  0  0  0  0  0  0  0
   21.2472   -8.1673  -15.3646 O   0  0  0  0  0  0  0  0  0  0  0  0
   16.9248   -7.6573  -15.1191 O   0  0  0  0  0  0  0  0  0  0  0  0
   22.9641   -3.3676  -15.8359 C   0  0  0  0  0  0  0  0  0  0  0  0
   21.9459   -4.1539  -16.6278 C   0  0  1  0  0  0  0  0  0  0  0  0
   22.4107   -4.2765  -17.9164 O   0  0  0  0  0  0  0  0  0  0  0  0
   21.7691   -5.5116  -15.9641 C   0  0  2  0  0  0  0  0  0  0  0  0
   20.8707   -6.3563  -16.7071 N   0  0  0  0  0  0  0  0  0  0  0  0
   21.2965   -5.3059  -14.5675 C   0  0  0  0  0  0  0  0  0  0  0  0
   22.1927   -5.2814  -13.5096 O   0  0  0  0  0  0  0  0  0  0  0  0
   20.0778   -5.1492  -14.3079 O   0  0  0  0  0  0  0  0  0  0  0  0
  2  4  1  0
  2  1  1  6
  3  2  1  0
  5  6  1  1
  5  4  1  0
  5  7  1  0
  7  8  2  0
  9  7  1  0
  9 10  1  0
 10 14  1  0
 10 11  1  1
 12 11  1  0
 13 12  2  0
 14 15  2  0
 16 12  1  0
 18 17  1  1
 18 19  1  0
 20 18  1  0
 21 14  1  0
 20 21  1  6
 22 20  1  0
 22 23  1  0
 24 22  2  0
M  END
$$$$
