LDT.pdb
     RDKit          3D

 24 23  0  0  1  0  0  0  0  0999 V2000
   23.1043  -14.4445  -14.8344 C   0  0  0  0  0  0  0  0  0  0  0  0
   23.7934  -13.8468  -16.0448 C   0  0  2  0  0  0  0  0  0  0  0  0
   25.2848  -13.7104  -15.8341 C   0  0  0  0  0  0  0  0  0  0  0  0
   23.2398  -12.4533  -16.2502 C   0  0  0  0  0  0  0  0  0  0  0  0
   21.7391  -12.5473  -16.5236 C   0  0  2  0  0  0  0  0  0  0  0  0
   21.5398  -13.2378  -17.7705 N   0  0  0  0  0  0  0  0  0  0  0  0
   21.2292  -11.1595  -16.5510 C   0  0  0  0  0  0  0  0  0  0  0  0
   21.4475  -10.4872  -17.5918 O   0  0  0  0  0  0  0  0  0  0  0  0
   20.5162  -10.5582  -15.4766 N   0  0  0  0  0  0  0  0  0  0  0  0
   19.9175   -9.2435  -15.5701 C   0  0  1  0  0  0  0  0  0  0  0  0
   18.5146   -9.2151  -15.0528 C   0  0  0  0  0  0  0  0  0  0  0  0
   17.8618   -7.9110  -15.1562 C   0  0  0  0  0  0  0  0  0  0  0  0
   18.1072   -7.1140  -16.0704 O   0  0  0  0  0  0  0  0  0  0  0  0
   20.7829   -8.2011  -14.9687 C   0  0  0  0  0  0  0  0  0  0  0  0
   21.3485   -8.4696  -13.8775 O   0  0  0  0  0  0  0  0  0  0  0  0
   16.9311   -7.5554  -14.1904 O   0  0  0  0  0  0  0  0  0  0  0  0
   23.8358   -6.5657  -16.4148 C   0  0  0  0  0  0  0  0  0  0  0  0
   22.8960   -5.4514  -16.0182 C   0  0  1  0  0  0  0  0  0  0  0  0
   22.2373   -5.0270  -17.1484 O   0  0  0  0  0  0  0  0  0  0  0  0
   21.9287   -5.9907  -14.9748 C   0  0  2  0  0  0  0  0  0  0  0  0
   21.0069   -6.9404  -15.5415 N   0  0  0  0  0  0  0  0  0  0  0  0
   21.2155   -4.8466  -14.3436 C   0  0  0  0  0  0  0  0  0  0  0  0
   21.8891   -3.9526  -13.5251 O   0  0  0  0  0  0  0  0  0  0  0  0
   19.9883   -4.6585  -14.5333 O   0  0  0  0  0  0  0  0  0  0  0  0
  2  4  1  0
  2  1  1  1
  3  2  1  0
  5  6  1  6
  5  4  1  0
  5  7  1  0
  7  8  2  0
  9  7  1  0
  9 10  1  0
 10 14  1  0
 10 11  1  1
 12 11  1  0
 13 12  2  0
 14 15  2  0
 16 12  1  0
 18 17  1  6
 18 19  1  0
 20 18  1  0
 21 14  1  0
 20 21  1  6
 22 20  1  0
 22 23  1  0
 24 22  2  0
M  END
$$$$
