LDT.pdb
     RDKit          3D

 24 23  0  0  1  0  0  0  0  0999 V2000
   24.2533  -20.9703   -9.1989 C   0  0  0  0  0  0  0  0  0  0  0  0
   25.6881  -20.6984   -9.6043 C   0  0  2  0  0  0  0  0  0  0  0  0
   26.2055  -19.4059   -9.0134 C   0  0  0  0  0  0  0  0  0  0  0  0
   25.7221  -20.5489  -11.1100 C   0  0  0  0  0  0  0  0  0  0  0  0
   25.1932  -21.8312  -11.7514 C   0  0  2  0  0  0  0  0  0  0  0  0
   26.2500  -22.8080  -11.7688 N   0  0  0  0  0  0  0  0  0  0  0  0
   24.7324  -21.4637  -13.1076 C   0  0  0  0  0  0  0  0  0  0  0  0
   25.5874  -21.4828  -14.0303 O   0  0  0  0  0  0  0  0  0  0  0  0
   23.3926  -21.0960  -13.4143 N   0  0  0  0  0  0  0  0  0  0  0  0
   22.9141  -20.9331  -14.7709 C   0  0  1  0  0  0  0  0  0  0  0  0
   21.5772  -21.5676  -14.9866 C   0  0  0  0  0  0  0  0  0  0  0  0
   21.1035  -21.5170  -16.3688 C   0  0  0  0  0  0  0  0  0  0  0  0
   19.9777  -21.1028  -16.6723 O   0  0  0  0  0  0  0  0  0  0  0  0
   22.9655  -19.5170  -15.2057 C   0  0  0  0  0  0  0  0  0  0  0  0
   22.4949  -18.6490  -14.4259 O   0  0  0  0  0  0  0  0  0  0  0  0
   21.9513  -21.9508  -17.3781 O   0  0  0  0  0  0  0  0  0  0  0  0
   24.5936  -15.9621  -18.1753 C   0  0  0  0  0  0  0  0  0  0  0  0
   24.4633  -17.4550  -17.9840 C   0  0  1  0  0  0  0  0  0  0  0  0
   25.7154  -17.9626  -17.7269 O   0  0  0  0  0  0  0  0  0  0  0  0
   23.5079  -17.7068  -16.8268 C   0  0  2  0  0  0  0  0  0  0  0  0
   23.5047  -19.0903  -16.4283 N   0  0  0  0  0  0  0  0  0  0  0  0
   22.1470  -17.2478  -17.2185 C   0  0  0  0  0  0  0  0  0  0  0  0
   21.6278  -16.0600  -16.7262 O   0  0  0  0  0  0  0  0  0  0  0  0
   21.4327  -17.9199  -18.0028 O   0  0  0  0  0  0  0  0  0  0  0  0
  2  4  1  0
  2  1  1  1
  3  2  1  0
  5  6  1  6
  5  4  1  0
  5  7  1  0
  7  8  2  0
  9  7  1  0
  9 10  1  0
 10 14  1  0
 10 11  1  1
 12 11  1  0
 13 12  2  0
 14 15  2  0
 16 12  1  0
 18 17  1  1
 18 19  1  0
 20 18  1  0
 21 14  1  0
 20 21  1  6
 22 20  1  0
 22 23  1  0
 24 22  2  0
M  END
$$$$
