LDT.pdb
     RDKit          3D

 24 23  0  0  1  0  0  0  0  0999 V2000
   27.0363  -13.2729  -15.4965 C   0  0  0  0  0  0  0  0  0  0  0  0
   27.3526  -12.2829  -16.5997 C   0  0  2  0  0  0  0  0  0  0  0  0
   28.5877  -11.4675  -16.2882 C   0  0  0  0  0  0  0  0  0  0  0  0
   26.1912  -11.3177  -16.7009 C   0  0  0  0  0  0  0  0  0  0  0  0
   24.9470  -12.0793  -17.1562 C   0  0  2  0  0  0  0  0  0  0  0  0
   25.2248  -12.7008  -18.4242 N   0  0  0  0  0  0  0  0  0  0  0  0
   23.8523  -11.0882  -17.2333 C   0  0  0  0  0  0  0  0  0  0  0  0
   23.8340  -10.3285  -18.2359 O   0  0  0  0  0  0  0  0  0  0  0  0
   22.8366  -10.9542  -16.2460 N   0  0  0  0  0  0  0  0  0  0  0  0
   21.7639   -9.9876  -16.3493 C   0  0  1  0  0  0  0  0  0  0  0  0
   20.4121  -10.6195  -16.2502 C   0  0  0  0  0  0  0  0  0  0  0  0
   19.2986   -9.6872  -16.4191 C   0  0  0  0  0  0  0  0  0  0  0  0
   19.2689   -8.8419  -17.3223 O   0  0  0  0  0  0  0  0  0  0  0  0
   21.9502   -8.8567  -15.4093 C   0  0  0  0  0  0  0  0  0  0  0  0
   22.3045   -9.1275  -14.2328 O   0  0  0  0  0  0  0  0  0  0  0  0
   18.2348   -9.7549  -15.5308 O   0  0  0  0  0  0  0  0  0  0  0  0
   22.9923   -5.0805  -16.7083 C   0  0  0  0  0  0  0  0  0  0  0  0
   23.3131   -5.6594  -15.3503 C   0  0  1  0  0  0  0  0  0  0  0  0
   23.6251   -4.6191  -14.5065 O   0  0  0  0  0  0  0  0  0  0  0  0
   22.0973   -6.4326  -14.8611 C   0  0  2  0  0  0  0  0  0  0  0  0
   21.7560   -7.5106  -15.7523 N   0  0  0  0  0  0  0  0  0  0  0  0
   20.9621   -5.4849  -14.6897 C   0  0  0  0  0  0  0  0  0  0  0  0
   21.0460   -4.4288  -13.7950 O   0  0  0  0  0  0  0  0  0  0  0  0
   19.9001   -5.6138  -15.3475 O   0  0  0  0  0  0  0  0  0  0  0  0
  2  4  1  0
  2  1  1  1
  3  2  1  0
  5  6  1  6
  5  4  1  0
  5  7  1  0
  7  8  2  0
  9  7  1  0
  9 10  1  0
 10 14  1  0
 10 11  1  1
 12 11  1  0
 13 12  2  0
 14 15  2  0
 16 12  1  0
 18 17  1  6
 18 19  1  0
 20 18  1  0
 21 14  1  0
 20 21  1  6
 22 20  1  0
 22 23  1  0
 24 22  2  0
M  END
$$$$
