LDT.pdb
     RDKit          3D

 24 23  0  0  1  0  0  0  0  0999 V2000
   17.4346  -14.6943  -18.0252 C   0  0  0  0  0  0  0  0  0  0  0  0
   18.5014  -15.3159  -17.1462 C   0  0  2  0  0  0  0  0  0  0  0  0
   17.9120  -15.9426  -15.9023 C   0  0  0  0  0  0  0  0  0  0  0  0
   19.4301  -14.2095  -16.6946 C   0  0  0  0  0  0  0  0  0  0  0  0
   20.1126  -13.5996  -17.9185 C   0  0  2  0  0  0  0  0  0  0  0  0
   20.9671  -14.5934  -18.5131 N   0  0  0  0  0  0  0  0  0  0  0  0
   20.8596  -12.4175  -17.4375 C   0  0  0  0  0  0  0  0  0  0  0  0
   22.0403  -12.6041  -17.0450 O   0  0  0  0  0  0  0  0  0  0  0  0
   20.3176  -11.1027  -17.3978 N   0  0  0  0  0  0  0  0  0  0  0  0
   21.1025   -9.9404  -17.0385 C   0  0  1  0  0  0  0  0  0  0  0  0
   22.3753   -9.8458  -17.8178 C   0  0  0  0  0  0  0  0  0  0  0  0
   23.2336   -8.7262  -17.4339 C   0  0  0  0  0  0  0  0  0  0  0  0
   23.1726   -7.6204  -17.9860 O   0  0  0  0  0  0  0  0  0  0  0  0
   20.2964   -8.6973  -17.0833 C   0  0  0  0  0  0  0  0  0  0  0  0
   19.6282   -8.4716  -18.1252 O   0  0  0  0  0  0  0  0  0  0  0  0
   24.1517   -8.9132  -16.4104 O   0  0  0  0  0  0  0  0  0  0  0  0
   19.1603   -8.6428  -13.5145 C   0  0  0  0  0  0  0  0  0  0  0  0
   18.2636   -8.2797  -14.6749 C   0  0  1  0  0  0  0  0  0  0  0  0
   17.0896   -7.7767  -14.1650 O   0  0  0  0  0  0  0  0  0  0  0  0
   18.9867   -7.2534  -15.5347 C   0  0  2  0  0  0  0  0  0  0  0  0
   20.2352   -7.7634  -16.0386 N   0  0  0  0  0  0  0  0  0  0  0  0
   19.1853   -6.0124  -14.7368 C   0  0  0  0  0  0  0  0  0  0  0  0
   18.1058   -5.2256  -14.3644 O   0  0  0  0  0  0  0  0  0  0  0  0
   20.3313   -5.6435  -14.3793 O   0  0  0  0  0  0  0  0  0  0  0  0
  2  4  1  0
  2  1  1  6
  3  2  1  0
  5  6  1  1
  5  4  1  0
  5  7  1  0
  7  8  2  0
  9  7  1  0
  9 10  1  0
 10 14  1  0
 10 11  1  6
 12 11  1  0
 13 12  2  0
 14 15  2  0
 16 12  1  0
 18 17  1  1
 18 19  1  0
 20 18  1  0
 21 14  1  0
 20 21  1  1
 22 20  1  0
 22 23  1  0
 24 22  2  0
M  END
$$$$
