LDT.pdb
     RDKit          3D

 24 23  0  0  1  0  0  0  0  0999 V2000
   17.9784  -15.6283  -15.0480 C   0  0  0  0  0  0  0  0  0  0  0  0
   17.1711  -15.1899  -16.2535 C   0  0  2  0  0  0  0  0  0  0  0  0
   17.3591  -16.1244  -17.4278 C   0  0  0  0  0  0  0  0  0  0  0  0
   17.6773  -13.8283  -16.6779 C   0  0  0  0  0  0  0  0  0  0  0  0
   17.4025  -12.8226  -15.5604 C   0  0  2  0  0  0  0  0  0  0  0  0
   16.0173  -12.9205  -15.1822 N   0  0  0  0  0  0  0  0  0  0  0  0
   17.7554  -11.4908  -16.0974 C   0  0  0  0  0  0  0  0  0  0  0  0
   18.7250  -11.4317  -16.8970 O   0  0  0  0  0  0  0  0  0  0  0  0
   17.0640  -10.2941  -15.7598 N   0  0  0  0  0  0  0  0  0  0  0  0
   17.4190   -9.0014  -16.3063 C   0  0  1  0  0  0  0  0  0  0  0  0
   16.2233   -8.2157  -16.7416 C   0  0  0  0  0  0  0  0  0  0  0  0
   16.5396   -6.9143  -17.3279 C   0  0  0  0  0  0  0  0  0  0  0  0
   17.3760   -6.7755  -18.2293 O   0  0  0  0  0  0  0  0  0  0  0  0
   18.3141   -8.2469  -15.3970 C   0  0  0  0  0  0  0  0  0  0  0  0
   18.1546   -8.4025  -14.1588 O   0  0  0  0  0  0  0  0  0  0  0  0
   15.8749   -5.7925  -16.8534 O   0  0  0  0  0  0  0  0  0  0  0  0
   22.4572   -6.4473  -13.9930 C   0  0  0  0  0  0  0  0  0  0  0  0
   21.5920   -7.2801  -14.9096 C   0  0  1  0  0  0  0  0  0  0  0  0
   21.5905   -8.5717  -14.4370 O   0  0  0  0  0  0  0  0  0  0  0  0
   20.1919   -6.6842  -14.9171 C   0  0  2  0  0  0  0  0  0  0  0  0
   19.3224   -7.3750  -15.8334 N   0  0  0  0  0  0  0  0  0  0  0  0
   20.2882   -5.2347  -15.2423 C   0  0  0  0  0  0  0  0  0  0  0  0
   20.1458   -4.2728  -14.2538 O   0  0  0  0  0  0  0  0  0  0  0  0
   20.5004   -4.8426  -16.4164 O   0  0  0  0  0  0  0  0  0  0  0  0
  2  4  1  0
  2  1  1  1
  3  2  1  0
  5  6  1  6
  5  4  1  0
  5  7  1  0
  7  8  2  0
  9  7  1  0
  9 10  1  0
 10 14  1  0
 10 11  1  1
 12 11  1  0
 13 12  2  0
 14 15  2  0
 16 12  1  0
 18 17  1  1
 18 19  1  0
 20 18  1  0
 21 14  1  0
 20 21  1  6
 22 20  1  0
 22 23  1  0
 24 22  2  0
M  END
$$$$
