LDT.pdb
     RDKit          3D

 24 23  0  0  1  0  0  0  0  0999 V2000
   27.1922  -19.1016   -6.8664 C   0  0  0  0  0  0  0  0  0  0  0  0
   27.4116  -20.5381   -7.2972 C   0  0  2  0  0  0  0  0  0  0  0  0
   28.8122  -21.0135   -6.9816 C   0  0  0  0  0  0  0  0  0  0  0  0
   27.2446  -20.6001   -8.8002 C   0  0  0  0  0  0  0  0  0  0  0  0
   25.8310  -20.1480   -9.1647 C   0  0  2  0  0  0  0  0  0  0  0  0
   24.8909  -20.8707   -8.3490 N   0  0  0  0  0  0  0  0  0  0  0  0
   25.6620  -20.4198  -10.6084 C   0  0  0  0  0  0  0  0  0  0  0  0
   26.6272  -20.1357  -11.3638 O   0  0  0  0  0  0  0  0  0  0  0  0
   24.4818  -20.9772  -11.1747 N   0  0  0  0  0  0  0  0  0  0  0  0
   24.3033  -21.1548  -12.6004 C   0  0  1  0  0  0  0  0  0  0  0  0
   23.8567  -22.5375  -12.9537 C   0  0  0  0  0  0  0  0  0  0  0  0
   24.8585  -23.3298  -13.6652 C   0  0  0  0  0  0  0  0  0  0  0  0
   25.9537  -22.8664  -14.0074 O   0  0  0  0  0  0  0  0  0  0  0  0
   23.4440  -20.0967  -13.1830 C   0  0  0  0  0  0  0  0  0  0  0  0
   22.6858  -19.4647  -12.4029 O   0  0  0  0  0  0  0  0  0  0  0  0
   24.5677  -24.6524  -13.9674 O   0  0  0  0  0  0  0  0  0  0  0  0
   22.0895  -17.1401  -16.8671 C   0  0  0  0  0  0  0  0  0  0  0  0
   22.9721  -18.2958  -16.4579 C   0  0  1  0  0  0  0  0  0  0  0  0
   24.2746  -17.8544  -16.4472 O   0  0  0  0  0  0  0  0  0  0  0  0
   22.5299  -18.7708  -15.0816 C   0  0  2  0  0  0  0  0  0  0  0  0
   23.4267  -19.7609  -14.5447 N   0  0  0  0  0  0  0  0  0  0  0  0
   21.1375  -19.2888  -15.1764 C   0  0  0  0  0  0  0  0  0  0  0  0
   20.0598  -18.5077  -14.7872 O   0  0  0  0  0  0  0  0  0  0  0  0
   20.8993  -20.4432  -15.6099 O   0  0  0  0  0  0  0  0  0  0  0  0
  2  4  1  0
  2  1  1  6
  3  2  1  0
  5  6  1  1
  5  4  1  0
  5  7  1  0
  7  8  2  0
  9  7  1  0
  9 10  1  0
 10 14  1  0
 10 11  1  1
 12 11  1  0
 13 12  2  0
 14 15  2  0
 16 12  1  0
 18 17  1  1
 18 19  1  0
 20 18  1  0
 21 14  1  0
 20 21  1  6
 22 20  1  0
 22 23  1  0
 24 22  2  0
M  END
$$$$
