LDT.pdb
     RDKit          3D

 24 23  0  0  1  0  0  0  0  0999 V2000
   37.5949  -13.2265   -9.0201 C   0  0  0  0  0  0  0  0  0  0  0  0
   37.5883  -12.8926   -7.5417 C   0  0  2  0  0  0  0  0  0  0  0  0
   36.2108  -13.0436   -6.9360 C   0  0  0  0  0  0  0  0  0  0  0  0
   37.9865  -11.4398   -7.3947 C   0  0  0  0  0  0  0  0  0  0  0  0
   39.3395  -11.2219   -8.0710 C   0  0  2  0  0  0  0  0  0  0  0  0
   40.3364  -11.9819   -7.3639 N   0  0  0  0  0  0  0  0  0  0  0  0
   39.5982   -9.7664   -8.0341 C   0  0  0  0  0  0  0  0  0  0  0  0
   38.9148   -9.0811   -7.2301 O   0  0  0  0  0  0  0  0  0  0  0  0
   40.5653   -9.1147   -8.8491 N   0  0  0  0  0  0  0  0  0  0  0  0
   40.8446   -7.6974   -8.7550 C   0  0  1  0  0  0  0  0  0  0  0  0
   42.1292   -7.3213   -9.4220 C   0  0  0  0  0  0  0  0  0  0  0  0
   43.3005   -8.0359   -8.9172 C   0  0  0  0  0  0  0  0  0  0  0  0
   44.1711   -8.4994   -9.6646 O   0  0  0  0  0  0  0  0  0  0  0  0
   39.6926   -6.8790   -9.2027 C   0  0  0  0  0  0  0  0  0  0  0  0
   39.2533   -7.0754  -10.3652 O   0  0  0  0  0  0  0  0  0  0  0  0
   43.4394   -8.1993   -7.5464 O   0  0  0  0  0  0  0  0  0  0  0  0
   36.5657   -5.8144   -6.8922 C   0  0  0  0  0  0  0  0  0  0  0  0
   37.0938   -4.6425   -7.6859 C   0  0  1  0  0  0  0  0  0  0  0  0
   37.8667   -3.8736   -6.8474 O   0  0  0  0  0  0  0  0  0  0  0  0
   37.9031   -5.1833   -8.8555 C   0  0  2  0  0  0  0  0  0  0  0  0
   39.0674   -5.9043   -8.4112 N   0  0  0  0  0  0  0  0  0  0  0  0
   38.2696   -4.0515   -9.7504 C   0  0  0  0  0  0  0  0  0  0  0  0
   37.2944   -3.3369  -10.4294 O   0  0  0  0  0  0  0  0  0  0  0  0
   39.4675   -3.7124   -9.9156 O   0  0  0  0  0  0  0  0  0  0  0  0
  2  4  1  0
  2  1  1  6
  3  2  1  0
  5  6  1  1
  5  4  1  0
  5  7  1  0
  7  8  2  0
  9  7  1  0
  9 10  1  0
 10 14  1  0
 10 11  1  6
 12 11  1  0
 13 12  2  0
 14 15  2  0
 16 12  1  0
 18 17  1  1
 18 19  1  0
 20 18  1  0
 21 14  1  0
 20 21  1  1
 22 20  1  0
 22 23  1  0
 24 22  2  0
M  END
$$$$
