LDT.pdb
     RDKit          3D

 24 23  0  0  1  0  0  0  0  0999 V2000
   15.1904  -11.3444  -17.3529 C   0  0  0  0  0  0  0  0  0  0  0  0
   15.3759  -12.3923  -16.2737 C   0  0  2  0  0  0  0  0  0  0  0  0
   14.0681  -12.7473  -15.6022 C   0  0  0  0  0  0  0  0  0  0  0  0
   16.2811  -11.8063  -15.2118 C   0  0  0  0  0  0  0  0  0  0  0  0
   17.6532  -11.5266  -15.8240 C   0  0  2  0  0  0  0  0  0  0  0  0
   18.3650  -12.7712  -15.9489 N   0  0  0  0  0  0  0  0  0  0  0  0
   18.3290  -10.5700  -14.9212 C   0  0  0  0  0  0  0  0  0  0  0  0
   18.9044  -11.0441  -13.9077 O   0  0  0  0  0  0  0  0  0  0  0  0
   18.3597   -9.1644  -15.1392 N   0  0  0  0  0  0  0  0  0  0  0  0
   18.9886   -8.2407  -14.2189 C   0  0  1  0  0  0  0  0  0  0  0  0
   20.0760   -7.4415  -14.8633 C   0  0  0  0  0  0  0  0  0  0  0  0
   20.7565   -6.5143  -13.9607 C   0  0  0  0  0  0  0  0  0  0  0  0
   21.0245   -6.8028  -12.7876 O   0  0  0  0  0  0  0  0  0  0  0  0
   17.9902   -7.4044  -13.5110 C   0  0  0  0  0  0  0  0  0  0  0  0
   17.0005   -6.9930  -14.1699 O   0  0  0  0  0  0  0  0  0  0  0  0
   21.1148   -5.2626  -14.4404 O   0  0  0  0  0  0  0  0  0  0  0  0
   16.2867   -5.1798   -9.4438 C   0  0  0  0  0  0  0  0  0  0  0  0
   17.3089   -6.1320  -10.0187 C   0  0  1  0  0  0  0  0  0  0  0  0
   17.0935   -7.3729   -9.4662 O   0  0  0  0  0  0  0  0  0  0  0  0
   17.1429   -6.1552  -11.5311 C   0  0  2  0  0  0  0  0  0  0  0  0
   18.0836   -7.0468  -12.1579 N   0  0  0  0  0  0  0  0  0  0  0  0
   17.2764   -4.7666  -12.0505 C   0  0  0  0  0  0  0  0  0  0  0  0
   16.1975   -3.8956  -12.0381 O   0  0  0  0  0  0  0  0  0  0  0  0
   18.3653   -4.3453  -12.5131 O   0  0  0  0  0  0  0  0  0  0  0  0
  2  4  1  0
  2  1  1  6
  3  2  1  0
  5  6  1  1
  5  4  1  0
  5  7  1  0
  7  8  2  0
  9  7  1  0
  9 10  1  0
 10 14  1  0
 10 11  1  6
 12 11  1  0
 13 12  2  0
 14 15  2  0
 16 12  1  0
 18 17  1  1
 18 19  1  0
 20 18  1  0
 21 14  1  0
 20 21  1  6
 22 20  1  0
 22 23  1  0
 24 22  2  0
M  END
$$$$
