RAL.pdb
     RDKit          3D

 25 24  0  0  1  0  0  0  0  0999 V2000
   30.1901  -23.7459  -18.0187 N   0  0  0  0  0  0  0  0  0  0  0  0
   29.0838  -23.8572  -17.1547 C   0  0  0  0  0  0  0  0  0  0  0  0
   28.7722  -25.0104  -16.6881 N   0  0  0  0  0  0  0  0  0  0  0  0
   28.3220  -22.7066  -16.8042 N   0  0  0  0  0  0  0  0  0  0  0  0
   28.6999  -21.4124  -17.3420 C   0  0  0  0  0  0  0  0  0  0  0  0
   29.0553  -20.5202  -16.2043 C   0  0  0  0  0  0  0  0  0  0  0  0
   28.0999  -19.4191  -15.9120 C   0  0  0  0  0  0  0  0  0  0  0  0
   26.9953  -19.2212  -16.8907 C   0  0  2  0  0  0  0  0  0  0  0  0
   27.2186  -18.2269  -17.8924 N   0  0  0  0  0  0  0  0  0  0  0  0
   25.7828  -18.8401  -16.1219 C   0  0  0  0  0  0  0  0  0  0  0  0
   25.8852  -17.9909  -15.2072 O   0  0  0  0  0  0  0  0  0  0  0  0
   27.9884  -25.2042  -16.0499 C   0  0  0  0  0  0  0  0  0  0  0  0
   22.1464  -18.7617  -16.3603 C   0  0  1  0  0  0  0  0  0  0  0  0
   23.3750  -19.0365  -15.5038 N   0  0  0  0  0  0  0  0  0  0  0  0
   24.5036  -19.3958  -16.3754 C   0  0  0  0  0  0  0  0  0  0  0  0
   23.1134  -20.2103  -14.6186 O   0  0  0  0  0  0  0  0  0  0  0  0
   23.1349  -21.3841  -15.0581 C   0  0  0  0  0  0  0  0  0  0  0  0
   25.3693  -20.3440   -9.8775 C   0  0  1  0  0  0  0  0  0  0  0  0
   24.6715  -20.7374  -11.1605 C   0  0  0  0  0  0  0  0  0  0  0  0
   24.9864  -22.2065  -11.4203 C   0  0  0  0  0  0  0  0  0  0  0  0
   23.1919  -20.6289  -11.0176 C   0  0  2  0  0  0  0  0  0  0  0  0
   22.5116  -21.0027  -12.2955 N   0  0  0  0  0  0  0  0  0  0  0  0
   22.8390  -19.9596  -13.2603 C   0  0  0  0  0  0  0  0  0  0  0  0
   21.0643  -21.1891  -12.2159 O   0  0  0  0  0  0  0  0  0  0  0  0
   20.4547  -22.3565  -11.7872 O   0  0  0  0  0  0  0  0  0  0  0  0
  1  2  1  0
  2  4  1  0
  2  3  2  0
  4  5  1  0
  6  5  1  0
  6  7  1  0
  7  8  1  0
  8  9  1  6
 10 11  2  0
 10  8  1  0
 13 12  1  6
 13 14  1  0
 13 15  1  0
 14 10  1  0
 15 22  1  0
 16 15  2  0
 18 20  1  0
 18 17  1  6
 19 18  1  0
 21 20  1  6
 21 23  1  0
 22 21  1  0
 23 25  2  0
 23 24  1  0
M  END
$$$$
