RAL.pdb
     RDKit          3D

 25 24  0  0  1  0  0  0  0  0999 V2000
   21.4264  -19.1993  -14.7148 N   0  0  0  0  0  0  0  0  0  0  0  0
   21.5090  -20.5669  -15.0399 C   0  0  0  0  0  0  0  0  0  0  0  0
   20.7781  -21.4040  -14.3998 N   0  0  0  0  0  0  0  0  0  0  0  0
   22.3910  -21.0142  -16.0642 N   0  0  0  0  0  0  0  0  0  0  0  0
   23.2744  -20.0598  -16.7090 C   0  0  0  0  0  0  0  0  0  0  0  0
   24.6631  -20.5929  -16.6456 C   0  0  0  0  0  0  0  0  0  0  0  0
   25.6564  -19.7499  -15.9291 C   0  0  0  0  0  0  0  0  0  0  0  0
   26.3988  -20.4009  -14.8145 C   0  0  2  0  0  0  0  0  0  0  0  0
   26.3312  -21.8274  -14.7677 N   0  0  0  0  0  0  0  0  0  0  0  0
   25.8469  -19.8690  -13.5420 C   0  0  0  0  0  0  0  0  0  0  0  0
   25.9041  -18.6373  -13.3227 O   0  0  0  0  0  0  0  0  0  0  0  0
   20.7188  -22.4134  -14.5916 C   0  0  0  0  0  0  0  0  0  0  0  0
   23.2928  -20.3286  -11.1471 C   0  0  2  0  0  0  0  0  0  0  0  0
   24.7902  -20.0947  -11.2947 N   0  0  0  0  0  0  0  0  0  0  0  0
   25.2531  -20.6949  -12.5548 C   0  0  0  0  0  0  0  0  0  0  0  0
   25.5145  -20.7864  -10.1872 O   0  0  0  0  0  0  0  0  0  0  0  0
   25.9673  -21.9477  -10.3208 C   0  0  0  0  0  0  0  0  0  0  0  0
   28.5022  -18.2855   -6.6026 C   0  0  1  0  0  0  0  0  0  0  0  0
   27.8148  -19.3452   -7.4348 C   0  0  0  0  0  0  0  0  0  0  0  0
   28.7356  -20.5597   -7.4797 C   0  0  0  0  0  0  0  0  0  0  0  0
   26.5443  -19.7864   -6.7926 C   0  0  2  0  0  0  0  0  0  0  0  0
   25.8129  -20.7440   -7.6780 N   0  0  0  0  0  0  0  0  0  0  0  0
   25.6776  -20.0899   -8.9742 C   0  0  0  0  0  0  0  0  0  0  0  0
   24.5089  -21.1914   -7.1928 O   0  0  0  0  0  0  0  0  0  0  0  0
   23.3003  -20.6677   -7.6208 O   0  0  0  0  0  0  0  0  0  0  0  0
  1  2  1  0
  2  4  1  0
  2  3  2  0
  4  5  1  0
  6  5  1  0
  6  7  1  0
  7  8  1  0
  8  9  1  1
 10 11  2  0
 10  8  1  0
 13 12  1  6
 13 14  1  0
 13 15  1  0
 14 10  1  0
 15 22  1  0
 16 15  2  0
 18 20  1  0
 18 17  1  6
 19 18  1  0
 21 20  1  6
 21 23  1  0
 22 21  1  0
 23 25  2  0
 23 24  1  0
M  END
$$$$
