RAL.pdb
     RDKit          3D

 25 24  0  0  1  0  0  0  0  0999 V2000
   28.6174  -21.3440  -12.0441 N   0  0  0  0  0  0  0  0  0  0  0  0
   27.6677  -20.9205  -11.0946 C   0  0  0  0  0  0  0  0  0  0  0  0
   27.6547  -21.4741   -9.9378 N   0  0  0  0  0  0  0  0  0  0  0  0
   26.7354  -19.8929  -11.4138 N   0  0  0  0  0  0  0  0  0  0  0  0
   26.9377  -19.0951  -12.6094 C   0  0  0  0  0  0  0  0  0  0  0  0
   26.4882  -19.8923  -13.7838 C   0  0  0  0  0  0  0  0  0  0  0  0
   25.2233  -19.4518  -14.4292 C   0  0  0  0  0  0  0  0  0  0  0  0
   25.3590  -18.6185  -15.6559 C   0  0  2  0  0  0  0  0  0  0  0  0
   26.3360  -17.5775  -15.5993 N   0  0  0  0  0  0  0  0  0  0  0  0
   24.0356  -17.9980  -15.9206 C   0  0  0  0  0  0  0  0  0  0  0  0
   23.7649  -16.8952  -15.3924 O   0  0  0  0  0  0  0  0  0  0  0  0
   27.0552  -21.1949   -9.1492 C   0  0  0  0  0  0  0  0  0  0  0  0
   21.2034  -18.0352  -18.2372 C   0  0  1  0  0  0  0  0  0  0  0  0
   21.7017  -18.0253  -16.7984 N   0  0  0  0  0  0  0  0  0  0  0  0
   23.0551  -18.5985  -16.7497 C   0  0  0  0  0  0  0  0  0  0  0  0
   20.8255  -18.8977  -15.9612 O   0  0  0  0  0  0  0  0  0  0  0  0
   20.9264  -20.1470  -15.9830 C   0  0  0  0  0  0  0  0  0  0  0  0
   20.4498  -18.4751  -10.8147 C   0  0  1  0  0  0  0  0  0  0  0  0
   20.3619  -18.9230  -12.2569 C   0  0  0  0  0  0  0  0  0  0  0  0
   20.2740  -20.4452  -12.2583 C   0  0  0  0  0  0  0  0  0  0  0  0
   19.1159  -18.4151  -12.8978 C   0  0  2  0  0  0  0  0  0  0  0  0
   18.9539  -18.9967  -14.2658 N   0  0  0  0  0  0  0  0  0  0  0  0
   19.8716  -18.2712  -15.1362 C   0  0  0  0  0  0  0  0  0  0  0  0
   17.5994  -18.9682  -14.8139 O   0  0  0  0  0  0  0  0  0  0  0  0
   16.5920  -19.8413  -14.4385 O   0  0  0  0  0  0  0  0  0  0  0  0
  1  2  1  0
  2  4  1  0
  2  3  2  0
  4  5  1  0
  6  5  1  0
  6  7  1  0
  7  8  1  0
  8  9  1  1
 10 11  2  0
 10  8  1  0
 13 12  1  6
 13 14  1  0
 13 15  1  0
 14 10  1  0
 15 22  1  0
 16 15  2  0
 18 20  1  0
 18 17  1  6
 19 18  1  0
 21 20  1  1
 21 23  1  0
 22 21  1  0
 23 25  2  0
 23 24  1  0
M  END
$$$$
