RAL.pdb
     RDKit          3D

 25 24  0  0  1  0  0  0  0  0999 V2000
   20.2261  -20.9104  -18.3209 N   0  0  0  0  0  0  0  0  0  0  0  0
   20.2425  -22.3094  -18.4797 C   0  0  0  0  0  0  0  0  0  0  0  0
   19.6853  -22.8249  -19.5134 N   0  0  0  0  0  0  0  0  0  0  0  0
   20.8682  -23.1398  -17.5071 N   0  0  0  0  0  0  0  0  0  0  0  0
   21.4123  -22.5390  -16.3029 C   0  0  0  0  0  0  0  0  0  0  0  0
   22.8211  -22.1419  -16.5751 C   0  0  0  0  0  0  0  0  0  0  0  0
   23.8050  -22.4397  -15.5010 C   0  0  0  0  0  0  0  0  0  0  0  0
   23.3390  -22.2426  -14.1005 C   0  0  2  0  0  0  0  0  0  0  0  0
   22.2444  -21.3406  -13.9271 N   0  0  0  0  0  0  0  0  0  0  0  0
   24.4914  -21.7288  -13.3165 C   0  0  0  0  0  0  0  0  0  0  0  0
   25.5692  -22.3662  -13.3318 O   0  0  0  0  0  0  0  0  0  0  0  0
   19.6152  -23.8319  -19.7139 C   0  0  0  0  0  0  0  0  0  0  0  0
   25.6771  -18.6540  -11.6275 C   0  0  2  0  0  0  0  0  0  0  0  0
   25.5733  -20.1715  -11.6971 N   0  0  0  0  0  0  0  0  0  0  0  0
   24.4301  -20.5413  -12.5449 C   0  0  0  0  0  0  0  0  0  0  0  0
   25.3024  -20.7159  -10.3333 O   0  0  0  0  0  0  0  0  0  0  0  0
   24.1957  -21.2236  -10.0349 C   0  0  0  0  0  0  0  0  0  0  0  0
   28.7888  -18.5266   -6.7755 C   0  0  2  0  0  0  0  0  0  0  0  0
   28.1991  -19.6985   -7.5284 C   0  0  0  0  0  0  0  0  0  0  0  0
   28.9384  -20.9523   -7.0743 C   0  0  0  0  0  0  0  0  0  0  0  0
   26.7632  -19.8895   -7.1774 C   0  0  2  0  0  0  0  0  0  0  0  0
   26.1705  -21.0050   -7.9776 N   0  0  0  0  0  0  0  0  0  0  0  0
   26.3365  -20.6431   -9.3802 C   0  0  0  0  0  0  0  0  0  0  0  0
   24.7721  -21.3200   -7.6930 O   0  0  0  0  0  0  0  0  0  0  0  0
   23.7022  -20.5432   -8.1056 O   0  0  0  0  0  0  0  0  0  0  0  0
  1  2  1  0
  2  4  1  0
  2  3  2  0
  4  5  1  0
  6  5  1  0
  6  7  1  0
  7  8  1  0
  8  9  1  6
 10 11  2  0
 10  8  1  0
 13 12  1  6
 13 14  1  0
 13 15  1  0
 14 10  1  0
 15 22  1  0
 16 15  2  0
 18 20  1  0
 18 17  1  6
 19 18  1  0
 21 20  1  6
 21 23  1  0
 22 21  1  0
 23 25  2  0
 23 24  1  0
M  END
$$$$
