RAL.pdb
     RDKit          3D

 25 24  0  0  1  0  0  0  0  0999 V2000
   19.1809  -24.5706   -7.7647 N   0  0  0  0  0  0  0  0  0  0  0  0
   18.0937  -25.1359   -8.4585 C   0  0  0  0  0  0  0  0  0  0  0  0
   18.3117  -25.7490   -9.5636 N   0  0  0  0  0  0  0  0  0  0  0  0
   16.7716  -25.0285   -7.9410 N   0  0  0  0  0  0  0  0  0  0  0  0
   16.5700  -24.4772   -6.6134 C   0  0  0  0  0  0  0  0  0  0  0  0
   17.0126  -25.4897   -5.6156 C   0  0  0  0  0  0  0  0  0  0  0  0
   16.8473  -25.1165   -4.1860 C   0  0  0  0  0  0  0  0  0  0  0  0
   15.4491  -25.0143   -3.6839 C   0  0  2  0  0  0  0  0  0  0  0  0
   14.7945  -23.7641   -3.9080 N   0  0  0  0  0  0  0  0  0  0  0  0
   15.4829  -25.2637   -2.2199 C   0  0  0  0  0  0  0  0  0  0  0  0
   15.5772  -24.2889   -1.4394 O   0  0  0  0  0  0  0  0  0  0  0  0
   17.5896  -26.1619  -10.1696 C   0  0  0  0  0  0  0  0  0  0  0  0
   14.7901  -28.0730    0.1563 C   0  0  1  0  0  0  0  0  0  0  0  0
   15.3862  -26.7167   -0.1957 N   0  0  0  0  0  0  0  0  0  0  0  0
   15.4128  -26.5631   -1.6580 C   0  0  0  0  0  0  0  0  0  0  0  0
   16.8011  -26.6559    0.2775 O   0  0  0  0  0  0  0  0  0  0  0  0
   17.7516  -27.0562   -0.4351 C   0  0  0  0  0  0  0  0  0  0  0  0
   20.9449  -24.7511    2.8783 C   0  0  2  0  0  0  0  0  0  0  0  0
   19.7043  -24.7733    3.7435 C   0  0  0  0  0  0  0  0  0  0  0  0
   19.6718  -23.4674    4.5299 C   0  0  0  0  0  0  0  0  0  0  0  0
   18.4714  -24.8075    2.9067 C   0  0  1  0  0  0  0  0  0  0  0  0
   18.3532  -26.1191    2.1984 N   0  0  0  0  0  0  0  0  0  0  0  0
   17.0416  -26.1298    1.5615 C   0  0  0  0  0  0  0  0  0  0  0  0
   18.5281  -27.3093    3.0283 O   0  0  0  0  0  0  0  0  0  0  0  0
   19.6586  -28.1092    3.0093 O   0  0  0  0  0  0  0  0  0  0  0  0
  1  2  1  0
  2  4  1  0
  2  3  2  0
  4  5  1  0
  6  5  1  0
  6  7  1  0
  7  8  1  0
  8  9  1  1
 10 11  2  0
 10  8  1  0
 13 12  1  1
 13 14  1  0
 13 15  1  0
 14 10  1  0
 15 22  1  0
 16 15  2  0
 18 20  1  0
 18 17  1  1
 19 18  1  0
 21 20  1  6
 21 23  1  0
 22 21  1  0
 23 25  2  0
 23 24  1  0
M  END
$$$$
