RAL.pdb
     RDKit          3D

 25 24  0  0  1  0  0  0  0  0999 V2000
   22.6571  -22.7072  -14.9914 N   0  0  0  0  0  0  0  0  0  0  0  0
   22.8546  -24.1013  -14.9769 C   0  0  0  0  0  0  0  0  0  0  0  0
   21.8320  -24.8749  -15.0005 N   0  0  0  0  0  0  0  0  0  0  0  0
   24.1701  -24.6444  -14.9365 N   0  0  0  0  0  0  0  0  0  0  0  0
   25.2855  -23.8425  -15.4054 C   0  0  0  0  0  0  0  0  0  0  0  0
   25.4075  -24.0286  -16.8775 C   0  0  0  0  0  0  0  0  0  0  0  0
   26.3173  -23.0882  -17.5835 C   0  0  0  0  0  0  0  0  0  0  0  0
   27.6506  -22.8607  -16.9606 C   0  0  2  0  0  0  0  0  0  0  0  0
   28.3158  -24.0243  -16.4653 N   0  0  0  0  0  0  0  0  0  0  0  0
   27.4573  -21.9199  -15.8274 C   0  0  0  0  0  0  0  0  0  0  0  0
   27.6844  -22.3177  -14.6618 O   0  0  0  0  0  0  0  0  0  0  0  0
   21.8572  -25.9002  -14.9149 C   0  0  0  0  0  0  0  0  0  0  0  0
   26.4890  -18.3130  -15.2772 C   0  0  1  0  0  0  0  0  0  0  0  0
   26.8297  -19.7258  -14.8225 N   0  0  0  0  0  0  0  0  0  0  0  0
   27.0245  -20.5815  -16.0024 C   0  0  0  0  0  0  0  0  0  0  0  0
   25.6818  -20.2927  -14.0540 O   0  0  0  0  0  0  0  0  0  0  0  0
   24.7922  -20.9791  -14.6099 C   0  0  0  0  0  0  0  0  0  0  0  0
   26.7331  -20.1743   -8.7134 C   0  0  2  0  0  0  0  0  0  0  0  0
   26.3079  -20.6034  -10.1001 C   0  0  0  0  0  0  0  0  0  0  0  0
   26.2562  -22.1272  -10.1115 C   0  0  0  0  0  0  0  0  0  0  0  0
   24.9325  -20.1196  -10.4096 C   0  0  2  0  0  0  0  0  0  0  0  0
   24.5461  -20.4921  -11.8052 N   0  0  0  0  0  0  0  0  0  0  0  0
   25.6254  -20.0327  -12.6712 C   0  0  0  0  0  0  0  0  0  0  0  0
   23.2615  -19.9732  -12.2705 O   0  0  0  0  0  0  0  0  0  0  0  0
   22.0358  -20.5302  -11.9452 O   0  0  0  0  0  0  0  0  0  0  0  0
  1  2  1  0
  2  4  1  0
  2  3  2  0
  4  5  1  0
  6  5  1  0
  6  7  1  0
  7  8  1  0
  8  9  1  1
 10 11  2  0
 10  8  1  0
 13 12  1  6
 13 14  1  0
 13 15  1  0
 14 10  1  0
 15 22  1  0
 16 15  2  0
 18 20  1  0
 18 17  1  6
 19 18  1  0
 21 20  1  1
 21 23  1  0
 22 21  1  0
 23 25  2  0
 23 24  1  0
M  END
$$$$
