RAL.pdb
     RDKit          3D

 25 24  0  0  1  0  0  0  0  0999 V2000
   27.6465  -21.0944  -16.8020 N   0  0  0  0  0  0  0  0  0  0  0  0
   27.7638  -21.8175  -15.5994 C   0  0  0  0  0  0  0  0  0  0  0  0
   28.8898  -22.3556  -15.3041 N   0  0  0  0  0  0  0  0  0  0  0  0
   26.6488  -21.9496  -14.7239 N   0  0  0  0  0  0  0  0  0  0  0  0
   25.3931  -21.3086  -15.0695 C   0  0  0  0  0  0  0  0  0  0  0  0
   25.5307  -19.8475  -14.8190 C   0  0  0  0  0  0  0  0  0  0  0  0
   24.9020  -19.3342  -13.5734 C   0  0  0  0  0  0  0  0  0  0  0  0
   23.8466  -20.1883  -12.9617 C   0  0  2  0  0  0  0  0  0  0  0  0
   22.5121  -19.9538  -13.4155 N   0  0  0  0  0  0  0  0  0  0  0  0
   23.8839  -19.9593  -11.4945 C   0  0  0  0  0  0  0  0  0  0  0  0
   23.3208  -18.9448  -11.0233 O   0  0  0  0  0  0  0  0  0  0  0  0
   29.0993  -22.8617  -14.4329 C   0  0  0  0  0  0  0  0  0  0  0  0
   24.7373  -21.6800   -8.3103 C   0  0  1  0  0  0  0  0  0  0  0  0
   24.7084  -20.4377   -9.1903 N   0  0  0  0  0  0  0  0  0  0  0  0
   24.5318  -20.8410  -10.5934 C   0  0  0  0  0  0  0  0  0  0  0  0
   26.0207  -19.7312   -9.0988 O   0  0  0  0  0  0  0  0  0  0  0  0
   26.1262  -18.5048   -9.3361 C   0  0  0  0  0  0  0  0  0  0  0  0
   27.9737  -17.9292   -4.9140 C   0  0  2  0  0  0  0  0  0  0  0  0
   28.3330  -19.3055   -5.4285 C   0  0  0  0  0  0  0  0  0  0  0  0
   28.1625  -20.2848   -4.2723 C   0  0  0  0  0  0  0  0  0  0  0  0
   27.3940  -19.7346   -6.5035 C   0  0  1  0  0  0  0  0  0  0  0  0
   28.1414  -20.0458   -7.7607 N   0  0  0  0  0  0  0  0  0  0  0  0
   27.1500  -20.4891   -8.7337 C   0  0  0  0  0  0  0  0  0  0  0  0
   29.2129  -21.0319   -7.6373 O   0  0  0  0  0  0  0  0  0  0  0  0
   30.5523  -20.7089   -7.4960 O   0  0  0  0  0  0  0  0  0  0  0  0
  1  2  1  0
  2  4  1  0
  2  3  2  0
  4  5  1  0
  6  5  1  0
  6  7  1  0
  7  8  1  0
  8  9  1  6
 10 11  2  0
 10  8  1  0
 13 12  1  1
 13 14  1  0
 13 15  1  0
 14 10  1  0
 15 22  1  0
 16 15  2  0
 18 20  1  0
 18 17  1  1
 19 18  1  0
 21 20  1  6
 21 23  1  0
 22 21  1  0
 23 25  2  0
 23 24  1  0
M  END
$$$$
