RAL.pdb
     RDKit          3D

 25 24  0  0  1  0  0  0  0  0999 V2000
   19.0825  -23.1094  -13.7605 N   0  0  0  0  0  0  0  0  0  0  0  0
   19.0221  -21.7061  -13.6606 C   0  0  0  0  0  0  0  0  0  0  0  0
   17.9506  -21.1595  -13.2159 N   0  0  0  0  0  0  0  0  0  0  0  0
   20.1341  -20.9056  -14.0476 N   0  0  0  0  0  0  0  0  0  0  0  0
   21.3209  -21.5476  -14.5827 C   0  0  0  0  0  0  0  0  0  0  0  0
   22.1818  -21.9627  -13.4412 C   0  0  0  0  0  0  0  0  0  0  0  0
   23.3476  -21.0878  -13.1478 C   0  0  0  0  0  0  0  0  0  0  0  0
   24.5926  -21.3603  -13.9178 C   0  0  2  0  0  0  0  0  0  0  0  0
   24.5416  -22.4703  -14.8161 N   0  0  0  0  0  0  0  0  0  0  0  0
   25.6780  -21.6096  -12.9347 C   0  0  0  0  0  0  0  0  0  0  0  0
   25.7656  -22.7384  -12.3995 O   0  0  0  0  0  0  0  0  0  0  0  0
   17.8120  -20.1503  -13.0693 C   0  0  0  0  0  0  0  0  0  0  0  0
   28.7450  -19.8854  -11.6033 C   0  0  1  0  0  0  0  0  0  0  0  0
   27.6511  -20.9440  -11.5630 N   0  0  0  0  0  0  0  0  0  0  0  0
   26.6281  -20.6231  -12.5694 C   0  0  0  0  0  0  0  0  0  0  0  0
   26.9790  -20.9160  -10.2299 O   0  0  0  0  0  0  0  0  0  0  0  0
   25.8314  -20.4342  -10.0811 C   0  0  0  0  0  0  0  0  0  0  0  0
   27.8909  -21.1937   -4.7802 C   0  0  2  0  0  0  0  0  0  0  0  0
   27.8206  -20.0149   -5.7254 C   0  0  0  0  0  0  0  0  0  0  0  0
   28.8014  -18.9633   -5.2185 C   0  0  0  0  0  0  0  0  0  0  0  0
   28.2668  -20.4015   -7.0939 C   0  0  1  0  0  0  0  0  0  0  0  0
   27.2548  -21.2887   -7.7455 N   0  0  0  0  0  0  0  0  0  0  0  0
   27.6778  -21.4525   -9.1312 C   0  0  0  0  0  0  0  0  0  0  0  0
   25.8696  -20.8266   -7.6853 O   0  0  0  0  0  0  0  0  0  0  0  0
   24.8187  -21.5862   -7.1986 O   0  0  0  0  0  0  0  0  0  0  0  0
  1  2  1  0
  2  4  1  0
  2  3  2  0
  4  5  1  0
  6  5  1  0
  6  7  1  0
  7  8  1  0
  8  9  1  6
 10 11  2  0
 10  8  1  0
 13 12  1  6
 13 14  1  0
 13 15  1  0
 14 10  1  0
 15 22  1  0
 16 15  2  0
 18 20  1  0
 18 17  1  1
 19 18  1  0
 21 20  1  1
 21 23  1  0
 22 21  1  0
 23 25  2  0
 23 24  1  0
M  END
$$$$
