RAL.pdb
     RDKit          3D

 25 24  0  0  1  0  0  0  0  0999 V2000
   27.2470  -19.0348  -19.1924 N   0  0  0  0  0  0  0  0  0  0  0  0
   28.3429  -18.6256  -18.4085 C   0  0  0  0  0  0  0  0  0  0  0  0
   28.8447  -17.4610  -18.6001 N   0  0  0  0  0  0  0  0  0  0  0  0
   28.8862  -19.4918  -17.4177 N   0  0  0  0  0  0  0  0  0  0  0  0
   28.0140  -20.0358  -16.3928 C   0  0  0  0  0  0  0  0  0  0  0  0
   27.3335  -18.9017  -15.7092 C   0  0  0  0  0  0  0  0  0  0  0  0
   27.5179  -18.8188  -14.2362 C   0  0  0  0  0  0  0  0  0  0  0  0
   27.3700  -20.0906  -13.4759 C   0  0  2  0  0  0  0  0  0  0  0  0
   26.5912  -21.1089  -14.1069 N   0  0  0  0  0  0  0  0  0  0  0  0
   26.7335  -19.7597  -12.1752 C   0  0  0  0  0  0  0  0  0  0  0  0
   27.0638  -18.7039  -11.5882 O   0  0  0  0  0  0  0  0  0  0  0  0
   29.6500  -17.0676  -18.0945 C   0  0  0  0  0  0  0  0  0  0  0  0
   23.8204  -20.8302  -10.1001 C   0  0  2  0  0  0  0  0  0  0  0  0
   25.1943  -20.1939  -10.2620 N   0  0  0  0  0  0  0  0  0  0  0  0
   25.7616  -20.5881  -11.5602 C   0  0  0  0  0  0  0  0  0  0  0  0
   26.1124  -20.7143   -9.2057 O   0  0  0  0  0  0  0  0  0  0  0  0
   26.6022  -21.8666   -9.2683 C   0  0  0  0  0  0  0  0  0  0  0  0
   29.6136  -20.3635   -5.2245 C   0  0  2  0  0  0  0  0  0  0  0  0
   28.3917  -19.4976   -5.0117 C   0  0  0  0  0  0  0  0  0  0  0  0
   28.8604  -18.1942   -4.3743 C   0  0  0  0  0  0  0  0  0  0  0  0
   27.7575  -19.1417   -6.3127 C   0  0  1  0  0  0  0  0  0  0  0  0
   27.0420  -20.3215   -6.8887 N   0  0  0  0  0  0  0  0  0  0  0  0
   26.4173  -19.8650   -8.1246 C   0  0  0  0  0  0  0  0  0  0  0  0
   26.0521  -20.9533   -6.0187 O   0  0  0  0  0  0  0  0  0  0  0  0
   24.6826  -20.8202   -6.1768 O   0  0  0  0  0  0  0  0  0  0  0  0
  1  2  1  0
  2  4  1  0
  2  3  2  0
  4  5  1  0
  6  5  1  0
  6  7  1  0
  7  8  1  0
  8  9  1  6
 10 11  2  0
 10  8  1  0
 13 12  1  6
 13 14  1  0
 13 15  1  0
 14 10  1  0
 15 22  1  0
 16 15  2  0
 18 20  1  0
 18 17  1  1
 19 18  1  0
 21 20  1  6
 21 23  1  0
 22 21  1  0
 23 25  2  0
 23 24  1  0
M  END
$$$$
