RAL.pdb
     RDKit          3D

 25 24  0  0  1  0  0  0  0  0999 V2000
   30.5538  -22.1999   -9.9970 N   0  0  0  0  0  0  0  0  0  0  0  0
   31.5321  -21.6579  -10.8526 C   0  0  0  0  0  0  0  0  0  0  0  0
   32.7151  -21.4599  -10.3987 N   0  0  0  0  0  0  0  0  0  0  0  0
   31.2128  -21.3342  -12.2018 N   0  0  0  0  0  0  0  0  0  0  0  0
   29.8963  -21.6600  -12.7192 C   0  0  0  0  0  0  0  0  0  0  0  0
   29.1986  -20.3881  -13.0539 C   0  0  0  0  0  0  0  0  0  0  0  0
   27.7126  -20.4347  -13.0479 C   0  0  0  0  0  0  0  0  0  0  0  0
   27.0905  -21.7866  -13.1001 C   0  0  2  0  0  0  0  0  0  0  0  0
   27.1157  -22.4375  -14.3719 N   0  0  0  0  0  0  0  0  0  0  0  0
   25.6725  -21.6402  -12.6825 C   0  0  0  0  0  0  0  0  0  0  0  0
   24.7672  -21.8470  -13.5228 O   0  0  0  0  0  0  0  0  0  0  0  0
   33.5082  -21.0906  -10.9406 C   0  0  0  0  0  0  0  0  0  0  0  0
   23.7128  -20.8278   -9.5590 C   0  0  1  0  0  0  0  0  0  0  0  0
   23.8630  -21.1359  -11.0427 N   0  0  0  0  0  0  0  0  0  0  0  0
   25.2905  -21.2745  -11.3674 C   0  0  0  0  0  0  0  0  0  0  0  0
   23.3397  -19.9905  -11.8452 O   0  0  0  0  0  0  0  0  0  0  0  0
   24.0962  -19.0889  -12.2767 C   0  0  0  0  0  0  0  0  0  0  0  0
   20.9304  -19.8492  -16.3812 C   0  0  2  0  0  0  0  0  0  0  0  0
   22.2499  -19.5155  -15.7210 C   0  0  0  0  0  0  0  0  0  0  0  0
   22.2427  -18.0220  -15.4142 C   0  0  0  0  0  0  0  0  0  0  0  0
   22.3890  -20.2262  -14.4184 C   0  0  2  0  0  0  0  0  0  0  0  0
   21.3911  -19.7127  -13.4303 N   0  0  0  0  0  0  0  0  0  0  0  0
   21.9567  -19.9506  -12.1077 C   0  0  0  0  0  0  0  0  0  0  0  0
   20.0498  -20.2855  -13.5232 O   0  0  0  0  0  0  0  0  0  0  0  0
   19.7751  -21.6390  -13.4184 O   0  0  0  0  0  0  0  0  0  0  0  0
  1  2  1  0
  2  4  1  0
  2  3  2  0
  4  5  1  0
  6  5  1  0
  6  7  1  0
  7  8  1  0
  8  9  1  6
 10 11  2  0
 10  8  1  0
 13 12  1  1
 13 14  1  0
 13 15  1  0
 14 10  1  0
 15 22  1  0
 16 15  2  0
 18 20  1  0
 18 17  1  6
 19 18  1  0
 21 20  1  6
 21 23  1  0
 22 21  1  0
 23 25  2  0
 23 24  1  0
M  END
$$$$
