RAL.pdb
     RDKit          3D

 25 24  0  0  1  0  0  0  0  0999 V2000
   29.3746  -25.7684  -16.5803 N   0  0  0  0  0  0  0  0  0  0  0  0
   27.9900  -26.0177  -16.5196 C   0  0  0  0  0  0  0  0  0  0  0  0
   27.1747  -25.0369  -16.6541 N   0  0  0  0  0  0  0  0  0  0  0  0
   27.5021  -27.3390  -16.3118 N   0  0  0  0  0  0  0  0  0  0  0  0
   28.4195  -28.4596  -16.4093 C   0  0  0  0  0  0  0  0  0  0  0  0
   27.8785  -29.4198  -17.4103 C   0  0  0  0  0  0  0  0  0  0  0  0
   26.9902  -30.4877  -16.8803 C   0  0  0  0  0  0  0  0  0  0  0  0
   27.6385  -31.5381  -16.0475 C   0  0  2  0  0  0  0  0  0  0  0  0
   28.7444  -32.2164  -16.6465 N   0  0  0  0  0  0  0  0  0  0  0  0
   26.6000  -32.5474  -15.7168 C   0  0  0  0  0  0  0  0  0  0  0  0
   26.3751  -33.4758  -16.5267 O   0  0  0  0  0  0  0  0  0  0  0  0
   26.1482  -25.1106  -16.6598 C   0  0  0  0  0  0  0  0  0  0  0  0
   25.6100  -34.9020  -14.0866 C   0  0  2  0  0  0  0  0  0  0  0  0
   24.8718  -33.5797  -14.2452 N   0  0  0  0  0  0  0  0  0  0  0  0
   25.8442  -32.5109  -14.5182 C   0  0  0  0  0  0  0  0  0  0  0  0
   24.1878  -33.2337  -12.9637 O   0  0  0  0  0  0  0  0  0  0  0  0
   24.7732  -33.3257  -11.8591 C   0  0  0  0  0  0  0  0  0  0  0  0
   20.2780  -29.9951  -10.6589 C   0  0  2  0  0  0  0  0  0  0  0  0
   19.9458  -31.3487  -11.2465 C   0  0  0  0  0  0  0  0  0  0  0  0
   18.5432  -31.2586  -11.8379 C   0  0  0  0  0  0  0  0  0  0  0  0
   20.8692  -31.6846  -12.3672 C   0  0  1  0  0  0  0  0  0  0  0  0
   22.0577  -32.4378  -11.8610 N   0  0  0  0  0  0  0  0  0  0  0  0
   22.8512  -32.7953  -13.0308 C   0  0  0  0  0  0  0  0  0  0  0  0
   21.7658  -33.6244  -11.0594 O   0  0  0  0  0  0  0  0  0  0  0  0
   21.9630  -33.7040   -9.6908 O   0  0  0  0  0  0  0  0  0  0  0  0
  1  2  1  0
  2  4  1  0
  2  3  2  0
  4  5  1  0
  6  5  1  0
  6  7  1  0
  7  8  1  0
  8  9  1  6
 10 11  2  0
 10  8  1  0
 13 12  1  6
 13 14  1  0
 13 15  1  0
 14 10  1  0
 15 22  1  0
 16 15  2  0
 18 20  1  0
 18 17  1  1
 19 18  1  0
 21 20  1  1
 21 23  1  0
 22 21  1  0
 23 25  2  0
 23 24  1  0
M  END
$$$$
