RAL.pdb
     RDKit          3D

 25 24  0  0  1  0  0  0  0  0999 V2000
   22.9982  -20.9019   -8.9323 N   0  0  0  0  0  0  0  0  0  0  0  0
   24.3346  -20.6067   -8.6010 C   0  0  0  0  0  0  0  0  0  0  0  0
   24.8089  -21.0341   -7.4888 N   0  0  0  0  0  0  0  0  0  0  0  0
   25.1475  -19.8449   -9.4875 N   0  0  0  0  0  0  0  0  0  0  0  0
   24.9434  -19.9642  -10.9197 C   0  0  0  0  0  0  0  0  0  0  0  0
   26.2334  -20.3694  -11.5427 C   0  0  0  0  0  0  0  0  0  0  0  0
   26.2419  -20.4688  -13.0261 C   0  0  0  0  0  0  0  0  0  0  0  0
   25.1469  -21.2663  -13.6444 C   0  0  2  0  0  0  0  0  0  0  0  0
   25.4892  -22.5955  -14.0415 N   0  0  0  0  0  0  0  0  0  0  0  0
   24.6837  -20.5281  -14.8474 C   0  0  0  0  0  0  0  0  0  0  0  0
   25.4251  -20.4836  -15.8558 O   0  0  0  0  0  0  0  0  0  0  0  0
   25.7679  -20.8778   -7.1495 C   0  0  0  0  0  0  0  0  0  0  0  0
   21.5340  -18.9700  -16.1569 C   0  0  1  0  0  0  0  0  0  0  0  0
   23.0429  -19.1746  -16.1487 N   0  0  0  0  0  0  0  0  0  0  0  0
   23.4322  -19.8657  -14.9105 C   0  0  0  0  0  0  0  0  0  0  0  0
   23.7260  -17.8468  -16.1433 O   0  0  0  0  0  0  0  0  0  0  0  0
   23.6247  -17.0581  -15.1743 C   0  0  0  0  0  0  0  0  0  0  0  0
   28.5954  -17.5716  -16.4799 C   0  0  1  0  0  0  0  0  0  0  0  0
   27.1653  -17.1129  -16.3001 C   0  0  0  0  0  0  0  0  0  0  0  0
   27.1693  -16.0022  -15.2555 C   0  0  0  0  0  0  0  0  0  0  0  0
   26.6324  -16.5222  -17.5605 C   0  0  2  0  0  0  0  0  0  0  0  0
   25.1746  -16.2189  -17.4234 N   0  0  0  0  0  0  0  0  0  0  0  0
   24.4969  -17.5008  -17.2699 C   0  0  0  0  0  0  0  0  0  0  0  0
   24.5779  -15.4530  -18.5157 O   0  0  0  0  0  0  0  0  0  0  0  0
   24.6712  -14.0767  -18.6398 O   0  0  0  0  0  0  0  0  0  0  0  0
  1  2  1  0
  2  4  1  0
  2  3  2  0
  4  5  1  0
  6  5  1  0
  6  7  1  0
  7  8  1  0
  8  9  1  6
 10 11  2  0
 10  8  1  0
 13 12  1  6
 13 14  1  0
 13 15  1  0
 14 10  1  0
 15 22  1  0
 16 15  2  0
 18 20  1  0
 18 17  1  1
 19 18  1  0
 21 20  1  1
 21 23  1  0
 22 21  1  0
 23 25  2  0
 23 24  1  0
M  END
$$$$
