RAL.pdb
     RDKit          3D

 25 24  0  0  1  0  0  0  0  0999 V2000
   20.2161  -23.4346   -8.7074 N   0  0  0  0  0  0  0  0  0  0  0  0
   19.3715  -23.5548   -9.8277 C   0  0  0  0  0  0  0  0  0  0  0  0
   18.3393  -24.3120   -9.7504 N   0  0  0  0  0  0  0  0  0  0  0  0
   19.6590  -22.8463  -11.0287 N   0  0  0  0  0  0  0  0  0  0  0  0
   21.0329  -22.4901  -11.3330 C   0  0  0  0  0  0  0  0  0  0  0  0
   21.2877  -21.1214  -10.8053 C   0  0  0  0  0  0  0  0  0  0  0  0
   22.6127  -20.5302  -11.1301 C   0  0  0  0  0  0  0  0  0  0  0  0
   23.7846  -21.0841  -10.3972 C   0  0  2  0  0  0  0  0  0  0  0  0
   23.8381  -20.7994   -8.9980 N   0  0  0  0  0  0  0  0  0  0  0  0
   25.0082  -20.5286  -11.0302 C   0  0  0  0  0  0  0  0  0  0  0  0
   25.2968  -19.3246  -10.8416 O   0  0  0  0  0  0  0  0  0  0  0  0
   17.7057  -24.5385  -10.5290 C   0  0  0  0  0  0  0  0  0  0  0  0
   28.2005  -21.6110  -12.5130 C   0  0  1  0  0  0  0  0  0  0  0  0
   27.0173  -20.6526  -12.5019 N   0  0  0  0  0  0  0  0  0  0  0  0
   25.8732  -21.3017  -11.8446 C   0  0  0  0  0  0  0  0  0  0  0  0
   26.6050  -20.3532  -13.9055 O   0  0  0  0  0  0  0  0  0  0  0  0
   25.7313  -21.0326  -14.4942 C   0  0  0  0  0  0  0  0  0  0  0  0
   26.7796  -15.1490  -15.3386 C   0  0  1  0  0  0  0  0  0  0  0  0
   26.3899  -16.6085  -15.2631 C   0  0  0  0  0  0  0  0  0  0  0  0
   25.0093  -16.7464  -15.8955 C   0  0  0  0  0  0  0  0  0  0  0  0
   27.3214  -17.4513  -16.0652 C   0  0  2  0  0  0  0  0  0  0  0  0
   26.9618  -18.8973  -15.9401 N   0  0  0  0  0  0  0  0  0  0  0  0
   27.2314  -19.2736  -14.5574 C   0  0  0  0  0  0  0  0  0  0  0  0
   27.6446  -19.8054  -16.8593 O   0  0  0  0  0  0  0  0  0  0  0  0
   27.2822  -19.9860  -18.1838 O   0  0  0  0  0  0  0  0  0  0  0  0
  1  2  1  0
  2  4  1  0
  2  3  2  0
  4  5  1  0
  6  5  1  0
  6  7  1  0
  7  8  1  0
  8  9  1  1
 10 11  2  0
 10  8  1  0
 13 12  1  1
 13 14  1  0
 13 15  1  0
 14 10  1  0
 15 22  1  0
 16 15  2  0
 18 20  1  0
 18 17  1  1
 19 18  1  0
 21 20  1  1
 21 23  1  0
 22 21  1  0
 23 25  2  0
 23 24  1  0
M  END
$$$$
