RAL.pdb
     RDKit          3D

 25 24  0  0  1  0  0  0  0  0999 V2000
   22.5774  -26.9798  -14.6945 N   0  0  0  0  0  0  0  0  0  0  0  0
   22.3521  -26.0635  -15.7397 C   0  0  0  0  0  0  0  0  0  0  0  0
   21.1741  -25.5837  -15.9035 N   0  0  0  0  0  0  0  0  0  0  0  0
   23.4162  -25.6753  -16.6022 N   0  0  0  0  0  0  0  0  0  0  0  0
   24.7515  -26.1911  -16.3613 C   0  0  0  0  0  0  0  0  0  0  0  0
   25.7111  -25.0553  -16.4367 C   0  0  0  0  0  0  0  0  0  0  0  0
   25.5389  -24.1273  -17.5855 C   0  0  0  0  0  0  0  0  0  0  0  0
   26.5448  -23.0371  -17.7150 C   0  0  2  0  0  0  0  0  0  0  0  0
   27.9143  -23.4440  -17.6891 N   0  0  0  0  0  0  0  0  0  0  0  0
   26.3215  -22.0903  -16.5924 C   0  0  0  0  0  0  0  0  0  0  0  0
   27.1000  -22.1160  -15.6118 O   0  0  0  0  0  0  0  0  0  0  0  0
   20.9025  -24.9013  -16.6243 C   0  0  0  0  0  0  0  0  0  0  0  0
   24.2108  -19.0577  -15.8857 C   0  0  1  0  0  0  0  0  0  0  0  0
   25.1968  -20.1518  -15.4991 N   0  0  0  0  0  0  0  0  0  0  0  0
   25.2606  -21.1504  -16.5767 C   0  0  0  0  0  0  0  0  0  0  0  0
   24.7064  -20.8558  -14.2770 O   0  0  0  0  0  0  0  0  0  0  0  0
   23.9727  -21.8695  -14.3508 C   0  0  0  0  0  0  0  0  0  0  0  0
   26.0727  -20.3507   -8.2843 C   0  0  2  0  0  0  0  0  0  0  0  0
   25.0686  -20.7513   -9.3423 C   0  0  0  0  0  0  0  0  0  0  0  0
   23.7700  -20.0099   -9.0441 C   0  0  0  0  0  0  0  0  0  0  0  0
   25.5171  -20.3153  -10.6952 C   0  0  1  0  0  0  0  0  0  0  0  0
   24.6146  -20.8682  -11.7514 N   0  0  0  0  0  0  0  0  0  0  0  0
   25.0959  -20.3441  -13.0241 C   0  0  0  0  0  0  0  0  0  0  0  0
   23.1909  -20.5822  -11.5865 O   0  0  0  0  0  0  0  0  0  0  0  0
   22.2724  -21.4841  -11.0755 O   0  0  0  0  0  0  0  0  0  0  0  0
  1  2  1  0
  2  4  1  0
  2  3  2  0
  4  5  1  0
  6  5  1  0
  6  7  1  0
  7  8  1  0
  8  9  1  1
 10 11  2  0
 10  8  1  0
 13 12  1  6
 13 14  1  0
 13 15  1  0
 14 10  1  0
 15 22  1  0
 16 15  2  0
 18 20  1  0
 18 17  1  1
 19 18  1  0
 21 20  1  6
 21 23  1  0
 22 21  1  0
 23 25  2  0
 23 24  1  0
M  END
$$$$
