VNN.pdb
     RDKit          3D

 24 23  0  0  1  0  0  0  0  0999 V2000
   18.0929  -12.0570  -18.4142 C   0  0  0  0  0  0  0  0  0  0  0  0
   18.1922  -10.7662  -17.6434 C   0  0  2  0  0  0  0  0  0  0  0  0
   18.9316   -9.7664  -18.5083 C   0  0  0  0  0  0  0  0  0  0  0  0
   18.9877  -10.9247  -16.3635 C   0  0  2  0  0  0  0  0  0  0  0  0
   18.2890  -11.8948  -15.5432 N   0  0  0  0  0  0  0  0  0  0  0  0
   19.0957   -9.6347  -15.6257 C   0  0  0  0  0  0  0  0  0  0  0  0
   18.0757   -9.1337  -15.1048 O   0  0  0  0  0  0  0  0  0  0  0  0
   22.6127   -5.3162  -13.6238 N   0  0  0  0  0  0  0  0  0  0  0  0
   21.6159   -6.2729  -13.2575 C   0  0  0  0  0  0  0  0  0  0  0  0
   20.8087   -5.8825  -12.3782 O   0  0  0  0  0  0  0  0  0  0  0  0
   21.5833   -7.6082  -13.8978 C   0  0  0  0  0  0  0  0  0  0  0  0
   20.4884   -7.6365  -14.9038 C   0  0  2  0  0  0  0  0  0  0  0  0
   20.3140   -8.9327  -15.4803 N   0  0  0  0  0  0  0  0  0  0  0  0
   20.6134   -6.5691  -15.9294 C   0  0  0  0  0  0  0  0  0  0  0  0
   21.3335   -6.8035  -16.9290 O   0  0  0  0  0  0  0  0  0  0  0  0
   18.6155   -2.6504  -19.5295 N   0  0  0  0  0  0  0  0  0  0  0  0
   19.5834   -3.6424  -19.2340 C   0  0  0  0  0  0  0  0  0  0  0  0
   20.6103   -3.6308  -19.9961 O   0  0  0  0  0  0  0  0  0  0  0  0
   19.4065   -4.6077  -18.1295 C   0  0  0  0  0  0  0  0  0  0  0  0
   20.1797   -4.2794  -16.8920 C   0  0  2  0  0  0  0  0  0  0  0  0
   19.9776   -5.3069  -15.8584 N   0  0  0  0  0  0  0  0  0  0  0  0
   19.9199   -2.9337  -16.3664 C   0  0  0  0  0  0  0  0  0  0  0  0
   20.3881   -1.8288  -17.0391 O   0  0  0  0  0  0  0  0  0  0  0  0
   19.2744   -2.7700  -15.3068 O   0  0  0  0  0  0  0  0  0  0  0  0
  2  1  1  6
  2  4  1  0
  3  2  1  0
  4  6  1  0
  4  5  1  1
  6  7  2  0
  8  9  1  0
  9 11  1  0
 10  9  2  0
 12 11  1  6
 12 14  1  0
 13  6  1  0
 13 12  1  0
 14 21  1  0
 14 15  2  0
 17 19  1  0
 17 16  1  0
 18 17  2  0
 20 19  1  6
 20 22  1  0
 21 20  1  0
 22 24  2  0
 22 23  1  0
M  END
$$$$
