VNN.pdb
     RDKit          3D

 24 23  0  0  1  0  0  0  0  0999 V2000
   19.1632  -22.3880  -22.0304 C   0  0  0  0  0  0  0  0  0  0  0  0
   18.9011  -22.3041  -20.5491 C   0  0  2  0  0  0  0  0  0  0  0  0
   17.7703  -21.3194  -20.3342 C   0  0  0  0  0  0  0  0  0  0  0  0
   20.1007  -21.7809  -19.7852 C   0  0  2  0  0  0  0  0  0  0  0  0
   21.1766  -22.7344  -19.9737 N   0  0  0  0  0  0  0  0  0  0  0  0
   19.8044  -21.6459  -18.3313 C   0  0  0  0  0  0  0  0  0  0  0  0
   19.5729  -22.6684  -17.6503 O   0  0  0  0  0  0  0  0  0  0  0  0
   22.1653  -20.3329  -16.1136 N   0  0  0  0  0  0  0  0  0  0  0  0
   21.5655  -19.0972  -15.7185 C   0  0  0  0  0  0  0  0  0  0  0  0
   22.3755  -18.2161  -15.3382 O   0  0  0  0  0  0  0  0  0  0  0  0
   20.0956  -18.9230  -15.7732 C   0  0  0  0  0  0  0  0  0  0  0  0
   19.4781  -20.1751  -16.2858 C   0  0  2  0  0  0  0  0  0  0  0  0
   19.7700  -20.3985  -17.6670 N   0  0  0  0  0  0  0  0  0  0  0  0
   18.0259  -20.2716  -15.9877 C   0  0  0  0  0  0  0  0  0  0  0  0
   17.2349  -19.6528  -16.7388 O   0  0  0  0  0  0  0  0  0  0  0  0
   16.6324  -24.6302  -14.0484 N   0  0  0  0  0  0  0  0  0  0  0  0
   15.8634  -23.5769  -14.6029 C   0  0  0  0  0  0  0  0  0  0  0  0
   15.3661  -23.8271  -15.7543 O   0  0  0  0  0  0  0  0  0  0  0  0
   15.6606  -22.2958  -13.8952 C   0  0  0  0  0  0  0  0  0  0  0  0
   16.0193  -21.0842  -14.6953 C   0  0  2  0  0  0  0  0  0  0  0  0
   17.4721  -21.0121  -14.9165 N   0  0  0  0  0  0  0  0  0  0  0  0
   15.4998  -19.8284  -14.1406 C   0  0  0  0  0  0  0  0  0  0  0  0
   14.1565  -19.6957  -13.8752 O   0  0  0  0  0  0  0  0  0  0  0  0
   16.2629  -18.8656  -13.9022 O   0  0  0  0  0  0  0  0  0  0  0  0
  2  1  1  6
  2  4  1  0
  3  2  1  0
  4  6  1  0
  4  5  1  1
  6  7  2  0
  8  9  1  0
  9 11  1  0
 10  9  2  0
 12 11  1  6
 12 14  1  0
 13  6  1  0
 13 12  1  0
 14 21  1  0
 14 15  2  0
 17 19  1  0
 17 16  1  0
 18 17  2  0
 20 19  1  1
 20 22  1  0
 21 20  1  0
 22 24  2  0
 22 23  1  0
M  END
$$$$
