VNN.pdb
     RDKit          3D

 24 23  0  0  1  0  0  0  0  0999 V2000
   16.5087  -11.7055  -17.2251 C   0  0  0  0  0  0  0  0  0  0  0  0
   16.8872  -10.4524  -16.4790 C   0  0  2  0  0  0  0  0  0  0  0  0
   17.2479   -9.3956  -17.5024 C   0  0  0  0  0  0  0  0  0  0  0  0
   18.1041  -10.6566  -15.5994 C   0  0  2  0  0  0  0  0  0  0  0  0
   17.7532  -11.6562  -14.6095 N   0  0  0  0  0  0  0  0  0  0  0  0
   18.4989   -9.3942  -14.9137 C   0  0  0  0  0  0  0  0  0  0  0  0
   17.7101   -8.8571  -14.1060 O   0  0  0  0  0  0  0  0  0  0  0  0
   22.0591   -5.8399  -12.5036 N   0  0  0  0  0  0  0  0  0  0  0  0
   21.9608   -6.0524  -13.9136 C   0  0  0  0  0  0  0  0  0  0  0  0
   22.1801   -5.0349  -14.6164 O   0  0  0  0  0  0  0  0  0  0  0  0
   21.6230   -7.3907  -14.4511 C   0  0  0  0  0  0  0  0  0  0  0  0
   20.1492   -7.4842  -14.6272 C   0  0  2  0  0  0  0  0  0  0  0  0
   19.7424   -8.7581  -15.1316 N   0  0  0  0  0  0  0  0  0  0  0  0
   19.5844   -6.3548  -15.4096 C   0  0  0  0  0  0  0  0  0  0  0  0
   19.6406   -6.4273  -16.6604 O   0  0  0  0  0  0  0  0  0  0  0  0
   16.8568   -2.0102  -16.7974 N   0  0  0  0  0  0  0  0  0  0  0  0
   16.1733   -3.1561  -16.3199 C   0  0  0  0  0  0  0  0  0  0  0  0
   14.9092   -3.1437  -16.5138 O   0  0  0  0  0  0  0  0  0  0  0  0
   16.8785   -4.2698  -15.6524 C   0  0  0  0  0  0  0  0  0  0  0  0
   18.3700   -4.1617  -15.6798 C   0  0  2  0  0  0  0  0  0  0  0  0
   18.9874   -5.2033  -14.8439 N   0  0  0  0  0  0  0  0  0  0  0  0
   18.8774   -2.8283  -15.3345 C   0  0  0  0  0  0  0  0  0  0  0  0
   18.7687   -1.7948  -16.2360 O   0  0  0  0  0  0  0  0  0  0  0  0
   19.4131   -2.6109  -14.2246 O   0  0  0  0  0  0  0  0  0  0  0  0
  2  1  1  6
  2  4  1  0
  3  2  1  0
  4  6  1  0
  4  5  1  1
  6  7  2  0
  8  9  1  0
  9 11  1  0
 10  9  2  0
 12 11  1  6
 12 14  1  0
 13  6  1  0
 13 12  1  0
 14 21  1  0
 14 15  2  0
 17 19  1  0
 17 16  1  0
 18 17  2  0
 20 19  1  1
 20 22  1  0
 21 20  1  0
 22 24  2  0
 22 23  1  0
M  END
$$$$
