VNN.pdb
     RDKit          3D

 24 23  0  0  1  0  0  0  0  0999 V2000
   26.4222  -30.0035  -17.4776 C   0  0  0  0  0  0  0  0  0  0  0  0
   27.8630  -30.1341  -17.8983 C   0  0  2  0  0  0  0  0  0  0  0  0
   28.1310  -31.5974  -18.1836 C   0  0  0  0  0  0  0  0  0  0  0  0
   28.8192  -29.7101  -16.8018 C   0  0  2  0  0  0  0  0  0  0  0  0
   28.5552  -30.5554  -15.6538 N   0  0  0  0  0  0  0  0  0  0  0  0
   28.6181  -28.2825  -16.4254 C   0  0  0  0  0  0  0  0  0  0  0  0
   28.1930  -27.9983  -15.2847 O   0  0  0  0  0  0  0  0  0  0  0  0
   30.1432  -22.5490  -17.8918 N   0  0  0  0  0  0  0  0  0  0  0  0
   29.7761  -23.6268  -17.0276 C   0  0  0  0  0  0  0  0  0  0  0  0
   29.3260  -23.2754  -15.9091 O   0  0  0  0  0  0  0  0  0  0  0  0
   29.9350  -25.0320  -17.4682 C   0  0  0  0  0  0  0  0  0  0  0  0
   28.7535  -25.8166  -17.0208 C   0  0  2  0  0  0  0  0  0  0  0  0
   28.8875  -27.2106  -17.3067 N   0  0  0  0  0  0  0  0  0  0  0  0
   27.4661  -25.2566  -17.5064 C   0  0  0  0  0  0  0  0  0  0  0  0
   27.0291  -25.6704  -18.6067 O   0  0  0  0  0  0  0  0  0  0  0  0
   24.0833  -25.0010  -14.3292 N   0  0  0  0  0  0  0  0  0  0  0  0
   23.8385  -24.6287  -15.6745 C   0  0  0  0  0  0  0  0  0  0  0  0
   23.0361  -25.3998  -16.3048 O   0  0  0  0  0  0  0  0  0  0  0  0
   24.4678  -23.4407  -16.2875 C   0  0  0  0  0  0  0  0  0  0  0  0
   25.4475  -23.7516  -17.3739 C   0  0  2  0  0  0  0  0  0  0  0  0
   26.6979  -24.2897  -16.8155 N   0  0  0  0  0  0  0  0  0  0  0  0
   25.7073  -22.6276  -18.2816 C   0  0  0  0  0  0  0  0  0  0  0  0
   26.9939  -22.1795  -18.4729 O   0  0  0  0  0  0  0  0  0  0  0  0
   24.7715  -22.0626  -18.8909 O   0  0  0  0  0  0  0  0  0  0  0  0
  2  1  1  1
  2  4  1  0
  3  2  1  0
  4  6  1  0
  4  5  1  1
  6  7  2  0
  8  9  1  0
  9 11  1  0
 10  9  2  0
 12 11  1  6
 12 14  1  0
 13  6  1  0
 13 12  1  0
 14 21  1  0
 14 15  2  0
 17 19  1  0
 17 16  1  0
 18 17  2  0
 20 19  1  1
 20 22  1  0
 21 20  1  0
 22 24  2  0
 22 23  1  0
M  END
$$$$
