VNN.pdb
     RDKit          3D

 24 23  0  0  1  0  0  0  0  0999 V2000
   26.2015  -20.7131  -15.1655 C   0  0  0  0  0  0  0  0  0  0  0  0
   25.0286  -20.9348  -16.0849 C   0  0  2  0  0  0  0  0  0  0  0  0
   25.2719  -20.1334  -17.3470 C   0  0  0  0  0  0  0  0  0  0  0  0
   23.7293  -20.4382  -15.4835 C   0  0  2  0  0  0  0  0  0  0  0  0
   23.8270  -18.9948  -15.3870 N   0  0  0  0  0  0  0  0  0  0  0  0
   23.5014  -21.0134  -14.1281 C   0  0  0  0  0  0  0  0  0  0  0  0
   23.2307  -22.2281  -14.0099 O   0  0  0  0  0  0  0  0  0  0  0  0
   25.6005  -21.9090  -11.7184 N   0  0  0  0  0  0  0  0  0  0  0  0
   25.4385  -20.8945  -10.7246 C   0  0  0  0  0  0  0  0  0  0  0  0
   26.4500  -20.6922  -10.0083 O   0  0  0  0  0  0  0  0  0  0  0  0
   24.1541  -20.1685  -10.5930 C   0  0  0  0  0  0  0  0  0  0  0  0
   23.2090  -20.6642  -11.6288 C   0  0  2  0  0  0  0  0  0  0  0  0
   23.5760  -20.2438  -12.9446 N   0  0  0  0  0  0  0  0  0  0  0  0
   21.7890  -20.3658  -11.3107 C   0  0  0  0  0  0  0  0  0  0  0  0
   21.2801  -19.3412  -11.8244 O   0  0  0  0  0  0  0  0  0  0  0  0
   17.9797  -24.0280  -12.7823 N   0  0  0  0  0  0  0  0  0  0  0  0
   18.3467  -22.6598  -12.7446 C   0  0  0  0  0  0  0  0  0  0  0  0
   17.4523  -21.8545  -13.1772 O   0  0  0  0  0  0  0  0  0  0  0  0
   19.6627  -22.2133  -12.2426 C   0  0  0  0  0  0  0  0  0  0  0  0
   19.6267  -21.5902  -10.8834 C   0  0  2  0  0  0  0  0  0  0  0  0
   20.9699  -21.1555  -10.4692 N   0  0  0  0  0  0  0  0  0  0  0  0
   18.9972  -22.4317   -9.8586 C   0  0  0  0  0  0  0  0  0  0  0  0
   19.7293  -23.4081   -9.2235 O   0  0  0  0  0  0  0  0  0  0  0  0
   17.7947  -22.2771   -9.5481 O   0  0  0  0  0  0  0  0  0  0  0  0
  2  1  1  1
  2  4  1  0
  3  2  1  0
  4  6  1  0
  4  5  1  1
  6  7  2  0
  8  9  1  0
  9 11  1  0
 10  9  2  0
 12 11  1  1
 12 14  1  0
 13  6  1  0
 13 12  1  0
 14 21  1  0
 14 15  2  0
 17 19  1  0
 17 16  1  0
 18 17  2  0
 20 19  1  6
 20 22  1  0
 21 20  1  0
 22 24  2  0
 22 23  1  0
M  END
$$$$
