VNN.pdb
     RDKit          3D

 24 23  0  0  1  0  0  0  0  0999 V2000
   24.4184  -14.6210  -15.8466 C   0  0  0  0  0  0  0  0  0  0  0  0
   23.7754  -13.3163  -16.2395 C   0  0  2  0  0  0  0  0  0  0  0  0
   23.9408  -12.3520  -15.0831 C   0  0  0  0  0  0  0  0  0  0  0  0
   22.2880  -13.4646  -16.4886 C   0  0  2  0  0  0  0  0  0  0  0  0
   22.1246  -14.4837  -17.5069 N   0  0  0  0  0  0  0  0  0  0  0  0
   21.6847  -12.1871  -16.9617 C   0  0  0  0  0  0  0  0  0  0  0  0
   22.0553  -11.6942  -18.0492 O   0  0  0  0  0  0  0  0  0  0  0  0
   18.5850  -10.6054  -19.4993 N   0  0  0  0  0  0  0  0  0  0  0  0
   18.5734  -11.2376  -18.2175 C   0  0  0  0  0  0  0  0  0  0  0  0
   18.4961  -12.4907  -18.2486 O   0  0  0  0  0  0  0  0  0  0  0  0
   18.6490  -10.4287  -16.9789 C   0  0  0  0  0  0  0  0  0  0  0  0
   20.0766  -10.2538  -16.6009 C   0  0  2  0  0  0  0  0  0  0  0  0
   20.6959  -11.4880  -16.2323 N   0  0  0  0  0  0  0  0  0  0  0  0
   20.2832   -9.1877  -15.5871 C   0  0  0  0  0  0  0  0  0  0  0  0
   19.9667   -9.4431  -14.4008 O   0  0  0  0  0  0  0  0  0  0  0  0
   22.2877   -5.0846  -12.7279 N   0  0  0  0  0  0  0  0  0  0  0  0
   22.2586   -4.8707  -14.1284 C   0  0  0  0  0  0  0  0  0  0  0  0
   22.3740   -3.6478  -14.4847 O   0  0  0  0  0  0  0  0  0  0  0  0
   22.1062   -5.9824  -15.0896 C   0  0  0  0  0  0  0  0  0  0  0  0
   20.9385   -6.8771  -14.8198 C   0  0  2  0  0  0  0  0  0  0  0  0
   20.8117   -7.9048  -15.8650 N   0  0  0  0  0  0  0  0  0  0  0  0
   19.6732   -6.1609  -14.6177 C   0  0  0  0  0  0  0  0  0  0  0  0
   19.3141   -5.7380  -13.3588 O   0  0  0  0  0  0  0  0  0  0  0  0
   18.9062   -5.9255  -15.5781 O   0  0  0  0  0  0  0  0  0  0  0  0
  2  1  1  1
  2  4  1  0
  3  2  1  0
  4  6  1  0
  4  5  1  6
  6  7  2  0
  8  9  1  0
  9 11  1  0
 10  9  2  0
 12 11  1  1
 12 14  1  0
 13  6  1  0
 13 12  1  0
 14 21  1  0
 14 15  2  0
 17 19  1  0
 17 16  1  0
 18 17  2  0
 20 19  1  6
 20 22  1  0
 21 20  1  0
 22 24  2  0
 22 23  1  0
M  END
$$$$
