VNN.pdb
     RDKit          3D

 24 23  0  0  1  0  0  0  0  0999 V2000
   26.9516  -21.4984   -9.4375 C   0  0  0  0  0  0  0  0  0  0  0  0
   26.2910  -20.1648   -9.2024 C   0  0  2  0  0  0  0  0  0  0  0  0
   25.9142  -20.0867   -7.7374 C   0  0  0  0  0  0  0  0  0  0  0  0
   25.0126  -20.0115  -10.0015 C   0  0  2  0  0  0  0  0  0  0  0  0
   24.0785  -21.0047   -9.5083 N   0  0  0  0  0  0  0  0  0  0  0  0
   25.2497  -20.2302  -11.4561 C   0  0  0  0  0  0  0  0  0  0  0  0
   25.9649  -19.4269  -12.0932 O   0  0  0  0  0  0  0  0  0  0  0  0
   25.0107  -24.1376  -16.0425 N   0  0  0  0  0  0  0  0  0  0  0  0
   25.6166  -23.0838  -15.2906 C   0  0  0  0  0  0  0  0  0  0  0  0
   26.3603  -22.3217  -15.9563 O   0  0  0  0  0  0  0  0  0  0  0  0
   25.3531  -22.9473  -13.8394 C   0  0  0  0  0  0  0  0  0  0  0  0
   24.8344  -21.5803  -13.5677 C   0  0  2  0  0  0  0  0  0  0  0  0
   24.6982  -21.3192  -12.1690 N   0  0  0  0  0  0  0  0  0  0  0  0
   23.5981  -21.2656  -14.3289 C   0  0  0  0  0  0  0  0  0  0  0  0
   23.5431  -21.6313  -15.5272 O   0  0  0  0  0  0  0  0  0  0  0  0
   19.7887  -17.0101  -15.3049 N   0  0  0  0  0  0  0  0  0  0  0  0
   19.9849  -18.4031  -15.4761 C   0  0  0  0  0  0  0  0  0  0  0  0
   18.9346  -19.0542  -15.8053 O   0  0  0  0  0  0  0  0  0  0  0  0
   21.3048  -19.0394  -15.2859 C   0  0  0  0  0  0  0  0  0  0  0  0
   21.2585  -20.3628  -14.5907 C   0  0  2  0  0  0  0  0  0  0  0  0
   22.4783  -20.5825  -13.7978 N   0  0  0  0  0  0  0  0  0  0  0  0
   20.9899  -21.4962  -15.4839 C   0  0  0  0  0  0  0  0  0  0  0  0
   19.8264  -22.2181  -15.3506 O   0  0  0  0  0  0  0  0  0  0  0  0
   21.8074  -21.8226  -16.3735 O   0  0  0  0  0  0  0  0  0  0  0  0
  2  1  1  1
  2  4  1  0
  3  2  1  0
  4  6  1  0
  4  5  1  1
  6  7  2  0
  8  9  1  0
  9 11  1  0
 10  9  2  0
 12 11  1  1
 12 14  1  0
 13  6  1  0
 13 12  1  0
 14 21  1  0
 14 15  2  0
 17 19  1  0
 17 16  1  0
 18 17  2  0
 20 19  1  6
 20 22  1  0
 21 20  1  0
 22 24  2  0
 22 23  1  0
M  END
$$$$
