VNN.pdb
     RDKit          3D

 24 23  0  0  1  0  0  0  0  0999 V2000
   28.3483  -22.1371  -15.5990 C   0  0  0  0  0  0  0  0  0  0  0  0
   27.7044  -21.1220  -16.5072 C   0  0  2  0  0  0  0  0  0  0  0  0
   28.8097  -20.3167  -17.1585 C   0  0  0  0  0  0  0  0  0  0  0  0
   26.8302  -20.1465  -15.7452 C   0  0  2  0  0  0  0  0  0  0  0  0
   27.7093  -19.3322  -14.9289 N   0  0  0  0  0  0  0  0  0  0  0  0
   25.8553  -20.8569  -14.8707 C   0  0  0  0  0  0  0  0  0  0  0  0
   24.8698  -21.4308  -15.3829 O   0  0  0  0  0  0  0  0  0  0  0  0
   25.1132  -20.4888   -9.2474 N   0  0  0  0  0  0  0  0  0  0  0  0
   25.8841  -20.6682  -10.4376 C   0  0  0  0  0  0  0  0  0  0  0  0
   26.6738  -19.7277  -10.7006 O   0  0  0  0  0  0  0  0  0  0  0  0
   25.7243  -21.8892  -11.2606 C   0  0  0  0  0  0  0  0  0  0  0  0
   25.0741  -21.5245  -12.5474 C   0  0  2  0  0  0  0  0  0  0  0  0
   25.9872  -20.9181  -13.4646 N   0  0  0  0  0  0  0  0  0  0  0  0
   23.8342  -20.7264  -12.3666 C   0  0  0  0  0  0  0  0  0  0  0  0
   23.9567  -19.5394  -11.9809 O   0  0  0  0  0  0  0  0  0  0  0  0
   19.8180  -18.8051  -14.9558 N   0  0  0  0  0  0  0  0  0  0  0  0
   21.1282  -19.0974  -15.4097 C   0  0  0  0  0  0  0  0  0  0  0  0
   21.4027  -18.6482  -16.5752 O   0  0  0  0  0  0  0  0  0  0  0  0
   22.0909  -19.8620  -14.5900 C   0  0  0  0  0  0  0  0  0  0  0  0
   21.5217  -20.4130  -13.3214 C   0  0  2  0  0  0  0  0  0  0  0  0
   22.5249  -21.2106  -12.5986 N   0  0  0  0  0  0  0  0  0  0  0  0
   20.2732  -21.1627  -13.5046 C   0  0  0  0  0  0  0  0  0  0  0  0
   20.2463  -22.2667  -14.3251 O   0  0  0  0  0  0  0  0  0  0  0  0
   19.2213  -20.8135  -12.9234 O   0  0  0  0  0  0  0  0  0  0  0  0
  2  1  1  1
  2  4  1  0
  3  2  1  0
  4  6  1  0
  4  5  1  1
  6  7  2  0
  8  9  1  0
  9 11  1  0
 10  9  2  0
 12 11  1  1
 12 14  1  0
 13  6  1  0
 13 12  1  0
 14 21  1  0
 14 15  2  0
 17 19  1  0
 17 16  1  0
 18 17  2  0
 20 19  1  6
 20 22  1  0
 21 20  1  0
 22 24  2  0
 22 23  1  0
M  END
$$$$
