VNN.pdb
     RDKit          3D

 24 23  0  0  1  0  0  0  0  0999 V2000
   25.2320  -23.8293  -14.6168 C   0  0  0  0  0  0  0  0  0  0  0  0
   24.0244  -23.0128  -14.2362 C   0  0  2  0  0  0  0  0  0  0  0  0
   23.1757  -22.8350  -15.4781 C   0  0  0  0  0  0  0  0  0  0  0  0
   24.4011  -21.6278  -13.7500 C   0  0  2  0  0  0  0  0  0  0  0  0
   25.1832  -21.7972  -12.5409 N   0  0  0  0  0  0  0  0  0  0  0  0
   23.1934  -20.8081  -13.4509 C   0  0  0  0  0  0  0  0  0  0  0  0
   22.5252  -21.0454  -12.4213 O   0  0  0  0  0  0  0  0  0  0  0  0
   20.0263  -16.5827  -13.2036 N   0  0  0  0  0  0  0  0  0  0  0  0
   20.3908  -16.9150  -14.5452 C   0  0  0  0  0  0  0  0  0  0  0  0
   19.5885  -16.5136  -15.4240 O   0  0  0  0  0  0  0  0  0  0  0  0
   21.6312  -17.6762  -14.8212 C   0  0  0  0  0  0  0  0  0  0  0  0
   21.5521  -18.9952  -14.1388 C   0  0  2  0  0  0  0  0  0  0  0  0
   22.7535  -19.7554  -14.2855 N   0  0  0  0  0  0  0  0  0  0  0  0
   20.3394  -19.7694  -14.5087 C   0  0  0  0  0  0  0  0  0  0  0  0
   20.3723  -20.4290  -15.5748 O   0  0  0  0  0  0  0  0  0  0  0  0
   17.9235  -23.4443  -14.4531 N   0  0  0  0  0  0  0  0  0  0  0  0
   17.4175  -22.8637  -13.2636 C   0  0  0  0  0  0  0  0  0  0  0  0
   16.9507  -23.7009  -12.4170 O   0  0  0  0  0  0  0  0  0  0  0  0
   17.4343  -21.4043  -13.0332 C   0  0  0  0  0  0  0  0  0  0  0  0
   17.9846  -20.6052  -14.1714 C   0  0  2  0  0  0  0  0  0  0  0  0
   19.1499  -19.8153  -13.7435 N   0  0  0  0  0  0  0  0  0  0  0  0
   16.9880  -19.7653  -14.8467 C   0  0  0  0  0  0  0  0  0  0  0  0
   16.1129  -20.3246  -15.7489 O   0  0  0  0  0  0  0  0  0  0  0  0
   16.9184  -18.5373  -14.6158 O   0  0  0  0  0  0  0  0  0  0  0  0
  2  1  1  6
  2  4  1  0
  3  2  1  0
  4  6  1  0
  4  5  1  1
  6  7  2  0
  8  9  1  0
  9 11  1  0
 10  9  2  0
 12 11  1  6
 12 14  1  0
 13  6  1  0
 13 12  1  0
 14 21  1  0
 14 15  2  0
 17 19  1  0
 17 16  1  0
 18 17  2  0
 20 19  1  1
 20 22  1  0
 21 20  1  0
 22 24  2  0
 22 23  1  0
M  END
$$$$
