VNN.pdb
     RDKit          3D

 24 23  0  0  1  0  0  0  0  0999 V2000
   15.5992  -12.3523  -16.8772 C   0  0  0  0  0  0  0  0  0  0  0  0
   17.0634  -12.6899  -16.7674 C   0  0  2  0  0  0  0  0  0  0  0  0
   17.1740  -14.0967  -16.2169 C   0  0  0  0  0  0  0  0  0  0  0  0
   17.7904  -11.7742  -15.8034 C   0  0  2  0  0  0  0  0  0  0  0  0
   17.2893  -12.0677  -14.4748 N   0  0  0  0  0  0  0  0  0  0  0  0
   17.5434  -10.3401  -16.1229 C   0  0  0  0  0  0  0  0  0  0  0  0
   17.9768   -9.8621  -17.1936 O   0  0  0  0  0  0  0  0  0  0  0  0
   14.4334   -5.7147  -16.7082 N   0  0  0  0  0  0  0  0  0  0  0  0
   15.0614   -6.2294  -15.5319 C   0  0  0  0  0  0  0  0  0  0  0  0
   15.4718   -5.3558  -14.7285 O   0  0  0  0  0  0  0  0  0  0  0  0
   15.1916   -7.6905  -15.3265 C   0  0  0  0  0  0  0  0  0  0  0  0
   16.6244   -8.0707  -15.4452 C   0  0  2  0  0  0  0  0  0  0  0  0
   16.8311   -9.4732  -15.2630 N   0  0  0  0  0  0  0  0  0  0  0  0
   17.5171   -7.2474  -14.5895 C   0  0  0  0  0  0  0  0  0  0  0  0
   17.7692   -7.6692  -13.4357 O   0  0  0  0  0  0  0  0  0  0  0  0
   22.1622   -5.0664  -13.8659 N   0  0  0  0  0  0  0  0  0  0  0  0
   21.8340   -6.3205  -14.4384 C   0  0  0  0  0  0  0  0  0  0  0  0
   22.8333   -7.0914  -14.6453 O   0  0  0  0  0  0  0  0  0  0  0  0
   20.4424   -6.6944  -14.7653 C   0  0  0  0  0  0  0  0  0  0  0  0
   19.4375   -5.6153  -14.5154 C   0  0  2  0  0  0  0  0  0  0  0  0
   18.1032   -6.0213  -14.9841 N   0  0  0  0  0  0  0  0  0  0  0  0
   19.8202   -4.3069  -15.0596 C   0  0  0  0  0  0  0  0  0  0  0  0
   20.7306   -3.5217  -14.3908 O   0  0  0  0  0  0  0  0  0  0  0  0
   19.3289   -3.8867  -16.1312 O   0  0  0  0  0  0  0  0  0  0  0  0
  2  1  1  1
  2  4  1  0
  3  2  1  0
  4  6  1  0
  4  5  1  1
  6  7  2  0
  8  9  1  0
  9 11  1  0
 10  9  2  0
 12 11  1  1
 12 14  1  0
 13  6  1  0
 13 12  1  0
 14 21  1  0
 14 15  2  0
 17 19  1  0
 17 16  1  0
 18 17  2  0
 20 19  1  6
 20 22  1  0
 21 20  1  0
 22 24  2  0
 22 23  1  0
M  END
$$$$
