VNN.pdb
     RDKit          3D

 24 23  0  0  1  0  0  0  0  0999 V2000
   15.7681  -16.7325    1.9907 C   0  0  0  0  0  0  0  0  0  0  0  0
   15.7666  -17.8756    2.9722 C   0  0  2  0  0  0  0  0  0  0  0  0
   16.7838  -17.5618    4.0498 C   0  0  0  0  0  0  0  0  0  0  0  0
   16.1856  -19.1820    2.3286 C   0  0  2  0  0  0  0  0  0  0  0  0
   15.2477  -19.4503    1.2560 N   0  0  0  0  0  0  0  0  0  0  0  0
   16.1574  -20.3052    3.3071 C   0  0  0  0  0  0  0  0  0  0  0  0
   15.4046  -21.2825    3.1044 O   0  0  0  0  0  0  0  0  0  0  0  0
   18.4391  -24.3421    6.4915 N   0  0  0  0  0  0  0  0  0  0  0  0
   17.3028  -23.7311    5.8762 C   0  0  0  0  0  0  0  0  0  0  0  0
   16.1930  -24.1776    6.2582 O   0  0  0  0  0  0  0  0  0  0  0  0
   17.4781  -22.6575    4.8708 C   0  0  0  0  0  0  0  0  0  0  0  0
   17.0103  -21.3702    5.4500 C   0  0  2  0  0  0  0  0  0  0  0  0
   16.9520  -20.3258    4.4761 N   0  0  0  0  0  0  0  0  0  0  0  0
   17.7634  -20.9726    6.6672 C   0  0  0  0  0  0  0  0  0  0  0  0
   18.9425  -20.5724    6.5177 O   0  0  0  0  0  0  0  0  0  0  0  0
   20.2220  -19.0519   10.7772 N   0  0  0  0  0  0  0  0  0  0  0  0
   18.9089  -18.6532   10.4237 C   0  0  0  0  0  0  0  0  0  0  0  0
   18.3568  -17.8434   11.2454 O   0  0  0  0  0  0  0  0  0  0  0  0
   18.2424  -19.1428    9.1992 C   0  0  0  0  0  0  0  0  0  0  0  0
   18.0569  -20.6260    9.1474 C   0  0  2  0  0  0  0  0  0  0  0  0
   17.2447  -21.0133    7.9832 N   0  0  0  0  0  0  0  0  0  0  0  0
   17.5241  -21.2036   10.3872 C   0  0  0  0  0  0  0  0  0  0  0  0
   18.1631  -20.9758   11.5840 O   0  0  0  0  0  0  0  0  0  0  0  0
   16.4892  -21.9073   10.3767 O   0  0  0  0  0  0  0  0  0  0  0  0
  2  1  1  6
  2  4  1  0
  3  2  1  0
  4  6  1  0
  4  5  1  6
  6  7  2  0
  8  9  1  0
  9 11  1  0
 10  9  2  0
 12 11  1  6
 12 14  1  0
 13  6  1  0
 13 12  1  0
 14 21  1  0
 14 15  2  0
 17 19  1  0
 17 16  1  0
 18 17  2  0
 20 19  1  1
 20 22  1  0
 21 20  1  0
 22 24  2  0
 22 23  1  0
M  END
$$$$
