VNN.pdb
     RDKit          3D

 24 23  0  0  1  0  0  0  0  0999 V2000
   15.1145  -12.7114  -16.5431 C   0  0  0  0  0  0  0  0  0  0  0  0
   15.7327  -11.8559  -15.4680 C   0  0  2  0  0  0  0  0  0  0  0  0
   15.0268  -10.5157  -15.4798 C   0  0  0  0  0  0  0  0  0  0  0  0
   17.2023  -11.5893  -15.7245 C   0  0  2  0  0  0  0  0  0  0  0  0
   17.8829  -12.8688  -15.6806 N   0  0  0  0  0  0  0  0  0  0  0  0
   17.7798  -10.6827  -14.6927 C   0  0  0  0  0  0  0  0  0  0  0  0
   17.8839  -11.0781  -13.5113 O   0  0  0  0  0  0  0  0  0  0  0  0
   21.3259   -9.3092  -14.0363 N   0  0  0  0  0  0  0  0  0  0  0  0
   21.0795   -8.0555  -14.6770 C   0  0  0  0  0  0  0  0  0  0  0  0
   22.0927   -7.5162  -15.1869 O   0  0  0  0  0  0  0  0  0  0  0  0
   19.7143   -7.4818  -14.7080 C   0  0  0  0  0  0  0  0  0  0  0  0
   18.7742   -8.4330  -14.0574 C   0  0  2  0  0  0  0  0  0  0  0  0
   18.2253   -9.3730  -14.9836 N   0  0  0  0  0  0  0  0  0  0  0  0
   17.7297   -7.7554  -13.2470 C   0  0  0  0  0  0  0  0  0  0  0  0
   16.7430   -7.2745  -13.8535 O   0  0  0  0  0  0  0  0  0  0  0  0
   14.7581   -5.8037   -9.3336 N   0  0  0  0  0  0  0  0  0  0  0  0
   15.6971   -6.7225   -8.8022 C   0  0  0  0  0  0  0  0  0  0  0  0
   15.5777   -6.9434   -7.5482 O   0  0  0  0  0  0  0  0  0  0  0  0
   16.7275   -7.3667   -9.6426 C   0  0  0  0  0  0  0  0  0  0  0  0
   16.6593   -7.0028  -11.0917 C   0  0  2  0  0  0  0  0  0  0  0  0
   17.7692   -7.6142  -11.8395 N   0  0  0  0  0  0  0  0  0  0  0  0
   16.5786   -5.5584  -11.3403 C   0  0  0  0  0  0  0  0  0  0  0  0
   15.3567   -4.9626  -11.5516 O   0  0  0  0  0  0  0  0  0  0  0  0
   17.6105   -4.8507  -11.3645 O   0  0  0  0  0  0  0  0  0  0  0  0
  2  1  1  6
  2  4  1  0
  3  2  1  0
  4  6  1  0
  4  5  1  1
  6  7  2  0
  8  9  1  0
  9 11  1  0
 10  9  2  0
 12 11  1  6
 12 14  1  0
 13  6  1  0
 13 12  1  0
 14 21  1  0
 14 15  2  0
 17 19  1  0
 17 16  1  0
 18 17  2  0
 20 19  1  1
 20 22  1  0
 21 20  1  0
 22 24  2  0
 22 23  1  0
M  END
$$$$
