SWC.pdb
     RDKit          3D

 27 28  0  0  1  0  0  0  0  0999 V2000
   13.5855  -18.2323   22.0733 O   0  0  0  0  0  0  0  0  0  0  0  0
   12.4265  -18.8344   21.6067 C   0  0  0  0  0  0  0  0  0  0  0  0
   11.5563  -17.8185   20.9003 C   0  0  2  0  0  0  0  0  0  0  0  0
   12.2806  -17.1276   19.8572 N   0  0  0  0  0  0  0  0  0  0  0  0
   11.1147  -16.8011   21.8927 C   0  0  0  0  0  0  0  0  0  0  0  0
   11.7053  -15.6671   21.9680 O   0  0  0  0  0  0  0  0  0  0  0  0
   10.0374  -17.1279   22.7348 N   0  0  0  0  0  0  0  0  0  0  0  0
    9.5096  -16.1654   23.6973 C   0  0  1  0  0  0  0  0  0  0  0  0
    8.0258  -16.0770   23.6062 C   0  0  0  0  0  0  0  0  0  0  0  0
    7.4530  -14.7712   23.8768 C   0  0  0  0  0  0  0  0  0  0  0  0
    6.9153  -13.9244   22.8938 C   0  0  0  0  0  0  0  0  0  0  0  0
    6.5054  -12.7954   23.4600 N   0  0  0  0  0  0  0  0  0  0  0  0
    6.7414  -12.8399   24.7853 C   0  0  0  0  0  0  0  0  0  0  0  0
    6.4903  -11.9385   25.8073 C   0  0  0  0  0  0  0  0  0  0  0  0
    6.8159  -12.2383   27.0975 C   0  0  0  0  0  0  0  0  0  0  0  0
    7.4049  -13.4621   27.3811 C   0  0  0  0  0  0  0  0  0  0  0  0
    7.6581  -14.3633   26.3694 C   0  0  0  0  0  0  0  0  0  0  0  0
    7.3359  -14.0761   25.0589 C   0  0  0  0  0  0  0  0  0  0  0  0
   10.0736  -16.4483   25.0046 C   0  0  0  0  0  0  0  0  0  0  0  0
   10.3512  -17.5980   25.4320 O   0  0  0  0  0  0  0  0  0  0  0  0
   10.3589  -15.3741   25.9261 N   0  0  0  0  0  0  0  0  0  0  0  0
   10.8727  -15.6744   27.2379 C   0  0  1  0  0  0  0  0  0  0  0  0
   10.8202  -14.4541   28.1487 C   0  0  0  0  0  0  0  0  0  0  0  0
   11.3021  -14.9032   29.8319 S   0  0  0  0  0  0  0  0  0  0  0  0
   10.1922  -16.8349   27.8515 C   0  0  0  0  0  0  0  0  0  0  0  0
    8.9562  -16.9702   27.7229 O   0  0  0  0  0  0  0  0  0  0  0  0
   10.8908  -17.7829   28.5697 O   0  0  0  0  0  0  0  0  0  0  0  0
  1  2  1  0
  3  2  1  0
  3  4  1  6
  5  3  1  0
  6  5  2  0
  7  5  1  0
  8  7  1  0
  9 10  1  0
  8  9  1  1
 10 18  1  0
 11 10  2  0
 11 12  1  0
 12 13  1  0
 13 14  1  0
 14 15  2  0
 16 15  1  0
 17 16  2  0
 18 13  2  0
 18 17  1  0
 19  8  1  0
 19 20  2  0
 21 19  1  0
 22 21  1  0
 22 23  1  1
 24 23  1  0
 25 22  1  0
 26 25  2  0
 27 25  1  0
M  END
$$$$
