SWC.pdb
     RDKit          3D

 27 28  0  0  1  0  0  0  0  0999 V2000
    8.9580  -16.0868   19.2078 O   0  0  0  0  0  0  0  0  0  0  0  0
    7.8629  -16.5712   19.9077 C   0  0  0  0  0  0  0  0  0  0  0  0
    7.3107  -15.5006   20.8226 C   0  0  2  0  0  0  0  0  0  0  0  0
    7.1394  -14.2427   20.1310 N   0  0  0  0  0  0  0  0  0  0  0  0
    8.2793  -15.2782   21.9304 C   0  0  0  0  0  0  0  0  0  0  0  0
    9.0496  -14.2548   21.9249 O   0  0  0  0  0  0  0  0  0  0  0  0
    8.3167  -16.2226   22.9711 N   0  0  0  0  0  0  0  0  0  0  0  0
    9.2686  -16.1000   24.0712 C   0  0  1  0  0  0  0  0  0  0  0  0
    8.5955  -16.2955   25.3850 C   0  0  0  0  0  0  0  0  0  0  0  0
    7.5813  -15.3154   25.7273 C   0  0  0  0  0  0  0  0  0  0  0  0
    6.2042  -15.5869   25.7778 C   0  0  0  0  0  0  0  0  0  0  0  0
    5.5464  -14.4758   26.0876 N   0  0  0  0  0  0  0  0  0  0  0  0
    6.4181  -13.4620   26.2501 C   0  0  0  0  0  0  0  0  0  0  0  0
    6.2448  -12.1291   26.5871 C   0  0  0  0  0  0  0  0  0  0  0  0
    7.3173  -11.2952   26.7086 C   0  0  0  0  0  0  0  0  0  0  0  0
    8.5930  -11.7955   26.4907 C   0  0  0  0  0  0  0  0  0  0  0  0
    8.7727  -13.1201   26.1546 C   0  0  0  0  0  0  0  0  0  0  0  0
    7.6991  -13.9772   26.0267 C   0  0  0  0  0  0  0  0  0  0  0  0
   10.4225  -16.9351   23.7914 C   0  0  0  0  0  0  0  0  0  0  0  0
   10.3695  -18.0833   23.2811 O   0  0  0  0  0  0  0  0  0  0  0  0
   11.7541  -16.4695   24.0987 N   0  0  0  0  0  0  0  0  0  0  0  0
   12.8713  -17.3719   23.9858 C   0  0  1  0  0  0  0  0  0  0  0  0
   14.0799  -16.6855   23.3615 C   0  0  0  0  0  0  0  0  0  0  0  0
   13.6623  -14.9958   22.8738 S   0  0  0  0  0  0  0  0  0  0  0  0
   13.2157  -17.9983   25.2801 C   0  0  0  0  0  0  0  0  0  0  0  0
   12.5996  -17.6652   26.3154 O   0  0  0  0  0  0  0  0  0  0  0  0
   14.2089  -18.9505   25.3781 O   0  0  0  0  0  0  0  0  0  0  0  0
  1  2  1  0
  3  2  1  0
  3  4  1  6
  5  3  1  0
  6  5  2  0
  7  5  1  0
  8  7  1  0
  9 10  1  0
  8  9  1  1
 10 18  1  0
 11 10  2  0
 11 12  1  0
 12 13  1  0
 13 14  1  0
 14 15  2  0
 16 15  1  0
 17 16  2  0
 18 13  2  0
 18 17  1  0
 19  8  1  0
 19 20  2  0
 21 19  1  0
 22 21  1  0
 22 23  1  1
 24 23  1  0
 25 22  1  0
 26 25  2  0
 27 25  1  0
M  END
$$$$
