SWC.pdb
     RDKit          3D

 27 28  0  0  1  0  0  0  0  0999 V2000
   10.9730  -16.0036   18.8425 O   0  0  0  0  0  0  0  0  0  0  0  0
   12.0439  -16.5208   19.5560 C   0  0  0  0  0  0  0  0  0  0  0  0
   11.5468  -17.3433   20.7241 C   0  0  2  0  0  0  0  0  0  0  0  0
   10.4268  -18.1781   20.3518 N   0  0  0  0  0  0  0  0  0  0  0  0
   11.0834  -16.4169   21.7928 C   0  0  0  0  0  0  0  0  0  0  0  0
   11.5745  -15.2379   21.8890 O   0  0  0  0  0  0  0  0  0  0  0  0
   10.0980  -16.8793   22.6825 N   0  0  0  0  0  0  0  0  0  0  0  0
    9.5327  -16.0061   23.7068 C   0  0  1  0  0  0  0  0  0  0  0  0
    8.0684  -15.8243   23.5058 C   0  0  0  0  0  0  0  0  0  0  0  0
    7.3632  -15.1456   24.5775 C   0  0  0  0  0  0  0  0  0  0  0  0
    6.5108  -15.7850   25.4924 C   0  0  0  0  0  0  0  0  0  0  0  0
    5.9982  -14.8837   26.3221 N   0  0  0  0  0  0  0  0  0  0  0  0
    6.4668  -13.6602   26.0098 C   0  0  0  0  0  0  0  0  0  0  0  0
    6.2543  -12.4104   26.5691 C   0  0  0  0  0  0  0  0  0  0  0  0
    6.8773  -11.3061   26.0662 C   0  0  0  0  0  0  0  0  0  0  0  0
    7.7321  -11.4447   24.9822 C   0  0  0  0  0  0  0  0  0  0  0  0
    7.9476  -12.6849   24.4205 C   0  0  0  0  0  0  0  0  0  0  0  0
    7.3252  -13.8121   24.9160 C   0  0  0  0  0  0  0  0  0  0  0  0
    9.9659  -16.4692   25.0126 C   0  0  0  0  0  0  0  0  0  0  0  0
    9.8317  -17.6455   25.4368 O   0  0  0  0  0  0  0  0  0  0  0  0
   10.6037  -15.5611   25.9362 N   0  0  0  0  0  0  0  0  0  0  0  0
   10.8111  -15.9610   27.3045 C   0  0  1  0  0  0  0  0  0  0  0  0
    9.7329  -15.3936   28.2193 C   0  0  0  0  0  0  0  0  0  0  0  0
   10.0661  -13.6546   28.5825 S   0  0  0  0  0  0  0  0  0  0  0  0
   10.9213  -17.4286   27.4463 C   0  0  0  0  0  0  0  0  0  0  0  0
   10.6325  -18.1698   26.4821 O   0  0  0  0  0  0  0  0  0  0  0  0
   11.3386  -18.0092   28.6259 O   0  0  0  0  0  0  0  0  0  0  0  0
  1  2  1  0
  3  2  1  0
  3  4  1  6
  5  3  1  0
  6  5  2  0
  7  5  1  0
  8  7  1  0
  9 10  1  0
  8  9  1  1
 10 18  1  0
 11 10  2  0
 11 12  1  0
 12 13  1  0
 13 14  1  0
 14 15  2  0
 16 15  1  0
 17 16  2  0
 18 13  2  0
 18 17  1  0
 19  8  1  0
 19 20  2  0
 21 19  1  0
 22 21  1  0
 22 23  1  1
 24 23  1  0
 25 22  1  0
 26 25  2  0
 27 25  1  0
M  END
$$$$
