SWC.pdb
     RDKit          3D

 27 28  0  0  1  0  0  0  0  0999 V2000
    8.0915  -17.9675   20.2106 O   0  0  0  0  0  0  0  0  0  0  0  0
    7.9191  -16.7095   19.6529 C   0  0  0  0  0  0  0  0  0  0  0  0
    7.3048  -15.7676   20.6647 C   0  0  2  0  0  0  0  0  0  0  0  0
    6.9727  -14.4908   20.0737 N   0  0  0  0  0  0  0  0  0  0  0  0
    8.2977  -15.5199   21.7454 C   0  0  0  0  0  0  0  0  0  0  0  0
    9.2083  -14.6309   21.6003 O   0  0  0  0  0  0  0  0  0  0  0  0
    8.1999  -16.2896   22.9178 N   0  0  0  0  0  0  0  0  0  0  0  0
    9.1354  -16.1073   24.0236 C   0  0  1  0  0  0  0  0  0  0  0  0
    8.4378  -16.2050   25.3356 C   0  0  0  0  0  0  0  0  0  0  0  0
    7.4348  -15.1886   25.5950 C   0  0  0  0  0  0  0  0  0  0  0  0
    6.0494  -15.4125   25.5400 C   0  0  0  0  0  0  0  0  0  0  0  0
    5.4085  -14.2776   25.7940 N   0  0  0  0  0  0  0  0  0  0  0  0
    6.2996  -13.2932   26.0197 C   0  0  0  0  0  0  0  0  0  0  0  0
    6.1471  -11.9531   26.3375 C   0  0  0  0  0  0  0  0  0  0  0  0
    7.2353  -11.1557   26.5385 C   0  0  0  0  0  0  0  0  0  0  0  0
    8.5059  -11.7006   26.4216 C   0  0  0  0  0  0  0  0  0  0  0  0
    8.6650  -13.0327   26.1051 C   0  0  0  0  0  0  0  0  0  0  0  0
    7.5755  -13.8533   25.8978 C   0  0  0  0  0  0  0  0  0  0  0  0
   10.2806  -16.9757   23.8202 C   0  0  0  0  0  0  0  0  0  0  0  0
   10.2268  -18.1274   23.3178 O   0  0  0  0  0  0  0  0  0  0  0  0
   11.6040  -16.5424   24.2018 N   0  0  0  0  0  0  0  0  0  0  0  0
   12.7291  -17.4199   24.0031 C   0  0  1  0  0  0  0  0  0  0  0  0
   13.8360  -16.7345   23.2116 C   0  0  0  0  0  0  0  0  0  0  0  0
   13.1846  -16.0735   21.6605 S   0  0  0  0  0  0  0  0  0  0  0  0
   13.2387  -17.9710   25.2769 C   0  0  0  0  0  0  0  0  0  0  0  0
   14.2459  -18.7114   25.2753 O   0  0  0  0  0  0  0  0  0  0  0  0
   12.6270  -17.6879   26.4804 O   0  0  0  0  0  0  0  0  0  0  0  0
  1  2  1  0
  3  2  1  0
  3  4  1  6
  5  3  1  0
  6  5  2  0
  7  5  1  0
  8  7  1  0
  9 10  1  0
  8  9  1  1
 10 18  1  0
 11 10  2  0
 11 12  1  0
 12 13  1  0
 13 14  1  0
 14 15  2  0
 16 15  1  0
 17 16  2  0
 18 13  2  0
 18 17  1  0
 19  8  1  0
 19 20  2  0
 21 19  1  0
 22 21  1  0
 22 23  1  1
 24 23  1  0
 25 22  1  0
 26 25  2  0
 27 25  1  0
M  END
$$$$
