SWC.pdb
     RDKit          3D

 27 28  0  0  1  0  0  0  0  0999 V2000
   11.2216  -20.6441   25.8056 O   0  0  0  0  0  0  0  0  0  0  0  0
    9.8564  -20.8883   25.7923 C   0  0  0  0  0  0  0  0  0  0  0  0
    9.2787  -20.5606   24.4333 C   0  0  2  0  0  0  0  0  0  0  0  0
    9.9685  -21.2642   23.3755 N   0  0  0  0  0  0  0  0  0  0  0  0
    9.4441  -19.1020   24.1874 C   0  0  0  0  0  0  0  0  0  0  0  0
   10.4105  -18.6697   23.4665 O   0  0  0  0  0  0  0  0  0  0  0  0
    8.5104  -18.2268   24.7695 N   0  0  0  0  0  0  0  0  0  0  0  0
    8.5655  -16.7887   24.5243 C   0  0  1  0  0  0  0  0  0  0  0  0
    7.2530  -16.1467   24.8119 C   0  0  0  0  0  0  0  0  0  0  0  0
    7.1693  -14.7257   24.5287 C   0  0  0  0  0  0  0  0  0  0  0  0
    7.5685  -14.1357   23.3183 C   0  0  0  0  0  0  0  0  0  0  0  0
    7.3953  -12.8211   23.3899 N   0  0  0  0  0  0  0  0  0  0  0  0
    6.8951  -12.4937   24.5968 C   0  0  0  0  0  0  0  0  0  0  0  0
    6.5295  -11.2796   25.1558 C   0  0  0  0  0  0  0  0  0  0  0  0
    6.0194  -11.2189   26.4194 C   0  0  0  0  0  0  0  0  0  0  0  0
    5.8682  -12.3909   27.1464 C   0  0  0  0  0  0  0  0  0  0  0  0
    6.2305  -13.6020   26.5969 C   0  0  0  0  0  0  0  0  0  0  0  0
    6.7486  -13.6816   25.3207 C   0  0  0  0  0  0  0  0  0  0  0  0
    9.7288  -16.2400   25.1973 C   0  0  0  0  0  0  0  0  0  0  0  0
   10.4705  -15.3398   24.7274 O   0  0  0  0  0  0  0  0  0  0  0  0
   10.1132  -16.7216   26.5030 N   0  0  0  0  0  0  0  0  0  0  0  0
   11.2262  -16.1170   27.1893 C   0  0  1  0  0  0  0  0  0  0  0  0
   10.7692  -14.9848   28.1007 C   0  0  0  0  0  0  0  0  0  0  0  0
    8.9840  -15.0743   28.3696 S   0  0  0  0  0  0  0  0  0  0  0  0
   12.0333  -17.1117   27.9279 C   0  0  0  0  0  0  0  0  0  0  0  0
   11.5119  -17.7729   28.8517 O   0  0  0  0  0  0  0  0  0  0  0  0
   13.3602  -17.3327   27.6226 O   0  0  0  0  0  0  0  0  0  0  0  0
  1  2  1  0
  3  2  1  0
  3  4  1  6
  5  3  1  0
  6  5  2  0
  7  5  1  0
  8  7  1  0
  9 10  1  0
  8  9  1  1
 10 18  1  0
 11 10  2  0
 11 12  1  0
 12 13  1  0
 13 14  1  0
 14 15  2  0
 16 15  1  0
 17 16  2  0
 18 13  2  0
 18 17  1  0
 19  8  1  0
 19 20  2  0
 21 19  1  0
 22 21  1  0
 22 23  1  1
 24 23  1  0
 25 22  1  0
 26 25  2  0
 27 25  1  0
M  END
$$$$
