SWC.pdb
     RDKit          3D

 27 28  0  0  1  0  0  0  0  0999 V2000
    7.7981  -19.5653   20.8099 O   0  0  0  0  0  0  0  0  0  0  0  0
    6.8379  -18.6108   20.5089 C   0  0  0  0  0  0  0  0  0  0  0  0
    7.4745  -17.4295   19.8106 C   0  0  2  0  0  0  0  0  0  0  0  0
    8.0528  -17.8074   18.5407 N   0  0  0  0  0  0  0  0  0  0  0  0
    8.5725  -16.9072   20.6689 C   0  0  0  0  0  0  0  0  0  0  0  0
    9.7950  -17.1728   20.3939 O   0  0  0  0  0  0  0  0  0  0  0  0
    8.2216  -16.1205   21.7799 N   0  0  0  0  0  0  0  0  0  0  0  0
    9.2400  -15.5625   22.6646 C   0  0  1  0  0  0  0  0  0  0  0  0
    8.8158  -14.2396   23.2009 C   0  0  0  0  0  0  0  0  0  0  0  0
    7.8790  -14.2780   24.3087 C   0  0  0  0  0  0  0  0  0  0  0  0
    7.1226  -15.4062   24.6661 C   0  0  0  0  0  0  0  0  0  0  0  0
    6.3416  -15.1054   25.6970 N   0  0  0  0  0  0  0  0  0  0  0  0
    6.5360  -13.8216   26.0551 C   0  0  0  0  0  0  0  0  0  0  0  0
    5.9877  -13.0414   27.0605 C   0  0  0  0  0  0  0  0  0  0  0  0
    6.3766  -11.7448   27.2276 C   0  0  0  0  0  0  0  0  0  0  0  0
    7.3326  -11.2087   26.3769 C   0  0  0  0  0  0  0  0  0  0  0  0
    7.8818  -11.9789   25.3743 C   0  0  0  0  0  0  0  0  0  0  0  0
    7.4996  -13.2918   25.1906 C   0  0  0  0  0  0  0  0  0  0  0  0
    9.6279  -16.5721   23.6328 C   0  0  0  0  0  0  0  0  0  0  0  0
    8.8975  -17.5253   24.0062 O   0  0  0  0  0  0  0  0  0  0  0  0
   10.9340  -16.5331   24.2468 N   0  0  0  0  0  0  0  0  0  0  0  0
   11.3356  -17.5881   25.1417 C   0  0  1  0  0  0  0  0  0  0  0  0
   12.7501  -18.0664   24.8386 C   0  0  0  0  0  0  0  0  0  0  0  0
   13.0222  -18.1366   23.0530 S   0  0  0  0  0  0  0  0  0  0  0  0
   11.1896  -17.2015   26.5614 C   0  0  0  0  0  0  0  0  0  0  0  0
   10.7930  -16.0530   26.8553 O   0  0  0  0  0  0  0  0  0  0  0  0
   11.4819  -18.0823   27.5818 O   0  0  0  0  0  0  0  0  0  0  0  0
  1  2  1  0
  3  2  1  0
  3  4  1  6
  5  3  1  0
  6  5  2  0
  7  5  1  0
  8  7  1  0
  9 10  1  0
  8  9  1  1
 10 18  1  0
 11 10  2  0
 11 12  1  0
 12 13  1  0
 13 14  1  0
 14 15  2  0
 16 15  1  0
 17 16  2  0
 18 13  2  0
 18 17  1  0
 19  8  1  0
 19 20  2  0
 21 19  1  0
 22 21  1  0
 22 23  1  6
 24 23  1  0
 25 22  1  0
 26 25  2  0
 27 25  1  0
M  END
$$$$
