SWC.pdb
     RDKit          3D

 27 28  0  0  1  0  0  0  0  0999 V2000
    8.7489  -17.0102   19.4629 O   0  0  0  0  0  0  0  0  0  0  0  0
    7.5830  -17.2071   20.1879 C   0  0  0  0  0  0  0  0  0  0  0  0
    7.1795  -15.9285   20.8883 C   0  0  2  0  0  0  0  0  0  0  0  0
    7.0661  -14.8246   19.9619 N   0  0  0  0  0  0  0  0  0  0  0  0
    8.2325  -15.5789   21.8801 C   0  0  0  0  0  0  0  0  0  0  0  0
    9.0036  -14.5752   21.6833 O   0  0  0  0  0  0  0  0  0  0  0  0
    8.3479  -16.3823   23.0280 N   0  0  0  0  0  0  0  0  0  0  0  0
    9.3097  -16.0665   24.0799 C   0  0  1  0  0  0  0  0  0  0  0  0
    8.6808  -16.1638   25.4262 C   0  0  0  0  0  0  0  0  0  0  0  0
    7.6102  -15.2210   25.6930 C   0  0  0  0  0  0  0  0  0  0  0  0
    6.2454  -15.5527   25.6909 C   0  0  0  0  0  0  0  0  0  0  0  0
    5.5262  -14.4639   25.9369 N   0  0  0  0  0  0  0  0  0  0  0  0
    6.3443  -13.4076   26.1065 C   0  0  0  0  0  0  0  0  0  0  0  0
    6.0977  -12.0747   26.3942 C   0  0  0  0  0  0  0  0  0  0  0  0
    7.1261  -11.1901   26.5373 C   0  0  0  0  0  0  0  0  0  0  0  0
    8.4310  -11.6384   26.3915 C   0  0  0  0  0  0  0  0  0  0  0  0
    8.6837  -12.9627   26.1046 C   0  0  0  0  0  0  0  0  0  0  0  0
    7.6556  -13.8707   25.9559 C   0  0  0  0  0  0  0  0  0  0  0  0
   10.5190  -16.8389   23.8603 C   0  0  0  0  0  0  0  0  0  0  0  0
   10.5446  -18.0498   23.5220 O   0  0  0  0  0  0  0  0  0  0  0  0
   11.8169  -16.2286   24.0267 N   0  0  0  0  0  0  0  0  0  0  0  0
   13.0076  -17.0179   23.8409 C   0  0  1  0  0  0  0  0  0  0  0  0
   14.1073  -16.2136   23.1588 C   0  0  0  0  0  0  0  0  0  0  0  0
   13.5077  -15.5225   21.6000 S   0  0  0  0  0  0  0  0  0  0  0  0
   13.4831  -17.6168   25.1063 C   0  0  0  0  0  0  0  0  0  0  0  0
   12.8499  -17.4168   26.1653 O   0  0  0  0  0  0  0  0  0  0  0  0
   14.6185  -18.3988   25.1514 O   0  0  0  0  0  0  0  0  0  0  0  0
  1  2  1  0
  3  2  1  0
  3  4  1  6
  5  3  1  0
  6  5  2  0
  7  5  1  0
  8  7  1  0
  9 10  1  0
  8  9  1  1
 10 18  1  0
 11 10  2  0
 11 12  1  0
 12 13  1  0
 13 14  1  0
 14 15  2  0
 16 15  1  0
 17 16  2  0
 18 13  2  0
 18 17  1  0
 19  8  1  0
 19 20  2  0
 21 19  1  0
 22 21  1  0
 22 23  1  1
 24 23  1  0
 25 22  1  0
 26 25  2  0
 27 25  1  0
M  END
$$$$
