SWC.pdb
     RDKit          3D

 27 28  0  0  1  0  0  0  0  0999 V2000
   10.5969  -19.7200   21.3367 O   0  0  0  0  0  0  0  0  0  0  0  0
    9.2416  -19.4460   21.2291 C   0  0  0  0  0  0  0  0  0  0  0  0
    9.0303  -18.0917   20.5892 C   0  0  2  0  0  0  0  0  0  0  0  0
    9.5672  -18.0447   19.2478 N   0  0  0  0  0  0  0  0  0  0  0  0
    9.7469  -17.0684   21.3981 C   0  0  0  0  0  0  0  0  0  0  0  0
   10.8674  -16.5926   20.9998 O   0  0  0  0  0  0  0  0  0  0  0  0
    9.1545  -16.6484   22.6020 N   0  0  0  0  0  0  0  0  0  0  0  0
    9.8033  -15.6629   23.4618 C   0  0  1  0  0  0  0  0  0  0  0  0
    8.9943  -14.4158   23.5506 C   0  0  0  0  0  0  0  0  0  0  0  0
    8.0351  -14.3612   24.6384 C   0  0  0  0  0  0  0  0  0  0  0  0
    7.4822  -15.4913   25.2628 C   0  0  0  0  0  0  0  0  0  0  0  0
    6.6177  -15.1029   26.1928 N   0  0  0  0  0  0  0  0  0  0  0  0
    6.5606  -13.7577   26.2269 C   0  0  0  0  0  0  0  0  0  0  0  0
    5.8386  -12.8753   27.0144 C   0  0  0  0  0  0  0  0  0  0  0  0
    5.9781  -11.5274   26.8593 C   0  0  0  0  0  0  0  0  0  0  0  0
    6.8551  -11.0426   25.8997 C   0  0  0  0  0  0  0  0  0  0  0  0
    7.5761  -11.9146   25.1124 C   0  0  0  0  0  0  0  0  0  0  0  0
    7.4467  -13.2807   25.2554 C   0  0  0  0  0  0  0  0  0  0  0  0
   10.1723  -16.2993   24.7132 C   0  0  0  0  0  0  0  0  0  0  0  0
    9.5126  -17.2099   25.2762 O   0  0  0  0  0  0  0  0  0  0  0  0
   11.3727  -15.9014   25.4099 N   0  0  0  0  0  0  0  0  0  0  0  0
   11.3407  -15.7083   26.8371 C   0  0  1  0  0  0  0  0  0  0  0  0
   10.3204  -14.6480   27.2322 C   0  0  0  0  0  0  0  0  0  0  0  0
   10.2081  -14.5217   29.0319 S   0  0  0  0  0  0  0  0  0  0  0  0
   11.1132  -16.9742   27.5665 C   0  0  0  0  0  0  0  0  0  0  0  0
    9.9465  -17.3789   27.7603 O   0  0  0  0  0  0  0  0  0  0  0  0
   12.1640  -17.7293   28.0444 O   0  0  0  0  0  0  0  0  0  0  0  0
  1  2  1  0
  3  2  1  0
  3  4  1  6
  5  3  1  0
  6  5  2  0
  7  5  1  0
  8  7  1  0
  9 10  1  0
  8  9  1  1
 10 18  1  0
 11 10  2  0
 11 12  1  0
 12 13  1  0
 13 14  1  0
 14 15  2  0
 16 15  1  0
 17 16  2  0
 18 13  2  0
 18 17  1  0
 19  8  1  0
 19 20  2  0
 21 19  1  0
 22 21  1  0
 22 23  1  6
 24 23  1  0
 25 22  1  0
 26 25  2  0
 27 25  1  0
M  END
$$$$
