SWC.pdb
     RDKit          3D

 27 28  0  0  1  0  0  0  0  0999 V2000
   10.5787  -17.2421   20.0194 O   0  0  0  0  0  0  0  0  0  0  0  0
    9.3619  -17.7979   20.3855 C   0  0  0  0  0  0  0  0  0  0  0  0
    8.4436  -16.7305   20.9383 C   0  0  2  0  0  0  0  0  0  0  0  0
    8.4183  -15.5575   20.0938 N   0  0  0  0  0  0  0  0  0  0  0  0
    8.9512  -16.3141   22.2739 C   0  0  0  0  0  0  0  0  0  0  0  0
    9.6580  -15.2532   22.3990 O   0  0  0  0  0  0  0  0  0  0  0  0
    8.6297  -17.1196   23.3804 N   0  0  0  0  0  0  0  0  0  0  0  0
    9.1320  -16.8082   24.7153 C   0  0  1  0  0  0  0  0  0  0  0  0
    8.0175  -16.7213   25.6991 C   0  0  0  0  0  0  0  0  0  0  0  0
    7.2206  -15.5095   25.6455 C   0  0  0  0  0  0  0  0  0  0  0  0
    5.9177  -15.4421   25.1254 C   0  0  0  0  0  0  0  0  0  0  0  0
    5.4804  -14.1900   25.1912 N   0  0  0  0  0  0  0  0  0  0  0  0
    6.4305  -13.4048   25.7342 C   0  0  0  0  0  0  0  0  0  0  0  0
    6.4641  -12.0514   26.0294 C   0  0  0  0  0  0  0  0  0  0  0  0
    7.5647  -11.4908   26.6082 C   0  0  0  0  0  0  0  0  0  0  0  0
    8.6587  -12.2922   26.9013 C   0  0  0  0  0  0  0  0  0  0  0  0
    8.6324  -13.6391   26.6098 C   0  0  0  0  0  0  0  0  0  0  0  0
    7.5278  -14.2223   26.0239 C   0  0  0  0  0  0  0  0  0  0  0  0
   10.2213  -17.7138   25.0322 C   0  0  0  0  0  0  0  0  0  0  0  0
   10.1582  -18.9672   24.9506 O   0  0  0  0  0  0  0  0  0  0  0  0
   11.4941  -17.1989   25.4786 N   0  0  0  0  0  0  0  0  0  0  0  0
   12.5141  -18.1089   25.9334 C   0  0  1  0  0  0  0  0  0  0  0  0
   13.9082  -17.5286   25.7299 C   0  0  0  0  0  0  0  0  0  0  0  0
   13.9428  -16.4726   24.2633 S   0  0  0  0  0  0  0  0  0  0  0  0
   12.3036  -18.5273   27.3358 C   0  0  0  0  0  0  0  0  0  0  0  0
   11.3297  -18.0792   27.9788 O   0  0  0  0  0  0  0  0  0  0  0  0
   13.1611  -19.4082   27.9614 O   0  0  0  0  0  0  0  0  0  0  0  0
  1  2  1  0
  3  2  1  0
  3  4  1  6
  5  3  1  0
  6  5  2  0
  7  5  1  0
  8  7  1  0
  9 10  1  0
  8  9  1  1
 10 18  1  0
 11 10  2  0
 11 12  1  0
 12 13  1  0
 13 14  1  0
 14 15  2  0
 16 15  1  0
 17 16  2  0
 18 13  2  0
 18 17  1  0
 19  8  1  0
 19 20  2  0
 21 19  1  0
 22 21  1  0
 22 23  1  1
 24 23  1  0
 25 22  1  0
 26 25  2  0
 27 25  1  0
M  END
$$$$
