SWC.pdb
     RDKit          3D

 27 28  0  0  1  0  0  0  0  0999 V2000
    8.7752  -20.5664   20.8411 O   0  0  0  0  0  0  0  0  0  0  0  0
    7.5185  -20.0921   20.4954 C   0  0  0  0  0  0  0  0  0  0  0  0
    7.6315  -18.7237   19.8608 C   0  0  2  0  0  0  0  0  0  0  0  0
    8.4487  -18.7532   18.6687 N   0  0  0  0  0  0  0  0  0  0  0  0
    8.2833  -17.8033   20.8319 C   0  0  0  0  0  0  0  0  0  0  0  0
    9.5471  -17.6002   20.7876 O   0  0  0  0  0  0  0  0  0  0  0  0
    7.4690  -17.1725   21.7888 N   0  0  0  0  0  0  0  0  0  0  0  0
    8.0265  -16.2310   22.7552 C   0  0  1  0  0  0  0  0  0  0  0  0
    7.0186  -15.2073   23.1470 C   0  0  0  0  0  0  0  0  0  0  0  0
    7.4998  -14.1453   24.0114 C   0  0  0  0  0  0  0  0  0  0  0  0
    8.6619  -13.3945   23.7698 C   0  0  0  0  0  0  0  0  0  0  0  0
    8.8418  -12.5287   24.7604 N   0  0  0  0  0  0  0  0  0  0  0  0
    7.8513  -12.6593   25.6636 C   0  0  0  0  0  0  0  0  0  0  0  0
    7.5757  -11.9935   26.8472 C   0  0  0  0  0  0  0  0  0  0  0  0
    6.4731  -12.3099   27.5851 C   0  0  0  0  0  0  0  0  0  0  0  0
    5.6228  -13.3112   27.1383 C   0  0  0  0  0  0  0  0  0  0  0  0
    5.8912  -13.9781   25.9622 C   0  0  0  0  0  0  0  0  0  0  0  0
    7.0022  -13.6714   25.2039 C   0  0  0  0  0  0  0  0  0  0  0  0
    8.6599  -16.9762   23.8279 C   0  0  0  0  0  0  0  0  0  0  0  0
    8.2167  -18.0473   24.3156 O   0  0  0  0  0  0  0  0  0  0  0  0
    9.8898  -16.5046   24.4191 N   0  0  0  0  0  0  0  0  0  0  0  0
   10.6247  -17.3575   25.3177 C   0  0  1  0  0  0  0  0  0  0  0  0
   12.0650  -17.5423   24.8562 C   0  0  0  0  0  0  0  0  0  0  0  0
   12.7669  -15.9605   24.3342 S   0  0  0  0  0  0  0  0  0  0  0  0
   10.5634  -16.8800   26.7157 C   0  0  0  0  0  0  0  0  0  0  0  0
   10.0440  -15.7722   26.9721 O   0  0  0  0  0  0  0  0  0  0  0  0
   11.0688  -17.6310   27.7565 O   0  0  0  0  0  0  0  0  0  0  0  0
  1  2  1  0
  3  2  1  0
  3  4  1  6
  5  3  1  0
  6  5  2  0
  7  5  1  0
  8  7  1  0
  9 10  1  0
  8  9  1  1
 10 18  1  0
 11 10  2  0
 11 12  1  0
 12 13  1  0
 13 14  1  0
 14 15  2  0
 16 15  1  0
 17 16  2  0
 18 13  2  0
 18 17  1  0
 19  8  1  0
 19 20  2  0
 21 19  1  0
 22 21  1  0
 22 23  1  6
 24 23  1  0
 25 22  1  0
 26 25  2  0
 27 25  1  0
M  END
$$$$
