SWC.pdb
     RDKit          3D

 27 28  0  0  1  0  0  0  0  0999 V2000
    9.1188  -17.8698   19.5505 O   0  0  0  0  0  0  0  0  0  0  0  0
    7.8541  -17.6817   20.0878 C   0  0  0  0  0  0  0  0  0  0  0  0
    7.6741  -16.2409   20.5120 C   0  0  2  0  0  0  0  0  0  0  0  0
    8.0276  -15.3236   19.4521 N   0  0  0  0  0  0  0  0  0  0  0  0
    8.5773  -15.9696   21.6634 C   0  0  0  0  0  0  0  0  0  0  0  0
    9.6778  -15.3372   21.4915 O   0  0  0  0  0  0  0  0  0  0  0  0
    8.1818  -16.4284   22.9321 N   0  0  0  0  0  0  0  0  0  0  0  0
    9.0828  -16.3555   24.0784 C   0  0  1  0  0  0  0  0  0  0  0  0
    8.3249  -16.4168   25.3589 C   0  0  0  0  0  0  0  0  0  0  0  0
    7.4153  -15.3136   25.6079 C   0  0  0  0  0  0  0  0  0  0  0  0
    6.0208  -15.4460   25.7100 C   0  0  0  0  0  0  0  0  0  0  0  0
    5.4772  -14.2506   25.9067 N   0  0  0  0  0  0  0  0  0  0  0  0
    6.4430  -13.3126   25.9432 C   0  0  0  0  0  0  0  0  0  0  0  0
    6.4030  -11.9409   26.1348 C   0  0  0  0  0  0  0  0  0  0  0  0
    7.5510  -11.2044   26.1471 C   0  0  0  0  0  0  0  0  0  0  0  0
    8.7687  -11.8441   25.9648 C   0  0  0  0  0  0  0  0  0  0  0  0
    8.8159  -13.2083   25.7730 C   0  0  0  0  0  0  0  0  0  0  0  0
    7.6645  -13.9682   25.7570 C   0  0  0  0  0  0  0  0  0  0  0  0
   10.1525  -17.3203   23.8993 C   0  0  0  0  0  0  0  0  0  0  0  0
   10.2867  -18.0634   22.8937 O   0  0  0  0  0  0  0  0  0  0  0  0
   11.1663  -17.4850   24.9141 N   0  0  0  0  0  0  0  0  0  0  0  0
   12.5428  -17.6619   24.5280 C   0  0  1  0  0  0  0  0  0  0  0  0
   13.0365  -16.4970   23.6790 C   0  0  0  0  0  0  0  0  0  0  0  0
   14.6617  -16.8704   22.9815 S   0  0  0  0  0  0  0  0  0  0  0  0
   13.4239  -17.8919   25.6928 C   0  0  0  0  0  0  0  0  0  0  0  0
   14.4581  -18.5820   25.5633 O   0  0  0  0  0  0  0  0  0  0  0  0
   13.1335  -17.3605   26.9321 O   0  0  0  0  0  0  0  0  0  0  0  0
  1  2  1  0
  3  2  1  0
  3  4  1  6
  5  3  1  0
  6  5  2  0
  7  5  1  0
  8  7  1  0
  9 10  1  0
  8  9  1  1
 10 18  1  0
 11 10  2  0
 11 12  1  0
 12 13  1  0
 13 14  1  0
 14 15  2  0
 16 15  1  0
 17 16  2  0
 18 13  2  0
 18 17  1  0
 19  8  1  0
 19 20  2  0
 21 19  1  0
 22 21  1  0
 22 23  1  1
 24 23  1  0
 25 22  1  0
 26 25  2  0
 27 25  1  0
M  END
$$$$
