QDA.pdb
     RDKit          3D

 23 22  0  0  1  0  0  0  0  0999 V2000
   29.9448  -32.1657  -23.0663 N   0  0  0  0  0  0  0  0  0  0  0  0
   31.2016  -32.1053  -22.3719 C   0  0  0  0  0  0  0  0  0  0  0  0
   32.0597  -32.9962  -22.6157 O   0  0  0  0  0  0  0  0  0  0  0  0
   31.3982  -30.9936  -21.4150 C   0  0  0  0  0  0  0  0  0  0  0  0
   30.2341  -30.0312  -21.3879 C   0  0  0  0  0  0  0  0  0  0  0  0
   30.5782  -28.8095  -20.5248 C   0  0  2  0  0  0  0  0  0  0  0  0
   32.0469  -28.8714  -20.4107 N   0  0  0  0  0  0  0  0  0  0  0  0
   30.0151  -29.0316  -19.1763 C   0  0  0  0  0  0  0  0  0  0  0  0
   30.6709  -29.6807  -18.3325 O   0  0  0  0  0  0  0  0  0  0  0  0
   28.7410  -28.5458  -18.7495 N   0  0  0  0  0  0  0  0  0  0  0  0
   28.2579  -28.7707  -17.3935 C   0  0  1  0  0  0  0  0  0  0  0  0
   27.5295  -27.5327  -16.8836 C   0  0  0  0  0  0  0  0  0  0  0  0
   28.4714  -26.4401  -16.5777 C   0  0  0  0  0  0  0  0  0  0  0  0
   28.1774  -25.2384  -16.8090 O   0  0  0  0  0  0  0  0  0  0  0  0
   27.4367  -29.9771  -17.2653 C   0  0  0  0  0  0  0  0  0  0  0  0
   26.5645  -30.2674  -18.1567 O   0  0  0  0  0  0  0  0  0  0  0  0
   29.7136  -26.7138  -16.0240 O   0  0  0  0  0  0  0  0  0  0  0  0
   26.9922  -32.9393  -14.9220 C   0  0  0  0  0  0  0  0  0  0  0  0
   26.6099  -32.0609  -16.1227 C   0  0  2  0  0  0  0  0  0  0  0  0
   27.5180  -30.9110  -16.1878 N   0  0  0  0  0  0  0  0  0  0  0  0
   25.2087  -31.6349  -15.9382 C   0  0  0  0  0  0  0  0  0  0  0  0
   24.1718  -32.3008  -16.5803 O   0  0  0  0  0  0  0  0  0  0  0  0
   24.9733  -30.6471  -15.1804 O   0  0  0  0  0  0  0  0  0  0  0  0
  2  1  1  0
  2  3  2  0
  4  2  1  0
  5  4  1  0
  6  8  1  0
  6  5  1  0
  6  7  1  1
  8 10  1  0
  9  8  2  0
 11 10  1  0
 11 15  1  0
 11 12  1  6
 12 13  1  0
 13 14  2  0
 13 17  1  0
 15 16  2  0
 15 20  1  0
 19 21  1  0
 19 18  1  1
 20 19  1  0
 21 22  1  0
 23 21  2  0
M  END
$$$$
