QDA.pdb
     RDKit          3D

 23 22  0  0  1  0  0  0  0  0999 V2000
   17.4076  -13.0355  -16.6640 N   0  0  0  0  0  0  0  0  0  0  0  0
   18.0484  -13.1014  -17.9486 C   0  0  0  0  0  0  0  0  0  0  0  0
   17.8411  -14.1173  -18.6658 O   0  0  0  0  0  0  0  0  0  0  0  0
   18.9107  -11.9636  -18.3388 C   0  0  0  0  0  0  0  0  0  0  0  0
   18.8548  -10.8210  -17.3521 C   0  0  0  0  0  0  0  0  0  0  0  0
   20.1955  -10.6923  -16.6160 C   0  0  2  0  0  0  0  0  0  0  0  0
   20.1891  -11.8367  -15.6864 N   0  0  0  0  0  0  0  0  0  0  0  0
   20.1529   -9.4572  -15.8050 C   0  0  0  0  0  0  0  0  0  0  0  0
   19.3573   -9.3767  -14.8439 O   0  0  0  0  0  0  0  0  0  0  0  0
   20.9769   -8.3140  -16.0414 N   0  0  0  0  0  0  0  0  0  0  0  0
   20.8787   -7.1221  -15.2094 C   0  0  1  0  0  0  0  0  0  0  0  0
   22.2056   -6.8621  -14.5060 C   0  0  0  0  0  0  0  0  0  0  0  0
   22.1354   -5.6660  -13.6463 C   0  0  0  0  0  0  0  0  0  0  0  0
   21.3129   -5.5897  -12.6968 O   0  0  0  0  0  0  0  0  0  0  0  0
   20.4106   -5.9430  -15.9420 C   0  0  0  0  0  0  0  0  0  0  0  0
   21.0476   -5.5208  -16.9694 O   0  0  0  0  0  0  0  0  0  0  0  0
   22.9811   -4.5885  -13.8664 O   0  0  0  0  0  0  0  0  0  0  0  0
   17.3139   -3.8675  -16.3261 C   0  0  0  0  0  0  0  0  0  0  0  0
   18.8356   -4.0444  -16.4381 C   0  0  2  0  0  0  0  0  0  0  0  0
   19.2521   -5.1782  -15.6061 N   0  0  0  0  0  0  0  0  0  0  0  0
   19.4669   -2.7860  -15.9944 C   0  0  0  0  0  0  0  0  0  0  0  0
   19.4037   -1.6421  -16.7807 O   0  0  0  0  0  0  0  0  0  0  0  0
   20.0683   -2.7734  -14.8793 O   0  0  0  0  0  0  0  0  0  0  0  0
  2  1  1  0
  2  3  2  0
  4  2  1  0
  5  4  1  0
  6  8  1  0
  6  5  1  0
  6  7  1  1
  8 10  1  0
  9  8  2  0
 11 10  1  0
 11 15  1  0
 11 12  1  6
 12 13  1  0
 13 14  2  0
 13 17  1  0
 15 16  2  0
 15 20  1  0
 19 21  1  0
 19 18  1  1
 20 19  1  0
 21 22  1  0
 23 21  2  0
M  END
$$$$
