QDA.pdb
     RDKit          3D

 23 22  0  0  1  0  0  0  0  0999 V2000
   16.0184  -11.0174  -18.0462 N   0  0  0  0  0  0  0  0  0  0  0  0
   17.0723  -11.6478  -18.7926 C   0  0  0  0  0  0  0  0  0  0  0  0
   16.7553  -12.3714  -19.7752 O   0  0  0  0  0  0  0  0  0  0  0  0
   18.4627  -11.3994  -18.3506 C   0  0  0  0  0  0  0  0  0  0  0  0
   18.5464  -10.4208  -17.2027 C   0  0  0  0  0  0  0  0  0  0  0  0
   20.0139  -10.1600  -16.8364 C   0  0  2  0  0  0  0  0  0  0  0  0
   20.3891  -11.3496  -16.0503 N   0  0  0  0  0  0  0  0  0  0  0  0
   20.0566   -8.9932  -15.9299 C   0  0  0  0  0  0  0  0  0  0  0  0
   19.4095   -9.0182  -14.8604 O   0  0  0  0  0  0  0  0  0  0  0  0
   20.8040   -7.8034  -16.1892 N   0  0  0  0  0  0  0  0  0  0  0  0
   20.8089   -6.6899  -15.2497 C   0  0  1  0  0  0  0  0  0  0  0  0
   22.2270   -6.4239  -14.7583 C   0  0  0  0  0  0  0  0  0  0  0  0
   22.2635   -5.3097  -13.7929 C   0  0  0  0  0  0  0  0  0  0  0  0
   23.0172   -4.3170  -13.9673 O   0  0  0  0  0  0  0  0  0  0  0  0
   20.1822   -5.4790  -15.7855 C   0  0  0  0  0  0  0  0  0  0  0  0
   20.5990   -4.9611  -16.8799 O   0  0  0  0  0  0  0  0  0  0  0  0
   21.4618   -5.3306  -12.6609 O   0  0  0  0  0  0  0  0  0  0  0  0
   17.0311   -3.5111  -15.5209 C   0  0  0  0  0  0  0  0  0  0  0  0
   18.5423   -3.5705  -15.7894 C   0  0  2  0  0  0  0  0  0  0  0  0
   19.0941   -4.7831  -15.1759 N   0  0  0  0  0  0  0  0  0  0  0  0
   19.1472   -2.3511  -15.2183 C   0  0  0  0  0  0  0  0  0  0  0  0
   19.0375   -1.1293  -15.8710 O   0  0  0  0  0  0  0  0  0  0  0  0
   19.7693   -2.4446  -14.1186 O   0  0  0  0  0  0  0  0  0  0  0  0
  2  1  1  0
  2  3  2  0
  4  2  1  0
  5  4  1  0
  6  8  1  0
  6  5  1  0
  6  7  1  1
  8 10  1  0
  9  8  2  0
 11 10  1  0
 11 15  1  0
 11 12  1  6
 12 13  1  0
 13 14  2  0
 13 17  1  0
 15 16  2  0
 15 20  1  0
 19 21  1  0
 19 18  1  1
 20 19  1  0
 21 22  1  0
 23 21  2  0
M  END
$$$$
