QDA.pdb
     RDKit          3D

 23 22  0  0  1  0  0  0  0  0999 V2000
   11.5346  -10.5114  -11.6713 N   0  0  0  0  0  0  0  0  0  0  0  0
   11.4985  -11.5731  -12.6391 C   0  0  0  0  0  0  0  0  0  0  0  0
   10.4635  -12.2907  -12.6971 O   0  0  0  0  0  0  0  0  0  0  0  0
   12.6870  -11.7475  -13.5035 C   0  0  0  0  0  0  0  0  0  0  0  0
   13.7500  -10.7031  -13.2554 C   0  0  0  0  0  0  0  0  0  0  0  0
   14.9620  -10.9566  -14.1625 C   0  0  2  0  0  0  0  0  0  0  0  0
   15.6001  -12.1419  -13.5611 N   0  0  0  0  0  0  0  0  0  0  0  0
   15.8935   -9.8195  -14.0063 C   0  0  0  0  0  0  0  0  0  0  0  0
   16.6044   -9.7401  -12.9808 O   0  0  0  0  0  0  0  0  0  0  0  0
   16.0494   -8.7731  -14.9666 N   0  0  0  0  0  0  0  0  0  0  0  0
   16.9656   -7.6635  -14.7385 C   0  0  1  0  0  0  0  0  0  0  0  0
   18.1677   -7.7755  -15.6688 C   0  0  0  0  0  0  0  0  0  0  0  0
   19.0948   -6.6425  -15.4914 C   0  0  0  0  0  0  0  0  0  0  0  0
   19.1585   -5.7106  -16.3348 O   0  0  0  0  0  0  0  0  0  0  0  0
   16.3206   -6.3519  -14.8377 C   0  0  0  0  0  0  0  0  0  0  0  0
   15.6552   -6.0322  -15.8838 O   0  0  0  0  0  0  0  0  0  0  0  0
   19.9252   -6.5775  -14.3820 O   0  0  0  0  0  0  0  0  0  0  0  0
   15.0618   -3.5952  -12.7104 C   0  0  0  0  0  0  0  0  0  0  0  0
   15.6963   -4.0510  -14.0329 C   0  0  2  0  0  0  0  0  0  0  0  0
   16.3624   -5.3417  -13.8289 N   0  0  0  0  0  0  0  0  0  0  0  0
   16.6526   -3.0084  -14.4540 C   0  0  0  0  0  0  0  0  0  0  0  0
   16.2049   -1.7801  -14.9246 O   0  0  0  0  0  0  0  0  0  0  0  0
   17.8919   -3.2598  -14.3764 O   0  0  0  0  0  0  0  0  0  0  0  0
  2  1  1  0
  2  3  2  0
  4  2  1  0
  5  4  1  0
  6  8  1  0
  6  5  1  0
  6  7  1  1
  8 10  1  0
  9  8  2  0
 11 10  1  0
 11 15  1  0
 11 12  1  6
 12 13  1  0
 13 14  2  0
 13 17  1  0
 15 16  2  0
 15 20  1  0
 19 21  1  0
 19 18  1  1
 20 19  1  0
 21 22  1  0
 23 21  2  0
M  END
$$$$
