QDA.pdb
     RDKit          3D

 23 22  0  0  1  0  0  0  0  0999 V2000
   16.1038  -12.8910  -12.2102 N   0  0  0  0  0  0  0  0  0  0  0  0
   15.2975  -13.2682  -11.0820 C   0  0  0  0  0  0  0  0  0  0  0  0
   15.0698  -14.4943  -10.8965 O   0  0  0  0  0  0  0  0  0  0  0  0
   14.7900  -12.1823  -10.2140 C   0  0  0  0  0  0  0  0  0  0  0  0
   15.1952  -10.8092  -10.6963 C   0  0  0  0  0  0  0  0  0  0  0  0
   14.6723   -9.7349   -9.7328 C   0  0  2  0  0  0  0  0  0  0  0  0
   13.2234   -9.7049  -10.0043 N   0  0  0  0  0  0  0  0  0  0  0  0
   15.2332   -8.4337  -10.1537 C   0  0  0  0  0  0  0  0  0  0  0  0
   14.6564   -7.7715  -11.0436 O   0  0  0  0  0  0  0  0  0  0  0  0
   16.4193   -7.8565   -9.6044 N   0  0  0  0  0  0  0  0  0  0  0  0
   16.9811   -6.6230  -10.1386 C   0  0  1  0  0  0  0  0  0  0  0  0
   16.8641   -5.5043   -9.1101 C   0  0  0  0  0  0  0  0  0  0  0  0
   17.4639   -4.2513   -9.6049 C   0  0  0  0  0  0  0  0  0  0  0  0
   17.8788   -4.1470  -10.7885 O   0  0  0  0  0  0  0  0  0  0  0  0
   18.3553   -6.7760  -10.6227 C   0  0  0  0  0  0  0  0  0  0  0  0
   19.3069   -7.0360   -9.8063 O   0  0  0  0  0  0  0  0  0  0  0  0
   17.5862   -3.1499   -8.7702 O   0  0  0  0  0  0  0  0  0  0  0  0
   20.2752   -7.1554  -13.8445 C   0  0  0  0  0  0  0  0  0  0  0  0
   20.1734   -6.7657  -12.3622 C   0  0  2  0  0  0  0  0  0  0  0  0
   18.7594   -6.6586  -11.9875 N   0  0  0  0  0  0  0  0  0  0  0  0
   20.8790   -5.4810  -12.1871 C   0  0  0  0  0  0  0  0  0  0  0  0
   22.2530   -5.4456  -11.9833 O   0  0  0  0  0  0  0  0  0  0  0  0
   20.2021   -4.4107  -12.2268 O   0  0  0  0  0  0  0  0  0  0  0  0
  2  1  1  0
  2  3  2  0
  4  2  1  0
  5  4  1  0
  6  8  1  0
  6  5  1  0
  6  7  1  6
  8 10  1  0
  9  8  2  0
 11 10  1  0
 11 15  1  0
 11 12  1  1
 12 13  1  0
 13 14  2  0
 13 17  1  0
 15 16  2  0
 15 20  1  0
 19 21  1  0
 19 18  1  6
 20 19  1  0
 21 22  1  0
 23 21  2  0
M  END
$$$$
