QDA.pdb
     RDKit          3D

 23 22  0  0  1  0  0  0  0  0999 V2000
   24.4059  -12.8099  -18.5777 N   0  0  0  0  0  0  0  0  0  0  0  0
   24.6759  -13.2794  -17.2465 C   0  0  0  0  0  0  0  0  0  0  0  0
   25.3940  -14.3069  -17.1119 O   0  0  0  0  0  0  0  0  0  0  0  0
   24.0875  -12.5169  -16.1229 C   0  0  0  0  0  0  0  0  0  0  0  0
   23.2248  -11.3658  -16.5844 C   0  0  0  0  0  0  0  0  0  0  0  0
   23.8672  -10.0304  -16.1848 C   0  0  2  0  0  0  0  0  0  0  0  0
   24.0946  -10.1778  -14.7355 N   0  0  0  0  0  0  0  0  0  0  0  0
   22.8592   -8.9657  -16.3734 C   0  0  0  0  0  0  0  0  0  0  0  0
   22.4893   -8.6633  -17.5287 O   0  0  0  0  0  0  0  0  0  0  0  0
   22.2561   -8.2342  -15.3043 N   0  0  0  0  0  0  0  0  0  0  0  0
   21.2605   -7.2013  -15.5579 C   0  0  1  0  0  0  0  0  0  0  0  0
   19.9844   -7.4998  -14.7798 C   0  0  0  0  0  0  0  0  0  0  0  0
   18.9272   -6.5162  -15.0791 C   0  0  0  0  0  0  0  0  0  0  0  0
   18.6275   -6.2176  -16.2644 O   0  0  0  0  0  0  0  0  0  0  0  0
   21.7536   -5.8468  -15.2962 C   0  0  0  0  0  0  0  0  0  0  0  0
   22.3564   -5.5751  -14.1998 O   0  0  0  0  0  0  0  0  0  0  0  0
   18.2334   -5.8921  -14.0527 O   0  0  0  0  0  0  0  0  0  0  0  0
   22.4318   -2.6709  -17.2156 C   0  0  0  0  0  0  0  0  0  0  0  0
   22.2879   -3.4655  -15.9090 C   0  0  2  0  0  0  0  0  0  0  0  0
   21.6220   -4.7415  -16.1912 N   0  0  0  0  0  0  0  0  0  0  0  0
   21.5041   -2.6419  -14.9676 C   0  0  0  0  0  0  0  0  0  0  0  0
   22.1166   -1.6552  -14.2047 O   0  0  0  0  0  0  0  0  0  0  0  0
   20.2591   -2.8560  -14.8712 O   0  0  0  0  0  0  0  0  0  0  0  0
  2  1  1  0
  2  3  2  0
  4  2  1  0
  5  4  1  0
  6  8  1  0
  6  5  1  0
  6  7  1  1
  8 10  1  0
  9  8  2  0
 11 10  1  0
 11 15  1  0
 11 12  1  1
 12 13  1  0
 13 14  2  0
 13 17  1  0
 15 16  2  0
 15 20  1  0
 19 21  1  0
 19 18  1  6
 20 19  1  0
 21 22  1  0
 23 21  2  0
M  END
$$$$
