QDA.pdb
     RDKit          3D

 23 22  0  0  1  0  0  0  0  0999 V2000
   22.0131  -27.9663  -18.5747 N   0  0  0  0  0  0  0  0  0  0  0  0
   22.5042  -26.6915  -18.1287 C   0  0  0  0  0  0  0  0  0  0  0  0
   22.1006  -25.6565  -18.7249 O   0  0  0  0  0  0  0  0  0  0  0  0
   23.4541  -26.6866  -16.9939 C   0  0  0  0  0  0  0  0  0  0  0  0
   22.8051  -26.2904  -15.6885 C   0  0  0  0  0  0  0  0  0  0  0  0
   22.6678  -24.7637  -15.6084 C   0  0  2  0  0  0  0  0  0  0  0  0
   24.0097  -24.3190  -15.1896 N   0  0  0  0  0  0  0  0  0  0  0  0
   21.7292  -24.4479  -14.5110 C   0  0  0  0  0  0  0  0  0  0  0  0
   22.1084  -24.5541  -13.3244 O   0  0  0  0  0  0  0  0  0  0  0  0
   20.3814  -24.0163  -14.7081 N   0  0  0  0  0  0  0  0  0  0  0  0
   19.4863  -23.7839  -13.5824 C   0  0  1  0  0  0  0  0  0  0  0  0
   18.3688  -22.8303  -13.9884 C   0  0  0  0  0  0  0  0  0  0  0  0
   18.8895  -21.4818  -14.2802 C   0  0  0  0  0  0  0  0  0  0  0  0
   18.5144  -20.8410  -15.2963 O   0  0  0  0  0  0  0  0  0  0  0  0
   18.9614  -25.0199  -12.9968 C   0  0  0  0  0  0  0  0  0  0  0  0
   18.6935  -26.0282  -13.7391 O   0  0  0  0  0  0  0  0  0  0  0  0
   19.8127  -20.8839  -13.4346 O   0  0  0  0  0  0  0  0  0  0  0  0
   19.3733  -27.2450  -10.3994 C   0  0  0  0  0  0  0  0  0  0  0  0
   18.2246  -26.5166  -11.1130 C   0  0  2  0  0  0  0  0  0  0  0  0
   18.7066  -25.2221  -11.6061 N   0  0  0  0  0  0  0  0  0  0  0  0
   17.1263  -26.3512  -10.1408 C   0  0  0  0  0  0  0  0  0  0  0  0
   16.7775  -25.0919   -9.6683 O   0  0  0  0  0  0  0  0  0  0  0  0
   16.5088  -27.3850   -9.7467 O   0  0  0  0  0  0  0  0  0  0  0  0
  2  1  1  0
  2  3  2  0
  4  2  1  0
  5  4  1  0
  6  8  1  0
  6  5  1  0
  6  7  1  1
  8 10  1  0
  9  8  2  0
 11 10  1  0
 11 15  1  0
 11 12  1  6
 12 13  1  0
 13 14  2  0
 13 17  1  0
 15 16  2  0
 15 20  1  0
 19 21  1  0
 19 18  1  1
 20 19  1  0
 21 22  1  0
 23 21  2  0
M  END
$$$$
