QDA.pdb
     RDKit          3D

 23 22  0  0  1  0  0  0  0  0999 V2000
   17.3813  -12.1110  -13.9458 N   0  0  0  0  0  0  0  0  0  0  0  0
   17.1890  -12.9308  -15.1104 C   0  0  0  0  0  0  0  0  0  0  0  0
   16.2852  -13.8092  -15.0772 O   0  0  0  0  0  0  0  0  0  0  0  0
   18.0717  -12.6819  -16.2719 C   0  0  0  0  0  0  0  0  0  0  0  0
   19.0725  -11.5784  -16.0212 C   0  0  0  0  0  0  0  0  0  0  0  0
   18.3823  -10.2099  -16.1045 C   0  0  2  0  0  0  0  0  0  0  0  0
   17.7188  -10.2386  -17.4209 N   0  0  0  0  0  0  0  0  0  0  0  0
   19.4336   -9.1721  -16.1561 C   0  0  0  0  0  0  0  0  0  0  0  0
   20.3680   -9.1979  -15.3258 O   0  0  0  0  0  0  0  0  0  0  0  0
   19.4657   -8.1102  -17.1116 N   0  0  0  0  0  0  0  0  0  0  0  0
   20.5454   -7.1321  -17.1237 C   0  0  1  0  0  0  0  0  0  0  0  0
   20.6188   -6.4481  -18.4838 C   0  0  0  0  0  0  0  0  0  0  0  0
   21.0187   -7.3935  -19.5425 C   0  0  0  0  0  0  0  0  0  0  0  0
   22.0980   -8.0370  -19.4718 O   0  0  0  0  0  0  0  0  0  0  0  0
   20.4580   -6.1613  -16.0300 C   0  0  0  0  0  0  0  0  0  0  0  0
   19.3777   -5.5039  -15.8293 O   0  0  0  0  0  0  0  0  0  0  0  0
   20.2082   -7.5965  -20.6500 O   0  0  0  0  0  0  0  0  0  0  0  0
   22.3377   -5.2104  -12.9052 C   0  0  0  0  0  0  0  0  0  0  0  0
   21.2999   -4.9314  -14.0027 C   0  0  2  0  0  0  0  0  0  0  0  0
   21.5142   -5.8610  -15.1168 N   0  0  0  0  0  0  0  0  0  0  0  0
   21.4646   -3.5278  -14.4289 C   0  0  0  0  0  0  0  0  0  0  0  0
   21.8860   -3.2196  -15.7166 O   0  0  0  0  0  0  0  0  0  0  0  0
   21.2129   -2.6100  -13.5925 O   0  0  0  0  0  0  0  0  0  0  0  0
  2  1  1  0
  2  3  2  0
  4  2  1  0
  5  4  1  0
  6  8  1  0
  6  5  1  0
  6  7  1  6
  8 10  1  0
  9  8  2  0
 11 10  1  0
 11 15  1  0
 11 12  1  6
 12 13  1  0
 13 14  2  0
 13 17  1  0
 15 16  2  0
 15 20  1  0
 19 21  1  0
 19 18  1  1
 20 19  1  0
 21 22  1  0
 23 21  2  0
M  END
$$$$
