QDA.pdb
     RDKit          3D

 23 22  0  0  1  0  0  0  0  0999 V2000
   19.1221  -13.4107  -15.8057 N   0  0  0  0  0  0  0  0  0  0  0  0
   17.8957  -14.0967  -15.5047 C   0  0  0  0  0  0  0  0  0  0  0  0
   17.9658  -15.2776  -15.0687 O   0  0  0  0  0  0  0  0  0  0  0  0
   16.6311  -13.3616  -15.7296 C   0  0  0  0  0  0  0  0  0  0  0  0
   16.8539  -11.9340  -16.1708 C   0  0  0  0  0  0  0  0  0  0  0  0
   17.0573  -11.0286  -14.9482 C   0  0  2  0  0  0  0  0  0  0  0  0
   15.7031  -10.9125  -14.3768 N   0  0  0  0  0  0  0  0  0  0  0  0
   17.4542   -9.6901  -15.4338 C   0  0  0  0  0  0  0  0  0  0  0  0
   16.8973   -9.2100  -16.4450 O   0  0  0  0  0  0  0  0  0  0  0  0
   18.4547   -8.8776  -14.8170 N   0  0  0  0  0  0  0  0  0  0  0  0
   18.6910   -7.5061  -15.2480 C   0  0  1  0  0  0  0  0  0  0  0  0
   17.3956   -6.7055  -15.1852 C   0  0  0  0  0  0  0  0  0  0  0  0
   17.5996   -5.3133  -15.6266 C   0  0  0  0  0  0  0  0  0  0  0  0
   18.5024   -4.5935  -15.1260 O   0  0  0  0  0  0  0  0  0  0  0  0
   19.7740   -6.8479  -14.5131 C   0  0  0  0  0  0  0  0  0  0  0  0
   19.7502   -6.7898  -13.2342 O   0  0  0  0  0  0  0  0  0  0  0  0
   16.7941   -4.7604  -16.6115 O   0  0  0  0  0  0  0  0  0  0  0  0
   23.2539   -5.5151  -15.1791 C   0  0  0  0  0  0  0  0  0  0  0  0
   22.0226   -5.7411  -14.2889 C   0  0  2  0  0  0  0  0  0  0  0  0
   20.9145   -6.2331  -15.1142 N   0  0  0  0  0  0  0  0  0  0  0  0
   21.6907   -4.4536  -13.6479 C   0  0  0  0  0  0  0  0  0  0  0  0
   22.3927   -4.0116  -12.5332 O   0  0  0  0  0  0  0  0  0  0  0  0
   20.7500   -3.7606  -14.1379 O   0  0  0  0  0  0  0  0  0  0  0  0
  2  1  1  0
  2  3  2  0
  4  2  1  0
  5  4  1  0
  6  8  1  0
  6  5  1  0
  6  7  1  6
  8 10  1  0
  9  8  2  0
 11 10  1  0
 11 15  1  0
 11 12  1  1
 12 13  1  0
 13 14  2  0
 13 17  1  0
 15 16  2  0
 15 20  1  0
 19 21  1  0
 19 18  1  6
 20 19  1  0
 21 22  1  0
 23 21  2  0
M  END
$$$$
