QDA.pdb
     RDKit          3D

 23 22  0  0  1  0  0  0  0  0999 V2000
   16.5905  -13.7403  -18.2378 N   0  0  0  0  0  0  0  0  0  0  0  0
   17.3804  -13.6161  -19.4320 C   0  0  0  0  0  0  0  0  0  0  0  0
   17.0522  -14.3032  -20.4368 O   0  0  0  0  0  0  0  0  0  0  0  0
   18.5292  -12.6839  -19.3949 C   0  0  0  0  0  0  0  0  0  0  0  0
   18.7275  -12.0524  -18.0369 C   0  0  0  0  0  0  0  0  0  0  0  0
   19.9677  -11.1482  -18.0505 C   0  0  2  0  0  0  0  0  0  0  0  0
   21.0754  -12.0791  -17.7672 N   0  0  0  0  0  0  0  0  0  0  0  0
   19.8639  -10.2157  -16.9082 C   0  0  0  0  0  0  0  0  0  0  0  0
   19.2923  -10.5852  -15.8595 O   0  0  0  0  0  0  0  0  0  0  0  0
   20.3833   -8.8846  -16.9102 N   0  0  0  0  0  0  0  0  0  0  0  0
   20.3291   -8.0467  -15.7196 C   0  0  1  0  0  0  0  0  0  0  0  0
   20.8769   -8.8066  -14.5173 C   0  0  0  0  0  0  0  0  0  0  0  0
   20.8150   -7.9918  -13.2898 C   0  0  0  0  0  0  0  0  0  0  0  0
   19.8115   -7.2792  -13.0270 O   0  0  0  0  0  0  0  0  0  0  0  0
   20.9920   -6.7519  -15.8935 C   0  0  0  0  0  0  0  0  0  0  0  0
   22.2538   -6.6906  -16.1025 O   0  0  0  0  0  0  0  0  0  0  0  0
   21.8704   -7.9915  -12.3894 O   0  0  0  0  0  0  0  0  0  0  0  0
   20.0850   -3.0738  -16.1964 C   0  0  0  0  0  0  0  0  0  0  0  0
   21.0729   -4.2482  -16.1311 C   0  0  2  0  0  0  0  0  0  0  0  0
   20.3348   -5.4845  -15.8517 N   0  0  0  0  0  0  0  0  0  0  0  0
   22.0532   -3.9506  -15.0685 C   0  0  0  0  0  0  0  0  0  0  0  0
   23.1309   -3.1074  -15.3102 O   0  0  0  0  0  0  0  0  0  0  0  0
   21.8892   -4.4824  -13.9303 O   0  0  0  0  0  0  0  0  0  0  0  0
  2  1  1  0
  2  3  2  0
  4  2  1  0
  5  4  1  0
  6  8  1  0
  6  5  1  0
  6  7  1  1
  8 10  1  0
  9  8  2  0
 11 10  1  0
 11 15  1  0
 11 12  1  1
 12 13  1  0
 13 14  2  0
 13 17  1  0
 15 16  2  0
 15 20  1  0
 19 21  1  0
 19 18  1  1
 20 19  1  0
 21 22  1  0
 23 21  2  0
M  END
$$$$
