QDA.pdb
     RDKit          3D

 23 22  0  0  1  0  0  0  0  0999 V2000
   34.0320  -34.1046   -6.8883 N   0  0  0  0  0  0  0  0  0  0  0  0
   32.6377  -33.7765   -7.0040 C   0  0  0  0  0  0  0  0  0  0  0  0
   32.2506  -33.1815   -8.0460 O   0  0  0  0  0  0  0  0  0  0  0  0
   31.7516  -34.1640   -5.8838 C   0  0  0  0  0  0  0  0  0  0  0  0
   32.5032  -34.7872   -4.7310 C   0  0  0  0  0  0  0  0  0  0  0  0
   31.5167  -35.3120   -3.6788 C   0  0  2  0  0  0  0  0  0  0  0  0
   30.8336  -34.0927   -3.2090 N   0  0  0  0  0  0  0  0  0  0  0  0
   32.3012  -35.8493   -2.5470 C   0  0  0  0  0  0  0  0  0  0  0  0
   32.8396  -36.9732   -2.6473 O   0  0  0  0  0  0  0  0  0  0  0  0
   32.4984  -35.1617   -1.3101 N   0  0  0  0  0  0  0  0  0  0  0  0
   33.2846  -35.7477   -0.2325 C   0  0  1  0  0  0  0  0  0  0  0  0
   34.2622  -34.7190    0.3233 C   0  0  0  0  0  0  0  0  0  0  0  0
   35.1057  -35.2956    1.3867 C   0  0  0  0  0  0  0  0  0  0  0  0
   34.6933  -35.3865    2.5723 O   0  0  0  0  0  0  0  0  0  0  0  0
   32.4631  -36.3444    0.8235 C   0  0  0  0  0  0  0  0  0  0  0  0
   33.0099  -36.9790    1.7920 O   0  0  0  0  0  0  0  0  0  0  0  0
   36.3837  -35.7544    1.1025 O   0  0  0  0  0  0  0  0  0  0  0  0
   29.0126  -36.0888    2.2449 C   0  0  0  0  0  0  0  0  0  0  0  0
   30.3085  -36.8787    2.0083 C   0  0  2  0  0  0  0  0  0  0  0  0
   31.0374  -36.2842    0.8829 N   0  0  0  0  0  0  0  0  0  0  0  0
   29.9351  -38.2799    1.7323 C   0  0  0  0  0  0  0  0  0  0  0  0
   30.2437  -38.8720    0.5137 O   0  0  0  0  0  0  0  0  0  0  0  0
   29.3261  -38.9304    2.6329 O   0  0  0  0  0  0  0  0  0  0  0  0
  2  1  1  0
  2  3  2  0
  4  2  1  0
  5  4  1  0
  6  8  1  0
  6  5  1  0
  6  7  1  1
  8 10  1  0
  9  8  2  0
 11 10  1  0
 11 15  1  0
 11 12  1  1
 12 13  1  0
 13 14  2  0
 13 17  1  0
 15 16  2  0
 15 20  1  0
 19 21  1  0
 19 18  1  6
 20 19  1  0
 21 22  1  0
 23 21  2  0
M  END
$$$$
