QDA.pdb
     RDKit          3D

 23 22  0  0  1  0  0  0  0  0999 V2000
   15.3805  -12.3167  -17.0962 N   0  0  0  0  0  0  0  0  0  0  0  0
   16.2825  -13.4196  -17.2840 C   0  0  0  0  0  0  0  0  0  0  0  0
   15.7961  -14.5805  -17.3576 O   0  0  0  0  0  0  0  0  0  0  0  0
   17.7266  -13.1100  -17.3786 C   0  0  0  0  0  0  0  0  0  0  0  0
   18.0143  -11.6289  -17.3029 C   0  0  0  0  0  0  0  0  0  0  0  0
   18.9083  -11.3252  -16.0928 C   0  0  2  0  0  0  0  0  0  0  0  0
   18.0789  -11.7283  -14.9423 N   0  0  0  0  0  0  0  0  0  0  0  0
   19.0931   -9.8605  -16.0194 C   0  0  0  0  0  0  0  0  0  0  0  0
   19.8201   -9.2870  -16.8596 O   0  0  0  0  0  0  0  0  0  0  0  0
   18.4856   -9.0241  -15.0329 N   0  0  0  0  0  0  0  0  0  0  0  0
   18.6232   -7.5744  -15.0775 C   0  0  1  0  0  0  0  0  0  0  0  0
   17.3982   -6.9116  -14.4584 C   0  0  0  0  0  0  0  0  0  0  0  0
   16.1961   -7.1179  -15.2873 C   0  0  0  0  0  0  0  0  0  0  0  0
   16.2139   -6.9123  -16.5287 O   0  0  0  0  0  0  0  0  0  0  0  0
   19.8673   -7.0931  -14.4719 C   0  0  0  0  0  0  0  0  0  0  0  0
   20.1379   -7.3541  -13.2479 O   0  0  0  0  0  0  0  0  0  0  0  0
   15.0082   -7.5463  -14.7129 O   0  0  0  0  0  0  0  0  0  0  0  0
   23.1294   -5.4531  -15.4517 C   0  0  0  0  0  0  0  0  0  0  0  0
   22.0435   -5.8307  -14.4330 C   0  0  2  0  0  0  0  0  0  0  0  0
   20.8608   -6.3215  -15.1482 N   0  0  0  0  0  0  0  0  0  0  0  0
   21.7351   -4.6250  -13.6392 C   0  0  0  0  0  0  0  0  0  0  0  0
   22.5117   -4.2782  -12.5404 O   0  0  0  0  0  0  0  0  0  0  0  0
   20.7448   -3.9134  -13.9832 O   0  0  0  0  0  0  0  0  0  0  0  0
  2  1  1  0
  2  3  2  0
  4  2  1  0
  5  4  1  0
  6  8  1  0
  6  5  1  0
  6  7  1  1
  8 10  1  0
  9  8  2  0
 11 10  1  0
 11 15  1  0
 11 12  1  1
 12 13  1  0
 13 14  2  0
 13 17  1  0
 15 16  2  0
 15 20  1  0
 19 21  1  0
 19 18  1  6
 20 19  1  0
 21 22  1  0
 23 21  2  0
M  END
$$$$
