QDA.pdb
     RDKit          3D

 23 22  0  0  1  0  0  0  0  0999 V2000
   18.0040   -9.7199  -12.6405 N   0  0  0  0  0  0  0  0  0  0  0  0
   17.6322  -10.9927  -12.0864 C   0  0  0  0  0  0  0  0  0  0  0  0
   18.2941  -12.0086  -12.4321 O   0  0  0  0  0  0  0  0  0  0  0  0
   16.4918  -11.0182  -11.1434 C   0  0  0  0  0  0  0  0  0  0  0  0
   15.9408   -9.6418  -10.8534 C   0  0  0  0  0  0  0  0  0  0  0  0
   14.9164   -9.7121   -9.7125 C   0  0  2  0  0  0  0  0  0  0  0  0
   13.7890  -10.4531  -10.3073 N   0  0  0  0  0  0  0  0  0  0  0  0
   14.4506   -8.3373   -9.4334 C   0  0  0  0  0  0  0  0  0  0  0  0
   13.5431   -7.8387  -10.1341 O   0  0  0  0  0  0  0  0  0  0  0  0
   14.9726   -7.5099   -8.3920 N   0  0  0  0  0  0  0  0  0  0  0  0
   14.4843   -6.1531   -8.1835 C   0  0  1  0  0  0  0  0  0  0  0  0
   14.3924   -5.8517   -6.6922 C   0  0  0  0  0  0  0  0  0  0  0  0
   13.6871   -4.5813   -6.4409 C   0  0  0  0  0  0  0  0  0  0  0  0
   13.2118   -3.8986   -7.3852 O   0  0  0  0  0  0  0  0  0  0  0  0
   15.2677   -5.1411   -8.8963 C   0  0  0  0  0  0  0  0  0  0  0  0
   16.5322   -5.0517   -8.7157 O   0  0  0  0  0  0  0  0  0  0  0  0
   13.5303   -4.1055   -5.1472 O   0  0  0  0  0  0  0  0  0  0  0  0
   16.4415   -2.5114   -9.3369 C   0  0  0  0  0  0  0  0  0  0  0  0
   15.5904   -3.1733  -10.4310 C   0  0  2  0  0  0  0  0  0  0  0  0
   14.7319   -4.1949   -9.8224 N   0  0  0  0  0  0  0  0  0  0  0  0
   16.5129   -3.7610  -11.4221 C   0  0  0  0  0  0  0  0  0  0  0  0
   17.3966   -2.9598  -12.1348 O   0  0  0  0  0  0  0  0  0  0  0  0
   16.4799   -5.0138  -11.6083 O   0  0  0  0  0  0  0  0  0  0  0  0
  2  1  1  0
  2  3  2  0
  4  2  1  0
  5  4  1  0
  6  8  1  0
  6  5  1  0
  6  7  1  6
  8 10  1  0
  9  8  2  0
 11 10  1  0
 11 15  1  0
 11 12  1  1
 12 13  1  0
 13 14  2  0
 13 17  1  0
 15 16  2  0
 15 20  1  0
 19 21  1  0
 19 18  1  1
 20 19  1  0
 21 22  1  0
 23 21  2  0
M  END
$$$$
