EKI.pdb
     RDKit          3D

 27 26  0  0  1  0  0  0  0  0999 V2000
   14.4616  -17.2670    7.4566 N   0  0  0  0  0  0  0  0  0  0  0  0
   15.5415  -17.5573    6.5851 C   0  0  1  0  0  0  0  0  0  0  0  0
   16.9115  -17.2831    7.0878 C   0  0  0  0  0  0  0  0  0  0  0  0
   17.4180  -18.1786    8.1718 C   0  0  0  0  0  0  0  0  0  0  0  0
   18.7339  -17.8742    8.7221 C   0  0  0  0  0  0  0  0  0  0  0  0
   19.7993  -18.4232    8.3887 O   0  0  0  0  0  0  0  0  0  0  0  0
   15.4359  -18.9396    5.9936 C   0  0  0  0  0  0  0  0  0  0  0  0
   15.2069  -19.9059    6.7657 O   0  0  0  0  0  0  0  0  0  0  0  0
   18.8228  -16.8814    9.7113 O   0  0  0  0  0  0  0  0  0  0  0  0
   15.5817  -19.1891    4.6265 N   0  0  0  0  0  0  0  0  0  0  0  0
   15.3713  -20.5389    4.0260 C   0  0  1  0  0  0  0  0  0  0  0  0
   15.0407  -20.3532    2.5871 C   0  0  0  0  0  0  0  0  0  0  0  0
   14.8187  -21.5952    1.7876 C   0  0  0  0  0  0  0  0  0  0  0  0
   14.5078  -21.3008    0.3317 C   0  0  0  0  0  0  0  0  0  0  0  0
   14.3846  -22.5443   -0.5059 C   0  0  0  0  0  0  0  0  0  0  0  0
   14.2508  -22.2209   -1.9200 N   0  0  0  0  0  0  0  0  0  0  0  0
   16.5520  -21.3190    4.3673 C   0  0  0  0  0  0  0  0  0  0  0  0
   17.6733  -20.7228    4.3710 O   0  0  0  0  0  0  0  0  0  0  0  0
   19.2934  -24.9139    8.2734 C   0  0  0  0  0  0  0  0  0  0  0  0
   19.1251  -24.5337    6.8595 C   0  0  0  0  0  0  0  0  0  0  0  0
   17.9527  -23.7066    6.4701 C   0  0  2  0  0  0  0  0  0  0  0  0
   16.6735  -24.1544    7.1400 C   0  0  0  0  0  0  0  0  0  0  0  0
   17.8782  -23.3291    5.0627 C   0  0  2  0  0  0  0  0  0  0  0  0
   16.6332  -22.6705    4.7084 N   0  0  0  0  0  0  0  0  0  0  0  0
   18.1270  -24.3639    4.0569 C   0  0  0  0  0  0  0  0  0  0  0  0
   19.2429  -24.8370    3.7220 O   0  0  0  0  0  0  0  0  0  0  0  0
   17.0273  -24.9144    3.3694 O   0  0  0  0  0  0  0  0  0  0  0  0
  2  1  1  1
  3  2  1  0
  4  3  1  0
  5  4  1  0
  5  6  2  0
  7  2  1  0
  7  8  2  0
  9  5  1  0
 10  7  1  0
 11 10  1  0
 11 12  1  6
 13 12  1  0
 13 14  1  0
 15 14  1  0
 16 15  1  0
 17 11  1  0
 18 17  2  0
 19 20  1  0
 20 21  1  0
 21 22  1  6
 21 23  1  0
 23 25  1  0
 23 24  1  6
 24 17  1  0
 25 27  1  0
 26 25  2  0
M  END
$$$$
