EKI.pdb
     RDKit          3D

 27 26  0  0  1  0  0  0  0  0999 V2000
   28.4419  -19.3907  -17.7203 N   0  0  0  0  0  0  0  0  0  0  0  0
   27.6635  -18.6193  -16.8209 C   0  0  1  0  0  0  0  0  0  0  0  0
   26.8844  -17.4920  -17.3928 C   0  0  0  0  0  0  0  0  0  0  0  0
   25.9315  -17.8282  -18.4940 C   0  0  0  0  0  0  0  0  0  0  0  0
   24.5901  -17.2628  -18.4052 C   0  0  0  0  0  0  0  0  0  0  0  0
   23.5630  -17.7627  -18.8982 O   0  0  0  0  0  0  0  0  0  0  0  0
   26.8118  -19.4820  -15.9254 C   0  0  0  0  0  0  0  0  0  0  0  0
   26.2423  -20.4858  -16.4256 O   0  0  0  0  0  0  0  0  0  0  0  0
   24.4273  -16.0542  -17.7090 O   0  0  0  0  0  0  0  0  0  0  0  0
   26.6306  -19.2117  -14.5665 N   0  0  0  0  0  0  0  0  0  0  0  0
   25.8506  -20.1074  -13.6629 C   0  0  1  0  0  0  0  0  0  0  0  0
   26.2829  -19.8363  -12.2652 C   0  0  0  0  0  0  0  0  0  0  0  0
   25.5926  -20.6111  -11.1909 C   0  0  0  0  0  0  0  0  0  0  0  0
   25.9732  -20.1404   -9.7994 C   0  0  0  0  0  0  0  0  0  0  0  0
   25.3616  -20.9764   -8.7084 C   0  0  0  0  0  0  0  0  0  0  0  0
   25.7436  -20.4903   -7.3894 N   0  0  0  0  0  0  0  0  0  0  0  0
   24.4505  -19.9016  -14.0041 C   0  0  0  0  0  0  0  0  0  0  0  0
   24.0596  -18.7096  -14.2018 O   0  0  0  0  0  0  0  0  0  0  0  0
   21.1025  -20.1026  -18.0753 C   0  0  0  0  0  0  0  0  0  0  0  0
   21.6052  -19.8125  -16.7206 C   0  0  0  0  0  0  0  0  0  0  0  0
   21.5530  -20.8810  -15.6883 C   0  0  2  0  0  0  0  0  0  0  0  0
   20.2820  -21.6970  -15.7558 C   0  0  0  0  0  0  0  0  0  0  0  0
   22.0468  -20.5137  -14.3653 C   0  0  2  0  0  0  0  0  0  0  0  0
   23.4428  -20.8559  -14.1565 N   0  0  0  0  0  0  0  0  0  0  0  0
   21.3017  -20.9841  -13.1959 C   0  0  0  0  0  0  0  0  0  0  0  0
   21.7097  -21.7801  -12.3121 O   0  0  0  0  0  0  0  0  0  0  0  0
   19.9856  -20.5195  -13.0030 O   0  0  0  0  0  0  0  0  0  0  0  0
  2  1  1  6
  3  2  1  0
  4  3  1  0
  5  4  1  0
  5  6  2  0
  7  2  1  0
  7  8  2  0
  9  5  1  0
 10  7  1  0
 11 10  1  0
 11 12  1  1
 13 12  1  0
 13 14  1  0
 15 14  1  0
 16 15  1  0
 17 11  1  0
 18 17  2  0
 19 20  1  0
 20 21  1  0
 21 22  1  1
 21 23  1  0
 23 25  1  0
 23 24  1  1
 24 17  1  0
 25 27  1  0
 26 25  2  0
M  END
$$$$
