EKI.pdb
     RDKit          3D

 27 26  0  0  1  0  0  0  0  0999 V2000
   22.4454  -19.8706  -16.5464 N   0  0  0  0  0  0  0  0  0  0  0  0
   23.0170  -19.0835  -15.5151 C   0  0  1  0  0  0  0  0  0  0  0  0
   22.0886  -18.2753  -14.6848 C   0  0  0  0  0  0  0  0  0  0  0  0
   20.6274  -18.4928  -14.9107 C   0  0  0  0  0  0  0  0  0  0  0  0
   20.2193  -18.9204  -16.2440 C   0  0  0  0  0  0  0  0  0  0  0  0
   20.4540  -18.3076  -17.3009 O   0  0  0  0  0  0  0  0  0  0  0  0
   23.9740  -19.8762  -14.6623 C   0  0  0  0  0  0  0  0  0  0  0  0
   23.5003  -20.6853  -13.8236 O   0  0  0  0  0  0  0  0  0  0  0  0
   19.5012  -20.1214  -16.3617 O   0  0  0  0  0  0  0  0  0  0  0  0
   25.3616  -19.7484  -14.7660 N   0  0  0  0  0  0  0  0  0  0  0  0
   26.3102  -20.5892  -13.9784 C   0  0  1  0  0  0  0  0  0  0  0  0
   27.6403  -20.5224  -14.6421 C   0  0  0  0  0  0  0  0  0  0  0  0
   27.9418  -21.5905  -15.6417 C   0  0  0  0  0  0  0  0  0  0  0  0
   28.4242  -21.0274  -16.9657 C   0  0  0  0  0  0  0  0  0  0  0  0
   28.7330  -22.0942  -17.9805 C   0  0  0  0  0  0  0  0  0  0  0  0
   29.1172  -21.5144  -19.2604 N   0  0  0  0  0  0  0  0  0  0  0  0
   26.2032  -20.1321  -12.6005 C   0  0  0  0  0  0  0  0  0  0  0  0
   26.0383  -18.8888  -12.4015 O   0  0  0  0  0  0  0  0  0  0  0  0
   22.4260  -20.2980   -9.3917 C   0  0  0  0  0  0  0  0  0  0  0  0
   23.7251  -20.0693  -10.0490 C   0  0  0  0  0  0  0  0  0  0  0  0
   24.9633  -20.5610   -9.3892 C   0  0  2  0  0  0  0  0  0  0  0  0
   24.9543  -20.3427   -7.8933 C   0  0  0  0  0  0  0  0  0  0  0  0
   26.2108  -20.2998  -10.0995 C   0  0  2  0  0  0  0  0  0  0  0  0
   26.2512  -20.8873  -11.4271 N   0  0  0  0  0  0  0  0  0  0  0  0
   27.4688  -20.6404   -9.4321 C   0  0  0  0  0  0  0  0  0  0  0  0
   28.2746  -21.5482   -9.7602 O   0  0  0  0  0  0  0  0  0  0  0  0
   27.8544  -19.8963   -8.2995 O   0  0  0  0  0  0  0  0  0  0  0  0
  2  1  1  1
  3  2  1  0
  4  3  1  0
  5  4  1  0
  5  6  2  0
  7  2  1  0
  7  8  2  0
  9  5  1  0
 10  7  1  0
 11 10  1  0
 11 12  1  6
 13 12  1  0
 13 14  1  0
 15 14  1  0
 16 15  1  0
 17 11  1  0
 18 17  2  0
 19 20  1  0
 20 21  1  0
 21 22  1  1
 21 23  1  0
 23 25  1  0
 23 24  1  6
 24 17  1  0
 25 27  1  0
 26 25  2  0
M  END
$$$$
