EKI.pdb
     RDKit          3D

 27 26  0  0  1  0  0  0  0  0999 V2000
   27.3859  -19.4234  -16.6524 N   0  0  0  0  0  0  0  0  0  0  0  0
   27.2547  -20.4542  -15.6881 C   0  0  1  0  0  0  0  0  0  0  0  0
   28.5056  -21.0799  -15.1894 C   0  0  0  0  0  0  0  0  0  0  0  0
   29.3618  -21.7649  -16.2049 C   0  0  0  0  0  0  0  0  0  0  0  0
   28.6896  -22.6467  -17.1523 C   0  0  0  0  0  0  0  0  0  0  0  0
   27.8291  -23.4965  -16.8606 O   0  0  0  0  0  0  0  0  0  0  0  0
   26.3453  -20.0563  -14.5539 C   0  0  0  0  0  0  0  0  0  0  0  0
   26.4030  -18.8749  -14.1258 O   0  0  0  0  0  0  0  0  0  0  0  0
   29.0306  -22.5402  -18.5104 O   0  0  0  0  0  0  0  0  0  0  0  0
   25.4438  -20.9446  -13.9616 N   0  0  0  0  0  0  0  0  0  0  0  0
   24.4559  -20.5207  -12.9266 C   0  0  1  0  0  0  0  0  0  0  0  0
   23.1263  -21.0662  -13.3124 C   0  0  0  0  0  0  0  0  0  0  0  0
   22.0215  -20.8944  -12.3220 C   0  0  0  0  0  0  0  0  0  0  0  0
   20.7122  -21.4919  -12.8032 C   0  0  0  0  0  0  0  0  0  0  0  0
   19.5678  -21.2353  -11.8611 C   0  0  0  0  0  0  0  0  0  0  0  0
   18.3160  -21.7590  -12.3910 N   0  0  0  0  0  0  0  0  0  0  0  0
   25.0199  -20.9201  -11.6454 C   0  0  0  0  0  0  0  0  0  0  0  0
   25.5120  -22.0872  -11.5545 O   0  0  0  0  0  0  0  0  0  0  0  0
   28.4253  -19.7162   -6.7757 C   0  0  0  0  0  0  0  0  0  0  0  0
   27.3152  -20.4570   -7.4011 C   0  0  0  0  0  0  0  0  0  0  0  0
   26.7470  -19.9588   -8.6814 C   0  0  2  0  0  0  0  0  0  0  0  0
   26.6502  -18.4508   -8.7301 C   0  0  0  0  0  0  0  0  0  0  0  0
   25.6270  -20.7223   -9.2215 C   0  0  2  0  0  0  0  0  0  0  0  0
   25.1070  -20.1802  -10.4645 N   0  0  0  0  0  0  0  0  0  0  0  0
   24.4829  -20.9820   -8.3453 C   0  0  0  0  0  0  0  0  0  0  0  0
   24.4885  -21.6377   -7.2723 O   0  0  0  0  0  0  0  0  0  0  0  0
   23.2251  -20.4592   -8.7056 O   0  0  0  0  0  0  0  0  0  0  0  0
  2  1  1  1
  3  2  1  0
  4  3  1  0
  5  4  1  0
  5  6  2  0
  7  2  1  0
  7  8  2  0
  9  5  1  0
 10  7  1  0
 11 10  1  0
 11 12  1  6
 13 12  1  0
 13 14  1  0
 15 14  1  0
 16 15  1  0
 17 11  1  0
 18 17  2  0
 19 20  1  0
 20 21  1  0
 21 22  1  1
 21 23  1  0
 23 25  1  0
 23 24  1  6
 24 17  1  0
 25 27  1  0
 26 25  2  0
M  END
$$$$
