EKI.pdb
     RDKit          3D

 27 26  0  0  1  0  0  0  0  0999 V2000
   25.7228  -21.1677  -10.4949 N   0  0  0  0  0  0  0  0  0  0  0  0
   25.3547  -21.5414  -11.8120 C   0  0  1  0  0  0  0  0  0  0  0  0
   23.9047  -21.6924  -12.0941 C   0  0  0  0  0  0  0  0  0  0  0  0
   23.0389  -20.5110  -11.7970 C   0  0  0  0  0  0  0  0  0  0  0  0
   21.6144  -20.6455  -12.0796 C   0  0  0  0  0  0  0  0  0  0  0  0
   20.7557  -19.7655  -11.8903 O   0  0  0  0  0  0  0  0  0  0  0  0
   26.0348  -20.6899  -12.8532 C   0  0  0  0  0  0  0  0  0  0  0  0
   26.6289  -19.6462  -12.4790 O   0  0  0  0  0  0  0  0  0  0  0  0
   21.1581  -21.8633  -12.6096 O   0  0  0  0  0  0  0  0  0  0  0  0
   26.0315  -21.0131  -14.2126 N   0  0  0  0  0  0  0  0  0  0  0  0
   26.8566  -20.2809  -15.2177 C   0  0  1  0  0  0  0  0  0  0  0  0
   27.2847  -21.2566  -16.2564 C   0  0  0  0  0  0  0  0  0  0  0  0
   28.6013  -21.9278  -16.0394 C   0  0  0  0  0  0  0  0  0  0  0  0
   28.9908  -22.8300  -17.1957 C   0  0  0  0  0  0  0  0  0  0  0  0
   30.3263  -23.4941  -16.9989 C   0  0  0  0  0  0  0  0  0  0  0  0
   30.6225  -24.4223  -18.0818 N   0  0  0  0  0  0  0  0  0  0  0  0
   26.0601  -19.1356  -15.6337 C   0  0  0  0  0  0  0  0  0  0  0  0
   24.7990  -19.2777  -15.6781 O   0  0  0  0  0  0  0  0  0  0  0  0
   23.9270  -13.9275  -15.6560 C   0  0  0  0  0  0  0  0  0  0  0  0
   25.1996  -14.3219  -16.2862 C   0  0  0  0  0  0  0  0  0  0  0  0
   25.9284  -15.5057  -15.7594 C   0  0  2  0  0  0  0  0  0  0  0  0
   27.3903  -15.2229  -15.4975 C   0  0  0  0  0  0  0  0  0  0  0  0
   25.5903  -16.7865  -16.3712 C   0  0  2  0  0  0  0  0  0  0  0  0
   26.4948  -17.8596  -15.9973 N   0  0  0  0  0  0  0  0  0  0  0  0
   25.4315  -16.8354  -17.8260 C   0  0  0  0  0  0  0  0  0  0  0  0
   24.5088  -16.3127  -18.5017 O   0  0  0  0  0  0  0  0  0  0  0  0
   26.3926  -17.5306  -18.5863 O   0  0  0  0  0  0  0  0  0  0  0  0
  2  1  1  1
  3  2  1  0
  4  3  1  0
  5  4  1  0
  5  6  2  0
  7  2  1  0
  7  8  2  0
  9  5  1  0
 10  7  1  0
 11 10  1  0
 11 12  1  6
 13 12  1  0
 13 14  1  0
 15 14  1  0
 16 15  1  0
 17 11  1  0
 18 17  2  0
 19 20  1  0
 20 21  1  0
 21 22  1  6
 21 23  1  0
 23 25  1  0
 23 24  1  6
 24 17  1  0
 25 27  1  0
 26 25  2  0
M  END
$$$$
