EKI.pdb
     RDKit          3D

 27 26  0  0  1  0  0  0  0  0999 V2000
   19.9186  -13.3086  -16.6046 N   0  0  0  0  0  0  0  0  0  0  0  0
   20.8185  -12.2527  -16.3130 C   0  0  1  0  0  0  0  0  0  0  0  0
   22.1231  -12.2579  -17.0221 C   0  0  0  0  0  0  0  0  0  0  0  0
   23.1646  -11.3144  -16.5136 C   0  0  0  0  0  0  0  0  0  0  0  0
   23.5291  -10.1997  -17.3805 C   0  0  0  0  0  0  0  0  0  0  0  0
   23.4360  -10.1908  -18.6210 O   0  0  0  0  0  0  0  0  0  0  0  0
   20.1522  -10.9030  -16.3910 C   0  0  0  0  0  0  0  0  0  0  0  0
   19.9003  -10.4237  -17.5264 O   0  0  0  0  0  0  0  0  0  0  0  0
   24.0282   -9.0321  -16.7807 O   0  0  0  0  0  0  0  0  0  0  0  0
   19.8044  -10.1659  -15.2560 N   0  0  0  0  0  0  0  0  0  0  0  0
   19.1961   -8.8053  -15.3329 C   0  0  1  0  0  0  0  0  0  0  0  0
   17.8989   -8.8422  -14.6050 C   0  0  0  0  0  0  0  0  0  0  0  0
   17.1557   -7.5508  -14.4996 C   0  0  0  0  0  0  0  0  0  0  0  0
   16.4944   -7.1531  -15.8062 C   0  0  0  0  0  0  0  0  0  0  0  0
   15.8215   -5.8092  -15.7390 C   0  0  0  0  0  0  0  0  0  0  0  0
   15.1363   -5.4956  -16.9857 N   0  0  0  0  0  0  0  0  0  0  0  0
   20.2206   -7.8805  -14.8703 C   0  0  0  0  0  0  0  0  0  0  0  0
   20.7971   -8.1401  -13.7689 O   0  0  0  0  0  0  0  0  0  0  0  0
   25.2015   -4.8623  -16.4659 C   0  0  0  0  0  0  0  0  0  0  0  0
   24.0443   -4.9807  -15.5609 C   0  0  0  0  0  0  0  0  0  0  0  0
   22.9086   -5.8559  -15.9538 C   0  0  2  0  0  0  0  0  0  0  0  0
   22.5437   -5.7191  -17.4146 C   0  0  0  0  0  0  0  0  0  0  0  0
   21.8143   -5.9496  -14.9932 C   0  0  2  0  0  0  0  0  0  0  0  0
   20.6813   -6.7142  -15.4843 N   0  0  0  0  0  0  0  0  0  0  0  0
   21.2893   -4.7076  -14.4224 C   0  0  0  0  0  0  0  0  0  0  0  0
   21.8894   -3.9225  -13.6448 O   0  0  0  0  0  0  0  0  0  0  0  0
   19.9779   -4.3141  -14.7547 O   0  0  0  0  0  0  0  0  0  0  0  0
  2  1  1  6
  3  2  1  0
  4  3  1  0
  5  4  1  0
  5  6  2  0
  7  2  1  0
  7  8  2  0
  9  5  1  0
 10  7  1  0
 11 10  1  0
 11 12  1  1
 13 12  1  0
 13 14  1  0
 15 14  1  0
 16 15  1  0
 17 11  1  0
 18 17  2  0
 19 20  1  0
 20 21  1  0
 21 22  1  6
 21 23  1  0
 23 25  1  0
 23 24  1  6
 24 17  1  0
 25 27  1  0
 26 25  2  0
M  END
$$$$
