EKI.pdb
     RDKit          3D

 27 26  0  0  1  0  0  0  0  0999 V2000
   20.9145  -21.0547  -13.2542 N   0  0  0  0  0  0  0  0  0  0  0  0
   20.9293  -20.1880  -14.3760 C   0  0  1  0  0  0  0  0  0  0  0  0
   19.7700  -19.2754  -14.5436 C   0  0  0  0  0  0  0  0  0  0  0  0
   18.4257  -19.9170  -14.6644 C   0  0  0  0  0  0  0  0  0  0  0  0
   17.9017  -20.5861  -13.4792 C   0  0  0  0  0  0  0  0  0  0  0  0
   18.2345  -20.3398  -12.3060 O   0  0  0  0  0  0  0  0  0  0  0  0
   22.2371  -19.4498  -14.5040 C   0  0  0  0  0  0  0  0  0  0  0  0
   22.5880  -18.6857  -13.5684 O   0  0  0  0  0  0  0  0  0  0  0  0
   16.9411  -21.5943  -13.6601 O   0  0  0  0  0  0  0  0  0  0  0  0
   23.0722  -19.5804  -15.6167 N   0  0  0  0  0  0  0  0  0  0  0  0
   24.3715  -18.8568  -15.7394 C   0  0  1  0  0  0  0  0  0  0  0  0
   25.3122  -19.7299  -16.4925 C   0  0  0  0  0  0  0  0  0  0  0  0
   26.6606  -19.1596  -16.7882 C   0  0  0  0  0  0  0  0  0  0  0  0
   27.5642  -20.1463  -17.5042 C   0  0  0  0  0  0  0  0  0  0  0  0
   28.8931  -19.5546  -17.8880 C   0  0  0  0  0  0  0  0  0  0  0  0
   29.7861  -20.5662  -18.4369 N   0  0  0  0  0  0  0  0  0  0  0  0
   24.0522  -17.5486  -16.2922 C   0  0  0  0  0  0  0  0  0  0  0  0
   23.1660  -17.4910  -17.1999 O   0  0  0  0  0  0  0  0  0  0  0  0
   22.4502  -12.2386  -16.3664 C   0  0  0  0  0  0  0  0  0  0  0  0
   23.8766  -12.6041  -16.3033 C   0  0  0  0  0  0  0  0  0  0  0  0
   24.2603  -13.9091  -15.7033 C   0  0  2  0  0  0  0  0  0  0  0  0
   25.4610  -13.8020  -14.7908 C   0  0  0  0  0  0  0  0  0  0  0  0
   24.1923  -15.0640  -16.5925 C   0  0  2  0  0  0  0  0  0  0  0  0
   24.5919  -16.3060  -15.9544 N   0  0  0  0  0  0  0  0  0  0  0  0
   24.8913  -14.9877  -17.8769 C   0  0  0  0  0  0  0  0  0  0  0  0
   24.4366  -14.5310  -18.9567 O   0  0  0  0  0  0  0  0  0  0  0  0
   26.2147  -15.4648  -17.9539 O   0  0  0  0  0  0  0  0  0  0  0  0
  2  1  1  1
  3  2  1  0
  4  3  1  0
  5  4  1  0
  5  6  2  0
  7  2  1  0
  7  8  2  0
  9  5  1  0
 10  7  1  0
 11 10  1  0
 11 12  1  6
 13 12  1  0
 13 14  1  0
 15 14  1  0
 16 15  1  0
 17 11  1  0
 18 17  2  0
 19 20  1  0
 20 21  1  0
 21 22  1  6
 21 23  1  0
 23 25  1  0
 23 24  1  1
 24 17  1  0
 25 27  1  0
 26 25  2  0
M  END
$$$$
