EKI.pdb
     RDKit          3D

 27 26  0  0  1  0  0  0  0  0999 V2000
   27.9512  -21.9267  -15.8262 N   0  0  0  0  0  0  0  0  0  0  0  0
   28.2212  -20.5381  -15.7331 C   0  0  1  0  0  0  0  0  0  0  0  0
   28.1684  -19.7509  -16.9910 C   0  0  0  0  0  0  0  0  0  0  0  0
   26.9059  -19.8431  -17.7853 C   0  0  0  0  0  0  0  0  0  0  0  0
   26.6570  -21.0947  -18.4914 C   0  0  0  0  0  0  0  0  0  0  0  0
   27.2189  -21.4540  -19.5416 O   0  0  0  0  0  0  0  0  0  0  0  0
   27.4268  -19.8792  -14.6347 C   0  0  0  0  0  0  0  0  0  0  0  0
   27.5419  -18.6369  -14.4744 O   0  0  0  0  0  0  0  0  0  0  0  0
   25.7072  -21.9786  -17.9543 O   0  0  0  0  0  0  0  0  0  0  0  0
   26.5705  -20.5912  -13.7907 N   0  0  0  0  0  0  0  0  0  0  0  0
   25.6714  -19.9237  -12.8043 C   0  0  1  0  0  0  0  0  0  0  0  0
   24.2789  -20.0121  -13.3213 C   0  0  0  0  0  0  0  0  0  0  0  0
   23.7065  -21.3842  -13.4658 C   0  0  0  0  0  0  0  0  0  0  0  0
   22.2934  -21.3686  -14.0186 C   0  0  0  0  0  0  0  0  0  0  0  0
   21.7640  -22.7448  -14.3172 C   0  0  0  0  0  0  0  0  0  0  0  0
   20.3594  -22.7016  -14.7013 N   0  0  0  0  0  0  0  0  0  0  0  0
   25.9683  -20.5310  -11.5150 C   0  0  0  0  0  0  0  0  0  0  0  0
   26.3711  -21.7353  -11.5079 O   0  0  0  0  0  0  0  0  0  0  0  0
   28.5469  -20.0009   -6.0358 C   0  0  0  0  0  0  0  0  0  0  0  0
   27.6107  -20.6734   -6.9542 C   0  0  0  0  0  0  0  0  0  0  0  0
   27.1630  -19.9582   -8.1782 C   0  0  2  0  0  0  0  0  0  0  0  0
   26.9058  -18.4884   -7.9349 C   0  0  0  0  0  0  0  0  0  0  0  0
   26.2156  -20.6756   -9.0249 C   0  0  2  0  0  0  0  0  0  0  0  0
   25.8774  -19.9614  -10.2435 N   0  0  0  0  0  0  0  0  0  0  0  0
   24.9611  -21.1320   -8.4231 C   0  0  0  0  0  0  0  0  0  0  0  0
   23.8014  -20.7375   -8.7070 O   0  0  0  0  0  0  0  0  0  0  0  0
   25.0149  -22.1165   -7.4167 O   0  0  0  0  0  0  0  0  0  0  0  0
  2  1  1  6
  3  2  1  0
  4  3  1  0
  5  4  1  0
  5  6  2  0
  7  2  1  0
  7  8  2  0
  9  5  1  0
 10  7  1  0
 11 10  1  0
 11 12  1  6
 13 12  1  0
 13 14  1  0
 15 14  1  0
 16 15  1  0
 17 11  1  0
 18 17  2  0
 19 20  1  0
 20 21  1  0
 21 22  1  1
 21 23  1  0
 23 25  1  0
 23 24  1  6
 24 17  1  0
 25 27  1  0
 26 25  2  0
M  END
$$$$
