EKI.pdb
     RDKit          3D

 27 26  0  0  1  0  0  0  0  0999 V2000
   22.0823  -16.2070  -17.4272 N   0  0  0  0  0  0  0  0  0  0  0  0
   23.2759  -16.6390  -16.7958 C   0  0  1  0  0  0  0  0  0  0  0  0
   24.2873  -15.6007  -16.4740 C   0  0  0  0  0  0  0  0  0  0  0  0
   25.3700  -15.3864  -17.4818 C   0  0  0  0  0  0  0  0  0  0  0  0
   25.6284  -16.4741  -18.4183 C   0  0  0  0  0  0  0  0  0  0  0  0
   26.2123  -17.5379  -18.1443 O   0  0  0  0  0  0  0  0  0  0  0  0
   22.9996  -17.5280  -15.6105 C   0  0  0  0  0  0  0  0  0  0  0  0
   22.4197  -17.0310  -14.6110 O   0  0  0  0  0  0  0  0  0  0  0  0
   25.1878  -16.3238  -19.7432 O   0  0  0  0  0  0  0  0  0  0  0  0
   23.3608  -18.8774  -15.5782 N   0  0  0  0  0  0  0  0  0  0  0  0
   22.9880  -19.7856  -14.4542 C   0  0  1  0  0  0  0  0  0  0  0  0
   22.3860  -21.0143  -15.0391 C   0  0  0  0  0  0  0  0  0  0  0  0
   21.9103  -22.0494  -14.0730 C   0  0  0  0  0  0  0  0  0  0  0  0
   20.4165  -21.9648  -13.8201 C   0  0  0  0  0  0  0  0  0  0  0  0
   19.9460  -22.9170  -12.7547 C   0  0  0  0  0  0  0  0  0  0  0  0
   18.5825  -22.6170  -12.3388 N   0  0  0  0  0  0  0  0  0  0  0  0
   24.1844  -19.9254  -13.6369 C   0  0  0  0  0  0  0  0  0  0  0  0
   25.3095  -19.8836  -14.2244 O   0  0  0  0  0  0  0  0  0  0  0  0
   26.7492  -19.9936   -7.9726 C   0  0  0  0  0  0  0  0  0  0  0  0
   26.6628  -20.5253   -9.3445 C   0  0  0  0  0  0  0  0  0  0  0  0
   25.4021  -20.3414  -10.1107 C   0  0  2  0  0  0  0  0  0  0  0  0
   24.2461  -21.1239   -9.5300 C   0  0  0  0  0  0  0  0  0  0  0  0
   25.5367  -20.3190  -11.5634 C   0  0  2  0  0  0  0  0  0  0  0  0
   24.2785  -20.0986  -12.2547 N   0  0  0  0  0  0  0  0  0  0  0  0
   26.1994  -21.4521  -12.2122 C   0  0  0  0  0  0  0  0  0  0  0  0
   27.4362  -21.6092  -12.3759 O   0  0  0  0  0  0  0  0  0  0  0  0
   25.4039  -22.4983  -12.7198 O   0  0  0  0  0  0  0  0  0  0  0  0
  2  1  1  1
  3  2  1  0
  4  3  1  0
  5  4  1  0
  5  6  2  0
  7  2  1  0
  7  8  2  0
  9  5  1  0
 10  7  1  0
 11 10  1  0
 11 12  1  6
 13 12  1  0
 13 14  1  0
 15 14  1  0
 16 15  1  0
 17 11  1  0
 18 17  2  0
 19 20  1  0
 20 21  1  0
 21 22  1  6
 21 23  1  0
 23 25  1  0
 23 24  1  6
 24 17  1  0
 25 27  1  0
 26 25  2  0
M  END
$$$$
