EKI.pdb
     RDKit          3D

 27 26  0  0  1  0  0  0  0  0999 V2000
   19.5617  -17.5071  -14.3603 N   0  0  0  0  0  0  0  0  0  0  0  0
   20.6097  -18.3601  -14.7893 C   0  0  1  0  0  0  0  0  0  0  0  0
   20.2569  -19.7714  -15.0867 C   0  0  0  0  0  0  0  0  0  0  0  0
   18.8186  -20.1477  -14.9344 C   0  0  0  0  0  0  0  0  0  0  0  0
   18.2725  -20.1453  -13.5821 C   0  0  0  0  0  0  0  0  0  0  0  0
   18.8840  -19.7908  -12.5583 O   0  0  0  0  0  0  0  0  0  0  0  0
   21.4197  -17.7462  -15.9022 C   0  0  0  0  0  0  0  0  0  0  0  0
   22.3614  -18.4168  -16.3982 O   0  0  0  0  0  0  0  0  0  0  0  0
   16.9479  -20.5761  -13.4037 O   0  0  0  0  0  0  0  0  0  0  0  0
   21.1669  -16.4665  -16.4030 N   0  0  0  0  0  0  0  0  0  0  0  0
   21.9588  -15.8646  -17.5155 C   0  0  1  0  0  0  0  0  0  0  0  0
   21.0020  -15.2884  -18.4987 C   0  0  0  0  0  0  0  0  0  0  0  0
   21.2231  -15.6443  -19.9324 C   0  0  0  0  0  0  0  0  0  0  0  0
   22.6271  -15.3128  -20.4032 C   0  0  0  0  0  0  0  0  0  0  0  0
   22.8329  -15.5771  -21.8698 C   0  0  0  0  0  0  0  0  0  0  0  0
   24.1983  -15.2744  -22.2775 N   0  0  0  0  0  0  0  0  0  0  0  0
   22.9219  -14.9727  -16.8862 C   0  0  0  0  0  0  0  0  0  0  0  0
   22.5084  -14.2240  -15.9476 O   0  0  0  0  0  0  0  0  0  0  0  0
   27.6057  -12.8184  -14.4502 C   0  0  0  0  0  0  0  0  0  0  0  0
   27.4757  -13.3788  -15.8071 C   0  0  0  0  0  0  0  0  0  0  0  0
   26.4077  -14.3776  -16.0752 C   0  0  2  0  0  0  0  0  0  0  0  0
   26.9239  -15.6091  -16.7841 C   0  0  0  0  0  0  0  0  0  0  0  0
   25.1253  -13.8371  -16.5139 C   0  0  2  0  0  0  0  0  0  0  0  0
   24.2805  -14.8198  -17.1697 N   0  0  0  0  0  0  0  0  0  0  0  0
   25.1334  -12.6375  -17.3536 C   0  0  0  0  0  0  0  0  0  0  0  0
   25.2168  -11.4449  -16.9638 O   0  0  0  0  0  0  0  0  0  0  0  0
   25.0406  -12.7918  -18.7510 O   0  0  0  0  0  0  0  0  0  0  0  0
  2  1  1  6
  3  2  1  0
  4  3  1  0
  5  4  1  0
  5  6  2  0
  7  2  1  0
  7  8  2  0
  9  5  1  0
 10  7  1  0
 11 10  1  0
 11 12  1  6
 13 12  1  0
 13 14  1  0
 15 14  1  0
 16 15  1  0
 17 11  1  0
 18 17  2  0
 19 20  1  0
 20 21  1  0
 21 22  1  6
 21 23  1  0
 23 25  1  0
 23 24  1  6
 24 17  1  0
 25 27  1  0
 26 25  2  0
M  END
$$$$
