EKI.pdb
     RDKit          3D

 27 26  0  0  1  0  0  0  0  0999 V2000
   17.6397  -11.9976  -17.6181 N   0  0  0  0  0  0  0  0  0  0  0  0
   18.7695  -11.5290  -16.9012 C   0  0  1  0  0  0  0  0  0  0  0  0
   20.1041  -11.9876  -17.3630 C   0  0  0  0  0  0  0  0  0  0  0  0
   20.3122  -13.4653  -17.4448 C   0  0  0  0  0  0  0  0  0  0  0  0
   21.5959  -13.9263  -17.9609 C   0  0  0  0  0  0  0  0  0  0  0  0
   22.5118  -13.1931  -18.3748 O   0  0  0  0  0  0  0  0  0  0  0  0
   18.7357  -10.0350  -16.7047 C   0  0  0  0  0  0  0  0  0  0  0  0
   19.1250   -9.2978  -17.6466 O   0  0  0  0  0  0  0  0  0  0  0  0
   21.8336  -15.3097  -18.0009 O   0  0  0  0  0  0  0  0  0  0  0  0
   18.2906   -9.4389  -15.5219 N   0  0  0  0  0  0  0  0  0  0  0  0
   18.2227   -7.9592  -15.3403 C   0  0  1  0  0  0  0  0  0  0  0  0
   17.0119   -7.6525  -14.5315 C   0  0  0  0  0  0  0  0  0  0  0  0
   15.7632   -7.3429  -15.2903 C   0  0  0  0  0  0  0  0  0  0  0  0
   14.5586   -8.0975  -14.7590 C   0  0  0  0  0  0  0  0  0  0  0  0
   13.2830   -7.7477  -15.4757 C   0  0  0  0  0  0  0  0  0  0  0  0
   12.1793   -8.5915  -15.0378 N   0  0  0  0  0  0  0  0  0  0  0  0
   19.5209   -7.5585  -14.8179 C   0  0  0  0  0  0  0  0  0  0  0  0
   19.9941   -8.2183  -13.8414 O   0  0  0  0  0  0  0  0  0  0  0  0
   23.7759   -7.7540  -17.5724 C   0  0  0  0  0  0  0  0  0  0  0  0
   22.6985   -7.5621  -16.5852 C   0  0  0  0  0  0  0  0  0  0  0  0
   22.7388   -6.3708  -15.6968 C   0  0  2  0  0  0  0  0  0  0  0  0
   24.1404   -6.0221  -15.2501 C   0  0  0  0  0  0  0  0  0  0  0  0
   21.6743   -6.2807  -14.7029 C   0  0  2  0  0  0  0  0  0  0  0  0
   20.3519   -6.5240  -15.2521 N   0  0  0  0  0  0  0  0  0  0  0  0
   21.5927   -5.0671  -13.8877 C   0  0  0  0  0  0  0  0  0  0  0  0
   20.7661   -4.1280  -14.0143 O   0  0  0  0  0  0  0  0  0  0  0  0
   22.5190   -4.8947  -12.8402 O   0  0  0  0  0  0  0  0  0  0  0  0
  2  1  1  6
  3  2  1  0
  4  3  1  0
  5  4  1  0
  5  6  2  0
  7  2  1  0
  7  8  2  0
  9  5  1  0
 10  7  1  0
 11 10  1  0
 11 12  1  1
 13 12  1  0
 13 14  1  0
 15 14  1  0
 16 15  1  0
 17 11  1  0
 18 17  2  0
 19 20  1  0
 20 21  1  0
 21 22  1  1
 21 23  1  0
 23 25  1  0
 23 24  1  6
 24 17  1  0
 25 27  1  0
 26 25  2  0
M  END
$$$$
