EKI.pdb
     RDKit          3D

 27 26  0  0  1  0  0  0  0  0999 V2000
   15.0249  -13.3403  -12.2656 N   0  0  0  0  0  0  0  0  0  0  0  0
   14.3660  -12.0859  -12.2181 C   0  0  1  0  0  0  0  0  0  0  0  0
   13.0828  -12.0215  -11.4738 C   0  0  0  0  0  0  0  0  0  0  0  0
   12.0609  -13.0585  -11.8114 C   0  0  0  0  0  0  0  0  0  0  0  0
   10.7358  -12.8993  -11.2235 C   0  0  0  0  0  0  0  0  0  0  0  0
    9.9506  -11.9634  -11.4583 O   0  0  0  0  0  0  0  0  0  0  0  0
   15.2970  -10.9722  -11.8125 C   0  0  0  0  0  0  0  0  0  0  0  0
   16.0272  -11.1397  -10.8020 O   0  0  0  0  0  0  0  0  0  0  0  0
   10.2947  -13.8750  -10.3149 O   0  0  0  0  0  0  0  0  0  0  0  0
   15.3808   -9.7656  -12.5120 N   0  0  0  0  0  0  0  0  0  0  0  0
   16.3505   -8.6899  -12.1517 C   0  0  1  0  0  0  0  0  0  0  0  0
   17.0524   -8.2713  -13.3952 C   0  0  0  0  0  0  0  0  0  0  0  0
   18.0203   -9.2490  -13.9766 C   0  0  0  0  0  0  0  0  0  0  0  0
   18.7703   -8.6846  -15.1690 C   0  0  0  0  0  0  0  0  0  0  0  0
   19.6451   -9.7026  -15.8485 C   0  0  0  0  0  0  0  0  0  0  0  0
   20.2925   -9.1438  -17.0278 N   0  0  0  0  0  0  0  0  0  0  0  0
   15.5870   -7.6893  -11.4204 C   0  0  0  0  0  0  0  0  0  0  0  0
   14.3944   -7.4659  -11.7950 O   0  0  0  0  0  0  0  0  0  0  0  0
   13.1350   -5.6986   -6.4271 C   0  0  0  0  0  0  0  0  0  0  0  0
   13.8182   -5.3136   -7.6750 C   0  0  0  0  0  0  0  0  0  0  0  0
   14.5572   -6.3510   -8.4417 C   0  0  2  0  0  0  0  0  0  0  0  0
   15.4014   -7.2405   -7.5575 C   0  0  0  0  0  0  0  0  0  0  0  0
   15.1378   -5.9153   -9.7074 C   0  0  2  0  0  0  0  0  0  0  0  0
   15.9862   -6.9181  -10.3270 N   0  0  0  0  0  0  0  0  0  0  0  0
   15.8708   -4.6479   -9.7300 C   0  0  0  0  0  0  0  0  0  0  0  0
   15.4077   -3.5046   -9.4856 O   0  0  0  0  0  0  0  0  0  0  0  0
   17.2418   -4.6674  -10.0542 O   0  0  0  0  0  0  0  0  0  0  0  0
  2  1  1  1
  3  2  1  0
  4  3  1  0
  5  4  1  0
  5  6  2  0
  7  2  1  0
  7  8  2  0
  9  5  1  0
 10  7  1  0
 11 10  1  0
 11 12  1  6
 13 12  1  0
 13 14  1  0
 15 14  1  0
 16 15  1  0
 17 11  1  0
 18 17  2  0
 19 20  1  0
 20 21  1  0
 21 22  1  1
 21 23  1  0
 23 25  1  0
 23 24  1  1
 24 17  1  0
 25 27  1  0
 26 25  2  0
M  END
$$$$
