EKI.pdb
     RDKit          3D

 27 26  0  0  1  0  0  0  0  0999 V2000
   22.2137  -17.5769  -21.0572 N   0  0  0  0  0  0  0  0  0  0  0  0
   22.3424  -16.8774  -19.8308 C   0  0  1  0  0  0  0  0  0  0  0  0
   23.5667  -16.0588  -19.6421 C   0  0  0  0  0  0  0  0  0  0  0  0
   23.5366  -14.6720  -20.1985 C   0  0  0  0  0  0  0  0  0  0  0  0
   24.7649  -13.8919  -20.1010 C   0  0  0  0  0  0  0  0  0  0  0  0
   24.9184  -12.7327  -20.5258 O   0  0  0  0  0  0  0  0  0  0  0  0
   21.0981  -16.0980  -19.4902 C   0  0  0  0  0  0  0  0  0  0  0  0
   20.6710  -15.2572  -20.3227 O   0  0  0  0  0  0  0  0  0  0  0  0
   25.8759  -14.4840  -19.4788 O   0  0  0  0  0  0  0  0  0  0  0  0
   20.4029  -16.2720  -18.2907 N   0  0  0  0  0  0  0  0  0  0  0  0
   19.0872  -15.6221  -18.0194 C   0  0  1  0  0  0  0  0  0  0  0  0
   18.3220  -16.5049  -17.0978 C   0  0  0  0  0  0  0  0  0  0  0  0
   16.9481  -16.0516  -16.7266 C   0  0  0  0  0  0  0  0  0  0  0  0
   16.2676  -16.9971  -15.7542 C   0  0  0  0  0  0  0  0  0  0  0  0
   14.9275  -16.4965  -15.2883 C   0  0  0  0  0  0  0  0  0  0  0  0
   14.2293  -17.5033  -14.5002 N   0  0  0  0  0  0  0  0  0  0  0  0
   19.3909  -14.2670  -17.5828 C   0  0  0  0  0  0  0  0  0  0  0  0
   20.3877  -14.1036  -16.8132 O   0  0  0  0  0  0  0  0  0  0  0  0
   19.9404   -8.3519  -18.9021 C   0  0  0  0  0  0  0  0  0  0  0  0
   19.6432   -9.4081  -17.9181 C   0  0  0  0  0  0  0  0  0  0  0  0
   19.3456  -10.7816  -18.4028 C   0  0  2  0  0  0  0  0  0  0  0  0
   18.4280  -10.7912  -19.6043 C   0  0  0  0  0  0  0  0  0  0  0  0
   19.1113  -11.7852  -17.3698 C   0  0  2  0  0  0  0  0  0  0  0  0
   18.7275  -13.0807  -17.9024 N   0  0  0  0  0  0  0  0  0  0  0  0
   18.1743  -11.4603  -16.2924 C   0  0  0  0  0  0  0  0  0  0  0  0
   17.0384  -11.9653  -16.1034 O   0  0  0  0  0  0  0  0  0  0  0  0
   18.5465  -10.4850  -15.3462 O   0  0  0  0  0  0  0  0  0  0  0  0
  2  1  1  6
  3  2  1  0
  4  3  1  0
  5  4  1  0
  5  6  2  0
  7  2  1  0
  7  8  2  0
  9  5  1  0
 10  7  1  0
 11 10  1  0
 11 12  1  1
 13 12  1  0
 13 14  1  0
 15 14  1  0
 16 15  1  0
 17 11  1  0
 18 17  2  0
 19 20  1  0
 20 21  1  0
 21 22  1  6
 21 23  1  0
 23 25  1  0
 23 24  1  6
 24 17  1  0
 25 27  1  0
 26 25  2  0
M  END
$$$$
