PCK.pdb
     RDKit          3D

 23 23  0  0  1  0  0  0  0  0999 V2000
    7.1835  -14.9474   20.6970 N   0  0  0  0  0  0  0  0  0  0  0  0
    6.9354  -14.6424   19.2896 C   0  0  0  0  0  0  0  0  0  0  0  0
    7.5265  -13.2892   19.0269 C   0  0  0  0  0  0  0  0  0  0  0  0
    8.1592  -12.8950   20.3680 C   0  0  0  0  0  0  0  0  0  0  0  0
    8.4214  -14.2440   20.9720 C   0  0  1  0  0  0  0  0  0  0  0  0
    8.7007  -14.1879   22.4273 C   0  0  0  0  0  0  0  0  0  0  0  0
    9.8725  -14.4127   22.8268 O   0  0  0  0  0  0  0  0  0  0  0  0
    7.7254  -13.8952   23.4027 N   0  0  0  0  0  0  0  0  0  0  0  0
    8.0125  -13.6884   24.8088 C   0  0  1  0  0  0  0  0  0  0  0  0
    6.7826  -12.9749   25.3851 C   0  0  0  0  0  0  0  0  0  0  0  0
    7.1772  -12.6732   27.1475 S   0  0  0  0  0  0  0  0  0  0  0  0
    8.2638  -14.9616   25.5169 C   0  0  0  0  0  0  0  0  0  0  0  0
    7.3473  -15.8142   25.5544 O   0  0  0  0  0  0  0  0  0  0  0  0
    9.4910  -15.2597   26.1532 N   0  0  0  0  0  0  0  0  0  0  0  0
    9.7596  -16.5606   26.7777 C   0  0  1  0  0  0  0  0  0  0  0  0
   10.9383  -17.1722   26.0814 C   0  0  0  0  0  0  0  0  0  0  0  0
   10.6885  -18.5388   25.5367 C   0  0  0  0  0  0  0  0  0  0  0  0
   11.4625  -18.7036   24.2257 C   0  0  0  0  0  0  0  0  0  0  0  0
   11.1271  -20.0317   23.5783 C   0  0  0  0  0  0  0  0  0  0  0  0
   11.7218  -20.1782   22.2854 N   0  0  0  0  0  0  0  0  0  0  0  0
   10.0314  -16.4062   28.2084 C   0  0  0  0  0  0  0  0  0  0  0  0
   10.0643  -15.2511   28.7062 O   0  0  0  0  0  0  0  0  0  0  0  0
   10.2535  -17.4688   29.0523 O   0  0  0  0  0  0  0  0  0  0  0  0
  1  2  1  0
  2  3  1  0
  4  3  1  0
  5  1  1  0
  5  4  1  0
  5  6  1  1
  6  7  2  0
  8  6  1  0
  9  8  1  0
  9 12  1  0
  9 10  1  1
 11 10  1  0
 12 14  1  0
 13 12  2  0
 14 15  1  0
 15 21  1  0
 16 17  1  0
 15 16  1  6
 18 19  1  0
 18 17  1  0
 19 20  1  0
 21 22  2  0
 21 23  1  0
M  END
$$$$
