PCK.pdb
     RDKit          3D

 23 23  0  0  1  0  0  0  0  0999 V2000
    7.1955  -15.2576   20.9761 N   0  0  0  0  0  0  0  0  0  0  0  0
    6.7653  -15.0241   19.5993 C   0  0  0  0  0  0  0  0  0  0  0  0
    7.0592  -13.5862   19.2895 C   0  0  0  0  0  0  0  0  0  0  0  0
    7.7252  -13.0608   20.5681 C   0  0  0  0  0  0  0  0  0  0  0  0
    8.2956  -14.3267   21.1386 C   0  0  1  0  0  0  0  0  0  0  0  0
    8.6915  -14.1992   22.5620 C   0  0  0  0  0  0  0  0  0  0  0  0
    9.9149  -14.1164   22.8438 O   0  0  0  0  0  0  0  0  0  0  0  0
    7.7733  -14.1645   23.6317 N   0  0  0  0  0  0  0  0  0  0  0  0
    8.1492  -14.1863   25.0319 C   0  0  1  0  0  0  0  0  0  0  0  0
    6.8745  -13.8379   25.8114 C   0  0  0  0  0  0  0  0  0  0  0  0
    6.2684  -12.2736   25.0777 S   0  0  0  0  0  0  0  0  0  0  0  0
    8.6761  -15.5045   25.4445 C   0  0  0  0  0  0  0  0  0  0  0  0
    7.8608  -16.4249   25.6822 O   0  0  0  0  0  0  0  0  0  0  0  0
   10.0576  -15.7726   25.5828 N   0  0  0  0  0  0  0  0  0  0  0  0
   10.5945  -17.1378   25.6336 C   0  0  1  0  0  0  0  0  0  0  0  0
   10.3809  -17.7680   24.2899 C   0  0  0  0  0  0  0  0  0  0  0  0
   10.8905  -19.1661   24.1793 C   0  0  0  0  0  0  0  0  0  0  0  0
   10.5403  -19.7177   22.7944 C   0  0  0  0  0  0  0  0  0  0  0  0
   11.0270  -21.1459   22.6568 C   0  0  0  0  0  0  0  0  0  0  0  0
    9.9890  -22.0433   22.2518 N   0  0  0  0  0  0  0  0  0  0  0  0
   12.0186  -17.1259   25.9749 C   0  0  0  0  0  0  0  0  0  0  0  0
   12.6620  -16.0481   25.8881 O   0  0  0  0  0  0  0  0  0  0  0  0
   12.7025  -18.2428   26.3939 O   0  0  0  0  0  0  0  0  0  0  0  0
  1  2  1  0
  2  3  1  0
  4  3  1  0
  5  1  1  0
  5  4  1  0
  5  6  1  1
  6  7  2  0
  8  6  1  0
  9  8  1  0
  9 12  1  0
  9 10  1  1
 11 10  1  0
 12 14  1  0
 13 12  2  0
 14 15  1  0
 15 21  1  0
 16 17  1  0
 15 16  1  6
 18 19  1  0
 18 17  1  0
 19 20  1  0
 21 22  2  0
 21 23  1  0
M  END
$$$$
