PCK.pdb
     RDKit          3D

 23 23  0  0  1  0  0  0  0  0999 V2000
    6.7818  -14.7352   20.8396 N   0  0  0  0  0  0  0  0  0  0  0  0
    6.4921  -14.5491   19.4195 C   0  0  0  0  0  0  0  0  0  0  0  0
    7.2446  -13.3290   18.9781 C   0  0  0  0  0  0  0  0  0  0  0  0
    8.0056  -12.8886   20.2356 C   0  0  0  0  0  0  0  0  0  0  0  0
    8.1183  -14.1894   20.9762 C   0  0  1  0  0  0  0  0  0  0  0  0
    8.4909  -14.0193   22.4015 C   0  0  0  0  0  0  0  0  0  0  0  0
    9.7070  -13.8885   22.6967 O   0  0  0  0  0  0  0  0  0  0  0  0
    7.5582  -13.9947   23.4587 N   0  0  0  0  0  0  0  0  0  0  0  0
    7.9066  -13.7878   24.8509 C   0  0  1  0  0  0  0  0  0  0  0  0
    6.6881  -13.1083   25.4893 C   0  0  0  0  0  0  0  0  0  0  0  0
    7.1267  -12.8807   27.2524 S   0  0  0  0  0  0  0  0  0  0  0  0
    8.2229  -15.0577   25.5385 C   0  0  0  0  0  0  0  0  0  0  0  0
    7.3248  -15.9254   25.6314 O   0  0  0  0  0  0  0  0  0  0  0  0
    9.4925  -15.3364   26.0954 N   0  0  0  0  0  0  0  0  0  0  0  0
    9.7881  -16.5927   26.7946 C   0  0  1  0  0  0  0  0  0  0  0  0
   10.9063  -17.2749   26.0648 C   0  0  0  0  0  0  0  0  0  0  0  0
   11.3716  -18.5422   26.7006 C   0  0  0  0  0  0  0  0  0  0  0  0
   12.5542  -19.0973   25.9019 C   0  0  0  0  0  0  0  0  0  0  0  0
   13.0631  -20.3771   26.5333 C   0  0  0  0  0  0  0  0  0  0  0  0
   14.1544  -20.9513   25.8080 N   0  0  0  0  0  0  0  0  0  0  0  0
   10.1630  -16.3389   28.1873 C   0  0  0  0  0  0  0  0  0  0  0  0
   10.3916  -15.1580   28.5564 O   0  0  0  0  0  0  0  0  0  0  0  0
   10.2783  -17.3333   29.1299 O   0  0  0  0  0  0  0  0  0  0  0  0
  1  2  1  0
  2  3  1  0
  4  3  1  0
  5  1  1  0
  5  4  1  0
  5  6  1  1
  6  7  2  0
  8  6  1  0
  9  8  1  0
  9 12  1  0
  9 10  1  1
 11 10  1  0
 12 14  1  0
 13 12  2  0
 14 15  1  0
 15 21  1  0
 16 17  1  0
 15 16  1  6
 18 19  1  0
 18 17  1  0
 19 20  1  0
 21 22  2  0
 21 23  1  0
M  END
$$$$
