PCK.pdb
     RDKit          3D

 23 23  0  0  1  0  0  0  0  0999 V2000
    7.0142  -14.6364   20.6830 N   0  0  0  0  0  0  0  0  0  0  0  0
    6.6371  -14.2687   19.3200 C   0  0  0  0  0  0  0  0  0  0  0  0
    7.3375  -12.9797   19.0074 C   0  0  0  0  0  0  0  0  0  0  0  0
    8.1628  -12.6918   20.2685 C   0  0  0  0  0  0  0  0  0  0  0  0
    8.3453  -14.0770   20.8176 C   0  0  1  0  0  0  0  0  0  0  0  0
    8.7983  -14.0903   22.2295 C   0  0  0  0  0  0  0  0  0  0  0  0
   10.0300  -14.1854   22.4681 O   0  0  0  0  0  0  0  0  0  0  0  0
    7.9262  -14.0023   23.3342 N   0  0  0  0  0  0  0  0  0  0  0  0
    8.3603  -13.9732   24.7173 C   0  0  1  0  0  0  0  0  0  0  0  0
    7.3057  -13.1497   25.4682 C   0  0  0  0  0  0  0  0  0  0  0  0
    7.8576  -13.1292   27.2139 S   0  0  0  0  0  0  0  0  0  0  0  0
    8.4762  -15.3306   25.2912 C   0  0  0  0  0  0  0  0  0  0  0  0
    7.4522  -16.0504   25.3320 O   0  0  0  0  0  0  0  0  0  0  0  0
    9.6899  -15.8524   25.7955 N   0  0  0  0  0  0  0  0  0  0  0  0
    9.8076  -17.2247   26.3031 C   0  0  1  0  0  0  0  0  0  0  0  0
   10.7656  -17.9637   25.4174 C   0  0  0  0  0  0  0  0  0  0  0  0
   11.0096  -19.3790   25.8227 C   0  0  0  0  0  0  0  0  0  0  0  0
   12.0370  -20.0009   24.8728 C   0  0  0  0  0  0  0  0  0  0  0  0
   12.3222  -21.4350   25.2695 C   0  0  0  0  0  0  0  0  0  0  0  0
   13.1090  -22.1281   24.2963 N   0  0  0  0  0  0  0  0  0  0  0  0
   10.2810  -17.2294   27.6889 C   0  0  0  0  0  0  0  0  0  0  0  0
   10.4134  -18.3273   28.2890 O   0  0  0  0  0  0  0  0  0  0  0  0
   10.5966  -16.0842   28.3814 O   0  0  0  0  0  0  0  0  0  0  0  0
  1  2  1  0
  2  3  1  0
  4  3  1  0
  5  1  1  0
  5  4  1  0
  5  6  1  1
  6  7  2  0
  8  6  1  0
  9  8  1  0
  9 12  1  0
  9 10  1  1
 11 10  1  0
 12 14  1  0
 13 12  2  0
 14 15  1  0
 15 21  1  0
 16 17  1  0
 15 16  1  6
 18 19  1  0
 18 17  1  0
 19 20  1  0
 21 22  2  0
 21 23  1  0
M  END
$$$$
