PCK.pdb
     RDKit          3D

 23 23  0  0  1  0  0  0  0  0999 V2000
    7.3125  -15.0228   19.2269 N   0  0  0  0  0  0  0  0  0  0  0  0
    6.6985  -14.6110   17.9664 C   0  0  0  0  0  0  0  0  0  0  0  0
    7.2112  -13.2348   17.6618 C   0  0  0  0  0  0  0  0  0  0  0  0
    8.1851  -12.9401   18.8103 C   0  0  0  0  0  0  0  0  0  0  0  0
    8.5860  -14.3293   19.2136 C   0  0  1  0  0  0  0  0  0  0  0  0
    9.2467  -14.3845   20.5401 C   0  0  0  0  0  0  0  0  0  0  0  0
   10.4564  -14.0496   20.6270 O   0  0  0  0  0  0  0  0  0  0  0  0
    8.5977  -14.7931   21.7234 N   0  0  0  0  0  0  0  0  0  0  0  0
    9.2513  -14.9197   23.0115 C   0  0  1  0  0  0  0  0  0  0  0  0
    8.1722  -14.6140   24.0585 C   0  0  0  0  0  0  0  0  0  0  0  0
    6.9358  -15.9537   23.8876 S   0  0  0  0  0  0  0  0  0  0  0  0
    9.8173  -16.2699   23.2163 C   0  0  0  0  0  0  0  0  0  0  0  0
    9.2061  -17.2520   22.7366 O   0  0  0  0  0  0  0  0  0  0  0  0
   11.0166  -16.5022   23.9286 N   0  0  0  0  0  0  0  0  0  0  0  0
   11.5501  -17.8507   24.1559 C   0  0  1  0  0  0  0  0  0  0  0  0
   13.0459  -17.7730   24.0866 C   0  0  0  0  0  0  0  0  0  0  0  0
   13.7433  -19.0484   24.4236 C   0  0  0  0  0  0  0  0  0  0  0  0
   15.2551  -18.8402   24.2965 C   0  0  0  0  0  0  0  0  0  0  0  0
   15.9904  -20.1390   24.5569 C   0  0  0  0  0  0  0  0  0  0  0  0
   17.4117  -19.9866   24.4996 N   0  0  0  0  0  0  0  0  0  0  0  0
   11.1222  -18.3685   25.4572 C   0  0  0  0  0  0  0  0  0  0  0  0
   10.6991  -17.5657   26.3287 O   0  0  0  0  0  0  0  0  0  0  0  0
   11.1547  -19.7035   25.7847 O   0  0  0  0  0  0  0  0  0  0  0  0
  1  2  1  0
  2  3  1  0
  4  3  1  0
  5  1  1  0
  5  4  1  0
  5  6  1  1
  6  7  2  0
  8  6  1  0
  9  8  1  0
  9 12  1  0
  9 10  1  1
 11 10  1  0
 12 14  1  0
 13 12  2  0
 14 15  1  0
 15 21  1  0
 16 17  1  0
 15 16  1  1
 18 19  1  0
 18 17  1  0
 19 20  1  0
 21 22  2  0
 21 23  1  0
M  END
$$$$
