PCK.pdb
     RDKit          3D

 23 23  0  0  1  0  0  0  0  0999 V2000
    6.8509  -14.5045   20.8991 N   0  0  0  0  0  0  0  0  0  0  0  0
    6.6088  -14.0267   19.5395 C   0  0  0  0  0  0  0  0  0  0  0  0
    7.3969  -12.7610   19.3762 C   0  0  0  0  0  0  0  0  0  0  0  0
    8.1267  -12.6039   20.7168 C   0  0  0  0  0  0  0  0  0  0  0  0
    8.1925  -14.0305   21.1795 C   0  0  1  0  0  0  0  0  0  0  0  0
    8.5238  -14.1627   22.6189 C   0  0  0  0  0  0  0  0  0  0  0  0
    9.7340  -14.1591   22.9632 O   0  0  0  0  0  0  0  0  0  0  0  0
    7.5576  -14.2937   23.6376 N   0  0  0  0  0  0  0  0  0  0  0  0
    7.8677  -14.3801   25.0514 C   0  0  1  0  0  0  0  0  0  0  0  0
    6.6090  -13.8985   25.7846 C   0  0  0  0  0  0  0  0  0  0  0  0
    6.6193  -12.0748   25.6216 S   0  0  0  0  0  0  0  0  0  0  0  0
    8.2214  -15.7564   25.4588 C   0  0  0  0  0  0  0  0  0  0  0  0
    7.3186  -16.6241   25.4756 O   0  0  0  0  0  0  0  0  0  0  0  0
    9.5318  -16.1369   25.8300 N   0  0  0  0  0  0  0  0  0  0  0  0
    9.8703  -17.5068   26.2343 C   0  0  1  0  0  0  0  0  0  0  0  0
   10.9810  -17.9880   25.3494 C   0  0  0  0  0  0  0  0  0  0  0  0
   10.6032  -18.1325   23.9131 C   0  0  0  0  0  0  0  0  0  0  0  0
   11.8317  -18.5790   23.1154 C   0  0  0  0  0  0  0  0  0  0  0  0
   11.4887  -18.7060   21.6452 C   0  0  0  0  0  0  0  0  0  0  0  0
   12.6044  -19.1276   20.8553 N   0  0  0  0  0  0  0  0  0  0  0  0
   10.2780  -17.5501   27.6402 C   0  0  0  0  0  0  0  0  0  0  0  0
   10.4873  -16.4711   28.2525 O   0  0  0  0  0  0  0  0  0  0  0  0
   10.4450  -18.7215   28.3406 O   0  0  0  0  0  0  0  0  0  0  0  0
  1  2  1  0
  2  3  1  0
  4  3  1  0
  5  1  1  0
  5  4  1  0
  5  6  1  1
  6  7  2  0
  8  6  1  0
  9  8  1  0
  9 12  1  0
  9 10  1  1
 11 10  1  0
 12 14  1  0
 13 12  2  0
 14 15  1  0
 15 21  1  0
 16 17  1  0
 15 16  1  6
 18 19  1  0
 18 17  1  0
 19 20  1  0
 21 22  2  0
 21 23  1  0
M  END
$$$$
