PCK.pdb
     RDKit          3D

 23 23  0  0  1  0  0  0  0  0999 V2000
    7.2700  -14.7154   19.5052 N   0  0  0  0  0  0  0  0  0  0  0  0
    6.8215  -14.2228   18.2047 C   0  0  0  0  0  0  0  0  0  0  0  0
    7.4747  -12.8888   17.9957 C   0  0  0  0  0  0  0  0  0  0  0  0
    8.3500  -12.7060   19.2427 C   0  0  0  0  0  0  0  0  0  0  0  0
    8.5917  -14.1337   19.6385 C   0  0  1  0  0  0  0  0  0  0  0  0
    9.1096  -14.2767   21.0207 C   0  0  0  0  0  0  0  0  0  0  0  0
   10.3515  -14.2074   21.2108 O   0  0  0  0  0  0  0  0  0  0  0  0
    8.2893  -14.4877   22.1480 N   0  0  0  0  0  0  0  0  0  0  0  0
    8.7873  -14.6832   23.4956 C   0  0  1  0  0  0  0  0  0  0  0  0
    7.6414  -14.2690   24.4280 C   0  0  0  0  0  0  0  0  0  0  0  0
    8.2524  -14.5942   26.1232 S   0  0  0  0  0  0  0  0  0  0  0  0
    9.1869  -16.0851   23.7416 C   0  0  0  0  0  0  0  0  0  0  0  0
    8.3266  -16.9841   23.6001 O   0  0  0  0  0  0  0  0  0  0  0  0
   10.4953  -16.4563   24.1289 N   0  0  0  0  0  0  0  0  0  0  0  0
   10.8828  -17.8531   24.3596 C   0  0  1  0  0  0  0  0  0  0  0  0
   12.1972  -18.0863   23.6766 C   0  0  0  0  0  0  0  0  0  0  0  0
   12.7841  -19.4366   23.9189 C   0  0  0  0  0  0  0  0  0  0  0  0
   14.1467  -19.5212   23.2253 C   0  0  0  0  0  0  0  0  0  0  0  0
   14.7206  -20.9170   23.3580 C   0  0  0  0  0  0  0  0  0  0  0  0
   16.0630  -21.0075   22.8718 N   0  0  0  0  0  0  0  0  0  0  0  0
   10.9915  -18.1344   25.7927 C   0  0  0  0  0  0  0  0  0  0  0  0
   11.1911  -19.3170   26.1730 O   0  0  0  0  0  0  0  0  0  0  0  0
   10.8888  -17.1637   26.7611 O   0  0  0  0  0  0  0  0  0  0  0  0
  1  2  1  0
  2  3  1  0
  4  3  1  0
  5  1  1  0
  5  4  1  0
  5  6  1  1
  6  7  2  0
  8  6  1  0
  9  8  1  0
  9 12  1  0
  9 10  1  1
 11 10  1  0
 12 14  1  0
 13 12  2  0
 14 15  1  0
 15 21  1  0
 16 17  1  0
 15 16  1  6
 18 19  1  0
 18 17  1  0
 19 20  1  0
 21 22  2  0
 21 23  1  0
M  END
$$$$
