PCK.pdb
     RDKit          3D

 23 23  0  0  1  0  0  0  0  0999 V2000
    6.9685  -14.5847   20.8114 N   0  0  0  0  0  0  0  0  0  0  0  0
    6.6505  -14.2378   19.4279 C   0  0  0  0  0  0  0  0  0  0  0  0
    7.5219  -13.0738   19.0599 C   0  0  0  0  0  0  0  0  0  0  0  0
    8.3740  -12.8383   20.3140 C   0  0  0  0  0  0  0  0  0  0  0  0
    8.3631  -14.2061   20.9325 C   0  0  1  0  0  0  0  0  0  0  0  0
    8.8045  -14.2103   22.3482 C   0  0  0  0  0  0  0  0  0  0  0  0
   10.0371  -14.1653   22.5969 O   0  0  0  0  0  0  0  0  0  0  0  0
    7.9205  -14.2620   23.4455 N   0  0  0  0  0  0  0  0  0  0  0  0
    8.3416  -14.3336   24.8311 C   0  0  1  0  0  0  0  0  0  0  0  0
    7.2518  -13.6137   25.6360 C   0  0  0  0  0  0  0  0  0  0  0  0
    5.7122  -14.5521   25.3173 S   0  0  0  0  0  0  0  0  0  0  0  0
    8.5017  -15.7295   25.2911 C   0  0  0  0  0  0  0  0  0  0  0  0
    7.5686  -16.5376   25.0804 O   0  0  0  0  0  0  0  0  0  0  0  0
    9.6597  -16.1927   25.9575 N   0  0  0  0  0  0  0  0  0  0  0  0
    9.8327  -17.5950   26.3551 C   0  0  1  0  0  0  0  0  0  0  0  0
   11.0750  -18.1124   25.6939 C   0  0  0  0  0  0  0  0  0  0  0  0
   11.4505  -19.5003   26.0928 C   0  0  0  0  0  0  0  0  0  0  0  0
   12.6757  -19.9384   25.2854 C   0  0  0  0  0  0  0  0  0  0  0  0
   13.0763  -21.3510   25.6589 C   0  0  0  0  0  0  0  0  0  0  0  0
   14.1746  -21.8346   24.8801 N   0  0  0  0  0  0  0  0  0  0  0  0
    9.9374  -17.7152   27.8109 C   0  0  0  0  0  0  0  0  0  0  0  0
   10.0179  -18.8592   28.3285 O   0  0  0  0  0  0  0  0  0  0  0  0
    9.9557  -16.6316   28.6572 O   0  0  0  0  0  0  0  0  0  0  0  0
  1  2  1  0
  2  3  1  0
  4  3  1  0
  5  1  1  0
  5  4  1  0
  5  6  1  1
  6  7  2  0
  8  6  1  0
  9  8  1  0
  9 12  1  0
  9 10  1  1
 11 10  1  0
 12 14  1  0
 13 12  2  0
 14 15  1  0
 15 21  1  0
 16 17  1  0
 15 16  1  6
 18 19  1  0
 18 17  1  0
 19 20  1  0
 21 22  2  0
 21 23  1  0
M  END
$$$$
