PCK.pdb
     RDKit          3D

 23 23  0  0  1  0  0  0  0  0999 V2000
    7.1496  -14.6135   20.1724 N   0  0  0  0  0  0  0  0  0  0  0  0
    6.9801  -14.1751   18.7887 C   0  0  0  0  0  0  0  0  0  0  0  0
    7.6619  -12.8447   18.6672 C   0  0  0  0  0  0  0  0  0  0  0  0
    8.2598  -12.6066   20.0601 C   0  0  0  0  0  0  0  0  0  0  0  0
    8.4148  -14.0159   20.5533 C   0  0  1  0  0  0  0  0  0  0  0  0
    8.6351  -14.1012   22.0173 C   0  0  0  0  0  0  0  0  0  0  0  0
    9.7748  -13.8263   22.4739 O   0  0  0  0  0  0  0  0  0  0  0  0
    7.6369  -14.4751   22.9405 N   0  0  0  0  0  0  0  0  0  0  0  0
    7.7956  -14.4236   24.3808 C   0  0  1  0  0  0  0  0  0  0  0  0
    6.4154  -14.0538   24.9396 C   0  0  0  0  0  0  0  0  0  0  0  0
    6.6587  -13.8550   26.7435 S   0  0  0  0  0  0  0  0  0  0  0  0
    8.2605  -15.7132   24.9343 C   0  0  0  0  0  0  0  0  0  0  0  0
    7.7322  -16.7679   24.5138 O   0  0  0  0  0  0  0  0  0  0  0  0
    9.2737  -15.8093   25.9161 N   0  0  0  0  0  0  0  0  0  0  0  0
    9.7375  -17.0968   26.4469 C   0  0  1  0  0  0  0  0  0  0  0  0
   10.7241  -16.8166   27.5407 C   0  0  0  0  0  0  0  0  0  0  0  0
   10.8558  -17.9129   28.5445 C   0  0  0  0  0  0  0  0  0  0  0  0
   11.9340  -17.5314   29.5628 C   0  0  0  0  0  0  0  0  0  0  0  0
   12.0547  -18.6007   30.6291 C   0  0  0  0  0  0  0  0  0  0  0  0
   13.0487  -18.2890   31.6097 N   0  0  0  0  0  0  0  0  0  0  0  0
    8.6143  -17.8856   26.9577 C   0  0  0  0  0  0  0  0  0  0  0  0
    7.6386  -17.2935   27.4872 O   0  0  0  0  0  0  0  0  0  0  0  0
    8.5636  -19.2579   26.8879 O   0  0  0  0  0  0  0  0  0  0  0  0
  1  2  1  0
  2  3  1  0
  4  3  1  0
  5  1  1  0
  5  4  1  0
  5  6  1  1
  6  7  2  0
  8  6  1  0
  9  8  1  0
  9 12  1  0
  9 10  1  1
 11 10  1  0
 12 14  1  0
 13 12  2  0
 14 15  1  0
 15 21  1  0
 16 17  1  0
 15 16  1  1
 18 19  1  0
 18 17  1  0
 19 20  1  0
 21 22  2  0
 21 23  1  0
M  END
$$$$
