PCK.pdb
     RDKit          3D

 23 23  0  0  1  0  0  0  0  0999 V2000
    6.9025  -14.5549   21.3204 N   0  0  0  0  0  0  0  0  0  0  0  0
    6.5019  -14.2991   19.9386 C   0  0  0  0  0  0  0  0  0  0  0  0
    7.3812  -13.1966   19.4276 C   0  0  0  0  0  0  0  0  0  0  0  0
    8.3234  -12.9003   20.6019 C   0  0  0  0  0  0  0  0  0  0  0  0
    8.3130  -14.2180   21.3209 C   0  0  1  0  0  0  0  0  0  0  0  0
    8.8494  -14.1343   22.7009 C   0  0  0  0  0  0  0  0  0  0  0  0
   10.0897  -14.2541   22.8754 O   0  0  0  0  0  0  0  0  0  0  0  0
    8.0484  -13.9268   23.8428 N   0  0  0  0  0  0  0  0  0  0  0  0
    8.5559  -13.8879   25.2005 C   0  0  1  0  0  0  0  0  0  0  0  0
    7.6279  -12.9352   25.9654 C   0  0  0  0  0  0  0  0  0  0  0  0
    5.9447  -13.6255   25.7583 S   0  0  0  0  0  0  0  0  0  0  0  0
    8.5690  -15.2271   25.8265 C   0  0  0  0  0  0  0  0  0  0  0  0
    7.5074  -15.8913   25.8365 O   0  0  0  0  0  0  0  0  0  0  0  0
    9.7250  -15.7913   26.4138 N   0  0  0  0  0  0  0  0  0  0  0  0
    9.7431  -17.1485   26.9726 C   0  0  1  0  0  0  0  0  0  0  0  0
   10.7365  -17.9559   26.1918 C   0  0  0  0  0  0  0  0  0  0  0  0
   10.4942  -17.9705   24.7195 C   0  0  0  0  0  0  0  0  0  0  0  0
   11.5976  -18.7859   24.0394 C   0  0  0  0  0  0  0  0  0  0  0  0
   11.3107  -18.9301   22.5587 C   0  0  0  0  0  0  0  0  0  0  0  0
   12.3626  -19.6003   21.8581 N   0  0  0  0  0  0  0  0  0  0  0  0
   10.1035  -17.1235   28.3918 C   0  0  0  0  0  0  0  0  0  0  0  0
   10.3922  -16.0249   28.9330 O   0  0  0  0  0  0  0  0  0  0  0  0
   10.1423  -18.2499   29.1795 O   0  0  0  0  0  0  0  0  0  0  0  0
  1  2  1  0
  2  3  1  0
  4  3  1  0
  5  1  1  0
  5  4  1  0
  5  6  1  1
  6  7  2  0
  8  6  1  0
  9  8  1  0
  9 12  1  0
  9 10  1  1
 11 10  1  0
 12 14  1  0
 13 12  2  0
 14 15  1  0
 15 21  1  0
 16 17  1  0
 15 16  1  6
 18 19  1  0
 18 17  1  0
 19 20  1  0
 21 22  2  0
 21 23  1  0
M  END
$$$$
