YWD.pdb
     RDKit          3D

 35 37  0  0  1  0  0  0  0  0999 V2000
    7.3526  -13.1761   15.7306 O   0  0  0  0  0  0  0  0  0  0  0  0
    7.7580  -13.4167   17.0467 C   0  0  0  0  0  0  0  0  0  0  0  0
    8.9043  -14.1286   17.3277 C   0  0  0  0  0  0  0  0  0  0  0  0
    9.2818  -14.3520   18.6432 C   0  0  0  0  0  0  0  0  0  0  0  0
    8.4964  -13.8532   19.6582 C   0  0  0  0  0  0  0  0  0  0  0  0
    8.8941  -14.0894   21.0702 C   0  0  0  0  0  0  0  0  0  0  0  0
    9.1652  -15.5419   21.3434 C   0  0  2  0  0  0  0  0  0  0  0  0
    8.0101  -16.3398   21.0813 N   0  0  0  0  0  0  0  0  0  0  0  0
    9.6165  -15.6539   22.7675 C   0  0  0  0  0  0  0  0  0  0  0  0
   10.5785  -14.9749   23.1999 O   0  0  0  0  0  0  0  0  0  0  0  0
    7.3539  -13.1434   19.3907 C   0  0  0  0  0  0  0  0  0  0  0  0
    6.9900  -12.9286   18.0781 C   0  0  0  0  0  0  0  0  0  0  0  0
    8.9539  -16.5473   23.6770 N   0  0  0  0  0  0  0  0  0  0  0  0
    9.4055  -16.6428   25.0112 C   0  0  1  0  0  0  0  0  0  0  0  0
    8.3591  -16.5744   26.0855 C   0  0  0  0  0  0  0  0  0  0  0  0
    7.3703  -15.4997   25.8963 C   0  0  0  0  0  0  0  0  0  0  0  0
    6.0833  -15.6277   25.3654 C   0  0  0  0  0  0  0  0  0  0  0  0
    5.4914  -14.4321   25.3386 N   0  0  0  0  0  0  0  0  0  0  0  0
    6.3253  -13.4872   25.8321 C   0  0  0  0  0  0  0  0  0  0  0  0
    6.1607  -12.1287   26.0087 C   0  0  0  0  0  0  0  0  0  0  0  0
    7.1790  -11.3877   26.5469 C   0  0  0  0  0  0  0  0  0  0  0  0
    8.3424  -12.0400   26.8946 C   0  0  0  0  0  0  0  0  0  0  0  0
    8.5134  -13.3952   26.7210 C   0  0  0  0  0  0  0  0  0  0  0  0
    7.4960  -14.1584   26.1787 C   0  0  0  0  0  0  0  0  0  0  0  0
   10.2395  -17.8376   25.2916 C   0  0  0  0  0  0  0  0  0  0  0  0
    9.7903  -18.9431   24.8908 O   0  0  0  0  0  0  0  0  0  0  0  0
   11.4711  -17.8212   25.9599 N   0  0  0  0  0  0  0  0  0  0  0  0
   12.1070  -19.0303   26.4763 C   0  0  1  0  0  0  0  0  0  0  0  0
   13.5557  -18.6866   26.6718 C   0  0  0  0  0  0  0  0  0  0  0  0
   14.3074  -18.4612   25.4218 C   0  0  0  0  0  0  0  0  0  0  0  0
   13.8111  -17.7414   24.4839 O   0  0  0  0  0  0  0  0  0  0  0  0
   11.5247  -19.3249   27.8298 C   0  0  0  0  0  0  0  0  0  0  0  0
   11.8183  -20.4319   28.5779 O   0  0  0  0  0  0  0  0  0  0  0  0
   15.5597  -19.0196   25.2292 O   0  0  0  0  0  0  0  0  0  0  0  0
   10.7094  -18.4804   28.2913 O   0  0  0  0  0  0  0  0  0  0  0  0
  2  1  1  0
  3  2  2  0
  4  3  1  0
  5  4  2  0
  5 11  1  0
  6  5  1  0
  7  6  1  0
  7  8  1  1
  9  7  1  0
  9 13  1  0
 10  9  2  0
 11 12  2  0
 12  2  1  0
 14 13  1  0
 14 25  1  0
 14 15  1  1
 16 17  2  0
 16 15  1  0
 18 17  1  0
 19 24  2  0
 19 18  1  0
 20 19  1  0
 21 22  1  0
 21 20  2  0
 22 23  2  0
 23 24  1  0
 24 16  1  0
 25 27  1  0
 25 26  2  0
 27 28  1  0
 28 29  1  1
 30 31  2  0
 30 29  1  0
 32 28  1  0
 32 33  1  0
 34 30  1  0
 35 32  2  0
M  END
$$$$
