YWD.pdb
     RDKit          3D

 35 37  0  0  1  0  0  0  0  0999 V2000
    6.9145  -13.2188   15.9636 O   0  0  0  0  0  0  0  0  0  0  0  0
    7.3446  -13.4174   17.2788 C   0  0  0  0  0  0  0  0  0  0  0  0
    6.5169  -13.1665   18.3521 C   0  0  0  0  0  0  0  0  0  0  0  0
    6.9708  -13.3725   19.6460 C   0  0  0  0  0  0  0  0  0  0  0  0
    8.2552  -13.8294   19.8394 C   0  0  0  0  0  0  0  0  0  0  0  0
    8.7488  -14.0516   21.2231 C   0  0  0  0  0  0  0  0  0  0  0  0
    9.2174  -15.4637   21.4339 C   0  0  2  0  0  0  0  0  0  0  0  0
    8.1578  -16.3961   21.2160 N   0  0  0  0  0  0  0  0  0  0  0  0
    9.7680  -15.5508   22.8244 C   0  0  0  0  0  0  0  0  0  0  0  0
   10.7808  -14.8938   23.1649 O   0  0  0  0  0  0  0  0  0  0  0  0
    9.0876  -14.0826   18.7794 C   0  0  0  0  0  0  0  0  0  0  0  0
    8.6236  -13.8734   17.4978 C   0  0  0  0  0  0  0  0  0  0  0  0
    9.1449  -16.3943   23.8066 N   0  0  0  0  0  0  0  0  0  0  0  0
    9.7161  -16.5032   25.0931 C   0  0  1  0  0  0  0  0  0  0  0  0
    8.7736  -16.4309   26.2594 C   0  0  0  0  0  0  0  0  0  0  0  0
    7.6864  -15.4512   26.0961 C   0  0  0  0  0  0  0  0  0  0  0  0
    6.3890  -15.7058   25.6415 C   0  0  0  0  0  0  0  0  0  0  0  0
    5.6947  -14.5666   25.6147 N   0  0  0  0  0  0  0  0  0  0  0  0
    6.4682  -13.5385   26.0348 C   0  0  0  0  0  0  0  0  0  0  0  0
    6.1956  -12.1940   26.1827 C   0  0  0  0  0  0  0  0  0  0  0  0
    7.1726  -11.3518   26.6426 C   0  0  0  0  0  0  0  0  0  0  0  0
    8.4052  -11.8908   26.9428 C   0  0  0  0  0  0  0  0  0  0  0  0
    8.6841  -13.2313   26.7974 C   0  0  0  0  0  0  0  0  0  0  0  0
    7.7097  -14.0957   26.3340 C   0  0  0  0  0  0  0  0  0  0  0  0
   10.5593  -17.7083   25.2891 C   0  0  0  0  0  0  0  0  0  0  0  0
   10.0734  -18.8030   24.9020 O   0  0  0  0  0  0  0  0  0  0  0  0
   11.8368  -17.7124   25.8652 N   0  0  0  0  0  0  0  0  0  0  0  0
   12.5313  -18.9411   26.2404 C   0  0  1  0  0  0  0  0  0  0  0  0
   13.9811  -18.5740   26.3760 C   0  0  0  0  0  0  0  0  0  0  0  0
   14.5947  -18.0320   25.1479 C   0  0  0  0  0  0  0  0  0  0  0  0
   15.5704  -17.2032   25.2182 O   0  0  0  0  0  0  0  0  0  0  0  0
   12.0414  -19.3609   27.5975 C   0  0  0  0  0  0  0  0  0  0  0  0
   12.4208  -20.5073   28.2404 O   0  0  0  0  0  0  0  0  0  0  0  0
   14.1340  -18.4004   23.8952 O   0  0  0  0  0  0  0  0  0  0  0  0
   11.2230  -18.5889   28.1677 O   0  0  0  0  0  0  0  0  0  0  0  0
  2  1  1  0
  3  2  2  0
  4  3  1  0
  5  4  2  0
  5 11  1  0
  6  5  1  0
  7  6  1  0
  7  8  1  1
  9  7  1  0
  9 13  1  0
 10  9  2  0
 11 12  2  0
 12  2  1  0
 14 13  1  0
 14 25  1  0
 14 15  1  1
 16 17  2  0
 16 15  1  0
 18 17  1  0
 19 24  2  0
 19 18  1  0
 20 19  1  0
 21 22  1  0
 21 20  2  0
 22 23  2  0
 23 24  1  0
 24 16  1  0
 25 27  1  0
 25 26  2  0
 27 28  1  0
 28 29  1  1
 30 31  2  0
 30 29  1  0
 32 28  1  0
 32 33  1  0
 34 30  1  0
 35 32  2  0
M  END
$$$$
