YWD.pdb
     RDKit          3D

 35 37  0  0  1  0  0  0  0  0999 V2000
    9.1570  -20.0481   15.2373 O   0  0  0  0  0  0  0  0  0  0  0  0
    9.4043  -19.5996   16.5381 C   0  0  0  0  0  0  0  0  0  0  0  0
    8.5655  -19.9240   17.5826 C   0  0  0  0  0  0  0  0  0  0  0  0
    8.8357  -19.4648   18.8628 C   0  0  0  0  0  0  0  0  0  0  0  0
    9.9501  -18.6835   19.0716 C   0  0  0  0  0  0  0  0  0  0  0  0
   10.2455  -18.1869   20.4404 C   0  0  0  0  0  0  0  0  0  0  0  0
    9.2886  -17.1101   20.8676 C   0  0  2  0  0  0  0  0  0  0  0  0
    9.3306  -15.9984   19.9721 N   0  0  0  0  0  0  0  0  0  0  0  0
    9.6487  -16.7195   22.2683 C   0  0  0  0  0  0  0  0  0  0  0  0
   10.4574  -15.7880   22.4959 O   0  0  0  0  0  0  0  0  0  0  0  0
   10.7918  -18.3543   18.0402 C   0  0  0  0  0  0  0  0  0  0  0  0
   10.5114  -18.8176   16.7721 C   0  0  0  0  0  0  0  0  0  0  0  0
    9.0727  -17.4071   23.3908 N   0  0  0  0  0  0  0  0  0  0  0  0
    9.4045  -16.9997   24.7011 C   0  0  1  0  0  0  0  0  0  0  0  0
    8.2612  -16.7547   25.6427 C   0  0  0  0  0  0  0  0  0  0  0  0
    7.4365  -15.5845   25.2979 C   0  0  0  0  0  0  0  0  0  0  0  0
    6.2858  -15.5738   24.5038 C   0  0  0  0  0  0  0  0  0  0  0  0
    5.8236  -14.3258   24.4061 N   0  0  0  0  0  0  0  0  0  0  0  0
    6.6149  -13.4788   25.1046 C   0  0  0  0  0  0  0  0  0  0  0  0
    6.5397  -12.1153   25.3023 C   0  0  0  0  0  0  0  0  0  0  0  0
    7.4826  -11.4902   26.0742 C   0  0  0  0  0  0  0  0  0  0  0  0
    8.4815  -12.2609   26.6291 C   0  0  0  0  0  0  0  0  0  0  0  0
    8.5627  -13.6218   26.4357 C   0  0  0  0  0  0  0  0  0  0  0  0
    7.6195  -14.2690   25.6592 C   0  0  0  0  0  0  0  0  0  0  0  0
   10.3581  -17.8974   25.3988 C   0  0  0  0  0  0  0  0  0  0  0  0
   10.0735  -19.1235   25.4051 O   0  0  0  0  0  0  0  0  0  0  0  0
   11.5330  -17.4823   26.0399 N   0  0  0  0  0  0  0  0  0  0  0  0
   12.4179  -18.4058   26.7449 C   0  0  1  0  0  0  0  0  0  0  0  0
   13.7887  -17.7956   26.6840 C   0  0  0  0  0  0  0  0  0  0  0  0
   14.3224  -17.6197   25.3192 C   0  0  0  0  0  0  0  0  0  0  0  0
   14.2940  -18.5877   24.4788 O   0  0  0  0  0  0  0  0  0  0  0  0
   12.0025  -18.4433   28.1885 C   0  0  0  0  0  0  0  0  0  0  0  0
   12.5921  -19.2214   29.1468 O   0  0  0  0  0  0  0  0  0  0  0  0
   14.8664  -16.4128   24.9136 O   0  0  0  0  0  0  0  0  0  0  0  0
   11.0404  -17.6983   28.5202 O   0  0  0  0  0  0  0  0  0  0  0  0
  2  1  1  0
  3  2  2  0
  4  3  1  0
  5  4  2  0
  5 11  1  0
  6  5  1  0
  7  6  1  0
  7  8  1  6
  9  7  1  0
  9 13  1  0
 10  9  2  0
 11 12  2  0
 12  2  1  0
 14 13  1  0
 14 25  1  0
 14 15  1  1
 16 17  2  0
 16 15  1  0
 18 17  1  0
 19 24  2  0
 19 18  1  0
 20 19  1  0
 21 22  1  0
 21 20  2  0
 22 23  2  0
 23 24  1  0
 24 16  1  0
 25 27  1  0
 25 26  2  0
 27 28  1  0
 28 29  1  1
 30 31  2  0
 30 29  1  0
 32 28  1  0
 32 33  1  0
 34 30  1  0
 35 32  2  0
M  END
$$$$
