YWD.pdb
     RDKit          3D

 35 37  0  0  1  0  0  0  0  0999 V2000
    7.3753  -13.2773   16.1132 O   0  0  0  0  0  0  0  0  0  0  0  0
    7.7416  -13.4917   17.4451 C   0  0  0  0  0  0  0  0  0  0  0  0
    9.0645  -13.5287   17.8305 C   0  0  0  0  0  0  0  0  0  0  0  0
    9.3982  -13.7433   19.1592 C   0  0  0  0  0  0  0  0  0  0  0  0
    8.3912  -13.9178   20.0819 C   0  0  0  0  0  0  0  0  0  0  0  0
    8.7412  -14.1492   21.5072 C   0  0  0  0  0  0  0  0  0  0  0  0
    9.2973  -15.5265   21.7340 C   0  0  2  0  0  0  0  0  0  0  0  0
    8.3719  -16.5310   21.3168 N   0  0  0  0  0  0  0  0  0  0  0  0
    9.6344  -15.6402   23.1893 C   0  0  0  0  0  0  0  0  0  0  0  0
   10.4504  -14.8562   23.7306 O   0  0  0  0  0  0  0  0  0  0  0  0
    7.0716  -13.8829   19.7102 C   0  0  0  0  0  0  0  0  0  0  0  0
    6.7536  -13.6687   18.3856 C   0  0  0  0  0  0  0  0  0  0  0  0
    9.0273  -16.6561   24.0039 N   0  0  0  0  0  0  0  0  0  0  0  0
    9.4114  -16.7851   25.3563 C   0  0  1  0  0  0  0  0  0  0  0  0
    8.3209  -16.6741   26.3822 C   0  0  0  0  0  0  0  0  0  0  0  0
    7.3835  -15.5629   26.1478 C   0  0  0  0  0  0  0  0  0  0  0  0
    6.1322  -15.6374   25.5285 C   0  0  0  0  0  0  0  0  0  0  0  0
    5.5835  -14.4219   25.4853 N   0  0  0  0  0  0  0  0  0  0  0  0
    6.4124  -13.5150   26.0529 C   0  0  0  0  0  0  0  0  0  0  0  0
    6.2811  -12.1550   26.2448 C   0  0  0  0  0  0  0  0  0  0  0  0
    7.2841  -11.4589   26.8653 C   0  0  0  0  0  0  0  0  0  0  0  0
    8.3988  -12.1567   27.2781 C   0  0  0  0  0  0  0  0  0  0  0  0
    8.5364  -13.5137   27.0896 C   0  0  0  0  0  0  0  0  0  0  0  0
    7.5338  -14.2319   26.4647 C   0  0  0  0  0  0  0  0  0  0  0  0
   10.1720  -18.0219   25.6618 C   0  0  0  0  0  0  0  0  0  0  0  0
    9.5851  -19.1125   25.4371 O   0  0  0  0  0  0  0  0  0  0  0  0
   11.4758  -18.0597   26.1742 N   0  0  0  0  0  0  0  0  0  0  0  0
   12.0993  -19.2876   26.6603 C   0  0  1  0  0  0  0  0  0  0  0  0
   13.5496  -18.9610   26.8729 C   0  0  0  0  0  0  0  0  0  0  0  0
   14.3292  -18.7913   25.6312 C   0  0  0  0  0  0  0  0  0  0  0  0
   13.8571  -19.1865   24.5065 O   0  0  0  0  0  0  0  0  0  0  0  0
   11.5073  -19.6147   28.0021 C   0  0  0  0  0  0  0  0  0  0  0  0
   11.7414  -20.7716   28.6937 O   0  0  0  0  0  0  0  0  0  0  0  0
   15.5841  -18.2065   25.6484 O   0  0  0  0  0  0  0  0  0  0  0  0
   10.7429  -18.7494   28.5098 O   0  0  0  0  0  0  0  0  0  0  0  0
  2  1  1  0
  3  2  2  0
  4  3  1  0
  5  4  2  0
  5 11  1  0
  6  5  1  0
  7  6  1  0
  7  8  1  1
  9  7  1  0
  9 13  1  0
 10  9  2  0
 11 12  2  0
 12  2  1  0
 14 13  1  0
 14 25  1  0
 14 15  1  1
 16 17  2  0
 16 15  1  0
 18 17  1  0
 19 24  2  0
 19 18  1  0
 20 19  1  0
 21 22  1  0
 21 20  2  0
 22 23  2  0
 23 24  1  0
 24 16  1  0
 25 27  1  0
 25 26  2  0
 27 28  1  0
 28 29  1  1
 30 31  2  0
 30 29  1  0
 32 28  1  0
 32 33  1  0
 34 30  1  0
 35 32  2  0
M  END
$$$$
