YWD.pdb
     RDKit          3D

 35 37  0  0  1  0  0  0  0  0999 V2000
    6.9176  -13.0223   15.8091 O   0  0  0  0  0  0  0  0  0  0  0  0
    7.2861  -13.2503   17.1382 C   0  0  0  0  0  0  0  0  0  0  0  0
    8.4834  -12.7894   17.6421 C   0  0  0  0  0  0  0  0  0  0  0  0
    8.8226  -13.0306   18.9648 C   0  0  0  0  0  0  0  0  0  0  0  0
    7.9478  -13.7346   19.7618 C   0  0  0  0  0  0  0  0  0  0  0  0
    8.3049  -13.9978   21.1799 C   0  0  0  0  0  0  0  0  0  0  0  0
    9.1469  -15.2335   21.3285 C   0  0  2  0  0  0  0  0  0  0  0  0
    8.4502  -16.3906   20.8644 N   0  0  0  0  0  0  0  0  0  0  0  0
    9.5273  -15.3461   22.7731 C   0  0  0  0  0  0  0  0  0  0  0  0
   10.3408  -14.5469   23.2953 O   0  0  0  0  0  0  0  0  0  0  0  0
    6.7539  -14.1980   19.2715 C   0  0  0  0  0  0  0  0  0  0  0  0
    6.4290  -13.9511   17.9544 C   0  0  0  0  0  0  0  0  0  0  0  0
    8.9656  -16.3787   23.5993 N   0  0  0  0  0  0  0  0  0  0  0  0
    9.3989  -16.5126   24.9363 C   0  0  1  0  0  0  0  0  0  0  0  0
    8.3321  -16.5529   25.9918 C   0  0  0  0  0  0  0  0  0  0  0  0
    7.3256  -15.4846   25.8728 C   0  0  0  0  0  0  0  0  0  0  0  0
    6.0083  -15.6192   25.4242 C   0  0  0  0  0  0  0  0  0  0  0  0
    5.4075  -14.4279   25.4427 N   0  0  0  0  0  0  0  0  0  0  0  0
    6.2644  -13.4797   25.8880 C   0  0  0  0  0  0  0  0  0  0  0  0
    6.1017  -12.1235   26.0832 C   0  0  0  0  0  0  0  0  0  0  0  0
    7.1469  -11.3780   26.5601 C   0  0  0  0  0  0  0  0  0  0  0  0
    8.3347  -12.0236   26.8288 C   0  0  0  0  0  0  0  0  0  0  0  0
    8.5039  -13.3764   26.6361 C   0  0  0  0  0  0  0  0  0  0  0  0
    7.4595  -14.1441   26.1551 C   0  0  0  0  0  0  0  0  0  0  0  0
   10.2934  -17.6718   25.1772 C   0  0  0  0  0  0  0  0  0  0  0  0
    9.8924  -18.7880   24.7557 O   0  0  0  0  0  0  0  0  0  0  0  0
   11.5320  -17.6113   25.8299 N   0  0  0  0  0  0  0  0  0  0  0  0
   12.2847  -18.8037   26.2100 C   0  0  1  0  0  0  0  0  0  0  0  0
   13.7205  -18.3746   26.3085 C   0  0  0  0  0  0  0  0  0  0  0  0
   14.3194  -17.9367   25.0326 C   0  0  0  0  0  0  0  0  0  0  0  0
   13.7207  -18.1608   23.9211 O   0  0  0  0  0  0  0  0  0  0  0  0
   11.8411  -19.2201   27.5839 C   0  0  0  0  0  0  0  0  0  0  0  0
   10.8925  -18.5699   28.3247 O   0  0  0  0  0  0  0  0  0  0  0  0
   15.5370  -17.2784   25.0023 O   0  0  0  0  0  0  0  0  0  0  0  0
   12.3944  -20.2434   28.0715 O   0  0  0  0  0  0  0  0  0  0  0  0
  2  1  1  0
  3  2  2  0
  4  3  1  0
  5  4  2  0
  5 11  1  0
  6  5  1  0
  7  6  1  0
  7  8  1  1
  9  7  1  0
  9 13  1  0
 10  9  2  0
 11 12  2  0
 12  2  1  0
 14 13  1  0
 14 25  1  0
 14 15  1  1
 16 17  2  0
 16 15  1  0
 18 17  1  0
 19 24  2  0
 19 18  1  0
 20 19  1  0
 21 22  1  0
 21 20  2  0
 22 23  2  0
 23 24  1  0
 24 16  1  0
 25 27  1  0
 25 26  2  0
 27 28  1  0
 28 29  1  1
 30 31  2  0
 30 29  1  0
 32 28  1  0
 32 33  1  0
 34 30  1  0
 35 32  2  0
M  END
$$$$
