YWD.pdb
     RDKit          3D

 35 37  0  0  1  0  0  0  0  0999 V2000
    7.3487  -13.5853   15.5560 O   0  0  0  0  0  0  0  0  0  0  0  0
    7.7539  -13.7713   16.8809 C   0  0  0  0  0  0  0  0  0  0  0  0
    8.8897  -14.4875   17.1922 C   0  0  0  0  0  0  0  0  0  0  0  0
    9.2674  -14.6558   18.5157 C   0  0  0  0  0  0  0  0  0  0  0  0
    8.4927  -14.0984   19.5083 C   0  0  0  0  0  0  0  0  0  0  0  0
    8.8905  -14.2754   20.9288 C   0  0  0  0  0  0  0  0  0  0  0  0
    9.1373  -15.7181   21.2689 C   0  0  2  0  0  0  0  0  0  0  0  0
    8.0162  -16.5296   20.9168 N   0  0  0  0  0  0  0  0  0  0  0  0
    9.4458  -15.7875   22.7332 C   0  0  0  0  0  0  0  0  0  0  0  0
   10.3996  -15.1402   23.2280 O   0  0  0  0  0  0  0  0  0  0  0  0
    7.3607  -13.3838   19.2107 C   0  0  0  0  0  0  0  0  0  0  0  0
    6.9965  -13.2240   17.8903 C   0  0  0  0  0  0  0  0  0  0  0  0
    8.6514  -16.6021   23.6106 N   0  0  0  0  0  0  0  0  0  0  0  0
    9.0472  -16.7662   24.9558 C   0  0  1  0  0  0  0  0  0  0  0  0
    7.9578  -16.7434   25.9885 C   0  0  0  0  0  0  0  0  0  0  0  0
    7.0999  -15.5478   25.9334 C   0  0  0  0  0  0  0  0  0  0  0  0
    5.7705  -15.4883   25.5045 C   0  0  0  0  0  0  0  0  0  0  0  0
    5.3326  -14.2303   25.5842 N   0  0  0  0  0  0  0  0  0  0  0  0
    6.3131  -13.4235   26.0526 C   0  0  0  0  0  0  0  0  0  0  0  0
    6.3335  -12.0676   26.3075 C   0  0  0  0  0  0  0  0  0  0  0  0
    7.4743  -11.4877   26.7953 C   0  0  0  0  0  0  0  0  0  0  0  0
    8.5699  -12.2950   27.0143 C   0  0  0  0  0  0  0  0  0  0  0  0
    8.5563  -13.6485   26.7619 C   0  0  0  0  0  0  0  0  0  0  0  0
    7.4134  -14.2503   26.2690 C   0  0  0  0  0  0  0  0  0  0  0  0
    9.8631  -17.9791   25.2107 C   0  0  0  0  0  0  0  0  0  0  0  0
    9.2548  -19.0809   25.1859 O   0  0  0  0  0  0  0  0  0  0  0  0
   11.2398  -17.9834   25.4725 N   0  0  0  0  0  0  0  0  0  0  0  0
   11.9990  -19.2110   25.6941 C   0  0  1  0  0  0  0  0  0  0  0  0
   13.2715  -19.0596   24.9113 C   0  0  0  0  0  0  0  0  0  0  0  0
   14.2414  -20.1563   25.0979 C   0  0  0  0  0  0  0  0  0  0  0  0
   14.0065  -21.0983   25.9355 O   0  0  0  0  0  0  0  0  0  0  0  0
   12.3675  -19.2782   27.1493 C   0  0  0  0  0  0  0  0  0  0  0  0
   12.2217  -18.2470   28.0364 O   0  0  0  0  0  0  0  0  0  0  0  0
   15.4243  -20.1955   24.3794 O   0  0  0  0  0  0  0  0  0  0  0  0
   12.8437  -20.3705   27.5629 O   0  0  0  0  0  0  0  0  0  0  0  0
  2  1  1  0
  3  2  2  0
  4  3  1  0
  5  4  2  0
  5 11  1  0
  6  5  1  0
  7  6  1  0
  7  8  1  1
  9  7  1  0
  9 13  1  0
 10  9  2  0
 11 12  2  0
 12  2  1  0
 14 13  1  0
 14 25  1  0
 14 15  1  1
 16 17  2  0
 16 15  1  0
 18 17  1  0
 19 24  2  0
 19 18  1  0
 20 19  1  0
 21 22  1  0
 21 20  2  0
 22 23  2  0
 23 24  1  0
 24 16  1  0
 25 27  1  0
 25 26  2  0
 27 28  1  0
 28 29  1  6
 30 31  2  0
 30 29  1  0
 32 28  1  0
 32 33  1  0
 34 30  1  0
 35 32  2  0
M  END
$$$$
