YWD.pdb
     RDKit          3D

 35 37  0  0  1  0  0  0  0  0999 V2000
    6.9272  -13.8229   15.8975 O   0  0  0  0  0  0  0  0  0  0  0  0
    7.3382  -14.0040   17.2214 C   0  0  0  0  0  0  0  0  0  0  0  0
    7.7319  -15.2391   17.6899 C   0  0  0  0  0  0  0  0  0  0  0  0
    8.1347  -15.3890   19.0083 C   0  0  0  0  0  0  0  0  0  0  0  0
    8.1347  -14.2892   19.8367 C   0  0  0  0  0  0  0  0  0  0  0  0
    8.5641  -14.4424   21.2508 C   0  0  0  0  0  0  0  0  0  0  0  0
    9.0409  -15.8363   21.5467 C   0  0  2  0  0  0  0  0  0  0  0  0
    7.9955  -16.7901   21.3548 N   0  0  0  0  0  0  0  0  0  0  0  0
    9.5602  -15.8441   22.9519 C   0  0  0  0  0  0  0  0  0  0  0  0
   10.4586  -15.0486   23.3174 O   0  0  0  0  0  0  0  0  0  0  0  0
    7.7453  -13.0555   19.3817 C   0  0  0  0  0  0  0  0  0  0  0  0
    7.3471  -12.9204   18.0685 C   0  0  0  0  0  0  0  0  0  0  0  0
    9.0380  -16.7686   23.9199 N   0  0  0  0  0  0  0  0  0  0  0  0
    9.5476  -16.7592   25.2365 C   0  0  1  0  0  0  0  0  0  0  0  0
    8.5558  -16.5489   26.3437 C   0  0  0  0  0  0  0  0  0  0  0  0
    7.5167  -15.5505   26.0407 C   0  0  0  0  0  0  0  0  0  0  0  0
    6.2401  -15.7977   25.5269 C   0  0  0  0  0  0  0  0  0  0  0  0
    5.5907  -14.6423   25.3723 N   0  0  0  0  0  0  0  0  0  0  0  0
    6.3749  -13.6102   25.7615 C   0  0  0  0  0  0  0  0  0  0  0  0
    6.1432  -12.2504   25.7915 C   0  0  0  0  0  0  0  0  0  0  0  0
    7.1214  -11.4069   26.2469 C   0  0  0  0  0  0  0  0  0  0  0  0
    8.3135  -11.9603   26.6622 C   0  0  0  0  0  0  0  0  0  0  0  0
    8.5514  -13.3162   26.6348 C   0  0  0  0  0  0  0  0  0  0  0  0
    7.5752  -14.1821   26.1777 C   0  0  0  0  0  0  0  0  0  0  0  0
   10.3491  -17.9563   25.5917 C   0  0  0  0  0  0  0  0  0  0  0  0
    9.9097  -19.0658   25.1912 O   0  0  0  0  0  0  0  0  0  0  0  0
   11.5405  -17.9380   26.3292 N   0  0  0  0  0  0  0  0  0  0  0  0
   12.2039  -19.1545   26.7906 C   0  0  1  0  0  0  0  0  0  0  0  0
   13.6278  -18.7697   27.0728 C   0  0  0  0  0  0  0  0  0  0  0  0
   14.4840  -18.6638   25.8753 C   0  0  0  0  0  0  0  0  0  0  0  0
   14.0097  -18.9154   24.7110 O   0  0  0  0  0  0  0  0  0  0  0  0
   11.5785  -19.5641   28.0941 C   0  0  0  0  0  0  0  0  0  0  0  0
   11.8486  -20.7325   28.7525 O   0  0  0  0  0  0  0  0  0  0  0  0
   15.8145  -18.2944   25.9774 O   0  0  0  0  0  0  0  0  0  0  0  0
   10.7483  -18.7610   28.6007 O   0  0  0  0  0  0  0  0  0  0  0  0
  2  1  1  0
  3  2  2  0
  4  3  1  0
  5  4  2  0
  5 11  1  0
  6  5  1  0
  7  6  1  0
  7  8  1  1
  9  7  1  0
  9 13  1  0
 10  9  2  0
 11 12  2  0
 12  2  1  0
 14 13  1  0
 14 25  1  0
 14 15  1  1
 16 17  2  0
 16 15  1  0
 18 17  1  0
 19 24  2  0
 19 18  1  0
 20 19  1  0
 21 22  1  0
 21 20  2  0
 22 23  2  0
 23 24  1  0
 24 16  1  0
 25 27  1  0
 25 26  2  0
 27 28  1  0
 28 29  1  1
 30 31  2  0
 30 29  1  0
 32 28  1  0
 32 33  1  0
 34 30  1  0
 35 32  2  0
M  END
$$$$
