YWD.pdb
     RDKit          3D

 35 37  0  0  1  0  0  0  0  0999 V2000
    7.0429  -13.4737   15.8095 O   0  0  0  0  0  0  0  0  0  0  0  0
    7.4537  -13.6918   17.1278 C   0  0  0  0  0  0  0  0  0  0  0  0
    7.8042  -14.9481   17.5737 C   0  0  0  0  0  0  0  0  0  0  0  0
    8.2079  -15.1346   18.8871 C   0  0  0  0  0  0  0  0  0  0  0  0
    8.2527  -14.0494   19.7334 C   0  0  0  0  0  0  0  0  0  0  0  0
    8.6834  -14.2417   21.1424 C   0  0  0  0  0  0  0  0  0  0  0  0
    9.0526  -15.6699   21.4284 C   0  0  2  0  0  0  0  0  0  0  0  0
    7.9427  -16.5423   21.2121 N   0  0  0  0  0  0  0  0  0  0  0  0
    9.5505  -15.7305   22.8400 C   0  0  0  0  0  0  0  0  0  0  0  0
   10.4756  -14.9815   23.2357 O   0  0  0  0  0  0  0  0  0  0  0  0
    7.9065  -12.7949   19.3010 C   0  0  0  0  0  0  0  0  0  0  0  0
    7.5067  -12.6234   17.9925 C   0  0  0  0  0  0  0  0  0  0  0  0
    8.9765  -16.6537   23.7795 N   0  0  0  0  0  0  0  0  0  0  0  0
    9.4812  -16.7098   25.0968 C   0  0  1  0  0  0  0  0  0  0  0  0
    8.4803  -16.5933   26.2096 C   0  0  0  0  0  0  0  0  0  0  0  0
    7.4715  -15.5402   26.0053 C   0  0  0  0  0  0  0  0  0  0  0  0
    6.1775  -15.7044   25.5017 C   0  0  0  0  0  0  0  0  0  0  0  0
    5.5664  -14.5194   25.4488 N   0  0  0  0  0  0  0  0  0  0  0  0
    6.3936  -13.5470   25.8980 C   0  0  0  0  0  0  0  0  0  0  0  0
    6.2106  -12.1864   26.0356 C   0  0  0  0  0  0  0  0  0  0  0  0
    7.2262  -11.4135   26.5324 C   0  0  0  0  0  0  0  0  0  0  0  0
    8.4057  -12.0368   26.8791 C   0  0  0  0  0  0  0  0  0  0  0  0
    8.5951  -13.3939   26.7442 C   0  0  0  0  0  0  0  0  0  0  0  0
    7.5807  -14.1891   26.2440 C   0  0  0  0  0  0  0  0  0  0  0  0
   10.3136  -17.9042   25.3835 C   0  0  0  0  0  0  0  0  0  0  0  0
    9.8173  -19.0207   25.0814 O   0  0  0  0  0  0  0  0  0  0  0  0
   11.5918  -17.8761   25.9573 N   0  0  0  0  0  0  0  0  0  0  0  0
   12.3510  -19.0871   26.2573 C   0  0  1  0  0  0  0  0  0  0  0  0
   13.7641  -18.6416   26.5016 C   0  0  0  0  0  0  0  0  0  0  0  0
   14.7054  -19.7328   26.8207 C   0  0  0  0  0  0  0  0  0  0  0  0
   14.7138  -20.2657   27.9868 O   0  0  0  0  0  0  0  0  0  0  0  0
   11.8283  -19.6615   27.5437 C   0  0  0  0  0  0  0  0  0  0  0  0
   12.0371  -20.9470   27.9623 O   0  0  0  0  0  0  0  0  0  0  0  0
   15.6000  -20.2053   25.8755 O   0  0  0  0  0  0  0  0  0  0  0  0
   11.1512  -18.8885   28.2750 O   0  0  0  0  0  0  0  0  0  0  0  0
  2  1  1  0
  3  2  2  0
  4  3  1  0
  5  4  2  0
  5 11  1  0
  6  5  1  0
  7  6  1  0
  7  8  1  1
  9  7  1  0
  9 13  1  0
 10  9  2  0
 11 12  2  0
 12  2  1  0
 14 13  1  0
 14 25  1  0
 14 15  1  1
 16 17  2  0
 16 15  1  0
 18 17  1  0
 19 24  2  0
 19 18  1  0
 20 19  1  0
 21 22  1  0
 21 20  2  0
 22 23  2  0
 23 24  1  0
 24 16  1  0
 25 27  1  0
 25 26  2  0
 27 28  1  0
 28 29  1  1
 30 31  2  0
 30 29  1  0
 32 28  1  0
 32 33  1  0
 34 30  1  0
 35 32  2  0
M  END
$$$$
