YWD.pdb
     RDKit          3D

 35 37  0  0  1  0  0  0  0  0999 V2000
    5.3400  -13.6794   19.1413 O   0  0  0  0  0  0  0  0  0  0  0  0
    6.6314  -13.9253   19.6169 C   0  0  0  0  0  0  0  0  0  0  0  0
    7.4117  -12.9144   20.1357 C   0  0  0  0  0  0  0  0  0  0  0  0
    8.6893  -13.1878   20.6002 C   0  0  0  0  0  0  0  0  0  0  0  0
    9.1625  -14.4792   20.5347 C   0  0  0  0  0  0  0  0  0  0  0  0
   10.5309  -14.7796   21.0296 C   0  0  0  0  0  0  0  0  0  0  0  0
   10.6394  -16.1765   21.5723 C   0  0  2  0  0  0  0  0  0  0  0  0
    9.6637  -17.0360   20.9817 N   0  0  0  0  0  0  0  0  0  0  0  0
   10.4897  -16.0926   23.0605 C   0  0  0  0  0  0  0  0  0  0  0  0
   11.2316  -15.3503   23.7476 O   0  0  0  0  0  0  0  0  0  0  0  0
    8.3953  -15.4930   20.0207 C   0  0  0  0  0  0  0  0  0  0  0  0
    7.1266  -15.2073   19.5623 C   0  0  0  0  0  0  0  0  0  0  0  0
    9.4867  -16.8651   23.7398 N   0  0  0  0  0  0  0  0  0  0  0  0
    9.4306  -16.8458   25.1504 C   0  0  1  0  0  0  0  0  0  0  0  0
    8.0726  -16.6881   25.7708 C   0  0  0  0  0  0  0  0  0  0  0  0
    7.3779  -15.4459   25.3931 C   0  0  0  0  0  0  0  0  0  0  0  0
    6.5327  -15.2578   24.2954 C   0  0  0  0  0  0  0  0  0  0  0  0
    6.1038  -13.9944   24.2746 N   0  0  0  0  0  0  0  0  0  0  0  0
    6.6236  -13.3077   25.3186 C   0  0  0  0  0  0  0  0  0  0  0  0
    6.4682  -11.9950   25.7141 C   0  0  0  0  0  0  0  0  0  0  0  0
    7.1127  -11.5450   26.8356 C   0  0  0  0  0  0  0  0  0  0  0  0
    7.9008  -12.4357   27.5323 C   0  0  0  0  0  0  0  0  0  0  0  0
    8.0604  -13.7469   27.1432 C   0  0  0  0  0  0  0  0  0  0  0  0
    7.4175  -14.2178   26.0134 C   0  0  0  0  0  0  0  0  0  0  0  0
   10.0755  -18.0107   25.8052 C   0  0  0  0  0  0  0  0  0  0  0  0
    9.5712  -19.1393   25.5673 O   0  0  0  0  0  0  0  0  0  0  0  0
   11.1877  -17.9432   26.6551 N   0  0  0  0  0  0  0  0  0  0  0  0
   11.7440  -19.1158   27.3244 C   0  0  1  0  0  0  0  0  0  0  0  0
   13.1755  -18.7798   27.6297 C   0  0  0  0  0  0  0  0  0  0  0  0
   14.0810  -18.8360   26.4655 C   0  0  0  0  0  0  0  0  0  0  0  0
   13.6504  -19.2292   25.3236 O   0  0  0  0  0  0  0  0  0  0  0  0
   11.0302  -19.2903   28.6352 C   0  0  0  0  0  0  0  0  0  0  0  0
   11.2259  -20.3375   29.4933 O   0  0  0  0  0  0  0  0  0  0  0  0
   15.4117  -18.4699   26.5758 O   0  0  0  0  0  0  0  0  0  0  0  0
   10.1955  -18.3981   28.9483 O   0  0  0  0  0  0  0  0  0  0  0  0
  2  1  1  0
  3  2  2  0
  4  3  1  0
  5  4  2  0
  5 11  1  0
  6  5  1  0
  7  6  1  0
  7  8  1  6
  9  7  1  0
  9 13  1  0
 10  9  2  0
 11 12  2  0
 12  2  1  0
 14 13  1  0
 14 25  1  0
 14 15  1  6
 16 17  2  0
 16 15  1  0
 18 17  1  0
 19 24  2  0
 19 18  1  0
 20 19  1  0
 21 22  1  0
 21 20  2  0
 22 23  2  0
 23 24  1  0
 24 16  1  0
 25 27  1  0
 25 26  2  0
 27 28  1  0
 28 29  1  1
 30 31  2  0
 30 29  1  0
 32 28  1  0
 32 33  1  0
 34 30  1  0
 35 32  2  0
M  END
$$$$
