YWD.pdb
     RDKit          3D

 35 37  0  0  1  0  0  0  0  0999 V2000
    6.9698  -14.0942   14.0872 O   0  0  0  0  0  0  0  0  0  0  0  0
    7.6373  -14.1416   15.3146 C   0  0  0  0  0  0  0  0  0  0  0  0
    8.4723  -15.1891   15.6394 C   0  0  0  0  0  0  0  0  0  0  0  0
    9.1214  -15.2096   16.8646 C   0  0  0  0  0  0  0  0  0  0  0  0
    8.9187  -14.1715   17.7462 C   0  0  0  0  0  0  0  0  0  0  0  0
    9.6101  -14.1871   19.0613 C   0  0  0  0  0  0  0  0  0  0  0  0
    9.6021  -15.5539   19.6854 C   0  0  2  0  0  0  0  0  0  0  0  0
    8.5383  -16.3519   19.1649 N   0  0  0  0  0  0  0  0  0  0  0  0
    9.4949  -15.3693   21.1683 C   0  0  0  0  0  0  0  0  0  0  0  0
   10.3779  -14.7537   21.8123 O   0  0  0  0  0  0  0  0  0  0  0  0
    8.0904  -13.1241   17.4339 C   0  0  0  0  0  0  0  0  0  0  0  0
    7.4511  -13.1162   16.2122 C   0  0  0  0  0  0  0  0  0  0  0  0
    8.3711  -15.8965   21.8919 N   0  0  0  0  0  0  0  0  0  0  0  0
    8.3307  -15.7762   23.2980 C   0  0  1  0  0  0  0  0  0  0  0  0
    6.9721  -15.7654   23.9367 C   0  0  0  0  0  0  0  0  0  0  0  0
    6.9662  -15.2978   25.3330 C   0  0  0  0  0  0  0  0  0  0  0  0
    6.9353  -16.0917   26.4835 C   0  0  0  0  0  0  0  0  0  0  0  0
    6.9247  -15.3095   27.5644 N   0  0  0  0  0  0  0  0  0  0  0  0
    6.9475  -14.0068   27.1983 C   0  0  0  0  0  0  0  0  0  0  0  0
    6.9534  -12.8491   27.9489 C   0  0  0  0  0  0  0  0  0  0  0  0
    6.9865  -11.6337   27.3184 C   0  0  0  0  0  0  0  0  0  0  0  0
    7.0130  -11.6182   25.9404 C   0  0  0  0  0  0  0  0  0  0  0  0
    7.0071  -12.7696   25.1853 C   0  0  0  0  0  0  0  0  0  0  0  0
    6.9735  -14.0049   25.8053 C   0  0  0  0  0  0  0  0  0  0  0  0
    9.1441  -16.7837   24.0226 C   0  0  0  0  0  0  0  0  0  0  0  0
    8.8624  -17.9919   23.8097 O   0  0  0  0  0  0  0  0  0  0  0  0
   10.1861  -16.4888   24.9121 N   0  0  0  0  0  0  0  0  0  0  0  0
   10.9499  -17.5222   25.6060 C   0  0  1  0  0  0  0  0  0  0  0  0
   12.3858  -17.0858   25.5494 C   0  0  0  0  0  0  0  0  0  0  0  0
   13.0184  -17.2267   24.2234 C   0  0  0  0  0  0  0  0  0  0  0  0
   12.6565  -18.1623   23.4249 O   0  0  0  0  0  0  0  0  0  0  0  0
   10.5334  -17.5233   27.0497 C   0  0  0  0  0  0  0  0  0  0  0  0
   10.9685  -18.4235   27.9835 O   0  0  0  0  0  0  0  0  0  0  0  0
   14.0149  -16.3587   23.8103 O   0  0  0  0  0  0  0  0  0  0  0  0
    9.7248  -16.6233   27.4063 O   0  0  0  0  0  0  0  0  0  0  0  0
  2  1  1  0
  3  2  2  0
  4  3  1  0
  5  4  2  0
  5 11  1  0
  6  5  1  0
  7  6  1  0
  7  8  1  6
  9  7  1  0
  9 13  1  0
 10  9  2  0
 11 12  2  0
 12  2  1  0
 14 13  1  0
 14 25  1  0
 14 15  1  1
 16 17  2  0
 16 15  1  0
 18 17  1  0
 19 24  2  0
 19 18  1  0
 20 19  1  0
 21 22  1  0
 21 20  2  0
 22 23  2  0
 23 24  1  0
 24 16  1  0
 25 27  1  0
 25 26  2  0
 27 28  1  0
 28 29  1  1
 30 31  2  0
 30 29  1  0
 32 28  1  0
 32 33  1  0
 34 30  1  0
 35 32  2  0
M  END
$$$$
