YWD.pdb
     RDKit          3D

 35 37  0  0  1  0  0  0  0  0999 V2000
    6.8973  -13.4786   15.5296 O   0  0  0  0  0  0  0  0  0  0  0  0
    7.1837  -13.6046   16.8920 C   0  0  0  0  0  0  0  0  0  0  0  0
    6.4244  -14.4078   17.7155 C   0  0  0  0  0  0  0  0  0  0  0  0
    6.7319  -14.5136   19.0635 C   0  0  0  0  0  0  0  0  0  0  0  0
    7.8028  -13.8064   19.5626 C   0  0  0  0  0  0  0  0  0  0  0  0
    8.1378  -13.9140   21.0061 C   0  0  0  0  0  0  0  0  0  0  0  0
    9.1861  -14.9591   21.2646 C   0  0  2  0  0  0  0  0  0  0  0  0
    8.7395  -16.2506   20.8497 N   0  0  0  0  0  0  0  0  0  0  0  0
    9.5102  -14.9175   22.7266 C   0  0  0  0  0  0  0  0  0  0  0  0
    9.9940  -13.8884   23.2561 O   0  0  0  0  0  0  0  0  0  0  0  0
    8.5655  -13.0043   18.7529 C   0  0  0  0  0  0  0  0  0  0  0  0
    8.2487  -12.9082   17.4143 C   0  0  0  0  0  0  0  0  0  0  0  0
    9.2729  -16.0624   23.5616 N   0  0  0  0  0  0  0  0  0  0  0  0
    9.7618  -16.0708   24.8860 C   0  0  1  0  0  0  0  0  0  0  0  0
    8.7591  -16.3204   25.9751 C   0  0  0  0  0  0  0  0  0  0  0  0
    7.5746  -15.4476   25.9156 C   0  0  0  0  0  0  0  0  0  0  0  0
    6.2705  -15.8247   25.5810 C   0  0  0  0  0  0  0  0  0  0  0  0
    5.4732  -14.7555   25.6220 N   0  0  0  0  0  0  0  0  0  0  0  0
    6.1823  -13.6575   25.9730 C   0  0  0  0  0  0  0  0  0  0  0  0
    5.7997  -12.3437   26.1501 C   0  0  0  0  0  0  0  0  0  0  0  0
    6.7317  -11.4114   26.5215 C   0  0  0  0  0  0  0  0  0  0  0  0
    8.0316  -11.8313   26.7055 C   0  0  0  0  0  0  0  0  0  0  0  0
    8.4202  -13.1406   26.5303 C   0  0  0  0  0  0  0  0  0  0  0  0
    7.4926  -14.0946   26.1551 C   0  0  0  0  0  0  0  0  0  0  0  0
   10.8940  -17.0021   25.1152 C   0  0  0  0  0  0  0  0  0  0  0  0
   11.2662  -17.1512   26.3084 O   0  0  0  0  0  0  0  0  0  0  0  0
   11.5661  -17.7147   24.1131 N   0  0  0  0  0  0  0  0  0  0  0  0
   12.6446  -18.6566   24.4003 C   0  0  1  0  0  0  0  0  0  0  0  0
   12.8544  -19.4450   23.1395 C   0  0  0  0  0  0  0  0  0  0  0  0
   11.6708  -20.1995   22.6831 C   0  0  0  0  0  0  0  0  0  0  0  0
   10.7777  -20.5797   23.5209 O   0  0  0  0  0  0  0  0  0  0  0  0
   13.8988  -17.8696   24.6564 C   0  0  0  0  0  0  0  0  0  0  0  0
   15.0394  -18.3834   25.2099 O   0  0  0  0  0  0  0  0  0  0  0  0
   11.4960  -20.5167   21.3467 O   0  0  0  0  0  0  0  0  0  0  0  0
   13.8786  -16.6510   24.3316 O   0  0  0  0  0  0  0  0  0  0  0  0
  2  1  1  0
  3  2  2  0
  4  3  1  0
  5  4  2  0
  5 11  1  0
  6  5  1  0
  7  6  1  0
  7  8  1  1
  9  7  1  0
  9 13  1  0
 10  9  2  0
 11 12  2  0
 12  2  1  0
 14 13  1  0
 14 25  1  0
 14 15  1  1
 16 17  2  0
 16 15  1  0
 18 17  1  0
 19 24  2  0
 19 18  1  0
 20 19  1  0
 21 22  1  0
 21 20  2  0
 22 23  2  0
 23 24  1  0
 24 16  1  0
 25 27  1  0
 25 26  2  0
 27 28  1  0
 28 29  1  6
 30 31  2  0
 30 29  1  0
 32 28  1  0
 32 33  1  0
 34 30  1  0
 35 32  2  0
M  END
$$$$
