YWD.pdb
     RDKit          3D

 35 37  0  0  1  0  0  0  0  0999 V2000
    8.7880  -19.5688   14.9704 O   0  0  0  0  0  0  0  0  0  0  0  0
    9.1332  -19.1153   16.2469 C   0  0  0  0  0  0  0  0  0  0  0  0
    8.4430  -19.5256   17.3672 C   0  0  0  0  0  0  0  0  0  0  0  0
    8.8079  -19.0591   18.6210 C   0  0  0  0  0  0  0  0  0  0  0  0
    9.8655  -18.1839   18.7272 C   0  0  0  0  0  0  0  0  0  0  0  0
   10.2616  -17.6790   20.0673 C   0  0  0  0  0  0  0  0  0  0  0  0
    9.2314  -16.7512   20.6465 C   0  0  2  0  0  0  0  0  0  0  0  0
    9.0113  -15.6278   19.7925 N   0  0  0  0  0  0  0  0  0  0  0  0
    9.7105  -16.3409   22.0054 C   0  0  0  0  0  0  0  0  0  0  0  0
   10.5875  -15.4551   22.1454 O   0  0  0  0  0  0  0  0  0  0  0  0
   10.5596  -17.7687   17.6197 C   0  0  0  0  0  0  0  0  0  0  0  0
   10.1863  -18.2404   16.3788 C   0  0  0  0  0  0  0  0  0  0  0  0
    9.1733  -16.9564   23.1874 N   0  0  0  0  0  0  0  0  0  0  0  0
    9.6999  -16.6127   24.4514 C   0  0  1  0  0  0  0  0  0  0  0  0
    8.7084  -16.3085   25.5367 C   0  0  0  0  0  0  0  0  0  0  0  0
    7.6804  -15.3253   25.1559 C   0  0  0  0  0  0  0  0  0  0  0  0
    6.5743  -15.5453   24.3296 C   0  0  0  0  0  0  0  0  0  0  0  0
    5.8790  -14.4132   24.2051 N   0  0  0  0  0  0  0  0  0  0  0  0
    6.4673  -13.4234   24.9164 C   0  0  0  0  0  0  0  0  0  0  0  0
    6.1197  -12.1004   25.0969 C   0  0  0  0  0  0  0  0  0  0  0  0
    6.8980  -11.2979   25.8882 C   0  0  0  0  0  0  0  0  0  0  0  0
    8.0119  -11.8541   26.4795 C   0  0  0  0  0  0  0  0  0  0  0  0
    8.3645  -13.1734   26.3035 C   0  0  0  0  0  0  0  0  0  0  0  0
    7.5906  -13.9976   25.5077 C   0  0  0  0  0  0  0  0  0  0  0  0
   10.6606  -17.5995   25.0037 C   0  0  0  0  0  0  0  0  0  0  0  0
   10.3451  -18.8131   24.8935 O   0  0  0  0  0  0  0  0  0  0  0  0
   11.8735  -17.2800   25.6285 N   0  0  0  0  0  0  0  0  0  0  0  0
   12.7926  -18.2946   26.1372 C   0  0  1  0  0  0  0  0  0  0  0  0
   14.1398  -17.6353   26.2106 C   0  0  0  0  0  0  0  0  0  0  0  0
   14.6534  -17.1424   24.9177 C   0  0  0  0  0  0  0  0  0  0  0  0
   14.5858  -17.8752   23.8677 O   0  0  0  0  0  0  0  0  0  0  0  0
   12.3801  -18.6397   27.5403 C   0  0  0  0  0  0  0  0  0  0  0  0
   12.9788  -19.5966   28.3132 O   0  0  0  0  0  0  0  0  0  0  0  0
   15.2203  -15.8841   24.8057 O   0  0  0  0  0  0  0  0  0  0  0  0
   11.4115  -17.9908   28.0214 O   0  0  0  0  0  0  0  0  0  0  0  0
  2  1  1  0
  3  2  2  0
  4  3  1  0
  5  4  2  0
  5 11  1  0
  6  5  1  0
  7  6  1  0
  7  8  1  6
  9  7  1  0
  9 13  1  0
 10  9  2  0
 11 12  2  0
 12  2  1  0
 14 13  1  0
 14 25  1  0
 14 15  1  1
 16 17  2  0
 16 15  1  0
 18 17  1  0
 19 24  2  0
 19 18  1  0
 20 19  1  0
 21 22  1  0
 21 20  2  0
 22 23  2  0
 23 24  1  0
 24 16  1  0
 25 27  1  0
 25 26  2  0
 27 28  1  0
 28 29  1  1
 30 31  2  0
 30 29  1  0
 32 28  1  0
 32 33  1  0
 34 30  1  0
 35 32  2  0
M  END
$$$$
