YWD.pdb
     RDKit          3D

 35 37  0  0  1  0  0  0  0  0999 V2000
    6.5974  -13.8608   15.5992 O   0  0  0  0  0  0  0  0  0  0  0  0
    7.0793  -13.9515   16.9083 C   0  0  0  0  0  0  0  0  0  0  0  0
    7.5268  -15.1467   17.4291 C   0  0  0  0  0  0  0  0  0  0  0  0
    7.9994  -15.2068   18.7313 C   0  0  0  0  0  0  0  0  0  0  0  0
    8.0140  -14.0585   19.4911 C   0  0  0  0  0  0  0  0  0  0  0  0
    8.5181  -14.1154   20.8876 C   0  0  0  0  0  0  0  0  0  0  0  0
    9.0726  -15.4690   21.2314 C   0  0  2  0  0  0  0  0  0  0  0  0
    8.0806  -16.4854   21.0816 N   0  0  0  0  0  0  0  0  0  0  0  0
    9.5978  -15.3960   22.6326 C   0  0  0  0  0  0  0  0  0  0  0  0
   10.4847  -14.5685   22.9520 O   0  0  0  0  0  0  0  0  0  0  0  0
    7.5714  -12.8638   18.9837 C   0  0  0  0  0  0  0  0  0  0  0  0
    7.1040  -12.8181   17.6872 C   0  0  0  0  0  0  0  0  0  0  0  0
    9.0947  -16.2775   23.6495 N   0  0  0  0  0  0  0  0  0  0  0  0
    9.6774  -16.2607   24.9353 C   0  0  1  0  0  0  0  0  0  0  0  0
    8.7403  -16.3645   26.1035 C   0  0  0  0  0  0  0  0  0  0  0  0
    7.5673  -15.4785   26.0160 C   0  0  0  0  0  0  0  0  0  0  0  0
    6.2497  -15.8558   25.7398 C   0  0  0  0  0  0  0  0  0  0  0  0
    5.4692  -14.7736   25.7299 N   0  0  0  0  0  0  0  0  0  0  0  0
    6.2029  -13.6664   25.9896 C   0  0  0  0  0  0  0  0  0  0  0  0
    5.8440  -12.3378   26.0888 C   0  0  0  0  0  0  0  0  0  0  0  0
    6.7987  -11.3982   26.3743 C   0  0  0  0  0  0  0  0  0  0  0  0
    8.0968  -11.8259   26.5531 C   0  0  0  0  0  0  0  0  0  0  0  0
    8.4618  -13.1500   26.4553 C   0  0  0  0  0  0  0  0  0  0  0  0
    7.5111  -14.1116   26.1675 C   0  0  0  0  0  0  0  0  0  0  0  0
   10.7410  -17.2751   25.1392 C   0  0  0  0  0  0  0  0  0  0  0  0
   10.6274  -18.0123   26.1531 O   0  0  0  0  0  0  0  0  0  0  0  0
   11.8439  -17.4662   24.2961 N   0  0  0  0  0  0  0  0  0  0  0  0
   12.8591  -18.4871   24.5409 C   0  0  1  0  0  0  0  0  0  0  0  0
   13.0734  -19.1832   23.2276 C   0  0  0  0  0  0  0  0  0  0  0  0
   14.1254  -20.2183   23.2458 C   0  0  0  0  0  0  0  0  0  0  0  0
   14.7606  -20.4826   24.3278 O   0  0  0  0  0  0  0  0  0  0  0  0
   14.1430  -17.7946   24.9013 C   0  0  0  0  0  0  0  0  0  0  0  0
   15.1873  -18.3862   25.5578 O   0  0  0  0  0  0  0  0  0  0  0  0
   14.4535  -20.9253   22.1015 O   0  0  0  0  0  0  0  0  0  0  0  0
   14.2459  -16.5828   24.5669 O   0  0  0  0  0  0  0  0  0  0  0  0
  2  1  1  0
  3  2  2  0
  4  3  1  0
  5  4  2  0
  5 11  1  0
  6  5  1  0
  7  6  1  0
  7  8  1  1
  9  7  1  0
  9 13  1  0
 10  9  2  0
 11 12  2  0
 12  2  1  0
 14 13  1  0
 14 25  1  0
 14 15  1  1
 16 17  2  0
 16 15  1  0
 18 17  1  0
 19 24  2  0
 19 18  1  0
 20 19  1  0
 21 22  1  0
 21 20  2  0
 22 23  2  0
 23 24  1  0
 24 16  1  0
 25 27  1  0
 25 26  2  0
 27 28  1  0
 28 29  1  6
 30 31  2  0
 30 29  1  0
 32 28  1  0
 32 33  1  0
 34 30  1  0
 35 32  2  0
M  END
$$$$
