YWD.pdb
     RDKit          3D

 35 37  0  0  1  0  0  0  0  0999 V2000
    7.1715  -13.3686   16.3254 O   0  0  0  0  0  0  0  0  0  0  0  0
    7.6179  -13.5398   17.6390 C   0  0  0  0  0  0  0  0  0  0  0  0
    6.7613  -13.4164   18.7118 C   0  0  0  0  0  0  0  0  0  0  0  0
    7.2323  -13.5916   20.0042 C   0  0  0  0  0  0  0  0  0  0  0  0
    8.5628  -13.8893   20.1965 C   0  0  0  0  0  0  0  0  0  0  0  0
    9.0749  -14.0775   21.5785 C   0  0  0  0  0  0  0  0  0  0  0  0
    9.6235  -15.4600   21.7924 C   0  0  2  0  0  0  0  0  0  0  0  0
    8.7108  -16.4544   21.3259 N   0  0  0  0  0  0  0  0  0  0  0  0
    9.9165  -15.6052   23.2544 C   0  0  0  0  0  0  0  0  0  0  0  0
   10.7480  -14.8613   23.8277 O   0  0  0  0  0  0  0  0  0  0  0  0
    9.4244  -14.0147   19.1369 C   0  0  0  0  0  0  0  0  0  0  0  0
    8.9429  -13.8379   17.8569 C   0  0  0  0  0  0  0  0  0  0  0  0
    9.2478  -16.6060   24.0389 N   0  0  0  0  0  0  0  0  0  0  0  0
    9.5705  -16.7490   25.4058 C   0  0  1  0  0  0  0  0  0  0  0  0
    8.4246  -16.7393   26.3756 C   0  0  0  0  0  0  0  0  0  0  0  0
    7.4741  -15.6326   26.1745 C   0  0  0  0  0  0  0  0  0  0  0  0
    6.1625  -15.7290   25.7000 C   0  0  0  0  0  0  0  0  0  0  0  0
    5.6199  -14.5114   25.6401 N   0  0  0  0  0  0  0  0  0  0  0  0
    6.5112  -13.5820   26.0567 C   0  0  0  0  0  0  0  0  0  0  0  0
    6.4099  -12.2111   26.1758 C   0  0  0  0  0  0  0  0  0  0  0  0
    7.4788  -11.4911   26.6393 C   0  0  0  0  0  0  0  0  0  0  0  0
    8.6274  -12.1766   26.9722 C   0  0  0  0  0  0  0  0  0  0  0  0
    8.7352  -13.5443   26.8556 C   0  0  0  0  0  0  0  0  0  0  0  0
    7.6662  -14.2867   26.3890 C   0  0  0  0  0  0  0  0  0  0  0  0
   10.3955  -17.9420   25.7189 C   0  0  0  0  0  0  0  0  0  0  0  0
   10.0493  -18.6164   26.7238 O   0  0  0  0  0  0  0  0  0  0  0  0
   11.5136  -18.3628   24.9865 N   0  0  0  0  0  0  0  0  0  0  0  0
   12.2680  -19.5686   25.3176 C   0  0  1  0  0  0  0  0  0  0  0  0
   13.2489  -19.7656   24.1976 C   0  0  0  0  0  0  0  0  0  0  0  0
   12.6432  -19.8153   22.8526 C   0  0  0  0  0  0  0  0  0  0  0  0
   13.3647  -19.6450   21.8065 O   0  0  0  0  0  0  0  0  0  0  0  0
   13.0565  -19.2998   26.5682 C   0  0  0  0  0  0  0  0  0  0  0  0
   13.8133  -20.2310   27.2250 O   0  0  0  0  0  0  0  0  0  0  0  0
   11.2877  -20.0435   22.6863 O   0  0  0  0  0  0  0  0  0  0  0  0
   13.0036  -18.1271   27.0296 O   0  0  0  0  0  0  0  0  0  0  0  0
  2  1  1  0
  3  2  2  0
  4  3  1  0
  5  4  2  0
  5 11  1  0
  6  5  1  0
  7  6  1  0
  7  8  1  1
  9  7  1  0
  9 13  1  0
 10  9  2  0
 11 12  2  0
 12  2  1  0
 14 13  1  0
 14 25  1  0
 14 15  1  1
 16 17  2  0
 16 15  1  0
 18 17  1  0
 19 24  2  0
 19 18  1  0
 20 19  1  0
 21 22  1  0
 21 20  2  0
 22 23  2  0
 23 24  1  0
 24 16  1  0
 25 27  1  0
 25 26  2  0
 27 28  1  0
 28 29  1  6
 30 31  2  0
 30 29  1  0
 32 28  1  0
 32 33  1  0
 34 30  1  0
 35 32  2  0
M  END
$$$$
