YWD.pdb
     RDKit          3D

 35 37  0  0  1  0  0  0  0  0999 V2000
    6.6787  -13.6238   15.9485 O   0  0  0  0  0  0  0  0  0  0  0  0
    7.1552  -13.7803   17.2534 C   0  0  0  0  0  0  0  0  0  0  0  0
    7.2118  -12.7187   18.1308 C   0  0  0  0  0  0  0  0  0  0  0  0
    7.6893  -12.9035   19.4194 C   0  0  0  0  0  0  0  0  0  0  0  0
    8.1036  -14.1586   19.8055 C   0  0  0  0  0  0  0  0  0  0  0  0
    8.6174  -14.3641   21.1844 C   0  0  0  0  0  0  0  0  0  0  0  0
    9.0998  -15.7705   21.4018 C   0  0  2  0  0  0  0  0  0  0  0  0
    8.0388  -16.7113   21.2320 N   0  0  0  0  0  0  0  0  0  0  0  0
    9.6946  -15.8335   22.7753 C   0  0  0  0  0  0  0  0  0  0  0  0
   10.7915  -15.2829   23.0346 O   0  0  0  0  0  0  0  0  0  0  0  0
    8.0519  -15.2222   18.9413 C   0  0  0  0  0  0  0  0  0  0  0  0
    7.5749  -15.0245   17.6627 C   0  0  0  0  0  0  0  0  0  0  0  0
    9.0184  -16.5303   23.8344 N   0  0  0  0  0  0  0  0  0  0  0  0
    9.6421  -16.6545   25.0948 C   0  0  1  0  0  0  0  0  0  0  0  0
    8.7725  -16.4541   26.3020 C   0  0  0  0  0  0  0  0  0  0  0  0
    7.6709  -15.4981   26.0995 C   0  0  0  0  0  0  0  0  0  0  0  0
    6.3695  -15.7937   25.6825 C   0  0  0  0  0  0  0  0  0  0  0  0
    5.6611  -14.6659   25.6003 N   0  0  0  0  0  0  0  0  0  0  0  0
    6.4287  -13.6061   25.9459 C   0  0  0  0  0  0  0  0  0  0  0  0
    6.1421  -12.2584   26.0188 C   0  0  0  0  0  0  0  0  0  0  0  0
    7.1161  -11.3795   26.4118 C   0  0  0  0  0  0  0  0  0  0  0  0
    8.3599  -11.8859   26.7225 C   0  0  0  0  0  0  0  0  0  0  0  0
    8.6526  -13.2295   26.6517 C   0  0  0  0  0  0  0  0  0  0  0  0
    7.6815  -14.1307   26.2566 C   0  0  0  0  0  0  0  0  0  0  0  0
   10.3745  -17.9296   25.2929 C   0  0  0  0  0  0  0  0  0  0  0  0
    9.7346  -18.9876   25.0571 O   0  0  0  0  0  0  0  0  0  0  0  0
   11.7060  -18.0362   25.7169 N   0  0  0  0  0  0  0  0  0  0  0  0
   12.3727  -19.3204   25.9145 C   0  0  1  0  0  0  0  0  0  0  0  0
   13.5378  -19.3336   24.9670 C   0  0  0  0  0  0  0  0  0  0  0  0
   14.4979  -18.2293   25.1590 C   0  0  0  0  0  0  0  0  0  0  0  0
   14.6438  -17.3288   24.2579 O   0  0  0  0  0  0  0  0  0  0  0  0
   12.9248  -19.3520   27.3117 C   0  0  0  0  0  0  0  0  0  0  0  0
   13.5515  -20.4294   27.8755 O   0  0  0  0  0  0  0  0  0  0  0  0
   15.2633  -18.1384   26.3092 O   0  0  0  0  0  0  0  0  0  0  0  0
   12.7908  -18.3018   27.9972 O   0  0  0  0  0  0  0  0  0  0  0  0
  2  1  1  0
  3  2  2  0
  4  3  1  0
  5  4  2  0
  5 11  1  0
  6  5  1  0
  7  6  1  0
  7  8  1  1
  9  7  1  0
  9 13  1  0
 10  9  2  0
 11 12  2  0
 12  2  1  0
 14 13  1  0
 14 25  1  0
 14 15  1  1
 16 17  2  0
 16 15  1  0
 18 17  1  0
 19 24  2  0
 19 18  1  0
 20 19  1  0
 21 22  1  0
 21 20  2  0
 22 23  2  0
 23 24  1  0
 24 16  1  0
 25 27  1  0
 25 26  2  0
 27 28  1  0
 28 29  1  6
 30 31  2  0
 30 29  1  0
 32 28  1  0
 32 33  1  0
 34 30  1  0
 35 32  2  0
M  END
$$$$
