MRP.pdb
     RDKit          3D

 27 27  0  0  1  0  0  0  0  0999 V2000
   26.1649  -23.3711  -21.5463 C   0  0  0  0  0  0  0  0  0  0  0  0
   27.9496  -23.4616  -21.4382 S   0  0  0  0  0  0  0  0  0  0  0  0
   28.5761  -23.8151  -19.8003 C   0  0  0  0  0  0  0  0  0  0  0  0
   27.5618  -23.8498  -18.7161 C   0  0  0  0  0  0  0  0  0  0  0  0
   28.0846  -24.1021  -17.3361 C   0  0  2  0  0  0  0  0  0  0  0  0
   28.5744  -25.4507  -17.1998 N   0  0  0  0  0  0  0  0  0  0  0  0
   27.0008  -23.8335  -16.3222 C   0  0  0  0  0  0  0  0  0  0  0  0
   26.2978  -24.8305  -16.0221 O   0  0  0  0  0  0  0  0  0  0  0  0
   23.9244  -20.6355   -8.7294 N   0  0  0  0  0  0  0  0  0  0  0  0
   25.0338  -20.6250   -9.6197 C   0  0  0  0  0  0  0  0  0  0  0  0
   26.0564  -21.4193   -9.4451 N   0  0  0  0  0  0  0  0  0  0  0  0
   25.0130  -19.7248  -10.7185 N   0  0  0  0  0  0  0  0  0  0  0  0
   26.0226  -19.9285  -11.7709 C   0  0  0  0  0  0  0  0  0  0  0  0
   25.4802  -21.0247  -12.6523 C   0  0  0  0  0  0  0  0  0  0  0  0
   26.4011  -21.2648  -13.8041 C   0  0  0  0  0  0  0  0  0  0  0  0
   25.8412  -22.3197  -14.7182 C   0  0  2  0  0  0  0  0  0  0  0  0
   26.8267  -22.5437  -15.7780 N   0  0  0  0  0  0  0  0  0  0  0  0
   24.6171  -21.8321  -15.4229 C   0  0  0  0  0  0  0  0  0  0  0  0
   24.6919  -20.8388  -16.2249 O   0  0  0  0  0  0  0  0  0  0  0  0
   26.8611  -21.3255  -10.0981 N   0  0  0  0  0  0  0  0  0  0  0  0
   23.3466  -22.4381  -15.2393 C   0  0  0  0  0  0  0  0  0  0  0  0
   23.1109  -23.6197  -14.4400 C   0  0  0  0  0  0  0  0  0  0  0  0
   21.8309  -24.2097  -15.0381 C   0  0  0  0  0  0  0  0  0  0  0  0
   21.0585  -22.9130  -15.2420 C   0  0  2  0  0  0  0  0  0  0  0  0
   22.1003  -22.0062  -15.8164 C   0  0  0  0  0  0  0  0  0  0  0  0
   21.8229  -20.5719  -15.5150 O   0  0  0  0  0  0  0  0  0  0  0  0
   22.5988  -19.9960  -14.7315 O   0  0  0  0  0  0  0  0  0  0  0  0
  2  1  1  0
  3  2  1  0
  3  4  1  0
  4  5  1  0
  5  6  1  6
  7  8  2  0
  7  5  1  0
 10  9  1  0
 10 12  1  0
 11 10  2  0
 13 12  1  0
 13 14  1  0
 14 15  1  0
 16 15  1  1
 16 17  1  0
 17  7  1  0
 18 19  2  0
 18 16  1  0
 20 18  1  0
 21 20  1  0
 22 23  1  0
 22 21  1  0
 23 24  1  0
 24 20  1  0
 24 25  1  1
 25 27  1  0
 26 25  2  0
M  END
$$$$
