MRP.pdb
     RDKit          3D

 27 27  0  0  1  0  0  0  0  0999 V2000
   22.9069  -26.5981  -17.5777 C   0  0  0  0  0  0  0  0  0  0  0  0
   23.3228  -25.8140  -19.1324 S   0  0  0  0  0  0  0  0  0  0  0  0
   24.2272  -24.2791  -18.9699 C   0  0  0  0  0  0  0  0  0  0  0  0
   24.2510  -23.6862  -17.6085 C   0  0  0  0  0  0  0  0  0  0  0  0
   24.9762  -22.3836  -17.4725 C   0  0  2  0  0  0  0  0  0  0  0  0
   26.3551  -22.5874  -17.1062 N   0  0  0  0  0  0  0  0  0  0  0  0
   24.2847  -21.5184  -16.4487 C   0  0  0  0  0  0  0  0  0  0  0  0
   24.9498  -21.2982  -15.4059 O   0  0  0  0  0  0  0  0  0  0  0  0
   19.7528  -14.3619  -17.7152 N   0  0  0  0  0  0  0  0  0  0  0  0
   19.6208  -14.5623  -16.3130 C   0  0  0  0  0  0  0  0  0  0  0  0
   18.9772  -13.7106  -15.5596 N   0  0  0  0  0  0  0  0  0  0  0  0
   20.2077  -15.7198  -15.7352 N   0  0  0  0  0  0  0  0  0  0  0  0
   20.9236  -16.6322  -16.6424 C   0  0  0  0  0  0  0  0  0  0  0  0
   21.4450  -17.7484  -15.7736 C   0  0  0  0  0  0  0  0  0  0  0  0
   22.0770  -18.8074  -16.6170 C   0  0  0  0  0  0  0  0  0  0  0  0
   22.4100  -20.0164  -15.7867 C   0  0  2  0  0  0  0  0  0  0  0  0
   22.9884  -21.0160  -16.6873 N   0  0  0  0  0  0  0  0  0  0  0  0
   21.1750  -20.6550  -15.2393 C   0  0  0  0  0  0  0  0  0  0  0  0
   20.3180  -21.1771  -16.0322 O   0  0  0  0  0  0  0  0  0  0  0  0
   18.9662  -13.8820  -14.5333 N   0  0  0  0  0  0  0  0  0  0  0  0
   20.9060  -20.7112  -13.8467 C   0  0  0  0  0  0  0  0  0  0  0  0
   21.7875  -20.1995  -12.8212 C   0  0  0  0  0  0  0  0  0  0  0  0
   21.4095  -21.0148  -11.5816 C   0  0  0  0  0  0  0  0  0  0  0  0
   19.8970  -21.0087  -11.7600 C   0  0  2  0  0  0  0  0  0  0  0  0
   19.7454  -21.2899  -13.2214 C   0  0  0  0  0  0  0  0  0  0  0  0
   18.4822  -20.7204  -13.7736 O   0  0  0  0  0  0  0  0  0  0  0  0
   17.4130  -21.2016  -13.3580 O   0  0  0  0  0  0  0  0  0  0  0  0
  2  1  1  0
  3  2  1  0
  3  4  1  0
  4  5  1  0
  5  6  1  1
  7  8  2  0
  7  5  1  0
 10  9  1  0
 10 12  1  0
 11 10  2  0
 13 12  1  0
 13 14  1  0
 14 15  1  0
 16 15  1  6
 16 17  1  0
 17  7  1  0
 18 19  2  0
 18 16  1  0
 20 18  1  0
 21 20  1  0
 22 23  1  0
 22 21  1  0
 23 24  1  0
 24 20  1  0
 24 25  1  1
 25 27  1  0
 26 25  2  0
M  END
$$$$
