MRP.pdb
     RDKit          3D

 27 27  0  0  1  0  0  0  0  0999 V2000
   20.7896  -20.8602  -11.3934 C   0  0  0  0  0  0  0  0  0  0  0  0
   21.6437  -21.6305  -10.0215 S   0  0  0  0  0  0  0  0  0  0  0  0
   23.0570  -20.7138   -9.4193 C   0  0  0  0  0  0  0  0  0  0  0  0
   23.9639  -20.1696  -10.4619 C   0  0  0  0  0  0  0  0  0  0  0  0
   25.1205  -21.0396  -10.8448 C   0  0  2  0  0  0  0  0  0  0  0  0
   26.0444  -21.1948   -9.7496 N   0  0  0  0  0  0  0  0  0  0  0  0
   25.8238  -20.4558  -12.0445 C   0  0  0  0  0  0  0  0  0  0  0  0
   26.6702  -19.5657  -11.7806 O   0  0  0  0  0  0  0  0  0  0  0  0
   26.9495  -25.0142  -18.2720 N   0  0  0  0  0  0  0  0  0  0  0  0
   27.4147  -23.6959  -18.5350 C   0  0  0  0  0  0  0  0  0  0  0  0
   27.4533  -23.2155  -19.7495 N   0  0  0  0  0  0  0  0  0  0  0  0
   27.8429  -22.8969  -17.4412 N   0  0  0  0  0  0  0  0  0  0  0  0
   27.7594  -23.4976  -16.0994 C   0  0  0  0  0  0  0  0  0  0  0  0
   27.6330  -22.3416  -15.1400 C   0  0  0  0  0  0  0  0  0  0  0  0
   26.4263  -21.5252  -15.4709 C   0  0  0  0  0  0  0  0  0  0  0  0
   26.2707  -20.3915  -14.4950 C   0  0  2  0  0  0  0  0  0  0  0  0
   25.5218  -20.9064  -13.3467 N   0  0  0  0  0  0  0  0  0  0  0  0
   25.4162  -19.3035  -15.0598 C   0  0  0  0  0  0  0  0  0  0  0  0
   24.1426  -19.4191  -15.0517 O   0  0  0  0  0  0  0  0  0  0  0  0
   27.9069  -22.2898  -19.8913 N   0  0  0  0  0  0  0  0  0  0  0  0
   25.9681  -18.1194  -15.6151 C   0  0  0  0  0  0  0  0  0  0  0  0
   27.3662  -17.7573  -15.5467 C   0  0  0  0  0  0  0  0  0  0  0  0
   27.3507  -16.2326  -15.6854 C   0  0  0  0  0  0  0  0  0  0  0  0
   26.2914  -16.1157  -16.7735 C   0  0  2  0  0  0  0  0  0  0  0  0
   25.2493  -17.0846  -16.3118 C   0  0  0  0  0  0  0  0  0  0  0  0
   24.4548  -17.6364  -17.4473 O   0  0  0  0  0  0  0  0  0  0  0  0
   24.7213  -18.7937  -17.8173 O   0  0  0  0  0  0  0  0  0  0  0  0
  2  1  1  0
  3  2  1  0
  3  4  1  0
  4  5  1  0
  5  6  1  1
  7  8  2  0
  7  5  1  0
 10  9  1  0
 10 12  1  0
 11 10  2  0
 13 12  1  0
 13 14  1  0
 14 15  1  0
 16 15  1  6
 16 17  1  0
 17  7  1  0
 18 19  2  0
 18 16  1  0
 20 18  1  0
 21 20  1  0
 22 23  1  0
 22 21  1  0
 23 24  1  0
 24 20  1  0
 24 25  1  6
 25 27  1  0
 26 25  2  0
M  END
$$$$
