MRP.pdb
     RDKit          3D

 27 27  0  0  1  0  0  0  0  0999 V2000
   29.1865  -20.6698   -5.3425 C   0  0  0  0  0  0  0  0  0  0  0  0
   28.4291  -19.1460   -5.8987 S   0  0  0  0  0  0  0  0  0  0  0  0
   26.8147  -19.3489   -6.6422 C   0  0  0  0  0  0  0  0  0  0  0  0
   26.7785  -20.1417   -7.8974 C   0  0  0  0  0  0  0  0  0  0  0  0
   25.4307  -20.3140   -8.5261 C   0  0  2  0  0  0  0  0  0  0  0  0
   24.5336  -21.0299   -7.6545 N   0  0  0  0  0  0  0  0  0  0  0  0
   25.5697  -21.0367   -9.8426 C   0  0  0  0  0  0  0  0  0  0  0  0
   26.0452  -22.1968   -9.7619 O   0  0  0  0  0  0  0  0  0  0  0  0
   19.5836  -21.4791  -10.5377 N   0  0  0  0  0  0  0  0  0  0  0  0
   19.6260  -20.4595  -11.5287 C   0  0  0  0  0  0  0  0  0  0  0  0
   18.7015  -19.5390  -11.6007 N   0  0  0  0  0  0  0  0  0  0  0  0
   20.7048  -20.4565  -12.4530 N   0  0  0  0  0  0  0  0  0  0  0  0
   21.6472  -21.5860  -12.3867 C   0  0  0  0  0  0  0  0  0  0  0  0
   22.9677  -20.9938  -11.9647 C   0  0  0  0  0  0  0  0  0  0  0  0
   24.0517  -21.4333  -12.8942 C   0  0  0  0  0  0  0  0  0  0  0  0
   25.4035  -21.0954  -12.3281 C   0  0  2  0  0  0  0  0  0  0  0  0
   25.1817  -20.4174  -11.0492 N   0  0  0  0  0  0  0  0  0  0  0  0
   26.1133  -20.0942  -13.1805 C   0  0  0  0  0  0  0  0  0  0  0  0
   25.9614  -18.8434  -12.9616 O   0  0  0  0  0  0  0  0  0  0  0  0
   18.7421  -18.8714  -12.3978 N   0  0  0  0  0  0  0  0  0  0  0  0
   26.9700  -20.4788  -14.2450 C   0  0  0  0  0  0  0  0  0  0  0  0
   27.4295  -21.8297  -14.4790 C   0  0  0  0  0  0  0  0  0  0  0  0
   28.7316  -21.6369  -15.2610 C   0  0  0  0  0  0  0  0  0  0  0  0
   28.2775  -20.5117  -16.1816 C   0  0  2  0  0  0  0  0  0  0  0  0
   27.5352  -19.6114  -15.2455 C   0  0  0  0  0  0  0  0  0  0  0  0
   26.4819  -18.8206  -15.9457 O   0  0  0  0  0  0  0  0  0  0  0  0
   25.3201  -19.2635  -15.9078 O   0  0  0  0  0  0  0  0  0  0  0  0
  2  1  1  0
  3  2  1  0
  3  4  1  0
  4  5  1  0
  5  6  1  1
  7  8  2  0
  7  5  1  0
 10  9  1  0
 10 12  1  0
 11 10  2  0
 13 12  1  0
 13 14  1  0
 14 15  1  0
 16 15  1  6
 16 17  1  0
 17  7  1  0
 18 19  2  0
 18 16  1  0
 20 18  1  0
 21 20  1  0
 22 23  1  0
 22 21  1  0
 23 24  1  0
 24 20  1  0
 24 25  1  6
 25 27  1  0
 26 25  2  0
M  END
$$$$
