MRP.pdb
     RDKit          3D

 27 27  0  0  1  0  0  0  0  0999 V2000
   26.6567  -14.4431  -14.1651 C   0  0  0  0  0  0  0  0  0  0  0  0
   25.7526  -13.9331  -15.6237 S   0  0  0  0  0  0  0  0  0  0  0  0
   24.9135  -15.2621  -16.4780 C   0  0  0  0  0  0  0  0  0  0  0  0
   24.5169  -16.4199  -15.6367 C   0  0  0  0  0  0  0  0  0  0  0  0
   23.8696  -17.5624  -16.3556 C   0  0  2  0  0  0  0  0  0  0  0  0
   22.5786  -17.1896  -16.8767 N   0  0  0  0  0  0  0  0  0  0  0  0
   23.7381  -18.7425  -15.4257 C   0  0  0  0  0  0  0  0  0  0  0  0
   22.7510  -18.6976  -14.6499 O   0  0  0  0  0  0  0  0  0  0  0  0
   26.6940  -26.5068  -16.4964 N   0  0  0  0  0  0  0  0  0  0  0  0
   25.7285  -25.6029  -17.0203 C   0  0  0  0  0  0  0  0  0  0  0  0
   25.2523  -25.7385  -18.2294 N   0  0  0  0  0  0  0  0  0  0  0  0
   25.2827  -24.5346  -16.1969 N   0  0  0  0  0  0  0  0  0  0  0  0
   25.8375  -24.4617  -14.8349 C   0  0  0  0  0  0  0  0  0  0  0  0
   25.1899  -23.2616  -14.1922 C   0  0  0  0  0  0  0  0  0  0  0  0
   25.1632  -22.1146  -15.1492 C   0  0  0  0  0  0  0  0  0  0  0  0
   24.5893  -20.8899  -14.4913 C   0  0  2  0  0  0  0  0  0  0  0  0
   24.6766  -19.7951  -15.4600 N   0  0  0  0  0  0  0  0  0  0  0  0
   25.4278  -20.4527  -13.3343 C   0  0  0  0  0  0  0  0  0  0  0  0
   26.5658  -19.9059  -13.5379 O   0  0  0  0  0  0  0  0  0  0  0  0
   24.5557  -25.0389  -18.5581 N   0  0  0  0  0  0  0  0  0  0  0  0
   25.0064  -20.6190  -11.9890 C   0  0  0  0  0  0  0  0  0  0  0  0
   23.7115  -21.1262  -11.5933 C   0  0  0  0  0  0  0  0  0  0  0  0
   23.5096  -20.5440  -10.1918 C   0  0  0  0  0  0  0  0  0  0  0  0
   24.9211  -20.7475   -9.6573 C   0  0  2  0  0  0  0  0  0  0  0  0
   25.7670  -20.3028  -10.8082 C   0  0  0  0  0  0  0  0  0  0  0  0
   27.0993  -20.9736  -10.8166 O   0  0  0  0  0  0  0  0  0  0  0  0
   27.2773  -21.8720  -11.6584 O   0  0  0  0  0  0  0  0  0  0  0  0
  2  1  1  0
  3  2  1  0
  3  4  1  0
  4  5  1  0
  5  6  1  1
  7  8  2  0
  7  5  1  0
 10  9  1  0
 10 12  1  0
 11 10  2  0
 13 12  1  0
 13 14  1  0
 14 15  1  0
 16 15  1  6
 16 17  1  0
 17  7  1  0
 18 19  2  0
 18 16  1  0
 20 18  1  0
 21 20  1  0
 22 23  1  0
 22 21  1  0
 23 24  1  0
 24 20  1  0
 24 25  1  1
 25 27  1  0
 26 25  2  0
M  END
$$$$
