MRP.pdb
     RDKit          3D

 27 27  0  0  1  0  0  0  0  0999 V2000
   20.9135  -12.4509    6.5494 C   0  0  0  0  0  0  0  0  0  0  0  0
   20.3892  -11.7207    5.0013 S   0  0  0  0  0  0  0  0  0  0  0  0
   18.8237  -12.3304    4.3867 C   0  0  0  0  0  0  0  0  0  0  0  0
   18.3206  -13.5731    5.0255 C   0  0  0  0  0  0  0  0  0  0  0  0
   17.0735  -14.1553    4.4364 C   0  0  2  0  0  0  0  0  0  0  0  0
   15.9529  -13.2631    4.5953 N   0  0  0  0  0  0  0  0  0  0  0  0
   16.7780  -15.4870    5.0798 C   0  0  0  0  0  0  0  0  0  0  0  0
   16.0368  -15.4326    6.0927 O   0  0  0  0  0  0  0  0  0  0  0  0
   16.3707  -22.0511    0.1504 N   0  0  0  0  0  0  0  0  0  0  0  0
   15.1681  -21.3420    0.4233 C   0  0  0  0  0  0  0  0  0  0  0  0
   14.0997  -21.5022   -0.3116 N   0  0  0  0  0  0  0  0  0  0  0  0
   15.1453  -20.4437    1.5237 N   0  0  0  0  0  0  0  0  0  0  0  0
   16.3720  -20.3428    2.3319 C   0  0  0  0  0  0  0  0  0  0  0  0
   16.0995  -19.2731    3.3587 C   0  0  0  0  0  0  0  0  0  0  0  0
   17.3127  -19.0433    4.1998 C   0  0  0  0  0  0  0  0  0  0  0  0
   17.0579  -17.9595    5.2110 C   0  0  2  0  0  0  0  0  0  0  0  0
   17.3151  -16.6787    4.5493 N   0  0  0  0  0  0  0  0  0  0  0  0
   18.0432  -18.0221    6.3326 C   0  0  0  0  0  0  0  0  0  0  0  0
   19.2571  -17.6689    6.1399 O   0  0  0  0  0  0  0  0  0  0  0  0
   13.2256  -21.0264   -0.0077 N   0  0  0  0  0  0  0  0  0  0  0  0
   17.6827  -18.4639    7.6325 C   0  0  0  0  0  0  0  0  0  0  0  0
   16.3307  -18.7596    8.0512 C   0  0  0  0  0  0  0  0  0  0  0  0
   16.3739  -18.5684    9.5697 C   0  0  0  0  0  0  0  0  0  0  0  0
   17.7209  -19.2249    9.8417 C   0  0  2  0  0  0  0  0  0  0  0  0
   18.5740  -18.6734    8.7437 C   0  0  0  0  0  0  0  0  0  0  0  0
   19.6915  -19.5943    8.3857 O   0  0  0  0  0  0  0  0  0  0  0  0
   19.5263  -20.3298    7.3963 O   0  0  0  0  0  0  0  0  0  0  0  0
  2  1  1  0
  3  2  1  0
  3  4  1  0
  4  5  1  0
  5  6  1  1
  7  8  2  0
  7  5  1  0
 10  9  1  0
 10 12  1  0
 11 10  2  0
 13 12  1  0
 13 14  1  0
 14 15  1  0
 16 15  1  6
 16 17  1  0
 17  7  1  0
 18 19  2  0
 18 16  1  0
 20 18  1  0
 21 20  1  0
 22 23  1  0
 22 21  1  0
 23 24  1  0
 24 20  1  0
 24 25  1  1
 25 27  1  0
 26 25  2  0
M  END
$$$$
