MRP.pdb
     RDKit          3D

 27 27  0  0  1  0  0  0  0  0999 V2000
   20.1137  -20.1785  -19.4591 C   0  0  0  0  0  0  0  0  0  0  0  0
   18.7434  -20.8094  -18.4952 S   0  0  0  0  0  0  0  0  0  0  0  0
   18.2808  -19.7836  -17.1046 C   0  0  0  0  0  0  0  0  0  0  0  0
   19.4040  -19.2788  -16.2744 C   0  0  0  0  0  0  0  0  0  0  0  0
   19.4311  -19.7465  -14.8525 C   0  0  2  0  0  0  0  0  0  0  0  0
   18.3743  -19.1413  -14.0817 N   0  0  0  0  0  0  0  0  0  0  0  0
   20.7725  -19.4345  -14.2376 C   0  0  0  0  0  0  0  0  0  0  0  0
   20.8046  -18.3910  -13.5389 O   0  0  0  0  0  0  0  0  0  0  0  0
   28.6025  -21.5987  -13.7206 N   0  0  0  0  0  0  0  0  0  0  0  0
   28.4257  -21.0903  -12.4038 C   0  0  0  0  0  0  0  0  0  0  0  0
   29.4424  -20.8869  -11.6087 N   0  0  0  0  0  0  0  0  0  0  0  0
   27.1075  -20.8024  -11.9592 N   0  0  0  0  0  0  0  0  0  0  0  0
   26.0008  -21.1836  -12.8526 C   0  0  0  0  0  0  0  0  0  0  0  0
   24.7371  -20.7918  -12.1298 C   0  0  0  0  0  0  0  0  0  0  0  0
   23.5417  -21.1254  -12.9616 C   0  0  0  0  0  0  0  0  0  0  0  0
   23.1753  -19.9680  -13.8494 C   0  0  2  0  0  0  0  0  0  0  0  0
   21.8801  -20.2799  -14.4575 N   0  0  0  0  0  0  0  0  0  0  0  0
   24.1236  -19.8440  -14.9974 C   0  0  0  0  0  0  0  0  0  0  0  0
   24.1125  -20.7138  -15.9349 O   0  0  0  0  0  0  0  0  0  0  0  0
   29.2501  -20.4879  -10.6671 N   0  0  0  0  0  0  0  0  0  0  0  0
   25.0557  -18.7780  -15.0970 C   0  0  0  0  0  0  0  0  0  0  0  0
   25.2667  -17.7767  -14.0755 C   0  0  0  0  0  0  0  0  0  0  0  0
   25.8287  -16.5828  -14.8519 C   0  0  0  0  0  0  0  0  0  0  0  0
   26.7651  -17.3403  -15.7840 C   0  0  2  0  0  0  0  0  0  0  0  0
   25.9223  -18.4995  -16.2125 C   0  0  0  0  0  0  0  0  0  0  0  0
   26.7472  -19.6876  -16.5775 O   0  0  0  0  0  0  0  0  0  0  0  0
   26.6798  -20.6777  -15.8275 O   0  0  0  0  0  0  0  0  0  0  0  0
  2  1  1  0
  3  2  1  0
  3  4  1  0
  4  5  1  0
  5  6  1  1
  7  8  2  0
  7  5  1  0
 10  9  1  0
 10 12  1  0
 11 10  2  0
 13 12  1  0
 13 14  1  0
 14 15  1  0
 16 15  1  1
 16 17  1  0
 17  7  1  0
 18 19  2  0
 18 16  1  0
 20 18  1  0
 21 20  1  0
 22 23  1  0
 22 21  1  0
 23 24  1  0
 24 20  1  0
 24 25  1  1
 25 27  1  0
 26 25  2  0
M  END
$$$$
