MRP.pdb
     RDKit          3D

 27 27  0  0  1  0  0  0  0  0999 V2000
   28.0843  -18.8109   -4.8913 C   0  0  0  0  0  0  0  0  0  0  0  0
   29.6397  -19.3164   -5.6195 S   0  0  0  0  0  0  0  0  0  0  0  0
   29.5251  -20.7374   -6.7002 C   0  0  0  0  0  0  0  0  0  0  0  0
   28.8792  -20.4961   -8.0156 C   0  0  0  0  0  0  0  0  0  0  0  0
   28.8250  -21.6685   -8.9450 C   0  0  2  0  0  0  0  0  0  0  0  0
   30.1475  -22.1345   -9.2782 N   0  0  0  0  0  0  0  0  0  0  0  0
   28.0709  -21.2940  -10.1963 C   0  0  0  0  0  0  0  0  0  0  0  0
   28.7877  -21.1134  -11.2122 O   0  0  0  0  0  0  0  0  0  0  0  0
   20.9586  -19.2790  -11.9918 N   0  0  0  0  0  0  0  0  0  0  0  0
   21.0647  -20.6923  -12.1134 C   0  0  0  0  0  0  0  0  0  0  0  0
   20.4603  -21.3421  -13.0724 N   0  0  0  0  0  0  0  0  0  0  0  0
   21.8499  -21.3978  -11.1626 N   0  0  0  0  0  0  0  0  0  0  0  0
   22.4351  -20.6131  -10.0625 C   0  0  0  0  0  0  0  0  0  0  0  0
   23.8945  -20.4526  -10.4049 C   0  0  0  0  0  0  0  0  0  0  0  0
   24.4579  -21.7498  -10.8866 C   0  0  0  0  0  0  0  0  0  0  0  0
   25.8784  -21.5712  -11.3473 C   0  0  2  0  0  0  0  0  0  0  0  0
   26.6660  -21.1679  -10.1804 N   0  0  0  0  0  0  0  0  0  0  0  0
   25.9975  -20.4334  -12.3085 C   0  0  0  0  0  0  0  0  0  0  0  0
   25.9001  -19.2286  -11.8909 O   0  0  0  0  0  0  0  0  0  0  0  0
   20.5843  -22.3744  -13.1126 N   0  0  0  0  0  0  0  0  0  0  0  0
   26.2216  -20.6352  -13.6956 C   0  0  0  0  0  0  0  0  0  0  0  0
   26.5861  -21.9017  -14.2904 C   0  0  0  0  0  0  0  0  0  0  0  0
   27.2987  -21.5000  -15.5846 C   0  0  0  0  0  0  0  0  0  0  0  0
   26.3699  -20.3715  -16.0128 C   0  0  2  0  0  0  0  0  0  0  0  0
   26.1461  -19.6361  -14.7296 C   0  0  0  0  0  0  0  0  0  0  0  0
   24.8347  -18.9254  -14.7122 O   0  0  0  0  0  0  0  0  0  0  0  0
   23.9050  -19.4645  -14.0858 O   0  0  0  0  0  0  0  0  0  0  0  0
  2  1  1  0
  3  2  1  0
  3  4  1  0
  4  5  1  0
  5  6  1  6
  7  8  2  0
  7  5  1  0
 10  9  1  0
 10 12  1  0
 11 10  2  0
 13 12  1  0
 13 14  1  0
 14 15  1  0
 16 15  1  1
 16 17  1  0
 17  7  1  0
 18 19  2  0
 18 16  1  0
 20 18  1  0
 21 20  1  0
 22 23  1  0
 22 21  1  0
 23 24  1  0
 24 20  1  0
 24 25  1  6
 25 27  1  0
 26 25  2  0
M  END
$$$$
