MRP.pdb
     RDKit          3D

 27 27  0  0  1  0  0  0  0  0999 V2000
   29.6511  -18.3870   -6.5046 C   0  0  0  0  0  0  0  0  0  0  0  0
   28.5806  -19.2494   -5.3578 S   0  0  0  0  0  0  0  0  0  0  0  0
   26.9186  -19.5250   -5.9593 C   0  0  0  0  0  0  0  0  0  0  0  0
   26.8147  -20.1107   -7.3201 C   0  0  0  0  0  0  0  0  0  0  0  0
   25.4278  -20.2771   -7.8589 C   0  0  2  0  0  0  0  0  0  0  0  0
   24.6449  -21.1564   -7.0276 N   0  0  0  0  0  0  0  0  0  0  0  0
   25.4880  -20.8063   -9.2700 C   0  0  0  0  0  0  0  0  0  0  0  0
   25.9438  -21.9719   -9.3792 O   0  0  0  0  0  0  0  0  0  0  0  0
   23.1347  -23.2403  -14.8182 N   0  0  0  0  0  0  0  0  0  0  0  0
   21.9143  -23.2543  -14.0875 C   0  0  0  0  0  0  0  0  0  0  0  0
   21.3155  -24.3743  -13.7807 N   0  0  0  0  0  0  0  0  0  0  0  0
   21.3477  -22.0137  -13.6897 N   0  0  0  0  0  0  0  0  0  0  0  0
   22.0617  -20.7909  -14.0933 C   0  0  0  0  0  0  0  0  0  0  0  0
   23.4753  -20.9588  -13.5968 C   0  0  0  0  0  0  0  0  0  0  0  0
   23.5912  -20.4653  -12.1914 C   0  0  0  0  0  0  0  0  0  0  0  0
   25.0096  -20.5818  -11.7051 C   0  0  2  0  0  0  0  0  0  0  0  0
   25.0538  -20.0162  -10.3550 N   0  0  0  0  0  0  0  0  0  0  0  0
   25.9319  -19.7287  -12.5140 C   0  0  0  0  0  0  0  0  0  0  0  0
   25.9372  -18.4599  -12.3539 O   0  0  0  0  0  0  0  0  0  0  0  0
   20.4223  -24.3178  -13.2498 N   0  0  0  0  0  0  0  0  0  0  0  0
   26.8243  -20.2769  -13.4721 C   0  0  0  0  0  0  0  0  0  0  0  0
   27.1156  -21.6867  -13.6072 C   0  0  0  0  0  0  0  0  0  0  0  0
   28.4993  -21.7075  -14.2622 C   0  0  0  0  0  0  0  0  0  0  0  0
   28.2909  -20.5810  -15.2659 C   0  0  2  0  0  0  0  0  0  0  0  0
   27.5936  -19.5440  -14.4437 C   0  0  0  0  0  0  0  0  0  0  0  0
   26.7280  -18.6583  -15.2752 O   0  0  0  0  0  0  0  0  0  0  0  0
   25.5185  -18.9420  -15.3368 O   0  0  0  0  0  0  0  0  0  0  0  0
  2  1  1  0
  3  2  1  0
  3  4  1  0
  4  5  1  0
  5  6  1  1
  7  8  2  0
  7  5  1  0
 10  9  1  0
 10 12  1  0
 11 10  2  0
 13 12  1  0
 13 14  1  0
 14 15  1  0
 16 15  1  6
 16 17  1  0
 17  7  1  0
 18 19  2  0
 18 16  1  0
 20 18  1  0
 21 20  1  0
 22 23  1  0
 22 21  1  0
 23 24  1  0
 24 20  1  0
 24 25  1  6
 25 27  1  0
 26 25  2  0
M  END
$$$$
