GNP.pdb
     RDKit          3D

 20 20  0  0  1  0  0  0  0  0999 V2000
   28.9772  -18.7750  -16.9518 N   0  0  0  0  0  0  0  0  0  0  0  0
   28.0919  -18.3742  -15.8735 C   0  0  0  0  0  0  0  0  0  0  0  0
   27.5735  -19.5446  -15.1390 C   0  0  0  0  0  0  0  0  0  0  0  0
   27.8511  -20.6917  -15.5642 O   0  0  0  0  0  0  0  0  0  0  0  0
   26.3624  -22.2591  -10.5778 N   0  0  0  0  0  0  0  0  0  0  0  0
   25.5295  -21.1909  -10.9963 C   0  0  0  0  0  0  0  0  0  0  0  0
   24.3321  -21.1965  -10.6612 O   0  0  0  0  0  0  0  0  0  0  0  0
   26.0843  -20.1117  -11.8059 C   0  0  0  0  0  0  0  0  0  0  0  0
   26.1546  -20.5335  -13.2774 C   0  0  2  0  0  0  0  0  0  0  0  0
   26.7886  -19.3944  -13.9925 N   0  0  0  0  0  0  0  0  0  0  0  0
   24.7694  -20.6919  -13.7215 C   0  0  0  0  0  0  0  0  0  0  0  0
   24.0279  -19.6397  -13.3947 O   0  0  0  0  0  0  0  0  0  0  0  0
   24.1718  -21.7358  -14.3951 N   0  0  0  0  0  0  0  0  0  0  0  0
   25.0537  -22.7615  -15.0691 C   0  0  0  0  0  0  0  0  0  0  0  0
   24.4708  -24.0129  -14.4651 C   0  0  0  0  0  0  0  0  0  0  0  0
   23.0700  -23.6639  -14.0387 C   0  0  0  0  0  0  0  0  0  0  0  0
   22.9230  -22.2416  -14.7063 C   0  0  1  0  0  0  0  0  0  0  0  0
   21.6616  -21.6892  -14.3109 C   0  0  0  0  0  0  0  0  0  0  0  0
   21.5349  -21.2008  -12.9839 O   0  0  0  0  0  0  0  0  0  0  0  0
   20.6618  -21.5856  -14.9913 O   0  0  0  0  0  0  0  0  0  0  0  0
  2  1  1  0
  3  2  1  0
  3  4  2  0
  6  8  1  0
  6  5  1  0
  7  6  2  0
  9 10  1  0
  9  8  1  1
 10  3  1  0
 11 12  2  0
 11  9  1  0
 13 11  1  0
 14 15  1  0
 14 13  1  0
 16 15  1  0
 16 17  1  0
 17 13  1  0
 17 18  1  1
 18 20  2  0
 18 19  1  0
M  END
$$$$
