GNP.pdb
     RDKit          3D

 20 20  0  0  1  0  0  0  0  0999 V2000
   25.6827  -33.0428  -12.9599 N   0  0  0  0  0  0  0  0  0  0  0  0
   26.6491  -33.3736  -11.9286 C   0  0  0  0  0  0  0  0  0  0  0  0
   26.0031  -34.0310  -10.7760 C   0  0  0  0  0  0  0  0  0  0  0  0
   24.7660  -34.2351  -10.8167 O   0  0  0  0  0  0  0  0  0  0  0  0
   27.0136  -37.7807  -10.5948 N   0  0  0  0  0  0  0  0  0  0  0  0
   26.1925  -37.3343   -9.5286 C   0  0  0  0  0  0  0  0  0  0  0  0
   24.9908  -37.6533   -9.5222 O   0  0  0  0  0  0  0  0  0  0  0  0
   26.7643  -36.5154   -8.4655 C   0  0  0  0  0  0  0  0  0  0  0  0
   26.1438  -35.1144   -8.4817 C   0  0  2  0  0  0  0  0  0  0  0  0
   26.7405  -34.4238   -9.6556 N   0  0  0  0  0  0  0  0  0  0  0  0
   26.5788  -34.4628   -7.2459 C   0  0  0  0  0  0  0  0  0  0  0  0
   27.8645  -34.6879   -7.0010 O   0  0  0  0  0  0  0  0  0  0  0  0
   25.8633  -33.6915   -6.3549 N   0  0  0  0  0  0  0  0  0  0  0  0
   24.6332  -32.9668   -6.8506 C   0  0  0  0  0  0  0  0  0  0  0  0
   23.6398  -33.4528   -5.8270 C   0  0  0  0  0  0  0  0  0  0  0  0
   24.4416  -33.8621   -4.6205 C   0  0  0  0  0  0  0  0  0  0  0  0
   25.8602  -33.3035   -5.0276 C   0  0  1  0  0  0  0  0  0  0  0  0
   26.8032  -33.7020   -4.0254 C   0  0  0  0  0  0  0  0  0  0  0  0
   27.1580  -32.7540   -3.0301 O   0  0  0  0  0  0  0  0  0  0  0  0
   27.3500  -34.7807   -3.9219 O   0  0  0  0  0  0  0  0  0  0  0  0
  2  1  1  0
  3  2  1  0
  3  4  2  0
  6  8  1  0
  6  5  1  0
  7  6  2  0
  9 10  1  0
  9  8  1  1
 10  3  1  0
 11 12  2  0
 11  9  1  0
 13 11  1  0
 14 15  1  0
 14 13  1  0
 16 15  1  0
 16 17  1  0
 17 13  1  0
 17 18  1  1
 18 20  2  0
 18 19  1  0
M  END
$$$$
