GNP.pdb
     RDKit          3D

 20 20  0  0  1  0  0  0  0  0999 V2000
   28.1231  -22.5338  -16.1221 N   0  0  0  0  0  0  0  0  0  0  0  0
   26.8099  -21.9665  -16.3681 C   0  0  0  0  0  0  0  0  0  0  0  0
   26.3418  -21.1724  -15.2155 C   0  0  0  0  0  0  0  0  0  0  0  0
   27.1212  -21.0017  -14.2475 O   0  0  0  0  0  0  0  0  0  0  0  0
   25.4235  -17.9219  -15.7163 N   0  0  0  0  0  0  0  0  0  0  0  0
   24.0186  -17.9608  -15.5295 C   0  0  0  0  0  0  0  0  0  0  0  0
   23.3074  -17.1548  -16.1544 O   0  0  0  0  0  0  0  0  0  0  0  0
   23.4343  -18.9363  -14.6158 C   0  0  0  0  0  0  0  0  0  0  0  0
   24.5261  -19.8421  -14.0364 C   0  0  2  0  0  0  0  0  0  0  0  0
   25.0600  -20.6159  -15.1883 N   0  0  0  0  0  0  0  0  0  0  0  0
   23.8525  -20.7427  -13.1003 C   0  0  0  0  0  0  0  0  0  0  0  0
   22.8196  -21.3546  -13.6681 O   0  0  0  0  0  0  0  0  0  0  0  0
   24.1373  -21.0182  -11.7798 N   0  0  0  0  0  0  0  0  0  0  0  0
   25.5840  -21.0585  -11.3448 C   0  0  0  0  0  0  0  0  0  0  0  0
   25.5123  -20.1000  -10.1843 C   0  0  0  0  0  0  0  0  0  0  0  0
   24.0766  -20.0900   -9.7321 C   0  0  0  0  0  0  0  0  0  0  0  0
   23.5106  -21.2954  -10.5787 C   0  0  1  0  0  0  0  0  0  0  0  0
   22.0972  -21.3737  -10.3577 C   0  0  0  0  0  0  0  0  0  0  0  0
   21.6437  -21.9654   -9.1497 O   0  0  0  0  0  0  0  0  0  0  0  0
   21.2176  -20.9850  -11.0982 O   0  0  0  0  0  0  0  0  0  0  0  0
  2  1  1  0
  3  2  1  0
  3  4  2  0
  6  8  1  0
  6  5  1  0
  7  6  2  0
  9 10  1  0
  9  8  1  6
 10  3  1  0
 11 12  2  0
 11  9  1  0
 13 11  1  0
 14 15  1  0
 14 13  1  0
 16 15  1  0
 16 17  1  0
 17 13  1  0
 17 18  1  6
 18 20  2  0
 18 19  1  0
M  END
$$$$
