GNP.pdb
     RDKit          3D

 20 20  0  0  1  0  0  0  0  0999 V2000
   23.6279  -19.4556  -16.2347 N   0  0  0  0  0  0  0  0  0  0  0  0
   23.4035  -18.0595  -15.9072 C   0  0  0  0  0  0  0  0  0  0  0  0
   22.1639  -17.5533  -16.5281 C   0  0  0  0  0  0  0  0  0  0  0  0
   21.8191  -18.0138  -17.6428 O   0  0  0  0  0  0  0  0  0  0  0  0
   18.9432  -18.4598  -14.2816 N   0  0  0  0  0  0  0  0  0  0  0  0
   18.7827  -17.7556  -15.5016 C   0  0  0  0  0  0  0  0  0  0  0  0
   18.4444  -18.3859  -16.5186 O   0  0  0  0  0  0  0  0  0  0  0  0
   19.0147  -16.3161  -15.5450 C   0  0  0  0  0  0  0  0  0  0  0  0
   20.1597  -15.9913  -16.5103 C   0  0  2  0  0  0  0  0  0  0  0  0
   21.3802  -16.5815  -15.8997 N   0  0  0  0  0  0  0  0  0  0  0  0
   20.2699  -14.5324  -16.5340 C   0  0  0  0  0  0  0  0  0  0  0  0
   20.3712  -14.0299  -15.3088 O   0  0  0  0  0  0  0  0  0  0  0  0
   20.2790  -13.6646  -17.6052 N   0  0  0  0  0  0  0  0  0  0  0  0
   20.5103  -14.2260  -18.9892 C   0  0  0  0  0  0  0  0  0  0  0  0
   19.3117  -13.6395  -19.6893 C   0  0  0  0  0  0  0  0  0  0  0  0
   18.9028  -12.4325  -18.8882 C   0  0  0  0  0  0  0  0  0  0  0  0
   20.1319  -12.3226  -17.9047 C   0  0  1  0  0  0  0  0  0  0  0  0
   19.8657  -11.2695  -16.9706 C   0  0  0  0  0  0  0  0  0  0  0  0
   20.7296  -10.1429  -16.9729 O   0  0  0  0  0  0  0  0  0  0  0  0
   18.9673  -11.2229  -16.1558 O   0  0  0  0  0  0  0  0  0  0  0  0
  2  1  1  0
  3  2  1  0
  3  4  2  0
  6  8  1  0
  6  5  1  0
  7  6  2  0
  9 10  1  0
  9  8  1  1
 10  3  1  0
 11 12  2  0
 11  9  1  0
 13 11  1  0
 14 15  1  0
 14 13  1  0
 16 15  1  0
 16 17  1  0
 17 13  1  0
 17 18  1  1
 18 20  2  0
 18 19  1  0
M  END
$$$$
