GNP.pdb
     RDKit          3D

 20 20  0  0  1  0  0  0  0  0999 V2000
   20.3756  -20.2960  -13.7090 N   0  0  0  0  0  0  0  0  0  0  0  0
   21.4485  -21.0751  -13.1185 C   0  0  0  0  0  0  0  0  0  0  0  0
   22.7267  -20.3377  -13.1443 C   0  0  0  0  0  0  0  0  0  0  0  0
   22.7053  -19.0929  -12.9906 O   0  0  0  0  0  0  0  0  0  0  0  0
   25.0579  -20.6623  -10.7503 N   0  0  0  0  0  0  0  0  0  0  0  0
   26.1055  -21.3736  -11.3879 C   0  0  0  0  0  0  0  0  0  0  0  0
   26.8593  -22.0800  -10.6960 O   0  0  0  0  0  0  0  0  0  0  0  0
   26.2816  -21.2671  -12.8320 C   0  0  0  0  0  0  0  0  0  0  0  0
   25.2522  -20.2978  -13.4228 C   0  0  2  0  0  0  0  0  0  0  0  0
   23.9435  -20.9983  -13.3351 N   0  0  0  0  0  0  0  0  0  0  0  0
   25.6257  -20.1134  -14.8255 C   0  0  0  0  0  0  0  0  0  0  0  0
   25.3762  -21.2015  -15.5449 O   0  0  0  0  0  0  0  0  0  0  0  0
   26.1740  -19.0173  -15.4567 N   0  0  0  0  0  0  0  0  0  0  0  0
   26.1524  -17.6854  -14.7429 C   0  0  0  0  0  0  0  0  0  0  0  0
   27.6148  -17.3360  -14.8428 C   0  0  0  0  0  0  0  0  0  0  0  0
   28.1559  -18.1117  -16.0138 C   0  0  0  0  0  0  0  0  0  0  0  0
   26.8101  -18.6577  -16.6308 C   0  0  1  0  0  0  0  0  0  0  0  0
   27.1373  -19.5296  -17.7194 C   0  0  0  0  0  0  0  0  0  0  0  0
   27.3691  -18.9469  -18.9930 O   0  0  0  0  0  0  0  0  0  0  0  0
   27.2431  -20.7382  -17.6834 O   0  0  0  0  0  0  0  0  0  0  0  0
  2  1  1  0
  3  2  1  0
  3  4  2  0
  6  8  1  0
  6  5  1  0
  7  6  2  0
  9 10  1  0
  9  8  1  1
 10  3  1  0
 11 12  2  0
 11  9  1  0
 13 11  1  0
 14 15  1  0
 14 13  1  0
 16 15  1  0
 16 17  1  0
 17 13  1  0
 17 18  1  6
 18 20  2  0
 18 19  1  0
M  END
$$$$
