GNP.pdb
     RDKit          3D

 20 20  0  0  1  0  0  0  0  0999 V2000
   20.3303  -20.9771  -13.9655 N   0  0  0  0  0  0  0  0  0  0  0  0
   19.7087  -19.7729  -14.4855 C   0  0  0  0  0  0  0  0  0  0  0  0
   20.7143  -18.8399  -15.0301 C   0  0  0  0  0  0  0  0  0  0  0  0
   21.9259  -19.1584  -14.9662 O   0  0  0  0  0  0  0  0  0  0  0  0
   22.6713  -16.4897  -19.4375 N   0  0  0  0  0  0  0  0  0  0  0  0
   21.7454  -15.8673  -18.5627 C   0  0  0  0  0  0  0  0  0  0  0  0
   21.7285  -14.6261  -18.4908 O   0  0  0  0  0  0  0  0  0  0  0  0
   20.8353  -16.6844  -17.7677 C   0  0  0  0  0  0  0  0  0  0  0  0
   21.2924  -16.7195  -16.3055 C   0  0  2  0  0  0  0  0  0  0  0  0
   20.3400  -17.6237  -15.6080 N   0  0  0  0  0  0  0  0  0  0  0  0
   21.1442  -15.3542  -15.8004 C   0  0  0  0  0  0  0  0  0  0  0  0
   19.9079  -14.9008  -15.9725 O   0  0  0  0  0  0  0  0  0  0  0  0
   22.0728  -14.5271  -15.2052 N   0  0  0  0  0  0  0  0  0  0  0  0
   23.3676  -15.1300  -14.7114 C   0  0  0  0  0  0  0  0  0  0  0  0
   24.3400  -14.2126  -15.4067 C   0  0  0  0  0  0  0  0  0  0  0  0
   23.5894  -12.9396  -15.6932 C   0  0  0  0  0  0  0  0  0  0  0  0
   22.2721  -13.2017  -14.8648 C   0  0  1  0  0  0  0  0  0  0  0  0
   21.3668  -12.1183  -15.1080 C   0  0  0  0  0  0  0  0  0  0  0  0
   20.7377  -12.0483  -16.3787 O   0  0  0  0  0  0  0  0  0  0  0  0
   21.0648  -11.2295  -14.3385 O   0  0  0  0  0  0  0  0  0  0  0  0
  2  1  1  0
  3  2  1  0
  3  4  2  0
  6  8  1  0
  6  5  1  0
  7  6  2  0
  9 10  1  0
  9  8  1  6
 10  3  1  0
 11 12  2  0
 11  9  1  0
 13 11  1  0
 14 15  1  0
 14 13  1  0
 16 15  1  0
 16 17  1  0
 17 13  1  0
 17 18  1  6
 18 20  2  0
 18 19  1  0
M  END
$$$$
