GNP.pdb
     RDKit          3D

 20 20  0  0  1  0  0  0  0  0999 V2000
   13.8361  -22.3948   -9.0475 N   0  0  0  0  0  0  0  0  0  0  0  0
   14.9072  -22.8402   -9.9200 C   0  0  0  0  0  0  0  0  0  0  0  0
   16.2178  -22.3381   -9.4633 C   0  0  0  0  0  0  0  0  0  0  0  0
   16.2901  -21.1684   -9.0160 O   0  0  0  0  0  0  0  0  0  0  0  0
   18.4914  -24.7504   -6.5858 N   0  0  0  0  0  0  0  0  0  0  0  0
   19.4255  -23.8918   -7.2186 C   0  0  0  0  0  0  0  0  0  0  0  0
   20.1681  -23.1878   -6.5123 O   0  0  0  0  0  0  0  0  0  0  0  0
   19.5007  -23.8477   -8.6747 C   0  0  0  0  0  0  0  0  0  0  0  0
   18.7284  -22.6373   -9.2102 C   0  0  2  0  0  0  0  0  0  0  0  0
   17.3631  -23.1370   -9.5217 N   0  0  0  0  0  0  0  0  0  0  0  0
   19.4058  -22.2362  -10.4436 C   0  0  0  0  0  0  0  0  0  0  0  0
   19.3914  -23.2089  -11.3478 O   0  0  0  0  0  0  0  0  0  0  0  0
   20.0228  -21.0462  -10.7656 N   0  0  0  0  0  0  0  0  0  0  0  0
   19.9526  -19.9044   -9.7780 C   0  0  0  0  0  0  0  0  0  0  0  0
   21.4223  -19.5889   -9.6713 C   0  0  0  0  0  0  0  0  0  0  0  0
   22.0583  -20.1045  -10.9345 C   0  0  0  0  0  0  0  0  0  0  0  0
   20.7676  -20.4573  -11.7710 C   0  0  1  0  0  0  0  0  0  0  0  0
   21.1820  -21.0780  -12.9940 C   0  0  0  0  0  0  0  0  0  0  0  0
   21.8079  -22.3498  -12.9167 O   0  0  0  0  0  0  0  0  0  0  0  0
   21.0594  -20.6361  -14.1177 O   0  0  0  0  0  0  0  0  0  0  0  0
  2  1  1  0
  3  2  1  0
  3  4  2  0
  6  8  1  0
  6  5  1  0
  7  6  2  0
  9 10  1  0
  9  8  1  6
 10  3  1  0
 11 12  2  0
 11  9  1  0
 13 11  1  0
 14 15  1  0
 14 13  1  0
 16 15  1  0
 16 17  1  0
 17 13  1  0
 17 18  1  6
 18 20  2  0
 18 19  1  0
M  END
$$$$
