GNP.pdb
     RDKit          3D

 20 20  0  0  1  0  0  0  0  0999 V2000
   24.9660  -21.2327   -8.5696 N   0  0  0  0  0  0  0  0  0  0  0  0
   24.2484  -20.3798   -9.4995 C   0  0  0  0  0  0  0  0  0  0  0  0
   24.2500  -20.9473  -10.8619 C   0  0  0  0  0  0  0  0  0  0  0  0
   25.1441  -21.7722  -11.1679 O   0  0  0  0  0  0  0  0  0  0  0  0
   19.9849  -21.3033  -11.9938 N   0  0  0  0  0  0  0  0  0  0  0  0
   20.8913  -21.8241  -12.9516 C   0  0  0  0  0  0  0  0  0  0  0  0
   20.8983  -23.0485  -13.1679 O   0  0  0  0  0  0  0  0  0  0  0  0
   21.7933  -20.9244  -13.6620 C   0  0  0  0  0  0  0  0  0  0  0  0
   23.2346  -21.1305  -13.1840 C   0  0  2  0  0  0  0  0  0  0  0  0
   23.2824  -20.5832  -11.8024 N   0  0  0  0  0  0  0  0  0  0  0  0
   24.0756  -20.3239  -14.0690 C   0  0  0  0  0  0  0  0  0  0  0  0
   23.6039  -19.0894  -14.2003 O   0  0  0  0  0  0  0  0  0  0  0  0
   25.2274  -20.6649  -14.7457 N   0  0  0  0  0  0  0  0  0  0  0  0
   26.2039  -21.6085  -14.0823 C   0  0  0  0  0  0  0  0  0  0  0  0
   26.3384  -22.6278  -15.1839 C   0  0  0  0  0  0  0  0  0  0  0  0
   25.9583  -21.9247  -16.4594 C   0  0  0  0  0  0  0  0  0  0  0  0
   25.8803  -20.4357  -15.9429 C   0  0  1  0  0  0  0  0  0  0  0  0
   25.4148  -19.6119  -17.0186 C   0  0  0  0  0  0  0  0  0  0  0  0
   24.1374  -19.8950  -17.5696 O   0  0  0  0  0  0  0  0  0  0  0  0
   25.9959  -18.6766  -17.5293 O   0  0  0  0  0  0  0  0  0  0  0  0
  2  1  1  0
  3  2  1  0
  3  4  2  0
  6  8  1  0
  6  5  1  0
  7  6  2  0
  9 10  1  0
  9  8  1  6
 10  3  1  0
 11 12  2  0
 11  9  1  0
 13 11  1  0
 14 15  1  0
 14 13  1  0
 16 15  1  0
 16 17  1  0
 17 13  1  0
 17 18  1  6
 18 20  2  0
 18 19  1  0
M  END
$$$$
