GNP.pdb
     RDKit          3D

 20 20  0  0  1  0  0  0  0  0999 V2000
   17.6070  -12.6882  -15.5821 N   0  0  0  0  0  0  0  0  0  0  0  0
   18.2469  -11.9111  -14.5363 C   0  0  0  0  0  0  0  0  0  0  0  0
   17.4763  -10.6919  -14.2233 C   0  0  0  0  0  0  0  0  0  0  0  0
   16.4309  -10.4580  -14.8760 O   0  0  0  0  0  0  0  0  0  0  0  0
   16.4057  -10.1768  -10.6415 N   0  0  0  0  0  0  0  0  0  0  0  0
   16.7524   -8.8099  -10.4950 C   0  0  0  0  0  0  0  0  0  0  0  0
   16.3074   -8.1788   -9.5204 O   0  0  0  0  0  0  0  0  0  0  0  0
   17.6175   -8.1705  -11.4802 C   0  0  0  0  0  0  0  0  0  0  0  0
   17.1745   -8.5445  -12.8986 C   0  0  2  0  0  0  0  0  0  0  0  0
   17.8898   -9.8069  -13.2237 N   0  0  0  0  0  0  0  0  0  0  0  0
   17.6454   -7.4666  -13.7690 C   0  0  0  0  0  0  0  0  0  0  0  0
   18.9286   -7.1952  -13.5605 O   0  0  0  0  0  0  0  0  0  0  0  0
   16.9639   -6.7386  -14.7209 N   0  0  0  0  0  0  0  0  0  0  0  0
   15.6438   -7.2698  -15.2301 C   0  0  0  0  0  0  0  0  0  0  0  0
   14.7888   -6.0511  -14.9968 C   0  0  0  0  0  0  0  0  0  0  0  0
   15.7282   -4.8753  -14.9650 C   0  0  0  0  0  0  0  0  0  0  0  0
   17.0584   -5.5695  -15.4535 C   0  0  1  0  0  0  0  0  0  0  0  0
   18.1180   -4.6078  -15.3828 C   0  0  0  0  0  0  0  0  0  0  0  0
   18.0449   -3.4727  -16.2323 O   0  0  0  0  0  0  0  0  0  0  0  0
   19.0963   -4.6473  -14.6656 O   0  0  0  0  0  0  0  0  0  0  0  0
  2  1  1  0
  3  2  1  0
  3  4  2  0
  6  8  1  0
  6  5  1  0
  7  6  2  0
  9 10  1  0
  9  8  1  1
 10  3  1  0
 11 12  2  0
 11  9  1  0
 13 11  1  0
 14 15  1  0
 14 13  1  0
 16 15  1  0
 16 17  1  0
 17 13  1  0
 17 18  1  1
 18 20  2  0
 18 19  1  0
M  END
$$$$
