TSS.pdb
     RDKit          3D

 20 19  0  0  1  0  0  0  0  0999 V2000
    8.2427  -12.3297   18.6709 C   0  0  0  0  0  0  0  0  0  0  0  0
    8.6766  -13.2947   19.7627 C   0  0  1  0  0  0  0  0  0  0  0  0
    8.5064  -12.6735   21.0051 O   0  0  0  0  0  0  0  0  0  0  0  0
    7.7771  -14.5151   19.6331 C   0  0  2  0  0  0  0  0  0  0  0  0
    6.4200  -14.0757   19.7803 N   0  0  0  0  0  0  0  0  0  0  0  0
    8.1506  -15.5331   20.6608 C   0  0  0  0  0  0  0  0  0  0  0  0
    7.5015  -15.6752   21.7179 O   0  0  0  0  0  0  0  0  0  0  0  0
   11.6949  -17.8239   20.3604 O   0  0  0  0  0  0  0  0  0  0  0  0
   10.5179  -18.4471   20.6830 C   0  0  0  0  0  0  0  0  0  0  0  0
    9.6012  -17.4524   21.3578 C   0  0  2  0  0  0  0  0  0  0  0  0
    9.2645  -16.3615   20.4419 N   0  0  0  0  0  0  0  0  0  0  0  0
   10.2867  -16.8724   22.5325 C   0  0  0  0  0  0  0  0  0  0  0  0
   10.9236  -15.7880   22.4005 O   0  0  0  0  0  0  0  0  0  0  0  0
    9.0477  -16.9227   26.1419 O   0  0  0  0  0  0  0  0  0  0  0  0
   10.1346  -16.0997   25.8546 C   0  0  0  0  0  0  0  0  0  0  0  0
   11.0511  -16.8366   24.9295 C   0  0  2  0  0  0  0  0  0  0  0  0
   10.2917  -17.4416   23.8311 N   0  0  0  0  0  0  0  0  0  0  0  0
   11.7593  -17.9261   25.6623 C   0  0  0  0  0  0  0  0  0  0  0  0
   11.5711  -19.1350   25.3532 O   0  0  0  0  0  0  0  0  0  0  0  0
   12.6369  -17.6455   26.6950 O   0  0  0  0  0  0  0  0  0  0  0  0
  2  1  1  6
  3  2  1  0
  4  2  1  0
  4  6  1  0
  4  5  1  1
  6 11  1  0
  7  6  2  0
  9  8  1  0
 10  9  1  6
 11 10  1  0
 12 10  1  0
 12 17  1  0
 13 12  2  0
 15 14  1  0
 16 15  1  1
 16 17  1  0
 16 18  1  0
 18 19  2  0
 18 20  1  0
M  END
$$$$
