TSS.pdb
     RDKit          3D

 20 19  0  0  1  0  0  0  0  0999 V2000
   -5.6614  -27.6258   29.4084 C   0  0  0  0  0  0  0  0  0  0  0  0
   -4.2856  -27.2201   29.9125 C   0  0  1  0  0  0  0  0  0  0  0  0
   -3.3549  -28.1808   29.5008 O   0  0  0  0  0  0  0  0  0  0  0  0
   -3.9865  -25.8654   29.2877 C   0  0  2  0  0  0  0  0  0  0  0  0
   -2.6121  -25.5548   29.5538 N   0  0  0  0  0  0  0  0  0  0  0  0
   -4.9118  -24.8334   29.8452 C   0  0  0  0  0  0  0  0  0  0  0  0
   -5.0111  -24.6276   31.0728 O   0  0  0  0  0  0  0  0  0  0  0  0
   -7.1713  -22.6452   27.2179 O   0  0  0  0  0  0  0  0  0  0  0  0
   -7.0152  -22.0703   28.4519 C   0  0  0  0  0  0  0  0  0  0  0  0
   -6.7301  -23.1523   29.4683 C   0  0  2  0  0  0  0  0  0  0  0  0
   -5.6993  -24.0648   28.9711 N   0  0  0  0  0  0  0  0  0  0  0  0
   -7.9610  -23.9354   29.7092 C   0  0  0  0  0  0  0  0  0  0  0  0
   -8.2962  -24.8270   28.8776 O   0  0  0  0  0  0  0  0  0  0  0  0
   -9.3549  -25.1679   33.1095 O   0  0  0  0  0  0  0  0  0  0  0  0
   -9.8529  -25.6843   31.9151 C   0  0  0  0  0  0  0  0  0  0  0  0
  -10.0557  -24.5501   30.9604 C   0  0  2  0  0  0  0  0  0  0  0  0
   -8.8222  -23.7697   30.8233 N   0  0  0  0  0  0  0  0  0  0  0  0
  -11.1295  -23.6416   31.4572 C   0  0  0  0  0  0  0  0  0  0  0  0
  -10.8712  -22.4405   31.7459 O   0  0  0  0  0  0  0  0  0  0  0  0
  -12.4308  -24.0853   31.6151 O   0  0  0  0  0  0  0  0  0  0  0  0
  2  1  1  6
  3  2  1  0
  4  2  1  0
  4  6  1  0
  4  5  1  1
  6 11  1  0
  7  6  2  0
  9  8  1  0
 10  9  1  6
 11 10  1  0
 12 10  1  0
 12 17  1  0
 13 12  2  0
 15 14  1  0
 16 15  1  1
 16 17  1  0
 16 18  1  0
 18 19  2  0
 18 20  1  0
M  END
$$$$
