TSS.pdb
     RDKit          3D

 20 19  0  0  1  0  0  0  0  0999 V2000
   -4.3256  -27.1332   27.4173 C   0  0  0  0  0  0  0  0  0  0  0  0
   -3.1631  -27.2996   28.3830 C   0  0  1  0  0  0  0  0  0  0  0  0
   -2.3247  -28.3138   27.9065 O   0  0  0  0  0  0  0  0  0  0  0  0
   -2.4405  -25.9609   28.4127 C   0  0  2  0  0  0  0  0  0  0  0  0
   -1.2054  -26.1462   29.1173 N   0  0  0  0  0  0  0  0  0  0  0  0
   -3.3061  -24.9304   29.0614 C   0  0  0  0  0  0  0  0  0  0  0  0
   -3.6251  -24.9978   30.2667 O   0  0  0  0  0  0  0  0  0  0  0  0
   -4.4362  -21.7288   26.8120 O   0  0  0  0  0  0  0  0  0  0  0  0
   -4.4074  -21.4883   28.1607 C   0  0  0  0  0  0  0  0  0  0  0  0
   -4.6018  -22.7930   28.8991 C   0  0  2  0  0  0  0  0  0  0  0  0
   -3.7817  -23.8480   28.3018 N   0  0  0  0  0  0  0  0  0  0  0  0
   -6.0194  -23.2029   28.8054 C   0  0  0  0  0  0  0  0  0  0  0  0
   -6.3574  -24.0564   27.9357 O   0  0  0  0  0  0  0  0  0  0  0  0
   -9.7456  -25.1660   29.7624 O   0  0  0  0  0  0  0  0  0  0  0  0
   -8.4297  -24.7124   29.8241 C   0  0  0  0  0  0  0  0  0  0  0  0
   -8.4249  -23.2428   29.5420 C   0  0  2  0  0  0  0  0  0  0  0  0
   -7.0623  -22.7093   29.6294 N   0  0  0  0  0  0  0  0  0  0  0  0
   -9.2724  -22.5226   30.5363 C   0  0  0  0  0  0  0  0  0  0  0  0
   -8.7692  -22.0743   31.6032 O   0  0  0  0  0  0  0  0  0  0  0  0
  -10.6251  -22.3263   30.3199 O   0  0  0  0  0  0  0  0  0  0  0  0
  2  1  1  6
  3  2  1  0
  4  2  1  0
  4  6  1  0
  4  5  1  1
  6 11  1  0
  7  6  2  0
  9  8  1  0
 10  9  1  6
 11 10  1  0
 12 10  1  0
 12 17  1  0
 13 12  2  0
 15 14  1  0
 16 15  1  1
 16 17  1  0
 16 18  1  0
 18 19  2  0
 18 20  1  0
M  END
$$$$
