TSS.pdb
     RDKit          3D

 20 19  0  0  1  0  0  0  0  0999 V2000
    7.4755  -17.4675   14.3282 C   0  0  0  0  0  0  0  0  0  0  0  0
    8.3218  -16.8331   15.4205 C   0  0  1  0  0  0  0  0  0  0  0  0
    9.5370  -17.5222   15.5046 O   0  0  0  0  0  0  0  0  0  0  0  0
    8.5406  -15.3866   15.0022 C   0  0  2  0  0  0  0  0  0  0  0  0
    9.2024  -15.3946   13.7300 N   0  0  0  0  0  0  0  0  0  0  0  0
    9.3380  -14.6716   16.0437 C   0  0  0  0  0  0  0  0  0  0  0  0
   10.5565  -14.4393   15.9005 O   0  0  0  0  0  0  0  0  0  0  0  0
    7.6341  -13.9123   19.7131 O   0  0  0  0  0  0  0  0  0  0  0  0
    8.4810  -12.9285   19.2741 C   0  0  0  0  0  0  0  0  0  0  0  0
    9.4397  -13.5167   18.2641 C   0  0  2  0  0  0  0  0  0  0  0  0
    8.7084  -14.2427   17.2246 N   0  0  0  0  0  0  0  0  0  0  0  0
   10.3430  -14.4703   18.9430 C   0  0  0  0  0  0  0  0  0  0  0  0
   10.0998  -15.7090   18.8680 O   0  0  0  0  0  0  0  0  0  0  0  0
   14.3084  -14.1182   19.4565 O   0  0  0  0  0  0  0  0  0  0  0  0
   13.6931  -14.5252   20.6385 C   0  0  0  0  0  0  0  0  0  0  0  0
   12.3628  -15.1187   20.2962 C   0  0  2  0  0  0  0  0  0  0  0  0
   11.4913  -14.1070   19.6912 N   0  0  0  0  0  0  0  0  0  0  0  0
   11.6947  -15.6345   21.5262 C   0  0  0  0  0  0  0  0  0  0  0  0
   10.6298  -15.1048   21.9481 O   0  0  0  0  0  0  0  0  0  0  0  0
   12.2187  -16.7009   22.2357 O   0  0  0  0  0  0  0  0  0  0  0  0
  2  1  1  6
  3  2  1  0
  4  2  1  0
  4  6  1  0
  4  5  1  6
  6 11  1  0
  7  6  2  0
  9  8  1  0
 10  9  1  1
 11 10  1  0
 12 10  1  0
 12 17  1  0
 13 12  2  0
 15 14  1  0
 16 15  1  1
 16 17  1  0
 16 18  1  0
 18 19  2  0
 18 20  1  0
M  END
$$$$
