TSS.pdb
     RDKit          3D

 20 19  0  0  1  0  0  0  0  0999 V2000
   12.7356  -20.8485   12.3783 C   0  0  0  0  0  0  0  0  0  0  0  0
   12.2500  -19.4798   11.9283 C   0  0  1  0  0  0  0  0  0  0  0  0
   11.8522  -19.5622   10.5891 O   0  0  0  0  0  0  0  0  0  0  0  0
   11.0741  -19.1293   12.8280 C   0  0  2  0  0  0  0  0  0  0  0  0
   10.3735  -18.0330   12.2249 N   0  0  0  0  0  0  0  0  0  0  0  0
   11.5652  -18.7938   14.1985 C   0  0  0  0  0  0  0  0  0  0  0  0
   12.4950  -17.9823   14.3881 O   0  0  0  0  0  0  0  0  0  0  0  0
    9.7631  -20.5196   17.5671 O   0  0  0  0  0  0  0  0  0  0  0  0
   10.3132  -19.2686   17.6673 C   0  0  0  0  0  0  0  0  0  0  0  0
   11.4475  -19.1471   16.6755 C   0  0  2  0  0  0  0  0  0  0  0  0
   10.9702  -19.4041   15.3159 N   0  0  0  0  0  0  0  0  0  0  0  0
   12.4877  -20.1480   16.9953 C   0  0  0  0  0  0  0  0  0  0  0  0
   12.3610  -21.3285   16.5599 O   0  0  0  0  0  0  0  0  0  0  0  0
   16.2779  -19.2933   17.7242 O   0  0  0  0  0  0  0  0  0  0  0  0
   15.9432  -20.6013   17.3802 C   0  0  0  0  0  0  0  0  0  0  0  0
   14.6394  -20.9402   18.0315 C   0  0  2  0  0  0  0  0  0  0  0  0
   13.6483  -19.8925   17.7687 N   0  0  0  0  0  0  0  0  0  0  0  0
   14.8141  -21.0570   19.5085 C   0  0  0  0  0  0  0  0  0  0  0  0
   14.2009  -20.2793   20.2906 O   0  0  0  0  0  0  0  0  0  0  0  0
   15.6472  -22.0142   20.0605 O   0  0  0  0  0  0  0  0  0  0  0  0
  2  1  1  1
  3  2  1  0
  4  2  1  0
  4  6  1  0
  4  5  1  6
  6 11  1  0
  7  6  2  0
  9  8  1  0
 10  9  1  1
 11 10  1  0
 12 10  1  0
 12 17  1  0
 13 12  2  0
 15 14  1  0
 16 15  1  6
 16 17  1  0
 16 18  1  0
 18 19  2  0
 18 20  1  0
M  END
$$$$
