TSS.pdb
     RDKit          3D

 20 19  0  0  1  0  0  0  0  0999 V2000
    9.0009  -16.2413   17.4026 C   0  0  0  0  0  0  0  0  0  0  0  0
    9.0182  -14.7260   17.2799 C   0  0  1  0  0  0  0  0  0  0  0  0
    9.1174  -14.3859   15.9260 O   0  0  0  0  0  0  0  0  0  0  0  0
    7.7049  -14.2367   17.8723 C   0  0  2  0  0  0  0  0  0  0  0  0
    7.5177  -12.8768   17.4576 N   0  0  0  0  0  0  0  0  0  0  0  0
    7.7380  -14.3689   19.3601 C   0  0  0  0  0  0  0  0  0  0  0  0
    8.3377  -13.5472   20.0842 O   0  0  0  0  0  0  0  0  0  0  0  0
    6.2294  -17.8116   21.1502 O   0  0  0  0  0  0  0  0  0  0  0  0
    6.0866  -16.6479   21.8595 C   0  0  0  0  0  0  0  0  0  0  0  0
    7.1500  -15.6678   21.4195 C   0  0  2  0  0  0  0  0  0  0  0  0
    7.0778  -15.4467   19.9744 N   0  0  0  0  0  0  0  0  0  0  0  0
    8.4854  -16.2188   21.7349 C   0  0  0  0  0  0  0  0  0  0  0  0
    9.1905  -16.6973   20.8006 O   0  0  0  0  0  0  0  0  0  0  0  0
   10.3977  -15.6773   25.2631 O   0  0  0  0  0  0  0  0  0  0  0  0
   11.1903  -16.0962   24.1965 C   0  0  0  0  0  0  0  0  0  0  0  0
   10.3449  -16.9209   23.2777 C   0  0  2  0  0  0  0  0  0  0  0  0
    9.0612  -16.2578   23.0300 N   0  0  0  0  0  0  0  0  0  0  0  0
   10.0709  -18.2555   23.8854 C   0  0  0  0  0  0  0  0  0  0  0  0
    8.9002  -18.5744   24.2321 O   0  0  0  0  0  0  0  0  0  0  0  0
   11.0845  -19.1762   24.0856 O   0  0  0  0  0  0  0  0  0  0  0  0
  2  1  1  6
  3  2  1  0
  4  2  1  0
  4  6  1  0
  4  5  1  1
  6 11  1  0
  7  6  2  0
  9  8  1  0
 10  9  1  6
 11 10  1  0
 12 10  1  0
 12 17  1  0
 13 12  2  0
 15 14  1  0
 16 15  1  1
 16 17  1  0
 16 18  1  0
 18 19  2  0
 18 20  1  0
M  END
$$$$
