TSS.pdb
     RDKit          3D

 20 19  0  0  1  0  0  0  0  0999 V2000
    7.6004  -16.2458   18.8922 C   0  0  0  0  0  0  0  0  0  0  0  0
    8.3432  -15.0567   18.3040 C   0  0  1  0  0  0  0  0  0  0  0  0
    7.9473  -14.8940   16.9716 O   0  0  0  0  0  0  0  0  0  0  0  0
    7.9475  -13.8510   19.1436 C   0  0  2  0  0  0  0  0  0  0  0  0
    8.2787  -12.6715   18.3984 N   0  0  0  0  0  0  0  0  0  0  0  0
    8.6502  -13.8967   20.4612 C   0  0  0  0  0  0  0  0  0  0  0  0
    9.8589  -13.6057   20.5770 O   0  0  0  0  0  0  0  0  0  0  0  0
    6.6212  -15.3334   23.7797 O   0  0  0  0  0  0  0  0  0  0  0  0
    7.5784  -14.3848   24.0283 C   0  0  0  0  0  0  0  0  0  0  0  0
    8.5982  -14.4083   22.9127 C   0  0  2  0  0  0  0  0  0  0  0  0
    7.9394  -14.2773   21.6122 N   0  0  0  0  0  0  0  0  0  0  0  0
    9.3201  -15.6985   22.9353 C   0  0  0  0  0  0  0  0  0  0  0  0
    8.8488  -16.6792   22.2911 O   0  0  0  0  0  0  0  0  0  0  0  0
   13.1782  -16.1348   23.3266 O   0  0  0  0  0  0  0  0  0  0  0  0
   12.4486  -17.2456   22.9081 C   0  0  0  0  0  0  0  0  0  0  0  0
   11.1522  -17.2657   23.6552 C   0  0  2  0  0  0  0  0  0  0  0  0
   10.5295  -15.9387   23.6354 N   0  0  0  0  0  0  0  0  0  0  0  0
   11.3811  -17.6523   25.0778 C   0  0  0  0  0  0  0  0  0  0  0  0
   11.9132  -18.7602   25.3639 O   0  0  0  0  0  0  0  0  0  0  0  0
   11.0194  -16.8141   26.1178 O   0  0  0  0  0  0  0  0  0  0  0  0
  2  1  1  1
  3  2  1  0
  4  2  1  0
  4  6  1  0
  4  5  1  6
  6 11  1  0
  7  6  2  0
  9  8  1  0
 10  9  1  1
 11 10  1  0
 12 10  1  0
 12 17  1  0
 13 12  2  0
 15 14  1  0
 16 15  1  6
 16 17  1  0
 16 18  1  0
 18 19  2  0
 18 20  1  0
M  END
$$$$
