TSS.pdb
     RDKit          3D

 20 19  0  0  1  0  0  0  0  0999 V2000
   -4.6046  -26.7313   27.0127 C   0  0  0  0  0  0  0  0  0  0  0  0
   -3.3869  -27.0898   27.8495 C   0  0  1  0  0  0  0  0  0  0  0  0
   -2.7597  -28.2021   27.2767 O   0  0  0  0  0  0  0  0  0  0  0  0
   -2.4761  -25.8714   27.8179 C   0  0  2  0  0  0  0  0  0  0  0  0
   -1.2205  -26.2487   28.3990 N   0  0  0  0  0  0  0  0  0  0  0  0
   -3.1159  -24.7395   28.5537 C   0  0  0  0  0  0  0  0  0  0  0  0
   -3.3530  -24.7962   29.7784 O   0  0  0  0  0  0  0  0  0  0  0  0
   -4.3944  -21.4975   26.3827 O   0  0  0  0  0  0  0  0  0  0  0  0
   -4.0859  -21.2112   27.6868 C   0  0  0  0  0  0  0  0  0  0  0  0
   -4.1885  -22.4764   28.5077 C   0  0  2  0  0  0  0  0  0  0  0  0
   -3.4660  -23.5704   27.8569 N   0  0  0  0  0  0  0  0  0  0  0  0
   -5.6089  -22.8695   28.6273 C   0  0  0  0  0  0  0  0  0  0  0  0
   -6.1475  -23.5250   27.6897 O   0  0  0  0  0  0  0  0  0  0  0  0
   -7.4570  -23.8467   31.9255 O   0  0  0  0  0  0  0  0  0  0  0  0
   -8.0016  -24.1753   30.6858 C   0  0  0  0  0  0  0  0  0  0  0  0
   -7.8439  -22.9980   29.7758 C   0  0  2  0  0  0  0  0  0  0  0  0
   -6.4432  -22.5677   29.7334 N   0  0  0  0  0  0  0  0  0  0  0  0
   -8.6687  -21.8541   30.2624 C   0  0  0  0  0  0  0  0  0  0  0  0
   -8.1192  -20.7869   30.6520 O   0  0  0  0  0  0  0  0  0  0  0  0
  -10.0500  -21.9286   30.3007 O   0  0  0  0  0  0  0  0  0  0  0  0
  2  1  1  6
  3  2  1  0
  4  2  1  0
  4  6  1  0
  4  5  1  1
  6 11  1  0
  7  6  2  0
  9  8  1  0
 10  9  1  6
 11 10  1  0
 12 10  1  0
 12 17  1  0
 13 12  2  0
 15 14  1  0
 16 15  1  1
 16 17  1  0
 16 18  1  0
 18 19  2  0
 18 20  1  0
M  END
$$$$
