TSS.pdb
     RDKit          3D

 20 19  0  0  1  0  0  0  0  0999 V2000
    4.1860  -18.5556   20.2068 C   0  0  0  0  0  0  0  0  0  0  0  0
    2.7931  -19.1648   20.2239 C   0  0  1  0  0  0  0  0  0  0  0  0
    2.4159  -19.4606   18.9091 O   0  0  0  0  0  0  0  0  0  0  0  0
    2.8933  -20.4305   21.0624 C   0  0  2  0  0  0  0  0  0  0  0  0
    1.6442  -21.1265   20.9547 N   0  0  0  0  0  0  0  0  0  0  0  0
    3.2177  -20.0781   22.4776 C   0  0  0  0  0  0  0  0  0  0  0  0
    2.4101  -19.4690   23.2096 O   0  0  0  0  0  0  0  0  0  0  0  0
    6.1183  -22.0304   24.5723 O   0  0  0  0  0  0  0  0  0  0  0  0
    5.1527  -21.2877   25.1997 C   0  0  0  0  0  0  0  0  0  0  0  0
    4.8583  -20.0587   24.3703 C   0  0  2  0  0  0  0  0  0  0  0  0
    4.4667  -20.4379   23.0119 N   0  0  0  0  0  0  0  0  0  0  0  0
    6.0752  -19.2234   24.2824 C   0  0  0  0  0  0  0  0  0  0  0  0
    6.9239  -19.4650   23.3767 O   0  0  0  0  0  0  0  0  0  0  0  0
    6.8099  -15.4776   24.7856 O   0  0  0  0  0  0  0  0  0  0  0  0
    7.6834  -16.1475   25.6396 C   0  0  0  0  0  0  0  0  0  0  0  0
    7.7349  -17.5850   25.2268 C   0  0  2  0  0  0  0  0  0  0  0  0
    6.3819  -18.1439   25.1490 N   0  0  0  0  0  0  0  0  0  0  0  0
    8.5120  -18.3809   26.2208 C   0  0  0  0  0  0  0  0  0  0  0  0
    9.7262  -18.1195   26.4439 O   0  0  0  0  0  0  0  0  0  0  0  0
    7.9289  -19.4216   26.9224 O   0  0  0  0  0  0  0  0  0  0  0  0
  2  1  1  6
  3  2  1  0
  4  2  1  0
  4  6  1  0
  4  5  1  1
  6 11  1  0
  7  6  2  0
  9  8  1  0
 10  9  1  1
 11 10  1  0
 12 10  1  0
 12 17  1  0
 13 12  2  0
 15 14  1  0
 16 15  1  1
 16 17  1  0
 16 18  1  0
 18 19  2  0
 18 20  1  0
M  END
$$$$
