TSS.pdb
     RDKit          3D

 20 19  0  0  1  0  0  0  0  0999 V2000
    9.1648  -17.9848   16.1165 C   0  0  0  0  0  0  0  0  0  0  0  0
    9.4240  -17.2402   14.8165 C   0  0  1  0  0  0  0  0  0  0  0  0
    8.8221  -17.9445   13.7675 O   0  0  0  0  0  0  0  0  0  0  0  0
    8.7965  -15.8640   14.9828 C   0  0  2  0  0  0  0  0  0  0  0  0
    8.8113  -15.2190   13.7021 N   0  0  0  0  0  0  0  0  0  0  0  0
    9.5480  -15.0838   16.0115 C   0  0  0  0  0  0  0  0  0  0  0  0
   10.7445  -14.7628   15.8549 O   0  0  0  0  0  0  0  0  0  0  0  0
    7.7501  -14.3183   19.6289 O   0  0  0  0  0  0  0  0  0  0  0  0
    8.5819  -13.3202   19.1934 C   0  0  0  0  0  0  0  0  0  0  0  0
    9.5813  -13.9004   18.2189 C   0  0  2  0  0  0  0  0  0  0  0  0
    8.8991  -14.6937   17.1954 N   0  0  0  0  0  0  0  0  0  0  0  0
   10.5144  -14.7889   18.9442 C   0  0  0  0  0  0  0  0  0  0  0  0
   10.2648  -16.0271   19.0038 O   0  0  0  0  0  0  0  0  0  0  0  0
   14.4938  -14.7766   19.2264 O   0  0  0  0  0  0  0  0  0  0  0  0
   13.9205  -14.7789   20.4963 C   0  0  0  0  0  0  0  0  0  0  0  0
   12.5194  -15.2910   20.3791 C   0  0  2  0  0  0  0  0  0  0  0  0
   11.6987  -14.3620   19.5965 N   0  0  0  0  0  0  0  0  0  0  0  0
   11.9049  -15.4306   21.7313 C   0  0  0  0  0  0  0  0  0  0  0  0
   10.9113  -14.7258   22.0604 O   0  0  0  0  0  0  0  0  0  0  0  0
   12.4025  -16.3303   22.6577 O   0  0  0  0  0  0  0  0  0  0  0  0
  2  1  1  1
  3  2  1  0
  4  2  1  0
  4  6  1  0
  4  5  1  6
  6 11  1  0
  7  6  2  0
  9  8  1  0
 10  9  1  1
 11 10  1  0
 12 10  1  0
 12 17  1  0
 13 12  2  0
 15 14  1  0
 16 15  1  1
 16 17  1  0
 16 18  1  0
 18 19  2  0
 18 20  1  0
M  END
$$$$
