TSS.pdb
     RDKit          3D

 20 19  0  0  1  0  0  0  0  0999 V2000
    6.8033  -18.7176   18.4046 C   0  0  0  0  0  0  0  0  0  0  0  0
    7.6571  -18.2588   19.5760 C   0  0  1  0  0  0  0  0  0  0  0  0
    8.7214  -19.1538   19.7340 O   0  0  0  0  0  0  0  0  0  0  0  0
    8.1599  -16.8685   19.2164 C   0  0  2  0  0  0  0  0  0  0  0  0
    8.9904  -16.9909   18.0538 N   0  0  0  0  0  0  0  0  0  0  0  0
    8.8997  -16.2807   20.3736 C   0  0  0  0  0  0  0  0  0  0  0  0
   10.1473  -16.2432   20.4113 O   0  0  0  0  0  0  0  0  0  0  0  0
    8.4990  -14.3006   24.7742 O   0  0  0  0  0  0  0  0  0  0  0  0
    7.8708  -14.6010   23.5940 C   0  0  0  0  0  0  0  0  0  0  0  0
    8.8538  -15.2852   22.6717 C   0  0  2  0  0  0  0  0  0  0  0  0
    8.1804  -15.7509   21.4584 N   0  0  0  0  0  0  0  0  0  0  0  0
    9.4329  -16.4604   23.3570 C   0  0  0  0  0  0  0  0  0  0  0  0
    8.7657  -17.5333   23.4095 O   0  0  0  0  0  0  0  0  0  0  0  0
   13.0481  -19.0873   24.9896 O   0  0  0  0  0  0  0  0  0  0  0  0
   12.5964  -18.0012   24.2428 C   0  0  0  0  0  0  0  0  0  0  0  0
   11.1956  -17.6890   24.6664 C   0  0  2  0  0  0  0  0  0  0  0  0
   10.7076  -16.4906   23.9772 N   0  0  0  0  0  0  0  0  0  0  0  0
   11.1439  -17.4356   26.1356 C   0  0  0  0  0  0  0  0  0  0  0  0
   10.7666  -16.3167   26.5809 O   0  0  0  0  0  0  0  0  0  0  0  0
   11.5052  -18.4125   27.0468 O   0  0  0  0  0  0  0  0  0  0  0  0
  2  1  1  6
  3  2  1  0
  4  2  1  0
  4  6  1  0
  4  5  1  6
  6 11  1  0
  7  6  2  0
  9  8  1  0
 10  9  1  1
 11 10  1  0
 12 10  1  0
 12 17  1  0
 13 12  2  0
 15 14  1  0
 16 15  1  6
 16 17  1  0
 16 18  1  0
 18 19  2  0
 18 20  1  0
M  END
$$$$
