RVH.pdb
     RDKit          3D

 29 29  0  0  1  0  0  0  0  0999 V2000
   43.4975  -15.5857  -10.8166 N   0  0  0  0  0  0  0  0  0  0  0  0
   43.9959  -16.5668   -9.9168 C   0  0  0  0  0  0  0  0  0  0  0  0
   44.5921  -17.6206  -10.3525 N   0  0  0  0  0  0  0  0  0  0  0  0
   43.8312  -16.3790   -8.5131 N   0  0  0  0  0  0  0  0  0  0  0  0
   43.0546  -15.2501   -7.9739 C   0  0  0  0  0  0  0  0  0  0  0  0
   44.0050  -14.1107   -7.8534 C   0  0  0  0  0  0  0  0  0  0  0  0
   43.4809  -12.8533   -7.2491 C   0  0  0  0  0  0  0  0  0  0  0  0
   44.4553  -11.7316   -7.3107 C   0  0  2  0  0  0  0  0  0  0  0  0
   45.5465  -11.9691   -6.3669 N   0  0  0  0  0  0  0  0  0  0  0  0
   43.8424  -10.4330   -6.8738 C   0  0  0  0  0  0  0  0  0  0  0  0
   44.2363   -9.8173   -5.8534 O   0  0  0  0  0  0  0  0  0  0  0  0
   44.9878  -18.3363   -9.7060 C   0  0  0  0  0  0  0  0  0  0  0  0
   44.6084   -7.6954   -6.7610 C   0  0  2  0  0  0  0  0  0  0  0  0
   43.4048   -7.5600   -7.6197 C   0  0  0  0  0  0  0  0  0  0  0  0
   42.9780   -6.1073   -7.6157 C   0  0  2  0  0  0  0  0  0  0  0  0
   42.2675   -8.4896   -7.3230 N   0  0  0  0  0  0  0  0  0  0  0  0
   42.7783   -9.8348   -7.6020 C   0  0  0  0  0  0  0  0  0  0  0  0
   41.0478   -8.2335   -8.1260 O   0  0  0  0  0  0  0  0  0  0  0  0
   41.0690   -8.3666   -9.3995 N   0  0  0  0  0  0  0  0  0  0  0  0
   39.8139   -7.8378   -7.5540 C   0  0  1  0  0  0  0  0  0  0  0  0
   38.5900   -7.7544   -8.3287 C   0  0  0  0  0  0  0  0  0  0  0  0
   37.3881   -7.9722   -7.4582 C   0  0  0  0  0  0  0  0  0  0  0  0
   37.4070   -9.2623   -6.7191 C   0  0  0  0  0  0  0  0  0  0  0  0
   38.3223  -10.2855   -6.8414 N   0  0  0  0  0  0  0  0  0  0  0  0
   37.9735  -11.2643   -5.9956 C   0  0  0  0  0  0  0  0  0  0  0  0
   36.8697  -10.8734   -5.3560 N   0  0  0  0  0  0  0  0  0  0  0  0
   36.5245   -9.6558   -5.7956 C   0  0  0  0  0  0  0  0  0  0  0  0
   38.4684   -6.4411   -9.0128 O   0  0  0  0  0  0  0  0  0  0  0  0
   37.5639   -6.2608  -10.0212 O   0  0  0  0  0  0  0  0  0  0  0  0
  1  2  1  0
  2  3  2  0
  4  5  1  0
  4  2  1  0
  6  5  1  0
  7  6  1  0
  8 10  1  0
  8  7  1  0
  8  9  1  1
 10 11  2  0
 13 12  1  6
 13 15  1  0
 14 13  1  0
 15 16  1  1
 16 10  1  0
 17 15  1  0
 17 18  2  0
 19 17  1  0
 20 19  1  0
 20 27  1  0
 20 21  1  6
 22 26  1  0
 22 21  1  0
 23 22  2  0
 24 23  1  0
 24 25  1  0
 25 26  2  0
 27 29  2  0
 27 28  1  0
M  END
$$$$
