RVH.pdb
     RDKit          3D

 29 29  0  0  1  0  0  0  0  0999 V2000
   35.2861  -11.0278  -20.9831 N   0  0  0  0  0  0  0  0  0  0  0  0
   35.8924  -11.8526  -19.9968 C   0  0  0  0  0  0  0  0  0  0  0  0
   37.1730  -11.9372  -19.9027 N   0  0  0  0  0  0  0  0  0  0  0  0
   35.0687  -12.5959  -19.1015 N   0  0  0  0  0  0  0  0  0  0  0  0
   33.6003  -12.5722  -19.2077 C   0  0  0  0  0  0  0  0  0  0  0  0
   33.1447  -11.3942  -18.4200 C   0  0  0  0  0  0  0  0  0  0  0  0
   31.6801  -11.1194  -18.3990 C   0  0  0  0  0  0  0  0  0  0  0  0
   30.9388  -12.0031  -17.4604 C   0  0  2  0  0  0  0  0  0  0  0  0
   31.5210  -13.3441  -17.4761 N   0  0  0  0  0  0  0  0  0  0  0  0
   29.5115  -12.1964  -17.8828 C   0  0  0  0  0  0  0  0  0  0  0  0
   29.1749  -13.0650  -18.7241 O   0  0  0  0  0  0  0  0  0  0  0  0
   37.6338  -12.5542  -19.2001 C   0  0  0  0  0  0  0  0  0  0  0  0
   27.5036  -14.1304  -18.0480 C   0  0  2  0  0  0  0  0  0  0  0  0
   26.8665  -13.1235  -17.1622 C   0  0  0  0  0  0  0  0  0  0  0  0
   25.4099  -13.4976  -16.9866 C   0  0  2  0  0  0  0  0  0  0  0  0
   27.0438  -11.6873  -17.5515 N   0  0  0  0  0  0  0  0  0  0  0  0
   28.4658  -11.3982  -17.3448 C   0  0  0  0  0  0  0  0  0  0  0  0
   26.2145  -10.7388  -16.7701 O   0  0  0  0  0  0  0  0  0  0  0  0
   26.3797  -10.6212  -15.5056 N   0  0  0  0  0  0  0  0  0  0  0  0
   25.2148   -9.9227  -17.3538 C   0  0  2  0  0  0  0  0  0  0  0  0
   24.3682   -9.0476  -16.5648 C   0  0  0  0  0  0  0  0  0  0  0  0
   23.7978   -7.9477  -17.4102 C   0  0  0  0  0  0  0  0  0  0  0  0
   22.8807   -7.0377  -16.6740 C   0  0  0  0  0  0  0  0  0  0  0  0
   23.1122   -5.7287  -16.3100 N   0  0  0  0  0  0  0  0  0  0  0  0
   22.0303   -5.2753  -15.6626 C   0  0  0  0  0  0  0  0  0  0  0  0
   21.1393   -6.2674  -15.6174 N   0  0  0  0  0  0  0  0  0  0  0  0
   21.6559   -7.3397  -16.2323 C   0  0  0  0  0  0  0  0  0  0  0  0
   23.2582   -9.7988  -15.9234 O   0  0  0  0  0  0  0  0  0  0  0  0
   22.8920   -9.5361  -14.6334 O   0  0  0  0  0  0  0  0  0  0  0  0
  1  2  1  0
  2  3  2  0
  4  5  1  0
  4  2  1  0
  6  5  1  0
  7  6  1  0
  8 10  1  0
  8  7  1  0
  8  9  1  6
 10 11  2  0
 13 12  1  1
 13 15  1  0
 14 13  1  0
 15 16  1  6
 16 10  1  0
 17 15  1  0
 17 18  2  0
 19 17  1  0
 20 19  1  0
 20 27  1  0
 20 21  1  1
 22 26  1  0
 22 21  1  0
 23 22  2  0
 24 23  1  0
 24 25  1  0
 25 26  2  0
 27 29  2  0
 27 28  1  0
M  END
$$$$
