RVH.pdb
     RDKit          3D

 29 29  0  0  1  0  0  0  0  0999 V2000
   47.0267  -11.7838   -3.4920 N   0  0  0  0  0  0  0  0  0  0  0  0
   47.5366  -12.1301   -4.7729 C   0  0  0  0  0  0  0  0  0  0  0  0
   48.5235  -12.9473   -4.8921 N   0  0  0  0  0  0  0  0  0  0  0  0
   46.9459  -11.5625   -5.9397 N   0  0  0  0  0  0  0  0  0  0  0  0
   45.7616  -10.6914   -5.8565 C   0  0  0  0  0  0  0  0  0  0  0  0
   44.8109  -11.1810   -6.8920 C   0  0  0  0  0  0  0  0  0  0  0  0
   43.5830  -10.3683   -7.1218 C   0  0  0  0  0  0  0  0  0  0  0  0
   42.6886  -10.9509   -8.1572 C   0  0  2  0  0  0  0  0  0  0  0  0
   43.3490  -10.9151   -9.4612 N   0  0  0  0  0  0  0  0  0  0  0  0
   41.4372  -10.1416   -8.3355 C   0  0  0  0  0  0  0  0  0  0  0  0
   41.2794   -9.3585   -9.3036 O   0  0  0  0  0  0  0  0  0  0  0  0
   48.9767  -13.1327   -5.8124 C   0  0  0  0  0  0  0  0  0  0  0  0
   37.8809  -11.8056   -7.8117 C   0  0  2  0  0  0  0  0  0  0  0  0
   38.0472  -10.5283   -7.0733 C   0  0  0  0  0  0  0  0  0  0  0  0
   36.6840   -9.8882   -6.9164 C   0  0  2  0  0  0  0  0  0  0  0  0
   39.0669   -9.5737   -7.6160 N   0  0  0  0  0  0  0  0  0  0  0  0
   40.3631  -10.2256   -7.4084 C   0  0  0  0  0  0  0  0  0  0  0  0
   39.0590   -8.2415   -6.9654 O   0  0  0  0  0  0  0  0  0  0  0  0
   38.0818   -7.4346   -7.1496 N   0  0  0  0  0  0  0  0  0  0  0  0
   40.1010   -7.7871   -6.1203 C   0  0  2  0  0  0  0  0  0  0  0  0
   40.5450   -6.4059   -6.1087 C   0  0  0  0  0  0  0  0  0  0  0  0
   41.5450   -6.1547   -7.1981 C   0  0  0  0  0  0  0  0  0  0  0  0
   42.0605   -4.7603   -7.2310 C   0  0  0  0  0  0  0  0  0  0  0  0
   41.8173   -3.7547   -6.3204 N   0  0  0  0  0  0  0  0  0  0  0  0
   42.4707   -2.6565   -6.7231 C   0  0  0  0  0  0  0  0  0  0  0  0
   43.1092   -2.9569   -7.8556 N   0  0  0  0  0  0  0  0  0  0  0  0
   42.8600   -4.2363   -8.1652 C   0  0  0  0  0  0  0  0  0  0  0  0
   39.4040   -5.4670   -6.2646 O   0  0  0  0  0  0  0  0  0  0  0  0
   39.2816   -4.3764   -5.4504 O   0  0  0  0  0  0  0  0  0  0  0  0
  1  2  1  0
  2  3  2  0
  4  5  1  0
  4  2  1  0
  6  5  1  0
  7  6  1  0
  8 10  1  0
  8  7  1  0
  8  9  1  6
 10 11  2  0
 13 12  1  1
 13 15  1  0
 14 13  1  0
 15 16  1  6
 16 10  1  0
 17 15  1  0
 17 18  2  0
 19 17  1  0
 20 19  1  0
 20 27  1  0
 20 21  1  6
 22 26  1  0
 22 21  1  0
 23 22  2  0
 24 23  1  0
 24 25  1  0
 25 26  2  0
 27 29  2  0
 27 28  1  0
M  END
$$$$
