RVH.pdb
     RDKit          3D

 29 29  0  0  1  0  0  0  0  0999 V2000
   31.2833  -24.7783  -15.7330 N   0  0  0  0  0  0  0  0  0  0  0  0
   31.1566  -24.9265  -17.1410 C   0  0  0  0  0  0  0  0  0  0  0  0
   31.0170  -26.0899  -17.6729 N   0  0  0  0  0  0  0  0  0  0  0  0
   31.1858  -23.7694  -17.9733 N   0  0  0  0  0  0  0  0  0  0  0  0
   30.8721  -22.4320  -17.4428 C   0  0  0  0  0  0  0  0  0  0  0  0
   29.5002  -22.1060  -17.9200 C   0  0  0  0  0  0  0  0  0  0  0  0
   28.7150  -21.1330  -17.1090 C   0  0  0  0  0  0  0  0  0  0  0  0
   27.6602  -21.7831  -16.2867 C   0  0  2  0  0  0  0  0  0  0  0  0
   27.0891  -22.9147  -17.0155 N   0  0  0  0  0  0  0  0  0  0  0  0
   26.5020  -20.8629  -16.0325 C   0  0  0  0  0  0  0  0  0  0  0  0
   26.6475  -19.7367  -15.4979 O   0  0  0  0  0  0  0  0  0  0  0  0
   31.1062  -26.2397  -18.7006 C   0  0  0  0  0  0  0  0  0  0  0  0
   24.2010  -19.6706  -18.6836 C   0  0  2  0  0  0  0  0  0  0  0  0
   23.3876  -20.2712  -17.5964 C   0  0  0  0  0  0  0  0  0  0  0  0
   22.0418  -19.5780  -17.5701 C   0  0  2  0  0  0  0  0  0  0  0  0
   24.0261  -20.3293  -16.2419 N   0  0  0  0  0  0  0  0  0  0  0  0
   25.1752  -21.2273  -16.3889 C   0  0  0  0  0  0  0  0  0  0  0  0
   23.1305  -20.8230  -15.1684 O   0  0  0  0  0  0  0  0  0  0  0  0
   22.7571  -22.0478  -15.1465 N   0  0  0  0  0  0  0  0  0  0  0  0
   22.6442  -19.9969  -14.1257 C   0  0  1  0  0  0  0  0  0  0  0  0
   21.8364  -20.5147  -13.0374 C   0  0  0  0  0  0  0  0  0  0  0  0
   22.3020  -19.9726  -11.7186 C   0  0  0  0  0  0  0  0  0  0  0  0
   23.6458  -20.4600  -11.3090 C   0  0  0  0  0  0  0  0  0  0  0  0
   24.4687  -21.3265  -11.9958 N   0  0  0  0  0  0  0  0  0  0  0  0
   25.5857  -21.5031  -11.2772 C   0  0  0  0  0  0  0  0  0  0  0  0
   25.4743  -20.7703  -10.1677 N   0  0  0  0  0  0  0  0  0  0  0  0
   24.2947  -20.1357  -10.1864 C   0  0  0  0  0  0  0  0  0  0  0  0
   20.3994  -20.1854  -13.2229 O   0  0  0  0  0  0  0  0  0  0  0  0
   19.4419  -20.7810  -12.4511 O   0  0  0  0  0  0  0  0  0  0  0  0
  1  2  1  0
  2  3  2  0
  4  5  1  0
  4  2  1  0
  6  5  1  0
  7  6  1  0
  8 10  1  0
  8  7  1  0
  8  9  1  6
 10 11  2  0
 13 12  1  6
 13 15  1  0
 14 13  1  0
 15 16  1  1
 16 10  1  0
 17 15  1  0
 17 18  2  0
 19 17  1  0
 20 19  1  0
 20 27  1  0
 20 21  1  1
 22 26  1  0
 22 21  1  0
 23 22  2  0
 24 23  1  0
 24 25  1  0
 25 26  2  0
 27 29  2  0
 27 28  1  0
M  END
$$$$
