RVH.pdb
     RDKit          3D

 29 29  0  0  1  0  0  0  0  0999 V2000
   19.6541  -16.8395  -22.8127 N   0  0  0  0  0  0  0  0  0  0  0  0
   19.5746  -15.6289  -22.0719 C   0  0  0  0  0  0  0  0  0  0  0  0
   18.6833  -14.7428  -22.3479 N   0  0  0  0  0  0  0  0  0  0  0  0
   20.4965  -15.3950  -21.0098 N   0  0  0  0  0  0  0  0  0  0  0  0
   21.9367  -15.6570  -21.1694 C   0  0  0  0  0  0  0  0  0  0  0  0
   22.2157  -16.9164  -20.4265 C   0  0  0  0  0  0  0  0  0  0  0  0
   22.7772  -16.7816  -19.0527 C   0  0  0  0  0  0  0  0  0  0  0  0
   24.2487  -16.9912  -19.0056 C   0  0  2  0  0  0  0  0  0  0  0  0
   24.7328  -17.4119  -20.3195 N   0  0  0  0  0  0  0  0  0  0  0  0
   24.6254  -18.1100  -18.0786 C   0  0  0  0  0  0  0  0  0  0  0  0
   24.5385  -19.3158  -18.4158 O   0  0  0  0  0  0  0  0  0  0  0  0
   18.5993  -13.8580  -21.8031 C   0  0  0  0  0  0  0  0  0  0  0  0
   27.8714  -18.3736  -15.9856 C   0  0  1  0  0  0  0  0  0  0  0  0
   26.6707  -18.4887  -15.1199 C   0  0  0  0  0  0  0  0  0  0  0  0
   27.0175  -19.3714  -13.9397 C   0  0  2  0  0  0  0  0  0  0  0  0
   25.4014  -18.9114  -15.7951 N   0  0  0  0  0  0  0  0  0  0  0  0
   25.1025  -17.8535  -16.7645 C   0  0  0  0  0  0  0  0  0  0  0  0
   24.2544  -19.0940  -14.8736 O   0  0  0  0  0  0  0  0  0  0  0  0
   23.7190  -18.0846  -14.2953 N   0  0  0  0  0  0  0  0  0  0  0  0
   23.6905  -20.3601  -14.5818 C   0  0  2  0  0  0  0  0  0  0  0  0
   22.6499  -20.5359  -13.5862 C   0  0  0  0  0  0  0  0  0  0  0  0
   23.0534  -19.9285  -12.2754 C   0  0  0  0  0  0  0  0  0  0  0  0
   24.2925  -20.5135  -11.6979 C   0  0  0  0  0  0  0  0  0  0  0  0
   25.0682  -21.5230  -12.2260 N   0  0  0  0  0  0  0  0  0  0  0  0
   26.0913  -21.7472  -11.3903 C   0  0  0  0  0  0  0  0  0  0  0  0
   25.9678  -20.9049  -10.3629 N   0  0  0  0  0  0  0  0  0  0  0  0
   24.8739  -20.1543  -10.5493 C   0  0  0  0  0  0  0  0  0  0  0  0
   21.3657  -19.9348  -14.0304 O   0  0  0  0  0  0  0  0  0  0  0  0
   20.2554  -19.9950  -13.2360 O   0  0  0  0  0  0  0  0  0  0  0  0
  1  2  1  0
  2  3  2  0
  4  5  1  0
  4  2  1  0
  6  5  1  0
  7  6  1  0
  8 10  1  0
  8  7  1  0
  8  9  1  6
 10 11  2  0
 13 12  1  1
 13 15  1  0
 14 13  1  0
 15 16  1  6
 16 10  1  0
 17 15  1  0
 17 18  2  0
 19 17  1  0
 20 19  1  0
 20 27  1  0
 20 21  1  6
 22 26  1  0
 22 21  1  0
 23 22  2  0
 24 23  1  0
 24 25  1  0
 25 26  2  0
 27 29  2  0
 27 28  1  0
M  END
$$$$
