RVH.pdb
     RDKit          3D

 29 29  0  0  1  0  0  0  0  0999 V2000
   18.6044  -24.4803  -18.3508 N   0  0  0  0  0  0  0  0  0  0  0  0
   17.2588  -24.9074  -18.1850 C   0  0  0  0  0  0  0  0  0  0  0  0
   16.3808  -24.6957  -19.1016 N   0  0  0  0  0  0  0  0  0  0  0  0
   16.8788  -25.5782  -16.9857 N   0  0  0  0  0  0  0  0  0  0  0  0
   17.7901  -25.6679  -15.8325 C   0  0  0  0  0  0  0  0  0  0  0  0
   17.0547  -26.4180  -14.7779 C   0  0  0  0  0  0  0  0  0  0  0  0
   17.8066  -26.7507  -13.5349 C   0  0  0  0  0  0  0  0  0  0  0  0
   18.5933  -25.6032  -13.0097 C   0  0  2  0  0  0  0  0  0  0  0  0
   19.8042  -25.4237  -13.8091 N   0  0  0  0  0  0  0  0  0  0  0  0
   19.0852  -25.8538  -11.6140 C   0  0  0  0  0  0  0  0  0  0  0  0
   20.2015  -26.3790  -11.3826 O   0  0  0  0  0  0  0  0  0  0  0  0
   15.3737  -24.9264  -18.9630 C   0  0  0  0  0  0  0  0  0  0  0  0
   17.8455  -23.1593   -8.7826 C   0  0  1  0  0  0  0  0  0  0  0  0
   19.0555  -24.0194   -8.8078 C   0  0  0  0  0  0  0  0  0  0  0  0
   20.0727  -23.3831   -9.7313 C   0  0  1  0  0  0  0  0  0  0  0  0
   18.8350  -25.4696   -9.1143 N   0  0  0  0  0  0  0  0  0  0  0  0
   18.3032  -25.5047  -10.4797 C   0  0  0  0  0  0  0  0  0  0  0  0
   17.8996  -26.1512   -8.1878 O   0  0  0  0  0  0  0  0  0  0  0  0
   16.6339  -26.0092   -8.3220 N   0  0  0  0  0  0  0  0  0  0  0  0
   18.3315  -26.9819   -7.1249 C   0  0  1  0  0  0  0  0  0  0  0  0
   17.4141  -27.5215   -6.1390 C   0  0  0  0  0  0  0  0  0  0  0  0
   18.0818  -28.5736   -5.3040 C   0  0  0  0  0  0  0  0  0  0  0  0
   17.1922  -29.1821   -4.2795 C   0  0  0  0  0  0  0  0  0  0  0  0
   15.8859  -28.8455   -3.9968 N   0  0  0  0  0  0  0  0  0  0  0  0
   15.4535  -29.6369   -3.0059 C   0  0  0  0  0  0  0  0  0  0  0  0
   16.4559  -30.4510   -2.6702 N   0  0  0  0  0  0  0  0  0  0  0  0
   17.5138  -30.1749   -3.4444 C   0  0  0  0  0  0  0  0  0  0  0  0
   16.8819  -26.4557   -5.2510 O   0  0  0  0  0  0  0  0  0  0  0  0
   17.6770  -25.4183   -4.8523 O   0  0  0  0  0  0  0  0  0  0  0  0
  1  2  1  0
  2  3  2  0
  4  5  1  0
  4  2  1  0
  6  5  1  0
  7  6  1  0
  8 10  1  0
  8  7  1  0
  8  9  1  6
 10 11  2  0
 13 12  1  1
 13 15  1  0
 14 13  1  0
 15 16  1  6
 16 10  1  0
 17 15  1  0
 17 18  2  0
 19 17  1  0
 20 19  1  0
 20 27  1  0
 20 21  1  1
 22 26  1  0
 22 21  1  0
 23 22  2  0
 24 23  1  0
 24 25  1  0
 25 26  2  0
 27 29  2  0
 27 28  1  0
M  END
$$$$
