RVH.pdb
     RDKit          3D

 29 29  0  0  1  0  0  0  0  0999 V2000
   19.4970  -12.2675    5.5465 N   0  0  0  0  0  0  0  0  0  0  0  0
   18.3482  -12.6415    4.7975 C   0  0  0  0  0  0  0  0  0  0  0  0
   17.7018  -11.7733    4.1017 N   0  0  0  0  0  0  0  0  0  0  0  0
   17.9075  -13.9973    4.8198 N   0  0  0  0  0  0  0  0  0  0  0  0
   18.6160  -15.0238    5.6024 C   0  0  0  0  0  0  0  0  0  0  0  0
   17.9228  -16.3115    5.3246 C   0  0  0  0  0  0  0  0  0  0  0  0
   18.3654  -17.0728    4.1224 C   0  0  0  0  0  0  0  0  0  0  0  0
   17.6406  -18.3603    3.9534 C   0  0  2  0  0  0  0  0  0  0  0  0
   16.1982  -18.1309    4.0210 N   0  0  0  0  0  0  0  0  0  0  0  0
   17.9325  -19.3180    5.0716 C   0  0  0  0  0  0  0  0  0  0  0  0
   17.1086  -19.5432    5.9914 O   0  0  0  0  0  0  0  0  0  0  0  0
   16.8407  -12.0243    3.5703 C   0  0  0  0  0  0  0  0  0  0  0  0
   18.9041  -22.8946    4.7286 C   0  0  1  0  0  0  0  0  0  0  0  0
   19.9305  -22.2138    5.5578 C   0  0  0  0  0  0  0  0  0  0  0  0
   20.4970  -23.2211    6.5361 C   0  0  2  0  0  0  0  0  0  0  0  0
   19.5079  -20.9421    6.2286 N   0  0  0  0  0  0  0  0  0  0  0  0
   19.1659  -20.0208    5.1413 C   0  0  0  0  0  0  0  0  0  0  0  0
   20.5471  -20.3387    7.0970 O   0  0  0  0  0  0  0  0  0  0  0  0
   21.6536  -19.9307    6.5979 N   0  0  0  0  0  0  0  0  0  0  0  0
   20.3885  -20.1767    8.4951 C   0  0  1  0  0  0  0  0  0  0  0  0
   21.4680  -19.7232    9.3518 C   0  0  0  0  0  0  0  0  0  0  0  0
   21.0681  -18.4949   10.1142 C   0  0  0  0  0  0  0  0  0  0  0  0
   21.3910  -17.2223    9.4161 C   0  0  0  0  0  0  0  0  0  0  0  0
   21.9527  -17.0705    8.1666 N   0  0  0  0  0  0  0  0  0  0  0  0
   22.0749  -15.7597    7.9177 C   0  0  0  0  0  0  0  0  0  0  0  0
   21.6047  -15.0999    8.9778 N   0  0  0  0  0  0  0  0  0  0  0  0
   21.1886  -15.9889    9.8896 C   0  0  0  0  0  0  0  0  0  0  0  0
   21.8830  -20.7809   10.3092 O   0  0  0  0  0  0  0  0  0  0  0  0
   22.9339  -20.5794   11.1591 O   0  0  0  0  0  0  0  0  0  0  0  0
  1  2  1  0
  2  3  2  0
  4  5  1  0
  4  2  1  0
  6  5  1  0
  7  6  1  0
  8 10  1  0
  8  7  1  0
  8  9  1  1
 10 11  2  0
 13 12  1  6
 13 15  1  0
 14 13  1  0
 15 16  1  1
 16 10  1  0
 17 15  1  0
 17 18  2  0
 19 17  1  0
 20 19  1  0
 20 27  1  0
 20 21  1  1
 22 26  1  0
 22 21  1  0
 23 22  2  0
 24 23  1  0
 24 25  1  0
 25 26  2  0
 27 29  2  0
 27 28  1  0
M  END
$$$$
