RVH.pdb
     RDKit          3D

 29 29  0  0  1  0  0  0  0  0999 V2000
   22.9610  -25.2395  -15.5688 N   0  0  0  0  0  0  0  0  0  0  0  0
   24.1735  -25.9809  -15.5951 C   0  0  0  0  0  0  0  0  0  0  0  0
   24.1607  -27.2674  -15.6226 N   0  0  0  0  0  0  0  0  0  0  0  0
   25.4195  -25.2880  -15.5901 N   0  0  0  0  0  0  0  0  0  0  0  0
   25.4819  -23.8172  -15.6253 C   0  0  0  0  0  0  0  0  0  0  0  0
   24.7319  -23.3397  -14.4314 C   0  0  0  0  0  0  0  0  0  0  0  0
   24.6082  -21.8651  -14.2550 C   0  0  0  0  0  0  0  0  0  0  0  0
   25.8687  -21.2305  -13.7861 C   0  0  2  0  0  0  0  0  0  0  0  0
   26.1828  -21.6895  -12.4340 N   0  0  0  0  0  0  0  0  0  0  0  0
   25.7345  -19.7403  -13.6669 C   0  0  0  0  0  0  0  0  0  0  0  0
   26.4333  -19.0675  -12.8703 O   0  0  0  0  0  0  0  0  0  0  0  0
   25.0403  -27.8264  -15.6466 C   0  0  0  0  0  0  0  0  0  0  0  0
   27.5123  -17.9383  -14.7479 C   0  0  2  0  0  0  0  0  0  0  0  0
   26.3221  -17.5897  -15.5642 C   0  0  0  0  0  0  0  0  0  0  0  0
   26.5832  -16.2621  -16.2437 C   0  0  2  0  0  0  0  0  0  0  0  0
   24.9998  -17.6199  -14.8597 N   0  0  0  0  0  0  0  0  0  0  0  0
   24.8021  -19.0155  -14.4578 C   0  0  0  0  0  0  0  0  0  0  0  0
   23.8587  -17.1644  -15.6893 O   0  0  0  0  0  0  0  0  0  0  0  0
   23.6632  -17.6609  -16.8535 N   0  0  0  0  0  0  0  0  0  0  0  0
   22.9351  -16.1797  -15.2607 C   0  0  1  0  0  0  0  0  0  0  0  0
   21.4997  -16.3822  -15.3221 C   0  0  0  0  0  0  0  0  0  0  0  0
   20.8305  -15.8574  -14.0866 C   0  0  0  0  0  0  0  0  0  0  0  0
   19.3473  -15.9593  -14.1169 C   0  0  0  0  0  0  0  0  0  0  0  0
   18.5575  -16.3896  -15.1613 N   0  0  0  0  0  0  0  0  0  0  0  0
   17.2767  -16.3257  -14.7732 C   0  0  0  0  0  0  0  0  0  0  0  0
   17.2550  -15.8684  -13.5199 N   0  0  0  0  0  0  0  0  0  0  0  0
   18.5141  -15.6453  -13.1201 C   0  0  0  0  0  0  0  0  0  0  0  0
   20.9088  -15.7250  -16.5165 O   0  0  0  0  0  0  0  0  0  0  0  0
   19.7103  -16.1439  -17.0220 O   0  0  0  0  0  0  0  0  0  0  0  0
  1  2  1  0
  2  3  2  0
  4  5  1  0
  4  2  1  0
  6  5  1  0
  7  6  1  0
  8 10  1  0
  8  7  1  0
  8  9  1  1
 10 11  2  0
 13 12  1  6
 13 15  1  0
 14 13  1  0
 15 16  1  1
 16 10  1  0
 17 15  1  0
 17 18  2  0
 19 17  1  0
 20 19  1  0
 20 27  1  0
 20 21  1  6
 22 26  1  0
 22 21  1  0
 23 22  2  0
 24 23  1  0
 24 25  1  0
 25 26  2  0
 27 29  2  0
 27 28  1  0
M  END
$$$$
