RVH.pdb
     RDKit          3D

 29 29  0  0  1  0  0  0  0  0999 V2000
   34.3138  -24.9026  -13.2414 N   0  0  0  0  0  0  0  0  0  0  0  0
   33.7866  -25.0893  -14.5483 C   0  0  0  0  0  0  0  0  0  0  0  0
   34.5131  -25.5813  -15.4896 N   0  0  0  0  0  0  0  0  0  0  0  0
   32.4348  -24.7249  -14.8177 N   0  0  0  0  0  0  0  0  0  0  0  0
   31.8389  -24.9117  -16.1512 C   0  0  0  0  0  0  0  0  0  0  0  0
   31.3681  -23.5690  -16.5888 C   0  0  0  0  0  0  0  0  0  0  0  0
   29.9070  -23.2958  -16.4808 C   0  0  0  0  0  0  0  0  0  0  0  0
   29.0949  -24.1082  -17.4251 C   0  0  2  0  0  0  0  0  0  0  0  0
   29.6759  -24.0408  -18.7651 N   0  0  0  0  0  0  0  0  0  0  0  0
   27.7045  -23.5641  -17.5790 C   0  0  0  0  0  0  0  0  0  0  0  0
   27.3322  -22.9642  -18.6167 O   0  0  0  0  0  0  0  0  0  0  0  0
   35.4978  -25.8815  -15.3253 C   0  0  0  0  0  0  0  0  0  0  0  0
   23.1075  -24.5747  -16.8452 C   0  0  1  0  0  0  0  0  0  0  0  0
   24.5877  -24.6554  -16.7627 C   0  0  0  0  0  0  0  0  0  0  0  0
   24.9512  -25.5649  -15.6081 C   0  0  2  0  0  0  0  0  0  0  0  0
   25.3239  -23.3510  -16.7153 N   0  0  0  0  0  0  0  0  0  0  0  0
   26.7364  -23.7045  -16.5478 C   0  0  0  0  0  0  0  0  0  0  0  0
   24.8932  -22.4495  -15.6199 O   0  0  0  0  0  0  0  0  0  0  0  0
   24.8129  -22.8815  -14.4170 N   0  0  0  0  0  0  0  0  0  0  0  0
   24.5535  -21.0898  -15.8254 C   0  0  1  0  0  0  0  0  0  0  0  0
   24.0469  -20.2463  -14.7592 C   0  0  0  0  0  0  0  0  0  0  0  0
   24.0101  -18.8083  -15.1843 C   0  0  0  0  0  0  0  0  0  0  0  0
   25.3287  -18.2760  -15.6190 C   0  0  0  0  0  0  0  0  0  0  0  0
   26.5623  -18.8742  -15.4777 N   0  0  0  0  0  0  0  0  0  0  0  0
   27.4869  -18.0590  -16.0030 C   0  0  0  0  0  0  0  0  0  0  0  0
   26.8581  -16.9760  -16.4635 N   0  0  0  0  0  0  0  0  0  0  0  0
   25.5454  -17.1073  -16.2303 C   0  0  0  0  0  0  0  0  0  0  0  0
   22.6869  -20.6666  -14.3333 O   0  0  0  0  0  0  0  0  0  0  0  0
   22.1564  -20.2226  -13.1548 O   0  0  0  0  0  0  0  0  0  0  0  0
  1  2  1  0
  2  3  2  0
  4  5  1  0
  4  2  1  0
  6  5  1  0
  7  6  1  0
  8 10  1  0
  8  7  1  0
  8  9  1  6
 10 11  2  0
 13 12  1  6
 13 15  1  0
 14 13  1  0
 15 16  1  1
 16 10  1  0
 17 15  1  0
 17 18  2  0
 19 17  1  0
 20 19  1  0
 20 27  1  0
 20 21  1  1
 22 26  1  0
 22 21  1  0
 23 22  2  0
 24 23  1  0
 24 25  1  0
 25 26  2  0
 27 29  2  0
 27 28  1  0
M  END
$$$$
