RVH.pdb
     RDKit          3D

 29 29  0  0  1  0  0  0  0  0999 V2000
   31.8391  -24.2164  -15.2533 N   0  0  0  0  0  0  0  0  0  0  0  0
   31.4903  -24.7615  -16.5188 C   0  0  0  0  0  0  0  0  0  0  0  0
   31.6653  -26.0113  -16.7707 N   0  0  0  0  0  0  0  0  0  0  0  0
   30.9402  -23.9102  -17.5215 N   0  0  0  0  0  0  0  0  0  0  0  0
   30.2864  -22.6370  -17.1757 C   0  0  0  0  0  0  0  0  0  0  0  0
   29.3197  -22.9473  -16.0871 C   0  0  0  0  0  0  0  0  0  0  0  0
   27.8898  -23.1050  -16.4764 C   0  0  0  0  0  0  0  0  0  0  0  0
   27.0565  -21.9300  -16.1073 C   0  0  2  0  0  0  0  0  0  0  0  0
   27.9149  -20.8289  -15.6731 N   0  0  0  0  0  0  0  0  0  0  0  0
   26.1725  -22.2186  -14.9292 C   0  0  0  0  0  0  0  0  0  0  0  0
   25.3619  -23.1769  -14.9201 O   0  0  0  0  0  0  0  0  0  0  0  0
   31.4378  -26.4225  -17.7012 C   0  0  0  0  0  0  0  0  0  0  0  0
   27.1742  -21.5121  -11.0019 C   0  0  1  0  0  0  0  0  0  0  0  0
   25.9104  -20.8944  -11.4769 C   0  0  0  0  0  0  0  0  0  0  0  0
   24.9717  -20.7625  -10.2961 C   0  0  2  0  0  0  0  0  0  0  0  0
   25.2546  -21.5440  -12.6574 N   0  0  0  0  0  0  0  0  0  0  0  0
   26.2128  -21.4133  -13.7587 C   0  0  0  0  0  0  0  0  0  0  0  0
   23.9561  -20.9395  -13.0402 O   0  0  0  0  0  0  0  0  0  0  0  0
   23.8801  -19.6948  -13.3316 N   0  0  0  0  0  0  0  0  0  0  0  0
   22.7492  -21.6778  -13.1087 C   0  0  1  0  0  0  0  0  0  0  0  0
   21.4740  -21.0551  -13.4104 C   0  0  0  0  0  0  0  0  0  0  0  0
   20.6071  -21.9727  -14.2206 C   0  0  0  0  0  0  0  0  0  0  0  0
   19.2647  -21.4134  -14.5306 C   0  0  0  0  0  0  0  0  0  0  0  0
   18.7646  -20.1820  -14.1656 N   0  0  0  0  0  0  0  0  0  0  0  0
   17.5187  -20.0754  -14.6466 C   0  0  0  0  0  0  0  0  0  0  0  0
   17.2371  -21.2057  -15.2973 N   0  0  0  0  0  0  0  0  0  0  0  0
   18.2985  -22.0200  -15.2271 C   0  0  0  0  0  0  0  0  0  0  0  0
   20.7524  -20.6663  -12.1711 O   0  0  0  0  0  0  0  0  0  0  0  0
   19.9306  -19.5746  -12.1555 O   0  0  0  0  0  0  0  0  0  0  0  0
  1  2  1  0
  2  3  2  0
  4  5  1  0
  4  2  1  0
  6  5  1  0
  7  6  1  0
  8 10  1  0
  8  7  1  0
  8  9  1  1
 10 11  2  0
 13 12  1  1
 13 15  1  0
 14 13  1  0
 15 16  1  1
 16 10  1  0
 17 15  1  0
 17 18  2  0
 19 17  1  0
 20 19  1  0
 20 27  1  0
 20 21  1  1
 22 26  1  0
 22 21  1  0
 23 22  2  0
 24 23  1  0
 24 25  1  0
 25 26  2  0
 27 29  2  0
 27 28  1  0
M  END
$$$$
