RVH.pdb
     RDKit          3D

 29 29  0  0  1  0  0  0  0  0999 V2000
   24.4643  -12.3265  -17.4201 N   0  0  0  0  0  0  0  0  0  0  0  0
   23.7163  -13.5335  -17.4843 C   0  0  0  0  0  0  0  0  0  0  0  0
   22.7520  -13.6692  -18.3254 N   0  0  0  0  0  0  0  0  0  0  0  0
   24.0400  -14.6067  -16.6032 N   0  0  0  0  0  0  0  0  0  0  0  0
   25.1064  -14.4800  -15.5957 C   0  0  0  0  0  0  0  0  0  0  0  0
   26.1794  -15.4278  -16.0035 C   0  0  0  0  0  0  0  0  0  0  0  0
   25.8425  -16.8794  -15.9861 C   0  0  0  0  0  0  0  0  0  0  0  0
   27.0114  -17.7484  -16.2863 C   0  0  2  0  0  0  0  0  0  0  0  0
   26.9158  -18.2544  -17.6547 N   0  0  0  0  0  0  0  0  0  0  0  0
   27.0337  -18.9751  -15.4215 C   0  0  0  0  0  0  0  0  0  0  0  0
   26.4462  -20.0348  -15.7488 O   0  0  0  0  0  0  0  0  0  0  0  0
   22.2025  -14.5524  -18.3952 C   0  0  0  0  0  0  0  0  0  0  0  0
   29.9859  -20.7550  -13.6402 C   0  0  1  0  0  0  0  0  0  0  0  0
   28.9661  -20.3046  -12.6597 C   0  0  0  0  0  0  0  0  0  0  0  0
   28.9740  -21.2652  -11.4894 C   0  0  2  0  0  0  0  0  0  0  0  0
   27.5864  -20.0688  -13.1951 N   0  0  0  0  0  0  0  0  0  0  0  0
   27.7276  -18.9937  -14.1812 C   0  0  0  0  0  0  0  0  0  0  0  0
   26.5920  -19.6849  -12.1647 O   0  0  0  0  0  0  0  0  0  0  0  0
   26.1773  -18.4761  -12.0810 N   0  0  0  0  0  0  0  0  0  0  0  0
   26.0494  -20.6034  -11.2330 C   0  0  1  0  0  0  0  0  0  0  0  0
   24.6902  -20.4950  -10.7371 C   0  0  0  0  0  0  0  0  0  0  0  0
   23.7039  -20.5121  -11.8670 C   0  0  0  0  0  0  0  0  0  0  0  0
   22.2919  -20.3367  -11.4350 C   0  0  0  0  0  0  0  0  0  0  0  0
   21.8137  -19.4963  -10.4528 N   0  0  0  0  0  0  0  0  0  0  0  0
   20.4842  -19.6462  -10.3826 C   0  0  0  0  0  0  0  0  0  0  0  0
   20.1298  -20.5547  -11.2932 N   0  0  0  0  0  0  0  0  0  0  0  0
   21.2288  -20.9752  -11.9336 C   0  0  0  0  0  0  0  0  0  0  0  0
   24.3686  -21.5928   -9.7889 O   0  0  0  0  0  0  0  0  0  0  0  0
   25.0709  -22.7647   -9.8140 O   0  0  0  0  0  0  0  0  0  0  0  0
  1  2  1  0
  2  3  2  0
  4  5  1  0
  4  2  1  0
  6  5  1  0
  7  6  1  0
  8 10  1  0
  8  7  1  0
  8  9  1  6
 10 11  2  0
 13 12  1  1
 13 15  1  0
 14 13  1  0
 15 16  1  6
 16 10  1  0
 17 15  1  0
 17 18  2  0
 19 17  1  0
 20 19  1  0
 20 27  1  0
 20 21  1  1
 22 26  1  0
 22 21  1  0
 23 22  2  0
 24 23  1  0
 24 25  1  0
 25 26  2  0
 27 29  2  0
 27 28  1  0
M  END
$$$$
