RVH.pdb
     RDKit          3D

 29 29  0  0  1  0  0  0  0  0999 V2000
   28.7740  -26.5247  -16.7230 N   0  0  0  0  0  0  0  0  0  0  0  0
   27.5440  -27.2304  -16.8215 C   0  0  0  0  0  0  0  0  0  0  0  0
   27.4611  -28.4656  -16.4705 N   0  0  0  0  0  0  0  0  0  0  0  0
   26.3881  -26.5589  -17.3172 N   0  0  0  0  0  0  0  0  0  0  0  0
   26.3399  -25.0915  -17.4300 C   0  0  0  0  0  0  0  0  0  0  0  0
   26.5630  -24.5607  -16.0573 C   0  0  0  0  0  0  0  0  0  0  0  0
   25.4227  -23.8494  -15.4132 C   0  0  0  0  0  0  0  0  0  0  0  0
   25.3605  -22.4085  -15.7757 C   0  0  2  0  0  0  0  0  0  0  0  0
   26.6864  -21.8061  -15.6468 N   0  0  0  0  0  0  0  0  0  0  0  0
   24.4895  -21.6311  -14.8322 C   0  0  0  0  0  0  0  0  0  0  0  0
   24.9303  -21.1440  -13.7627 O   0  0  0  0  0  0  0  0  0  0  0  0
   26.5839  -29.0152  -16.5933 C   0  0  0  0  0  0  0  0  0  0  0  0
   22.6170  -18.5022  -15.4658 C   0  0  1  0  0  0  0  0  0  0  0  0
   21.6585  -19.5519  -15.0370 C   0  0  0  0  0  0  0  0  0  0  0  0
   20.4807  -18.8762  -14.3671 C   0  0  2  0  0  0  0  0  0  0  0  0
   22.2205  -20.6692  -14.2116 N   0  0  0  0  0  0  0  0  0  0  0  0
   23.1133  -21.4082  -15.1089 C   0  0  0  0  0  0  0  0  0  0  0  0
   21.1976  -21.5827  -13.6482 O   0  0  0  0  0  0  0  0  0  0  0  0
   20.5036  -22.3344  -14.4185 N   0  0  0  0  0  0  0  0  0  0  0  0
   20.9296  -21.6827  -12.2610 C   0  0  1  0  0  0  0  0  0  0  0  0
   19.9314  -22.5897  -11.7264 C   0  0  0  0  0  0  0  0  0  0  0  0
   20.1598  -22.8378  -10.2648 C   0  0  0  0  0  0  0  0  0  0  0  0
   19.1143  -23.6817   -9.6278 C   0  0  0  0  0  0  0  0  0  0  0  0
   17.9778  -24.1946  -10.2151 N   0  0  0  0  0  0  0  0  0  0  0  0
   17.3084  -24.8974   -9.2915 C   0  0  0  0  0  0  0  0  0  0  0  0
   17.9999  -24.8321   -8.1523 N   0  0  0  0  0  0  0  0  0  0  0  0
   19.0984  -24.0927   -8.3560 C   0  0  0  0  0  0  0  0  0  0  0  0
   18.5563  -22.0629  -11.9252 O   0  0  0  0  0  0  0  0  0  0  0  0
   17.5530  -22.8799  -12.3648 O   0  0  0  0  0  0  0  0  0  0  0  0
  1  2  1  0
  2  3  2  0
  4  5  1  0
  4  2  1  0
  6  5  1  0
  7  6  1  0
  8 10  1  0
  8  7  1  0
  8  9  1  1
 10 11  2  0
 13 12  1  6
 13 15  1  0
 14 13  1  0
 15 16  1  1
 16 10  1  0
 17 15  1  0
 17 18  2  0
 19 17  1  0
 20 19  1  0
 20 27  1  0
 20 21  1  6
 22 26  1  0
 22 21  1  0
 23 22  2  0
 24 23  1  0
 24 25  1  0
 25 26  2  0
 27 29  2  0
 27 28  1  0
M  END
$$$$
