RVH.pdb
     RDKit          3D

 29 29  0  0  1  0  0  0  0  0999 V2000
   25.0737  -27.3836  -15.4331 N   0  0  0  0  0  0  0  0  0  0  0  0
   23.9489  -27.0990  -16.2544 C   0  0  0  0  0  0  0  0  0  0  0  0
   23.2407  -28.0487  -16.7568 N   0  0  0  0  0  0  0  0  0  0  0  0
   23.6033  -25.7425  -16.5245 N   0  0  0  0  0  0  0  0  0  0  0  0
   24.6348  -24.7096  -16.7181 C   0  0  0  0  0  0  0  0  0  0  0  0
   25.2323  -24.4614  -15.3775 C   0  0  0  0  0  0  0  0  0  0  0  0
   24.8006  -23.2273  -14.6621 C   0  0  0  0  0  0  0  0  0  0  0  0
   24.6016  -22.0694  -15.5738 C   0  0  2  0  0  0  0  0  0  0  0  0
   25.8960  -21.4936  -15.9353 N   0  0  0  0  0  0  0  0  0  0  0  0
   23.8548  -20.9523  -14.9051 C   0  0  0  0  0  0  0  0  0  0  0  0
   24.4435  -19.9964  -14.3437 O   0  0  0  0  0  0  0  0  0  0  0  0
   22.4238  -27.8580  -17.3757 C   0  0  0  0  0  0  0  0  0  0  0  0
   21.7890  -18.6168  -16.5851 C   0  0  1  0  0  0  0  0  0  0  0  0
   22.1023  -18.6027  -15.1339 C   0  0  0  0  0  0  0  0  0  0  0  0
   23.5801  -18.3172  -14.9687 C   0  0  1  0  0  0  0  0  0  0  0  0
   21.6606  -19.7984  -14.3459 N   0  0  0  0  0  0  0  0  0  0  0  0
   22.4341  -20.9246  -14.8767 C   0  0  0  0  0  0  0  0  0  0  0  0
   20.2100  -20.0885  -14.4433 O   0  0  0  0  0  0  0  0  0  0  0  0
   19.7108  -20.5462  -15.5302 N   0  0  0  0  0  0  0  0  0  0  0  0
   19.3069  -19.8860  -13.3711 C   0  0  1  0  0  0  0  0  0  0  0  0
   17.8820  -20.1271  -13.4998 C   0  0  0  0  0  0  0  0  0  0  0  0
   17.2883  -20.5477  -12.1881 C   0  0  0  0  0  0  0  0  0  0  0  0
   17.7127  -21.9014  -11.7427 C   0  0  0  0  0  0  0  0  0  0  0  0
   18.5863  -22.7576  -12.3778 N   0  0  0  0  0  0  0  0  0  0  0  0
   18.6915  -23.8722  -11.6418 C   0  0  0  0  0  0  0  0  0  0  0  0
   17.9078  -23.7271  -10.5717 N   0  0  0  0  0  0  0  0  0  0  0  0
   17.3121  -22.5286  -10.6324 C   0  0  0  0  0  0  0  0  0  0  0  0
   17.1695  -18.9215  -13.9963 O   0  0  0  0  0  0  0  0  0  0  0  0
   17.5937  -17.6690  -13.6516 O   0  0  0  0  0  0  0  0  0  0  0  0
  1  2  1  0
  2  3  2  0
  4  5  1  0
  4  2  1  0
  6  5  1  0
  7  6  1  0
  8 10  1  0
  8  7  1  0
  8  9  1  1
 10 11  2  0
 13 12  1  1
 13 15  1  0
 14 13  1  0
 15 16  1  6
 16 10  1  0
 17 15  1  0
 17 18  2  0
 19 17  1  0
 20 19  1  0
 20 27  1  0
 20 21  1  6
 22 26  1  0
 22 21  1  0
 23 22  2  0
 24 23  1  0
 24 25  1  0
 25 26  2  0
 27 29  2  0
 27 28  1  0
M  END
$$$$
