RVH.pdb
     RDKit          3D

 29 29  0  0  1  0  0  0  0  0999 V2000
   38.2101  -35.2161  -17.6497 N   0  0  0  0  0  0  0  0  0  0  0  0
   37.8863  -36.2153  -16.6921 C   0  0  0  0  0  0  0  0  0  0  0  0
   38.6387  -37.2472  -16.5338 N   0  0  0  0  0  0  0  0  0  0  0  0
   36.7111  -36.0708  -15.8978 N   0  0  0  0  0  0  0  0  0  0  0  0
   35.8187  -34.9093  -16.0486 C   0  0  0  0  0  0  0  0  0  0  0  0
   36.2396  -33.9238  -15.0154 C   0  0  0  0  0  0  0  0  0  0  0  0
   35.3985  -32.7031  -14.8621 C   0  0  0  0  0  0  0  0  0  0  0  0
   35.8658  -31.5689  -15.7028 C   0  0  2  0  0  0  0  0  0  0  0  0
   36.7030  -30.6726  -14.9070 N   0  0  0  0  0  0  0  0  0  0  0  0
   34.7252  -30.7149  -16.1747 C   0  0  0  0  0  0  0  0  0  0  0  0
   34.2645  -29.7733  -15.4844 O   0  0  0  0  0  0  0  0  0  0  0  0
   38.4465  -37.9612  -15.7989 C   0  0  0  0  0  0  0  0  0  0  0  0
   32.2856  -28.9506  -20.0348 C   0  0  1  0  0  0  0  0  0  0  0  0
   33.3344  -29.6816  -19.2798 C   0  0  0  0  0  0  0  0  0  0  0  0
   33.8669  -30.7930  -20.1594 C   0  0  2  0  0  0  0  0  0  0  0  0
   32.9549  -30.1672  -17.9138 N   0  0  0  0  0  0  0  0  0  0  0  0
   34.1089  -30.9345  -17.4365 C   0  0  0  0  0  0  0  0  0  0  0  0
   31.7370  -31.0123  -17.8858 O   0  0  0  0  0  0  0  0  0  0  0  0
   31.7594  -32.1997  -18.3650 N   0  0  0  0  0  0  0  0  0  0  0  0
   30.5045  -30.5753  -17.3415 C   0  0  1  0  0  0  0  0  0  0  0  0
   29.3214  -31.4150  -17.3255 C   0  0  0  0  0  0  0  0  0  0  0  0
   28.3298  -30.9256  -16.3121 C   0  0  0  0  0  0  0  0  0  0  0  0
   27.1059  -31.7645  -16.2149 C   0  0  0  0  0  0  0  0  0  0  0  0
   26.8324  -32.9308  -16.8964 N   0  0  0  0  0  0  0  0  0  0  0  0
   25.6229  -33.3650  -16.5172 C   0  0  0  0  0  0  0  0  0  0  0  0
   25.1437  -32.4996  -15.6218 N   0  0  0  0  0  0  0  0  0  0  0  0
   26.0451  -31.5258  -15.4374 C   0  0  0  0  0  0  0  0  0  0  0  0
   28.6728  -31.4655  -18.6614 O   0  0  0  0  0  0  0  0  0  0  0  0
   28.4837  -30.3242  -19.3887 O   0  0  0  0  0  0  0  0  0  0  0  0
  1  2  1  0
  2  3  2  0
  4  5  1  0
  4  2  1  0
  6  5  1  0
  7  6  1  0
  8 10  1  0
  8  7  1  0
  8  9  1  1
 10 11  2  0
 13 12  1  6
 13 15  1  0
 14 13  1  0
 15 16  1  1
 16 10  1  0
 17 15  1  0
 17 18  2  0
 19 17  1  0
 20 19  1  0
 20 27  1  0
 20 21  1  6
 22 26  1  0
 22 21  1  0
 23 22  2  0
 24 23  1  0
 24 25  1  0
 25 26  2  0
 27 29  2  0
 27 28  1  0
M  END
$$$$
