RPA.pdb
     RDKit          3D

 24 24  0  0  1  0  0  0  0  0999 V2000
    8.4332  -19.1310   23.6972 N   0  0  0  0  0  0  0  0  0  0  0  0
    7.3241  -19.9730   23.9295 C   0  0  0  0  0  0  0  0  0  0  0  0
    7.3975  -20.9898   24.7081 N   0  0  0  0  0  0  0  0  0  0  0  0
    6.0610  -19.7007   23.2821 N   0  0  0  0  0  0  0  0  0  0  0  0
    6.0523  -18.6671   22.2956 C   0  0  0  0  0  0  0  0  0  0  0  0
    6.4789  -19.0135   20.9229 C   0  0  0  0  0  0  0  0  0  0  0  0
    6.5597  -17.9414   19.9014 C   0  0  0  0  0  0  0  0  0  0  0  0
    7.8862  -17.4288   19.4942 C   0  0  2  0  0  0  0  0  0  0  0  0
    8.6772  -18.4889   19.0054 N   0  0  0  0  0  0  0  0  0  0  0  0
    8.5011  -16.7254   20.6625 C   0  0  0  0  0  0  0  0  0  0  0  0
    9.6105  -17.2449   21.0509 O   0  0  0  0  0  0  0  0  0  0  0  0
    6.5682  -21.5836   24.8995 N   0  0  0  0  0  0  0  0  0  0  0  0
    7.9968  -15.6095   21.3313 C   0  0  0  0  0  0  0  0  0  0  0  0
    6.7747  -14.8671   21.2420 C   0  0  0  0  0  0  0  0  0  0  0  0
    7.3109  -13.4464   21.1181 C   0  0  0  0  0  0  0  0  0  0  0  0
    8.3852  -13.4407   22.1850 C   0  0  2  0  0  0  0  0  0  0  0  0
    8.7340  -14.9012   22.3937 C   0  0  0  0  0  0  0  0  0  0  0  0
    8.2460  -15.3437   23.7318 O   0  0  0  0  0  0  0  0  0  0  0  0
    7.0501  -15.5880   24.0002 C   0  0  0  0  0  0  0  0  0  0  0  0
    9.6903  -17.8701   25.1862 C   0  0  2  0  0  0  0  0  0  0  0  0
    9.1369  -16.5824   25.7506 N   0  0  0  0  0  0  0  0  0  0  0  0
    9.1910  -15.5031   24.7834 C   0  0  0  0  0  0  0  0  0  0  0  0
    9.9192  -16.1712   26.9361 O   0  0  0  0  0  0  0  0  0  0  0  0
   10.6127  -15.1077   26.8755 O   0  0  0  0  0  0  0  0  0  0  0  0
  2  1  1  0
  2  3  2  0
  4  2  1  0
  5  4  1  0
  6  5  1  0
  7  6  1  0
  8 10  1  0
  8  7  1  0
  8  9  1  1
 10 12  1  0
 11 10  2  0
 12 13  1  0
 12 16  1  0
 13 14  1  0
 15 14  1  0
 16 15  1  0
 17 21  1  0
 16 17  1  1
 18 17  2  0
 20 19  1  6
 20 21  1  0
 22 20  1  0
 22 24  1  0
 23 22  2  0
M  END
$$$$
