RPA.pdb
     RDKit          3D

 24 24  0  0  1  0  0  0  0  0999 V2000
    7.3302  -12.7279   18.2727 N   0  0  0  0  0  0  0  0  0  0  0  0
    7.5174  -13.8330   17.4142 C   0  0  0  0  0  0  0  0  0  0  0  0
    7.8059  -13.6847   16.1731 N   0  0  0  0  0  0  0  0  0  0  0  0
    7.3848  -15.1778   17.9267 N   0  0  0  0  0  0  0  0  0  0  0  0
    7.1983  -15.3144   19.3367 C   0  0  0  0  0  0  0  0  0  0  0  0
    7.1773  -14.0844   20.1570 C   0  0  0  0  0  0  0  0  0  0  0  0
    7.4089  -14.1887   21.6181 C   0  0  0  0  0  0  0  0  0  0  0  0
    8.6455  -13.6195   22.1968 C   0  0  2  0  0  0  0  0  0  0  0  0
    9.7485  -13.9493   21.3826 N   0  0  0  0  0  0  0  0  0  0  0  0
    8.7821  -14.1142   23.6020 C   0  0  0  0  0  0  0  0  0  0  0  0
    9.8567  -14.7880   23.8086 O   0  0  0  0  0  0  0  0  0  0  0  0
    8.0074  -14.5011   15.5649 N   0  0  0  0  0  0  0  0  0  0  0  0
    7.8864  -13.9153   24.6531 C   0  0  0  0  0  0  0  0  0  0  0  0
    6.5043  -13.5440   24.7229 C   0  0  0  0  0  0  0  0  0  0  0  0
    6.5648  -12.4029   25.7305 C   0  0  0  0  0  0  0  0  0  0  0  0
    7.4766  -12.9887   26.7878 C   0  0  1  0  0  0  0  0  0  0  0  0
    8.2553  -14.0746   26.0717 C   0  0  0  0  0  0  0  0  0  0  0  0
    7.8134  -15.4114   26.5640 O   0  0  0  0  0  0  0  0  0  0  0  0
    6.6323  -15.8186   26.5331 C   0  0  0  0  0  0  0  0  0  0  0  0
    9.0716  -18.6320   26.4248 C   0  0  2  0  0  0  0  0  0  0  0  0
    8.5130  -17.6753   27.4523 N   0  0  0  0  0  0  0  0  0  0  0  0
    8.7882  -16.2937   27.1079 C   0  0  0  0  0  0  0  0  0  0  0  0
    9.1164  -17.9437   28.7754 O   0  0  0  0  0  0  0  0  0  0  0  0
    8.9043  -19.0673   29.3306 O   0  0  0  0  0  0  0  0  0  0  0  0
  2  1  1  0
  2  3  2  0
  4  2  1  0
  5  4  1  0
  6  5  1  0
  7  6  1  0
  8 10  1  0
  8  7  1  0
  8  9  1  6
 10 12  1  0
 11 10  2  0
 12 13  1  0
 12 16  1  0
 13 14  1  0
 15 14  1  0
 16 15  1  0
 17 21  1  0
 16 17  1  1
 18 17  2  0
 20 19  1  6
 20 21  1  0
 22 20  1  0
 22 24  1  0
 23 22  2  0
M  END
$$$$
