RPA.pdb
     RDKit          3D

 24 24  0  0  1  0  0  0  0  0999 V2000
    7.8202  -14.9205   16.5995 N   0  0  0  0  0  0  0  0  0  0  0  0
    7.4056  -13.8975   17.4797 C   0  0  0  0  0  0  0  0  0  0  0  0
    8.0512  -12.7942   17.5871 N   0  0  0  0  0  0  0  0  0  0  0  0
    6.2240  -14.0771   18.2921 N   0  0  0  0  0  0  0  0  0  0  0  0
    6.3970  -13.9947   19.7081 C   0  0  0  0  0  0  0  0  0  0  0  0
    7.4363  -14.8419   20.3313 C   0  0  0  0  0  0  0  0  0  0  0  0
    7.6432  -14.7668   21.7980 C   0  0  0  0  0  0  0  0  0  0  0  0
    8.5620  -13.7461   22.3474 C   0  0  2  0  0  0  0  0  0  0  0  0
    9.6497  -13.5618   21.4693 N   0  0  0  0  0  0  0  0  0  0  0  0
    8.9785  -14.1733   23.7193 C   0  0  0  0  0  0  0  0  0  0  0  0
   10.1341  -14.7343   23.7553 O   0  0  0  0  0  0  0  0  0  0  0  0
    7.8556  -12.1277   18.3582 N   0  0  0  0  0  0  0  0  0  0  0  0
    8.2546  -14.0212   24.9022 C   0  0  0  0  0  0  0  0  0  0  0  0
    6.8763  -13.7627   25.1963 C   0  0  0  0  0  0  0  0  0  0  0  0
    7.0045  -12.5946   26.1660 C   0  0  0  0  0  0  0  0  0  0  0  0
    8.1244  -13.0760   27.0640 C   0  0  1  0  0  0  0  0  0  0  0  0
    8.8641  -14.1128   26.2416 C   0  0  0  0  0  0  0  0  0  0  0  0
    8.6249  -15.4680   26.8166 O   0  0  0  0  0  0  0  0  0  0  0  0
    7.5360  -16.0781   26.7533 C   0  0  0  0  0  0  0  0  0  0  0  0
   10.9576  -18.2104   27.2213 C   0  0  2  0  0  0  0  0  0  0  0  0
    9.7134  -17.5467   27.7640 N   0  0  0  0  0  0  0  0  0  0  0  0
    9.6964  -16.1238   27.4847 C   0  0  0  0  0  0  0  0  0  0  0  0
    9.6431  -17.7239   29.2304 O   0  0  0  0  0  0  0  0  0  0  0  0
    9.7008  -16.6964   29.9765 O   0  0  0  0  0  0  0  0  0  0  0  0
  2  1  1  0
  2  3  2  0
  4  2  1  0
  5  4  1  0
  6  5  1  0
  7  6  1  0
  8 10  1  0
  8  7  1  0
  8  9  1  6
 10 12  1  0
 11 10  2  0
 12 13  1  0
 12 16  1  0
 13 14  1  0
 15 14  1  0
 16 15  1  0
 17 21  1  0
 16 17  1  6
 18 17  2  0
 20 19  1  6
 20 21  1  0
 22 20  1  0
 22 24  1  0
 23 22  2  0
M  END
$$$$
