RPA.pdb
     RDKit          3D

 24 24  0  0  1  0  0  0  0  0999 V2000
    7.8076  -12.6235   17.5020 N   0  0  0  0  0  0  0  0  0  0  0  0
    7.7754  -14.0069   17.2223 C   0  0  0  0  0  0  0  0  0  0  0  0
    8.4243  -14.5138   16.2387 N   0  0  0  0  0  0  0  0  0  0  0  0
    6.9959  -14.8952   18.0541 N   0  0  0  0  0  0  0  0  0  0  0  0
    6.8336  -14.5191   19.4230 C   0  0  0  0  0  0  0  0  0  0  0  0
    8.0498  -14.3609   20.2489 C   0  0  0  0  0  0  0  0  0  0  0  0
    7.9056  -14.0444   21.6905 C   0  0  0  0  0  0  0  0  0  0  0  0
    9.1187  -13.9083   22.5260 C   0  0  2  0  0  0  0  0  0  0  0  0
   10.1948  -14.5869   21.9179 N   0  0  0  0  0  0  0  0  0  0  0  0
    8.8063  -14.4112   23.8998 C   0  0  0  0  0  0  0  0  0  0  0  0
    9.6588  -15.2653   24.3418 O   0  0  0  0  0  0  0  0  0  0  0  0
    8.4445  -15.5387   16.0767 N   0  0  0  0  0  0  0  0  0  0  0  0
    7.7226  -14.0489   24.7005 C   0  0  0  0  0  0  0  0  0  0  0  0
    6.4638  -13.4160   24.4402 C   0  0  0  0  0  0  0  0  0  0  0  0
    6.4733  -12.3156   25.4938 C   0  0  0  0  0  0  0  0  0  0  0  0
    6.9547  -13.0751   26.7118 C   0  0  1  0  0  0  0  0  0  0  0  0
    7.6755  -14.2870   26.1547 C   0  0  0  0  0  0  0  0  0  0  0  0
    6.8802  -15.5155   26.4426 O   0  0  0  0  0  0  0  0  0  0  0  0
    5.7419  -15.7425   25.9794 C   0  0  0  0  0  0  0  0  0  0  0  0
    7.5625  -18.3698   25.7118 C   0  0  2  0  0  0  0  0  0  0  0  0
    7.2327  -17.9284   27.1187 N   0  0  0  0  0  0  0  0  0  0  0  0
    7.4395  -16.5044   27.2991 C   0  0  0  0  0  0  0  0  0  0  0  0
    8.0935  -18.6400   28.0879 O   0  0  0  0  0  0  0  0  0  0  0  0
    7.9383  -19.8920   28.2434 O   0  0  0  0  0  0  0  0  0  0  0  0
  2  1  1  0
  2  3  2  0
  4  2  1  0
  5  4  1  0
  6  5  1  0
  7  6  1  0
  8 10  1  0
  8  7  1  0
  8  9  1  6
 10 12  1  0
 11 10  2  0
 12 13  1  0
 12 16  1  0
 13 14  1  0
 15 14  1  0
 16 15  1  0
 17 21  1  0
 16 17  1  1
 18 17  2  0
 20 19  1  6
 20 21  1  0
 22 20  1  0
 22 24  1  0
 23 22  2  0
M  END
$$$$
