RPA.pdb
     RDKit          3D

 24 24  0  0  1  0  0  0  0  0999 V2000
    6.3101  -19.3282   14.1198 N   0  0  0  0  0  0  0  0  0  0  0  0
    7.5598  -19.8618   14.5027 C   0  0  0  0  0  0  0  0  0  0  0  0
    8.4445  -20.2014   13.6381 N   0  0  0  0  0  0  0  0  0  0  0  0
    7.8723  -20.0393   15.9025 N   0  0  0  0  0  0  0  0  0  0  0  0
    6.8844  -19.6123   16.8424 C   0  0  0  0  0  0  0  0  0  0  0  0
    7.0828  -18.3109   17.5157 C   0  0  0  0  0  0  0  0  0  0  0  0
    8.4636  -17.8454   17.7914 C   0  0  0  0  0  0  0  0  0  0  0  0
    8.8646  -16.4839   17.3746 C   0  0  2  0  0  0  0  0  0  0  0  0
    9.7954  -16.5636   16.3184 N   0  0  0  0  0  0  0  0  0  0  0  0
    9.3929  -15.7585   18.5715 C   0  0  0  0  0  0  0  0  0  0  0  0
   10.6658  -15.8610   18.7155 O   0  0  0  0  0  0  0  0  0  0  0  0
    9.3812  -20.5400   13.9292 N   0  0  0  0  0  0  0  0  0  0  0  0
    8.6569  -15.0179   19.4970 C   0  0  0  0  0  0  0  0  0  0  0  0
    7.2670  -14.6973   19.6317 C   0  0  0  0  0  0  0  0  0  0  0  0
    7.3376  -13.1858   19.8095 C   0  0  0  0  0  0  0  0  0  0  0  0
    8.4736  -13.0565   20.8020 C   0  0  1  0  0  0  0  0  0  0  0  0
    9.2634  -14.3427   20.6590 C   0  0  0  0  0  0  0  0  0  0  0  0
    9.0826  -15.1768   21.8821 O   0  0  0  0  0  0  0  0  0  0  0  0
    8.0526  -15.8361   22.1395 C   0  0  0  0  0  0  0  0  0  0  0  0
   11.7144  -17.1034   23.0785 C   0  0  2  0  0  0  0  0  0  0  0  0
   10.4658  -16.4262   23.5937 N   0  0  0  0  0  0  0  0  0  0  0  0
   10.1431  -15.2371   22.8288 C   0  0  0  0  0  0  0  0  0  0  0  0
   10.6529  -16.0235   25.0042 O   0  0  0  0  0  0  0  0  0  0  0  0
   10.9536  -16.9122   25.8618 O   0  0  0  0  0  0  0  0  0  0  0  0
  2  1  1  0
  2  3  2  0
  4  2  1  0
  5  4  1  0
  6  5  1  0
  7  6  1  0
  8 10  1  0
  8  7  1  0
  8  9  1  6
 10 12  1  0
 11 10  2  0
 12 13  1  0
 12 16  1  0
 13 14  1  0
 15 14  1  0
 16 15  1  0
 17 21  1  0
 16 17  1  1
 18 17  2  0
 20 19  1  6
 20 21  1  0
 22 20  1  0
 22 24  1  0
 23 22  2  0
M  END
$$$$
