RPA.pdb
     RDKit          3D

 24 24  0  0  1  0  0  0  0  0999 V2000
    8.4183  -13.5077   15.9298 N   0  0  0  0  0  0  0  0  0  0  0  0
    8.6597  -13.5130   17.3207 C   0  0  0  0  0  0  0  0  0  0  0  0
    9.8413  -13.6464   17.8021 N   0  0  0  0  0  0  0  0  0  0  0  0
    7.5598  -13.3655   18.2465 N   0  0  0  0  0  0  0  0  0  0  0  0
    7.8503  -13.5720   19.6302 C   0  0  0  0  0  0  0  0  0  0  0  0
    7.9021  -14.9629   20.1291 C   0  0  0  0  0  0  0  0  0  0  0  0
    7.0102  -15.3619   21.2448 C   0  0  0  0  0  0  0  0  0  0  0  0
    7.0540  -16.7539   21.7434 C   0  0  2  0  0  0  0  0  0  0  0  0
    5.8113  -17.3806   21.5166 N   0  0  0  0  0  0  0  0  0  0  0  0
    7.4455  -16.7277   23.1870 C   0  0  0  0  0  0  0  0  0  0  0  0
    6.4818  -16.4123   23.9764 O   0  0  0  0  0  0  0  0  0  0  0  0
   10.0023  -13.7163   18.8249 N   0  0  0  0  0  0  0  0  0  0  0  0
    8.7049  -17.0032   23.7206 C   0  0  0  0  0  0  0  0  0  0  0  0
    9.9997  -17.2224   23.1474 C   0  0  0  0  0  0  0  0  0  0  0  0
   10.4020  -18.5203   23.8364 C   0  0  0  0  0  0  0  0  0  0  0  0
    9.9999  -18.2334   25.2676 C   0  0  2  0  0  0  0  0  0  0  0  0
    8.9599  -17.1349   25.1667 C   0  0  0  0  0  0  0  0  0  0  0  0
    9.5263  -15.8624   25.7002 O   0  0  0  0  0  0  0  0  0  0  0  0
   10.3628  -15.1561   25.0975 C   0  0  0  0  0  0  0  0  0  0  0  0
    8.3586  -13.2786   27.9451 C   0  0  2  0  0  0  0  0  0  0  0  0
    9.5295  -14.1566   27.5694 N   0  0  0  0  0  0  0  0  0  0  0  0
    9.0967  -15.4082   26.9784 C   0  0  0  0  0  0  0  0  0  0  0  0
   10.3312  -14.4735   28.7709 O   0  0  0  0  0  0  0  0  0  0  0  0
   10.3031  -15.6573   29.2331 O   0  0  0  0  0  0  0  0  0  0  0  0
  2  1  1  0
  2  3  2  0
  4  2  1  0
  5  4  1  0
  6  5  1  0
  7  6  1  0
  8 10  1  0
  8  7  1  0
  8  9  1  1
 10 12  1  0
 11 10  2  0
 12 13  1  0
 12 16  1  0
 13 14  1  0
 15 14  1  0
 16 15  1  0
 17 21  1  0
 16 17  1  1
 18 17  2  0
 20 19  1  6
 20 21  1  0
 22 20  1  0
 22 24  1  0
 23 22  2  0
M  END
$$$$
