RPA.pdb
     RDKit          3D

 24 24  0  0  1  0  0  0  0  0999 V2000
    7.4657  -19.4487   19.0486 N   0  0  0  0  0  0  0  0  0  0  0  0
    8.3407  -18.5601   19.7104 C   0  0  0  0  0  0  0  0  0  0  0  0
    8.9556  -17.6242   19.0847 N   0  0  0  0  0  0  0  0  0  0  0  0
    8.5649  -18.6903   21.1322 N   0  0  0  0  0  0  0  0  0  0  0  0
    8.3261  -17.5299   21.9310 C   0  0  0  0  0  0  0  0  0  0  0  0
    7.0904  -16.7572   21.6815 C   0  0  0  0  0  0  0  0  0  0  0  0
    6.7140  -15.6759   22.6242 C   0  0  0  0  0  0  0  0  0  0  0  0
    7.3506  -14.3472   22.4924 C   0  0  2  0  0  0  0  0  0  0  0  0
    8.1032  -14.2955   21.3010 N   0  0  0  0  0  0  0  0  0  0  0  0
    8.1694  -14.0907   23.7178 C   0  0  0  0  0  0  0  0  0  0  0  0
    9.4365  -14.1128   23.5045 O   0  0  0  0  0  0  0  0  0  0  0  0
    9.6503  -17.0206   19.5643 N   0  0  0  0  0  0  0  0  0  0  0  0
    7.6967  -13.8420   25.0067 C   0  0  0  0  0  0  0  0  0  0  0  0
    6.3889  -13.7670   25.5872 C   0  0  0  0  0  0  0  0  0  0  0  0
    6.4758  -12.4326   26.3174 C   0  0  0  0  0  0  0  0  0  0  0  0
    7.8350  -12.5424   26.9753 C   0  0  1  0  0  0  0  0  0  0  0  0
    8.5814  -13.5768   26.1560 C   0  0  0  0  0  0  0  0  0  0  0  0
    8.7539  -14.8203   26.9614 O   0  0  0  0  0  0  0  0  0  0  0  0
    7.8317  -15.6204   27.2284 C   0  0  0  0  0  0  0  0  0  0  0  0
   11.7741  -16.8716   27.5137 C   0  0  2  0  0  0  0  0  0  0  0  0
   10.4091  -16.4338   27.9912 N   0  0  0  0  0  0  0  0  0  0  0  0
   10.0471  -15.1311   27.4668 C   0  0  0  0  0  0  0  0  0  0  0  0
   10.3909  -16.3515   29.4675 O   0  0  0  0  0  0  0  0  0  0  0  0
   10.5849  -17.4100   30.1440 O   0  0  0  0  0  0  0  0  0  0  0  0
  2  1  1  0
  2  3  2  0
  4  2  1  0
  5  4  1  0
  6  5  1  0
  7  6  1  0
  8 10  1  0
  8  7  1  0
  8  9  1  6
 10 12  1  0
 11 10  2  0
 12 13  1  0
 12 16  1  0
 13 14  1  0
 15 14  1  0
 16 15  1  0
 17 21  1  0
 16 17  1  1
 18 17  2  0
 20 19  1  6
 20 21  1  0
 22 20  1  0
 22 24  1  0
 23 22  2  0
M  END
$$$$
