RPA.pdb
     RDKit          3D

 24 24  0  0  1  0  0  0  0  0999 V2000
    2.9749  -20.1836   19.1642 N   0  0  0  0  0  0  0  0  0  0  0  0
    3.2690  -20.4837   20.5120 C   0  0  0  0  0  0  0  0  0  0  0  0
    3.1081  -21.6616   20.9939 N   0  0  0  0  0  0  0  0  0  0  0  0
    3.7661  -19.4501   21.3914 N   0  0  0  0  0  0  0  0  0  0  0  0
    3.8973  -18.1401   20.8362 C   0  0  0  0  0  0  0  0  0  0  0  0
    5.0724  -17.8617   19.9830 C   0  0  0  0  0  0  0  0  0  0  0  0
    5.2651  -16.4926   19.4464 C   0  0  0  0  0  0  0  0  0  0  0  0
    6.4622  -16.1980   18.6290 C   0  0  2  0  0  0  0  0  0  0  0  0
    6.7551  -17.2994   17.7986 N   0  0  0  0  0  0  0  0  0  0  0  0
    7.5863  -15.8381   19.5481 C   0  0  0  0  0  0  0  0  0  0  0  0
    8.6131  -16.6017   19.4296 O   0  0  0  0  0  0  0  0  0  0  0  0
    3.1988  -21.8452   22.0113 N   0  0  0  0  0  0  0  0  0  0  0  0
    7.6120  -14.7960   20.4755 C   0  0  0  0  0  0  0  0  0  0  0  0
    6.6221  -13.8908   20.9792 C   0  0  0  0  0  0  0  0  0  0  0  0
    7.3309  -12.5558   20.7879 C   0  0  0  0  0  0  0  0  0  0  0  0
    8.7168  -12.8790   21.3050 C   0  0  2  0  0  0  0  0  0  0  0  0
    8.8292  -14.3872   21.2001 C   0  0  0  0  0  0  0  0  0  0  0  0
    8.8302  -14.9829   22.5674 O   0  0  0  0  0  0  0  0  0  0  0  0
    7.8177  -15.0829   23.2932 C   0  0  0  0  0  0  0  0  0  0  0  0
   10.9910  -17.6455   23.7501 C   0  0  2  0  0  0  0  0  0  0  0  0
   10.1321  -16.4683   24.1493 N   0  0  0  0  0  0  0  0  0  0  0  0
   10.0564  -15.4746   23.0958 C   0  0  0  0  0  0  0  0  0  0  0  0
   10.6939  -15.8156   25.3514 O   0  0  0  0  0  0  0  0  0  0  0  0
   11.1224  -14.6225   25.2587 O   0  0  0  0  0  0  0  0  0  0  0  0
  2  1  1  0
  2  3  2  0
  4  2  1  0
  5  4  1  0
  6  5  1  0
  7  6  1  0
  8 10  1  0
  8  7  1  0
  8  9  1  1
 10 12  1  0
 11 10  2  0
 12 13  1  0
 12 16  1  0
 13 14  1  0
 15 14  1  0
 16 15  1  0
 17 21  1  0
 16 17  1  1
 18 17  2  0
 20 19  1  6
 20 21  1  0
 22 20  1  0
 22 24  1  0
 23 22  2  0
M  END
$$$$
