RPA.pdb
     RDKit          3D

 24 24  0  0  1  0  0  0  0  0999 V2000
    8.2850  -12.6802   17.5200 N   0  0  0  0  0  0  0  0  0  0  0  0
    8.3427  -13.8777   16.7745 C   0  0  0  0  0  0  0  0  0  0  0  0
    7.9114  -13.9455   15.5682 N   0  0  0  0  0  0  0  0  0  0  0  0
    8.8991  -15.0727   17.3670 N   0  0  0  0  0  0  0  0  0  0  0  0
    8.0754  -15.7715   18.3023 C   0  0  0  0  0  0  0  0  0  0  0  0
    8.2455  -15.4689   19.7395 C   0  0  0  0  0  0  0  0  0  0  0  0
    8.9987  -16.4204   20.5920 C   0  0  0  0  0  0  0  0  0  0  0  0
    8.2748  -17.5276   21.2539 C   0  0  2  0  0  0  0  0  0  0  0  0
    7.2568  -18.0068   20.4041 N   0  0  0  0  0  0  0  0  0  0  0  0
    7.7606  -17.0371   22.5703 C   0  0  0  0  0  0  0  0  0  0  0  0
    6.5056  -16.7605   22.5623 O   0  0  0  0  0  0  0  0  0  0  0  0
    7.9667  -14.8277   15.0244 N   0  0  0  0  0  0  0  0  0  0  0  0
    8.4919  -16.8639   23.7458 C   0  0  0  0  0  0  0  0  0  0  0  0
    9.8775  -17.0042   24.0827 C   0  0  0  0  0  0  0  0  0  0  0  0
    9.7833  -17.8888   25.3196 C   0  0  0  0  0  0  0  0  0  0  0  0
    8.6537  -17.2221   26.0759 C   0  0  1  0  0  0  0  0  0  0  0  0
    7.8842  -16.4486   25.0233 C   0  0  0  0  0  0  0  0  0  0  0  0
    8.0890  -14.9859   25.2310 O   0  0  0  0  0  0  0  0  0  0  0  0
    9.1033  -14.3568   24.8604 C   0  0  0  0  0  0  0  0  0  0  0  0
    5.7867  -12.2171   26.4017 C   0  0  2  0  0  0  0  0  0  0  0  0
    7.1467  -12.8121   26.1200 N   0  0  0  0  0  0  0  0  0  0  0  0
    7.0725  -14.2426   25.8932 C   0  0  0  0  0  0  0  0  0  0  0  0
    8.0493  -12.5792   27.2679 O   0  0  0  0  0  0  0  0  0  0  0  0
    8.3556  -13.5594   28.0170 O   0  0  0  0  0  0  0  0  0  0  0  0
  2  1  1  0
  2  3  2  0
  4  2  1  0
  5  4  1  0
  6  5  1  0
  7  6  1  0
  8 10  1  0
  8  7  1  0
  8  9  1  6
 10 12  1  0
 11 10  2  0
 12 13  1  0
 12 16  1  0
 13 14  1  0
 15 14  1  0
 16 15  1  0
 17 21  1  0
 16 17  1  1
 18 17  2  0
 20 19  1  6
 20 21  1  0
 22 20  1  0
 22 24  1  0
 23 22  2  0
M  END
$$$$
