RPA.pdb
     RDKit          3D

 24 24  0  0  1  0  0  0  0  0999 V2000
    7.9256  -20.0181   26.3358 N   0  0  0  0  0  0  0  0  0  0  0  0
    7.9194  -19.6754   24.9663 C   0  0  0  0  0  0  0  0  0  0  0  0
    8.9856  -19.7136   24.2540 N   0  0  0  0  0  0  0  0  0  0  0  0
    6.6885  -19.2671   24.3283 N   0  0  0  0  0  0  0  0  0  0  0  0
    6.8082  -18.5177   23.1177 C   0  0  0  0  0  0  0  0  0  0  0  0
    7.4243  -17.1755   23.1896 C   0  0  0  0  0  0  0  0  0  0  0  0
    6.6576  -16.0036   22.7015 C   0  0  0  0  0  0  0  0  0  0  0  0
    7.3669  -14.7312   22.4447 C   0  0  2  0  0  0  0  0  0  0  0  0
    8.2583  -14.8921   21.3641 N   0  0  0  0  0  0  0  0  0  0  0  0
    8.0443  -14.3033   23.7081 C   0  0  0  0  0  0  0  0  0  0  0  0
    9.3262  -14.3761   23.6553 O   0  0  0  0  0  0  0  0  0  0  0  0
    8.9982  -19.3508   23.2819 N   0  0  0  0  0  0  0  0  0  0  0  0
    7.4320  -13.8547   24.8788 C   0  0  0  0  0  0  0  0  0  0  0  0
    6.0707  -13.7707   25.3178 C   0  0  0  0  0  0  0  0  0  0  0  0
    6.0084  -12.3210   25.7819 C   0  0  0  0  0  0  0  0  0  0  0  0
    7.2992  -12.2042   26.5646 C   0  0  2  0  0  0  0  0  0  0  0  0
    8.1812  -13.3146   26.0281 C   0  0  0  0  0  0  0  0  0  0  0  0
    8.3428  -14.3696   27.0698 O   0  0  0  0  0  0  0  0  0  0  0  0
    7.6645  -15.4180   27.1221 C   0  0  0  0  0  0  0  0  0  0  0  0
   11.4892  -14.5416   29.1851 C   0  0  1  0  0  0  0  0  0  0  0  0
   10.3850  -15.1440   28.3479 N   0  0  0  0  0  0  0  0  0  0  0  0
    9.3298  -14.1863   28.0781 C   0  0  0  0  0  0  0  0  0  0  0  0
    9.7846  -16.2961   29.0541 O   0  0  0  0  0  0  0  0  0  0  0  0
   10.5206  -17.2920   29.3409 O   0  0  0  0  0  0  0  0  0  0  0  0
  2  1  1  0
  2  3  2  0
  4  2  1  0
  5  4  1  0
  6  5  1  0
  7  6  1  0
  8 10  1  0
  8  7  1  0
  8  9  1  6
 10 12  1  0
 11 10  2  0
 12 13  1  0
 12 16  1  0
 13 14  1  0
 15 14  1  0
 16 15  1  0
 17 21  1  0
 16 17  1  1
 18 17  2  0
 20 19  1  6
 20 21  1  0
 22 20  1  0
 22 24  1  0
 23 22  2  0
M  END
$$$$
