RPA.pdb
     RDKit          3D

 24 24  0  0  1  0  0  0  0  0999 V2000
    7.2142  -20.0690   25.4698 N   0  0  0  0  0  0  0  0  0  0  0  0
    6.5431  -20.9459   24.5901 C   0  0  0  0  0  0  0  0  0  0  0  0
    6.1959  -22.1281   24.9471 N   0  0  0  0  0  0  0  0  0  0  0  0
    6.2286  -20.5207   23.2451 N   0  0  0  0  0  0  0  0  0  0  0  0
    7.1710  -19.6581   22.6052 C   0  0  0  0  0  0  0  0  0  0  0  0
    6.7241  -18.3006   22.2259 C   0  0  0  0  0  0  0  0  0  0  0  0
    6.7690  -17.8997   20.7988 C   0  0  0  0  0  0  0  0  0  0  0  0
    7.9890  -17.2543   20.2669 C   0  0  2  0  0  0  0  0  0  0  0  0
    9.0229  -18.2068   20.1570 N   0  0  0  0  0  0  0  0  0  0  0  0
    8.3411  -16.1029   21.1547 C   0  0  0  0  0  0  0  0  0  0  0  0
    9.4395  -16.2680   21.8011 O   0  0  0  0  0  0  0  0  0  0  0  0
    5.6480  -22.7431   24.3159 N   0  0  0  0  0  0  0  0  0  0  0  0
    7.6141  -14.9251   21.3305 C   0  0  0  0  0  0  0  0  0  0  0  0
    6.3055  -14.4975   20.9333 C   0  0  0  0  0  0  0  0  0  0  0  0
    6.6268  -13.1566   20.2854 C   0  0  0  0  0  0  0  0  0  0  0  0
    7.5877  -12.5626   21.2935 C   0  0  2  0  0  0  0  0  0  0  0  0
    8.1361  -13.7525   22.0561 C   0  0  0  0  0  0  0  0  0  0  0  0
    7.6039  -13.7395   23.4494 O   0  0  0  0  0  0  0  0  0  0  0  0
    6.5423  -14.2959   23.8034 C   0  0  0  0  0  0  0  0  0  0  0  0
    6.5499  -12.7542   26.1026 C   0  0  1  0  0  0  0  0  0  0  0  0
    8.0025  -13.0945   25.8637 N   0  0  0  0  0  0  0  0  0  0  0  0
    8.3410  -13.0527   24.4541 C   0  0  0  0  0  0  0  0  0  0  0  0
    8.2925  -14.4565   26.3614 O   0  0  0  0  0  0  0  0  0  0  0  0
    9.3847  -15.0133   26.0258 O   0  0  0  0  0  0  0  0  0  0  0  0
  2  1  1  0
  2  3  2  0
  4  2  1  0
  5  4  1  0
  6  5  1  0
  7  6  1  0
  8 10  1  0
  8  7  1  0
  8  9  1  1
 10 12  1  0
 11 10  2  0
 12 13  1  0
 12 16  1  0
 13 14  1  0
 15 14  1  0
 16 15  1  0
 17 21  1  0
 16 17  1  1
 18 17  2  0
 20 19  1  1
 20 21  1  0
 22 20  1  0
 22 24  1  0
 23 22  2  0
M  END
$$$$
