RPA.pdb
     RDKit          3D

 24 24  0  0  1  0  0  0  0  0999 V2000
   14.8338  -14.9805   16.7137 N   0  0  0  0  0  0  0  0  0  0  0  0
   14.4429  -14.7647   18.0530 C   0  0  0  0  0  0  0  0  0  0  0  0
   14.6831  -13.6596   18.6585 N   0  0  0  0  0  0  0  0  0  0  0  0
   13.7519  -15.8042   18.7815 N   0  0  0  0  0  0  0  0  0  0  0  0
   12.3295  -15.6965   18.8639 C   0  0  0  0  0  0  0  0  0  0  0  0
   11.5539  -15.7617   17.6068 C   0  0  0  0  0  0  0  0  0  0  0  0
   10.0735  -15.6979   17.6693 C   0  0  0  0  0  0  0  0  0  0  0  0
    9.4185  -14.4157   18.0083 C   0  0  2  0  0  0  0  0  0  0  0  0
   10.0883  -13.3540   17.3662 N   0  0  0  0  0  0  0  0  0  0  0  0
    9.3889  -14.2784   19.4976 C   0  0  0  0  0  0  0  0  0  0  0  0
   10.3643  -13.5884   19.9707 O   0  0  0  0  0  0  0  0  0  0  0  0
   14.4980  -13.5494   19.6737 N   0  0  0  0  0  0  0  0  0  0  0  0
    8.4393  -14.8093   20.3712 C   0  0  0  0  0  0  0  0  0  0  0  0
    7.2917  -15.6497   20.1985 C   0  0  0  0  0  0  0  0  0  0  0  0
    6.2343  -14.8478   20.9468 C   0  0  0  0  0  0  0  0  0  0  0  0
    6.9872  -14.4634   22.2029 C   0  0  1  0  0  0  0  0  0  0  0  0
    8.4519  -14.5660   21.8253 C   0  0  0  0  0  0  0  0  0  0  0  0
    9.0674  -15.7281   22.5291 O   0  0  0  0  0  0  0  0  0  0  0  0
    9.0552  -16.9007   22.0970 C   0  0  0  0  0  0  0  0  0  0  0  0
   11.1225  -15.9884   25.7254 C   0  0  2  0  0  0  0  0  0  0  0  0
   10.4069  -16.5427   24.5156 N   0  0  0  0  0  0  0  0  0  0  0  0
    9.7154  -15.5044   23.7760 C   0  0  0  0  0  0  0  0  0  0  0  0
    9.4057  -17.5469   24.9349 O   0  0  0  0  0  0  0  0  0  0  0  0
    8.1861  -17.1994   25.0208 O   0  0  0  0  0  0  0  0  0  0  0  0
  2  1  1  0
  2  3  2  0
  4  2  1  0
  5  4  1  0
  6  5  1  0
  7  6  1  0
  8 10  1  0
  8  7  1  0
  8  9  1  6
 10 12  1  0
 11 10  2  0
 12 13  1  0
 12 16  1  0
 13 14  1  0
 15 14  1  0
 16 15  1  0
 17 21  1  0
 16 17  1  1
 18 17  2  0
 20 19  1  6
 20 21  1  0
 22 20  1  0
 22 24  1  0
 23 22  2  0
M  END
$$$$
