RPA.pdb
     RDKit          3D

 24 24  0  0  1  0  0  0  0  0999 V2000
    4.9853  -20.9215   23.5585 N   0  0  0  0  0  0  0  0  0  0  0  0
    5.5210  -21.8537   22.6435 C   0  0  0  0  0  0  0  0  0  0  0  0
    5.1977  -23.0947   22.6742 N   0  0  0  0  0  0  0  0  0  0  0  0
    6.4618  -21.4198   21.6360 N   0  0  0  0  0  0  0  0  0  0  0  0
    6.6038  -20.0100   21.4516 C   0  0  0  0  0  0  0  0  0  0  0  0
    5.7426  -19.3507   20.4467 C   0  0  0  0  0  0  0  0  0  0  0  0
    5.8740  -17.8890   20.2328 C   0  0  0  0  0  0  0  0  0  0  0  0
    6.7433  -17.3927   19.1437 C   0  0  2  0  0  0  0  0  0  0  0  0
    7.1548  -18.4709   18.3335 N   0  0  0  0  0  0  0  0  0  0  0  0
    7.8862  -16.6447   19.7536 C   0  0  0  0  0  0  0  0  0  0  0  0
    9.0347  -17.1622   19.4995 O   0  0  0  0  0  0  0  0  0  0  0  0
    5.5803  -23.7691   21.9844 N   0  0  0  0  0  0  0  0  0  0  0  0
    7.8133  -15.4911   20.5351 C   0  0  0  0  0  0  0  0  0  0  0  0
    6.7306  -14.7402   21.0981 C   0  0  0  0  0  0  0  0  0  0  0  0
    7.0844  -13.3338   20.6314 C   0  0  0  0  0  0  0  0  0  0  0  0
    8.5683  -13.2869   20.9288 C   0  0  2  0  0  0  0  0  0  0  0  0
    9.0006  -14.7391   20.9807 C   0  0  0  0  0  0  0  0  0  0  0  0
    9.3377  -15.1086   22.3858 O   0  0  0  0  0  0  0  0  0  0  0  0
    8.4917  -15.3250   23.2798 C   0  0  0  0  0  0  0  0  0  0  0  0
   10.8872  -17.5435   23.5336 C   0  0  2  0  0  0  0  0  0  0  0  0
   11.1815  -16.0885   23.8154 N   0  0  0  0  0  0  0  0  0  0  0  0
   10.7082  -15.2267   22.7494 C   0  0  0  0  0  0  0  0  0  0  0  0
   12.6395  -15.8839   23.9531 O   0  0  0  0  0  0  0  0  0  0  0  0
   13.2441  -16.4155   24.9368 O   0  0  0  0  0  0  0  0  0  0  0  0
  2  1  1  0
  2  3  2  0
  4  2  1  0
  5  4  1  0
  6  5  1  0
  7  6  1  0
  8 10  1  0
  8  7  1  0
  8  9  1  1
 10 12  1  0
 11 10  2  0
 12 13  1  0
 12 16  1  0
 13 14  1  0
 15 14  1  0
 16 15  1  0
 17 21  1  0
 16 17  1  1
 18 17  2  0
 20 19  1  1
 20 21  1  0
 22 20  1  0
 22 24  1  0
 23 22  2  0
M  END
$$$$
