VMR.pdb
     RDKit          3D

 27 26  0  0  1  0  0  0  0  0999 V2000
    7.6481  -15.7563   19.7731 C   0  0  0  0  0  0  0  0  0  0  0  0
    8.3539  -14.6312   19.0725 C   0  0  1  0  0  0  0  0  0  0  0  0
    8.1155  -14.6420   17.5823 C   0  0  0  0  0  0  0  0  0  0  0  0
    7.9522  -13.3153   19.7121 C   0  0  2  0  0  0  0  0  0  0  0  0
    8.7033  -12.2105   19.1305 N   0  0  0  0  0  0  0  0  0  0  0  0
    8.2953  -13.4070   21.1430 C   0  0  0  0  0  0  0  0  0  0  0  0
    9.4868  -13.3096   21.4965 O   0  0  0  0  0  0  0  0  0  0  0  0
    4.5571  -11.7831   26.4498 C   0  0  0  0  0  0  0  0  0  0  0  0
    5.7478  -12.9319   27.1798 S   0  0  0  0  0  0  0  0  0  0  0  0
    7.0203  -13.3528   26.0090 C   0  0  0  0  0  0  0  0  0  0  0  0
    6.6324  -13.2332   24.5551 C   0  0  0  0  0  0  0  0  0  0  0  0
    7.6473  -13.6235   23.5729 C   0  0  2  0  0  0  0  0  0  0  0  0
    7.3715  -13.6025   22.1992 N   0  0  0  0  0  0  0  0  0  0  0  0
    8.1819  -14.9658   23.9258 C   0  0  0  0  0  0  0  0  0  0  0  0
    7.4746  -15.9863   23.7377 O   0  0  0  0  0  0  0  0  0  0  0  0
   15.1659  -14.5818   19.6778 N   0  0  0  0  0  0  0  0  0  0  0  0
   14.1947  -15.5444   20.0873 C   0  0  0  0  0  0  0  0  0  0  0  0
   13.8714  -16.5110   19.3222 N   0  0  0  0  0  0  0  0  0  0  0  0
   13.5521  -15.4673   21.3552 N   0  0  0  0  0  0  0  0  0  0  0  0
   12.4820  -16.3649   21.7090 C   0  0  0  0  0  0  0  0  0  0  0  0
   11.9423  -16.1967   23.0800 C   0  0  0  0  0  0  0  0  0  0  0  0
   10.7284  -16.8811   23.4995 C   0  0  0  0  0  0  0  0  0  0  0  0
    9.9824  -16.5751   24.7336 C   0  0  2  0  0  0  0  0  0  0  0  0
    9.4667  -15.1652   24.4718 N   0  0  0  0  0  0  0  0  0  0  0  0
   10.7107  -16.5091   25.9989 C   0  0  0  0  0  0  0  0  0  0  0  0
   10.9028  -15.3570   26.5581 O   0  0  0  0  0  0  0  0  0  0  0  0
   11.2351  -17.5561   26.7053 O   0  0  0  0  0  0  0  0  0  0  0  0
  2  1  1  1
  2  3  1  0
  4  6  1  0
  4  2  1  0
  4  5  1  6
  6  7  2  0
  9  8  1  0
 10  9  1  0
 11 10  1  0
 12 11  1  1
 13  6  1  0
 13 12  1  0
 14 15  2  0
 14 12  1  0
 16 17  1  0
 17 18  2  0
 19 17  1  0
 19 20  1  0
 20 21  1  0
 21 22  1  0
 23 22  1  6
 23 24  1  0
 24 14  1  0
 25 23  1  0
 25 27  1  0
 26 25  2  0
M  END
$$$$
