VMR.pdb
     RDKit          3D

 27 26  0  0  1  0  0  0  0  0999 V2000
   10.9684  -14.5566   27.5175 C   0  0  0  0  0  0  0  0  0  0  0  0
   11.0663  -15.8865   28.2079 C   0  0  1  0  0  0  0  0  0  0  0  0
   11.9836  -15.8466   29.4057 C   0  0  0  0  0  0  0  0  0  0  0  0
    9.6720  -16.3673   28.5640 C   0  0  2  0  0  0  0  0  0  0  0  0
    9.7247  -17.6870   29.1791 N   0  0  0  0  0  0  0  0  0  0  0  0
    8.9155  -16.4732   27.3030 C   0  0  0  0  0  0  0  0  0  0  0  0
    8.6687  -17.5988   26.8274 O   0  0  0  0  0  0  0  0  0  0  0  0
    7.5171  -11.0715   27.2030 C   0  0  0  0  0  0  0  0  0  0  0  0
    6.0412  -11.7552   26.4126 S   0  0  0  0  0  0  0  0  0  0  0  0
    6.0356  -13.5320   26.5128 C   0  0  0  0  0  0  0  0  0  0  0  0
    6.5744  -14.2538   25.3015 C   0  0  0  0  0  0  0  0  0  0  0  0
    7.4275  -15.4170   25.5589 C   0  0  2  0  0  0  0  0  0  0  0  0
    8.4209  -15.3821   26.5467 N   0  0  0  0  0  0  0  0  0  0  0  0
    8.0473  -15.8637   24.2828 C   0  0  0  0  0  0  0  0  0  0  0  0
    7.3308  -16.0148   23.2626 O   0  0  0  0  0  0  0  0  0  0  0  0
    8.4356  -12.1718   17.8152 N   0  0  0  0  0  0  0  0  0  0  0  0
    8.1827  -13.5382   17.4883 C   0  0  0  0  0  0  0  0  0  0  0  0
    7.8007  -13.8691   16.3184 N   0  0  0  0  0  0  0  0  0  0  0  0
    8.3450  -14.5795   18.4452 N   0  0  0  0  0  0  0  0  0  0  0  0
    9.0134  -14.3468   19.7002 C   0  0  0  0  0  0  0  0  0  0  0  0
    9.1124  -15.5269   20.5928 C   0  0  0  0  0  0  0  0  0  0  0  0
    9.6665  -15.4114   21.9335 C   0  0  0  0  0  0  0  0  0  0  0  0
    9.9982  -16.5566   22.8004 C   0  0  2  0  0  0  0  0  0  0  0  0
    9.4247  -16.1338   24.1474 N   0  0  0  0  0  0  0  0  0  0  0  0
   11.4044  -16.8727   23.0427 C   0  0  0  0  0  0  0  0  0  0  0  0
   11.9685  -16.4517   24.1297 O   0  0  0  0  0  0  0  0  0  0  0  0
   12.2394  -17.5944   22.2352 O   0  0  0  0  0  0  0  0  0  0  0  0
  2  1  1  1
  2  3  1  0
  4  6  1  0
  4  2  1  0
  4  5  1  6
  6  7  2  0
  9  8  1  0
 10  9  1  0
 11 10  1  0
 12 11  1  6
 13  6  1  0
 13 12  1  0
 14 15  2  0
 14 12  1  0
 16 17  1  0
 17 18  2  0
 19 17  1  0
 19 20  1  0
 20 21  1  0
 21 22  1  0
 23 22  1  6
 23 24  1  0
 24 14  1  0
 25 23  1  0
 25 27  1  0
 26 25  2  0
M  END
$$$$
