VMR.pdb
     RDKit          3D

 27 26  0  0  1  0  0  0  0  0999 V2000
    5.4605  -22.2283   24.2600 C   0  0  0  0  0  0  0  0  0  0  0  0
    5.3996  -20.7406   24.4542 C   0  0  1  0  0  0  0  0  0  0  0  0
    4.7468  -20.3572   25.7599 C   0  0  0  0  0  0  0  0  0  0  0  0
    6.7951  -20.1618   24.3144 C   0  0  2  0  0  0  0  0  0  0  0  0
    7.6035  -20.4805   25.4839 N   0  0  0  0  0  0  0  0  0  0  0  0
    6.6502  -18.6968   24.2360 C   0  0  0  0  0  0  0  0  0  0  0  0
    6.0641  -18.1887   23.2601 O   0  0  0  0  0  0  0  0  0  0  0  0
    5.2330  -12.4290   26.4662 C   0  0  0  0  0  0  0  0  0  0  0  0
    6.7904  -13.0641   27.1308 S   0  0  0  0  0  0  0  0  0  0  0  0
    7.6452  -14.0420   25.9143 C   0  0  0  0  0  0  0  0  0  0  0  0
    7.6537  -15.5306   26.1648 C   0  0  0  0  0  0  0  0  0  0  0  0
    7.2750  -16.3860   25.0370 C   0  0  2  0  0  0  0  0  0  0  0  0
    7.1288  -17.7706   25.1954 N   0  0  0  0  0  0  0  0  0  0  0  0
    8.2000  -16.1370   23.8993 C   0  0  0  0  0  0  0  0  0  0  0  0
    9.1787  -16.9018   23.7141 O   0  0  0  0  0  0  0  0  0  0  0  0
    9.0962  -15.2237   17.3738 N   0  0  0  0  0  0  0  0  0  0  0  0
    8.1676  -14.1995   17.0184 C   0  0  0  0  0  0  0  0  0  0  0  0
    7.9405  -13.9205   15.7958 N   0  0  0  0  0  0  0  0  0  0  0  0
    7.4622  -13.4532   18.0042 N   0  0  0  0  0  0  0  0  0  0  0  0
    8.1442  -12.5321   18.8774 C   0  0  0  0  0  0  0  0  0  0  0  0
    9.0120  -13.1583   19.9041 C   0  0  0  0  0  0  0  0  0  0  0  0
    8.4491  -13.7247   21.1206 C   0  0  0  0  0  0  0  0  0  0  0  0
    8.8876  -14.9931   21.7307 C   0  0  2  0  0  0  0  0  0  0  0  0
    8.0391  -15.0675   22.9944 N   0  0  0  0  0  0  0  0  0  0  0  0
   10.2757  -15.1209   22.1694 C   0  0  0  0  0  0  0  0  0  0  0  0
   11.1694  -15.5321   21.3272 O   0  0  0  0  0  0  0  0  0  0  0  0
   10.7780  -14.8439   23.4109 O   0  0  0  0  0  0  0  0  0  0  0  0
  2  1  1  1
  2  3  1  0
  4  6  1  0
  4  2  1  0
  4  5  1  1
  6  7  2  0
  9  8  1  0
 10  9  1  0
 11 10  1  0
 12 11  1  1
 13  6  1  0
 13 12  1  0
 14 15  2  0
 14 12  1  0
 16 17  1  0
 17 18  2  0
 19 17  1  0
 19 20  1  0
 20 21  1  0
 21 22  1  0
 23 22  1  1
 23 24  1  0
 24 14  1  0
 25 23  1  0
 25 27  1  0
 26 25  2  0
M  END
$$$$
