VMR.pdb
     RDKit          3D

 27 26  0  0  1  0  0  0  0  0999 V2000
    4.6095  -20.7380   23.1900 C   0  0  0  0  0  0  0  0  0  0  0  0
    4.9855  -20.7802   24.6431 C   0  0  1  0  0  0  0  0  0  0  0  0
    4.7390  -22.1345   25.2619 C   0  0  0  0  0  0  0  0  0  0  0  0
    6.4251  -20.3273   24.7991 C   0  0  2  0  0  0  0  0  0  0  0  0
    6.8776  -20.5158   26.1712 N   0  0  0  0  0  0  0  0  0  0  0  0
    6.4609  -18.8857   24.4928 C   0  0  0  0  0  0  0  0  0  0  0  0
    6.1520  -18.4923   23.3509 O   0  0  0  0  0  0  0  0  0  0  0  0
    8.6432  -12.5704   27.7641 C   0  0  0  0  0  0  0  0  0  0  0  0
    6.9984  -12.8544   27.0681 S   0  0  0  0  0  0  0  0  0  0  0  0
    7.0660  -14.0521   25.7535 C   0  0  0  0  0  0  0  0  0  0  0  0
    6.9952  -15.4969   26.1852 C   0  0  0  0  0  0  0  0  0  0  0  0
    6.9991  -16.4998   25.1168 C   0  0  2  0  0  0  0  0  0  0  0  0
    6.8255  -17.8609   25.4008 N   0  0  0  0  0  0  0  0  0  0  0  0
    8.2317  -16.3423   24.2996 C   0  0  0  0  0  0  0  0  0  0  0  0
    9.2603  -17.0008   24.5918 O   0  0  0  0  0  0  0  0  0  0  0  0
    8.7220  -12.6239   16.6156 N   0  0  0  0  0  0  0  0  0  0  0  0
    8.0986  -13.8592   16.9665 C   0  0  0  0  0  0  0  0  0  0  0  0
    8.2066  -14.8815   16.2134 N   0  0  0  0  0  0  0  0  0  0  0  0
    7.3374  -14.0010   18.1611 N   0  0  0  0  0  0  0  0  0  0  0  0
    7.8599  -13.5827   19.4370 C   0  0  0  0  0  0  0  0  0  0  0  0
    8.7400  -14.5661   20.1135 C   0  0  0  0  0  0  0  0  0  0  0  0
    9.3027  -14.2925   21.4274 C   0  0  0  0  0  0  0  0  0  0  0  0
    9.6268  -15.3258   22.4275 C   0  0  2  0  0  0  0  0  0  0  0  0
    8.3156  -15.4769   23.1894 N   0  0  0  0  0  0  0  0  0  0  0  0
   10.6464  -15.0370   23.4339 C   0  0  0  0  0  0  0  0  0  0  0  0
   11.8954  -15.1984   23.1323 O   0  0  0  0  0  0  0  0  0  0  0  0
   10.4433  -14.5919   24.7109 O   0  0  0  0  0  0  0  0  0  0  0  0
  2  1  1  6
  2  3  1  0
  4  6  1  0
  4  2  1  0
  4  5  1  1
  6  7  2  0
  9  8  1  0
 10  9  1  0
 11 10  1  0
 12 11  1  1
 13  6  1  0
 13 12  1  0
 14 15  2  0
 14 12  1  0
 16 17  1  0
 17 18  2  0
 19 17  1  0
 19 20  1  0
 20 21  1  0
 21 22  1  0
 23 22  1  6
 23 24  1  0
 24 14  1  0
 25 23  1  0
 25 27  1  0
 26 25  2  0
M  END
$$$$
