VMR.pdb
     RDKit          3D

 27 26  0  0  1  0  0  0  0  0999 V2000
    6.9291  -14.4756   18.1697 C   0  0  0  0  0  0  0  0  0  0  0  0
    7.4754  -14.7597   19.5392 C   0  0  1  0  0  0  0  0  0  0  0  0
    8.6287  -15.7328   19.5079 C   0  0  0  0  0  0  0  0  0  0  0  0
    7.8429  -13.4500   20.2111 C   0  0  2  0  0  0  0  0  0  0  0  0
    8.9691  -12.8222   19.5325 N   0  0  0  0  0  0  0  0  0  0  0  0
    8.2530  -13.7712   21.5903 C   0  0  0  0  0  0  0  0  0  0  0  0
    9.4589  -13.9582   21.8449 O   0  0  0  0  0  0  0  0  0  0  0  0
    6.5591  -11.0155   27.7043 C   0  0  0  0  0  0  0  0  0  0  0  0
    6.3282  -12.8083   27.7605 S   0  0  0  0  0  0  0  0  0  0  0  0
    7.3227  -13.6132   26.5236 C   0  0  0  0  0  0  0  0  0  0  0  0
    6.8622  -13.4299   25.0978 C   0  0  0  0  0  0  0  0  0  0  0  0
    7.7370  -13.9692   24.0532 C   0  0  2  0  0  0  0  0  0  0  0  0
    7.3809  -13.8938   22.7001 N   0  0  0  0  0  0  0  0  0  0  0  0
    8.0723  -15.3822   24.3743 C   0  0  0  0  0  0  0  0  0  0  0  0
    7.1965  -16.2734   24.2486 O   0  0  0  0  0  0  0  0  0  0  0  0
   10.6374  -18.3796   19.4578 N   0  0  0  0  0  0  0  0  0  0  0  0
   12.0047  -18.1693   19.8097 C   0  0  0  0  0  0  0  0  0  0  0  0
   12.8955  -18.0266   18.9096 N   0  0  0  0  0  0  0  0  0  0  0  0
   12.4279  -18.1102   21.1676 N   0  0  0  0  0  0  0  0  0  0  0  0
   11.5970  -18.6084   22.2341 C   0  0  0  0  0  0  0  0  0  0  0  0
   10.8451  -17.5747   22.9859 C   0  0  0  0  0  0  0  0  0  0  0  0
   10.7832  -17.5983   24.4397 C   0  0  0  0  0  0  0  0  0  0  0  0
    9.5920  -17.2376   25.2297 C   0  0  2  0  0  0  0  0  0  0  0  0
    9.3458  -15.7901   24.8218 N   0  0  0  0  0  0  0  0  0  0  0  0
    9.6883  -17.2344   26.6880 C   0  0  0  0  0  0  0  0  0  0  0  0
   10.0660  -16.1540   27.2939 O   0  0  0  0  0  0  0  0  0  0  0  0
    9.4125  -18.2713   27.5359 O   0  0  0  0  0  0  0  0  0  0  0  0
  2  1  1  6
  2  3  1  0
  4  6  1  0
  4  2  1  0
  4  5  1  6
  6  7  2  0
  9  8  1  0
 10  9  1  0
 11 10  1  0
 12 11  1  1
 13  6  1  0
 13 12  1  0
 14 15  2  0
 14 12  1  0
 16 17  1  0
 17 18  2  0
 19 17  1  0
 19 20  1  0
 20 21  1  0
 21 22  1  0
 23 22  1  6
 23 24  1  0
 24 14  1  0
 25 23  1  0
 25 27  1  0
 26 25  2  0
M  END
$$$$
