VMR.pdb
     RDKit          3D

 27 26  0  0  1  0  0  0  0  0999 V2000
    8.5348  -13.3390   17.7573 C   0  0  0  0  0  0  0  0  0  0  0  0
    8.8582  -13.2477   19.2209 C   0  0  1  0  0  0  0  0  0  0  0  0
    7.9844  -12.2504   19.9418 C   0  0  0  0  0  0  0  0  0  0  0  0
    8.7823  -14.6327   19.8357 C   0  0  2  0  0  0  0  0  0  0  0  0
    7.4639  -15.2166   19.6264 N   0  0  0  0  0  0  0  0  0  0  0  0
    8.9947  -14.4747   21.2860 C   0  0  0  0  0  0  0  0  0  0  0  0
   10.1504  -14.3097   21.7233 O   0  0  0  0  0  0  0  0  0  0  0  0
    6.0889  -11.0599   26.7155 C   0  0  0  0  0  0  0  0  0  0  0  0
    6.0349  -12.8582   26.8987 S   0  0  0  0  0  0  0  0  0  0  0  0
    7.3293  -13.6296   25.9517 C   0  0  0  0  0  0  0  0  0  0  0  0
    7.0294  -13.8358   24.4867 C   0  0  0  0  0  0  0  0  0  0  0  0
    8.1350  -14.3166   23.6540 C   0  0  2  0  0  0  0  0  0  0  0  0
    7.9781  -14.4920   22.2726 N   0  0  0  0  0  0  0  0  0  0  0  0
    8.6725  -15.5776   24.2311 C   0  0  0  0  0  0  0  0  0  0  0  0
    7.9190  -16.5741   24.3589 O   0  0  0  0  0  0  0  0  0  0  0  0
   14.8298  -15.2110   20.6315 N   0  0  0  0  0  0  0  0  0  0  0  0
   13.4188  -15.0177   20.5344 C   0  0  0  0  0  0  0  0  0  0  0  0
   12.9257  -14.2439   19.6499 N   0  0  0  0  0  0  0  0  0  0  0  0
   12.5108  -15.6746   21.4121 N   0  0  0  0  0  0  0  0  0  0  0  0
   12.8711  -16.8958   22.0865 C   0  0  0  0  0  0  0  0  0  0  0  0
   11.8058  -17.4910   22.9293 C   0  0  0  0  0  0  0  0  0  0  0  0
   11.7605  -17.2519   24.3641 C   0  0  0  0  0  0  0  0  0  0  0  0
   10.5205  -17.0744   25.1412 C   0  0  2  0  0  0  0  0  0  0  0  0
   10.0100  -15.7241   24.6530 N   0  0  0  0  0  0  0  0  0  0  0  0
   10.6099  -16.9691   26.5962 C   0  0  0  0  0  0  0  0  0  0  0  0
   10.9763  -18.0038   27.2833 O   0  0  0  0  0  0  0  0  0  0  0  0
   10.3504  -15.8659   27.3616 O   0  0  0  0  0  0  0  0  0  0  0  0
  2  1  1  6
  2  3  1  0
  4  6  1  0
  4  2  1  0
  4  5  1  1
  6  7  2  0
  9  8  1  0
 10  9  1  0
 11 10  1  0
 12 11  1  1
 13  6  1  0
 13 12  1  0
 14 15  2  0
 14 12  1  0
 16 17  1  0
 17 18  2  0
 19 17  1  0
 19 20  1  0
 20 21  1  0
 21 22  1  0
 23 22  1  6
 23 24  1  0
 24 14  1  0
 25 23  1  0
 25 27  1  0
 26 25  2  0
M  END
$$$$
