VMR.pdb
     RDKit          3D

 27 26  0  0  1  0  0  0  0  0999 V2000
    7.9432  -15.7975   19.7500 C   0  0  0  0  0  0  0  0  0  0  0  0
    8.5046  -14.5336   19.1652 C   0  0  1  0  0  0  0  0  0  0  0  0
    8.2613  -14.4297   17.6793 C   0  0  0  0  0  0  0  0  0  0  0  0
    7.9508  -13.3433   19.9258 C   0  0  2  0  0  0  0  0  0  0  0  0
    8.4744  -12.0970   19.3822 N   0  0  0  0  0  0  0  0  0  0  0  0
    8.4097  -13.4697   21.3211 C   0  0  0  0  0  0  0  0  0  0  0  0
    9.6003  -13.2279   21.6006 O   0  0  0  0  0  0  0  0  0  0  0  0
    6.5100  -12.0053   27.6002 C   0  0  0  0  0  0  0  0  0  0  0  0
    5.3947  -11.9176   26.1794 S   0  0  0  0  0  0  0  0  0  0  0  0
    6.2108  -12.4749   24.6993 C   0  0  0  0  0  0  0  0  0  0  0  0
    7.0798  -13.6991   24.8569 C   0  0  0  0  0  0  0  0  0  0  0  0
    8.0018  -13.9930   23.7565 C   0  0  2  0  0  0  0  0  0  0  0  0
    7.6027  -13.8534   22.4206 N   0  0  0  0  0  0  0  0  0  0  0  0
    8.5665  -15.3566   23.9397 C   0  0  0  0  0  0  0  0  0  0  0  0
    7.8082  -16.3562   23.8878 O   0  0  0  0  0  0  0  0  0  0  0  0
   14.1182  -14.0164   19.7854 N   0  0  0  0  0  0  0  0  0  0  0  0
   13.9270  -15.3813   19.4139 C   0  0  0  0  0  0  0  0  0  0  0  0
   14.5057  -15.8650   18.3865 N   0  0  0  0  0  0  0  0  0  0  0  0
   13.0904  -16.2524   20.1673 N   0  0  0  0  0  0  0  0  0  0  0  0
   12.2840  -15.7615   21.2557 C   0  0  0  0  0  0  0  0  0  0  0  0
   11.4317  -16.7772   21.9199 C   0  0  0  0  0  0  0  0  0  0  0  0
   11.5667  -17.0587   23.3414 C   0  0  0  0  0  0  0  0  0  0  0  0
   10.4537  -17.0263   24.3074 C   0  0  2  0  0  0  0  0  0  0  0  0
    9.9359  -15.5993   24.1734 N   0  0  0  0  0  0  0  0  0  0  0  0
   10.7466  -17.2168   25.7264 C   0  0  0  0  0  0  0  0  0  0  0  0
   11.2124  -18.3564   26.1280 O   0  0  0  0  0  0  0  0  0  0  0  0
   10.5910  -16.3026   26.7316 O   0  0  0  0  0  0  0  0  0  0  0  0
  2  1  1  1
  2  3  1  0
  4  6  1  0
  4  2  1  0
  4  5  1  6
  6  7  2  0
  9  8  1  0
 10  9  1  0
 11 10  1  0
 12 11  1  1
 13  6  1  0
 13 12  1  0
 14 15  2  0
 14 12  1  0
 16 17  1  0
 17 18  2  0
 19 17  1  0
 19 20  1  0
 20 21  1  0
 21 22  1  0
 23 22  1  6
 23 24  1  0
 24 14  1  0
 25 23  1  0
 25 27  1  0
 26 25  2  0
M  END
$$$$
