VMR.pdb
     RDKit          3D

 27 26  0  0  1  0  0  0  0  0999 V2000
    6.7903  -16.0064   20.3276 C   0  0  0  0  0  0  0  0  0  0  0  0
    7.6712  -14.9807   19.6744 C   0  0  1  0  0  0  0  0  0  0  0  0
    7.4305  -14.8783   18.1880 C   0  0  0  0  0  0  0  0  0  0  0  0
    7.4953  -13.6496   20.3810 C   0  0  2  0  0  0  0  0  0  0  0  0
    8.3284  -12.6258   19.7639 N   0  0  0  0  0  0  0  0  0  0  0  0
    7.9441  -13.8358   21.7729 C   0  0  0  0  0  0  0  0  0  0  0  0
    9.1564  -14.0025   22.0105 O   0  0  0  0  0  0  0  0  0  0  0  0
    7.7346  -11.4172   27.9164 C   0  0  0  0  0  0  0  0  0  0  0  0
    7.5731  -11.2091   26.1273 S   0  0  0  0  0  0  0  0  0  0  0  0
    6.2719  -12.2396   25.4855 C   0  0  0  0  0  0  0  0  0  0  0  0
    6.6067  -13.7058   25.3563 C   0  0  0  0  0  0  0  0  0  0  0  0
    7.4813  -14.0814   24.2422 C   0  0  2  0  0  0  0  0  0  0  0  0
    7.1037  -13.8450   22.9136 N   0  0  0  0  0  0  0  0  0  0  0  0
    7.8608  -15.5131   24.3766 C   0  0  0  0  0  0  0  0  0  0  0  0
    6.9685  -16.3797   24.5495 O   0  0  0  0  0  0  0  0  0  0  0  0
   13.0155  -17.0573   18.9622 N   0  0  0  0  0  0  0  0  0  0  0  0
   12.8302  -18.1781   19.8266 C   0  0  0  0  0  0  0  0  0  0  0  0
   13.3533  -19.3073   19.5520 N   0  0  0  0  0  0  0  0  0  0  0  0
   12.0610  -18.0837   21.0208 N   0  0  0  0  0  0  0  0  0  0  0  0
   11.8670  -19.2243   21.8795 C   0  0  0  0  0  0  0  0  0  0  0  0
   11.1763  -18.9412   23.1609 C   0  0  0  0  0  0  0  0  0  0  0  0
   10.4556  -17.6939   23.3671 C   0  0  0  0  0  0  0  0  0  0  0  0
    9.5129  -17.4484   24.4736 C   0  0  2  0  0  0  0  0  0  0  0  0
    9.1951  -15.9660   24.3197 N   0  0  0  0  0  0  0  0  0  0  0  0
    9.9797  -17.6197   25.8479 C   0  0  0  0  0  0  0  0  0  0  0  0
   10.0916  -18.8153   26.3328 O   0  0  0  0  0  0  0  0  0  0  0  0
   10.3360  -16.6351   26.7275 O   0  0  0  0  0  0  0  0  0  0  0  0
  2  1  1  1
  2  3  1  0
  4  6  1  0
  4  2  1  0
  4  5  1  6
  6  7  2  0
  9  8  1  0
 10  9  1  0
 11 10  1  0
 12 11  1  1
 13  6  1  0
 13 12  1  0
 14 15  2  0
 14 12  1  0
 16 17  1  0
 17 18  2  0
 19 17  1  0
 19 20  1  0
 20 21  1  0
 21 22  1  0
 23 22  1  6
 23 24  1  0
 24 14  1  0
 25 23  1  0
 25 27  1  0
 26 25  2  0
M  END
$$$$
