VMR.pdb
     RDKit          3D

 27 26  0  0  1  0  0  0  0  0999 V2000
   10.2613  -20.1522   20.1684 C   0  0  0  0  0  0  0  0  0  0  0  0
   11.1839  -19.6851   19.0796 C   0  0  1  0  0  0  0  0  0  0  0  0
   11.5087  -20.7793   18.0922 C   0  0  0  0  0  0  0  0  0  0  0  0
   10.5864  -18.4617   18.4102 C   0  0  2  0  0  0  0  0  0  0  0  0
   11.4763  -17.9570   17.3728 N   0  0  0  0  0  0  0  0  0  0  0  0
   10.4487  -17.4241   19.4484 C   0  0  0  0  0  0  0  0  0  0  0  0
   11.4388  -17.1093   20.1374 O   0  0  0  0  0  0  0  0  0  0  0  0
    6.5240  -11.8087   20.5329 C   0  0  0  0  0  0  0  0  0  0  0  0
    6.9294  -12.6057   18.9610 S   0  0  0  0  0  0  0  0  0  0  0  0
    8.1804  -13.8510   19.1873 C   0  0  0  0  0  0  0  0  0  0  0  0
    8.0958  -14.6318   20.4764 C   0  0  0  0  0  0  0  0  0  0  0  0
    9.1043  -15.6758   20.6763 C   0  0  2  0  0  0  0  0  0  0  0  0
    9.2579  -16.7202   19.7548 N   0  0  0  0  0  0  0  0  0  0  0  0
    8.9403  -16.2642   22.0324 C   0  0  0  0  0  0  0  0  0  0  0  0
    8.3008  -17.3358   22.1725 O   0  0  0  0  0  0  0  0  0  0  0  0
   10.0813  -16.9395   30.2792 N   0  0  0  0  0  0  0  0  0  0  0  0
   10.8441  -15.7597   30.0263 C   0  0  0  0  0  0  0  0  0  0  0  0
   10.7749  -14.7575   30.8106 N   0  0  0  0  0  0  0  0  0  0  0  0
   11.7064  -15.6528   28.8988 N   0  0  0  0  0  0  0  0  0  0  0  0
   11.2664  -15.0333   27.6747 C   0  0  0  0  0  0  0  0  0  0  0  0
   10.3322  -15.8432   26.8558 C   0  0  0  0  0  0  0  0  0  0  0  0
   10.1792  -15.6010   25.4290 C   0  0  0  0  0  0  0  0  0  0  0  0
    9.2088  -16.2966   24.5644 C   0  0  2  0  0  0  0  0  0  0  0  0
    9.4733  -15.6760   23.1979 N   0  0  0  0  0  0  0  0  0  0  0  0
    7.7813  -16.1152   24.8196 C   0  0  0  0  0  0  0  0  0  0  0  0
    7.1818  -15.0710   24.3430 O   0  0  0  0  0  0  0  0  0  0  0  0
    6.9563  -16.9476   25.5245 O   0  0  0  0  0  0  0  0  0  0  0  0
  2  1  1  1
  2  3  1  0
  4  6  1  0
  4  2  1  0
  4  5  1  6
  6  7  2  0
  9  8  1  0
 10  9  1  0
 11 10  1  0
 12 11  1  6
 13  6  1  0
 13 12  1  0
 14 15  2  0
 14 12  1  0
 16 17  1  0
 17 18  2  0
 19 17  1  0
 19 20  1  0
 20 21  1  0
 21 22  1  0
 23 22  1  1
 23 24  1  0
 24 14  1  0
 25 23  1  0
 25 27  1  0
 26 25  2  0
M  END
$$$$
