VMR.pdb
     RDKit          3D

 27 26  0  0  1  0  0  0  0  0999 V2000
    7.2046  -17.0901   21.1056 C   0  0  0  0  0  0  0  0  0  0  0  0
    7.7278  -16.0660   20.1401 C   0  0  1  0  0  0  0  0  0  0  0  0
    7.1983  -16.2706   18.7416 C   0  0  0  0  0  0  0  0  0  0  0  0
    7.4274  -14.6780   20.6741 C   0  0  2  0  0  0  0  0  0  0  0  0
    7.9498  -13.6571   19.7752 N   0  0  0  0  0  0  0  0  0  0  0  0
    8.1198  -14.5535   21.9697 C   0  0  0  0  0  0  0  0  0  0  0  0
    9.3615  -14.4457   21.9948 O   0  0  0  0  0  0  0  0  0  0  0  0
    7.5627  -11.4317   27.9850 C   0  0  0  0  0  0  0  0  0  0  0  0
    6.4692  -11.2262   26.5593 S   0  0  0  0  0  0  0  0  0  0  0  0
    7.0106  -12.2342   25.1963 C   0  0  0  0  0  0  0  0  0  0  0  0
    7.4826  -13.6212   25.5598 C   0  0  0  0  0  0  0  0  0  0  0  0
    8.1103  -14.4002   24.4892 C   0  0  2  0  0  0  0  0  0  0  0  0
    7.4922  -14.5435   23.2399 N   0  0  0  0  0  0  0  0  0  0  0  0
    8.4542  -15.7530   25.0028 C   0  0  0  0  0  0  0  0  0  0  0  0
    7.5482  -16.6087   25.1574 O   0  0  0  0  0  0  0  0  0  0  0  0
   13.7725  -17.3122   20.7631 N   0  0  0  0  0  0  0  0  0  0  0  0
   12.7767  -18.3349   20.7675 C   0  0  0  0  0  0  0  0  0  0  0  0
   11.9652  -18.4595   19.7928 N   0  0  0  0  0  0  0  0  0  0  0  0
   12.6487  -19.2508   21.8497 N   0  0  0  0  0  0  0  0  0  0  0  0
   12.7077  -18.8062   23.2189 C   0  0  0  0  0  0  0  0  0  0  0  0
   11.3962  -18.5123   23.8457 C   0  0  0  0  0  0  0  0  0  0  0  0
   11.3129  -17.8925   25.1598 C   0  0  0  0  0  0  0  0  0  0  0  0
   10.0517  -17.5497   25.8418 C   0  0  2  0  0  0  0  0  0  0  0  0
    9.7689  -16.1410   25.3339 N   0  0  0  0  0  0  0  0  0  0  0  0
   10.0411  -17.4616   27.3006 C   0  0  0  0  0  0  0  0  0  0  0  0
   10.1279  -16.2988   27.8640 O   0  0  0  0  0  0  0  0  0  0  0  0
    9.9406  -18.4960   28.1895 O   0  0  0  0  0  0  0  0  0  0  0  0
  2  1  1  1
  2  3  1  0
  4  6  1  0
  4  2  1  0
  4  5  1  6
  6  7  2  0
  9  8  1  0
 10  9  1  0
 11 10  1  0
 12 11  1  1
 13  6  1  0
 13 12  1  0
 14 15  2  0
 14 12  1  0
 16 17  1  0
 17 18  2  0
 19 17  1  0
 19 20  1  0
 20 21  1  0
 21 22  1  0
 23 22  1  6
 23 24  1  0
 24 14  1  0
 25 23  1  0
 25 27  1  0
 26 25  2  0
M  END
$$$$
