VMR.pdb
     RDKit          3D

 27 26  0  0  1  0  0  0  0  0999 V2000
    8.6809  -12.0817   19.4839 C   0  0  0  0  0  0  0  0  0  0  0  0
    7.7152  -13.2272   19.3835 C   0  0  1  0  0  0  0  0  0  0  0  0
    7.1858  -13.4122   17.9824 C   0  0  0  0  0  0  0  0  0  0  0  0
    8.3738  -14.4833   19.9227 C   0  0  2  0  0  0  0  0  0  0  0  0
    7.4666  -15.6197   19.8301 N   0  0  0  0  0  0  0  0  0  0  0  0
    8.6689  -14.2402   21.3465 C   0  0  0  0  0  0  0  0  0  0  0  0
    9.6889  -13.5964   21.6613 O   0  0  0  0  0  0  0  0  0  0  0  0
    6.4853  -11.3643   27.2035 C   0  0  0  0  0  0  0  0  0  0  0  0
    6.2722  -13.1599   27.2318 S   0  0  0  0  0  0  0  0  0  0  0  0
    7.4656  -13.9552   26.1781 C   0  0  0  0  0  0  0  0  0  0  0  0
    7.0996  -14.0225   24.7151 C   0  0  0  0  0  0  0  0  0  0  0  0
    8.1413  -14.4989   23.8013 C   0  0  2  0  0  0  0  0  0  0  0  0
    7.8795  -14.6818   22.4370 N   0  0  0  0  0  0  0  0  0  0  0  0
    8.7314  -15.7532   24.3403 C   0  0  0  0  0  0  0  0  0  0  0  0
    8.0517  -16.8091   24.3441 O   0  0  0  0  0  0  0  0  0  0  0  0
   13.1613  -14.1682   21.2541 N   0  0  0  0  0  0  0  0  0  0  0  0
   13.2714  -15.4037   20.5478 C   0  0  0  0  0  0  0  0  0  0  0  0
   12.9747  -15.4766   19.3105 N   0  0  0  0  0  0  0  0  0  0  0  0
   13.7131  -16.5958   21.1884 N   0  0  0  0  0  0  0  0  0  0  0  0
   13.6194  -16.7579   22.6170 C   0  0  0  0  0  0  0  0  0  0  0  0
   12.2436  -16.9183   23.1467 C   0  0  0  0  0  0  0  0  0  0  0  0
   12.0006  -17.0769   24.5728 C   0  0  0  0  0  0  0  0  0  0  0  0
   10.6635  -17.1811   25.1845 C   0  0  2  0  0  0  0  0  0  0  0  0
   10.0404  -15.8289   24.8592 N   0  0  0  0  0  0  0  0  0  0  0  0
   10.5619  -17.3330   26.6345 C   0  0  0  0  0  0  0  0  0  0  0  0
   10.2934  -16.2954   27.3612 O   0  0  0  0  0  0  0  0  0  0  0  0
   10.7151  -18.4841   27.3567 O   0  0  0  0  0  0  0  0  0  0  0  0
  2  1  1  6
  2  3  1  0
  4  6  1  0
  4  2  1  0
  4  5  1  1
  6  7  2  0
  9  8  1  0
 10  9  1  0
 11 10  1  0
 12 11  1  1
 13  6  1  0
 13 12  1  0
 14 15  2  0
 14 12  1  0
 16 17  1  0
 17 18  2  0
 19 17  1  0
 19 20  1  0
 20 21  1  0
 21 22  1  0
 23 22  1  1
 23 24  1  0
 24 14  1  0
 25 23  1  0
 25 27  1  0
 26 25  2  0
M  END
$$$$
