SMI.pdb
     RDKit          3D

 23 22  0  0  1  0  0  0  0  0999 V2000
    9.2282  -18.7244   21.8360 O   0  0  0  0  0  0  0  0  0  0  0  0
   10.0416  -18.0970   20.8977 C   0  0  0  0  0  0  0  0  0  0  0  0
    9.6484  -16.6575   20.7475 C   0  0  2  0  0  0  0  0  0  0  0  0
   10.4636  -16.0448   19.7285 N   0  0  0  0  0  0  0  0  0  0  0  0
    9.6926  -15.9123   22.0219 C   0  0  0  0  0  0  0  0  0  0  0  0
   10.7288  -15.3439   22.4437 O   0  0  0  0  0  0  0  0  0  0  0  0
    6.0372  -11.6255   25.1725 C   0  0  0  0  0  0  0  0  0  0  0  0
    7.3804  -12.6132   25.8859 S   0  0  0  0  0  0  0  0  0  0  0  0
    6.9306  -14.3913   25.8874 C   0  0  0  0  0  0  0  0  0  0  0  0
    7.0509  -14.8639   24.4716 C   0  0  0  0  0  0  0  0  0  0  0  0
    8.4884  -15.0663   24.0360 C   0  0  2  0  0  0  0  0  0  0  0  0
    8.5171  -15.8303   22.8105 N   0  0  0  0  0  0  0  0  0  0  0  0
    9.1177  -15.9268   25.1022 C   0  0  0  0  0  0  0  0  0  0  0  0
    8.6413  -17.0539   25.2736 O   0  0  0  0  0  0  0  0  0  0  0  0
    9.9171  -13.3938   29.7062 C   0  0  0  0  0  0  0  0  0  0  0  0
   10.3981  -13.9293   28.3474 C   0  0  0  0  0  0  0  0  0  0  0  0
   10.2797  -15.4356   28.3765 C   0  0  2  0  0  0  0  0  0  0  0  0
   11.3338  -15.8769   29.3797 C   0  0  0  0  0  0  0  0  0  0  0  0
   10.5933  -16.0981   27.0796 C   0  0  2  0  0  0  0  0  0  0  0  0
   10.1855  -15.5080   25.8778 N   0  0  0  0  0  0  0  0  0  0  0  0
   10.2817  -17.5224   27.1101 C   0  0  0  0  0  0  0  0  0  0  0  0
   11.3505  -18.4248   27.3137 O   0  0  0  0  0  0  0  0  0  0  0  0
    9.1687  -18.0611   26.9767 O   0  0  0  0  0  0  0  0  0  0  0  0
  2  1  1  0
  3  2  1  0
  3  4  1  6
  3  5  1  0
  5 12  1  0
  5  6  2  0
  7  8  1  0
  8  9  1  0
  9 10  1  0
 11 10  1  1
 11 13  1  0
 12 11  1  0
 13 14  2  0
 16 15  1  0
 17 18  1  1
 17 16  1  0
 19 17  1  0
 20 13  1  0
 19 20  1  6
 21 22  1  0
 21 19  1  0
 23 21  2  0
M  END
$$$$
