SMI.pdb
     RDKit          3D

 23 22  0  0  1  0  0  0  0  0999 V2000
   10.6124  -18.9119   21.4657 O   0  0  0  0  0  0  0  0  0  0  0  0
    9.5158  -18.3364   20.8317 C   0  0  0  0  0  0  0  0  0  0  0  0
    9.7707  -16.8820   20.5684 C   0  0  2  0  0  0  0  0  0  0  0  0
   10.8986  -16.7493   19.6804 N   0  0  0  0  0  0  0  0  0  0  0  0
    9.9376  -16.0933   21.8059 C   0  0  0  0  0  0  0  0  0  0  0  0
   11.0408  -15.6170   22.1672 O   0  0  0  0  0  0  0  0  0  0  0  0
    5.6692  -11.8801   26.9610 C   0  0  0  0  0  0  0  0  0  0  0  0
    5.7669  -13.0796   25.6044 S   0  0  0  0  0  0  0  0  0  0  0  0
    7.4992  -13.6354   25.3707 C   0  0  0  0  0  0  0  0  0  0  0  0
    7.5022  -14.5324   24.1717 C   0  0  0  0  0  0  0  0  0  0  0  0
    8.8904  -15.0089   23.7933 C   0  0  2  0  0  0  0  0  0  0  0  0
    8.8067  -15.8590   22.6285 N   0  0  0  0  0  0  0  0  0  0  0  0
    9.3462  -15.8788   24.9373 C   0  0  0  0  0  0  0  0  0  0  0  0
    9.1677  -17.0965   24.8280 O   0  0  0  0  0  0  0  0  0  0  0  0
   10.2471  -13.3117   29.6973 C   0  0  0  0  0  0  0  0  0  0  0  0
   10.9011  -14.0662   28.5279 C   0  0  0  0  0  0  0  0  0  0  0  0
   10.3755  -15.4830   28.5408 C   0  0  2  0  0  0  0  0  0  0  0  0
   11.3896  -16.2535   29.3715 C   0  0  0  0  0  0  0  0  0  0  0  0
   10.3185  -16.1255   27.1979 C   0  0  2  0  0  0  0  0  0  0  0  0
    9.9437  -15.3726   26.0792 N   0  0  0  0  0  0  0  0  0  0  0  0
    9.6222  -17.4062   27.2398 C   0  0  0  0  0  0  0  0  0  0  0  0
   10.4050  -18.5759   27.3709 O   0  0  0  0  0  0  0  0  0  0  0  0
    8.3970  -17.6090   27.1733 O   0  0  0  0  0  0  0  0  0  0  0  0
  2  1  1  0
  3  2  1  0
  3  4  1  6
  3  5  1  0
  5 12  1  0
  5  6  2  0
  7  8  1  0
  8  9  1  0
  9 10  1  0
 11 10  1  1
 11 13  1  0
 12 11  1  0
 13 14  2  0
 16 15  1  0
 17 18  1  1
 17 16  1  0
 19 17  1  0
 20 13  1  0
 19 20  1  6
 21 22  1  0
 21 19  1  0
 23 21  2  0
M  END
$$$$
