SMI.pdb
     RDKit          3D

 23 22  0  0  1  0  0  0  0  0999 V2000
    8.0775  -19.1798   24.3062 O   0  0  0  0  0  0  0  0  0  0  0  0
    6.9699  -19.1805   23.4642 C   0  0  0  0  0  0  0  0  0  0  0  0
    7.4000  -19.0063   22.0380 C   0  0  2  0  0  0  0  0  0  0  0  0
    8.1435  -20.1683   21.6194 N   0  0  0  0  0  0  0  0  0  0  0  0
    8.1471  -17.7527   21.8108 C   0  0  0  0  0  0  0  0  0  0  0  0
    9.3715  -17.7288   21.5374 O   0  0  0  0  0  0  0  0  0  0  0  0
    8.1333  -11.5914   19.8193 C   0  0  0  0  0  0  0  0  0  0  0  0
    8.1274  -13.1529   18.8971 S   0  0  0  0  0  0  0  0  0  0  0  0
    6.9180  -14.3203   19.6312 C   0  0  0  0  0  0  0  0  0  0  0  0
    7.1106  -14.2584   21.1149 C   0  0  0  0  0  0  0  0  0  0  0  0
    8.1233  -15.2655   21.6221 C   0  0  2  0  0  0  0  0  0  0  0  0
    7.4587  -16.5166   21.9037 N   0  0  0  0  0  0  0  0  0  0  0  0
    8.6093  -14.7221   22.9419 C   0  0  0  0  0  0  0  0  0  0  0  0
    9.3790  -13.7562   22.9070 O   0  0  0  0  0  0  0  0  0  0  0  0
    7.0061  -11.5484   27.2134 C   0  0  0  0  0  0  0  0  0  0  0  0
    7.9037  -12.7869   27.0556 C   0  0  0  0  0  0  0  0  0  0  0  0
    7.5087  -13.4831   25.7737 C   0  0  2  0  0  0  0  0  0  0  0  0
    6.1265  -14.0475   26.0620 C   0  0  0  0  0  0  0  0  0  0  0  0
    8.3890  -14.6265   25.4034 C   0  0  2  0  0  0  0  0  0  0  0  0
    8.2320  -15.2551   24.1628 N   0  0  0  0  0  0  0  0  0  0  0  0
    8.4994  -15.5973   26.4860 C   0  0  0  0  0  0  0  0  0  0  0  0
    8.9230  -15.1270   27.7499 O   0  0  0  0  0  0  0  0  0  0  0  0
    8.2632  -16.8175   26.4412 O   0  0  0  0  0  0  0  0  0  0  0  0
  2  1  1  0
  3  2  1  0
  3  4  1  1
  3  5  1  0
  5 12  1  0
  5  6  2  0
  7  8  1  0
  8  9  1  0
  9 10  1  0
 11 10  1  1
 11 13  1  0
 12 11  1  0
 13 14  2  0
 16 15  1  0
 17 18  1  1
 17 16  1  0
 19 17  1  0
 20 13  1  0
 19 20  1  6
 21 22  1  0
 21 19  1  0
 23 21  2  0
M  END
$$$$
