SMI.pdb
     RDKit          3D

 23 22  0  0  1  0  0  0  0  0999 V2000
   10.2002  -18.6186   21.9098 O   0  0  0  0  0  0  0  0  0  0  0  0
   10.6965  -17.8220   20.8828 C   0  0  0  0  0  0  0  0  0  0  0  0
    9.8559  -16.5897   20.7271 C   0  0  2  0  0  0  0  0  0  0  0  0
   10.3182  -15.8386   19.5868 N   0  0  0  0  0  0  0  0  0  0  0  0
    9.8046  -15.7688   21.9538 C   0  0  0  0  0  0  0  0  0  0  0  0
   10.6358  -14.8625   22.2030 O   0  0  0  0  0  0  0  0  0  0  0  0
    6.9214  -11.7803   25.9921 C   0  0  0  0  0  0  0  0  0  0  0  0
    5.8120  -13.1289   25.5032 S   0  0  0  0  0  0  0  0  0  0  0  0
    6.4924  -14.0165   24.0494 C   0  0  0  0  0  0  0  0  0  0  0  0
    7.2410  -15.1988   24.5822 C   0  0  0  0  0  0  0  0  0  0  0  0
    8.6835  -15.2430   24.1193 C   0  0  2  0  0  0  0  0  0  0  0  0
    8.7738  -16.0084   22.8976 N   0  0  0  0  0  0  0  0  0  0  0  0
    9.4252  -16.0196   25.1774 C   0  0  0  0  0  0  0  0  0  0  0  0
    9.7363  -17.1852   24.9099 O   0  0  0  0  0  0  0  0  0  0  0  0
    9.9381  -13.2803   29.5504 C   0  0  0  0  0  0  0  0  0  0  0  0
   10.9640  -14.0994   28.7498 C   0  0  0  0  0  0  0  0  0  0  0  0
   10.5311  -15.5468   28.7891 C   0  0  2  0  0  0  0  0  0  0  0  0
   11.6622  -16.2587   29.5145 C   0  0  0  0  0  0  0  0  0  0  0  0
   10.3935  -16.1798   27.4476 C   0  0  2  0  0  0  0  0  0  0  0  0
    9.7621  -15.4851   26.4095 N   0  0  0  0  0  0  0  0  0  0  0  0
    9.9122  -17.5530   27.5439 C   0  0  0  0  0  0  0  0  0  0  0  0
   10.8737  -18.5891   27.5271 O   0  0  0  0  0  0  0  0  0  0  0  0
    8.7350  -17.9419   27.6413 O   0  0  0  0  0  0  0  0  0  0  0  0
  2  1  1  0
  3  2  1  0
  3  4  1  6
  3  5  1  0
  5 12  1  0
  5  6  2  0
  7  8  1  0
  8  9  1  0
  9 10  1  0
 11 10  1  1
 11 13  1  0
 12 11  1  0
 13 14  2  0
 16 15  1  0
 17 18  1  1
 17 16  1  0
 19 17  1  0
 20 13  1  0
 19 20  1  6
 21 22  1  0
 21 19  1  0
 23 21  2  0
M  END
$$$$
