SMI.pdb
     RDKit          3D

 23 22  0  0  1  0  0  0  0  0999 V2000
    9.5863  -18.9795   21.3592 O   0  0  0  0  0  0  0  0  0  0  0  0
    8.3616  -18.3569   21.1392 C   0  0  0  0  0  0  0  0  0  0  0  0
    8.5705  -16.9402   20.6934 C   0  0  2  0  0  0  0  0  0  0  0  0
    9.3908  -16.9298   19.5080 N   0  0  0  0  0  0  0  0  0  0  0  0
    9.1170  -16.0757   21.7590 C   0  0  0  0  0  0  0  0  0  0  0  0
   10.3127  -15.6961   21.7828 O   0  0  0  0  0  0  0  0  0  0  0  0
    5.1477  -13.3317   26.3385 C   0  0  0  0  0  0  0  0  0  0  0  0
    6.4739  -12.1412   26.0028 S   0  0  0  0  0  0  0  0  0  0  0  0
    7.9969  -13.0176   25.4769 C   0  0  0  0  0  0  0  0  0  0  0  0
    7.5710  -14.0605   24.4904 C   0  0  0  0  0  0  0  0  0  0  0  0
    8.7397  -14.7977   23.8678 C   0  0  2  0  0  0  0  0  0  0  0  0
    8.2599  -15.6512   22.8058 N   0  0  0  0  0  0  0  0  0  0  0  0
    9.2707  -15.7032   24.9499 C   0  0  0  0  0  0  0  0  0  0  0  0
    8.8274  -16.8558   24.9912 O   0  0  0  0  0  0  0  0  0  0  0  0
   10.4059  -14.7283   30.2653 C   0  0  0  0  0  0  0  0  0  0  0  0
   10.5321  -14.3458   28.7813 C   0  0  0  0  0  0  0  0  0  0  0  0
   11.3603  -15.4099   28.0989 C   0  0  2  0  0  0  0  0  0  0  0  0
   12.5606  -14.6569   27.5472 C   0  0  0  0  0  0  0  0  0  0  0  0
   10.6803  -16.0691   26.9490 C   0  0  2  0  0  0  0  0  0  0  0  0
   10.2155  -15.2980   25.8774 N   0  0  0  0  0  0  0  0  0  0  0  0
    9.6772  -17.0305   27.3921 C   0  0  0  0  0  0  0  0  0  0  0  0
   10.1145  -18.1222   28.1764 O   0  0  0  0  0  0  0  0  0  0  0  0
    8.4548  -17.0149   27.1640 O   0  0  0  0  0  0  0  0  0  0  0  0
  2  1  1  0
  3  2  1  0
  3  4  1  6
  3  5  1  0
  5 12  1  0
  5  6  2  0
  7  8  1  0
  8  9  1  0
  9 10  1  0
 11 10  1  1
 11 13  1  0
 12 11  1  0
 13 14  2  0
 16 15  1  0
 17 18  1  6
 17 16  1  0
 19 17  1  0
 20 13  1  0
 19 20  1  6
 21 22  1  0
 21 19  1  0
 23 21  2  0
M  END
$$$$
