SMI.pdb
     RDKit          3D

 23 22  0  0  1  0  0  0  0  0999 V2000
    7.8571  -20.5841   23.2604 O   0  0  0  0  0  0  0  0  0  0  0  0
    7.5883  -20.8508   24.5992 C   0  0  0  0  0  0  0  0  0  0  0  0
    6.3455  -20.1325   25.0337 C   0  0  2  0  0  0  0  0  0  0  0  0
    5.1948  -20.7763   24.4510 N   0  0  0  0  0  0  0  0  0  0  0  0
    6.3846  -18.6853   24.7410 C   0  0  0  0  0  0  0  0  0  0  0  0
    5.5583  -18.1203   23.9844 O   0  0  0  0  0  0  0  0  0  0  0  0
    8.7928  -13.7037   28.8014 C   0  0  0  0  0  0  0  0  0  0  0  0
    9.6513  -13.7367   27.2043 S   0  0  0  0  0  0  0  0  0  0  0  0
    8.5250  -14.3424   25.8895 C   0  0  0  0  0  0  0  0  0  0  0  0
    8.3751  -15.8172   26.1010 C   0  0  0  0  0  0  0  0  0  0  0  0
    7.5107  -16.4808   25.0476 C   0  0  2  0  0  0  0  0  0  0  0  0
    7.3971  -17.8914   25.3367 N   0  0  0  0  0  0  0  0  0  0  0  0
    8.2803  -16.3599   23.7568 C   0  0  0  0  0  0  0  0  0  0  0  0
    9.1704  -17.1913   23.5488 O   0  0  0  0  0  0  0  0  0  0  0  0
    7.4163  -12.1871   19.6612 C   0  0  0  0  0  0  0  0  0  0  0  0
    8.1226  -12.9669   20.7826 C   0  0  0  0  0  0  0  0  0  0  0  0
    7.9519  -14.4412   20.4980 C   0  0  2  0  0  0  0  0  0  0  0  0
    6.4477  -14.6606   20.5364 C   0  0  0  0  0  0  0  0  0  0  0  0
    8.5594  -15.3354   21.5230 C   0  0  2  0  0  0  0  0  0  0  0  0
    8.0304  -15.3730   22.8183 N   0  0  0  0  0  0  0  0  0  0  0  0
   10.0137  -15.2285   21.5410 C   0  0  0  0  0  0  0  0  0  0  0  0
   10.6368  -14.9476   22.7783 O   0  0  0  0  0  0  0  0  0  0  0  0
   10.7981  -15.3555   20.5844 O   0  0  0  0  0  0  0  0  0  0  0  0
  2  1  1  0
  3  2  1  0
  3  4  1  6
  3  5  1  0
  5 12  1  0
  5  6  2  0
  7  8  1  0
  8  9  1  0
  9 10  1  0
 11 10  1  1
 11 13  1  0
 12 11  1  0
 13 14  2  0
 16 15  1  0
 17 18  1  1
 17 16  1  0
 19 17  1  0
 20 13  1  0
 19 20  1  1
 21 22  1  0
 21 19  1  0
 23 21  2  0
M  END
$$$$
