SMI.pdb
     RDKit          3D

 23 22  0  0  1  0  0  0  0  0999 V2000
    8.2178  -20.2325   23.6187 O   0  0  0  0  0  0  0  0  0  0  0  0
    7.6289  -20.5548   24.8372 C   0  0  0  0  0  0  0  0  0  0  0  0
    6.2641  -19.9405   24.9345 C   0  0  2  0  0  0  0  0  0  0  0  0
    5.3096  -20.7931   24.2710 N   0  0  0  0  0  0  0  0  0  0  0  0
    6.2198  -18.5530   24.4300 C   0  0  0  0  0  0  0  0  0  0  0  0
    5.7044  -18.2443   23.3284 O   0  0  0  0  0  0  0  0  0  0  0  0
    6.9226  -11.1133   26.9944 C   0  0  0  0  0  0  0  0  0  0  0  0
    7.3578  -12.8644   27.1749 S   0  0  0  0  0  0  0  0  0  0  0  0
    6.9562  -13.7811   25.6378 C   0  0  0  0  0  0  0  0  0  0  0  0
    7.0793  -15.2374   25.9640 C   0  0  0  0  0  0  0  0  0  0  0  0
    6.7182  -16.1369   24.7989 C   0  0  2  0  0  0  0  0  0  0  0  0
    6.7821  -17.5175   25.2186 N   0  0  0  0  0  0  0  0  0  0  0  0
    7.8116  -15.9388   23.7799 C   0  0  0  0  0  0  0  0  0  0  0  0
    8.8400  -16.6100   23.9160 O   0  0  0  0  0  0  0  0  0  0  0  0
    8.2759  -11.7977   19.5831 C   0  0  0  0  0  0  0  0  0  0  0  0
    8.7869  -12.7047   20.7148 C   0  0  0  0  0  0  0  0  0  0  0  0
    8.2432  -14.0941   20.4741 C   0  0  2  0  0  0  0  0  0  0  0  0
    6.7368  -13.9011   20.3979 C   0  0  0  0  0  0  0  0  0  0  0  0
    8.5142  -15.0558   21.5791 C   0  0  2  0  0  0  0  0  0  0  0  0
    7.7061  -15.0520   22.7218 N   0  0  0  0  0  0  0  0  0  0  0  0
    9.9305  -15.0983   21.9244 C   0  0  0  0  0  0  0  0  0  0  0  0
   10.8533  -15.3519   20.8842 O   0  0  0  0  0  0  0  0  0  0  0  0
   10.4460  -14.9363   23.0445 O   0  0  0  0  0  0  0  0  0  0  0  0
  2  1  1  0
  3  2  1  0
  3  4  1  6
  3  5  1  0
  5 12  1  0
  5  6  2  0
  7  8  1  0
  8  9  1  0
  9 10  1  0
 11 10  1  1
 11 13  1  0
 12 11  1  0
 13 14  2  0
 16 15  1  0
 17 18  1  1
 17 16  1  0
 19 17  1  0
 20 13  1  0
 19 20  1  1
 21 22  1  0
 21 19  1  0
 23 21  2  0
M  END
$$$$
