SMI.pdb
     RDKit          3D

 23 22  0  0  1  0  0  0  0  0999 V2000
   10.3565  -18.5863   21.3630 O   0  0  0  0  0  0  0  0  0  0  0  0
    9.2005  -18.0600   20.7952 C   0  0  0  0  0  0  0  0  0  0  0  0
    9.3337  -16.5760   20.6241 C   0  0  2  0  0  0  0  0  0  0  0  0
   10.3592  -16.2989   19.6495 N   0  0  0  0  0  0  0  0  0  0  0  0
    9.5681  -15.8680   21.8990 C   0  0  0  0  0  0  0  0  0  0  0  0
   10.6773  -15.3694   22.2080 O   0  0  0  0  0  0  0  0  0  0  0  0
    5.4821  -11.4711   25.5891 C   0  0  0  0  0  0  0  0  0  0  0  0
    5.6199  -13.1931   26.1407 S   0  0  0  0  0  0  0  0  0  0  0  0
    7.3149  -13.8245   25.8364 C   0  0  0  0  0  0  0  0  0  0  0  0
    7.2643  -14.5796   24.5444 C   0  0  0  0  0  0  0  0  0  0  0  0
    8.6373  -14.9607   24.0280 C   0  0  2  0  0  0  0  0  0  0  0  0
    8.4981  -15.7414   22.8208 N   0  0  0  0  0  0  0  0  0  0  0  0
    9.2246  -15.8741   25.0739 C   0  0  0  0  0  0  0  0  0  0  0  0
    9.0459  -17.0881   24.9294 O   0  0  0  0  0  0  0  0  0  0  0  0
   10.9898  -14.1148   30.3023 C   0  0  0  0  0  0  0  0  0  0  0  0
   10.1915  -14.9849   29.3173 C   0  0  0  0  0  0  0  0  0  0  0  0
   11.1700  -15.5882   28.3363 C   0  0  2  0  0  0  0  0  0  0  0  0
   11.9879  -14.4046   27.8440 C   0  0  0  0  0  0  0  0  0  0  0  0
   10.5322  -16.2158   27.1452 C   0  0  2  0  0  0  0  0  0  0  0  0
    9.9403  -15.4110   26.1650 N   0  0  0  0  0  0  0  0  0  0  0  0
    9.6675  -17.3294   27.5181 C   0  0  0  0  0  0  0  0  0  0  0  0
   10.2556  -18.4174   28.2026 O   0  0  0  0  0  0  0  0  0  0  0  0
    8.4479  -17.4501   27.3068 O   0  0  0  0  0  0  0  0  0  0  0  0
  2  1  1  0
  3  2  1  0
  3  4  1  6
  3  5  1  0
  5 12  1  0
  5  6  2  0
  7  8  1  0
  8  9  1  0
  9 10  1  0
 11 10  1  1
 11 13  1  0
 12 11  1  0
 13 14  2  0
 16 15  1  0
 17 18  1  6
 17 16  1  0
 19 17  1  0
 20 13  1  0
 19 20  1  1
 21 22  1  0
 21 19  1  0
 23 21  2  0
M  END
$$$$
