SMI.pdb
     RDKit          3D

 23 22  0  0  1  0  0  0  0  0999 V2000
   10.4686  -18.9558   21.5504 O   0  0  0  0  0  0  0  0  0  0  0  0
    9.3163  -18.5163   20.9064 C   0  0  0  0  0  0  0  0  0  0  0  0
    9.4847  -17.0983   20.4479 C   0  0  2  0  0  0  0  0  0  0  0  0
   10.4834  -17.0489   19.4094 N   0  0  0  0  0  0  0  0  0  0  0  0
    9.7825  -16.1667   21.5546 C   0  0  0  0  0  0  0  0  0  0  0  0
   10.9203  -15.6718   21.7418 O   0  0  0  0  0  0  0  0  0  0  0  0
    5.5456  -12.7752   26.8501 C   0  0  0  0  0  0  0  0  0  0  0  0
    6.2693  -12.3694   25.2376 S   0  0  0  0  0  0  0  0  0  0  0  0
    7.8845  -13.2145   25.0348 C   0  0  0  0  0  0  0  0  0  0  0  0
    7.6940  -14.2512   23.9712 C   0  0  0  0  0  0  0  0  0  0  0  0
    8.9874  -14.9327   23.5715 C   0  0  2  0  0  0  0  0  0  0  0  0
    8.7428  -15.8101   22.4504 N   0  0  0  0  0  0  0  0  0  0  0  0
    9.3612  -15.8098   24.7394 C   0  0  0  0  0  0  0  0  0  0  0  0
    8.9472  -16.9739   24.7278 O   0  0  0  0  0  0  0  0  0  0  0  0
   10.0898  -14.3981   30.2046 C   0  0  0  0  0  0  0  0  0  0  0  0
    9.6413  -15.1790   28.9583 C   0  0  0  0  0  0  0  0  0  0  0  0
   10.8800  -15.5571   28.1796 C   0  0  2  0  0  0  0  0  0  0  0  0
   11.5902  -14.2347   27.9362 C   0  0  0  0  0  0  0  0  0  0  0  0
   10.6027  -16.1659   26.8486 C   0  0  2  0  0  0  0  0  0  0  0  0
   10.1340  -15.3668   25.7995 N   0  0  0  0  0  0  0  0  0  0  0  0
    9.8340  -17.3995   26.9673 C   0  0  0  0  0  0  0  0  0  0  0  0
    8.5277  -17.4145   26.4273 O   0  0  0  0  0  0  0  0  0  0  0  0
   10.1870  -18.4685   27.4958 O   0  0  0  0  0  0  0  0  0  0  0  0
  2  1  1  0
  3  2  1  0
  3  4  1  6
  3  5  1  0
  5 12  1  0
  5  6  2  0
  7  8  1  0
  8  9  1  0
  9 10  1  0
 11 10  1  1
 11 13  1  0
 12 11  1  0
 13 14  2  0
 16 15  1  0
 17 18  1  6
 17 16  1  0
 19 17  1  0
 20 13  1  0
 19 20  1  6
 21 22  1  0
 21 19  1  0
 23 21  2  0
M  END
$$$$
