SMI.pdb
     RDKit          3D

 23 22  0  0  1  0  0  0  0  0999 V2000
   10.2205  -18.6909   21.8019 O   0  0  0  0  0  0  0  0  0  0  0  0
    9.0345  -18.3714   21.1484 C   0  0  0  0  0  0  0  0  0  0  0  0
    9.0195  -16.9181   20.7781 C   0  0  2  0  0  0  0  0  0  0  0  0
    9.9874  -16.6819   19.7362 N   0  0  0  0  0  0  0  0  0  0  0  0
    9.2180  -16.0260   21.9384 C   0  0  0  0  0  0  0  0  0  0  0  0
   10.2499  -15.3292   22.0939 O   0  0  0  0  0  0  0  0  0  0  0  0
    6.8521  -11.1267   25.4422 C   0  0  0  0  0  0  0  0  0  0  0  0
    5.9140  -12.6328   25.8167 S   0  0  0  0  0  0  0  0  0  0  0  0
    7.0479  -14.0663   25.9706 C   0  0  0  0  0  0  0  0  0  0  0  0
    6.9800  -14.8064   24.6707 C   0  0  0  0  0  0  0  0  0  0  0  0
    8.3468  -15.0934   24.0817 C   0  0  2  0  0  0  0  0  0  0  0  0
    8.2031  -15.9472   22.9254 N   0  0  0  0  0  0  0  0  0  0  0  0
    9.0790  -15.8945   25.1281 C   0  0  0  0  0  0  0  0  0  0  0  0
    8.9791  -17.1248   25.0712 O   0  0  0  0  0  0  0  0  0  0  0  0
   10.2868  -13.7251   30.1123 C   0  0  0  0  0  0  0  0  0  0  0  0
    9.9061  -15.0082   29.3552 C   0  0  0  0  0  0  0  0  0  0  0  0
   10.9957  -15.2897   28.3465 C   0  0  2  0  0  0  0  0  0  0  0  0
   11.4687  -13.9124   27.9087 C   0  0  0  0  0  0  0  0  0  0  0  0
   10.5292  -16.0091   27.1283 C   0  0  2  0  0  0  0  0  0  0  0  0
    9.8415  -15.3135   26.1272 N   0  0  0  0  0  0  0  0  0  0  0  0
    9.8651  -17.2640   27.4619 C   0  0  0  0  0  0  0  0  0  0  0  0
   10.6270  -18.2559   28.1204 O   0  0  0  0  0  0  0  0  0  0  0  0
    8.6846  -17.5838   27.2365 O   0  0  0  0  0  0  0  0  0  0  0  0
  2  1  1  0
  3  2  1  0
  3  4  1  6
  3  5  1  0
  5 12  1  0
  5  6  2  0
  7  8  1  0
  8  9  1  0
  9 10  1  0
 11 10  1  1
 11 13  1  0
 12 11  1  0
 13 14  2  0
 16 15  1  0
 17 18  1  6
 17 16  1  0
 19 17  1  0
 20 13  1  0
 19 20  1  1
 21 22  1  0
 21 19  1  0
 23 21  2  0
M  END
$$$$
