SMI.pdb
     RDKit          3D

 23 22  0  0  1  0  0  0  0  0999 V2000
    7.6634  -17.4172   20.4099 O   0  0  0  0  0  0  0  0  0  0  0  0
    6.7160  -16.4043   20.3001 C   0  0  0  0  0  0  0  0  0  0  0  0
    7.3857  -15.0623   20.3048 C   0  0  2  0  0  0  0  0  0  0  0  0
    8.1917  -14.9280   19.1171 N   0  0  0  0  0  0  0  0  0  0  0  0
    8.1594  -14.8091   21.5371 C   0  0  0  0  0  0  0  0  0  0  0  0
    9.4137  -14.8208   21.5691 O   0  0  0  0  0  0  0  0  0  0  0  0
    5.9104  -11.0151   26.4268 C   0  0  0  0  0  0  0  0  0  0  0  0
    6.5914  -12.4545   27.2945 S   0  0  0  0  0  0  0  0  0  0  0  0
    7.8693  -13.2723   26.2637 C   0  0  0  0  0  0  0  0  0  0  0  0
    7.2183  -13.5992   24.9554 C   0  0  0  0  0  0  0  0  0  0  0  0
    8.1692  -14.2436   23.9666 C   0  0  2  0  0  0  0  0  0  0  0  0
    7.4624  -14.5401   22.7423 N   0  0  0  0  0  0  0  0  0  0  0  0
    8.5561  -15.5658   24.5790 C   0  0  0  0  0  0  0  0  0  0  0  0
    7.7534  -16.4982   24.4656 O   0  0  0  0  0  0  0  0  0  0  0  0
   13.1600  -17.9591   23.4313 C   0  0  0  0  0  0  0  0  0  0  0  0
   11.7179  -17.5232   23.7388 C   0  0  0  0  0  0  0  0  0  0  0  0
   11.5515  -17.5041   25.2407 C   0  0  2  0  0  0  0  0  0  0  0  0
   11.6528  -18.9652   25.6495 C   0  0  0  0  0  0  0  0  0  0  0  0
   10.2267  -17.0027   25.7021 C   0  0  2  0  0  0  0  0  0  0  0  0
    9.7514  -15.7669   25.2484 N   0  0  0  0  0  0  0  0  0  0  0  0
   10.0685  -17.1406   27.1453 C   0  0  0  0  0  0  0  0  0  0  0  0
    9.9725  -18.4480   27.6739 O   0  0  0  0  0  0  0  0  0  0  0  0
   10.0054  -16.2339   27.9942 O   0  0  0  0  0  0  0  0  0  0  0  0
  2  1  1  0
  3  2  1  0
  3  4  1  6
  3  5  1  0
  5 12  1  0
  5  6  2  0
  7  8  1  0
  8  9  1  0
  9 10  1  0
 11 10  1  1
 11 13  1  0
 12 11  1  0
 13 14  2  0
 16 15  1  0
 17 18  1  6
 17 16  1  0
 19 17  1  0
 20 13  1  0
 19 20  1  1
 21 22  1  0
 21 19  1  0
 23 21  2  0
M  END
$$$$
