SMI.pdb
     RDKit          3D

 23 22  0  0  1  0  0  0  0  0999 V2000
   10.5442  -18.5640   21.4249 O   0  0  0  0  0  0  0  0  0  0  0  0
    9.3353  -18.1988   20.8409 C   0  0  0  0  0  0  0  0  0  0  0  0
    9.3242  -16.7289   20.5430 C   0  0  2  0  0  0  0  0  0  0  0  0
   10.2916  -16.4443   19.5128 N   0  0  0  0  0  0  0  0  0  0  0  0
    9.5268  -15.8959   21.7457 C   0  0  0  0  0  0  0  0  0  0  0  0
   10.6028  -15.2973   21.9871 O   0  0  0  0  0  0  0  0  0  0  0  0
    5.2735  -11.3740   25.3354 C   0  0  0  0  0  0  0  0  0  0  0  0
    5.4517  -13.1174   25.8017 S   0  0  0  0  0  0  0  0  0  0  0  0
    7.1775  -13.6754   25.5286 C   0  0  0  0  0  0  0  0  0  0  0  0
    7.1704  -14.4861   24.2696 C   0  0  0  0  0  0  0  0  0  0  0  0
    8.5618  -14.8610   23.8001 C   0  0  2  0  0  0  0  0  0  0  0  0
    8.4639  -15.7610   22.6745 N   0  0  0  0  0  0  0  0  0  0  0  0
    9.1748  -15.6439   24.9334 C   0  0  0  0  0  0  0  0  0  0  0  0
    9.2686  -16.8675   24.7900 O   0  0  0  0  0  0  0  0  0  0  0  0
   11.6618  -14.8804   30.6003 C   0  0  0  0  0  0  0  0  0  0  0  0
   11.4323  -15.7929   29.3842 C   0  0  0  0  0  0  0  0  0  0  0  0
   10.8732  -14.9421   28.2674 C   0  0  2  0  0  0  0  0  0  0  0  0
    9.7535  -14.1488   28.9226 C   0  0  0  0  0  0  0  0  0  0  0  0
   10.2724  -15.7208   27.1484 C   0  0  2  0  0  0  0  0  0  0  0  0
    9.6258  -15.0534   26.1018 N   0  0  0  0  0  0  0  0  0  0  0  0
    9.4831  -16.8464   27.6350 C   0  0  0  0  0  0  0  0  0  0  0  0
   10.1795  -17.9641   28.1488 O   0  0  0  0  0  0  0  0  0  0  0  0
    8.2444  -16.9543   27.6574 O   0  0  0  0  0  0  0  0  0  0  0  0
  2  1  1  0
  3  2  1  0
  3  4  1  6
  3  5  1  0
  5 12  1  0
  5  6  2  0
  7  8  1  0
  8  9  1  0
  9 10  1  0
 11 10  1  1
 11 13  1  0
 12 11  1  0
 13 14  2  0
 16 15  1  0
 17 18  1  1
 17 16  1  0
 19 17  1  0
 20 13  1  0
 19 20  1  1
 21 22  1  0
 21 19  1  0
 23 21  2  0
M  END
$$$$
