SMI.pdb
     RDKit          3D

 23 22  0  0  1  0  0  0  0  0999 V2000
    9.2658  -19.4657   20.5181 O   0  0  0  0  0  0  0  0  0  0  0  0
   10.2758  -18.5543   20.8098 C   0  0  0  0  0  0  0  0  0  0  0  0
    9.8401  -17.1635   20.4559 C   0  0  2  0  0  0  0  0  0  0  0  0
   10.5706  -16.7161   19.2964 N   0  0  0  0  0  0  0  0  0  0  0  0
    9.9527  -16.2196   21.5863 C   0  0  0  0  0  0  0  0  0  0  0  0
   10.9916  -15.5555   21.8191 O   0  0  0  0  0  0  0  0  0  0  0  0
    5.3669  -12.6743   26.9174 C   0  0  0  0  0  0  0  0  0  0  0  0
    5.7538  -13.0935   25.1961 S   0  0  0  0  0  0  0  0  0  0  0  0
    7.4776  -13.7060   25.0629 C   0  0  0  0  0  0  0  0  0  0  0  0
    7.5065  -14.6528   23.9033 C   0  0  0  0  0  0  0  0  0  0  0  0
    8.9019  -15.1473   23.5783 C   0  0  2  0  0  0  0  0  0  0  0  0
    8.8427  -16.0498   22.4521 N   0  0  0  0  0  0  0  0  0  0  0  0
    9.3304  -15.9641   24.7708 C   0  0  0  0  0  0  0  0  0  0  0  0
    9.1335  -17.1830   24.7219 O   0  0  0  0  0  0  0  0  0  0  0  0
   10.4809  -13.1743   29.4135 C   0  0  0  0  0  0  0  0  0  0  0  0
   11.0331  -14.0371   28.2667 C   0  0  0  0  0  0  0  0  0  0  0  0
   10.3759  -15.3952   28.3528 C   0  0  2  0  0  0  0  0  0  0  0  0
   11.2993  -16.2044   29.2499 C   0  0  0  0  0  0  0  0  0  0  0  0
   10.2800  -16.1110   27.0498 C   0  0  2  0  0  0  0  0  0  0  0  0
    9.9230  -15.4093   25.8926 N   0  0  0  0  0  0  0  0  0  0  0  0
    9.5351  -17.3588   27.1713 C   0  0  0  0  0  0  0  0  0  0  0  0
   10.2750  -18.5549   27.3117 O   0  0  0  0  0  0  0  0  0  0  0  0
    8.3009  -17.5119   27.1673 O   0  0  0  0  0  0  0  0  0  0  0  0
  2  1  1  0
  3  2  1  0
  3  4  1  6
  3  5  1  0
  5 12  1  0
  5  6  2  0
  7  8  1  0
  8  9  1  0
  9 10  1  0
 11 10  1  1
 11 13  1  0
 12 11  1  0
 13 14  2  0
 16 15  1  0
 17 18  1  1
 17 16  1  0
 19 17  1  0
 20 13  1  0
 19 20  1  6
 21 22  1  0
 21 19  1  0
 23 21  2  0
M  END
$$$$
