SMI.pdb
     RDKit          3D

 23 22  0  0  1  0  0  0  0  0999 V2000
    8.6788  -17.6256   17.6970 O   0  0  0  0  0  0  0  0  0  0  0  0
    9.2647  -16.7077   18.5631 C   0  0  0  0  0  0  0  0  0  0  0  0
    9.3494  -17.2788   19.9473 C   0  0  2  0  0  0  0  0  0  0  0  0
    8.1316  -17.9907   20.2443 N   0  0  0  0  0  0  0  0  0  0  0  0
    9.6669  -16.2626   20.9711 C   0  0  0  0  0  0  0  0  0  0  0  0
   10.6822  -15.5278   20.9104 O   0  0  0  0  0  0  0  0  0  0  0  0
    5.3927  -13.3475   26.2177 C   0  0  0  0  0  0  0  0  0  0  0  0
    5.9888  -12.7207   24.6239 S   0  0  0  0  0  0  0  0  0  0  0  0
    7.7074  -13.2855   24.3211 C   0  0  0  0  0  0  0  0  0  0  0  0
    7.6126  -14.4821   23.4259 C   0  0  0  0  0  0  0  0  0  0  0  0
    8.9680  -15.0275   23.0225 C   0  0  2  0  0  0  0  0  0  0  0  0
    8.7914  -16.1034   22.0750 N   0  0  0  0  0  0  0  0  0  0  0  0
    9.5480  -15.6375   24.2732 C   0  0  0  0  0  0  0  0  0  0  0  0
    9.8576  -16.8329   24.2286 O   0  0  0  0  0  0  0  0  0  0  0  0
   11.3795  -14.1635   30.0484 C   0  0  0  0  0  0  0  0  0  0  0  0
   11.4404  -15.1349   28.8580 C   0  0  0  0  0  0  0  0  0  0  0  0
   10.7532  -14.4729   27.6861 C   0  0  2  0  0  0  0  0  0  0  0  0
    9.4744  -13.8982   28.2749 C   0  0  0  0  0  0  0  0  0  0  0  0
   10.3607  -15.4120   26.5983 C   0  0  2  0  0  0  0  0  0  0  0  0
    9.7414  -14.9219   25.4427 N   0  0  0  0  0  0  0  0  0  0  0  0
    9.6700  -16.5859   27.1196 C   0  0  0  0  0  0  0  0  0  0  0  0
   10.4463  -17.5670   27.7774 O   0  0  0  0  0  0  0  0  0  0  0  0
    8.4548  -16.8432   27.0593 O   0  0  0  0  0  0  0  0  0  0  0  0
  2  1  1  0
  3  2  1  0
  3  4  1  1
  3  5  1  0
  5 12  1  0
  5  6  2  0
  7  8  1  0
  8  9  1  0
  9 10  1  0
 11 10  1  1
 11 13  1  0
 12 11  1  0
 13 14  2  0
 16 15  1  0
 17 18  1  1
 17 16  1  0
 19 17  1  0
 20 13  1  0
 19 20  1  6
 21 22  1  0
 21 19  1  0
 23 21  2  0
M  END
$$$$
