KYD.pdb
     RDKit          3D

 30 30  0  0  1  0  0  0  0  0999 V2000
   28.1139  -20.9797  -17.4655 N   0  0  0  0  0  0  0  0  0  0  0  0
   27.0062  -21.9240  -17.6493 C   0  0  1  0  0  0  0  0  0  0  0  0
   27.5459  -23.2627  -18.1085 C   0  0  0  0  0  0  0  0  0  0  0  0
   27.7584  -23.3250  -19.5824 C   0  0  0  0  0  0  0  0  0  0  0  0
   29.0841  -22.7345  -20.0110 C   0  0  0  0  0  0  0  0  0  0  0  0
   29.2165  -22.7997  -21.5178 C   0  0  0  0  0  0  0  0  0  0  0  0
   30.4764  -22.1701  -21.8948 N   0  0  0  0  0  0  0  0  0  0  0  0
   26.3226  -22.0389  -16.3356 C   0  0  0  0  0  0  0  0  0  0  0  0
   25.5691  -23.0045  -16.0518 O   0  0  0  0  0  0  0  0  0  0  0  0
   24.3626  -20.3509   -7.8084 O   0  0  0  0  0  0  0  0  0  0  0  0
   24.9255  -20.3753   -9.0783 C   0  0  0  0  0  0  0  0  0  0  0  0
   26.0120  -21.1866   -9.3742 C   0  0  0  0  0  0  0  0  0  0  0  0
   26.5453  -21.1828  -10.6525 C   0  0  0  0  0  0  0  0  0  0  0  0
   26.0242  -20.3914  -11.6448 C   0  0  0  0  0  0  0  0  0  0  0  0
   26.5982  -20.3994  -12.9843 C   0  0  0  0  0  0  0  0  0  0  0  0
   25.7856  -21.0810  -14.0460 C   0  0  2  0  0  0  0  0  0  0  0  0
   26.4865  -21.0501  -15.3159 N   0  0  0  0  0  0  0  0  0  0  0  0
   24.3952  -20.6199  -14.1809 C   0  0  0  0  0  0  0  0  0  0  0  0
   24.1079  -19.5293  -14.7249 O   0  0  0  0  0  0  0  0  0  0  0  0
   24.9439  -19.5772  -11.3720 C   0  0  0  0  0  0  0  0  0  0  0  0
   24.4288  -19.5957  -10.0954 C   0  0  0  0  0  0  0  0  0  0  0  0
   23.3155  -21.4093  -13.6938 N   0  0  0  0  0  0  0  0  0  0  0  0
   21.9416  -21.1014  -13.6899 C   0  0  1  0  0  0  0  0  0  0  0  0
   20.9783  -22.0311  -14.3019 C   0  0  0  0  0  0  0  0  0  0  0  0
   20.1088  -21.3552  -15.2805 C   0  0  0  0  0  0  0  0  0  0  0  0
   19.8185  -20.1373  -15.2991 O   0  0  0  0  0  0  0  0  0  0  0  0
   21.4660  -20.7157  -12.3009 C   0  0  0  0  0  0  0  0  0  0  0  0
   22.1371  -21.0998  -11.3277 O   0  0  0  0  0  0  0  0  0  0  0  0
   19.5439  -22.1252  -16.2925 O   0  0  0  0  0  0  0  0  0  0  0  0
   20.3252  -19.9609  -12.0958 O   0  0  0  0  0  0  0  0  0  0  0  0
  2  1  1  1
  3  4  1  0
  3  2  1  0
  5  6  1  0
  5  4  1  0
  6  7  1  0
  8  2  1  0
  8  9  2  0
 10 11  1  0
 11 12  2  0
 12 13  1  0
 14 15  1  0
 14 13  2  0
 16 17  1  0
 16 15  1  1
 17  8  1  0
 18 16  1  0
 19 18  2  0
 20 14  1  0
 21 20  2  0
 21 11  1  0
 22 18  1  0
 23 22  1  0
 24 25  1  0
 23 24  1  1
 25 26  2  0
 27 23  1  0
 27 30  1  0
 28 27  2  0
 29 25  1  0
M  END
$$$$
