KYD.pdb
     RDKit          3D

 30 30  0  0  1  0  0  0  0  0999 V2000
   23.9829  -13.3661  -17.6121 N   0  0  0  0  0  0  0  0  0  0  0  0
   23.2292  -12.2791  -18.2469 C   0  0  1  0  0  0  0  0  0  0  0  0
   21.8411  -12.7637  -18.6110 C   0  0  0  0  0  0  0  0  0  0  0  0
   21.8555  -13.8220  -19.6604 C   0  0  0  0  0  0  0  0  0  0  0  0
   22.4361  -13.3412  -20.9726 C   0  0  0  0  0  0  0  0  0  0  0  0
   22.3711  -14.4482  -22.0035 C   0  0  0  0  0  0  0  0  0  0  0  0
   20.9815  -14.8693  -22.1366 N   0  0  0  0  0  0  0  0  0  0  0  0
   23.1727  -11.1687  -17.2619 C   0  0  0  0  0  0  0  0  0  0  0  0
   22.6630  -11.3071  -16.1210 O   0  0  0  0  0  0  0  0  0  0  0  0
   29.2198  -11.7203  -15.4385 O   0  0  0  0  0  0  0  0  0  0  0  0
   28.1856  -10.8338  -15.7117 C   0  0  0  0  0  0  0  0  0  0  0  0
   28.1007  -10.1716  -16.9285 C   0  0  0  0  0  0  0  0  0  0  0  0
   27.0543   -9.2952  -17.1631 C   0  0  0  0  0  0  0  0  0  0  0  0
   26.0891   -9.0606  -16.2166 C   0  0  0  0  0  0  0  0  0  0  0  0
   24.9951   -8.1345  -16.4800 C   0  0  0  0  0  0  0  0  0  0  0  0
   23.6362   -8.7492  -16.6464 C   0  0  2  0  0  0  0  0  0  0  0  0
   23.6992   -9.8734  -17.5611 N   0  0  0  0  0  0  0  0  0  0  0  0
   22.5534   -7.8190  -17.0017 C   0  0  0  0  0  0  0  0  0  0  0  0
   22.4369   -7.3463  -18.1554 O   0  0  0  0  0  0  0  0  0  0  0  0
   26.1544   -9.7086  -15.0000 C   0  0  0  0  0  0  0  0  0  0  0  0
   27.2024  -10.5756  -14.7868 C   0  0  0  0  0  0  0  0  0  0  0  0
   21.5875   -7.4218  -16.0345 N   0  0  0  0  0  0  0  0  0  0  0  0
   20.4465   -6.6180  -16.2196 C   0  0  1  0  0  0  0  0  0  0  0  0
   19.1670   -7.2355  -16.6043 C   0  0  0  0  0  0  0  0  0  0  0  0
   18.1286   -6.2254  -16.8729 C   0  0  0  0  0  0  0  0  0  0  0  0
   17.3051   -5.7695  -16.0472 O   0  0  0  0  0  0  0  0  0  0  0  0
   20.2293   -5.6873  -15.0402 C   0  0  0  0  0  0  0  0  0  0  0  0
   20.3951   -6.1468  -13.8972 O   0  0  0  0  0  0  0  0  0  0  0  0
   18.0353   -5.7130  -18.1633 O   0  0  0  0  0  0  0  0  0  0  0  0
   19.8584   -4.3648  -15.2036 O   0  0  0  0  0  0  0  0  0  0  0  0
  2  1  1  1
  3  4  1  0
  3  2  1  0
  5  6  1  0
  5  4  1  0
  6  7  1  0
  8  2  1  0
  8  9  2  0
 10 11  1  0
 11 12  2  0
 12 13  1  0
 14 15  1  0
 14 13  2  0
 16 17  1  0
 16 15  1  6
 17  8  1  0
 18 16  1  0
 19 18  2  0
 20 14  1  0
 21 20  2  0
 21 11  1  0
 22 18  1  0
 23 22  1  0
 24 25  1  0
 23 24  1  1
 25 26  2  0
 27 23  1  0
 27 30  1  0
 28 27  2  0
 29 25  1  0
M  END
$$$$
