KYD.pdb
     RDKit          3D

 30 30  0  0  1  0  0  0  0  0999 V2000
   21.0687  -14.7701  -18.2198 N   0  0  0  0  0  0  0  0  0  0  0  0
   21.1199  -13.9463  -19.4327 C   0  0  1  0  0  0  0  0  0  0  0  0
   20.5839  -14.7348  -20.6097 C   0  0  0  0  0  0  0  0  0  0  0  0
   20.4322  -16.1871  -20.3111 C   0  0  0  0  0  0  0  0  0  0  0  0
   19.8426  -16.9667  -21.4663 C   0  0  0  0  0  0  0  0  0  0  0  0
   19.7616  -18.4363  -21.1109 C   0  0  0  0  0  0  0  0  0  0  0  0
   21.0984  -19.0082  -21.2194 N   0  0  0  0  0  0  0  0  0  0  0  0
   20.2903  -12.7435  -19.1655 C   0  0  0  0  0  0  0  0  0  0  0  0
   20.1030  -11.8501  -20.0300 O   0  0  0  0  0  0  0  0  0  0  0  0
   16.6188  -16.9894  -15.3067 O   0  0  0  0  0  0  0  0  0  0  0  0
   16.8151  -15.7077  -15.8057 C   0  0  0  0  0  0  0  0  0  0  0  0
   17.1811  -14.6555  -14.9778 C   0  0  0  0  0  0  0  0  0  0  0  0
   17.3674  -13.3919  -15.5131 C   0  0  0  0  0  0  0  0  0  0  0  0
   17.1986  -13.1482  -16.8528 C   0  0  0  0  0  0  0  0  0  0  0  0
   17.3982  -11.8120  -17.3992 C   0  0  0  0  0  0  0  0  0  0  0  0
   18.8236  -11.3870  -17.5982 C   0  0  2  0  0  0  0  0  0  0  0  0
   19.6555  -12.5362  -17.9011 N   0  0  0  0  0  0  0  0  0  0  0  0
   19.4014  -10.5655  -16.5233 C   0  0  0  0  0  0  0  0  0  0  0  0
   20.1005  -11.0629  -15.6112 O   0  0  0  0  0  0  0  0  0  0  0  0
   16.8349  -14.1802  -17.6937 C   0  0  0  0  0  0  0  0  0  0  0  0
   16.6547  -15.4285  -17.1418 C   0  0  0  0  0  0  0  0  0  0  0  0
   19.1849   -9.1592  -16.4846 N   0  0  0  0  0  0  0  0  0  0  0  0
   19.6769   -8.2257  -15.5526 C   0  0  1  0  0  0  0  0  0  0  0  0
   21.1266   -8.1069  -15.3266 C   0  0  0  0  0  0  0  0  0  0  0  0
   21.4357   -7.1911  -14.2147 C   0  0  0  0  0  0  0  0  0  0  0  0
   21.3861   -7.4628  -12.9934 O   0  0  0  0  0  0  0  0  0  0  0  0
   19.0824   -6.8483  -15.7838 C   0  0  0  0  0  0  0  0  0  0  0  0
   18.8333   -6.5102  -16.9538 O   0  0  0  0  0  0  0  0  0  0  0  0
   21.8234   -5.8920  -14.5280 O   0  0  0  0  0  0  0  0  0  0  0  0
   18.8158   -5.9764  -14.7436 O   0  0  0  0  0  0  0  0  0  0  0  0
  2  1  1  1
  3  4  1  0
  3  2  1  0
  5  6  1  0
  5  4  1  0
  6  7  1  0
  8  2  1  0
  8  9  2  0
 10 11  1  0
 11 12  2  0
 12 13  1  0
 14 15  1  0
 14 13  2  0
 16 17  1  0
 16 15  1  1
 17  8  1  0
 18 16  1  0
 19 18  2  0
 20 14  1  0
 21 20  2  0
 21 11  1  0
 22 18  1  0
 23 22  1  0
 24 25  1  0
 23 24  1  6
 25 26  2  0
 27 23  1  0
 27 30  1  0
 28 27  2  0
 29 25  1  0
M  END
$$$$
