KYD.pdb
     RDKit          3D

 30 30  0  0  1  0  0  0  0  0999 V2000
   23.5297  -17.5515  -19.0162 N   0  0  0  0  0  0  0  0  0  0  0  0
   22.2159  -16.9756  -18.7085 C   0  0  1  0  0  0  0  0  0  0  0  0
   21.4098  -17.9540  -17.8795 C   0  0  0  0  0  0  0  0  0  0  0  0
   21.4494  -19.3413  -18.4229 C   0  0  0  0  0  0  0  0  0  0  0  0
   20.7580  -20.3445  -17.5254 C   0  0  0  0  0  0  0  0  0  0  0  0
   20.7768  -21.7144  -18.1699 C   0  0  0  0  0  0  0  0  0  0  0  0
   20.1627  -22.6628  -17.2483 N   0  0  0  0  0  0  0  0  0  0  0  0
   22.4677  -15.7154  -17.9635 C   0  0  0  0  0  0  0  0  0  0  0  0
   21.8202  -15.4031  -16.9321 O   0  0  0  0  0  0  0  0  0  0  0  0
   27.6303  -17.7072  -14.7624 O   0  0  0  0  0  0  0  0  0  0  0  0
   27.0226  -16.6331  -15.4006 C   0  0  0  0  0  0  0  0  0  0  0  0
   26.3276  -15.6654  -14.6886 C   0  0  0  0  0  0  0  0  0  0  0  0
   25.7351  -14.6096  -15.3612 C   0  0  0  0  0  0  0  0  0  0  0  0
   25.8168  -14.4920  -16.7258 C   0  0  0  0  0  0  0  0  0  0  0  0
   25.1868  -13.3746  -17.4175 C   0  0  0  0  0  0  0  0  0  0  0  0
   23.7228  -13.5224  -17.7124 C   0  0  2  0  0  0  0  0  0  0  0  0
   23.4676  -14.7834  -18.3828 N   0  0  0  0  0  0  0  0  0  0  0  0
   23.0964  -12.3943  -18.4189 C   0  0  0  0  0  0  0  0  0  0  0  0
   23.1398  -12.2860  -19.6657 O   0  0  0  0  0  0  0  0  0  0  0  0
   26.5030  -15.4431  -17.4530 C   0  0  0  0  0  0  0  0  0  0  0  0
   27.0846  -16.4845  -16.7655 C   0  0  0  0  0  0  0  0  0  0  0  0
   22.4085  -11.3762  -17.7002 N   0  0  0  0  0  0  0  0  0  0  0  0
   21.5625  -10.3708  -18.2058 C   0  0  1  0  0  0  0  0  0  0  0  0
   20.4368  -10.7301  -19.0835 C   0  0  0  0  0  0  0  0  0  0  0  0
   19.6734   -9.5445  -19.5105 C   0  0  0  0  0  0  0  0  0  0  0  0
   20.1396   -8.5178  -20.0548 O   0  0  0  0  0  0  0  0  0  0  0  0
   21.0740   -9.4525  -17.1002 C   0  0  0  0  0  0  0  0  0  0  0  0
   20.7935   -8.2789  -17.3989 O   0  0  0  0  0  0  0  0  0  0  0  0
   18.2981   -9.5431  -19.2989 O   0  0  0  0  0  0  0  0  0  0  0  0
   20.9357   -9.8820  -15.7926 O   0  0  0  0  0  0  0  0  0  0  0  0
  2  1  1  1
  3  4  1  0
  3  2  1  0
  5  6  1  0
  5  4  1  0
  6  7  1  0
  8  2  1  0
  8  9  2  0
 10 11  1  0
 11 12  2  0
 12 13  1  0
 14 15  1  0
 14 13  2  0
 16 17  1  0
 16 15  1  6
 17  8  1  0
 18 16  1  0
 19 18  2  0
 20 14  1  0
 21 20  2  0
 21 11  1  0
 22 18  1  0
 23 22  1  0
 24 25  1  0
 23 24  1  1
 25 26  2  0
 27 23  1  0
 27 30  1  0
 28 27  2  0
 29 25  1  0
M  END
$$$$
