KYD.pdb
     RDKit          3D

 30 30  0  0  1  0  0  0  0  0999 V2000
   28.0360  -24.3530  -17.6544 N   0  0  0  0  0  0  0  0  0  0  0  0
   27.5944  -22.9646  -17.4823 C   0  0  1  0  0  0  0  0  0  0  0  0
   26.9466  -22.4716  -18.7597 C   0  0  0  0  0  0  0  0  0  0  0  0
   27.9322  -22.2316  -19.8517 C   0  0  0  0  0  0  0  0  0  0  0  0
   29.1553  -21.4732  -19.3839 C   0  0  0  0  0  0  0  0  0  0  0  0
   30.0734  -21.1986  -20.5561 C   0  0  0  0  0  0  0  0  0  0  0  0
   31.2475  -20.4890  -20.0621 N   0  0  0  0  0  0  0  0  0  0  0  0
   26.6309  -22.9616  -16.3519 C   0  0  0  0  0  0  0  0  0  0  0  0
   25.8395  -23.9153  -16.1402 O   0  0  0  0  0  0  0  0  0  0  0  0
   22.6387  -20.3435   -8.8255 O   0  0  0  0  0  0  0  0  0  0  0  0
   23.4849  -20.4760   -9.9194 C   0  0  0  0  0  0  0  0  0  0  0  0
   24.6722  -21.1899   -9.8353 C   0  0  0  0  0  0  0  0  0  0  0  0
   25.4892  -21.2992  -10.9483 C   0  0  0  0  0  0  0  0  0  0  0  0
   25.1545  -20.7157  -12.1441 C   0  0  0  0  0  0  0  0  0  0  0  0
   26.0265  -20.8403  -13.3052 C   0  0  0  0  0  0  0  0  0  0  0  0
   25.5532  -21.7636  -14.3894 C   0  0  2  0  0  0  0  0  0  0  0  0
   26.5514  -21.8655  -15.4371 N   0  0  0  0  0  0  0  0  0  0  0  0
   24.2182  -21.4756  -14.9362 C   0  0  0  0  0  0  0  0  0  0  0  0
   24.0346  -20.5973  -15.8096 O   0  0  0  0  0  0  0  0  0  0  0  0
   23.9785  -20.0014  -12.2495 C   0  0  0  0  0  0  0  0  0  0  0  0
   23.1805  -19.9047  -11.1318 C   0  0  0  0  0  0  0  0  0  0  0  0
   23.0760  -22.1966  -14.4873 N   0  0  0  0  0  0  0  0  0  0  0  0
   21.7259  -21.9959  -14.8328 C   0  0  1  0  0  0  0  0  0  0  0  0
   20.9772  -23.0604  -15.5205 C   0  0  0  0  0  0  0  0  0  0  0  0
   19.6391  -22.6080  -15.9392 C   0  0  0  0  0  0  0  0  0  0  0  0
   19.3247  -21.4493  -16.2948 O   0  0  0  0  0  0  0  0  0  0  0  0
   20.9219  -21.4905  -13.6486 C   0  0  0  0  0  0  0  0  0  0  0  0
   20.8709  -22.2039  -12.6319 O   0  0  0  0  0  0  0  0  0  0  0  0
   18.6079  -23.5422  -15.9487 O   0  0  0  0  0  0  0  0  0  0  0  0
   20.2571  -20.2777  -13.6728 O   0  0  0  0  0  0  0  0  0  0  0  0
  2  1  1  6
  3  4  1  0
  3  2  1  0
  5  6  1  0
  5  4  1  0
  6  7  1  0
  8  2  1  0
  8  9  2  0
 10 11  1  0
 11 12  2  0
 12 13  1  0
 14 15  1  0
 14 13  2  0
 16 17  1  0
 16 15  1  1
 17  8  1  0
 18 16  1  0
 19 18  2  0
 20 14  1  0
 21 20  2  0
 21 11  1  0
 22 18  1  0
 23 22  1  0
 24 25  1  0
 23 24  1  1
 25 26  2  0
 27 23  1  0
 27 30  1  0
 28 27  2  0
 29 25  1  0
M  END
$$$$
