KYD.pdb
     RDKit          3D

 30 30  0  0  1  0  0  0  0  0999 V2000
   27.4597  -21.9332  -17.8527 N   0  0  0  0  0  0  0  0  0  0  0  0
   26.1654  -21.2655  -18.0294 C   0  0  1  0  0  0  0  0  0  0  0  0
   25.4767  -21.8038  -19.2665 C   0  0  0  0  0  0  0  0  0  0  0  0
   26.3853  -21.8824  -20.4453 C   0  0  0  0  0  0  0  0  0  0  0  0
   27.1532  -23.1848  -20.5100 C   0  0  0  0  0  0  0  0  0  0  0  0
   27.9872  -23.2314  -21.7729 C   0  0  0  0  0  0  0  0  0  0  0  0
   27.2064  -23.8893  -22.8137 N   0  0  0  0  0  0  0  0  0  0  0  0
   25.3721  -21.5444  -16.8050 C   0  0  0  0  0  0  0  0  0  0  0  0
   24.2025  -22.0033  -16.8514 O   0  0  0  0  0  0  0  0  0  0  0  0
   23.4424  -20.8153   -8.0949 O   0  0  0  0  0  0  0  0  0  0  0  0
   24.0896  -20.9536   -9.3165 C   0  0  0  0  0  0  0  0  0  0  0  0
   25.3762  -20.4719   -9.5140 C   0  0  0  0  0  0  0  0  0  0  0  0
   25.9877  -20.6290  -10.7467 C   0  0  0  0  0  0  0  0  0  0  0  0
   25.3509  -21.2540  -11.7890 C   0  0  0  0  0  0  0  0  0  0  0  0
   26.0092  -21.4102  -13.0798 C   0  0  0  0  0  0  0  0  0  0  0  0
   25.1129  -21.3960  -14.2833 C   0  0  2  0  0  0  0  0  0  0  0  0
   25.9005  -21.3042  -15.4982 N   0  0  0  0  0  0  0  0  0  0  0  0
   24.0292  -20.4015  -14.2611 C   0  0  0  0  0  0  0  0  0  0  0  0
   24.2476  -19.1788  -14.4206 O   0  0  0  0  0  0  0  0  0  0  0  0
   24.0714  -21.7403  -11.6141 C   0  0  0  0  0  0  0  0  0  0  0  0
   23.4813  -21.5740  -10.3814 C   0  0  0  0  0  0  0  0  0  0  0  0
   22.6781  -20.8007  -14.0580 N   0  0  0  0  0  0  0  0  0  0  0  0
   21.5222  -19.9968  -14.0507 C   0  0  1  0  0  0  0  0  0  0  0  0
   21.1448  -19.2413  -15.2563 C   0  0  0  0  0  0  0  0  0  0  0  0
   19.9615  -18.3944  -15.0254 C   0  0  0  0  0  0  0  0  0  0  0  0
   19.8726  -17.4497  -14.2085 O   0  0  0  0  0  0  0  0  0  0  0  0
   20.3192  -20.7638  -13.5322 C   0  0  0  0  0  0  0  0  0  0  0  0
   20.1941  -21.9521  -13.8749 O   0  0  0  0  0  0  0  0  0  0  0  0
   18.8192  -18.6505  -15.7776 O   0  0  0  0  0  0  0  0  0  0  0  0
   19.3765  -20.1833  -12.7029 O   0  0  0  0  0  0  0  0  0  0  0  0
  2  1  1  1
  3  4  1  0
  3  2  1  0
  5  6  1  0
  5  4  1  0
  6  7  1  0
  8  2  1  0
  8  9  2  0
 10 11  1  0
 11 12  2  0
 12 13  1  0
 14 15  1  0
 14 13  2  0
 16 17  1  0
 16 15  1  1
 17  8  1  0
 18 16  1  0
 19 18  2  0
 20 14  1  0
 21 20  2  0
 21 11  1  0
 22 18  1  0
 23 22  1  0
 24 25  1  0
 23 24  1  6
 25 26  2  0
 27 23  1  0
 27 30  1  0
 28 27  2  0
 29 25  1  0
M  END
$$$$
