KYD.pdb
     RDKit          3D

 30 30  0  0  1  0  0  0  0  0999 V2000
   19.2489  -10.8277  -15.4774 N   0  0  0  0  0  0  0  0  0  0  0  0
   20.1745   -9.9849  -16.2424 C   0  0  1  0  0  0  0  0  0  0  0  0
   19.8719  -10.1047  -17.7218 C   0  0  0  0  0  0  0  0  0  0  0  0
   19.5883  -11.5065  -18.1416 C   0  0  0  0  0  0  0  0  0  0  0  0
   20.8440  -12.2959  -18.4417 C   0  0  0  0  0  0  0  0  0  0  0  0
   20.4799  -13.6437  -19.0278 C   0  0  0  0  0  0  0  0  0  0  0  0
   21.7099  -14.3952  -19.2474 N   0  0  0  0  0  0  0  0  0  0  0  0
   19.9787   -8.5930  -15.7620 C   0  0  0  0  0  0  0  0  0  0  0  0
   18.8441   -8.1344  -15.4738 O   0  0  0  0  0  0  0  0  0  0  0  0
   18.5124   -7.1451   -9.1559 O   0  0  0  0  0  0  0  0  0  0  0  0
   19.2962   -6.9392  -10.2843 C   0  0  0  0  0  0  0  0  0  0  0  0
   20.2574   -7.8601  -10.6774 C   0  0  0  0  0  0  0  0  0  0  0  0
   21.0192   -7.6187  -11.8086 C   0  0  0  0  0  0  0  0  0  0  0  0
   20.8486   -6.4832  -12.5596 C   0  0  0  0  0  0  0  0  0  0  0  0
   21.6594   -6.2449  -13.7469 C   0  0  0  0  0  0  0  0  0  0  0  0
   20.9480   -6.3523  -15.0638 C   0  0  2  0  0  0  0  0  0  0  0  0
   21.0786   -7.6939  -15.6003 N   0  0  0  0  0  0  0  0  0  0  0  0
   21.2963   -5.3306  -16.0633 C   0  0  0  0  0  0  0  0  0  0  0  0
   22.4242   -5.2907  -16.6058 O   0  0  0  0  0  0  0  0  0  0  0  0
   19.8984   -5.5546  -12.1866 C   0  0  0  0  0  0  0  0  0  0  0  0
   19.1518   -5.8133  -11.0591 C   0  0  0  0  0  0  0  0  0  0  0  0
   20.3500   -4.3418  -16.4545 N   0  0  0  0  0  0  0  0  0  0  0  0
   20.5324   -3.2599  -17.3367 C   0  0  1  0  0  0  0  0  0  0  0  0
   19.4214   -2.3310  -17.6003 C   0  0  0  0  0  0  0  0  0  0  0  0
   19.7415   -1.3856  -18.6840 C   0  0  0  0  0  0  0  0  0  0  0  0
   20.0479   -0.1790  -18.5502 O   0  0  0  0  0  0  0  0  0  0  0  0
   21.7845   -2.4729  -16.9942 C   0  0  0  0  0  0  0  0  0  0  0  0
   22.5151   -2.1042  -17.9298 O   0  0  0  0  0  0  0  0  0  0  0  0
   19.7068   -1.8573  -19.9927 O   0  0  0  0  0  0  0  0  0  0  0  0
   22.1258   -2.1618  -15.6903 O   0  0  0  0  0  0  0  0  0  0  0  0
  2  1  1  1
  3  4  1  0
  3  2  1  0
  5  6  1  0
  5  4  1  0
  6  7  1  0
  8  2  1  0
  8  9  2  0
 10 11  1  0
 11 12  2  0
 12 13  1  0
 14 15  1  0
 14 13  2  0
 16 17  1  0
 16 15  1  1
 17  8  1  0
 18 16  1  0
 19 18  2  0
 20 14  1  0
 21 20  2  0
 21 11  1  0
 22 18  1  0
 23 22  1  0
 24 25  1  0
 23 24  1  1
 25 26  2  0
 27 23  1  0
 27 30  1  0
 28 27  2  0
 29 25  1  0
M  END
$$$$
