KYD.pdb
     RDKit          3D

 30 30  0  0  1  0  0  0  0  0999 V2000
   28.4635  -21.2121  -17.3019 N   0  0  0  0  0  0  0  0  0  0  0  0
   27.2944  -22.0777  -17.4926 C   0  0  1  0  0  0  0  0  0  0  0  0
   27.7295  -23.4020  -18.0854 C   0  0  0  0  0  0  0  0  0  0  0  0
   28.7400  -23.2452  -19.1697 C   0  0  0  0  0  0  0  0  0  0  0  0
   28.1836  -23.5576  -20.5419 C   0  0  0  0  0  0  0  0  0  0  0  0
   28.8193  -22.6527  -21.5761 C   0  0  0  0  0  0  0  0  0  0  0  0
   30.1649  -23.1433  -21.8492 N   0  0  0  0  0  0  0  0  0  0  0  0
   26.6782  -22.2616  -16.1537 C   0  0  0  0  0  0  0  0  0  0  0  0
   26.0184  -23.2885  -15.8523 O   0  0  0  0  0  0  0  0  0  0  0  0
   24.1900  -20.6780   -7.7741 O   0  0  0  0  0  0  0  0  0  0  0  0
   24.8204  -20.6560   -9.0119 C   0  0  0  0  0  0  0  0  0  0  0  0
   25.9422  -21.4321   -9.2682 C   0  0  0  0  0  0  0  0  0  0  0  0
   26.5427  -21.3825  -10.5152 C   0  0  0  0  0  0  0  0  0  0  0  0
   26.0548  -20.5793  -11.5150 C   0  0  0  0  0  0  0  0  0  0  0  0
   26.6996  -20.5389  -12.8213 C   0  0  0  0  0  0  0  0  0  0  0  0
   25.9811  -21.2452  -13.9335 C   0  0  2  0  0  0  0  0  0  0  0  0
   26.8037  -21.2730  -15.1283 N   0  0  0  0  0  0  0  0  0  0  0  0
   24.6204  -20.7657  -14.2211 C   0  0  0  0  0  0  0  0  0  0  0  0
   24.4098  -19.6747  -14.7984 O   0  0  0  0  0  0  0  0  0  0  0  0
   24.9404  -19.7996  -11.2814 C   0  0  0  0  0  0  0  0  0  0  0  0
   24.3585  -19.8635  -10.0354 C   0  0  0  0  0  0  0  0  0  0  0  0
   23.4828  -21.5369  -13.8505 N   0  0  0  0  0  0  0  0  0  0  0  0
   22.1222  -21.2409  -14.0591 C   0  0  1  0  0  0  0  0  0  0  0  0
   21.2664  -22.1918  -14.7871 C   0  0  0  0  0  0  0  0  0  0  0  0
   21.4121  -22.0552  -16.2468 C   0  0  0  0  0  0  0  0  0  0  0  0
   21.9394  -21.0952  -16.8537 O   0  0  0  0  0  0  0  0  0  0  0  0
   21.4420  -20.8294  -12.7660 C   0  0  0  0  0  0  0  0  0  0  0  0
   22.0498  -21.0261  -11.6997 O   0  0  0  0  0  0  0  0  0  0  0  0
   20.9237  -23.0811  -17.0500 O   0  0  0  0  0  0  0  0  0  0  0  0
   20.1854  -20.2515  -12.7458 O   0  0  0  0  0  0  0  0  0  0  0  0
  2  1  1  1
  3  4  1  0
  3  2  1  0
  5  6  1  0
  5  4  1  0
  6  7  1  0
  8  2  1  0
  8  9  2  0
 10 11  1  0
 11 12  2  0
 12 13  1  0
 14 15  1  0
 14 13  2  0
 16 17  1  0
 16 15  1  1
 17  8  1  0
 18 16  1  0
 19 18  2  0
 20 14  1  0
 21 20  2  0
 21 11  1  0
 22 18  1  0
 23 22  1  0
 24 25  1  0
 23 24  1  1
 25 26  2  0
 27 23  1  0
 27 30  1  0
 28 27  2  0
 29 25  1  0
M  END
$$$$
