KYD.pdb
     RDKit          3D

 30 30  0  0  1  0  0  0  0  0999 V2000
   25.1589  -14.0995  -17.8933 N   0  0  0  0  0  0  0  0  0  0  0  0
   24.7910  -13.3168  -16.7082 C   0  0  1  0  0  0  0  0  0  0  0  0
   25.8771  -13.4358  -15.6590 C   0  0  0  0  0  0  0  0  0  0  0  0
   26.0035  -14.8168  -15.1128 C   0  0  0  0  0  0  0  0  0  0  0  0
   27.0712  -15.6302  -15.8116 C   0  0  0  0  0  0  0  0  0  0  0  0
   27.1596  -17.0089  -15.1920 C   0  0  0  0  0  0  0  0  0  0  0  0
   28.2376  -17.7383  -15.8491 N   0  0  0  0  0  0  0  0  0  0  0  0
   24.6283  -11.9112  -17.1603 C   0  0  0  0  0  0  0  0  0  0  0  0
   25.6025  -11.1248  -17.2753 O   0  0  0  0  0  0  0  0  0  0  0  0
   26.6865  -12.1062  -22.9241 O   0  0  0  0  0  0  0  0  0  0  0  0
   25.7211  -11.6105  -22.0567 C   0  0  0  0  0  0  0  0  0  0  0  0
   24.9487  -12.4556  -21.2720 C   0  0  0  0  0  0  0  0  0  0  0  0
   23.9960  -11.9230  -20.4195 C   0  0  0  0  0  0  0  0  0  0  0  0
   23.7921  -10.5693  -20.3277 C   0  0  0  0  0  0  0  0  0  0  0  0
   22.7847  -10.0259  -19.4255 C   0  0  0  0  0  0  0  0  0  0  0  0
   23.1400  -10.0188  -17.9676 C   0  0  2  0  0  0  0  0  0  0  0  0
   23.3454  -11.3737  -17.4914 N   0  0  0  0  0  0  0  0  0  0  0  0
   22.2286   -9.2667  -17.0915 C   0  0  0  0  0  0  0  0  0  0  0  0
   21.5243   -9.8328  -16.2245 O   0  0  0  0  0  0  0  0  0  0  0  0
   24.5491   -9.7111  -21.0989 C   0  0  0  0  0  0  0  0  0  0  0  0
   25.4906  -10.2606  -21.9398 C   0  0  0  0  0  0  0  0  0  0  0  0
   22.1170   -7.8517  -17.1990 N   0  0  0  0  0  0  0  0  0  0  0  0
   21.3260   -6.9776  -16.4293 C   0  0  1  0  0  0  0  0  0  0  0  0
   21.6139   -6.7941  -14.9975 C   0  0  0  0  0  0  0  0  0  0  0  0
   20.6442   -5.8907  -14.3539 C   0  0  0  0  0  0  0  0  0  0  0  0
   20.6803   -4.6391  -14.3567 O   0  0  0  0  0  0  0  0  0  0  0  0
   21.1882   -5.6226  -17.0994 C   0  0  0  0  0  0  0  0  0  0  0  0
   22.0321   -5.3077  -17.9560 O   0  0  0  0  0  0  0  0  0  0  0  0
   19.5749   -6.4615  -13.6704 O   0  0  0  0  0  0  0  0  0  0  0  0
   20.1651   -4.7459  -16.7859 O   0  0  0  0  0  0  0  0  0  0  0  0
  2  1  1  6
  3  4  1  0
  3  2  1  0
  5  6  1  0
  5  4  1  0
  6  7  1  0
  8  2  1  0
  8  9  2  0
 10 11  1  0
 11 12  2  0
 12 13  1  0
 14 15  1  0
 14 13  2  0
 16 17  1  0
 16 15  1  6
 17  8  1  0
 18 16  1  0
 19 18  2  0
 20 14  1  0
 21 20  2  0
 21 11  1  0
 22 18  1  0
 23 22  1  0
 24 25  1  0
 23 24  1  1
 25 26  2  0
 27 23  1  0
 27 30  1  0
 28 27  2  0
 29 25  1  0
M  END
$$$$
