KYD.pdb
     RDKit          3D

 30 30  0  0  1  0  0  0  0  0999 V2000
   28.0554  -19.6771  -15.8872 N   0  0  0  0  0  0  0  0  0  0  0  0
   26.9873  -20.6478  -16.1502 C   0  0  1  0  0  0  0  0  0  0  0  0
   27.4384  -21.6301  -17.2114 C   0  0  0  0  0  0  0  0  0  0  0  0
   28.0294  -20.9603  -18.4045 C   0  0  0  0  0  0  0  0  0  0  0  0
   28.4736  -21.9399  -19.4690 C   0  0  0  0  0  0  0  0  0  0  0  0
   29.0984  -21.1947  -20.6295 C   0  0  0  0  0  0  0  0  0  0  0  0
   29.5631  -22.1732  -21.6055 N   0  0  0  0  0  0  0  0  0  0  0  0
   26.7091  -21.3337  -14.8624 C   0  0  0  0  0  0  0  0  0  0  0  0
   25.9721  -22.3494  -14.7869 O   0  0  0  0  0  0  0  0  0  0  0  0
   25.2850  -20.3950   -6.0755 O   0  0  0  0  0  0  0  0  0  0  0  0
   25.8541  -20.4578   -7.3414 C   0  0  0  0  0  0  0  0  0  0  0  0
   26.8404  -19.5656   -7.7381 C   0  0  0  0  0  0  0  0  0  0  0  0
   27.3831  -19.6606   -9.0088 C   0  0  0  0  0  0  0  0  0  0  0  0
   26.9688  -20.6219   -9.8958 C   0  0  0  0  0  0  0  0  0  0  0  0
   27.5504  -20.7070  -11.2294 C   0  0  0  0  0  0  0  0  0  0  0  0
   26.5899  -20.9688  -12.3523 C   0  0  2  0  0  0  0  0  0  0  0  0
   27.2692  -20.8719  -13.6305 N   0  0  0  0  0  0  0  0  0  0  0  0
   25.3520  -20.1742  -12.3325 C   0  0  0  0  0  0  0  0  0  0  0  0
   25.3507  -18.9427  -12.5593 O   0  0  0  0  0  0  0  0  0  0  0  0
   25.9893  -21.5191   -9.5217 C   0  0  0  0  0  0  0  0  0  0  0  0
   25.4629  -21.4077   -8.2545 C   0  0  0  0  0  0  0  0  0  0  0  0
   24.0976  -20.7867  -12.0543 N   0  0  0  0  0  0  0  0  0  0  0  0
   22.8272  -20.4391  -12.5519 C   0  0  1  0  0  0  0  0  0  0  0  0
   22.4955  -20.6944  -13.9630 C   0  0  0  0  0  0  0  0  0  0  0  0
   21.1625  -20.1759  -14.3162 C   0  0  0  0  0  0  0  0  0  0  0  0
   20.5327  -19.2759  -13.7151 O   0  0  0  0  0  0  0  0  0  0  0  0
   21.7200  -20.9756  -11.6627 C   0  0  0  0  0  0  0  0  0  0  0  0
   21.8928  -22.0802  -11.1195 O   0  0  0  0  0  0  0  0  0  0  0  0
   20.5212  -20.7244  -15.4226 O   0  0  0  0  0  0  0  0  0  0  0  0
   20.5454  -20.2780  -11.4463 O   0  0  0  0  0  0  0  0  0  0  0  0
  2  1  1  1
  3  4  1  0
  3  2  1  0
  5  6  1  0
  5  4  1  0
  6  7  1  0
  8  2  1  0
  8  9  2  0
 10 11  1  0
 11 12  2  0
 12 13  1  0
 14 15  1  0
 14 13  2  0
 16 17  1  0
 16 15  1  1
 17  8  1  0
 18 16  1  0
 19 18  2  0
 20 14  1  0
 21 20  2  0
 21 11  1  0
 22 18  1  0
 23 22  1  0
 24 25  1  0
 23 24  1  6
 25 26  2  0
 27 23  1  0
 27 30  1  0
 28 27  2  0
 29 25  1  0
M  END
$$$$
