KYD.pdb
     RDKit          3D

 30 30  0  0  1  0  0  0  0  0999 V2000
   20.5597  -15.3964  -18.4444 N   0  0  0  0  0  0  0  0  0  0  0  0
   19.6370  -14.7841  -17.4822 C   0  0  1  0  0  0  0  0  0  0  0  0
   20.0220  -15.1901  -16.0745 C   0  0  0  0  0  0  0  0  0  0  0  0
   19.3529  -16.4463  -15.6323 C   0  0  0  0  0  0  0  0  0  0  0  0
   18.4909  -17.0648  -16.7114 C   0  0  0  0  0  0  0  0  0  0  0  0
   17.7096  -18.2311  -16.1442 C   0  0  0  0  0  0  0  0  0  0  0  0
   16.8452  -18.7574  -17.1938 N   0  0  0  0  0  0  0  0  0  0  0  0
   19.7418  -13.3142  -17.6683 C   0  0  0  0  0  0  0  0  0  0  0  0
   20.8487  -12.7257  -17.7640 O   0  0  0  0  0  0  0  0  0  0  0  0
   17.1309   -5.2148  -20.2915 O   0  0  0  0  0  0  0  0  0  0  0  0
   17.2224   -6.5593  -19.9536 C   0  0  0  0  0  0  0  0  0  0  0  0
   18.1842   -7.3852  -20.5185 C   0  0  0  0  0  0  0  0  0  0  0  0
   18.2431   -8.7205  -20.1558 C   0  0  0  0  0  0  0  0  0  0  0  0
   17.3684   -9.2556  -19.2443 C   0  0  0  0  0  0  0  0  0  0  0  0
   17.4443  -10.6633  -18.8746 C   0  0  0  0  0  0  0  0  0  0  0  0
   18.6267  -11.0636  -18.0417 C   0  0  2  0  0  0  0  0  0  0  0  0
   18.5806  -12.4838  -17.7493 N   0  0  0  0  0  0  0  0  0  0  0  0
   18.8523  -10.2652  -16.8270 C   0  0  0  0  0  0  0  0  0  0  0  0
   18.2806  -10.5286  -15.7444 O   0  0  0  0  0  0  0  0  0  0  0  0
   16.4043   -8.4522  -18.6704 C   0  0  0  0  0  0  0  0  0  0  0  0
   16.3626   -7.1278  -19.0444 C   0  0  0  0  0  0  0  0  0  0  0  0
   19.7415   -9.1537  -16.8404 N   0  0  0  0  0  0  0  0  0  0  0  0
   20.0167   -8.2436  -15.8020 C   0  0  1  0  0  0  0  0  0  0  0  0
   21.4081   -7.9980  -15.3894 C   0  0  0  0  0  0  0  0  0  0  0  0
   21.4862   -7.0767  -14.2424 C   0  0  0  0  0  0  0  0  0  0  0  0
   21.7179   -5.8472  -14.2921 O   0  0  0  0  0  0  0  0  0  0  0  0
   19.3101   -6.9190  -16.0267 C   0  0  0  0  0  0  0  0  0  0  0  0
   18.5467   -6.5075  -15.1363 O   0  0  0  0  0  0  0  0  0  0  0  0
   21.2858   -7.6014  -12.9693 O   0  0  0  0  0  0  0  0  0  0  0  0
   19.4920   -6.1726  -17.1770 O   0  0  0  0  0  0  0  0  0  0  0  0
  2  1  1  6
  3  4  1  0
  3  2  1  0
  5  6  1  0
  5  4  1  0
  6  7  1  0
  8  2  1  0
  8  9  2  0
 10 11  1  0
 11 12  2  0
 12 13  1  0
 14 15  1  0
 14 13  2  0
 16 17  1  0
 16 15  1  1
 17  8  1  0
 18 16  1  0
 19 18  2  0
 20 14  1  0
 21 20  2  0
 21 11  1  0
 22 18  1  0
 23 22  1  0
 24 25  1  0
 23 24  1  6
 25 26  2  0
 27 23  1  0
 27 30  1  0
 28 27  2  0
 29 25  1  0
M  END
$$$$
