KYD.pdb
     RDKit          3D

 30 30  0  0  1  0  0  0  0  0999 V2000
   23.0794  -13.1554  -17.8444 N   0  0  0  0  0  0  0  0  0  0  0  0
   22.5092  -11.9303  -18.4158 C   0  0  1  0  0  0  0  0  0  0  0  0
   21.0603  -12.1661  -18.7892 C   0  0  0  0  0  0  0  0  0  0  0  0
   20.8992  -13.1905  -19.8598 C   0  0  0  0  0  0  0  0  0  0  0  0
   19.4748  -13.3005  -20.3589 C   0  0  0  0  0  0  0  0  0  0  0  0
   19.3968  -14.3134  -21.4815 C   0  0  0  0  0  0  0  0  0  0  0  0
   18.0066  -14.4180  -21.9087 N   0  0  0  0  0  0  0  0  0  0  0  0
   22.6346  -10.8774  -17.3757 C   0  0  0  0  0  0  0  0  0  0  0  0
   22.5547  -11.1327  -16.1472 O   0  0  0  0  0  0  0  0  0  0  0  0
   28.4663  -11.6059  -15.6399 O   0  0  0  0  0  0  0  0  0  0  0  0
   27.4503  -10.6914  -15.8884 C   0  0  0  0  0  0  0  0  0  0  0  0
   26.6136  -10.2441  -14.8755 C   0  0  0  0  0  0  0  0  0  0  0  0
   25.6119   -9.3320  -15.1633 C   0  0  0  0  0  0  0  0  0  0  0  0
   25.4215   -8.8530  -16.4348 C   0  0  0  0  0  0  0  0  0  0  0  0
   24.3620   -7.8938  -16.7200 C   0  0  0  0  0  0  0  0  0  0  0  0
   22.9649   -8.4410  -16.7406 C   0  0  2  0  0  0  0  0  0  0  0  0
   22.8545   -9.5068  -17.7187 N   0  0  0  0  0  0  0  0  0  0  0  0
   21.8916   -7.4471  -16.8959 C   0  0  0  0  0  0  0  0  0  0  0  0
   21.7886   -6.7369  -17.9222 O   0  0  0  0  0  0  0  0  0  0  0  0
   26.2423   -9.2845  -17.4568 C   0  0  0  0  0  0  0  0  0  0  0  0
   27.2317  -10.1913  -17.1498 C   0  0  0  0  0  0  0  0  0  0  0  0
   20.9197   -7.2585  -15.8732 N   0  0  0  0  0  0  0  0  0  0  0  0
   19.8713   -6.3199  -15.8278 C   0  0  1  0  0  0  0  0  0  0  0  0
   18.7996   -6.4627  -14.8290 C   0  0  0  0  0  0  0  0  0  0  0  0
   17.7961   -7.4604  -15.2394 C   0  0  0  0  0  0  0  0  0  0  0  0
   17.7533   -8.0626  -16.3363 O   0  0  0  0  0  0  0  0  0  0  0  0
   20.4032   -4.8983  -15.8051 C   0  0  0  0  0  0  0  0  0  0  0  0
   21.3384   -4.6386  -15.0286 O   0  0  0  0  0  0  0  0  0  0  0  0
   16.7877   -7.7812  -14.3358 O   0  0  0  0  0  0  0  0  0  0  0  0
   19.8822   -3.9034  -16.6127 O   0  0  0  0  0  0  0  0  0  0  0  0
  2  1  1  1
  3  4  1  0
  3  2  1  0
  5  6  1  0
  5  4  1  0
  6  7  1  0
  8  2  1  0
  8  9  2  0
 10 11  1  0
 11 12  2  0
 12 13  1  0
 14 15  1  0
 14 13  2  0
 16 17  1  0
 16 15  1  6
 17  8  1  0
 18 16  1  0
 19 18  2  0
 20 14  1  0
 21 20  2  0
 21 11  1  0
 22 18  1  0
 23 22  1  0
 24 25  1  0
 23 24  1  1
 25 26  2  0
 27 23  1  0
 27 30  1  0
 28 27  2  0
 29 25  1  0
M  END
$$$$
