KYD.pdb
     RDKit          3D

 30 30  0  0  1  0  0  0  0  0999 V2000
   23.2058  -14.7765  -18.2837 N   0  0  0  0  0  0  0  0  0  0  0  0
   23.6026  -13.5913  -17.5155 C   0  0  1  0  0  0  0  0  0  0  0  0
   25.0147  -13.1892  -17.8881 C   0  0  0  0  0  0  0  0  0  0  0  0
   26.0417  -13.7861  -16.9880 C   0  0  0  0  0  0  0  0  0  0  0  0
   26.8515  -14.8740  -17.6595 C   0  0  0  0  0  0  0  0  0  0  0  0
   27.8210  -15.4834  -16.6689 C   0  0  0  0  0  0  0  0  0  0  0  0
   28.4335  -16.6531  -17.2876 N   0  0  0  0  0  0  0  0  0  0  0  0
   22.6295  -12.5208  -17.8519 C   0  0  0  0  0  0  0  0  0  0  0  0
   22.2123  -12.3350  -19.0233 O   0  0  0  0  0  0  0  0  0  0  0  0
   17.2893  -14.9601  -14.2670 O   0  0  0  0  0  0  0  0  0  0  0  0
   17.9314  -14.0623  -15.1107 C   0  0  0  0  0  0  0  0  0  0  0  0
   18.8814  -14.4840  -16.0304 C   0  0  0  0  0  0  0  0  0  0  0  0
   19.4998  -13.5581  -16.8541 C   0  0  0  0  0  0  0  0  0  0  0  0
   19.1964  -12.2217  -16.7859 C   0  0  0  0  0  0  0  0  0  0  0  0
   19.8573  -11.2610  -17.6601 C   0  0  0  0  0  0  0  0  0  0  0  0
   21.1051  -10.6267  -17.1191 C   0  0  2  0  0  0  0  0  0  0  0  0
   22.1112  -11.6378  -16.8539 N   0  0  0  0  0  0  0  0  0  0  0  0
   20.9186   -9.7299  -15.9681 C   0  0  0  0  0  0  0  0  0  0  0  0
   21.0040  -10.1391  -14.7877 O   0  0  0  0  0  0  0  0  0  0  0  0
   18.2547  -11.7810  -15.8786 C   0  0  0  0  0  0  0  0  0  0  0  0
   17.6518  -12.7173  -15.0691 C   0  0  0  0  0  0  0  0  0  0  0  0
   20.6340   -8.3484  -16.1595 N   0  0  0  0  0  0  0  0  0  0  0  0
   20.4888   -7.3438  -15.1838 C   0  0  1  0  0  0  0  0  0  0  0  0
   20.4422   -5.9289  -15.5869 C   0  0  0  0  0  0  0  0  0  0  0  0
   21.5097   -5.5958  -16.5461 C   0  0  0  0  0  0  0  0  0  0  0  0
   21.3598   -5.0559  -17.6658 O   0  0  0  0  0  0  0  0  0  0  0  0
   19.3324   -7.6458  -14.2480 C   0  0  0  0  0  0  0  0  0  0  0  0
   18.5488   -8.5570  -14.5654 O   0  0  0  0  0  0  0  0  0  0  0  0
   22.8210   -5.9014  -16.1948 O   0  0  0  0  0  0  0  0  0  0  0  0
   19.1332   -6.9446  -13.0724 O   0  0  0  0  0  0  0  0  0  0  0  0
  2  1  1  6
  3  4  1  0
  3  2  1  0
  5  6  1  0
  5  4  1  0
  6  7  1  0
  8  2  1  0
  8  9  2  0
 10 11  1  0
 11 12  2  0
 12 13  1  0
 14 15  1  0
 14 13  2  0
 16 17  1  0
 16 15  1  1
 17  8  1  0
 18 16  1  0
 19 18  2  0
 20 14  1  0
 21 20  2  0
 21 11  1  0
 22 18  1  0
 23 22  1  0
 24 25  1  0
 23 24  1  6
 25 26  2  0
 27 23  1  0
 27 30  1  0
 28 27  2  0
 29 25  1  0
M  END
$$$$
