KYD.pdb
     RDKit          3D

 30 30  0  0  1  0  0  0  0  0999 V2000
   28.2217  -22.3641  -17.9834 N   0  0  0  0  0  0  0  0  0  0  0  0
   27.5873  -21.0984  -17.5986 C   0  0  1  0  0  0  0  0  0  0  0  0
   26.6715  -20.6267  -18.7092 C   0  0  0  0  0  0  0  0  0  0  0  0
   27.4148  -20.0463  -19.8634 C   0  0  0  0  0  0  0  0  0  0  0  0
   28.2527  -18.8460  -19.4796 C   0  0  0  0  0  0  0  0  0  0  0  0
   28.9139  -18.2620  -20.7101 C   0  0  0  0  0  0  0  0  0  0  0  0
   29.7455  -17.1389  -20.2941 N   0  0  0  0  0  0  0  0  0  0  0  0
   26.8290  -21.3649  -16.3496 C   0  0  0  0  0  0  0  0  0  0  0  0
   25.8429  -22.1441  -16.3148 O   0  0  0  0  0  0  0  0  0  0  0  0
   24.4807  -20.4106   -7.7644 O   0  0  0  0  0  0  0  0  0  0  0  0
   25.1483  -20.4213   -8.9827 C   0  0  0  0  0  0  0  0  0  0  0  0
   25.6816  -21.5905   -9.5070 C   0  0  0  0  0  0  0  0  0  0  0  0
   26.3405  -21.5603  -10.7248 C   0  0  0  0  0  0  0  0  0  0  0  0
   26.4824  -20.3950  -11.4351 C   0  0  0  0  0  0  0  0  0  0  0  0
   27.1793  -20.3813  -12.7149 C   0  0  0  0  0  0  0  0  0  0  0  0
   26.3923  -20.8599  -13.8996 C   0  0  2  0  0  0  0  0  0  0  0  0
   27.1828  -20.7450  -15.1107 N   0  0  0  0  0  0  0  0  0  0  0  0
   25.0573  -20.2639  -14.0629 C   0  0  0  0  0  0  0  0  0  0  0  0
   24.8953  -19.1255  -14.5587 O   0  0  0  0  0  0  0  0  0  0  0  0
   25.9596  -19.2211  -10.9320 C   0  0  0  0  0  0  0  0  0  0  0  0
   25.3085  -19.2725   -9.7201 C   0  0  0  0  0  0  0  0  0  0  0  0
   23.8895  -20.9713  -13.6604 N   0  0  0  0  0  0  0  0  0  0  0  0
   22.5522  -20.5316  -13.6815 C   0  0  1  0  0  0  0  0  0  0  0  0
   21.6288  -21.0360  -14.7109 C   0  0  0  0  0  0  0  0  0  0  0  0
   20.3258  -20.3501  -14.6633 C   0  0  0  0  0  0  0  0  0  0  0  0
   20.1397  -19.1154  -14.5701 O   0  0  0  0  0  0  0  0  0  0  0  0
   21.9078  -20.6574  -12.3129 C   0  0  0  0  0  0  0  0  0  0  0  0
   22.4011  -21.4668  -11.5088 O   0  0  0  0  0  0  0  0  0  0  0  0
   19.1753  -21.1301  -14.7271 O   0  0  0  0  0  0  0  0  0  0  0  0
   20.8054  -19.9069  -11.9456 O   0  0  0  0  0  0  0  0  0  0  0  0
  2  1  1  6
  3  4  1  0
  3  2  1  0
  5  6  1  0
  5  4  1  0
  6  7  1  0
  8  2  1  0
  8  9  2  0
 10 11  1  0
 11 12  2  0
 12 13  1  0
 14 15  1  0
 14 13  2  0
 16 17  1  0
 16 15  1  1
 17  8  1  0
 18 16  1  0
 19 18  2  0
 20 14  1  0
 21 20  2  0
 21 11  1  0
 22 18  1  0
 23 22  1  0
 24 25  1  0
 23 24  1  6
 25 26  2  0
 27 23  1  0
 27 30  1  0
 28 27  2  0
 29 25  1  0
M  END
$$$$
