KYD.pdb
     RDKit          3D

 30 30  0  0  1  0  0  0  0  0999 V2000
   20.3220  -11.7617  -17.3385 N   0  0  0  0  0  0  0  0  0  0  0  0
   21.2786  -10.6532  -17.4307 C   0  0  1  0  0  0  0  0  0  0  0  0
   21.3908  -10.1927  -18.8694 C   0  0  0  0  0  0  0  0  0  0  0  0
   22.2756  -11.0685  -19.6888 C   0  0  0  0  0  0  0  0  0  0  0  0
   21.9339  -12.5369  -19.5580 C   0  0  0  0  0  0  0  0  0  0  0  0
   22.7957  -13.3542  -20.4969 C   0  0  0  0  0  0  0  0  0  0  0  0
   22.5071  -14.7657  -20.2721 N   0  0  0  0  0  0  0  0  0  0  0  0
   20.7608   -9.5704  -16.5557 C   0  0  0  0  0  0  0  0  0  0  0  0
   19.5778   -9.1516  -16.6324 O   0  0  0  0  0  0  0  0  0  0  0  0
   19.4485   -5.0213   -9.1561 O   0  0  0  0  0  0  0  0  0  0  0  0
   20.0151   -5.7678  -10.1817 C   0  0  0  0  0  0  0  0  0  0  0  0
   20.9793   -5.2299  -11.0228 C   0  0  0  0  0  0  0  0  0  0  0  0
   21.5202   -6.0063  -12.0341 C   0  0  0  0  0  0  0  0  0  0  0  0
   21.1258   -7.3058  -12.2300 C   0  0  0  0  0  0  0  0  0  0  0  0
   21.7052   -8.1083  -13.2997 C   0  0  0  0  0  0  0  0  0  0  0  0
   21.1145   -7.9124  -14.6652 C   0  0  2  0  0  0  0  0  0  0  0  0
   21.5864   -8.9420  -15.5718 N   0  0  0  0  0  0  0  0  0  0  0  0
   21.2694   -6.5678  -15.2414 C   0  0  0  0  0  0  0  0  0  0  0  0
   22.3465   -6.1853  -15.7527 O   0  0  0  0  0  0  0  0  0  0  0  0
   20.1685   -7.8602  -11.4051 C   0  0  0  0  0  0  0  0  0  0  0  0
   19.6434   -7.0718  -10.4060 C   0  0  0  0  0  0  0  0  0  0  0  0
   20.1854   -5.6452  -15.2398 N   0  0  0  0  0  0  0  0  0  0  0  0
   20.1737   -4.3116  -15.6909 C   0  0  1  0  0  0  0  0  0  0  0  0
   19.3932   -3.9461  -16.8843 C   0  0  0  0  0  0  0  0  0  0  0  0
   19.5709   -2.5284  -17.2436 C   0  0  0  0  0  0  0  0  0  0  0  0
   20.3382   -1.7116  -16.6852 O   0  0  0  0  0  0  0  0  0  0  0  0
   19.8577   -3.3489  -14.5606 C   0  0  0  0  0  0  0  0  0  0  0  0
   18.7887   -3.5034  -13.9454 O   0  0  0  0  0  0  0  0  0  0  0  0
   18.8238   -2.0257  -18.3044 O   0  0  0  0  0  0  0  0  0  0  0  0
   20.7146   -2.3229  -14.2050 O   0  0  0  0  0  0  0  0  0  0  0  0
  2  1  1  6
  3  4  1  0
  3  2  1  0
  5  6  1  0
  5  4  1  0
  6  7  1  0
  8  2  1  0
  8  9  2  0
 10 11  1  0
 11 12  2  0
 12 13  1  0
 14 15  1  0
 14 13  2  0
 16 17  1  0
 16 15  1  1
 17  8  1  0
 18 16  1  0
 19 18  2  0
 20 14  1  0
 21 20  2  0
 21 11  1  0
 22 18  1  0
 23 22  1  0
 24 25  1  0
 23 24  1  6
 25 26  2  0
 27 23  1  0
 27 30  1  0
 28 27  2  0
 29 25  1  0
M  END
$$$$
