KYD.pdb
     RDKit          3D

 30 30  0  0  1  0  0  0  0  0999 V2000
   24.8587  -14.7076  -17.5718 N   0  0  0  0  0  0  0  0  0  0  0  0
   23.9480  -13.7227  -18.1659 C   0  0  1  0  0  0  0  0  0  0  0  0
   22.5228  -14.2293  -18.0845 C   0  0  0  0  0  0  0  0  0  0  0  0
   22.2950  -15.4481  -18.9116 C   0  0  0  0  0  0  0  0  0  0  0  0
   20.8784  -15.9708  -18.8110 C   0  0  0  0  0  0  0  0  0  0  0  0
   20.7192  -17.2035  -19.6755 C   0  0  0  0  0  0  0  0  0  0  0  0
   19.3291  -17.6376  -19.6031 N   0  0  0  0  0  0  0  0  0  0  0  0
   24.1192  -12.4651  -17.3943 C   0  0  0  0  0  0  0  0  0  0  0  0
   24.3967  -12.4609  -16.1681 O   0  0  0  0  0  0  0  0  0  0  0  0
   30.3210  -11.9353  -17.4473 O   0  0  0  0  0  0  0  0  0  0  0  0
   29.1099  -11.2609  -17.5387 C   0  0  0  0  0  0  0  0  0  0  0  0
   28.6090  -10.5227  -16.4755 C   0  0  0  0  0  0  0  0  0  0  0  0
   27.3974   -9.8643  -16.6055 C   0  0  0  0  0  0  0  0  0  0  0  0
   26.6709   -9.9218  -17.7680 C   0  0  0  0  0  0  0  0  0  0  0  0
   25.3974   -9.2232  -17.8873 C   0  0  0  0  0  0  0  0  0  0  0  0
   24.2022   -9.9284  -17.3161 C   0  0  2  0  0  0  0  0  0  0  0  0
   23.9767  -11.1824  -18.0098 N   0  0  0  0  0  0  0  0  0  0  0  0
   22.9713   -9.1280  -17.2251 C   0  0  0  0  0  0  0  0  0  0  0  0
   22.2494   -8.9057  -18.2239 O   0  0  0  0  0  0  0  0  0  0  0  0
   27.1506  -10.6500  -18.8374 C   0  0  0  0  0  0  0  0  0  0  0  0
   28.3566  -11.2970  -18.6877 C   0  0  0  0  0  0  0  0  0  0  0  0
   22.5523   -8.5746  -15.9824 N   0  0  0  0  0  0  0  0  0  0  0  0
   21.4519   -7.7340  -15.7281 C   0  0  1  0  0  0  0  0  0  0  0  0
   20.9876   -7.5286  -14.3465 C   0  0  0  0  0  0  0  0  0  0  0  0
   19.7238   -6.7730  -14.2985 C   0  0  0  0  0  0  0  0  0  0  0  0
   18.5806   -7.2220  -14.5424 O   0  0  0  0  0  0  0  0  0  0  0  0
   21.6119   -6.3909  -16.4172 C   0  0  0  0  0  0  0  0  0  0  0  0
   22.7440   -5.8780  -16.4380 O   0  0  0  0  0  0  0  0  0  0  0  0
   19.7811   -5.4271  -13.9501 O   0  0  0  0  0  0  0  0  0  0  0  0
   20.5483   -5.7361  -17.0115 O   0  0  0  0  0  0  0  0  0  0  0  0
  2  1  1  1
  3  4  1  0
  3  2  1  0
  5  6  1  0
  5  4  1  0
  6  7  1  0
  8  2  1  0
  8  9  2  0
 10 11  1  0
 11 12  2  0
 12 13  1  0
 14 15  1  0
 14 13  2  0
 16 17  1  0
 16 15  1  6
 17  8  1  0
 18 16  1  0
 19 18  2  0
 20 14  1  0
 21 20  2  0
 21 11  1  0
 22 18  1  0
 23 22  1  0
 24 25  1  0
 23 24  1  1
 25 26  2  0
 27 23  1  0
 27 30  1  0
 28 27  2  0
 29 25  1  0
M  END
$$$$
