QVW.pdb
     RDKit          3D

 31 32  0  0  1  0  0  0  0  0999 V2000
   29.1510  -21.2236  -16.3365 N   0  0  0  0  0  0  0  0  0  0  0  0
   28.1807  -20.6746  -17.2336 C   0  0  0  0  0  0  0  0  0  0  0  0
   27.6256  -21.4113  -18.0743 O   0  0  0  0  0  0  0  0  0  0  0  0
   27.8366  -19.2452  -17.1582 C   0  0  0  0  0  0  0  0  0  0  0  0
   27.0195  -18.8197  -16.0029 C   0  0  0  0  0  0  0  0  0  0  0  0
   25.6807  -19.4119  -15.7814 C   0  0  2  0  0  0  0  0  0  0  0  0
   24.7742  -18.7274  -16.7592 N   0  0  0  0  0  0  0  0  0  0  0  0
   25.0668  -19.2545  -14.4760 C   0  0  0  0  0  0  0  0  0  0  0  0
   24.0990  -18.4487  -14.3260 O   0  0  0  0  0  0  0  0  0  0  0  0
   22.9390  -19.5728  -13.7500 C   0  0  0  0  0  0  0  0  0  0  0  0
   23.2930  -20.2713  -12.4429 C   0  0  1  0  0  0  0  0  0  0  0  0
   23.2674  -21.7481  -12.7104 C   0  0  0  0  0  0  0  0  0  0  0  0
   24.7018  -19.8399  -12.0583 C   0  0  2  0  0  0  0  0  0  0  0  0
   25.4656  -19.9616  -13.3086 N   0  0  0  0  0  0  0  0  0  0  0  0
   25.3080  -20.7115  -11.0656 C   0  0  0  0  0  0  0  0  0  0  0  0
   25.6175  -21.9000  -11.3341 O   0  0  0  0  0  0  0  0  0  0  0  0
   25.5987  -20.2949   -9.7189 N   0  0  0  0  0  0  0  0  0  0  0  0
   26.4877  -21.0190   -8.8466 C   0  0  1  0  0  0  0  0  0  0  0  0
   27.9079  -20.5598   -8.8567 C   0  0  0  0  0  0  0  0  0  0  0  0
   28.6380  -20.6422   -7.6022 C   0  0  0  0  0  0  0  0  0  0  0  0
   29.5510  -21.6123   -7.2513 C   0  0  0  0  0  0  0  0  0  0  0  0
   29.9945  -21.3465   -6.0074 N   0  0  0  0  0  0  0  0  0  0  0  0
   29.3891  -20.2305   -5.5526 C   0  0  0  0  0  0  0  0  0  0  0  0
   29.4685  -19.5221   -4.3800 C   0  0  0  0  0  0  0  0  0  0  0  0
   28.7476  -18.3919   -4.1411 C   0  0  0  0  0  0  0  0  0  0  0  0
   27.9004  -17.9266   -5.1023 C   0  0  0  0  0  0  0  0  0  0  0  0
   27.8011  -18.6185   -6.2888 C   0  0  0  0  0  0  0  0  0  0  0  0
   28.5283  -19.7708   -6.5465 C   0  0  0  0  0  0  0  0  0  0  0  0
   25.9247  -21.1165   -7.4847 C   0  0  0  0  0  0  0  0  0  0  0  0
   26.5510  -21.9150   -6.5461 O   0  0  0  0  0  0  0  0  0  0  0  0
   24.8923  -20.5011   -7.1360 O   0  0  0  0  0  0  0  0  0  0  0  0
  1  2  1  0
  2  4  1  0
  3  2  2  0
  4  5  1  0
  6  7  1  6
  6  5  1  0
  8  9  2  0
  8  6  1  0
 11 10  1  6
 11 13  1  0
 12 11  1  0
 13 14  1  6
 14  8  1  0
 15 13  1  0
 15 17  1  0
 16 15  2  0
 18 17  1  0
 18 29  1  0
 19 20  1  0
 18 19  1  1
 20 28  1  0
 21 22  1  0
 21 20  2  0
 22 23  1  0
 23 28  2  0
 23 24  1  0
 24 25  2  0
 25 26  1  0
 27 26  2  0
 28 27  1  0
 29 31  2  0
 29 30  1  0
M  END
$$$$
