QVW.pdb
     RDKit          3D

 31 32  0  0  1  0  0  0  0  0999 V2000
   24.5590  -15.8838  -18.2472 N   0  0  0  0  0  0  0  0  0  0  0  0
   24.5532  -15.6916  -16.8291 C   0  0  0  0  0  0  0  0  0  0  0  0
   25.6329  -15.6390  -16.2054 O   0  0  0  0  0  0  0  0  0  0  0  0
   23.2750  -15.5511  -16.1123 C   0  0  0  0  0  0  0  0  0  0  0  0
   22.9037  -16.6501  -15.1969 C   0  0  0  0  0  0  0  0  0  0  0  0
   23.4872  -17.9986  -15.3798 C   0  0  2  0  0  0  0  0  0  0  0  0
   22.6906  -18.6328  -16.4796 N   0  0  0  0  0  0  0  0  0  0  0  0
   23.4472  -18.9224  -14.2614 C   0  0  0  0  0  0  0  0  0  0  0  0
   22.3811  -19.0518  -13.5868 O   0  0  0  0  0  0  0  0  0  0  0  0
   25.9964  -22.0503  -14.0335 C   0  0  0  0  0  0  0  0  0  0  0  0
   24.5972  -22.0548  -13.4302 C   0  0  1  0  0  0  0  0  0  0  0  0
   24.5629  -23.1486  -12.4027 C   0  0  0  0  0  0  0  0  0  0  0  0
   24.3829  -20.7060  -12.7567 C   0  0  2  0  0  0  0  0  0  0  0  0
   24.5392  -19.7338  -13.8484 N   0  0  0  0  0  0  0  0  0  0  0  0
   25.3813  -20.4172  -11.7407 C   0  0  0  0  0  0  0  0  0  0  0  0
   26.5818  -20.1964  -12.0415 O   0  0  0  0  0  0  0  0  0  0  0  0
   25.0848  -20.3610  -10.3335 N   0  0  0  0  0  0  0  0  0  0  0  0
   26.0442  -20.7006   -9.3137 C   0  0  1  0  0  0  0  0  0  0  0  0
   26.9906  -19.6094   -8.9374 C   0  0  0  0  0  0  0  0  0  0  0  0
   28.1087  -19.9705   -8.0812 C   0  0  0  0  0  0  0  0  0  0  0  0
   29.1372  -20.8296   -8.4005 C   0  0  0  0  0  0  0  0  0  0  0  0
   29.9641  -20.9130   -7.3402 N   0  0  0  0  0  0  0  0  0  0  0  0
   29.4917  -20.1289   -6.3500 C   0  0  0  0  0  0  0  0  0  0  0  0
   29.9288  -19.8402   -5.0816 C   0  0  0  0  0  0  0  0  0  0  0  0
   29.2734  -18.9922   -4.2417 C   0  0  0  0  0  0  0  0  0  0  0  0
   28.1251  -18.3913   -4.6644 C   0  0  0  0  0  0  0  0  0  0  0  0
   27.6637  -18.6634   -5.9330 C   0  0  0  0  0  0  0  0  0  0  0  0
   28.3198  -19.5248   -6.7994 C   0  0  0  0  0  0  0  0  0  0  0  0
   25.3772  -21.3112   -8.1460 C   0  0  0  0  0  0  0  0  0  0  0  0
   26.1444  -21.8455   -7.1278 O   0  0  0  0  0  0  0  0  0  0  0  0
   24.1320  -21.3682   -8.0340 O   0  0  0  0  0  0  0  0  0  0  0  0
  1  2  1  0
  2  4  1  0
  3  2  2  0
  4  5  1  0
  6  7  1  6
  6  5  1  0
  8  9  2  0
  8  6  1  0
 11 10  1  1
 11 13  1  0
 12 11  1  0
 13 14  1  6
 14  8  1  0
 15 13  1  0
 15 17  1  0
 16 15  2  0
 18 17  1  0
 18 29  1  0
 19 20  1  0
 18 19  1  1
 20 28  1  0
 21 22  1  0
 21 20  2  0
 22 23  1  0
 23 28  2  0
 23 24  1  0
 24 25  2  0
 25 26  1  0
 27 26  2  0
 28 27  1  0
 29 31  2  0
 29 30  1  0
M  END
$$$$
