QVW.pdb
     RDKit          3D

 31 32  0  0  1  0  0  0  0  0999 V2000
   21.6484  -16.3817  -15.3048 N   0  0  0  0  0  0  0  0  0  0  0  0
   22.5093  -15.2395  -15.2559 C   0  0  0  0  0  0  0  0  0  0  0  0
   22.0649  -14.1137  -15.5599 O   0  0  0  0  0  0  0  0  0  0  0  0
   23.9135  -15.3955  -14.8420 C   0  0  0  0  0  0  0  0  0  0  0  0
   24.3304  -16.7442  -14.4054 C   0  0  0  0  0  0  0  0  0  0  0  0
   25.6932  -17.2358  -14.7106 C   0  0  2  0  0  0  0  0  0  0  0  0
   25.7944  -17.2303  -16.2060 N   0  0  0  0  0  0  0  0  0  0  0  0
   26.0532  -18.5745  -14.2817 C   0  0  0  0  0  0  0  0  0  0  0  0
   25.4873  -19.5801  -14.8081 O   0  0  0  0  0  0  0  0  0  0  0  0
   29.2901  -21.7698  -12.8221 C   0  0  0  0  0  0  0  0  0  0  0  0
   28.8447  -20.3750  -13.2438 C   0  0  1  0  0  0  0  0  0  0  0  0
   29.0766  -20.2657  -14.7229 C   0  0  0  0  0  0  0  0  0  0  0  0
   27.3564  -20.2577  -12.9439 C   0  0  2  0  0  0  0  0  0  0  0  0
   27.0313  -18.8668  -13.2920 N   0  0  0  0  0  0  0  0  0  0  0  0
   27.0458  -20.4620  -11.5388 C   0  0  0  0  0  0  0  0  0  0  0  0
   27.9172  -20.3178  -10.6442 O   0  0  0  0  0  0  0  0  0  0  0  0
   25.7406  -20.8389  -11.0637 N   0  0  0  0  0  0  0  0  0  0  0  0
   25.4433  -21.0559   -9.6708 C   0  0  1  0  0  0  0  0  0  0  0  0
   25.9581  -20.0114   -8.7369 C   0  0  0  0  0  0  0  0  0  0  0  0
   26.2207  -20.4212   -7.3670 C   0  0  0  0  0  0  0  0  0  0  0  0
   25.4724  -21.3061   -6.6220 C   0  0  0  0  0  0  0  0  0  0  0  0
   26.0314  -21.4102   -5.4008 N   0  0  0  0  0  0  0  0  0  0  0  0
   27.1189  -20.6148   -5.3445 C   0  0  0  0  0  0  0  0  0  0  0  0
   28.0437  -20.3444   -4.3673 C   0  0  0  0  0  0  0  0  0  0  0  0
   29.0875  -19.4881   -4.5446 C   0  0  0  0  0  0  0  0  0  0  0  0
   29.2372  -18.8598   -5.7450 C   0  0  0  0  0  0  0  0  0  0  0  0
   28.3231  -19.1129   -6.7434 C   0  0  0  0  0  0  0  0  0  0  0  0
   27.2550  -19.9817   -6.5777 C   0  0  0  0  0  0  0  0  0  0  0  0
   24.0075  -21.3425   -9.4775 C   0  0  0  0  0  0  0  0  0  0  0  0
   23.6056  -22.0991   -8.3927 O   0  0  0  0  0  0  0  0  0  0  0  0
   23.1251  -20.9264  -10.2614 O   0  0  0  0  0  0  0  0  0  0  0  0
  1  2  1  0
  2  4  1  0
  3  2  2  0
  4  5  1  0
  6  7  1  6
  6  5  1  0
  8  9  2  0
  8  6  1  0
 11 10  1  6
 11 13  1  0
 12 11  1  0
 13 14  1  1
 14  8  1  0
 15 13  1  0
 15 17  1  0
 16 15  2  0
 18 17  1  0
 18 29  1  0
 19 20  1  0
 18 19  1  1
 20 28  1  0
 21 22  1  0
 21 20  2  0
 22 23  1  0
 23 28  2  0
 23 24  1  0
 24 25  2  0
 25 26  1  0
 27 26  2  0
 28 27  1  0
 29 31  2  0
 29 30  1  0
M  END
$$$$
