QVW.pdb
     RDKit          3D

 31 32  0  0  1  0  0  0  0  0999 V2000
   26.7769  -20.9327  -19.2290 N   0  0  0  0  0  0  0  0  0  0  0  0
   27.6661  -19.8686  -18.8755 C   0  0  0  0  0  0  0  0  0  0  0  0
   28.4389  -19.3946  -19.7332 O   0  0  0  0  0  0  0  0  0  0  0  0
   27.6622  -19.3333  -17.5041 C   0  0  0  0  0  0  0  0  0  0  0  0
   26.6988  -19.9360  -16.5596 C   0  0  0  0  0  0  0  0  0  0  0  0
   27.1830  -20.6112  -15.3341 C   0  0  2  0  0  0  0  0  0  0  0  0
   27.8852  -21.8470  -15.8096 N   0  0  0  0  0  0  0  0  0  0  0  0
   26.2030  -21.0484  -14.3572 C   0  0  0  0  0  0  0  0  0  0  0  0
   25.4996  -22.0787  -14.5856 O   0  0  0  0  0  0  0  0  0  0  0  0
   24.5473  -21.0239   -9.7441 C   0  0  0  0  0  0  0  0  0  0  0  0
   25.5659  -20.6047  -10.7970 C   0  0  1  0  0  0  0  0  0  0  0  0
   26.8071  -21.4142  -10.5576 C   0  0  0  0  0  0  0  0  0  0  0  0
   24.9823  -20.9447  -12.1617 C   0  0  2  0  0  0  0  0  0  0  0  0
   25.9626  -20.4023  -13.1137 N   0  0  0  0  0  0  0  0  0  0  0  0
   23.7029  -20.2994  -12.4054 C   0  0  0  0  0  0  0  0  0  0  0  0
   23.5289  -19.0755  -12.1770 O   0  0  0  0  0  0  0  0  0  0  0  0
   22.5514  -20.9939  -12.9182 N   0  0  0  0  0  0  0  0  0  0  0  0
   21.2618  -20.3705  -13.0731 C   0  0  1  0  0  0  0  0  0  0  0  0
   21.0740  -19.5946  -14.3343 C   0  0  0  0  0  0  0  0  0  0  0  0
   21.3262  -20.2936  -15.5839 C   0  0  0  0  0  0  0  0  0  0  0  0
   20.7655  -21.4885  -15.9785 C   0  0  0  0  0  0  0  0  0  0  0  0
   21.2627  -21.8106  -17.1883 N   0  0  0  0  0  0  0  0  0  0  0  0
   22.1273  -20.8524  -17.5790 C   0  0  0  0  0  0  0  0  0  0  0  0
   22.8982  -20.6737  -18.7003 C   0  0  0  0  0  0  0  0  0  0  0  0
   23.7119  -19.5972  -18.8823 C   0  0  0  0  0  0  0  0  0  0  0  0
   23.7767  -18.6399  -17.9139 C   0  0  0  0  0  0  0  0  0  0  0  0
   23.0136  -18.7943  -16.7781 C   0  0  0  0  0  0  0  0  0  0  0  0
   22.1808  -19.8850  -16.5783 C   0  0  0  0  0  0  0  0  0  0  0  0
   20.1755  -21.3406  -12.8277 C   0  0  0  0  0  0  0  0  0  0  0  0
   18.8752  -20.8879  -12.7044 O   0  0  0  0  0  0  0  0  0  0  0  0
   20.3804  -22.5709  -12.7247 O   0  0  0  0  0  0  0  0  0  0  0  0
  1  2  1  0
  2  4  1  0
  3  2  2  0
  4  5  1  0
  6  7  1  6
  6  5  1  0
  8  9  2  0
  8  6  1  0
 11 10  1  1
 11 13  1  0
 12 11  1  0
 13 14  1  6
 14  8  1  0
 15 13  1  0
 15 17  1  0
 16 15  2  0
 18 17  1  0
 18 29  1  0
 19 20  1  0
 18 19  1  6
 20 28  1  0
 21 22  1  0
 21 20  2  0
 22 23  1  0
 23 28  2  0
 23 24  1  0
 24 25  2  0
 25 26  1  0
 27 26  2  0
 28 27  1  0
 29 31  2  0
 29 30  1  0
M  END
$$$$
