QVW.pdb
     RDKit          3D

 31 32  0  0  1  0  0  0  0  0999 V2000
   31.8641  -21.7024  -20.7070 N   0  0  0  0  0  0  0  0  0  0  0  0
   32.4823  -22.1221  -19.4866 C   0  0  0  0  0  0  0  0  0  0  0  0
   33.6412  -21.7461  -19.2164 O   0  0  0  0  0  0  0  0  0  0  0  0
   31.7477  -22.9908  -18.5521 C   0  0  0  0  0  0  0  0  0  0  0  0
   30.3577  -23.3333  -18.9183 C   0  0  0  0  0  0  0  0  0  0  0  0
   29.5888  -24.2961  -18.0974 C   0  0  2  0  0  0  0  0  0  0  0  0
   29.7702  -25.6253  -18.7657 N   0  0  0  0  0  0  0  0  0  0  0  0
   28.1575  -24.0974  -17.9650 C   0  0  0  0  0  0  0  0  0  0  0  0
   27.3901  -24.3619  -18.9395 O   0  0  0  0  0  0  0  0  0  0  0  0
   26.0610  -25.3342  -18.2413 C   0  0  0  0  0  0  0  0  0  0  0  0
   25.4452  -24.7368  -16.9819 C   0  0  1  0  0  0  0  0  0  0  0  0
   25.8089  -25.6415  -15.8406 C   0  0  0  0  0  0  0  0  0  0  0  0
   26.0693  -23.3637  -16.7723 C   0  0  2  0  0  0  0  0  0  0  0  0
   27.5162  -23.6238  -16.7876 N   0  0  0  0  0  0  0  0  0  0  0  0
   25.7238  -22.7765  -15.4884 C   0  0  0  0  0  0  0  0  0  0  0  0
   26.4051  -23.0027  -14.4564 O   0  0  0  0  0  0  0  0  0  0  0  0
   24.5953  -21.9045  -15.2952 N   0  0  0  0  0  0  0  0  0  0  0  0
   24.2831  -21.2914  -14.0294 C   0  0  1  0  0  0  0  0  0  0  0  0
   25.0783  -20.0730  -13.6958 C   0  0  0  0  0  0  0  0  0  0  0  0
   25.1554  -19.0356  -14.7114 C   0  0  0  0  0  0  0  0  0  0  0  0
   24.1445  -18.1737  -15.0763 C   0  0  0  0  0  0  0  0  0  0  0  0
   24.6034  -17.3743  -16.0587 N   0  0  0  0  0  0  0  0  0  0  0  0
   25.8827  -17.7019  -16.3322 C   0  0  0  0  0  0  0  0  0  0  0  0
   26.8137  -17.2210  -17.2182 C   0  0  0  0  0  0  0  0  0  0  0  0
   28.0779  -17.7175  -17.3146 C   0  0  0  0  0  0  0  0  0  0  0  0
   28.4550  -18.7425  -16.4989 C   0  0  0  0  0  0  0  0  0  0  0  0
   27.5402  -19.2445  -15.6003 C   0  0  0  0  0  0  0  0  0  0  0  0
   26.2494  -18.7497  -15.4908 C   0  0  0  0  0  0  0  0  0  0  0  0
   22.8276  -21.0839  -13.8898 C   0  0  0  0  0  0  0  0  0  0  0  0
   22.3059  -20.7351  -12.6582 O   0  0  0  0  0  0  0  0  0  0  0  0
   22.0332  -21.2111  -14.8485 O   0  0  0  0  0  0  0  0  0  0  0  0
  1  2  1  0
  2  4  1  0
  3  2  2  0
  4  5  1  0
  6  7  1  6
  6  5  1  0
  8  9  2  0
  8  6  1  0
 11 10  1  6
 11 13  1  0
 12 11  1  0
 13 14  1  1
 14  8  1  0
 15 13  1  0
 15 17  1  0
 16 15  2  0
 18 17  1  0
 18 29  1  0
 19 20  1  0
 18 19  1  6
 20 28  1  0
 21 22  1  0
 21 20  2  0
 22 23  1  0
 23 28  2  0
 23 24  1  0
 24 25  2  0
 25 26  1  0
 27 26  2  0
 28 27  1  0
 29 31  2  0
 29 30  1  0
M  END
$$$$
