QVW.pdb
     RDKit          3D

 31 32  0  0  1  0  0  0  0  0999 V2000
   29.4163  -19.2534  -17.4007 N   0  0  0  0  0  0  0  0  0  0  0  0
   28.0114  -19.0465  -17.5776 C   0  0  0  0  0  0  0  0  0  0  0  0
   27.5274  -17.9067  -17.4226 O   0  0  0  0  0  0  0  0  0  0  0  0
   27.1434  -20.1769  -17.9468 C   0  0  0  0  0  0  0  0  0  0  0  0
   26.2819  -20.7277  -16.8800 C   0  0  0  0  0  0  0  0  0  0  0  0
   26.8893  -21.3411  -15.6772 C   0  0  2  0  0  0  0  0  0  0  0  0
   27.4179  -22.6687  -16.1292 N   0  0  0  0  0  0  0  0  0  0  0  0
   26.0341  -21.6091  -14.5358 C   0  0  0  0  0  0  0  0  0  0  0  0
   25.2981  -22.6419  -14.5266 O   0  0  0  0  0  0  0  0  0  0  0  0
   24.7858  -20.6989   -9.8641 C   0  0  0  0  0  0  0  0  0  0  0  0
   25.7398  -20.5420  -11.0418 C   0  0  1  0  0  0  0  0  0  0  0  0
   26.9773  -21.3264  -10.7152 C   0  0  0  0  0  0  0  0  0  0  0  0
   25.0590  -21.1370  -12.2670 C   0  0  2  0  0  0  0  0  0  0  0  0
   25.9560  -20.7873  -13.3782 N   0  0  0  0  0  0  0  0  0  0  0  0
   23.7555  -20.5500  -12.5295 C   0  0  0  0  0  0  0  0  0  0  0  0
   23.5619  -19.3109  -12.4421 O   0  0  0  0  0  0  0  0  0  0  0  0
   22.6006  -21.3229  -12.9039 N   0  0  0  0  0  0  0  0  0  0  0  0
   21.4561  -20.7544  -13.5691 C   0  0  1  0  0  0  0  0  0  0  0  0
   21.7655  -19.8754  -14.7352 C   0  0  0  0  0  0  0  0  0  0  0  0
   20.6358  -19.3273  -15.4678 C   0  0  0  0  0  0  0  0  0  0  0  0
   19.8223  -18.2931  -15.0594 C   0  0  0  0  0  0  0  0  0  0  0  0
   18.8848  -18.0925  -16.0058 N   0  0  0  0  0  0  0  0  0  0  0  0
   19.0773  -18.9715  -17.0102 C   0  0  0  0  0  0  0  0  0  0  0  0
   18.4340  -19.2044  -18.1998 C   0  0  0  0  0  0  0  0  0  0  0  0
   18.8206  -20.1680  -19.0808 C   0  0  0  0  0  0  0  0  0  0  0  0
   19.8973  -20.9493  -18.7832 C   0  0  0  0  0  0  0  0  0  0  0  0
   20.5614  -20.7371  -17.5956 C   0  0  0  0  0  0  0  0  0  0  0  0
   20.1793  -19.7603  -16.6885 C   0  0  0  0  0  0  0  0  0  0  0  0
   20.4587  -21.7972  -13.8840 C   0  0  0  0  0  0  0  0  0  0  0  0
   19.1135  -21.4796  -13.8620 O   0  0  0  0  0  0  0  0  0  0  0  0
   20.7794  -22.9716  -14.1739 O   0  0  0  0  0  0  0  0  0  0  0  0
  1  2  1  0
  2  4  1  0
  3  2  2  0
  4  5  1  0
  6  7  1  6
  6  5  1  0
  8  9  2  0
  8  6  1  0
 11 10  1  1
 11 13  1  0
 12 11  1  0
 13 14  1  6
 14  8  1  0
 15 13  1  0
 15 17  1  0
 16 15  2  0
 18 17  1  0
 18 29  1  0
 19 20  1  0
 18 19  1  6
 20 28  1  0
 21 22  1  0
 21 20  2  0
 22 23  1  0
 23 28  2  0
 23 24  1  0
 24 25  2  0
 25 26  1  0
 27 26  2  0
 28 27  1  0
 29 31  2  0
 29 30  1  0
M  END
$$$$
