QVW.pdb
     RDKit          3D

 31 32  0  0  1  0  0  0  0  0999 V2000
   20.5711  -19.1311  -16.8610 N   0  0  0  0  0  0  0  0  0  0  0  0
   20.9330  -18.7419  -18.1896 C   0  0  0  0  0  0  0  0  0  0  0  0
   20.1750  -18.0002  -18.8475 O   0  0  0  0  0  0  0  0  0  0  0  0
   22.1998  -19.2129  -18.7735 C   0  0  0  0  0  0  0  0  0  0  0  0
   23.0490  -20.0652  -17.9157 C   0  0  0  0  0  0  0  0  0  0  0  0
   24.4712  -19.7160  -17.6969 C   0  0  2  0  0  0  0  0  0  0  0  0
   25.1585  -20.0066  -18.9967 N   0  0  0  0  0  0  0  0  0  0  0  0
   25.2069  -20.4378  -16.6754 C   0  0  0  0  0  0  0  0  0  0  0  0
   25.1683  -21.7051  -16.6456 O   0  0  0  0  0  0  0  0  0  0  0  0
   28.3474  -21.0103  -16.2777 C   0  0  0  0  0  0  0  0  0  0  0  0
   28.1000  -20.5351  -14.8513 C   0  0  1  0  0  0  0  0  0  0  0  0
   28.5489  -19.1046  -14.7782 C   0  0  0  0  0  0  0  0  0  0  0  0
   26.6020  -20.6207  -14.5918 C   0  0  2  0  0  0  0  0  0  0  0  0
   26.0067  -19.8227  -15.6736 N   0  0  0  0  0  0  0  0  0  0  0  0
   26.2143  -20.0302  -13.3215 C   0  0  0  0  0  0  0  0  0  0  0  0
   25.8850  -18.8203  -13.2313 O   0  0  0  0  0  0  0  0  0  0  0  0
   26.1758  -20.7666  -12.0856 N   0  0  0  0  0  0  0  0  0  0  0  0
   25.7739  -20.1795  -10.8328 C   0  0  1  0  0  0  0  0  0  0  0  0
   24.5079  -19.3899  -10.8737 C   0  0  0  0  0  0  0  0  0  0  0  0
   23.2770  -20.1267  -11.1094 C   0  0  0  0  0  0  0  0  0  0  0  0
   22.4911  -20.7308  -10.1526 C   0  0  0  0  0  0  0  0  0  0  0  0
   21.4499  -21.3212  -10.7707 N   0  0  0  0  0  0  0  0  0  0  0  0
   21.5484  -21.1104  -12.0989 C   0  0  0  0  0  0  0  0  0  0  0  0
   20.7769  -21.4735  -13.1742 C   0  0  0  0  0  0  0  0  0  0  0  0
   21.0787  -21.1330  -14.4576 C   0  0  0  0  0  0  0  0  0  0  0  0
   22.1981  -20.3957  -14.7056 C   0  0  0  0  0  0  0  0  0  0  0  0
   22.9906  -20.0179  -13.6446 C   0  0  0  0  0  0  0  0  0  0  0  0
   22.6966  -20.3573  -12.3326 C   0  0  0  0  0  0  0  0  0  0  0  0
   25.7896  -21.1852   -9.7513 C   0  0  0  0  0  0  0  0  0  0  0  0
   25.4911  -20.7974   -8.4585 O   0  0  0  0  0  0  0  0  0  0  0  0
   26.0645  -22.3892   -9.9538 O   0  0  0  0  0  0  0  0  0  0  0  0
  1  2  1  0
  2  4  1  0
  3  2  2  0
  4  5  1  0
  6  7  1  6
  6  5  1  0
  8  9  2  0
  8  6  1  0
 11 10  1  6
 11 13  1  0
 12 11  1  0
 13 14  1  6
 14  8  1  0
 15 13  1  0
 15 17  1  0
 16 15  2  0
 18 17  1  0
 18 29  1  0
 19 20  1  0
 18 19  1  6
 20 28  1  0
 21 22  1  0
 21 20  2  0
 22 23  1  0
 23 28  2  0
 23 24  1  0
 24 25  2  0
 25 26  1  0
 27 26  2  0
 28 27  1  0
 29 31  2  0
 29 30  1  0
M  END
$$$$
