QVW.pdb
     RDKit          3D

 31 32  0  0  1  0  0  0  0  0999 V2000
   26.3181  -17.0671  -20.0380 N   0  0  0  0  0  0  0  0  0  0  0  0
   27.3130  -16.5780  -19.1331 C   0  0  0  0  0  0  0  0  0  0  0  0
   28.4252  -16.2171  -19.5693 O   0  0  0  0  0  0  0  0  0  0  0  0
   27.0195  -16.4969  -17.6927 C   0  0  0  0  0  0  0  0  0  0  0  0
   26.4864  -17.7184  -17.0547 C   0  0  0  0  0  0  0  0  0  0  0  0
   27.2768  -18.4208  -16.0183 C   0  0  2  0  0  0  0  0  0  0  0  0
   28.3690  -19.1296  -16.7607 N   0  0  0  0  0  0  0  0  0  0  0  0
   26.6120  -19.4268  -15.2110 C   0  0  0  0  0  0  0  0  0  0  0  0
   26.3580  -20.5668  -15.7053 O   0  0  0  0  0  0  0  0  0  0  0  0
   25.7188  -21.4737  -10.9388 C   0  0  0  0  0  0  0  0  0  0  0  0
   26.3545  -20.3926  -11.8042 C   0  0  1  0  0  0  0  0  0  0  0  0
   27.7662  -20.8215  -12.0806 C   0  0  0  0  0  0  0  0  0  0  0  0
   25.5697  -20.3268  -13.1075 C   0  0  2  0  0  0  0  0  0  0  0  0
   26.2160  -19.2404  -13.8582 N   0  0  0  0  0  0  0  0  0  0  0  0
   24.1730  -19.9773  -12.9085 C   0  0  0  0  0  0  0  0  0  0  0  0
   23.8268  -18.8184  -12.5654 O   0  0  0  0  0  0  0  0  0  0  0  0
   23.0912  -20.9101  -13.0841 N   0  0  0  0  0  0  0  0  0  0  0  0
   21.7051  -20.5409  -12.9498 C   0  0  1  0  0  0  0  0  0  0  0  0
   21.2712  -19.3749  -13.7745 C   0  0  0  0  0  0  0  0  0  0  0  0
   21.4503  -19.4801  -15.2134 C   0  0  0  0  0  0  0  0  0  0  0  0
   20.9302  -20.4591  -16.0313 C   0  0  0  0  0  0  0  0  0  0  0  0
   21.3333  -20.2148  -17.2933 N   0  0  0  0  0  0  0  0  0  0  0  0
   22.0979  -19.1041  -17.3048 C   0  0  0  0  0  0  0  0  0  0  0  0
   22.7502  -18.4148  -18.2960 C   0  0  0  0  0  0  0  0  0  0  0  0
   23.4761  -17.2859  -18.0660 C   0  0  0  0  0  0  0  0  0  0  0  0
   23.5705  -16.8021  -16.7950 C   0  0  0  0  0  0  0  0  0  0  0  0
   22.9256  -17.4745  -15.7810 C   0  0  0  0  0  0  0  0  0  0  0  0
   22.1833  -18.6253  -15.9996 C   0  0  0  0  0  0  0  0  0  0  0  0
   20.8286  -21.7183  -13.1129 C   0  0  0  0  0  0  0  0  0  0  0  0
   19.4742  -21.5968  -12.8650 O   0  0  0  0  0  0  0  0  0  0  0  0
   21.2614  -22.8370  -13.4702 O   0  0  0  0  0  0  0  0  0  0  0  0
  1  2  1  0
  2  4  1  0
  3  2  2  0
  4  5  1  0
  6  7  1  6
  6  5  1  0
  8  9  2  0
  8  6  1  0
 11 10  1  1
 11 13  1  0
 12 11  1  0
 13 14  1  6
 14  8  1  0
 15 13  1  0
 15 17  1  0
 16 15  2  0
 18 17  1  0
 18 29  1  0
 19 20  1  0
 18 19  1  6
 20 28  1  0
 21 22  1  0
 21 20  2  0
 22 23  1  0
 23 28  2  0
 23 24  1  0
 24 25  2  0
 25 26  1  0
 27 26  2  0
 28 27  1  0
 29 31  2  0
 29 30  1  0
M  END
$$$$
