QVW.pdb
     RDKit          3D

 31 32  0  0  1  0  0  0  0  0999 V2000
   28.5018  -16.8064  -18.4254 N   0  0  0  0  0  0  0  0  0  0  0  0
   29.8398  -17.1492  -18.0511 C   0  0  0  0  0  0  0  0  0  0  0  0
   30.7635  -17.0448  -18.8839 O   0  0  0  0  0  0  0  0  0  0  0  0
   30.1230  -17.6180  -16.6846 C   0  0  0  0  0  0  0  0  0  0  0  0
   28.9773  -17.6779  -15.7532 C   0  0  0  0  0  0  0  0  0  0  0  0
   28.3503  -18.9794  -15.4292 C   0  0  2  0  0  0  0  0  0  0  0  0
   27.7741  -19.4777  -16.7200 N   0  0  0  0  0  0  0  0  0  0  0  0
   27.2672  -18.9994  -14.4637 C   0  0  0  0  0  0  0  0  0  0  0  0
   26.2992  -18.1887  -14.5834 O   0  0  0  0  0  0  0  0  0  0  0  0
   25.3624  -21.8787  -13.7956 C   0  0  0  0  0  0  0  0  0  0  0  0
   24.9086  -20.4919  -13.3564 C   0  0  1  0  0  0  0  0  0  0  0  0
   23.6577  -20.6725  -12.5465 C   0  0  0  0  0  0  0  0  0  0  0  0
   26.0090  -19.9035  -12.4836 C   0  0  2  0  0  0  0  0  0  0  0  0
   27.1900  -19.8913  -13.3592 N   0  0  0  0  0  0  0  0  0  0  0  0
   26.3089  -20.7250  -11.3227 C   0  0  0  0  0  0  0  0  0  0  0  0
   27.3536  -21.4216  -11.2613 O   0  0  0  0  0  0  0  0  0  0  0  0
   25.4519  -20.8079  -10.1694 N   0  0  0  0  0  0  0  0  0  0  0  0
   25.9026  -21.2877   -8.8879 C   0  0  1  0  0  0  0  0  0  0  0  0
   27.1506  -20.6531   -8.3704 C   0  0  0  0  0  0  0  0  0  0  0  0
   27.1789  -20.3053   -6.9591 C   0  0  0  0  0  0  0  0  0  0  0  0
   26.0874  -20.1719   -6.1292 C   0  0  0  0  0  0  0  0  0  0  0  0
   26.5270  -19.8276   -4.9032 N   0  0  0  0  0  0  0  0  0  0  0  0
   27.8722  -19.7375   -4.9265 C   0  0  0  0  0  0  0  0  0  0  0  0
   28.8166  -19.4330   -3.9784 C   0  0  0  0  0  0  0  0  0  0  0  0
   30.1531  -19.4088   -4.2377 C   0  0  0  0  0  0  0  0  0  0  0  0
   30.5931  -19.6989   -5.4949 C   0  0  0  0  0  0  0  0  0  0  0  0
   29.6667  -20.0078   -6.4658 C   0  0  0  0  0  0  0  0  0  0  0  0
   28.3027  -20.0360   -6.2171 C   0  0  0  0  0  0  0  0  0  0  0  0
   24.8009  -21.2754   -7.9043 C   0  0  0  0  0  0  0  0  0  0  0  0
   24.7639  -22.2387   -6.9136 O   0  0  0  0  0  0  0  0  0  0  0  0
   23.8864  -20.4214   -7.9265 O   0  0  0  0  0  0  0  0  0  0  0  0
  1  2  1  0
  2  4  1  0
  3  2  2  0
  4  5  1  0
  6  7  1  6
  6  5  1  0
  8  9  2  0
  8  6  1  0
 11 10  1  1
 11 13  1  0
 12 11  1  0
 13 14  1  6
 14  8  1  0
 15 13  1  0
 15 17  1  0
 16 15  2  0
 18 17  1  0
 18 29  1  0
 19 20  1  0
 18 19  1  1
 20 28  1  0
 21 22  1  0
 21 20  2  0
 22 23  1  0
 23 28  2  0
 23 24  1  0
 24 25  2  0
 25 26  1  0
 27 26  2  0
 28 27  1  0
 29 31  2  0
 29 30  1  0
M  END
$$$$
