QVW.pdb
     RDKit          3D

 31 32  0  0  1  0  0  0  0  0999 V2000
   24.1385  -23.8440  -13.8595 N   0  0  0  0  0  0  0  0  0  0  0  0
   23.2922  -22.8028  -13.3619 C   0  0  0  0  0  0  0  0  0  0  0  0
   22.1900  -22.5856  -13.9056 O   0  0  0  0  0  0  0  0  0  0  0  0
   23.7216  -21.9958  -12.2079 C   0  0  0  0  0  0  0  0  0  0  0  0
   25.0109  -22.3619  -11.5856 C   0  0  0  0  0  0  0  0  0  0  0  0
   26.0884  -21.3542  -11.4607 C   0  0  2  0  0  0  0  0  0  0  0  0
   26.0018  -20.8490  -10.0523 N   0  0  0  0  0  0  0  0  0  0  0  0
   26.0384  -20.1844  -12.3180 C   0  0  0  0  0  0  0  0  0  0  0  0
   25.5270  -19.1068  -11.8871 O   0  0  0  0  0  0  0  0  0  0  0  0
   28.6766  -20.0316  -14.6772 C   0  0  0  0  0  0  0  0  0  0  0  0
   27.7791  -18.9510  -15.2676 C   0  0  1  0  0  0  0  0  0  0  0  0
   27.4313  -19.3797  -16.6635 C   0  0  0  0  0  0  0  0  0  0  0  0
   26.5176  -18.8864  -14.4172 C   0  0  2  0  0  0  0  0  0  0  0  0
   26.5428  -20.1381  -13.6466 N   0  0  0  0  0  0  0  0  0  0  0  0
   25.3011  -18.8634  -15.2124 C   0  0  0  0  0  0  0  0  0  0  0  0
   24.8383  -19.9075  -15.7378 O   0  0  0  0  0  0  0  0  0  0  0  0
   24.5401  -17.6672  -15.4599 N   0  0  0  0  0  0  0  0  0  0  0  0
   23.3354  -17.6511  -16.2498 C   0  0  1  0  0  0  0  0  0  0  0  0
   22.4982  -16.4229  -16.1141 C   0  0  0  0  0  0  0  0  0  0  0  0
   21.2651  -16.3754  -16.8829 C   0  0  0  0  0  0  0  0  0  0  0  0
   20.1507  -17.1615  -16.6878 C   0  0  0  0  0  0  0  0  0  0  0  0
   19.2282  -16.8249  -17.6100 N   0  0  0  0  0  0  0  0  0  0  0  0
   19.7230  -15.8429  -18.3905 C   0  0  0  0  0  0  0  0  0  0  0  0
   19.2219  -15.1383  -19.4562 C   0  0  0  0  0  0  0  0  0  0  0  0
   19.9201  -14.1625  -20.1000 C   0  0  0  0  0  0  0  0  0  0  0  0
   21.1802  -13.8570  -19.6791 C   0  0  0  0  0  0  0  0  0  0  0  0
   21.7078  -14.5488  -18.6117 C   0  0  0  0  0  0  0  0  0  0  0  0
   21.0092  -15.5451  -17.9465 C   0  0  0  0  0  0  0  0  0  0  0  0
   23.6237  -17.9979  -17.6562 C   0  0  0  0  0  0  0  0  0  0  0  0
   24.7797  -17.5259  -18.2492 O   0  0  0  0  0  0  0  0  0  0  0  0
   22.8591  -18.7093  -18.3459 O   0  0  0  0  0  0  0  0  0  0  0  0
  1  2  1  0
  2  4  1  0
  3  2  2  0
  4  5  1  0
  6  7  1  1
  6  5  1  0
  8  9  2  0
  8  6  1  0
 11 10  1  1
 11 13  1  0
 12 11  1  0
 13 14  1  1
 14  8  1  0
 15 13  1  0
 15 17  1  0
 16 15  2  0
 18 17  1  0
 18 29  1  0
 19 20  1  0
 18 19  1  6
 20 28  1  0
 21 22  1  0
 21 20  2  0
 22 23  1  0
 23 28  2  0
 23 24  1  0
 24 25  2  0
 25 26  1  0
 27 26  2  0
 28 27  1  0
 29 31  2  0
 29 30  1  0
M  END
$$$$
