QVW.pdb
     RDKit          3D

 31 32  0  0  1  0  0  0  0  0999 V2000
   29.3338  -19.1048  -17.3616 N   0  0  0  0  0  0  0  0  0  0  0  0
   28.0306  -18.5392  -17.5334 C   0  0  0  0  0  0  0  0  0  0  0  0
   27.8470  -17.3245  -17.3134 O   0  0  0  0  0  0  0  0  0  0  0  0
   26.9129  -19.3902  -17.9741 C   0  0  0  0  0  0  0  0  0  0  0  0
   26.1155  -20.0396  -16.9131 C   0  0  0  0  0  0  0  0  0  0  0  0
   26.7688  -20.9474  -15.9429 C   0  0  2  0  0  0  0  0  0  0  0  0
   27.1798  -22.1510  -16.7360 N   0  0  0  0  0  0  0  0  0  0  0  0
   25.9834  -21.4419  -14.8275 C   0  0  0  0  0  0  0  0  0  0  0  0
   25.2530  -22.4682  -14.9749 O   0  0  0  0  0  0  0  0  0  0  0  0
   27.3889  -20.6837  -11.6502 C   0  0  0  0  0  0  0  0  0  0  0  0
   26.1877  -21.5472  -11.2850 C   0  0  1  0  0  0  0  0  0  0  0  0
   25.5770  -20.9541  -10.0488 C   0  0  0  0  0  0  0  0  0  0  0  0
   25.1977  -21.4690  -12.4394 C   0  0  2  0  0  0  0  0  0  0  0  0
   25.9705  -20.8585  -13.5309 N   0  0  0  0  0  0  0  0  0  0  0  0
   24.0597  -20.6124  -12.1501 C   0  0  0  0  0  0  0  0  0  0  0  0
   24.2104  -19.4360  -11.7332 O   0  0  0  0  0  0  0  0  0  0  0  0
   22.6924  -21.0310  -12.3135 N   0  0  0  0  0  0  0  0  0  0  0  0
   21.7166  -20.2622  -13.0430 C   0  0  1  0  0  0  0  0  0  0  0  0
   22.1666  -19.7543  -14.3725 C   0  0  0  0  0  0  0  0  0  0  0  0
   21.2202  -18.9492  -15.1272 C   0  0  0  0  0  0  0  0  0  0  0  0
   20.5358  -17.8465  -14.6651 C   0  0  0  0  0  0  0  0  0  0  0  0
   19.7480  -17.3901  -15.6580 N   0  0  0  0  0  0  0  0  0  0  0  0
   19.9107  -18.1720  -16.7446 C   0  0  0  0  0  0  0  0  0  0  0  0
   19.3717  -18.1620  -18.0066 C   0  0  0  0  0  0  0  0  0  0  0  0
   19.6987  -19.0727  -18.9646 C   0  0  0  0  0  0  0  0  0  0  0  0
   20.6043  -20.0493  -18.6739 C   0  0  0  0  0  0  0  0  0  0  0  0
   21.1607  -20.0828  -17.4147 C   0  0  0  0  0  0  0  0  0  0  0  0
   20.8373  -19.1628  -16.4287 C   0  0  0  0  0  0  0  0  0  0  0  0
   20.4253  -20.9760  -13.1074 C   0  0  0  0  0  0  0  0  0  0  0  0
   19.2597  -20.3015  -12.7957 O   0  0  0  0  0  0  0  0  0  0  0  0
   20.3361  -22.1805  -13.4355 O   0  0  0  0  0  0  0  0  0  0  0  0
  1  2  1  0
  2  4  1  0
  3  2  2  0
  4  5  1  0
  6  7  1  6
  6  5  1  0
  8  9  2  0
  8  6  1  0
 11 10  1  6
 11 13  1  0
 12 11  1  0
 13 14  1  6
 14  8  1  0
 15 13  1  0
 15 17  1  0
 16 15  2  0
 18 17  1  0
 18 29  1  0
 19 20  1  0
 18 19  1  6
 20 28  1  0
 21 22  1  0
 21 20  2  0
 22 23  1  0
 23 28  2  0
 23 24  1  0
 24 25  2  0
 25 26  1  0
 27 26  2  0
 28 27  1  0
 29 31  2  0
 29 30  1  0
M  END
$$$$
