QVW.pdb
     RDKit          3D

 31 32  0  0  1  0  0  0  0  0999 V2000
   30.5623  -23.6714  -15.4293 N   0  0  0  0  0  0  0  0  0  0  0  0
   30.6289  -23.4866  -16.8468 C   0  0  0  0  0  0  0  0  0  0  0  0
   31.0664  -24.4028  -17.5725 O   0  0  0  0  0  0  0  0  0  0  0  0
   30.1763  -22.2194  -17.4443 C   0  0  0  0  0  0  0  0  0  0  0  0
   29.6020  -21.2187  -16.5211 C   0  0  0  0  0  0  0  0  0  0  0  0
   28.1547  -21.2397  -16.2096 C   0  0  2  0  0  0  0  0  0  0  0  0
   27.4749  -20.7017  -17.4322 N   0  0  0  0  0  0  0  0  0  0  0  0
   27.6800  -20.4423  -15.0939 C   0  0  0  0  0  0  0  0  0  0  0  0
   27.7238  -19.1765  -15.1584 O   0  0  0  0  0  0  0  0  0  0  0  0
   25.5483  -19.6780  -15.0533 C   0  0  0  0  0  0  0  0  0  0  0  0
   25.4170  -19.4017  -13.5606 C   0  0  1  0  0  0  0  0  0  0  0  0
   24.1175  -20.0049  -13.1125 C   0  0  0  0  0  0  0  0  0  0  0  0
   26.5777  -20.0961  -12.8610 C   0  0  2  0  0  0  0  0  0  0  0  0
   27.1392  -20.9792  -13.8935 N   0  0  0  0  0  0  0  0  0  0  0  0
   26.1516  -20.9168  -11.7396 C   0  0  0  0  0  0  0  0  0  0  0  0
   25.5326  -21.9972  -11.9124 O   0  0  0  0  0  0  0  0  0  0  0  0
   26.3979  -20.5680  -10.3652 N   0  0  0  0  0  0  0  0  0  0  0  0
   25.9937  -21.3977   -9.2590 C   0  0  1  0  0  0  0  0  0  0  0  0
   26.9729  -21.4876   -8.1359 C   0  0  0  0  0  0  0  0  0  0  0  0
   27.2734  -20.2577   -7.4212 C   0  0  0  0  0  0  0  0  0  0  0  0
   26.7989  -19.0005   -7.7247 C   0  0  0  0  0  0  0  0  0  0  0  0
   27.3170  -18.1271   -6.8395 N   0  0  0  0  0  0  0  0  0  0  0  0
   28.1109  -18.7930   -5.9764 C   0  0  0  0  0  0  0  0  0  0  0  0
   28.8663  -18.4090   -4.8969 C   0  0  0  0  0  0  0  0  0  0  0  0
   29.6011  -19.2810   -4.1527 C   0  0  0  0  0  0  0  0  0  0  0  0
   29.5983  -20.6040   -4.4813 C   0  0  0  0  0  0  0  0  0  0  0  0
   28.8488  -21.0167   -5.5604 C   0  0  0  0  0  0  0  0  0  0  0  0
   28.0960  -20.1407   -6.3278 C   0  0  0  0  0  0  0  0  0  0  0  0
   24.6320  -21.0465   -8.8077 C   0  0  0  0  0  0  0  0  0  0  0  0
   24.0237  -21.8076   -7.8272 O   0  0  0  0  0  0  0  0  0  0  0  0
   23.9942  -20.0781   -9.2786 O   0  0  0  0  0  0  0  0  0  0  0  0
  1  2  1  0
  2  4  1  0
  3  2  2  0
  4  5  1  0
  6  7  1  6
  6  5  1  0
  8  9  2  0
  8  6  1  0
 11 10  1  6
 11 13  1  0
 12 11  1  0
 13 14  1  6
 14  8  1  0
 15 13  1  0
 15 17  1  0
 16 15  2  0
 18 17  1  0
 18 29  1  0
 19 20  1  0
 18 19  1  1
 20 28  1  0
 21 22  1  0
 21 20  2  0
 22 23  1  0
 23 28  2  0
 23 24  1  0
 24 25  2  0
 25 26  1  0
 27 26  2  0
 28 27  1  0
 29 31  2  0
 29 30  1  0
M  END
$$$$
