QVW.pdb
     RDKit          3D

 31 32  0  0  1  0  0  0  0  0999 V2000
   22.2557  -14.5322  -14.9967 N   0  0  0  0  0  0  0  0  0  0  0  0
   23.3866  -13.6669  -15.1389 C   0  0  0  0  0  0  0  0  0  0  0  0
   23.2186  -12.4741  -15.4651 O   0  0  0  0  0  0  0  0  0  0  0  0
   24.7429  -14.1849  -14.8947 C   0  0  0  0  0  0  0  0  0  0  0  0
   24.8469  -15.5943  -14.4633 C   0  0  0  0  0  0  0  0  0  0  0  0
   25.9413  -16.4496  -14.9763 C   0  0  2  0  0  0  0  0  0  0  0  0
   25.7850  -16.4473  -16.4669 N   0  0  0  0  0  0  0  0  0  0  0  0
   25.9727  -17.8426  -14.5709 C   0  0  0  0  0  0  0  0  0  0  0  0
   25.0585  -18.6331  -14.9551 O   0  0  0  0  0  0  0  0  0  0  0  0
   28.2892  -21.8729  -13.3956 C   0  0  0  0  0  0  0  0  0  0  0  0
   28.2206  -20.4281  -13.8747 C   0  0  1  0  0  0  0  0  0  0  0  0
   28.2110  -20.4604  -15.3754 C   0  0  0  0  0  0  0  0  0  0  0  0
   26.9149  -19.8356  -13.3621 C   0  0  2  0  0  0  0  0  0  0  0  0
   26.9855  -18.4215  -13.7580 N   0  0  0  0  0  0  0  0  0  0  0  0
   26.7954  -19.8999  -11.9149 C   0  0  0  0  0  0  0  0  0  0  0  0
   27.6741  -19.4124  -11.1596 O   0  0  0  0  0  0  0  0  0  0  0  0
   25.6833  -20.5149  -11.2394 N   0  0  0  0  0  0  0  0  0  0  0  0
   25.7073  -20.8627   -9.8415 C   0  0  1  0  0  0  0  0  0  0  0  0
   26.1901  -19.7891   -8.9237 C   0  0  0  0  0  0  0  0  0  0  0  0
   26.3439  -20.1387   -7.5210 C   0  0  0  0  0  0  0  0  0  0  0  0
   25.5201  -20.9674   -6.7911 C   0  0  0  0  0  0  0  0  0  0  0  0
   25.9887  -21.0263   -5.5295 N   0  0  0  0  0  0  0  0  0  0  0  0
   27.0919  -20.2569   -5.4327 C   0  0  0  0  0  0  0  0  0  0  0  0
   27.9531  -19.9629   -4.4054 C   0  0  0  0  0  0  0  0  0  0  0  0
   29.0309  -19.1429   -4.5471 C   0  0  0  0  0  0  0  0  0  0  0  0
   29.2824  -18.5773   -5.7617 C   0  0  0  0  0  0  0  0  0  0  0  0
   28.4339  -18.8552   -6.8100 C   0  0  0  0  0  0  0  0  0  0  0  0
   27.3324  -19.6877   -6.6810 C   0  0  0  0  0  0  0  0  0  0  0  0
   24.4150  -21.4406   -9.4207 C   0  0  0  0  0  0  0  0  0  0  0  0
   24.3856  -22.3607   -8.3895 O   0  0  0  0  0  0  0  0  0  0  0  0
   23.3297  -21.1317   -9.9621 O   0  0  0  0  0  0  0  0  0  0  0  0
  1  2  1  0
  2  4  1  0
  3  2  2  0
  4  5  1  0
  6  7  1  6
  6  5  1  0
  8  9  2  0
  8  6  1  0
 11 10  1  1
 11 13  1  0
 12 11  1  0
 13 14  1  1
 14  8  1  0
 15 13  1  0
 15 17  1  0
 16 15  2  0
 18 17  1  0
 18 29  1  0
 19 20  1  0
 18 19  1  1
 20 28  1  0
 21 22  1  0
 21 20  2  0
 22 23  1  0
 23 28  2  0
 23 24  1  0
 24 25  2  0
 25 26  1  0
 27 26  2  0
 28 27  1  0
 29 31  2  0
 29 30  1  0
M  END
$$$$
