QVW.pdb
     RDKit          3D

 31 32  0  0  1  0  0  0  0  0999 V2000
   24.5683  -23.5914  -19.2565 N   0  0  0  0  0  0  0  0  0  0  0  0
   25.7834  -23.5463  -20.0110 C   0  0  0  0  0  0  0  0  0  0  0  0
   25.8348  -22.8815  -21.0659 O   0  0  0  0  0  0  0  0  0  0  0  0
   26.9693  -24.2792  -19.5378 C   0  0  0  0  0  0  0  0  0  0  0  0
   27.5454  -23.8464  -18.2477 C   0  0  0  0  0  0  0  0  0  0  0  0
   28.1906  -22.5190  -18.1301 C   0  0  2  0  0  0  0  0  0  0  0  0
   29.6027  -22.7189  -18.5908 N   0  0  0  0  0  0  0  0  0  0  0  0
   28.2720  -21.9082  -16.8163 C   0  0  0  0  0  0  0  0  0  0  0  0
   29.1294  -22.3230  -15.9789 O   0  0  0  0  0  0  0  0  0  0  0  0
   26.1796  -18.4840  -15.9477 C   0  0  0  0  0  0  0  0  0  0  0  0
   27.5265  -18.7455  -15.2849 C   0  0  1  0  0  0  0  0  0  0  0  0
   27.5224  -18.0156  -13.9732 C   0  0  0  0  0  0  0  0  0  0  0  0
   27.6356  -20.2447  -15.0418 C   0  0  2  0  0  0  0  0  0  0  0  0
   27.4488  -20.8363  -16.3747 N   0  0  0  0  0  0  0  0  0  0  0  0
   26.5924  -20.7522  -14.1661 C   0  0  0  0  0  0  0  0  0  0  0  0
   25.4389  -21.0077  -14.5956 O   0  0  0  0  0  0  0  0  0  0  0  0
   26.7890  -20.9994  -12.7620 N   0  0  0  0  0  0  0  0  0  0  0  0
   25.7577  -21.5249  -11.9042 C   0  0  1  0  0  0  0  0  0  0  0  0
   26.2211  -22.0124  -10.5718 C   0  0  0  0  0  0  0  0  0  0  0  0
   26.2888  -21.0352   -9.4975 C   0  0  0  0  0  0  0  0  0  0  0  0
   25.2812  -20.1809   -9.1065 C   0  0  0  0  0  0  0  0  0  0  0  0
   25.7382  -19.4241   -8.0900 N   0  0  0  0  0  0  0  0  0  0  0  0
   27.0127  -19.7722   -7.8196 C   0  0  0  0  0  0  0  0  0  0  0  0
   27.9371  -19.3398   -6.9021 C   0  0  0  0  0  0  0  0  0  0  0  0
   29.1935  -19.8564   -6.8090 C   0  0  0  0  0  0  0  0  0  0  0  0
   29.5690  -20.8525   -7.6605 C   0  0  0  0  0  0  0  0  0  0  0  0
   28.6609  -21.3053   -8.5914 C   0  0  0  0  0  0  0  0  0  0  0  0
   27.3783  -20.7889   -8.6986 C   0  0  0  0  0  0  0  0  0  0  0  0
   24.6224  -20.5850  -11.8095 C   0  0  0  0  0  0  0  0  0  0  0  0
   23.3400  -21.0807  -11.6660 O   0  0  0  0  0  0  0  0  0  0  0  0
   24.7696  -19.3430  -11.8538 O   0  0  0  0  0  0  0  0  0  0  0  0
  1  2  1  0
  2  4  1  0
  3  2  2  0
  4  5  1  0
  6  7  1  1
  6  5  1  0
  8  9  2  0
  8  6  1  0
 11 10  1  1
 11 13  1  0
 12 11  1  0
 13 14  1  6
 14  8  1  0
 15 13  1  0
 15 17  1  0
 16 15  2  0
 18 17  1  0
 18 29  1  0
 19 20  1  0
 18 19  1  1
 20 28  1  0
 21 22  1  0
 21 20  2  0
 22 23  1  0
 23 28  2  0
 23 24  1  0
 24 25  2  0
 25 26  1  0
 27 26  2  0
 28 27  1  0
 29 31  2  0
 29 30  1  0
M  END
$$$$
