QVW.pdb
     RDKit          3D

 31 32  0  0  1  0  0  0  0  0999 V2000
   29.2959  -21.1512  -19.3909 N   0  0  0  0  0  0  0  0  0  0  0  0
   30.1034  -22.1329  -18.7336 C   0  0  0  0  0  0  0  0  0  0  0  0
   30.7354  -22.9704  -19.4093 O   0  0  0  0  0  0  0  0  0  0  0  0
   30.1902  -22.1480  -17.2640 C   0  0  0  0  0  0  0  0  0  0  0  0
   29.3780  -21.1472  -16.5413 C   0  0  0  0  0  0  0  0  0  0  0  0
   28.0146  -21.4914  -16.0779 C   0  0  2  0  0  0  0  0  0  0  0  0
   27.1014  -21.1068  -17.2024 N   0  0  0  0  0  0  0  0  0  0  0  0
   27.5039  -20.8289  -14.8921 C   0  0  0  0  0  0  0  0  0  0  0  0
   28.1293  -19.8405  -14.4019 O   0  0  0  0  0  0  0  0  0  0  0  0
   23.6788  -21.5021  -13.6067 C   0  0  0  0  0  0  0  0  0  0  0  0
   24.3551  -20.1502  -13.4153 C   0  0  1  0  0  0  0  0  0  0  0  0
   23.6758  -19.4763  -12.2587 C   0  0  0  0  0  0  0  0  0  0  0  0
   25.8163  -20.4114  -13.0758 C   0  0  2  0  0  0  0  0  0  0  0  0
   26.3110  -21.2004  -14.2134 N   0  0  0  0  0  0  0  0  0  0  0  0
   25.9827  -21.1995  -11.8659 C   0  0  0  0  0  0  0  0  0  0  0  0
   25.9554  -22.4562  -11.8899 O   0  0  0  0  0  0  0  0  0  0  0  0
   26.1884  -20.6187  -10.5653 N   0  0  0  0  0  0  0  0  0  0  0  0
   26.2544  -21.4002   -9.3568 C   0  0  1  0  0  0  0  0  0  0  0  0
   27.5341  -21.2939   -8.5958 C   0  0  0  0  0  0  0  0  0  0  0  0
   27.6487  -20.1999   -7.6451 C   0  0  0  0  0  0  0  0  0  0  0  0
   27.0160  -18.9788   -7.7257 C   0  0  0  0  0  0  0  0  0  0  0  0
   27.3902  -18.2371   -6.6652 N   0  0  0  0  0  0  0  0  0  0  0  0
   28.2461  -18.9521   -5.9071 C   0  0  0  0  0  0  0  0  0  0  0  0
   28.9170  -18.6939   -4.7381 C   0  0  0  0  0  0  0  0  0  0  0  0
   29.7451  -19.5935   -4.1390 C   0  0  0  0  0  0  0  0  0  0  0  0
   29.9288  -20.8157   -4.7142 C   0  0  0  0  0  0  0  0  0  0  0  0
   29.2678  -21.1011   -5.8880 C   0  0  0  0  0  0  0  0  0  0  0  0
   28.4218  -20.1953   -6.5101 C   0  0  0  0  0  0  0  0  0  0  0  0
   25.0637  -21.1684   -8.5144 C   0  0  0  0  0  0  0  0  0  0  0  0
   24.1854  -20.1531   -8.8441 O   0  0  0  0  0  0  0  0  0  0  0  0
   24.8093  -21.8581   -7.5016 O   0  0  0  0  0  0  0  0  0  0  0  0
  1  2  1  0
  2  4  1  0
  3  2  2  0
  4  5  1  0
  6  7  1  6
  6  5  1  0
  8  9  2  0
  8  6  1  0
 11 10  1  1
 11 13  1  0
 12 11  1  0
 13 14  1  6
 14  8  1  0
 15 13  1  0
 15 17  1  0
 16 15  2  0
 18 17  1  0
 18 29  1  0
 19 20  1  0
 18 19  1  1
 20 28  1  0
 21 22  1  0
 21 20  2  0
 22 23  1  0
 23 28  2  0
 23 24  1  0
 24 25  2  0
 25 26  1  0
 27 26  2  0
 28 27  1  0
 29 31  2  0
 29 30  1  0
M  END
$$$$
