QVW.pdb
     RDKit          3D

 31 32  0  0  1  0  0  0  0  0999 V2000
   25.0955  -25.1267  -17.2188 N   0  0  0  0  0  0  0  0  0  0  0  0
   26.3676  -24.9621  -16.5844 C   0  0  0  0  0  0  0  0  0  0  0  0
   26.5227  -25.3260  -15.4008 O   0  0  0  0  0  0  0  0  0  0  0  0
   27.4895  -24.3695  -17.3311 C   0  0  0  0  0  0  0  0  0  0  0  0
   28.2581  -23.3109  -16.6439 C   0  0  0  0  0  0  0  0  0  0  0  0
   27.5963  -22.0439  -16.2579 C   0  0  2  0  0  0  0  0  0  0  0  0
   28.0497  -21.0327  -17.2670 N   0  0  0  0  0  0  0  0  0  0  0  0
   27.8949  -21.4819  -14.9538 C   0  0  0  0  0  0  0  0  0  0  0  0
   28.9911  -20.8729  -14.7643 O   0  0  0  0  0  0  0  0  0  0  0  0
   28.1850  -19.2187  -14.3726 C   0  0  0  0  0  0  0  0  0  0  0  0
   27.2195  -19.2847  -13.1956 C   0  0  1  0  0  0  0  0  0  0  0  0
   25.8501  -18.9816  -13.7302 C   0  0  0  0  0  0  0  0  0  0  0  0
   27.2582  -20.7054  -12.6489 C   0  0  2  0  0  0  0  0  0  0  0  0
   27.0257  -21.5485  -13.8306 N   0  0  0  0  0  0  0  0  0  0  0  0
   26.2028  -20.9683  -11.6847 C   0  0  0  0  0  0  0  0  0  0  0  0
   25.0358  -21.2605  -12.0495 O   0  0  0  0  0  0  0  0  0  0  0  0
   26.4016  -20.9170  -10.2602 N   0  0  0  0  0  0  0  0  0  0  0  0
   25.3690  -21.2432   -9.3100 C   0  0  1  0  0  0  0  0  0  0  0  0
   25.8078  -21.3041   -7.8847 C   0  0  0  0  0  0  0  0  0  0  0  0
   26.6163  -20.1997   -7.3943 C   0  0  0  0  0  0  0  0  0  0  0  0
   26.5200  -18.8818   -7.7837 C   0  0  0  0  0  0  0  0  0  0  0  0
   27.4488  -18.1731   -7.1131 N   0  0  0  0  0  0  0  0  0  0  0  0
   28.1374  -19.0033   -6.3037 C   0  0  0  0  0  0  0  0  0  0  0  0
   29.1671  -18.8199   -5.4153 C   0  0  0  0  0  0  0  0  0  0  0  0
   29.7123  -19.8323   -4.6860 C   0  0  0  0  0  0  0  0  0  0  0  0
   29.2240  -21.0966   -4.8323 C   0  0  0  0  0  0  0  0  0  0  0  0
   28.1907  -21.3090   -5.7175 C   0  0  0  0  0  0  0  0  0  0  0  0
   27.6257  -20.2884   -6.4673 C   0  0  0  0  0  0  0  0  0  0  0  0
   24.1811  -20.3887   -9.5098 C   0  0  0  0  0  0  0  0  0  0  0  0
   22.9708  -20.7683   -8.9602 O   0  0  0  0  0  0  0  0  0  0  0  0
   24.2197  -19.3218  -10.1628 O   0  0  0  0  0  0  0  0  0  0  0  0
  1  2  1  0
  2  4  1  0
  3  2  2  0
  4  5  1  0
  6  7  1  6
  6  5  1  0
  8  9  2  0
  8  6  1  0
 11 10  1  6
 11 13  1  0
 12 11  1  0
 13 14  1  6
 14  8  1  0
 15 13  1  0
 15 17  1  0
 16 15  2  0
 18 17  1  0
 18 29  1  0
 19 20  1  0
 18 19  1  1
 20 28  1  0
 21 22  1  0
 21 20  2  0
 22 23  1  0
 23 28  2  0
 23 24  1  0
 24 25  2  0
 25 26  1  0
 27 26  2  0
 28 27  1  0
 29 31  2  0
 29 30  1  0
M  END
$$$$
