NDS.pdb
     RDKit          3D

 23 22  0  0  1  0  0  0  0  0999 V2000
   26.2749  -20.1717   -7.5609 N   0  0  0  0  0  0  0  0  0  0  0  0
   25.3311  -20.7774   -8.4021 C   0  0  0  0  0  0  0  0  0  0  0  0
   24.6566  -21.7422   -7.9840 O   0  0  0  0  0  0  0  0  0  0  0  0
   25.1363  -20.2816   -9.7650 C   0  0  0  0  0  0  0  0  0  0  0  0
   25.8189  -21.1349  -10.8081 C   0  0  2  0  0  0  0  0  0  0  0  0
   27.2600  -21.1066  -10.6632 N   0  0  0  0  0  0  0  0  0  0  0  0
   25.4904  -20.5103  -12.1371 C   0  0  0  0  0  0  0  0  0  0  0  0
   26.0042  -19.3969  -12.4683 O   0  0  0  0  0  0  0  0  0  0  0  0
   24.6154  -21.1215  -13.0542 N   0  0  0  0  0  0  0  0  0  0  0  0
   24.4688  -20.5898  -14.3697 C   0  0  1  0  0  0  0  0  0  0  0  0
   24.8880  -21.5662  -15.4426 C   0  0  0  0  0  0  0  0  0  0  0  0
   25.3824  -20.8889  -16.6667 C   0  0  0  0  0  0  0  0  0  0  0  0
   24.6435  -20.0738  -17.2772 O   0  0  0  0  0  0  0  0  0  0  0  0
   23.0614  -20.1939  -14.6691 C   0  0  0  0  0  0  0  0  0  0  0  0
   22.1846  -21.0762  -14.5448 O   0  0  0  0  0  0  0  0  0  0  0  0
   26.6678  -21.1468  -17.1537 O   0  0  0  0  0  0  0  0  0  0  0  0
   19.9824  -16.9966  -16.5074 O   0  0  0  0  0  0  0  0  0  0  0  0
   21.2872  -17.3197  -16.1922 C   0  0  0  0  0  0  0  0  0  0  0  0
   21.3142  -18.6271  -15.4355 C   0  0  2  0  0  0  0  0  0  0  0  0
   22.6862  -18.8962  -15.0770 N   0  0  0  0  0  0  0  0  0  0  0  0
   20.7105  -19.7382  -16.2108 C   0  0  0  0  0  0  0  0  0  0  0  0
   21.3157  -20.2732  -17.3372 O   0  0  0  0  0  0  0  0  0  0  0  0
   19.6104  -20.2301  -15.8540 O   0  0  0  0  0  0  0  0  0  0  0  0
  2  1  1  0
  3  2  2  0
  4  2  1  0
  5  6  1  1
  5  4  1  0
  7  5  1  0
  7  8  2  0
  9  7  1  0
 10  9  1  0
 10 14  1  0
 10 11  1  6
 12 13  2  0
 12 11  1  0
 14 15  2  0
 14 20  1  0
 16 12  1  0
 18 17  1  0
 19 18  1  6
 19 21  1  0
 20 19  1  0
 21 23  2  0
 21 22  1  0
M  END
$$$$
