NDS.pdb
     RDKit          3D

 23 22  0  0  1  0  0  0  0  0999 V2000
   19.1790  -13.6176  -15.3999 N   0  0  0  0  0  0  0  0  0  0  0  0
   18.3533  -12.4847  -15.3827 C   0  0  0  0  0  0  0  0  0  0  0  0
   17.1394  -12.6063  -15.1139 O   0  0  0  0  0  0  0  0  0  0  0  0
   18.9108  -11.1645  -15.6786 C   0  0  0  0  0  0  0  0  0  0  0  0
   18.0082  -10.3231  -16.5500 C   0  0  2  0  0  0  0  0  0  0  0  0
   17.9740  -10.8110  -17.9136 N   0  0  0  0  0  0  0  0  0  0  0  0
   18.6222   -8.9496  -16.5815 C   0  0  0  0  0  0  0  0  0  0  0  0
   19.4943   -8.6556  -17.4569 O   0  0  0  0  0  0  0  0  0  0  0  0
   18.2634   -7.9493  -15.6590 N   0  0  0  0  0  0  0  0  0  0  0  0
   18.6821   -6.6011  -15.8633 C   0  0  1  0  0  0  0  0  0  0  0  0
   17.6599   -5.5956  -15.3901 C   0  0  0  0  0  0  0  0  0  0  0  0
   16.4480   -5.5702  -16.2459 C   0  0  0  0  0  0  0  0  0  0  0  0
   15.3725   -6.0729  -15.8291 O   0  0  0  0  0  0  0  0  0  0  0  0
   19.9582   -6.2889  -15.1553 C   0  0  0  0  0  0  0  0  0  0  0  0
   20.0126   -6.5613  -13.9365 O   0  0  0  0  0  0  0  0  0  0  0  0
   16.4863   -4.9908  -17.5181 O   0  0  0  0  0  0  0  0  0  0  0  0
   24.5179   -4.7503  -15.3138 O   0  0  0  0  0  0  0  0  0  0  0  0
   23.3331   -4.9581  -15.9915 C   0  0  0  0  0  0  0  0  0  0  0  0
   22.2960   -5.5043  -15.0382 C   0  0  2  0  0  0  0  0  0  0  0  0
   21.0803   -5.7125  -15.7878 N   0  0  0  0  0  0  0  0  0  0  0  0
   22.0864   -4.6183  -13.8673 C   0  0  0  0  0  0  0  0  0  0  0  0
   22.6807   -4.8578  -12.6382 O   0  0  0  0  0  0  0  0  0  0  0  0
   21.3472   -3.6068  -13.9673 O   0  0  0  0  0  0  0  0  0  0  0  0
  2  1  1  0
  3  2  2  0
  4  2  1  0
  5  6  1  6
  5  4  1  0
  7  5  1  0
  7  8  2  0
  9  7  1  0
 10  9  1  0
 10 14  1  0
 10 11  1  1
 12 13  2  0
 12 11  1  0
 14 15  2  0
 14 20  1  0
 16 12  1  0
 18 17  1  0
 19 18  1  6
 19 21  1  0
 20 19  1  0
 21 23  2  0
 21 22  1  0
M  END
$$$$
