NDS.pdb
     RDKit          3D

 23 22  0  0  1  0  0  0  0  0999 V2000
   10.5523  -13.3454  -11.7095 N   0  0  0  0  0  0  0  0  0  0  0  0
   11.8996  -13.1386  -11.3819 C   0  0  0  0  0  0  0  0  0  0  0  0
   12.3750  -13.6633  -10.3526 O   0  0  0  0  0  0  0  0  0  0  0  0
   12.7464  -12.3113  -12.2420 C   0  0  0  0  0  0  0  0  0  0  0  0
   12.0174  -11.7779  -13.4529 C   0  0  2  0  0  0  0  0  0  0  0  0
   11.7131  -12.8301  -14.4009 N   0  0  0  0  0  0  0  0  0  0  0  0
   12.9705  -10.8291  -14.1281 C   0  0  0  0  0  0  0  0  0  0  0  0
   13.4825  -11.1246  -15.2524 O   0  0  0  0  0  0  0  0  0  0  0  0
   13.3295   -9.5957  -13.5537 N   0  0  0  0  0  0  0  0  0  0  0  0
   14.1092   -8.6588  -14.2948 C   0  0  1  0  0  0  0  0  0  0  0  0
   13.6626   -7.2322  -14.0823 C   0  0  0  0  0  0  0  0  0  0  0  0
   14.3983   -6.2715  -14.9410 C   0  0  0  0  0  0  0  0  0  0  0  0
   14.8628   -5.2122  -14.4456 O   0  0  0  0  0  0  0  0  0  0  0  0
   15.5574   -8.7178  -13.9395 C   0  0  0  0  0  0  0  0  0  0  0  0
   15.8422   -8.7665  -12.7234 O   0  0  0  0  0  0  0  0  0  0  0  0
   14.5833   -6.5302  -16.3028 O   0  0  0  0  0  0  0  0  0  0  0  0
   18.1909  -11.1544  -14.8332 O   0  0  0  0  0  0  0  0  0  0  0  0
   18.6196   -9.9208  -15.2815 C   0  0  0  0  0  0  0  0  0  0  0  0
   17.9677   -8.8320  -14.4617 C   0  0  2  0  0  0  0  0  0  0  0  0
   16.5955   -8.7208  -14.8954 N   0  0  0  0  0  0  0  0  0  0  0  0
   18.6924   -7.5419  -14.5625 C   0  0  0  0  0  0  0  0  0  0  0  0
   19.9676   -7.3636  -14.0493 O   0  0  0  0  0  0  0  0  0  0  0  0
   18.1522   -6.5587  -15.1293 O   0  0  0  0  0  0  0  0  0  0  0  0
  2  1  1  0
  3  2  2  0
  4  2  1  0
  5  6  1  6
  5  4  1  0
  7  5  1  0
  7  8  2  0
  9  7  1  0
 10  9  1  0
 10 14  1  0
 10 11  1  1
 12 13  2  0
 12 11  1  0
 14 15  2  0
 14 20  1  0
 16 12  1  0
 18 17  1  0
 19 18  1  6
 19 21  1  0
 20 19  1  0
 21 23  2  0
 21 22  1  0
M  END
$$$$
