NDS.pdb
     RDKit          3D

 23 22  0  0  1  0  0  0  0  0999 V2000
   12.8710   -4.8179   -8.3656 N   0  0  0  0  0  0  0  0  0  0  0  0
   14.1392   -4.3206   -8.0346 C   0  0  0  0  0  0  0  0  0  0  0  0
   14.2433   -3.2021   -7.4881 O   0  0  0  0  0  0  0  0  0  0  0  0
   15.3370   -5.1084   -8.3280 C   0  0  0  0  0  0  0  0  0  0  0  0
   15.0262   -6.4421   -8.9660 C   0  0  2  0  0  0  0  0  0  0  0  0
   14.5609   -7.4066   -7.9904 N   0  0  0  0  0  0  0  0  0  0  0  0
   16.3299   -6.9546   -9.5154 C   0  0  0  0  0  0  0  0  0  0  0  0
   17.2051   -7.4480   -8.7382 O   0  0  0  0  0  0  0  0  0  0  0  0
   16.6308   -6.9103  -10.8894 N   0  0  0  0  0  0  0  0  0  0  0  0
   17.7460   -7.6361  -11.4035 C   0  0  1  0  0  0  0  0  0  0  0  0
   17.3345   -8.7691  -12.3130 C   0  0  0  0  0  0  0  0  0  0  0  0
   18.4975   -9.5034  -12.8694 C   0  0  0  0  0  0  0  0  0  0  0  0
   18.8332   -9.3337  -14.0702 O   0  0  0  0  0  0  0  0  0  0  0  0
   18.6771   -6.7694  -12.1839 C   0  0  0  0  0  0  0  0  0  0  0  0
   18.1829   -6.1018  -13.1180 O   0  0  0  0  0  0  0  0  0  0  0  0
   19.2301  -10.3875  -12.0711 O   0  0  0  0  0  0  0  0  0  0  0  0
   22.0795   -7.7995  -13.3512 O   0  0  0  0  0  0  0  0  0  0  0  0
   21.4164   -6.7098  -13.8796 C   0  0  0  0  0  0  0  0  0  0  0  0
   20.8934   -5.8447  -12.7567 C   0  0  2  0  0  0  0  0  0  0  0  0
   20.0599   -6.6733  -11.9189 N   0  0  0  0  0  0  0  0  0  0  0  0
   20.1711   -4.6498  -13.2571 C   0  0  0  0  0  0  0  0  0  0  0  0
   18.9339   -4.2679  -12.7624 O   0  0  0  0  0  0  0  0  0  0  0  0
   20.6781   -3.9408  -14.1625 O   0  0  0  0  0  0  0  0  0  0  0  0
  2  1  1  0
  3  2  2  0
  4  2  1  0
  5  6  1  1
  5  4  1  0
  7  5  1  0
  7  8  2  0
  9  7  1  0
 10  9  1  0
 10 14  1  0
 10 11  1  6
 12 13  2  0
 12 11  1  0
 14 15  2  0
 14 20  1  0
 16 12  1  0
 18 17  1  0
 19 18  1  6
 19 21  1  0
 20 19  1  0
 21 23  2  0
 21 22  1  0
M  END
$$$$
