NDS.pdb
     RDKit          3D

 23 22  0  0  1  0  0  0  0  0999 V2000
   13.7083   -8.2126  -15.8416 N   0  0  0  0  0  0  0  0  0  0  0  0
   15.0271   -8.3423  -16.2991 C   0  0  0  0  0  0  0  0  0  0  0  0
   15.2491   -8.8700  -17.4095 O   0  0  0  0  0  0  0  0  0  0  0  0
   16.1399   -7.8614  -15.4794 C   0  0  0  0  0  0  0  0  0  0  0  0
   17.4544   -8.5238  -15.8195 C   0  0  2  0  0  0  0  0  0  0  0  0
   17.5168   -9.8800  -15.3143 N   0  0  0  0  0  0  0  0  0  0  0  0
   18.5165   -7.7313  -15.1064 C   0  0  0  0  0  0  0  0  0  0  0  0
   18.4784   -7.5961  -13.8440 O   0  0  0  0  0  0  0  0  0  0  0  0
   19.5789   -7.1168  -15.7948 N   0  0  0  0  0  0  0  0  0  0  0  0
   20.5844   -6.4056  -15.0751 C   0  0  1  0  0  0  0  0  0  0  0  0
   21.9808   -6.8724  -15.4101 C   0  0  0  0  0  0  0  0  0  0  0  0
   22.2206   -8.2815  -15.0120 C   0  0  0  0  0  0  0  0  0  0  0  0
   22.3287   -8.5821  -13.7950 O   0  0  0  0  0  0  0  0  0  0  0  0
   20.5422   -4.9376  -15.3404 C   0  0  0  0  0  0  0  0  0  0  0  0
   20.4490   -4.5788  -16.5342 O   0  0  0  0  0  0  0  0  0  0  0  0
   22.3288   -9.2863  -15.9787 O   0  0  0  0  0  0  0  0  0  0  0  0
   19.1685   -0.6697  -14.0239 O   0  0  0  0  0  0  0  0  0  0  0  0
   19.3889   -1.9980  -13.7185 C   0  0  0  0  0  0  0  0  0  0  0  0
   20.4235   -2.5671  -14.6609 C   0  0  2  0  0  0  0  0  0  0  0  0
   20.6016   -3.9595  -14.3250 N   0  0  0  0  0  0  0  0  0  0  0  0
   21.7001   -1.8133  -14.6163 C   0  0  0  0  0  0  0  0  0  0  0  0
   21.9699   -0.7571  -15.4723 O   0  0  0  0  0  0  0  0  0  0  0  0
   22.5860   -2.1240  -13.7807 O   0  0  0  0  0  0  0  0  0  0  0  0
  2  1  1  0
  3  2  2  0
  4  2  1  0
  5  6  1  1
  5  4  1  0
  7  5  1  0
  7  8  2  0
  9  7  1  0
 10  9  1  0
 10 14  1  0
 10 11  1  6
 12 13  2  0
 12 11  1  0
 14 15  2  0
 14 20  1  0
 16 12  1  0
 18 17  1  0
 19 18  1  1
 19 21  1  0
 20 19  1  0
 21 23  2  0
 21 22  1  0
M  END
$$$$
