NDS.pdb
     RDKit          3D

 23 22  0  0  1  0  0  0  0  0999 V2000
   18.6287  -11.4179  -16.8320 N   0  0  0  0  0  0  0  0  0  0  0  0
   19.6703  -11.5212  -15.8993 C   0  0  0  0  0  0  0  0  0  0  0  0
   20.4713  -12.4774  -15.9678 O   0  0  0  0  0  0  0  0  0  0  0  0
   19.8191  -10.5129  -14.8493 C   0  0  0  0  0  0  0  0  0  0  0  0
   18.8030   -9.3994  -14.9502 C   0  0  2  0  0  0  0  0  0  0  0  0
   19.2070   -8.3916  -15.9093 N   0  0  0  0  0  0  0  0  0  0  0  0
   18.7703   -8.7418  -13.5971 C   0  0  0  0  0  0  0  0  0  0  0  0
   18.4876   -9.4191  -12.5603 O   0  0  0  0  0  0  0  0  0  0  0  0
   19.0464   -7.3728  -13.4247 N   0  0  0  0  0  0  0  0  0  0  0  0
   19.1336   -6.8179  -12.1135 C   0  0  1  0  0  0  0  0  0  0  0  0
   19.9279   -5.5343  -12.0758 C   0  0  0  0  0  0  0  0  0  0  0  0
   21.3618   -5.7427  -12.3953 C   0  0  0  0  0  0  0  0  0  0  0  0
   21.9145   -6.8395  -12.1222 O   0  0  0  0  0  0  0  0  0  0  0  0
   17.7920   -6.5153  -11.5341 C   0  0  0  0  0  0  0  0  0  0  0  0
   16.9281   -6.0557  -12.3119 O   0  0  0  0  0  0  0  0  0  0  0  0
   22.1115   -4.7288  -13.0001 O   0  0  0  0  0  0  0  0  0  0  0  0
   14.5935   -7.0680   -8.0310 O   0  0  0  0  0  0  0  0  0  0  0  0
   15.8511   -7.3380   -8.5328 C   0  0  0  0  0  0  0  0  0  0  0  0
   16.1278   -6.4352   -9.7123 C   0  0  2  0  0  0  0  0  0  0  0  0
   17.4641   -6.7209  -10.1770 N   0  0  0  0  0  0  0  0  0  0  0  0
   15.9466   -5.0016   -9.3779 C   0  0  0  0  0  0  0  0  0  0  0  0
   14.7043   -4.3869   -9.3894 O   0  0  0  0  0  0  0  0  0  0  0  0
   16.9402   -4.2964   -9.0694 O   0  0  0  0  0  0  0  0  0  0  0  0
  2  1  1  0
  3  2  2  0
  4  2  1  0
  5  6  1  6
  5  4  1  0
  7  5  1  0
  7  8  2  0
  9  7  1  0
 10  9  1  0
 10 14  1  0
 10 11  1  6
 12 13  2  0
 12 11  1  0
 14 15  2  0
 14 20  1  0
 16 12  1  0
 18 17  1  0
 19 18  1  1
 19 21  1  0
 20 19  1  0
 21 23  2  0
 21 22  1  0
M  END
$$$$
