NDS.pdb
     RDKit          3D

 23 22  0  0  1  0  0  0  0  0999 V2000
   12.9810   -5.9769   -7.9682 N   0  0  0  0  0  0  0  0  0  0  0  0
   14.3091   -5.8101   -7.5514 C   0  0  0  0  0  0  0  0  0  0  0  0
   14.5797   -4.9748   -6.6628 O   0  0  0  0  0  0  0  0  0  0  0  0
   15.3747   -6.6111   -8.1547 C   0  0  0  0  0  0  0  0  0  0  0  0
   14.8564   -7.6682   -9.1014 C   0  0  2  0  0  0  0  0  0  0  0  0
   14.3399   -8.8185   -8.3883 N   0  0  0  0  0  0  0  0  0  0  0  0
   16.0455   -8.1325   -9.8983 C   0  0  0  0  0  0  0  0  0  0  0  0
   16.9148   -8.8937   -9.3708 O   0  0  0  0  0  0  0  0  0  0  0  0
   16.2423   -7.7506  -11.2383 N   0  0  0  0  0  0  0  0  0  0  0  0
   17.3491   -8.2657  -11.9761 C   0  0  1  0  0  0  0  0  0  0  0  0
   16.9222   -9.0987  -13.1610 C   0  0  0  0  0  0  0  0  0  0  0  0
   18.0757   -9.6310  -13.9277 C   0  0  0  0  0  0  0  0  0  0  0  0
   19.0610  -10.1247  -13.3206 O   0  0  0  0  0  0  0  0  0  0  0  0
   18.2342   -7.1851  -12.5016 C   0  0  0  0  0  0  0  0  0  0  0  0
   17.6749   -6.1637  -12.9558 O   0  0  0  0  0  0  0  0  0  0  0  0
   18.0815   -9.5907  -15.3256 O   0  0  0  0  0  0  0  0  0  0  0  0
   22.4598   -5.0252  -12.6172 O   0  0  0  0  0  0  0  0  0  0  0  0
   21.7150   -6.1193  -12.2240 C   0  0  0  0  0  0  0  0  0  0  0  0
   20.4208   -6.1544  -13.0027 C   0  0  2  0  0  0  0  0  0  0  0  0
   19.6431   -7.2649  -12.5076 N   0  0  0  0  0  0  0  0  0  0  0  0
   20.6471   -6.2384  -14.4661 C   0  0  0  0  0  0  0  0  0  0  0  0
   20.8100   -7.4470  -15.1249 O   0  0  0  0  0  0  0  0  0  0  0  0
   20.6972   -5.1896  -15.1569 O   0  0  0  0  0  0  0  0  0  0  0  0
  2  1  1  0
  3  2  2  0
  4  2  1  0
  5  6  1  1
  5  4  1  0
  7  5  1  0
  7  8  2  0
  9  7  1  0
 10  9  1  0
 10 14  1  0
 10 11  1  6
 12 13  2  0
 12 11  1  0
 14 15  2  0
 14 20  1  0
 16 12  1  0
 18 17  1  0
 19 18  1  1
 19 21  1  0
 20 19  1  0
 21 23  2  0
 21 22  1  0
M  END
$$$$
