NDS.pdb
     RDKit          3D

 23 22  0  0  1  0  0  0  0  0999 V2000
   17.7568  -10.5498  -15.6935 N   0  0  0  0  0  0  0  0  0  0  0  0
   16.8256   -9.5024  -15.6608 C   0  0  0  0  0  0  0  0  0  0  0  0
   15.7105   -9.6469  -16.2052 O   0  0  0  0  0  0  0  0  0  0  0  0
   17.1581   -8.2442  -14.9916 C   0  0  0  0  0  0  0  0  0  0  0  0
   18.5664   -8.2189  -14.4454 C   0  0  2  0  0  0  0  0  0  0  0  0
   18.6772   -8.9773  -13.2161 N   0  0  0  0  0  0  0  0  0  0  0  0
   18.8577   -6.7808  -14.1118 C   0  0  0  0  0  0  0  0  0  0  0  0
   18.3650   -6.2509  -13.0679 O   0  0  0  0  0  0  0  0  0  0  0  0
   19.6739   -5.9751  -14.9273 N   0  0  0  0  0  0  0  0  0  0  0  0
   19.9446   -4.6237  -14.5595 C   0  0  1  0  0  0  0  0  0  0  0  0
   21.3783   -4.2259  -14.8170 C   0  0  0  0  0  0  0  0  0  0  0  0
   22.3266   -4.8763  -13.8794 C   0  0  0  0  0  0  0  0  0  0  0  0
   23.3108   -5.5207  -14.3257 O   0  0  0  0  0  0  0  0  0  0  0  0
   19.0852   -3.6512  -15.2963 C   0  0  0  0  0  0  0  0  0  0  0  0
   19.0069   -3.7885  -16.5363 O   0  0  0  0  0  0  0  0  0  0  0  0
   22.1392   -4.7815  -12.4967 O   0  0  0  0  0  0  0  0  0  0  0  0
   15.6072   -3.1928  -14.9759 O   0  0  0  0  0  0  0  0  0  0  0  0
   16.0956   -1.9139  -14.7962 C   0  0  0  0  0  0  0  0  0  0  0  0
   17.4583   -1.7997  -15.4386 C   0  0  2  0  0  0  0  0  0  0  0  0
   18.3735   -2.6071  -14.6680 N   0  0  0  0  0  0  0  0  0  0  0  0
   17.9117   -0.3919  -15.5495 C   0  0  0  0  0  0  0  0  0  0  0  0
   17.3063    0.5191  -16.4009 O   0  0  0  0  0  0  0  0  0  0  0  0
   18.8782    0.0150  -14.8567 O   0  0  0  0  0  0  0  0  0  0  0  0
  2  1  1  0
  3  2  2  0
  4  2  1  0
  5  6  1  1
  5  4  1  0
  7  5  1  0
  7  8  2  0
  9  7  1  0
 10  9  1  0
 10 14  1  0
 10 11  1  6
 12 13  2  0
 12 11  1  0
 14 15  2  0
 14 20  1  0
 16 12  1  0
 18 17  1  0
 19 18  1  1
 19 21  1  0
 20 19  1  0
 21 23  2  0
 21 22  1  0
M  END
$$$$
