NDS.pdb
     RDKit          3D

 23 22  0  0  1  0  0  0  0  0999 V2000
   10.3976  -12.4273  -10.7644 N   0  0  0  0  0  0  0  0  0  0  0  0
   10.7056  -11.5861   -9.6860 C   0  0  0  0  0  0  0  0  0  0  0  0
    9.8430  -11.3580   -8.8116 O   0  0  0  0  0  0  0  0  0  0  0  0
   12.0324  -10.9774   -9.5846 C   0  0  0  0  0  0  0  0  0  0  0  0
   12.9560  -11.3810  -10.7099 C   0  0  2  0  0  0  0  0  0  0  0  0
   13.3530  -12.7701  -10.6042 N   0  0  0  0  0  0  0  0  0  0  0  0
   14.1981  -10.5470  -10.5484 C   0  0  0  0  0  0  0  0  0  0  0  0
   15.0558  -10.8377   -9.6578 O   0  0  0  0  0  0  0  0  0  0  0  0
   14.4587   -9.4291  -11.3623 N   0  0  0  0  0  0  0  0  0  0  0  0
   15.6467   -8.6631  -11.1707 C   0  0  1  0  0  0  0  0  0  0  0  0
   16.4473   -8.5023  -12.4407 C   0  0  0  0  0  0  0  0  0  0  0  0
   17.6958   -7.7281  -12.2323 C   0  0  0  0  0  0  0  0  0  0  0  0
   18.5622   -8.1383  -11.4173 O   0  0  0  0  0  0  0  0  0  0  0  0
   15.3613   -7.2899  -10.6607 C   0  0  0  0  0  0  0  0  0  0  0  0
   14.4704   -6.6395  -11.2487 O   0  0  0  0  0  0  0  0  0  0  0  0
   17.9231   -6.5404  -12.9348 O   0  0  0  0  0  0  0  0  0  0  0  0
   15.1510   -4.2556   -7.0843 O   0  0  0  0  0  0  0  0  0  0  0  0
   15.5465   -5.4807   -7.5834 C   0  0  0  0  0  0  0  0  0  0  0  0
   15.6383   -5.4058   -9.0896 C   0  0  2  0  0  0  0  0  0  0  0  0
   16.0385   -6.7073   -9.5682 N   0  0  0  0  0  0  0  0  0  0  0  0
   16.5587   -4.3353   -9.5444 C   0  0  0  0  0  0  0  0  0  0  0  0
   16.1828   -3.0020   -9.5909 O   0  0  0  0  0  0  0  0  0  0  0  0
   17.7278   -4.6217   -9.9061 O   0  0  0  0  0  0  0  0  0  0  0  0
  2  1  1  0
  3  2  2  0
  4  2  1  0
  5  6  1  1
  5  4  1  0
  7  5  1  0
  7  8  2  0
  9  7  1  0
 10  9  1  0
 10 14  1  0
 10 11  1  6
 12 13  2  0
 12 11  1  0
 14 15  2  0
 14 20  1  0
 16 12  1  0
 18 17  1  0
 19 18  1  1
 19 21  1  0
 20 19  1  0
 21 23  2  0
 21 22  1  0
M  END
$$$$
