NDS.pdb
     RDKit          3D

 23 22  0  0  1  0  0  0  0  0999 V2000
   13.1299   -5.1837   -8.0677 N   0  0  0  0  0  0  0  0  0  0  0  0
   14.5093   -5.0079   -7.8895 C   0  0  0  0  0  0  0  0  0  0  0  0
   14.9309   -4.0231   -7.2467 O   0  0  0  0  0  0  0  0  0  0  0  0
   15.4522   -5.9739   -8.4543 C   0  0  0  0  0  0  0  0  0  0  0  0
   14.7707   -7.1560   -9.1027 C   0  0  2  0  0  0  0  0  0  0  0  0
   14.3193   -8.1191   -8.1192 N   0  0  0  0  0  0  0  0  0  0  0  0
   15.8202   -7.8324   -9.9426 C   0  0  0  0  0  0  0  0  0  0  0  0
   16.6738   -8.6045   -9.4053 O   0  0  0  0  0  0  0  0  0  0  0  0
   15.9002   -7.6424  -11.3346 N   0  0  0  0  0  0  0  0  0  0  0  0
   16.7922   -8.4343  -12.1169 C   0  0  1  0  0  0  0  0  0  0  0  0
   16.1067   -9.1018  -13.2850 C   0  0  0  0  0  0  0  0  0  0  0  0
   17.0416   -9.9067  -14.1094 C   0  0  0  0  0  0  0  0  0  0  0  0
   17.9309  -10.6026  -13.5544 O   0  0  0  0  0  0  0  0  0  0  0  0
   17.9212   -7.6341  -12.6757 C   0  0  0  0  0  0  0  0  0  0  0  0
   17.6577   -6.4764  -13.0668 O   0  0  0  0  0  0  0  0  0  0  0  0
   16.9462   -9.9017  -15.5046 O   0  0  0  0  0  0  0  0  0  0  0  0
   22.5613   -7.3135  -13.9192 O   0  0  0  0  0  0  0  0  0  0  0  0
   21.5434   -8.0932  -13.4072 C   0  0  0  0  0  0  0  0  0  0  0  0
   20.2509   -7.3109  -13.4258 C   0  0  2  0  0  0  0  0  0  0  0  0
   19.2431   -8.1169  -12.7794 N   0  0  0  0  0  0  0  0  0  0  0  0
   19.8537   -6.9136  -14.7985 C   0  0  0  0  0  0  0  0  0  0  0  0
   20.0053   -5.6193  -15.2709 O   0  0  0  0  0  0  0  0  0  0  0  0
   19.3591   -7.7631  -15.5817 O   0  0  0  0  0  0  0  0  0  0  0  0
  2  1  1  0
  3  2  2  0
  4  2  1  0
  5  6  1  1
  5  4  1  0
  7  5  1  0
  7  8  2  0
  9  7  1  0
 10  9  1  0
 10 14  1  0
 10 11  1  6
 12 13  2  0
 12 11  1  0
 14 15  2  0
 14 20  1  0
 16 12  1  0
 18 17  1  0
 19 18  1  6
 19 21  1  0
 20 19  1  0
 21 23  2  0
 21 22  1  0
M  END
$$$$
