NDS.pdb
     RDKit          3D

 23 22  0  0  1  0  0  0  0  0999 V2000
   21.3775  -12.9414  -18.6577 N   0  0  0  0  0  0  0  0  0  0  0  0
   20.2662  -12.4966  -17.9281 C   0  0  0  0  0  0  0  0  0  0  0  0
   19.3707  -13.3065  -17.6071 O   0  0  0  0  0  0  0  0  0  0  0  0
   20.1549  -11.0891  -17.5436 C   0  0  0  0  0  0  0  0  0  0  0  0
   19.9708  -10.8949  -16.0568 C   0  0  2  0  0  0  0  0  0  0  0  0
   18.6677  -11.3479  -15.6152 N   0  0  0  0  0  0  0  0  0  0  0  0
   20.0322   -9.4100  -15.8202 C   0  0  0  0  0  0  0  0  0  0  0  0
   18.9694   -8.7145  -15.8236 O   0  0  0  0  0  0  0  0  0  0  0  0
   21.2478   -8.7398  -15.5891 N   0  0  0  0  0  0  0  0  0  0  0  0
   21.2551   -7.3386  -15.3216 C   0  0  1  0  0  0  0  0  0  0  0  0
   21.8782   -7.0036  -13.9876 C   0  0  0  0  0  0  0  0  0  0  0  0
   21.8623   -5.5477  -13.7017 C   0  0  0  0  0  0  0  0  0  0  0  0
   20.7702   -4.9596  -13.4902 O   0  0  0  0  0  0  0  0  0  0  0  0
   22.0034   -6.5664  -16.3564 C   0  0  0  0  0  0  0  0  0  0  0  0
   23.1652   -6.9460  -16.6184 O   0  0  0  0  0  0  0  0  0  0  0  0
   23.0536   -4.8161  -13.6640 O   0  0  0  0  0  0  0  0  0  0  0  0
   20.9237   -5.6640  -19.7647 O   0  0  0  0  0  0  0  0  0  0  0  0
   21.3611   -4.4776  -19.2102 C   0  0  0  0  0  0  0  0  0  0  0  0
   22.2612   -4.7729  -18.0332 C   0  0  2  0  0  0  0  0  0  0  0  0
   21.4682   -5.4517  -17.0363 N   0  0  0  0  0  0  0  0  0  0  0  0
   22.9056   -3.5493  -17.4971 C   0  0  0  0  0  0  0  0  0  0  0  0
   24.0270   -2.9825  -18.0824 O   0  0  0  0  0  0  0  0  0  0  0  0
   22.4370   -2.9866  -16.4757 O   0  0  0  0  0  0  0  0  0  0  0  0
  2  1  1  0
  3  2  2  0
  4  2  1  0
  5  6  1  6
  5  4  1  0
  7  5  1  0
  7  8  2  0
  9  7  1  0
 10  9  1  0
 10 14  1  0
 10 11  1  1
 12 13  2  0
 12 11  1  0
 14 15  2  0
 14 20  1  0
 16 12  1  0
 18 17  1  0
 19 18  1  6
 19 21  1  0
 20 19  1  0
 21 23  2  0
 21 22  1  0
M  END
$$$$
