VQM.pdb
     RDKit          3D

 25 24  0  0  1  0  0  0  0  0999 V2000
   22.7480  -24.3631  -20.5681 C   0  0  0  0  0  0  0  0  0  0  0  0
   23.4342  -23.3831  -19.6573 C   0  0  2  0  0  0  0  0  0  0  0  0
   23.3604  -22.0181  -20.2819 C   0  0  0  0  0  0  0  0  0  0  0  0
   24.8881  -23.7618  -19.4043 C   0  0  2  0  0  0  0  0  0  0  0  0
   25.6246  -23.8129  -20.6421 N   0  0  0  0  0  0  0  0  0  0  0  0
   24.9362  -25.1049  -18.7426 C   0  0  0  0  0  0  0  0  0  0  0  0
   25.1769  -26.0977  -19.4744 O   0  0  0  0  0  0  0  0  0  0  0  0
   26.7466  -29.1643  -16.2591 N   0  0  0  0  0  0  0  0  0  0  0  0
   27.6493  -28.1048  -16.5021 C   0  0  0  0  0  0  0  0  0  0  0  0
   28.7675  -28.3538  -16.9841 O   0  0  0  0  0  0  0  0  0  0  0  0
   27.2500  -26.7355  -16.1879 C   0  0  0  0  0  0  0  0  0  0  0  0
   25.8735  -26.4808  -15.7487 C   0  0  0  0  0  0  0  0  0  0  0  0
   24.7285  -26.5221  -16.6612 C   0  0  2  0  0  0  0  0  0  0  0  0
   24.7134  -25.2002  -17.3495 N   0  0  0  0  0  0  0  0  0  0  0  0
   23.3871  -26.7514  -16.1532 C   0  0  0  0  0  0  0  0  0  0  0  0
   22.7855  -25.8426  -15.4707 O   0  0  0  0  0  0  0  0  0  0  0  0
   16.3233  -30.2175  -16.9051 C   0  0  0  0  0  0  0  0  0  0  0  0
   18.0757  -30.2620  -17.2772 S   0  0  0  0  0  0  0  0  0  0  0  0
   19.0550  -29.0876  -16.3678 C   0  0  0  0  0  0  0  0  0  0  0  0
   20.4910  -28.9915  -16.7314 C   0  0  0  0  0  0  0  0  0  0  0  0
   21.2348  -27.9922  -15.8267 C   0  0  2  0  0  0  0  0  0  0  0  0
   22.5968  -27.9294  -16.3383 N   0  0  0  0  0  0  0  0  0  0  0  0
   21.1479  -28.3945  -14.4199 C   0  0  0  0  0  0  0  0  0  0  0  0
   21.8537  -29.2934  -13.9485 O   0  0  0  0  0  0  0  0  0  0  0  0
   20.2456  -27.7379  -13.6098 O   0  0  0  0  0  0  0  0  0  0  0  0
  2  1  1  6
  2  3  1  0
  4  6  1  0
  4  2  1  0
  4  5  1  6
  6  7  2  0
  6 14  1  0
  9  8  1  0
 10  9  2  0
 11  9  1  0
 12 11  1  0
 13 12  1  1
 14 13  1  0
 15 16  2  0
 15 13  1  0
 18 17  1  0
 19 18  1  0
 19 20  1  0
 21 20  1  6
 21 23  1  0
 21 22  1  0
 22 15  1  0
 23 25  1  0
 24 23  2  0
M  END
$$$$
