VQM.pdb
     RDKit          3D

 25 24  0  0  1  0  0  0  0  0999 V2000
   26.3973  -19.6674  -16.5297 C   0  0  0  0  0  0  0  0  0  0  0  0
   25.9769  -20.4416  -17.7483 C   0  0  2  0  0  0  0  0  0  0  0  0
   26.2733  -19.6128  -18.9665 C   0  0  0  0  0  0  0  0  0  0  0  0
   24.4972  -20.8024  -17.7118 C   0  0  2  0  0  0  0  0  0  0  0  0
   23.6825  -19.6137  -17.6976 N   0  0  0  0  0  0  0  0  0  0  0  0
   24.2200  -21.6085  -16.4799 C   0  0  0  0  0  0  0  0  0  0  0  0
   24.9635  -22.5978  -16.2612 O   0  0  0  0  0  0  0  0  0  0  0  0
   25.6213  -22.3628  -11.2368 N   0  0  0  0  0  0  0  0  0  0  0  0
   25.2566  -21.0533  -11.6225 C   0  0  0  0  0  0  0  0  0  0  0  0
   25.6276  -20.0881  -10.9331 O   0  0  0  0  0  0  0  0  0  0  0  0
   24.4550  -20.8571  -12.8276 C   0  0  0  0  0  0  0  0  0  0  0  0
   24.0226  -22.0327  -13.5914 C   0  0  0  0  0  0  0  0  0  0  0  0
   22.8170  -22.0396  -14.4233 C   0  0  2  0  0  0  0  0  0  0  0  0
   23.1549  -21.2320  -15.6295 N   0  0  0  0  0  0  0  0  0  0  0  0
   21.5603  -21.5258  -13.9069 C   0  0  0  0  0  0  0  0  0  0  0  0
   21.3496  -20.2586  -13.8500 O   0  0  0  0  0  0  0  0  0  0  0  0
   15.8492  -24.9660  -12.7229 C   0  0  0  0  0  0  0  0  0  0  0  0
   15.6766  -23.4280  -11.8195 S   0  0  0  0  0  0  0  0  0  0  0  0
   16.9647  -22.2402  -12.1282 C   0  0  0  0  0  0  0  0  0  0  0  0
   18.2760  -22.7767  -12.5711 C   0  0  0  0  0  0  0  0  0  0  0  0
   19.2506  -21.6444  -12.9426 C   0  0  2  0  0  0  0  0  0  0  0  0
   20.4537  -22.3004  -13.4357 N   0  0  0  0  0  0  0  0  0  0  0  0
   19.4850  -20.7589  -11.7982 C   0  0  0  0  0  0  0  0  0  0  0  0
   20.3974  -20.9589  -10.9883 O   0  0  0  0  0  0  0  0  0  0  0  0
   18.6528  -19.6716  -11.6355 O   0  0  0  0  0  0  0  0  0  0  0  0
  2  1  1  1
  2  3  1  0
  4  6  1  0
  4  2  1  0
  4  5  1  1
  6  7  2  0
  6 14  1  0
  9  8  1  0
 10  9  2  0
 11  9  1  0
 12 11  1  0
 13 12  1  1
 14 13  1  0
 15 16  2  0
 15 13  1  0
 18 17  1  0
 19 18  1  0
 19 20  1  0
 21 20  1  1
 21 23  1  0
 21 22  1  0
 22 15  1  0
 23 25  1  0
 24 23  2  0
M  END
$$$$
