VQM.pdb
     RDKit          3D

 25 24  0  0  1  0  0  0  0  0999 V2000
   25.7644  -18.7613  -16.3401 C   0  0  0  0  0  0  0  0  0  0  0  0
   27.1320  -18.4433  -15.8020 C   0  0  2  0  0  0  0  0  0  0  0  0
   28.1241  -18.5499  -16.9259 C   0  0  0  0  0  0  0  0  0  0  0  0
   27.5292  -19.3784  -14.6667 C   0  0  2  0  0  0  0  0  0  0  0  0
   27.5480  -20.7475  -15.1165 N   0  0  0  0  0  0  0  0  0  0  0  0
   26.5427  -19.2372  -13.5482 C   0  0  0  0  0  0  0  0  0  0  0  0
   26.3780  -18.0872  -13.0690 O   0  0  0  0  0  0  0  0  0  0  0  0
   21.2773  -22.3481  -13.3387 N   0  0  0  0  0  0  0  0  0  0  0  0
   21.4172  -20.9927  -13.7123 C   0  0  0  0  0  0  0  0  0  0  0  0
   20.5147  -20.4434  -14.3668 O   0  0  0  0  0  0  0  0  0  0  0  0
   22.6173  -20.2597  -13.3177 C   0  0  0  0  0  0  0  0  0  0  0  0
   23.6360  -20.9457  -12.5150 C   0  0  0  0  0  0  0  0  0  0  0  0
   24.8310  -20.2707  -12.0035 C   0  0  2  0  0  0  0  0  0  0  0  0
   25.8501  -20.3799  -13.0856 N   0  0  0  0  0  0  0  0  0  0  0  0
   25.4651  -20.7203  -10.7765 C   0  0  0  0  0  0  0  0  0  0  0  0
   26.1055  -21.8350  -10.7455 O   0  0  0  0  0  0  0  0  0  0  0  0
   29.1281  -20.0102   -3.8994 C   0  0  0  0  0  0  0  0  0  0  0  0
   28.4683  -19.2398   -5.3767 S   0  0  0  0  0  0  0  0  0  0  0  0
   27.3585  -20.2669   -6.3140 C   0  0  0  0  0  0  0  0  0  0  0  0
   26.8714  -19.7197   -7.6050 C   0  0  0  0  0  0  0  0  0  0  0  0
   25.9259  -20.7067   -8.3135 C   0  0  2  0  0  0  0  0  0  0  0  0
   25.4783  -20.0306   -9.5232 N   0  0  0  0  0  0  0  0  0  0  0  0
   24.8346  -21.1159   -7.4247 C   0  0  0  0  0  0  0  0  0  0  0  0
   23.6644  -20.7660   -7.6163 O   0  0  0  0  0  0  0  0  0  0  0  0
   25.1401  -21.9182   -6.3456 O   0  0  0  0  0  0  0  0  0  0  0  0
  2  1  1  6
  2  3  1  0
  4  6  1  0
  4  2  1  0
  4  5  1  6
  6  7  2  0
  6 14  1  0
  9  8  1  0
 10  9  2  0
 11  9  1  0
 12 11  1  0
 13 12  1  6
 14 13  1  0
 15 16  2  0
 15 13  1  0
 18 17  1  0
 19 18  1  0
 19 20  1  0
 21 20  1  1
 21 23  1  0
 21 22  1  0
 22 15  1  0
 23 25  1  0
 24 23  2  0
M  END
$$$$
