VQM.pdb
     RDKit          3D

 25 24  0  0  1  0  0  0  0  0999 V2000
   25.2081  -15.5396  -15.3735 C   0  0  0  0  0  0  0  0  0  0  0  0
   25.5001  -16.8755  -14.7481 C   0  0  2  0  0  0  0  0  0  0  0  0
   26.4783  -16.6736  -13.6251 C   0  0  0  0  0  0  0  0  0  0  0  0
   26.0648  -17.8663  -15.7583 C   0  0  2  0  0  0  0  0  0  0  0  0
   25.2380  -17.9194  -16.9376 N   0  0  0  0  0  0  0  0  0  0  0  0
   26.1224  -19.2256  -15.1312 C   0  0  0  0  0  0  0  0  0  0  0  0
   25.0627  -19.9011  -15.1252 O   0  0  0  0  0  0  0  0  0  0  0  0
   27.6015  -24.3335  -15.6934 N   0  0  0  0  0  0  0  0  0  0  0  0
   27.7553  -23.0810  -16.3292 C   0  0  0  0  0  0  0  0  0  0  0  0
   27.0207  -22.7889  -17.2882 O   0  0  0  0  0  0  0  0  0  0  0  0
   28.7707  -22.1499  -15.8444 C   0  0  0  0  0  0  0  0  0  0  0  0
   28.6632  -21.6322  -14.4758 C   0  0  0  0  0  0  0  0  0  0  0  0
   27.4361  -21.0310  -13.9485 C   0  0  2  0  0  0  0  0  0  0  0  0
   27.3417  -19.6853  -14.5823 N   0  0  0  0  0  0  0  0  0  0  0  0
   27.2623  -20.8398  -12.5191 C   0  0  0  0  0  0  0  0  0  0  0  0
   28.2828  -20.8156  -11.7370 O   0  0  0  0  0  0  0  0  0  0  0  0
   29.1401  -20.0271   -7.1100 C   0  0  0  0  0  0  0  0  0  0  0  0
   27.6753  -19.0003   -7.2168 S   0  0  0  0  0  0  0  0  0  0  0  0
   26.4305  -19.6016   -8.3366 C   0  0  0  0  0  0  0  0  0  0  0  0
   26.8689  -19.9064   -9.7216 C   0  0  0  0  0  0  0  0  0  0  0  0
   25.9251  -20.9150  -10.4014 C   0  0  2  0  0  0  0  0  0  0  0  0
   26.0228  -20.6512  -11.8302 N   0  0  0  0  0  0  0  0  0  0  0  0
   24.5643  -20.7996   -9.8689 C   0  0  0  0  0  0  0  0  0  0  0  0
   24.2768  -21.1481   -8.7182 O   0  0  0  0  0  0  0  0  0  0  0  0
   23.5856  -20.2820  -10.6910 O   0  0  0  0  0  0  0  0  0  0  0  0
  2  1  1  6
  2  3  1  0
  4  6  1  0
  4  2  1  0
  4  5  1  6
  6  7  2  0
  6 14  1  0
  9  8  1  0
 10  9  2  0
 11  9  1  0
 12 11  1  0
 13 12  1  1
 14 13  1  0
 15 16  2  0
 15 13  1  0
 18 17  1  0
 19 18  1  0
 19 20  1  0
 21 20  1  1
 21 23  1  0
 21 22  1  0
 22 15  1  0
 23 25  1  0
 24 23  2  0
M  END
$$$$
