VQM.pdb
     RDKit          3D

 25 24  0  0  1  0  0  0  0  0999 V2000
   13.6582  -10.3388  -12.4019 C   0  0  0  0  0  0  0  0  0  0  0  0
   14.4625  -10.3132  -13.6721 C   0  0  2  0  0  0  0  0  0  0  0  0
   13.8132  -11.2336  -14.6672 C   0  0  0  0  0  0  0  0  0  0  0  0
   15.9081  -10.7344  -13.4398 C   0  0  2  0  0  0  0  0  0  0  0  0
   15.9731  -12.0916  -12.9593 N   0  0  0  0  0  0  0  0  0  0  0  0
   16.5280   -9.8198  -12.4282 C   0  0  0  0  0  0  0  0  0  0  0  0
   16.5496  -10.2132  -11.2348 O   0  0  0  0  0  0  0  0  0  0  0  0
   21.3473   -6.4722  -13.9586 N   0  0  0  0  0  0  0  0  0  0  0  0
   21.0392   -5.8038  -12.7524 C   0  0  0  0  0  0  0  0  0  0  0  0
   21.8021   -4.9164  -12.3341 O   0  0  0  0  0  0  0  0  0  0  0  0
   19.8267   -6.1637  -12.0220 C   0  0  0  0  0  0  0  0  0  0  0  0
   18.9353   -7.1838  -12.5854 C   0  0  0  0  0  0  0  0  0  0  0  0
   17.7468   -7.6745  -11.8840 C   0  0  2  0  0  0  0  0  0  0  0  0
   17.0534   -8.5758  -12.8474 N   0  0  0  0  0  0  0  0  0  0  0  0
   16.7506   -6.7456  -11.3796 C   0  0  0  0  0  0  0  0  0  0  0  0
   15.8491   -6.2693  -12.1632 O   0  0  0  0  0  0  0  0  0  0  0  0
   12.5086   -3.5619   -5.4934 C   0  0  0  0  0  0  0  0  0  0  0  0
   13.7393   -4.7513   -6.0245 S   0  0  0  0  0  0  0  0  0  0  0  0
   14.2532   -4.5777   -7.7189 C   0  0  0  0  0  0  0  0  0  0  0  0
   15.2529   -5.5552   -8.2173 C   0  0  0  0  0  0  0  0  0  0  0  0
   15.6219   -5.2828   -9.6869 C   0  0  2  0  0  0  0  0  0  0  0  0
   16.6310   -6.2737  -10.0343 N   0  0  0  0  0  0  0  0  0  0  0  0
   16.0649   -3.8972   -9.8673 C   0  0  0  0  0  0  0  0  0  0  0  0
   17.2525   -3.5685   -9.7675 O   0  0  0  0  0  0  0  0  0  0  0  0
   15.1135   -2.9425  -10.1586 O   0  0  0  0  0  0  0  0  0  0  0  0
  2  1  1  1
  2  3  1  0
  4  6  1  0
  4  2  1  0
  4  5  1  1
  6  7  2  0
  6 14  1  0
  9  8  1  0
 10  9  2  0
 11  9  1  0
 12 11  1  0
 13 12  1  6
 14 13  1  0
 15 16  2  0
 15 13  1  0
 18 17  1  0
 19 18  1  0
 19 20  1  0
 21 20  1  1
 21 23  1  0
 21 22  1  0
 22 15  1  0
 23 25  1  0
 24 23  2  0
M  END
$$$$
