VQM.pdb
     RDKit          3D

 25 24  0  0  1  0  0  0  0  0999 V2000
   26.2572  -18.5798  -16.2288 C   0  0  0  0  0  0  0  0  0  0  0  0
   27.7075  -18.5756  -15.8319 C   0  0  2  0  0  0  0  0  0  0  0  0
   28.5329  -18.9378  -17.0346 C   0  0  0  0  0  0  0  0  0  0  0  0
   27.9900  -19.5491  -14.6945 C   0  0  2  0  0  0  0  0  0  0  0  0
   27.5909  -20.8858  -15.0563 N   0  0  0  0  0  0  0  0  0  0  0  0
   27.2289  -19.1160  -13.4790 C   0  0  0  0  0  0  0  0  0  0  0  0
   27.4165  -17.9420  -13.0717 O   0  0  0  0  0  0  0  0  0  0  0  0
   21.3466  -20.1491  -12.6477 N   0  0  0  0  0  0  0  0  0  0  0  0
   22.1883  -21.2792  -12.7518 C   0  0  0  0  0  0  0  0  0  0  0  0
   21.7025  -22.3738  -13.0839 O   0  0  0  0  0  0  0  0  0  0  0  0
   23.6151  -21.1394  -12.4728 C   0  0  0  0  0  0  0  0  0  0  0  0
   24.1344  -19.8274  -12.0709 C   0  0  0  0  0  0  0  0  0  0  0  0
   25.5286  -19.6120  -11.6771 C   0  0  2  0  0  0  0  0  0  0  0  0
   26.3479  -20.0264  -12.8512 N   0  0  0  0  0  0  0  0  0  0  0  0
   26.0807  -20.2865  -10.5151 C   0  0  0  0  0  0  0  0  0  0  0  0
   26.5927  -21.4608  -10.6266 O   0  0  0  0  0  0  0  0  0  0  0  0
   27.8615  -18.1102   -4.1218 C   0  0  0  0  0  0  0  0  0  0  0  0
   28.5895  -19.6675   -4.6279 S   0  0  0  0  0  0  0  0  0  0  0  0
   27.6685  -20.5451   -5.8715 C   0  0  0  0  0  0  0  0  0  0  0  0
   27.3217  -19.7913   -7.1023 C   0  0  0  0  0  0  0  0  0  0  0  0
   26.4817  -20.6469   -8.0681 C   0  0  2  0  0  0  0  0  0  0  0  0
   26.1414  -19.7722   -9.1816 N   0  0  0  0  0  0  0  0  0  0  0  0
   25.3171  -21.2170   -7.3847 C   0  0  0  0  0  0  0  0  0  0  0  0
   24.1765  -20.7672   -7.5432 O   0  0  0  0  0  0  0  0  0  0  0  0
   25.5177  -22.2903   -6.5425 O   0  0  0  0  0  0  0  0  0  0  0  0
  2  1  1  6
  2  3  1  0
  4  6  1  0
  4  2  1  0
  4  5  1  6
  6  7  2  0
  6 14  1  0
  9  8  1  0
 10  9  2  0
 11  9  1  0
 12 11  1  0
 13 12  1  6
 14 13  1  0
 15 16  2  0
 15 13  1  0
 18 17  1  0
 19 18  1  0
 19 20  1  0
 21 20  1  1
 21 23  1  0
 21 22  1  0
 22 15  1  0
 23 25  1  0
 24 23  2  0
M  END
$$$$
