VQM.pdb
     RDKit          3D

 25 24  0  0  1  0  0  0  0  0999 V2000
   23.3460  -20.4332  -19.6140 C   0  0  0  0  0  0  0  0  0  0  0  0
   24.5245  -20.5403  -18.6862 C   0  0  2  0  0  0  0  0  0  0  0  0
   25.6230  -21.2833  -19.3934 C   0  0  0  0  0  0  0  0  0  0  0  0
   24.1653  -21.2534  -17.3887 C   0  0  2  0  0  0  0  0  0  0  0  0
   22.9412  -20.7273  -16.8395 N   0  0  0  0  0  0  0  0  0  0  0  0
   25.2751  -21.0612  -16.4010 C   0  0  0  0  0  0  0  0  0  0  0  0
   26.3832  -21.5884  -16.6720 O   0  0  0  0  0  0  0  0  0  0  0  0
   26.8655  -15.7700  -14.2630 N   0  0  0  0  0  0  0  0  0  0  0  0
   27.2909  -16.5039  -15.3931 C   0  0  0  0  0  0  0  0  0  0  0  0
   27.8465  -15.9101  -16.3329 O   0  0  0  0  0  0  0  0  0  0  0  0
   27.0754  -17.9478  -15.4338 C   0  0  0  0  0  0  0  0  0  0  0  0
   26.3689  -18.5916  -14.3207 C   0  0  0  0  0  0  0  0  0  0  0  0
   26.1354  -20.0362  -14.2578 C   0  0  2  0  0  0  0  0  0  0  0  0
   25.0368  -20.3096  -15.2273 N   0  0  0  0  0  0  0  0  0  0  0  0
   25.7635  -20.6705  -13.0051 C   0  0  0  0  0  0  0  0  0  0  0  0
   24.6915  -21.3764  -12.9262 O   0  0  0  0  0  0  0  0  0  0  0  0
   28.7194  -19.4288   -7.0668 C   0  0  0  0  0  0  0  0  0  0  0  0
   27.0980  -20.0779   -6.6657 S   0  0  0  0  0  0  0  0  0  0  0  0
   26.1813  -20.6925   -8.0611 C   0  0  0  0  0  0  0  0  0  0  0  0
   26.7470  -20.4174   -9.4056 C   0  0  0  0  0  0  0  0  0  0  0  0
   25.8486  -20.9833  -10.5205 C   0  0  2  0  0  0  0  0  0  0  0  0
   26.4911  -20.6156  -11.7746 N   0  0  0  0  0  0  0  0  0  0  0  0
   24.4759  -20.4861  -10.3896 C   0  0  0  0  0  0  0  0  0  0  0  0
   24.1125  -19.4181  -10.8953 O   0  0  0  0  0  0  0  0  0  0  0  0
   23.5732  -21.2474   -9.6776 O   0  0  0  0  0  0  0  0  0  0  0  0
  2  1  1  6
  2  3  1  0
  4  6  1  0
  4  2  1  0
  4  5  1  1
  6  7  2  0
  6 14  1  0
  9  8  1  0
 10  9  2  0
 11  9  1  0
 12 11  1  0
 13 12  1  1
 14 13  1  0
 15 16  2  0
 15 13  1  0
 18 17  1  0
 19 18  1  0
 19 20  1  0
 21 20  1  1
 21 23  1  0
 21 22  1  0
 22 15  1  0
 23 25  1  0
 24 23  2  0
M  END
$$$$
