VQM.pdb
     RDKit          3D

 25 24  0  0  1  0  0  0  0  0999 V2000
   13.3108  -21.0321    3.0883 C   0  0  0  0  0  0  0  0  0  0  0  0
   13.8534  -20.2162    1.9478 C   0  0  2  0  0  0  0  0  0  0  0  0
   14.1041  -21.1316    0.7825 C   0  0  0  0  0  0  0  0  0  0  0  0
   15.1390  -19.4916    2.3264 C   0  0  2  0  0  0  0  0  0  0  0  0
   16.2243  -20.4268    2.4833 N   0  0  0  0  0  0  0  0  0  0  0  0
   14.9262  -18.7578    3.6149 C   0  0  0  0  0  0  0  0  0  0  0  0
   14.0177  -17.8898    3.6386 O   0  0  0  0  0  0  0  0  0  0  0  0
   15.0892  -21.4429    8.9623 N   0  0  0  0  0  0  0  0  0  0  0  0
   14.9467  -20.1067    9.3990 C   0  0  0  0  0  0  0  0  0  0  0  0
   14.7136  -19.8778   10.5981 O   0  0  0  0  0  0  0  0  0  0  0  0
   15.0817  -19.0183    8.4346 C   0  0  0  0  0  0  0  0  0  0  0  0
   15.4611  -19.3368    7.0536 C   0  0  0  0  0  0  0  0  0  0  0  0
   15.5943  -18.3163    6.0113 C   0  0  2  0  0  0  0  0  0  0  0  0
   15.7390  -19.0646    4.7305 N   0  0  0  0  0  0  0  0  0  0  0  0
   16.6747  -17.3466    6.0607 C   0  0  0  0  0  0  0  0  0  0  0  0
   17.8047  -17.6025    5.5029 O   0  0  0  0  0  0  0  0  0  0  0  0
   19.3111  -12.2425    3.1145 C   0  0  0  0  0  0  0  0  0  0  0  0
   18.8959  -11.8037    4.8016 S   0  0  0  0  0  0  0  0  0  0  0  0
   18.8739  -13.1725    5.9379 C   0  0  0  0  0  0  0  0  0  0  0  0
   17.6847  -14.0597    5.8921 C   0  0  0  0  0  0  0  0  0  0  0  0
   17.8502  -15.2710    6.8279 C   0  0  2  0  0  0  0  0  0  0  0  0
   16.6336  -16.0576    6.6798 N   0  0  0  0  0  0  0  0  0  0  0  0
   18.1123  -14.8379    8.2035 C   0  0  0  0  0  0  0  0  0  0  0  0
   17.2406  -14.8683    9.0796 O   0  0  0  0  0  0  0  0  0  0  0  0
   19.3777  -14.3862    8.5136 O   0  0  0  0  0  0  0  0  0  0  0  0
  2  1  1  1
  2  3  1  0
  4  6  1  0
  4  2  1  0
  4  5  1  1
  6  7  2  0
  6 14  1  0
  9  8  1  0
 10  9  2  0
 11  9  1  0
 12 11  1  0
 13 12  1  1
 14 13  1  0
 15 16  2  0
 15 13  1  0
 18 17  1  0
 19 18  1  0
 19 20  1  0
 21 20  1  6
 21 23  1  0
 21 22  1  0
 22 15  1  0
 23 25  1  0
 24 23  2  0
M  END
$$$$
