VQM.pdb
     RDKit          3D

 25 24  0  0  1  0  0  0  0  0999 V2000
   17.6699  -15.4453  -17.4768 C   0  0  0  0  0  0  0  0  0  0  0  0
   17.3363  -13.9901  -17.2979 C   0  0  2  0  0  0  0  0  0  0  0  0
   18.5950  -13.1869  -17.4695 C   0  0  0  0  0  0  0  0  0  0  0  0
   16.7223  -13.7099  -15.9321 C   0  0  2  0  0  0  0  0  0  0  0  0
   15.4751  -14.4158  -15.7791 N   0  0  0  0  0  0  0  0  0  0  0  0
   16.4789  -12.2380  -15.7973 C   0  0  0  0  0  0  0  0  0  0  0  0
   15.6983  -11.7063  -16.6263 O   0  0  0  0  0  0  0  0  0  0  0  0
   15.0408   -8.5392  -11.3014 N   0  0  0  0  0  0  0  0  0  0  0  0
   15.2657   -9.9333  -11.2524 C   0  0  0  0  0  0  0  0  0  0  0  0
   15.1296  -10.5362  -10.1743 O   0  0  0  0  0  0  0  0  0  0  0  0
   15.6485  -10.6417  -12.4710 C   0  0  0  0  0  0  0  0  0  0  0  0
   15.7931   -9.8820  -13.7177 C   0  0  0  0  0  0  0  0  0  0  0  0
   16.9340  -10.0485  -14.6212 C   0  0  2  0  0  0  0  0  0  0  0  0
   17.1238  -11.5199  -14.7639 N   0  0  0  0  0  0  0  0  0  0  0  0
   18.2298   -9.4840  -14.2865 C   0  0  0  0  0  0  0  0  0  0  0  0
   19.2059  -10.2501  -13.9490 O   0  0  0  0  0  0  0  0  0  0  0  0
   24.0754   -8.3165  -18.1335 C   0  0  0  0  0  0  0  0  0  0  0  0
   22.3619   -8.7008  -17.7761 S   0  0  0  0  0  0  0  0  0  0  0  0
   21.7358   -7.9681  -16.2807 C   0  0  0  0  0  0  0  0  0  0  0  0
   20.3387   -8.3026  -15.9070 C   0  0  0  0  0  0  0  0  0  0  0  0
   19.9574   -7.6879  -14.5479 C   0  0  2  0  0  0  0  0  0  0  0  0
   18.5825   -8.0976  -14.2974 N   0  0  0  0  0  0  0  0  0  0  0  0
   20.1505   -6.2350  -14.5577 C   0  0  0  0  0  0  0  0  0  0  0  0
   19.2876   -5.4599  -14.9854 O   0  0  0  0  0  0  0  0  0  0  0  0
   21.3383   -5.7331  -14.0691 O   0  0  0  0  0  0  0  0  0  0  0  0
  2  1  1  1
  2  3  1  0
  4  6  1  0
  4  2  1  0
  4  5  1  6
  6  7  2  0
  6 14  1  0
  9  8  1  0
 10  9  2  0
 11  9  1  0
 12 11  1  0
 13 12  1  1
 14 13  1  0
 15 16  2  0
 15 13  1  0
 18 17  1  0
 19 18  1  0
 19 20  1  0
 21 20  1  6
 21 23  1  0
 21 22  1  0
 22 15  1  0
 23 25  1  0
 24 23  2  0
M  END
$$$$
