VQM.pdb
     RDKit          3D

 25 24  0  0  1  0  0  0  0  0999 V2000
   10.9809  -12.5316  -10.8730 C   0  0  0  0  0  0  0  0  0  0  0  0
   12.2224  -11.8220  -10.4080 C   0  0  2  0  0  0  0  0  0  0  0  0
   11.9113  -10.3584  -10.2664 C   0  0  0  0  0  0  0  0  0  0  0  0
   13.3850  -12.0159  -11.3732 C   0  0  2  0  0  0  0  0  0  0  0  0
   13.7591  -13.4057  -11.4484 N   0  0  0  0  0  0  0  0  0  0  0  0
   14.5559  -11.2120  -10.8971 C   0  0  0  0  0  0  0  0  0  0  0  0
   15.2397  -11.6928   -9.9587 O   0  0  0  0  0  0  0  0  0  0  0  0
   18.9019   -9.6509  -14.2355 N   0  0  0  0  0  0  0  0  0  0  0  0
   19.2542   -8.8052  -13.1598 C   0  0  0  0  0  0  0  0  0  0  0  0
   20.3674   -8.2527  -13.1568 O   0  0  0  0  0  0  0  0  0  0  0  0
   18.3016   -8.5909  -12.0736 C   0  0  0  0  0  0  0  0  0  0  0  0
   17.0212   -9.3067  -12.1011 C   0  0  0  0  0  0  0  0  0  0  0  0
   15.9985   -9.1444  -11.0652 C   0  0  2  0  0  0  0  0  0  0  0  0
   14.8397   -9.9697  -11.5099 N   0  0  0  0  0  0  0  0  0  0  0  0
   15.4807   -7.8272  -10.7384 C   0  0  0  0  0  0  0  0  0  0  0  0
   14.6566   -7.2371  -11.5296 O   0  0  0  0  0  0  0  0  0  0  0  0
   12.8754   -2.4139   -5.7057 C   0  0  0  0  0  0  0  0  0  0  0  0
   13.4372   -4.0805   -6.0492 S   0  0  0  0  0  0  0  0  0  0  0  0
   14.1596   -4.3003   -7.6601 C   0  0  0  0  0  0  0  0  0  0  0  0
   14.7099   -5.6442   -7.9678 C   0  0  0  0  0  0  0  0  0  0  0  0
   15.2460   -5.7161   -9.4092 C   0  0  2  0  0  0  0  0  0  0  0  0
   15.7814   -7.0610   -9.5682 N   0  0  0  0  0  0  0  0  0  0  0  0
   16.2262   -4.6547   -9.6567 C   0  0  0  0  0  0  0  0  0  0  0  0
   17.4442   -4.8571   -9.5939 O   0  0  0  0  0  0  0  0  0  0  0  0
   15.7577   -3.3963   -9.9700 O   0  0  0  0  0  0  0  0  0  0  0  0
  2  1  1  6
  2  3  1  0
  4  6  1  0
  4  2  1  0
  4  5  1  1
  6  7  2  0
  6 14  1  0
  9  8  1  0
 10  9  2  0
 11  9  1  0
 12 11  1  0
 13 12  1  6
 14 13  1  0
 15 16  2  0
 15 13  1  0
 18 17  1  0
 19 18  1  0
 19 20  1  0
 21 20  1  1
 21 23  1  0
 21 22  1  0
 22 15  1  0
 23 25  1  0
 24 23  2  0
M  END
$$$$
