VQM.pdb
     RDKit          3D

 25 24  0  0  1  0  0  0  0  0999 V2000
   26.8954  -17.1866  -18.6661 C   0  0  0  0  0  0  0  0  0  0  0  0
   27.8328  -17.7833  -17.6531 C   0  0  2  0  0  0  0  0  0  0  0  0
   29.1095  -16.9903  -17.6585 C   0  0  0  0  0  0  0  0  0  0  0  0
   28.1292  -19.2489  -17.9448 C   0  0  2  0  0  0  0  0  0  0  0  0
   28.8184  -19.3894  -19.2027 N   0  0  0  0  0  0  0  0  0  0  0  0
   26.8390  -20.0082  -17.9985 C   0  0  0  0  0  0  0  0  0  0  0  0
   26.2590  -20.0776  -19.1112 O   0  0  0  0  0  0  0  0  0  0  0  0
   25.7759  -25.3894  -15.5290 N   0  0  0  0  0  0  0  0  0  0  0  0
   26.4164  -24.9567  -16.7119 C   0  0  0  0  0  0  0  0  0  0  0  0
   27.1422  -25.7479  -17.3377 O   0  0  0  0  0  0  0  0  0  0  0  0
   26.2092  -23.5892  -17.1810 C   0  0  0  0  0  0  0  0  0  0  0  0
   25.3376  -22.6979  -16.4074 C   0  0  0  0  0  0  0  0  0  0  0  0
   25.0320  -21.3276  -16.8247 C   0  0  2  0  0  0  0  0  0  0  0  0
   26.3352  -20.6044  -16.8195 N   0  0  0  0  0  0  0  0  0  0  0  0
   24.0938  -20.5168  -16.0680 C   0  0  0  0  0  0  0  0  0  0  0  0
   24.4448  -19.9887  -14.9493 O   0  0  0  0  0  0  0  0  0  0  0  0
   19.3304  -16.3053  -18.2761 C   0  0  0  0  0  0  0  0  0  0  0  0
   18.8154  -16.8483  -16.6479 S   0  0  0  0  0  0  0  0  0  0  0  0
   20.0672  -17.7139  -15.7265 C   0  0  0  0  0  0  0  0  0  0  0  0
   20.9443  -18.6342  -16.4929 C   0  0  0  0  0  0  0  0  0  0  0  0
   21.9122  -19.3914  -15.5655 C   0  0  2  0  0  0  0  0  0  0  0  0
   22.7486  -20.2021  -16.4395 N   0  0  0  0  0  0  0  0  0  0  0  0
   21.1770  -20.1667  -14.5621 C   0  0  0  0  0  0  0  0  0  0  0  0
   20.8403  -19.6836  -13.4751 O   0  0  0  0  0  0  0  0  0  0  0  0
   20.8572  -21.4753  -14.8569 O   0  0  0  0  0  0  0  0  0  0  0  0
  2  1  1  6
  2  3  1  0
  4  6  1  0
  4  2  1  0
  4  5  1  6
  6  7  2  0
  6 14  1  0
  9  8  1  0
 10  9  2  0
 11  9  1  0
 12 11  1  0
 13 12  1  1
 14 13  1  0
 15 16  2  0
 15 13  1  0
 18 17  1  0
 19 18  1  0
 19 20  1  0
 21 20  1  6
 21 23  1  0
 21 22  1  0
 22 15  1  0
 23 25  1  0
 24 23  2  0
M  END
$$$$
