VQM.pdb
     RDKit          3D

 25 24  0  0  1  0  0  0  0  0999 V2000
   16.1037   -6.5851  -16.9673 C   0  0  0  0  0  0  0  0  0  0  0  0
   15.2636   -7.7080  -16.4247 C   0  0  2  0  0  0  0  0  0  0  0  0
   14.7455   -7.3065  -15.0722 C   0  0  0  0  0  0  0  0  0  0  0  0
   16.0511   -9.0076  -16.3157 C   0  0  2  0  0  0  0  0  0  0  0  0
   15.2289  -10.0579  -15.7696 N   0  0  0  0  0  0  0  0  0  0  0  0
   17.2346   -8.7895  -15.4236 C   0  0  0  0  0  0  0  0  0  0  0  0
   17.0678   -8.9753  -14.1919 O   0  0  0  0  0  0  0  0  0  0  0  0
   22.1831  -11.5853  -16.0890 N   0  0  0  0  0  0  0  0  0  0  0  0
   22.7016  -10.6242  -15.1923 C   0  0  0  0  0  0  0  0  0  0  0  0
   23.8436  -10.7773  -14.7265 O   0  0  0  0  0  0  0  0  0  0  0  0
   21.8885   -9.4652  -14.8336 C   0  0  0  0  0  0  0  0  0  0  0  0
   20.5444   -9.3363  -15.4074 C   0  0  0  0  0  0  0  0  0  0  0  0
   19.6725   -8.1906  -15.1378 C   0  0  2  0  0  0  0  0  0  0  0  0
   18.4671   -8.3916  -15.9910 N   0  0  0  0  0  0  0  0  0  0  0  0
   20.1390   -6.8355  -15.3748 C   0  0  0  0  0  0  0  0  0  0  0  0
   20.1742   -6.3589  -16.5686 O   0  0  0  0  0  0  0  0  0  0  0  0
   20.0934    0.7199  -15.3139 C   0  0  0  0  0  0  0  0  0  0  0  0
   19.4356   -0.8801  -14.8463 S   0  0  0  0  0  0  0  0  0  0  0  0
   20.5986   -2.2212  -14.9641 C   0  0  0  0  0  0  0  0  0  0  0  0
   20.0798   -3.5824  -14.6788 C   0  0  0  0  0  0  0  0  0  0  0  0
   21.1927   -4.6413  -14.7800 C   0  0  2  0  0  0  0  0  0  0  0  0
   20.5800   -5.9019  -14.3846 N   0  0  0  0  0  0  0  0  0  0  0  0
   22.3506   -4.2635  -13.9644 C   0  0  0  0  0  0  0  0  0  0  0  0
   23.2093   -3.4715  -14.3690 O   0  0  0  0  0  0  0  0  0  0  0  0
   22.4697   -4.8175  -12.7073 O   0  0  0  0  0  0  0  0  0  0  0  0
  2  1  1  1
  2  3  1  0
  4  6  1  0
  4  2  1  0
  4  5  1  1
  6  7  2  0
  6 14  1  0
  9  8  1  0
 10  9  2  0
 11  9  1  0
 12 11  1  0
 13 12  1  6
 14 13  1  0
 15 16  2  0
 15 13  1  0
 18 17  1  0
 19 18  1  0
 19 20  1  0
 21 20  1  1
 21 23  1  0
 21 22  1  0
 22 15  1  0
 23 25  1  0
 24 23  2  0
M  END
$$$$
