KWV.pdb
     RDKit          3D

 31 32  0  0  1  0  0  0  0  0999 V2000
    8.8110  -16.5399   20.3957 N   0  0  0  0  0  0  0  0  0  0  0  0
    9.2004  -15.2002   20.6151 C   0  0  1  0  0  0  0  0  0  0  0  0
    8.3932  -14.1773   19.9618 C   0  0  0  0  0  0  0  0  0  0  0  0
    8.0577  -14.1328   18.5642 C   0  0  0  0  0  0  0  0  0  0  0  0
    8.2365  -13.1553   17.5311 C   0  0  0  0  0  0  0  0  0  0  0  0
    8.6173  -13.3454   16.1395 C   0  0  0  0  0  0  0  0  0  0  0  0
    7.9090  -14.2529   15.3061 N   0  0  0  0  0  0  0  0  0  0  0  0
    9.3446  -14.9706   22.0963 C   0  0  0  0  0  0  0  0  0  0  0  0
    9.6983  -13.8386   22.4847 O   0  0  0  0  0  0  0  0  0  0  0  0
    9.0993  -15.9682   23.0533 N   0  0  0  0  0  0  0  0  0  0  0  0
    8.8939  -15.7618   24.4584 C   0  0  1  0  0  0  0  0  0  0  0  0
    7.6840  -16.4062   25.0249 C   0  0  0  0  0  0  0  0  0  0  0  0
    6.5864  -15.4932   25.3971 C   0  0  0  0  0  0  0  0  0  0  0  0
    5.2603  -15.6932   25.5827 C   0  0  0  0  0  0  0  0  0  0  0  0
    4.6915  -14.5135   25.9205 N   0  0  0  0  0  0  0  0  0  0  0  0
    5.6304  -13.5396   25.9589 C   0  0  0  0  0  0  0  0  0  0  0  0
    5.5947  -12.1897   26.2414 C   0  0  0  0  0  0  0  0  0  0  0  0
    6.7455  -11.4223   26.2028 C   0  0  0  0  0  0  0  0  0  0  0  0
    7.9499  -12.0165   25.8766 C   0  0  0  0  0  0  0  0  0  0  0  0
    7.9705  -13.3598   25.5982 C   0  0  0  0  0  0  0  0  0  0  0  0
    6.8160  -14.1393   25.6345 C   0  0  0  0  0  0  0  0  0  0  0  0
   10.1371  -16.0520   25.2209 C   0  0  0  0  0  0  0  0  0  0  0  0
   11.0685  -16.7371   24.7245 O   0  0  0  0  0  0  0  0  0  0  0  0
   10.4235  -15.4983   29.4469 C   0  0  0  0  0  0  0  0  0  0  0  0
   11.6201  -15.1890   28.5653 C   0  0  2  0  0  0  0  0  0  0  0  0
   11.5588  -13.7005   28.2921 C   0  0  0  0  0  0  0  0  0  0  0  0
   11.5335  -16.0061   27.3193 C   0  0  2  0  0  0  0  0  0  0  0  0
   10.3576  -15.5753   26.5638 N   0  0  0  0  0  0  0  0  0  0  0  0
   11.3314  -17.4182   27.6950 C   0  0  0  0  0  0  0  0  0  0  0  0
   10.2044  -17.9383   27.5908 O   0  0  0  0  0  0  0  0  0  0  0  0
   12.3868  -18.1678   28.1630 O   0  0  0  0  0  0  0  0  0  0  0  0
  2  1  1  1
  3  2  1  0
  3  4  1  0
  5  4  1  0
  5  6  1  0
  7  6  1  0
  8  2  1  0
  8  9  2  0
 10  8  1  0
 11 10  1  0
 11 12  1  1
 13 12  1  0
 14 13  2  0
 15 14  1  0
 16 21  2  0
 16 15  1  0
 17 16  1  0
 18 17  2  0
 18 19  1  0
 19 20  2  0
 20 21  1  0
 21 13  1  0
 22 11  1  0
 23 22  2  0
 25 24  1  1
 25 27  1  0
 26 25  1  0
 27 28  1  6
 27 29  1  0
 28 22  1  0
 29 31  1  0
 30 29  2  0
M  END
$$$$
