KWV.pdb
     RDKit          3D

 31 32  0  0  1  0  0  0  0  0999 V2000
   10.6729  -18.5417   20.5437 N   0  0  0  0  0  0  0  0  0  0  0  0
   11.4074  -17.3430   20.6780 C   0  0  1  0  0  0  0  0  0  0  0  0
   11.6377  -16.5856   19.4540 C   0  0  0  0  0  0  0  0  0  0  0  0
   12.4270  -17.0161   18.3318 C   0  0  0  0  0  0  0  0  0  0  0  0
   13.7487  -16.7068   17.8708 C   0  0  0  0  0  0  0  0  0  0  0  0
   14.3959  -17.0705   16.6192 C   0  0  0  0  0  0  0  0  0  0  0  0
   15.5920  -16.4265   16.2017 N   0  0  0  0  0  0  0  0  0  0  0  0
   10.7881  -16.5113   21.7700 C   0  0  0  0  0  0  0  0  0  0  0  0
   11.3366  -15.4313   22.0700 O   0  0  0  0  0  0  0  0  0  0  0  0
    9.6276  -16.8955   22.4604 N   0  0  0  0  0  0  0  0  0  0  0  0
    9.0005  -16.1737   23.5303 C   0  0  1  0  0  0  0  0  0  0  0  0
    7.5221  -16.0811   23.4534 C   0  0  0  0  0  0  0  0  0  0  0  0
    6.8705  -15.3192   24.5358 C   0  0  0  0  0  0  0  0  0  0  0  0
    6.1680  -15.7075   25.6261 C   0  0  0  0  0  0  0  0  0  0  0  0
    5.7855  -14.6027   26.3060 N   0  0  0  0  0  0  0  0  0  0  0  0
    6.2294  -13.4915   25.6737 C   0  0  0  0  0  0  0  0  0  0  0  0
    6.1242  -12.1402   25.9311 C   0  0  0  0  0  0  0  0  0  0  0  0
    6.6966  -11.2064   25.0854 C   0  0  0  0  0  0  0  0  0  0  0  0
    7.3849  -11.6331   23.9655 C   0  0  0  0  0  0  0  0  0  0  0  0
    7.4817  -12.9799   23.7221 C   0  0  0  0  0  0  0  0  0  0  0  0
    6.9077  -13.9264   24.5685 C   0  0  0  0  0  0  0  0  0  0  0  0
    9.5012  -16.6454   24.8487 C   0  0  0  0  0  0  0  0  0  0  0  0
   10.0879  -17.7516   24.9720 O   0  0  0  0  0  0  0  0  0  0  0  0
   10.5999  -13.7977   27.6073 C   0  0  0  0  0  0  0  0  0  0  0  0
   10.0207  -15.0635   28.2133 C   0  0  2  0  0  0  0  0  0  0  0  0
   10.7962  -15.3022   29.4921 C   0  0  0  0  0  0  0  0  0  0  0  0
   10.1640  -16.1829   27.2366 C   0  0  2  0  0  0  0  0  0  0  0  0
    9.3501  -15.8782   26.0602 N   0  0  0  0  0  0  0  0  0  0  0  0
    9.6253  -17.4129   27.8472 C   0  0  0  0  0  0  0  0  0  0  0  0
    8.3995  -17.6337   27.8324 O   0  0  0  0  0  0  0  0  0  0  0  0
   10.4741  -18.3222   28.4366 O   0  0  0  0  0  0  0  0  0  0  0  0
  2  1  1  6
  3  2  1  0
  3  4  1  0
  5  4  1  0
  5  6  1  0
  7  6  1  0
  8  2  1  0
  8  9  2  0
 10  8  1  0
 11 10  1  0
 11 12  1  1
 13 12  1  0
 14 13  2  0
 15 14  1  0
 16 21  2  0
 16 15  1  0
 17 16  1  0
 18 17  2  0
 18 19  1  0
 19 20  2  0
 20 21  1  0
 21 13  1  0
 22 11  1  0
 23 22  2  0
 25 24  1  6
 25 27  1  0
 26 25  1  0
 27 28  1  6
 27 29  1  0
 28 22  1  0
 29 31  1  0
 30 29  2  0
M  END
$$$$
