KWV.pdb
     RDKit          3D

 31 32  0  0  1  0  0  0  0  0999 V2000
    8.9643  -16.3819   18.3371 N   0  0  0  0  0  0  0  0  0  0  0  0
    8.3884  -17.1757   19.3533 C   0  0  1  0  0  0  0  0  0  0  0  0
    8.6478  -18.6082   19.2793 C   0  0  0  0  0  0  0  0  0  0  0  0
    8.3819  -19.4562   18.1488 C   0  0  0  0  0  0  0  0  0  0  0  0
    8.6419  -19.3471   16.7433 C   0  0  0  0  0  0  0  0  0  0  0  0
    8.4207  -20.3238   15.6875 C   0  0  0  0  0  0  0  0  0  0  0  0
    7.1355  -20.8926   15.4765 N   0  0  0  0  0  0  0  0  0  0  0  0
    8.7452  -16.5874   20.6928 C   0  0  0  0  0  0  0  0  0  0  0  0
    9.8656  -16.0530   20.8213 O   0  0  0  0  0  0  0  0  0  0  0  0
    7.8774  -16.6133   21.7961 N   0  0  0  0  0  0  0  0  0  0  0  0
    8.1514  -16.0851   23.1018 C   0  0  1  0  0  0  0  0  0  0  0  0
    6.9594  -15.6823   23.8872 C   0  0  0  0  0  0  0  0  0  0  0  0
    7.2304  -15.1526   25.2373 C   0  0  0  0  0  0  0  0  0  0  0  0
    7.5444  -15.7591   26.4062 C   0  0  0  0  0  0  0  0  0  0  0  0
    7.6937  -14.8083   27.3565 N   0  0  0  0  0  0  0  0  0  0  0  0
    7.4810  -13.5824   26.8241 C   0  0  0  0  0  0  0  0  0  0  0  0
    7.5061  -12.3017   27.3364 C   0  0  0  0  0  0  0  0  0  0  0  0
    7.2417  -11.2068   26.5326 C   0  0  0  0  0  0  0  0  0  0  0  0
    6.9481  -11.3982   25.1957 C   0  0  0  0  0  0  0  0  0  0  0  0
    6.9269  -12.6773   24.6999 C   0  0  0  0  0  0  0  0  0  0  0  0
    7.1916  -13.7850   25.5029 C   0  0  0  0  0  0  0  0  0  0  0  0
    9.0833  -16.9742   23.8451 C   0  0  0  0  0  0  0  0  0  0  0  0
    8.8886  -18.2149   23.9211 O   0  0  0  0  0  0  0  0  0  0  0  0
   12.9281  -15.7528   24.7112 C   0  0  0  0  0  0  0  0  0  0  0  0
   12.5398  -17.2154   24.5896 C   0  0  2  0  0  0  0  0  0  0  0  0
   12.5897  -17.5351   23.1100 C   0  0  0  0  0  0  0  0  0  0  0  0
   11.1804  -17.4104   25.1743 C   0  0  2  0  0  0  0  0  0  0  0  0
   10.2579  -16.4821   24.5213 N   0  0  0  0  0  0  0  0  0  0  0  0
   11.2289  -17.0601   26.6064 C   0  0  0  0  0  0  0  0  0  0  0  0
   10.6925  -16.0117   27.0126 O   0  0  0  0  0  0  0  0  0  0  0  0
   11.8670  -17.8893   27.5007 O   0  0  0  0  0  0  0  0  0  0  0  0
  2  1  1  6
  3  2  1  0
  3  4  1  0
  5  4  1  0
  5  6  1  0
  7  6  1  0
  8  2  1  0
  8  9  2  0
 10  8  1  0
 11 10  1  0
 11 12  1  1
 13 12  1  0
 14 13  2  0
 15 14  1  0
 16 21  2  0
 16 15  1  0
 17 16  1  0
 18 17  2  0
 18 19  1  0
 19 20  2  0
 20 21  1  0
 21 13  1  0
 22 11  1  0
 23 22  2  0
 25 24  1  6
 25 27  1  0
 26 25  1  0
 27 28  1  6
 27 29  1  0
 28 22  1  0
 29 31  1  0
 30 29  2  0
M  END
$$$$
