KWV.pdb
     RDKit          3D

 31 32  0  0  1  0  0  0  0  0999 V2000
    8.9270  -16.6413   19.8133 N   0  0  0  0  0  0  0  0  0  0  0  0
    9.3986  -15.3268   20.0229 C   0  0  1  0  0  0  0  0  0  0  0  0
    8.7688  -14.2797   19.2280 C   0  0  0  0  0  0  0  0  0  0  0  0
    8.5464  -14.3176   17.8078 C   0  0  0  0  0  0  0  0  0  0  0  0
    8.6427  -13.3423   16.7617 C   0  0  0  0  0  0  0  0  0  0  0  0
    8.5334  -13.5227   15.3218 C   0  0  0  0  0  0  0  0  0  0  0  0
    7.5567  -14.3933   14.7670 N   0  0  0  0  0  0  0  0  0  0  0  0
    9.3766  -15.0304   21.4991 C   0  0  0  0  0  0  0  0  0  0  0  0
    9.9005  -13.9688   21.8941 O   0  0  0  0  0  0  0  0  0  0  0  0
    8.7954  -15.8906   22.4443 N   0  0  0  0  0  0  0  0  0  0  0  0
    8.5170  -15.5771   23.8166 C   0  0  1  0  0  0  0  0  0  0  0  0
    7.2672  -16.1617   24.3609 C   0  0  0  0  0  0  0  0  0  0  0  0
    6.4611  -15.2689   25.2152 C   0  0  0  0  0  0  0  0  0  0  0  0
    5.3431  -15.4780   25.9496 C   0  0  0  0  0  0  0  0  0  0  0  0
    5.0042  -14.3171   26.5552 N   0  0  0  0  0  0  0  0  0  0  0  0
    5.8881  -13.3466   26.2263 C   0  0  0  0  0  0  0  0  0  0  0  0
    6.0090  -12.0130   26.5583 C   0  0  0  0  0  0  0  0  0  0  0  0
    7.0457  -11.2447   26.0585 C   0  0  0  0  0  0  0  0  0  0  0  0
    7.9752  -11.8215   25.2139 C   0  0  0  0  0  0  0  0  0  0  0  0
    7.8427  -13.1488   24.8925 C   0  0  0  0  0  0  0  0  0  0  0  0
    6.8014  -13.9289   25.3913 C   0  0  0  0  0  0  0  0  0  0  0  0
    9.7117  -15.8254   24.6666 C   0  0  0  0  0  0  0  0  0  0  0  0
   10.6558  -16.5596   24.2760 O   0  0  0  0  0  0  0  0  0  0  0  0
   12.3044  -14.8756   28.7881 C   0  0  0  0  0  0  0  0  0  0  0  0
   11.1247  -14.5391   27.8937 C   0  0  2  0  0  0  0  0  0  0  0  0
    9.8999  -14.6056   28.7821 C   0  0  0  0  0  0  0  0  0  0  0  0
   11.0713  -15.5163   26.7669 C   0  0  2  0  0  0  0  0  0  0  0  0
    9.8679  -15.2501   25.9796 N   0  0  0  0  0  0  0  0  0  0  0  0
   10.9480  -16.8753   27.3272 C   0  0  0  0  0  0  0  0  0  0  0  0
    9.8428  -17.4497   27.3382 O   0  0  0  0  0  0  0  0  0  0  0  0
   12.0531  -17.5151   27.8410 O   0  0  0  0  0  0  0  0  0  0  0  0
  2  1  1  1
  3  2  1  0
  3  4  1  0
  5  4  1  0
  5  6  1  0
  7  6  1  0
  8  2  1  0
  8  9  2  0
 10  8  1  0
 11 10  1  0
 11 12  1  1
 13 12  1  0
 14 13  2  0
 15 14  1  0
 16 21  2  0
 16 15  1  0
 17 16  1  0
 18 17  2  0
 18 19  1  0
 19 20  2  0
 20 21  1  0
 21 13  1  0
 22 11  1  0
 23 22  2  0
 25 24  1  1
 25 27  1  0
 26 25  1  0
 27 28  1  6
 27 29  1  0
 28 22  1  0
 29 31  1  0
 30 29  2  0
M  END
$$$$
