KWV.pdb
     RDKit          3D

 31 32  0  0  1  0  0  0  0  0999 V2000
    8.9552  -16.6460   20.4357 N   0  0  0  0  0  0  0  0  0  0  0  0
    9.3458  -15.3098   20.6728 C   0  0  1  0  0  0  0  0  0  0  0  0
    8.6226  -14.2838   19.9317 C   0  0  0  0  0  0  0  0  0  0  0  0
    8.3825  -14.2789   18.5140 C   0  0  0  0  0  0  0  0  0  0  0  0
    8.5618  -13.3021   17.4802 C   0  0  0  0  0  0  0  0  0  0  0  0
    8.2228  -13.3838   16.0674 C   0  0  0  0  0  0  0  0  0  0  0  0
    8.5117  -14.5535   15.3136 N   0  0  0  0  0  0  0  0  0  0  0  0
    9.3529  -15.0600   22.1578 C   0  0  0  0  0  0  0  0  0  0  0  0
    9.7700  -13.9573   22.5671 O   0  0  0  0  0  0  0  0  0  0  0  0
    8.9127  -16.0074   23.0957 N   0  0  0  0  0  0  0  0  0  0  0  0
    8.6674  -15.7689   24.4893 C   0  0  1  0  0  0  0  0  0  0  0  0
    7.4561  -16.4225   25.0420 C   0  0  0  0  0  0  0  0  0  0  0  0
    6.3618  -15.5151   25.4367 C   0  0  0  0  0  0  0  0  0  0  0  0
    5.0333  -15.7126   25.6079 C   0  0  0  0  0  0  0  0  0  0  0  0
    4.4697  -14.5407   25.9798 N   0  0  0  0  0  0  0  0  0  0  0  0
    5.4142  -13.5744   26.0547 C   0  0  0  0  0  0  0  0  0  0  0  0
    5.3849  -12.2340   26.3799 C   0  0  0  0  0  0  0  0  0  0  0  0
    6.5405  -11.4729   26.3726 C   0  0  0  0  0  0  0  0  0  0  0  0
    7.7432  -12.0639   26.0348 C   0  0  0  0  0  0  0  0  0  0  0  0
    7.7575  -13.3977   25.7138 C   0  0  0  0  0  0  0  0  0  0  0  0
    6.5981  -14.1708   25.7184 C   0  0  0  0  0  0  0  0  0  0  0  0
    9.8961  -16.0144   25.2902 C   0  0  0  0  0  0  0  0  0  0  0  0
   10.9331  -16.5024   24.7711 O   0  0  0  0  0  0  0  0  0  0  0  0
   11.3046  -13.7950   28.3790 C   0  0  0  0  0  0  0  0  0  0  0  0
   11.1897  -15.2696   28.7211 C   0  0  2  0  0  0  0  0  0  0  0  0
   12.3817  -15.5843   29.6009 C   0  0  0  0  0  0  0  0  0  0  0  0
   11.1814  -16.0651   27.4583 C   0  0  2  0  0  0  0  0  0  0  0  0
    9.9822  -15.7145   26.6980 N   0  0  0  0  0  0  0  0  0  0  0  0
   11.0900  -17.4963   27.8035 C   0  0  0  0  0  0  0  0  0  0  0  0
    9.9938  -18.0851   27.7458 O   0  0  0  0  0  0  0  0  0  0  0  0
   12.2149  -18.1880   28.1916 O   0  0  0  0  0  0  0  0  0  0  0  0
  2  1  1  1
  3  2  1  0
  3  4  1  0
  5  4  1  0
  5  6  1  0
  7  6  1  0
  8  2  1  0
  8  9  2  0
 10  8  1  0
 11 10  1  0
 11 12  1  1
 13 12  1  0
 14 13  2  0
 15 14  1  0
 16 21  2  0
 16 15  1  0
 17 16  1  0
 18 17  2  0
 18 19  1  0
 19 20  2  0
 20 21  1  0
 21 13  1  0
 22 11  1  0
 23 22  2  0
 25 24  1  6
 25 27  1  0
 26 25  1  0
 27 28  1  6
 27 29  1  0
 28 22  1  0
 29 31  1  0
 30 29  2  0
M  END
$$$$
