KWV.pdb
     RDKit          3D

 31 32  0  0  1  0  0  0  0  0999 V2000
    9.2686  -18.2126   20.6532 N   0  0  0  0  0  0  0  0  0  0  0  0
   10.4554  -17.5275   20.9946 C   0  0  1  0  0  0  0  0  0  0  0  0
   10.9404  -16.5527   20.0254 C   0  0  0  0  0  0  0  0  0  0  0  0
   10.8101  -16.6473   18.5965 C   0  0  0  0  0  0  0  0  0  0  0  0
    9.6934  -16.7873   17.7087 C   0  0  0  0  0  0  0  0  0  0  0  0
    9.4027  -16.0725   16.4749 C   0  0  0  0  0  0  0  0  0  0  0  0
   10.0622  -16.4108   15.2623 N   0  0  0  0  0  0  0  0  0  0  0  0
   10.3044  -16.9494   22.3768 C   0  0  0  0  0  0  0  0  0  0  0  0
   11.1221  -16.0812   22.7441 O   0  0  0  0  0  0  0  0  0  0  0  0
    9.2897  -17.3417   23.2642 N   0  0  0  0  0  0  0  0  0  0  0  0
    9.0816  -16.8348   24.5904 C   0  0  1  0  0  0  0  0  0  0  0  0
    7.6645  -16.7328   25.0164 C   0  0  0  0  0  0  0  0  0  0  0  0
    6.9808  -15.4717   24.6715 C   0  0  0  0  0  0  0  0  0  0  0  0
    6.1425  -15.1382   23.6620 C   0  0  0  0  0  0  0  0  0  0  0  0
    5.7934  -13.8394   23.8055 N   0  0  0  0  0  0  0  0  0  0  0  0
    6.3938  -13.3154   24.8993 C   0  0  0  0  0  0  0  0  0  0  0  0
    6.3815  -12.0687   25.4899 C   0  0  0  0  0  0  0  0  0  0  0  0
    7.1128  -11.8158   26.6371 C   0  0  0  0  0  0  0  0  0  0  0  0
    7.8672  -12.8273   27.2009 C   0  0  0  0  0  0  0  0  0  0  0  0
    7.8698  -14.0621   26.6029 C   0  0  0  0  0  0  0  0  0  0  0  0
    7.1365  -14.3246   25.4474 C   0  0  0  0  0  0  0  0  0  0  0  0
    9.9491  -17.5442   25.5679 C   0  0  0  0  0  0  0  0  0  0  0  0
   10.0325  -18.7995   25.5835 O   0  0  0  0  0  0  0  0  0  0  0  0
   13.4199  -15.9796   26.8738 C   0  0  0  0  0  0  0  0  0  0  0  0
   12.6406  -16.6321   28.0016 C   0  0  2  0  0  0  0  0  0  0  0  0
   13.6721  -17.3118   28.8779 C   0  0  0  0  0  0  0  0  0  0  0  0
   11.6553  -17.5924   27.4231 C   0  0  2  0  0  0  0  0  0  0  0  0
   10.7432  -16.8516   26.5522 N   0  0  0  0  0  0  0  0  0  0  0  0
   10.8568  -18.1674   28.5220 C   0  0  0  0  0  0  0  0  0  0  0  0
    9.8245  -17.5907   28.9136 O   0  0  0  0  0  0  0  0  0  0  0  0
   11.2485  -19.3435   29.1203 O   0  0  0  0  0  0  0  0  0  0  0  0
  2  1  1  6
  3  2  1  0
  3  4  1  0
  5  4  1  0
  5  6  1  0
  7  6  1  0
  8  2  1  0
  8  9  2  0
 10  8  1  0
 11 10  1  0
 11 12  1  1
 13 12  1  0
 14 13  2  0
 15 14  1  0
 16 21  2  0
 16 15  1  0
 17 16  1  0
 18 17  2  0
 18 19  1  0
 19 20  2  0
 20 21  1  0
 21 13  1  0
 22 11  1  0
 23 22  2  0
 25 24  1  6
 25 27  1  0
 26 25  1  0
 27 28  1  6
 27 29  1  0
 28 22  1  0
 29 31  1  0
 30 29  2  0
M  END
$$$$
