KWV.pdb
     RDKit          3D

 31 32  0  0  1  0  0  0  0  0999 V2000
    7.1765  -17.7775   21.0996 N   0  0  0  0  0  0  0  0  0  0  0  0
    8.2777  -17.0785   20.5581 C   0  0  1  0  0  0  0  0  0  0  0  0
    7.9755  -16.1018   19.5191 C   0  0  0  0  0  0  0  0  0  0  0  0
    7.5498  -16.4009   18.1785 C   0  0  0  0  0  0  0  0  0  0  0  0
    8.2275  -16.4904   16.9185 C   0  0  0  0  0  0  0  0  0  0  0  0
    7.6770  -16.7211   15.5913 C   0  0  0  0  0  0  0  0  0  0  0  0
    6.9808  -15.6925   14.9007 N   0  0  0  0  0  0  0  0  0  0  0  0
    9.0889  -16.4974   21.6858 C   0  0  0  0  0  0  0  0  0  0  0  0
    9.9900  -15.6817   21.4031 O   0  0  0  0  0  0  0  0  0  0  0  0
    8.8763  -16.8308   23.0330 N   0  0  0  0  0  0  0  0  0  0  0  0
    9.6717  -16.4015   24.1475 C   0  0  1  0  0  0  0  0  0  0  0  0
    8.9619  -16.3404   25.4484 C   0  0  0  0  0  0  0  0  0  0  0  0
    7.6849  -15.6015   25.4476 C   0  0  0  0  0  0  0  0  0  0  0  0
    6.4144  -15.9813   25.1744 C   0  0  0  0  0  0  0  0  0  0  0  0
    5.6044  -14.9084   25.3231 N   0  0  0  0  0  0  0  0  0  0  0  0
    6.3295  -13.8267   25.6914 C   0  0  0  0  0  0  0  0  0  0  0  0
    6.0111  -12.5136   25.9697 C   0  0  0  0  0  0  0  0  0  0  0  0
    6.9888  -11.6041   26.3328 C   0  0  0  0  0  0  0  0  0  0  0  0
    8.3050  -12.0168   26.4185 C   0  0  0  0  0  0  0  0  0  0  0  0
    8.6071  -13.3257   26.1391 C   0  0  0  0  0  0  0  0  0  0  0  0
    7.6284  -14.2474   25.7724 C   0  0  0  0  0  0  0  0  0  0  0  0
   10.9531  -17.1543   24.2015 C   0  0  0  0  0  0  0  0  0  0  0  0
   10.9818  -18.4100   24.1288 O   0  0  0  0  0  0  0  0  0  0  0  0
   14.4051  -15.8083   22.6156 C   0  0  0  0  0  0  0  0  0  0  0  0
   14.6047  -16.3804   24.0077 C   0  0  2  0  0  0  0  0  0  0  0  0
   15.9365  -17.1008   23.9718 C   0  0  0  0  0  0  0  0  0  0  0  0
   13.4670  -17.2912   24.3296 C   0  0  2  0  0  0  0  0  0  0  0  0
   12.2334  -16.5056   24.3396 N   0  0  0  0  0  0  0  0  0  0  0  0
   13.6652  -17.8307   25.6881 C   0  0  0  0  0  0  0  0  0  0  0  0
   14.2009  -18.9439   25.8473 O   0  0  0  0  0  0  0  0  0  0  0  0
   13.2589  -17.1072   26.7863 O   0  0  0  0  0  0  0  0  0  0  0  0
  2  1  1  1
  3  2  1  0
  3  4  1  0
  5  4  1  0
  5  6  1  0
  7  6  1  0
  8  2  1  0
  8  9  2  0
 10  8  1  0
 11 10  1  0
 11 12  1  1
 13 12  1  0
 14 13  2  0
 15 14  1  0
 16 21  2  0
 16 15  1  0
 17 16  1  0
 18 17  2  0
 18 19  1  0
 19 20  2  0
 20 21  1  0
 21 13  1  0
 22 11  1  0
 23 22  2  0
 25 24  1  6
 25 27  1  0
 26 25  1  0
 27 28  1  1
 27 29  1  0
 28 22  1  0
 29 31  1  0
 30 29  2  0
M  END
$$$$
