KWV.pdb
     RDKit          3D

 31 32  0  0  1  0  0  0  0  0999 V2000
    6.7315  -15.3538   20.2296 N   0  0  0  0  0  0  0  0  0  0  0  0
    7.5677  -16.4159   20.6383 C   0  0  1  0  0  0  0  0  0  0  0  0
    8.3856  -17.0307   19.6001 C   0  0  0  0  0  0  0  0  0  0  0  0
    7.8965  -17.7778   18.4730 C   0  0  0  0  0  0  0  0  0  0  0  0
    6.7597  -17.6425   17.6102 C   0  0  0  0  0  0  0  0  0  0  0  0
    6.4065  -18.4101   16.4254 C   0  0  0  0  0  0  0  0  0  0  0  0
    7.3615  -19.2452   15.7849 N   0  0  0  0  0  0  0  0  0  0  0  0
    8.3751  -15.9705   21.8287 C   0  0  0  0  0  0  0  0  0  0  0  0
    8.9201  -14.8487   21.7839 O   0  0  0  0  0  0  0  0  0  0  0  0
    8.5398  -16.7572   22.9799 N   0  0  0  0  0  0  0  0  0  0  0  0
    9.3011  -16.4055   24.1443 C   0  0  1  0  0  0  0  0  0  0  0  0
    8.5459  -16.4056   25.4209 C   0  0  0  0  0  0  0  0  0  0  0  0
    7.3959  -15.4836   25.4853 C   0  0  0  0  0  0  0  0  0  0  0  0
    6.0747  -15.6595   25.2476 C   0  0  0  0  0  0  0  0  0  0  0  0
    5.4413  -14.4824   25.4536 N   0  0  0  0  0  0  0  0  0  0  0  0
    6.3328  -13.5341   25.8244 C   0  0  0  0  0  0  0  0  0  0  0  0
    6.2253  -12.1975   26.1488 C   0  0  0  0  0  0  0  0  0  0  0  0
    7.3402  -11.4571   26.5007 C   0  0  0  0  0  0  0  0  0  0  0  0
    8.5808  -12.0654   26.5284 C   0  0  0  0  0  0  0  0  0  0  0  0
    8.6727  -13.3952   26.2037 C   0  0  0  0  0  0  0  0  0  0  0  0
    7.5550  -14.1474   25.8478 C   0  0  0  0  0  0  0  0  0  0  0  0
   10.5679  -17.1824   24.2001 C   0  0  0  0  0  0  0  0  0  0  0  0
   10.5701  -18.4402   24.1684 O   0  0  0  0  0  0  0  0  0  0  0  0
   15.4868  -17.3420   23.8156 C   0  0  0  0  0  0  0  0  0  0  0  0
   14.2052  -16.5289   23.7802 C   0  0  2  0  0  0  0  0  0  0  0  0
   14.4636  -15.3118   24.6437 C   0  0  0  0  0  0  0  0  0  0  0  0
   13.0804  -17.3671   24.2900 C   0  0  2  0  0  0  0  0  0  0  0  0
   11.8633  -16.5561   24.2938 N   0  0  0  0  0  0  0  0  0  0  0  0
   13.3702  -17.7460   25.6859 C   0  0  0  0  0  0  0  0  0  0  0  0
   12.8424  -17.1221   26.6261 O   0  0  0  0  0  0  0  0  0  0  0  0
   14.2253  -18.7901   25.9565 O   0  0  0  0  0  0  0  0  0  0  0  0
  2  1  1  6
  3  2  1  0
  3  4  1  0
  5  4  1  0
  5  6  1  0
  7  6  1  0
  8  2  1  0
  8  9  2  0
 10  8  1  0
 11 10  1  0
 11 12  1  1
 13 12  1  0
 14 13  2  0
 15 14  1  0
 16 21  2  0
 16 15  1  0
 17 16  1  0
 18 17  2  0
 18 19  1  0
 19 20  2  0
 20 21  1  0
 21 13  1  0
 22 11  1  0
 23 22  2  0
 25 24  1  1
 25 27  1  0
 26 25  1  0
 27 28  1  1
 27 29  1  0
 28 22  1  0
 29 31  1  0
 30 29  2  0
M  END
$$$$
