NDY.pdb
     RDKit          3D

 29 29  0  0  1  0  0  0  0  0999 V2000
    8.4140  -14.9882   14.8503 N   0  0  0  0  0  0  0  0  0  0  0  0
    9.3769  -16.0088   15.0749 C   0  0  0  0  0  0  0  0  0  0  0  0
   10.4489  -15.9485   14.4241 O   0  0  0  0  0  0  0  0  0  0  0  0
    9.0968  -17.0923   16.0497 C   0  0  0  0  0  0  0  0  0  0  0  0
    9.6011  -16.6493   17.3848 C   0  0  2  0  0  0  0  0  0  0  0  0
   11.0178  -16.4061   17.3403 N   0  0  0  0  0  0  0  0  0  0  0  0
    9.1764  -17.4889   18.5142 C   0  0  0  0  0  0  0  0  0  0  0  0
    7.9476  -17.6928   18.6557 O   0  0  0  0  0  0  0  0  0  0  0  0
   10.1142  -18.0489   19.4143 N   0  0  0  0  0  0  0  0  0  0  0  0
    9.7157  -18.8286   20.5478 C   0  0  1  0  0  0  0  0  0  0  0  0
   10.4880  -20.0820   20.7403 C   0  0  0  0  0  0  0  0  0  0  0  0
    9.9281  -20.8734   21.8639 C   0  0  0  0  0  0  0  0  0  0  0  0
    8.6902  -21.0246   22.0068 O   0  0  0  0  0  0  0  0  0  0  0  0
    9.7849  -17.9273   21.7557 C   0  0  0  0  0  0  0  0  0  0  0  0
    9.2951  -18.2029   22.8580 O   0  0  0  0  0  0  0  0  0  0  0  0
   10.7343  -21.4928   22.8231 O   0  0  0  0  0  0  0  0  0  0  0  0
    7.8005  -12.9581   17.5981 O   0  0  0  0  0  0  0  0  0  0  0  0
    8.1575  -13.4559   18.8458 C   0  0  0  0  0  0  0  0  0  0  0  0
    9.4352  -13.3376   19.2983 C   0  0  0  0  0  0  0  0  0  0  0  0
    9.7829  -13.8348   20.5394 C   0  0  0  0  0  0  0  0  0  0  0  0
    8.8644  -14.4554   21.3447 C   0  0  0  0  0  0  0  0  0  0  0  0
    9.2228  -14.9904   22.6728 C   0  0  0  0  0  0  0  0  0  0  0  0
   10.5869  -15.6903   22.6089 C   0  0  2  0  0  0  0  0  0  0  0  0
   10.4565  -16.6975   21.5930 N   0  0  0  0  0  0  0  0  0  0  0  0
   10.8882  -16.1972   23.9406 C   0  0  0  0  0  0  0  0  0  0  0  0
   10.8488  -17.4191   24.2033 O   0  0  0  0  0  0  0  0  0  0  0  0
    7.5623  -14.5742   20.8793 C   0  0  0  0  0  0  0  0  0  0  0  0
    7.2193  -14.0771   19.6411 C   0  0  0  0  0  0  0  0  0  0  0  0
   11.2287  -15.3228   24.9538 O   0  0  0  0  0  0  0  0  0  0  0  0
  1  2  1  0
  2  3  2  0
  4  2  1  0
  4  5  1  0
  5  7  1  0
  5  6  1  6
  7  8  2  0
  9 10  1  0
  9  7  1  0
 10 11  1  1
 12 11  1  0
 13 12  2  0
 14 15  2  0
 14 10  1  0
 16 12  1  0
 17 18  1  0
 18 19  2  0
 18 28  1  0
 19 20  1  0
 20 21  2  0
 21 22  1  0
 23 22  1  1
 23 24  1  0
 23 25  1  0
 24 14  1  0
 25 29  1  0
 26 25  2  0
 27 21  1  0
 28 27  2  0
M  END
$$$$
