NDY.pdb
     RDKit          3D

 29 29  0  0  1  0  0  0  0  0999 V2000
    6.3951  -17.9274   19.0308 N   0  0  0  0  0  0  0  0  0  0  0  0
    7.4740  -17.4318   18.2501 C   0  0  0  0  0  0  0  0  0  0  0  0
    7.2902  -17.3161   17.0134 O   0  0  0  0  0  0  0  0  0  0  0  0
    8.7581  -17.0721   18.9016 C   0  0  0  0  0  0  0  0  0  0  0  0
    8.6388  -17.3907   20.3567 C   0  0  2  0  0  0  0  0  0  0  0  0
    7.6393  -16.5654   20.9797 N   0  0  0  0  0  0  0  0  0  0  0  0
    9.9147  -17.4330   21.0856 C   0  0  0  0  0  0  0  0  0  0  0  0
   10.6546  -18.4283   20.9025 O   0  0  0  0  0  0  0  0  0  0  0  0
   10.3000  -16.3929   21.9647 N   0  0  0  0  0  0  0  0  0  0  0  0
   11.5145  -16.4421   22.7226 C   0  0  1  0  0  0  0  0  0  0  0  0
   12.5148  -15.4074   22.3579 C   0  0  0  0  0  0  0  0  0  0  0  0
   13.8573  -15.7740   22.8731 C   0  0  0  0  0  0  0  0  0  0  0  0
   14.1392  -16.9564   23.1863 O   0  0  0  0  0  0  0  0  0  0  0  0
   11.1334  -16.3751   24.1808 C   0  0  0  0  0  0  0  0  0  0  0  0
   11.9187  -16.0866   25.0922 O   0  0  0  0  0  0  0  0  0  0  0  0
   14.8807  -14.8367   23.0405 O   0  0  0  0  0  0  0  0  0  0  0  0
    6.8995  -10.8286   25.3222 O   0  0  0  0  0  0  0  0  0  0  0  0
    7.1060  -12.2008   25.4011 C   0  0  0  0  0  0  0  0  0  0  0  0
    6.8130  -13.0066   24.3445 C   0  0  0  0  0  0  0  0  0  0  0  0
    7.0208  -14.3696   24.4300 C   0  0  0  0  0  0  0  0  0  0  0  0
    7.5222  -14.9472   25.5668 C   0  0  0  0  0  0  0  0  0  0  0  0
    7.7494  -16.4019   25.6709 C   0  0  0  0  0  0  0  0  0  0  0  0
    9.2479  -16.6915   25.8302 C   0  0  2  0  0  0  0  0  0  0  0  0
    9.7898  -16.6634   24.5001 N   0  0  0  0  0  0  0  0  0  0  0  0
    9.3822  -17.9668   26.5207 C   0  0  0  0  0  0  0  0  0  0  0  0
    9.0517  -18.1036   27.7189 O   0  0  0  0  0  0  0  0  0  0  0  0
    7.8196  -14.1219   26.6422 C   0  0  0  0  0  0  0  0  0  0  0  0
    7.6111  -12.7630   26.5532 C   0  0  0  0  0  0  0  0  0  0  0  0
    9.8853  -19.0661   25.8532 O   0  0  0  0  0  0  0  0  0  0  0  0
  1  2  1  0
  2  3  2  0
  4  2  1  0
  4  5  1  0
  5  7  1  0
  5  6  1  1
  7  8  2  0
  9 10  1  0
  9  7  1  0
 10 11  1  6
 12 11  1  0
 13 12  2  0
 14 15  2  0
 14 10  1  0
 16 12  1  0
 17 18  1  0
 18 19  2  0
 18 28  1  0
 19 20  1  0
 20 21  2  0
 21 22  1  0
 23 22  1  6
 23 24  1  0
 23 25  1  0
 24 14  1  0
 25 29  1  0
 26 25  2  0
 27 21  1  0
 28 27  2  0
M  END
$$$$
