NDY.pdb
     RDKit          3D

 29 29  0  0  1  0  0  0  0  0999 V2000
    6.6823  -17.6379   15.5425 N   0  0  0  0  0  0  0  0  0  0  0  0
    7.7096  -18.4458   16.1003 C   0  0  0  0  0  0  0  0  0  0  0  0
    8.5487  -18.9445   15.3107 O   0  0  0  0  0  0  0  0  0  0  0  0
    7.7623  -18.6726   17.5661 C   0  0  0  0  0  0  0  0  0  0  0  0
    8.5187  -17.5385   18.1784 C   0  0  2  0  0  0  0  0  0  0  0  0
    9.4265  -16.9574   17.2263 N   0  0  0  0  0  0  0  0  0  0  0  0
    9.1325  -17.8379   19.4801 C   0  0  0  0  0  0  0  0  0  0  0  0
    8.4217  -18.4124   20.3382 O   0  0  0  0  0  0  0  0  0  0  0  0
   10.4755  -17.4920   19.7625 N   0  0  0  0  0  0  0  0  0  0  0  0
   11.0841  -17.7595   21.0313 C   0  0  1  0  0  0  0  0  0  0  0  0
   12.5255  -18.1095   20.9658 C   0  0  0  0  0  0  0  0  0  0  0  0
   13.0267  -18.5124   22.3032 C   0  0  0  0  0  0  0  0  0  0  0  0
   12.4074  -19.3421   23.0130 O   0  0  0  0  0  0  0  0  0  0  0  0
   10.8300  -16.5596   21.9099 C   0  0  0  0  0  0  0  0  0  0  0  0
   11.5850  -15.5826   21.9879 O   0  0  0  0  0  0  0  0  0  0  0  0
   14.2060  -17.9993   22.8507 O   0  0  0  0  0  0  0  0  0  0  0  0
    7.6387  -12.3113   18.5565 O   0  0  0  0  0  0  0  0  0  0  0  0
    7.7024  -13.0132   19.7545 C   0  0  0  0  0  0  0  0  0  0  0  0
    8.4382  -12.5389   20.7962 C   0  0  0  0  0  0  0  0  0  0  0  0
    8.4971  -13.2420   21.9839 C   0  0  0  0  0  0  0  0  0  0  0  0
    7.8253  -14.4246   22.1496 C   0  0  0  0  0  0  0  0  0  0  0  0
    7.8794  -15.1851   23.4134 C   0  0  0  0  0  0  0  0  0  0  0  0
    9.3213  -15.6222   23.7044 C   0  0  2  0  0  0  0  0  0  0  0  0
    9.6493  -16.5761   22.6817 N   0  0  0  0  0  0  0  0  0  0  0  0
    9.3612  -16.1423   25.0643 C   0  0  0  0  0  0  0  0  0  0  0  0
    9.0923  -15.4232   26.0513 O   0  0  0  0  0  0  0  0  0  0  0  0
    7.0761  -14.9049   21.0846 C   0  0  0  0  0  0  0  0  0  0  0  0
    7.0198  -14.2010   19.9017 C   0  0  0  0  0  0  0  0  0  0  0  0
    9.7022  -17.4611   25.2916 O   0  0  0  0  0  0  0  0  0  0  0  0
  1  2  1  0
  2  3  2  0
  4  2  1  0
  4  5  1  0
  5  7  1  0
  5  6  1  6
  7  8  2  0
  9 10  1  0
  9  7  1  0
 10 11  1  6
 12 11  1  0
 13 12  2  0
 14 15  2  0
 14 10  1  0
 16 12  1  0
 17 18  1  0
 18 19  2  0
 18 28  1  0
 19 20  1  0
 20 21  2  0
 21 22  1  0
 23 22  1  6
 23 24  1  0
 23 25  1  0
 24 14  1  0
 25 29  1  0
 26 25  2  0
 27 21  1  0
 28 27  2  0
M  END
$$$$
