NDY.pdb
     RDKit          3D

 29 29  0  0  1  0  0  0  0  0999 V2000
    8.2865  -12.1164   19.1534 N   0  0  0  0  0  0  0  0  0  0  0  0
    8.9033  -13.0947   19.9791 C   0  0  0  0  0  0  0  0  0  0  0  0
   10.1032  -13.3798   19.7437 O   0  0  0  0  0  0  0  0  0  0  0  0
    8.1314  -13.7374   21.0718 C   0  0  0  0  0  0  0  0  0  0  0  0
    8.2417  -15.2179   20.9014 C   0  0  2  0  0  0  0  0  0  0  0  0
    7.7632  -15.6197   19.6061 N   0  0  0  0  0  0  0  0  0  0  0  0
    7.6910  -16.0093   22.0111 C   0  0  0  0  0  0  0  0  0  0  0  0
    6.5246  -16.4513   21.8854 O   0  0  0  0  0  0  0  0  0  0  0  0
    8.4430  -16.2658   23.1823 N   0  0  0  0  0  0  0  0  0  0  0  0
    7.9657  -17.1231   24.2258 C   0  0  1  0  0  0  0  0  0  0  0  0
    8.9991  -18.0053   24.8242 C   0  0  0  0  0  0  0  0  0  0  0  0
    8.4116  -18.8443   25.8981 C   0  0  0  0  0  0  0  0  0  0  0  0
    7.1878  -19.1227   25.9175 O   0  0  0  0  0  0  0  0  0  0  0  0
    7.3025  -16.2440   25.2570 C   0  0  0  0  0  0  0  0  0  0  0  0
    6.7057  -16.6699   26.2536 O   0  0  0  0  0  0  0  0  0  0  0  0
    9.1750  -19.3711   26.9439 O   0  0  0  0  0  0  0  0  0  0  0  0
   12.1448  -15.7354   29.0215 O   0  0  0  0  0  0  0  0  0  0  0  0
   11.1503  -15.0431   28.3406 C   0  0  0  0  0  0  0  0  0  0  0  0
   10.2510  -14.2792   29.0181 C   0  0  0  0  0  0  0  0  0  0  0  0
    9.2651  -13.5940   28.3348 C   0  0  0  0  0  0  0  0  0  0  0  0
    9.1620  -13.6604   26.9702 C   0  0  0  0  0  0  0  0  0  0  0  0
    8.1139  -12.9328   26.2281 C   0  0  0  0  0  0  0  0  0  0  0  0
    6.9135  -13.8537   25.9717 C   0  0  2  0  0  0  0  0  0  0  0  0
    7.3821  -14.8509   25.0500 N   0  0  0  0  0  0  0  0  0  0  0  0
    5.8189  -13.0289   25.4793 C   0  0  0  0  0  0  0  0  0  0  0  0
    5.4402  -13.0814   24.2887 O   0  0  0  0  0  0  0  0  0  0  0  0
   10.0811  -14.4408   26.2829 C   0  0  0  0  0  0  0  0  0  0  0  0
   11.0629  -15.1227   26.9678 C   0  0  0  0  0  0  0  0  0  0  0  0
    5.1685  -12.1597   26.3329 O   0  0  0  0  0  0  0  0  0  0  0  0
  1  2  1  0
  2  3  2  0
  4  2  1  0
  4  5  1  0
  5  7  1  0
  5  6  1  6
  7  8  2  0
  9 10  1  0
  9  7  1  0
 10 11  1  1
 12 11  1  0
 13 12  2  0
 14 15  2  0
 14 10  1  0
 16 12  1  0
 17 18  1  0
 18 19  2  0
 18 28  1  0
 19 20  1  0
 20 21  2  0
 21 22  1  0
 23 22  1  6
 23 24  1  0
 23 25  1  0
 24 14  1  0
 25 29  1  0
 26 25  2  0
 27 21  1  0
 28 27  2  0
M  END
$$$$
