NDY.pdb
     RDKit          3D

 29 29  0  0  1  0  0  0  0  0999 V2000
    7.9820  -12.5138   17.1464 N   0  0  0  0  0  0  0  0  0  0  0  0
    8.3561  -13.8453   17.4727 C   0  0  0  0  0  0  0  0  0  0  0  0
    8.9348  -14.5194   16.5856 O   0  0  0  0  0  0  0  0  0  0  0  0
    8.0605  -14.3901   18.8213 C   0  0  0  0  0  0  0  0  0  0  0  0
    8.3351  -15.8587   18.7925 C   0  0  2  0  0  0  0  0  0  0  0  0
    7.2182  -16.5762   18.2394 N   0  0  0  0  0  0  0  0  0  0  0  0
    8.8344  -16.4178   20.0570 C   0  0  0  0  0  0  0  0  0  0  0  0
    7.9893  -16.8702   20.8650 O   0  0  0  0  0  0  0  0  0  0  0  0
   10.2168  -16.4464   20.3593 N   0  0  0  0  0  0  0  0  0  0  0  0
   10.7213  -16.9931   21.5834 C   0  0  1  0  0  0  0  0  0  0  0  0
   12.1401  -17.4272   21.5299 C   0  0  0  0  0  0  0  0  0  0  0  0
   12.5583  -18.0078   22.8301 C   0  0  0  0  0  0  0  0  0  0  0  0
   13.2587  -17.3574   23.6438 O   0  0  0  0  0  0  0  0  0  0  0  0
   10.4815  -15.9665   22.6627 C   0  0  0  0  0  0  0  0  0  0  0  0
   10.7266  -14.7599   22.5415 O   0  0  0  0  0  0  0  0  0  0  0  0
   12.2031  -19.3004   23.2259 O   0  0  0  0  0  0  0  0  0  0  0  0
    5.9125  -11.2936   27.9942 O   0  0  0  0  0  0  0  0  0  0  0  0
    6.4747  -12.1801   27.0832 C   0  0  0  0  0  0  0  0  0  0  0  0
    7.5312  -11.8036   26.3130 C   0  0  0  0  0  0  0  0  0  0  0  0
    8.0848  -12.6900   25.4095 C   0  0  0  0  0  0  0  0  0  0  0  0
    7.5944  -13.9608   25.2614 C   0  0  0  0  0  0  0  0  0  0  0  0
    8.1770  -14.9176   24.3004 C   0  0  0  0  0  0  0  0  0  0  0  0
    9.4034  -15.6035   24.9169 C   0  0  2  0  0  0  0  0  0  0  0  0
    9.9422  -16.4370   23.8784 N   0  0  0  0  0  0  0  0  0  0  0  0
    8.9613  -16.3157   26.1079 C   0  0  0  0  0  0  0  0  0  0  0  0
    8.4233  -17.4423   26.0384 O   0  0  0  0  0  0  0  0  0  0  0  0
    6.5166  -14.3408   26.0488 C   0  0  0  0  0  0  0  0  0  0  0  0
    5.9671  -13.4541   26.9487 C   0  0  0  0  0  0  0  0  0  0  0  0
    9.1315  -15.7500   27.3562 O   0  0  0  0  0  0  0  0  0  0  0  0
  1  2  1  0
  2  3  2  0
  4  2  1  0
  4  5  1  0
  5  7  1  0
  5  6  1  1
  7  8  2  0
  9 10  1  0
  9  7  1  0
 10 11  1  6
 12 11  1  0
 13 12  2  0
 14 15  2  0
 14 10  1  0
 16 12  1  0
 17 18  1  0
 18 19  2  0
 18 28  1  0
 19 20  1  0
 20 21  2  0
 21 22  1  0
 23 22  1  6
 23 24  1  0
 23 25  1  0
 24 14  1  0
 25 29  1  0
 26 25  2  0
 27 21  1  0
 28 27  2  0
M  END
$$$$
