NDY.pdb
     RDKit          3D

 29 29  0  0  1  0  0  0  0  0999 V2000
    7.4703  -13.0478   16.3993 N   0  0  0  0  0  0  0  0  0  0  0  0
    7.9304  -14.3878   16.2903 C   0  0  0  0  0  0  0  0  0  0  0  0
    8.3876  -14.7558   15.1803 O   0  0  0  0  0  0  0  0  0  0  0  0
    7.8606  -15.2945   17.4632 C   0  0  0  0  0  0  0  0  0  0  0  0
    8.7560  -14.7413   18.5241 C   0  0  2  0  0  0  0  0  0  0  0  0
    9.9511  -14.1883   17.9460 N   0  0  0  0  0  0  0  0  0  0  0  0
    9.0057  -15.6471   19.6546 C   0  0  0  0  0  0  0  0  0  0  0  0
    8.0319  -15.9434   20.3865 O   0  0  0  0  0  0  0  0  0  0  0  0
   10.2954  -16.1685   19.9148 N   0  0  0  0  0  0  0  0  0  0  0  0
   10.5764  -16.9781   21.0626 C   0  0  1  0  0  0  0  0  0  0  0  0
   11.8685  -17.7072   21.0054 C   0  0  0  0  0  0  0  0  0  0  0  0
   12.0559  -18.5344   22.2231 C   0  0  0  0  0  0  0  0  0  0  0  0
   11.1149  -19.2075   22.7100 O   0  0  0  0  0  0  0  0  0  0  0  0
   10.4820  -16.0831   22.2735 C   0  0  0  0  0  0  0  0  0  0  0  0
   11.3475  -15.2616   22.6002 O   0  0  0  0  0  0  0  0  0  0  0  0
   13.2778  -18.6151   22.8971 O   0  0  0  0  0  0  0  0  0  0  0  0
    6.5045  -11.2182   28.2434 O   0  0  0  0  0  0  0  0  0  0  0  0
    6.8377  -12.0351   27.1693 C   0  0  0  0  0  0  0  0  0  0  0  0
    7.7801  -11.6446   26.2690 C   0  0  0  0  0  0  0  0  0  0  0  0
    8.1061  -12.4616   25.2038 C   0  0  0  0  0  0  0  0  0  0  0  0
    7.4988  -13.6762   25.0215 C   0  0  0  0  0  0  0  0  0  0  0  0
    7.8382  -14.5588   23.8882 C   0  0  0  0  0  0  0  0  0  0  0  0
    9.0449  -15.4365   24.2464 C   0  0  2  0  0  0  0  0  0  0  0  0
    9.3232  -16.2095   23.0680 N   0  0  0  0  0  0  0  0  0  0  0  0
    8.6912  -16.2178   25.4235 C   0  0  0  0  0  0  0  0  0  0  0  0
    8.0702  -17.2993   25.3324 O   0  0  0  0  0  0  0  0  0  0  0  0
    6.5380  -14.0708   25.9420 C   0  0  0  0  0  0  0  0  0  0  0  0
    6.2156  -13.2533   27.0030 C   0  0  0  0  0  0  0  0  0  0  0  0
    9.0415  -15.7707   26.6823 O   0  0  0  0  0  0  0  0  0  0  0  0
  1  2  1  0
  2  3  2  0
  4  2  1  0
  4  5  1  0
  5  7  1  0
  5  6  1  6
  7  8  2  0
  9 10  1  0
  9  7  1  0
 10 11  1  6
 12 11  1  0
 13 12  2  0
 14 15  2  0
 14 10  1  0
 16 12  1  0
 17 18  1  0
 18 19  2  0
 18 28  1  0
 19 20  1  0
 20 21  2  0
 21 22  1  0
 23 22  1  6
 23 24  1  0
 23 25  1  0
 24 14  1  0
 25 29  1  0
 26 25  2  0
 27 21  1  0
 28 27  2  0
M  END
$$$$
