NDY.pdb
     RDKit          3D

 29 29  0  0  1  0  0  0  0  0999 V2000
    7.3297  -12.2730   18.8968 N   0  0  0  0  0  0  0  0  0  0  0  0
    8.3053  -13.2380   19.2658 C   0  0  0  0  0  0  0  0  0  0  0  0
    9.1920  -13.5186   18.4223 O   0  0  0  0  0  0  0  0  0  0  0  0
    8.2518  -13.8727   20.6064 C   0  0  0  0  0  0  0  0  0  0  0  0
    8.3294  -15.3529   20.4161 C   0  0  2  0  0  0  0  0  0  0  0  0
    7.1889  -15.8339   19.6838 N   0  0  0  0  0  0  0  0  0  0  0  0
    8.6178  -16.1176   21.6380 C   0  0  0  0  0  0  0  0  0  0  0  0
    7.6485  -16.4306   22.3688 O   0  0  0  0  0  0  0  0  0  0  0  0
    9.9388  -16.4893   21.9844 N   0  0  0  0  0  0  0  0  0  0  0  0
   10.2233  -17.3844   23.0659 C   0  0  1  0  0  0  0  0  0  0  0  0
   11.3981  -18.2657   22.8481 C   0  0  0  0  0  0  0  0  0  0  0  0
   11.4595  -19.3213   23.8894 C   0  0  0  0  0  0  0  0  0  0  0  0
   10.4522  -19.6278   24.5728 O   0  0  0  0  0  0  0  0  0  0  0  0
   10.3647  -16.5468   24.3127 C   0  0  0  0  0  0  0  0  0  0  0  0
   11.1652  -15.6115   24.4351 O   0  0  0  0  0  0  0  0  0  0  0  0
   12.6294  -20.0322   24.1719 O   0  0  0  0  0  0  0  0  0  0  0  0
    6.2672  -11.0438   25.4045 O   0  0  0  0  0  0  0  0  0  0  0  0
    6.7215  -12.2868   25.8294 C   0  0  0  0  0  0  0  0  0  0  0  0
    6.0804  -13.4251   25.4489 C   0  0  0  0  0  0  0  0  0  0  0  0
    6.5375  -14.6571   25.8751 C   0  0  0  0  0  0  0  0  0  0  0  0
    7.6371  -14.7716   26.6845 C   0  0  0  0  0  0  0  0  0  0  0  0
    8.1360  -16.0817   27.1464 C   0  0  0  0  0  0  0  0  0  0  0  0
    9.5913  -16.2785   26.7013 C   0  0  2  0  0  0  0  0  0  0  0  0
    9.5185  -16.8699   25.3943 N   0  0  0  0  0  0  0  0  0  0  0  0
   10.2565  -17.0943   27.7079 C   0  0  0  0  0  0  0  0  0  0  0  0
   10.4147  -16.6915   28.8810 O   0  0  0  0  0  0  0  0  0  0  0  0
    8.2880  -13.6082   27.0704 C   0  0  0  0  0  0  0  0  0  0  0  0
    7.8293  -12.3814   26.6433 C   0  0  0  0  0  0  0  0  0  0  0  0
   10.7320  -18.3485   27.3791 O   0  0  0  0  0  0  0  0  0  0  0  0
  1  2  1  0
  2  3  2  0
  4  2  1  0
  4  5  1  0
  5  7  1  0
  5  6  1  1
  7  8  2  0
  9 10  1  0
  9  7  1  0
 10 11  1  6
 12 11  1  0
 13 12  2  0
 14 15  2  0
 14 10  1  0
 16 12  1  0
 17 18  1  0
 18 19  2  0
 18 28  1  0
 19 20  1  0
 20 21  2  0
 21 22  1  0
 23 22  1  1
 23 24  1  0
 23 25  1  0
 24 14  1  0
 25 29  1  0
 26 25  2  0
 27 21  1  0
 28 27  2  0
M  END
$$$$
