NDY.pdb
     RDKit          3D

 29 29  0  0  1  0  0  0  0  0999 V2000
    5.8751  -21.5786   24.9336 N   0  0  0  0  0  0  0  0  0  0  0  0
    6.1283  -20.6565   25.9849 C   0  0  0  0  0  0  0  0  0  0  0  0
    5.2228  -20.4859   26.8376 O   0  0  0  0  0  0  0  0  0  0  0  0
    7.4254  -19.9378   26.0456 C   0  0  0  0  0  0  0  0  0  0  0  0
    8.1635  -20.2161   24.7764 C   0  0  2  0  0  0  0  0  0  0  0  0
    8.5009  -21.6106   24.6774 N   0  0  0  0  0  0  0  0  0  0  0  0
    9.2896  -19.3107   24.5064 C   0  0  0  0  0  0  0  0  0  0  0  0
   10.4462  -19.7916   24.5593 O   0  0  0  0  0  0  0  0  0  0  0  0
    9.0841  -17.9445   24.1990 N   0  0  0  0  0  0  0  0  0  0  0  0
   10.1704  -17.0428   23.9569 C   0  0  1  0  0  0  0  0  0  0  0  0
   10.0696  -16.2775   22.6886 C   0  0  0  0  0  0  0  0  0  0  0  0
   11.3467  -15.5806   22.3959 C   0  0  0  0  0  0  0  0  0  0  0  0
   12.3500  -15.7107   23.1390 O   0  0  0  0  0  0  0  0  0  0  0  0
   10.2756  -16.1380   25.1596 C   0  0  0  0  0  0  0  0  0  0  0  0
   10.5292  -14.9286   25.0999 O   0  0  0  0  0  0  0  0  0  0  0  0
   11.5109  -14.7449   21.2876 O   0  0  0  0  0  0  0  0  0  0  0  0
    6.7086  -11.7255   24.6105 O   0  0  0  0  0  0  0  0  0  0  0  0
    7.2037  -12.7063   25.4619 C   0  0  0  0  0  0  0  0  0  0  0  0
    6.7125  -13.9744   25.4165 C   0  0  0  0  0  0  0  0  0  0  0  0
    7.2093  -14.9441   26.2658 C   0  0  0  0  0  0  0  0  0  0  0  0
    8.2000  -14.6642   27.1699 C   0  0  0  0  0  0  0  0  0  0  0  0
    8.7399  -15.6911   28.0824 C   0  0  0  0  0  0  0  0  0  0  0  0
   10.1769  -16.0501   27.6811 C   0  0  2  0  0  0  0  0  0  0  0  0
   10.0668  -16.7324   26.4219 N   0  0  0  0  0  0  0  0  0  0  0  0
   10.7539  -16.8411   28.7593 C   0  0  0  0  0  0  0  0  0  0  0  0
   10.8739  -16.3854   29.9175 O   0  0  0  0  0  0  0  0  0  0  0  0
    8.6982  -13.3696   27.2131 C   0  0  0  0  0  0  0  0  0  0  0  0
    8.2003  -12.4052   26.3645 C   0  0  0  0  0  0  0  0  0  0  0  0
   11.1860  -18.1304   28.5176 O   0  0  0  0  0  0  0  0  0  0  0  0
  1  2  1  0
  2  3  2  0
  4  2  1  0
  4  5  1  0
  5  7  1  0
  5  6  1  1
  7  8  2  0
  9 10  1  0
  9  7  1  0
 10 11  1  6
 12 11  1  0
 13 12  2  0
 14 15  2  0
 14 10  1  0
 16 12  1  0
 17 18  1  0
 18 19  2  0
 18 28  1  0
 19 20  1  0
 20 21  2  0
 21 22  1  0
 23 22  1  1
 23 24  1  0
 23 25  1  0
 24 14  1  0
 25 29  1  0
 26 25  2  0
 27 21  1  0
 28 27  2  0
M  END
$$$$
