NDY.pdb
     RDKit          3D

 29 29  0  0  1  0  0  0  0  0999 V2000
    8.5553  -13.3195   17.1250 N   0  0  0  0  0  0  0  0  0  0  0  0
    9.2495  -12.7614   18.2322 C   0  0  0  0  0  0  0  0  0  0  0  0
    9.8375  -11.6661   18.0562 O   0  0  0  0  0  0  0  0  0  0  0  0
    9.2602  -13.4708   19.5359 C   0  0  0  0  0  0  0  0  0  0  0  0
    8.5630  -14.7796   19.3512 C   0  0  2  0  0  0  0  0  0  0  0  0
    7.2183  -14.5799   18.8821 N   0  0  0  0  0  0  0  0  0  0  0  0
    8.6645  -15.6991   20.4936 C   0  0  0  0  0  0  0  0  0  0  0  0
    7.6295  -15.8964   21.1731 O   0  0  0  0  0  0  0  0  0  0  0  0
    9.8825  -16.3407   20.8218 N   0  0  0  0  0  0  0  0  0  0  0  0
    9.9849  -17.2869   21.8924 C   0  0  1  0  0  0  0  0  0  0  0  0
   10.8258  -18.4732   21.5927 C   0  0  0  0  0  0  0  0  0  0  0  0
   12.2653  -18.1133   21.6186 C   0  0  0  0  0  0  0  0  0  0  0  0
   12.9848  -18.3589   22.6174 O   0  0  0  0  0  0  0  0  0  0  0  0
   10.4736  -16.5359   23.1062 C   0  0  0  0  0  0  0  0  0  0  0  0
   11.3347  -15.6481   23.0746 O   0  0  0  0  0  0  0  0  0  0  0  0
   12.9032  -17.4852   20.5452 O   0  0  0  0  0  0  0  0  0  0  0  0
    5.7257  -11.4057   27.8361 O   0  0  0  0  0  0  0  0  0  0  0  0
    6.3267  -12.3574   27.0206 C   0  0  0  0  0  0  0  0  0  0  0  0
    5.7452  -13.5729   26.8311 C   0  0  0  0  0  0  0  0  0  0  0  0
    6.3483  -14.5140   26.0193 C   0  0  0  0  0  0  0  0  0  0  0  0
    7.5363  -14.2576   25.3867 C   0  0  0  0  0  0  0  0  0  0  0  0
    8.1907  -15.2541   24.5165 C   0  0  0  0  0  0  0  0  0  0  0  0
    9.3228  -15.9565   25.2778 C   0  0  2  0  0  0  0  0  0  0  0  0
    9.8964  -16.8862   24.3449 N   0  0  0  0  0  0  0  0  0  0  0  0
    8.7466  -16.5611   26.4709 C   0  0  0  0  0  0  0  0  0  0  0  0
    8.0018  -17.5634   26.4058 O   0  0  0  0  0  0  0  0  0  0  0  0
    8.1262  -13.0168   25.5828 C   0  0  0  0  0  0  0  0  0  0  0  0
    7.5218  -12.0807   26.3930 C   0  0  0  0  0  0  0  0  0  0  0  0
    9.0172  -16.0294   27.7164 O   0  0  0  0  0  0  0  0  0  0  0  0
  1  2  1  0
  2  3  2  0
  4  2  1  0
  4  5  1  0
  5  7  1  0
  5  6  1  1
  7  8  2  0
  9 10  1  0
  9  7  1  0
 10 11  1  6
 12 11  1  0
 13 12  2  0
 14 15  2  0
 14 10  1  0
 16 12  1  0
 17 18  1  0
 18 19  2  0
 18 28  1  0
 19 20  1  0
 20 21  2  0
 21 22  1  0
 23 22  1  6
 23 24  1  0
 23 25  1  0
 24 14  1  0
 25 29  1  0
 26 25  2  0
 27 21  1  0
 28 27  2  0
M  END
$$$$
