NDY.pdb
     RDKit          3D

 29 29  0  0  1  0  0  0  0  0999 V2000
    7.4447  -11.9402   18.5050 N   0  0  0  0  0  0  0  0  0  0  0  0
    7.4862  -13.3587   18.5800 C   0  0  0  0  0  0  0  0  0  0  0  0
    7.8092  -13.9855   17.5411 O   0  0  0  0  0  0  0  0  0  0  0  0
    7.1554  -14.0447   19.8538 C   0  0  0  0  0  0  0  0  0  0  0  0
    8.4223  -14.2065   20.6297 C   0  0  2  0  0  0  0  0  0  0  0  0
    9.5520  -14.3128   19.7461 N   0  0  0  0  0  0  0  0  0  0  0  0
    8.3804  -15.2445   21.6698 C   0  0  0  0  0  0  0  0  0  0  0  0
    7.3815  -15.2670   22.4269 O   0  0  0  0  0  0  0  0  0  0  0  0
    9.4262  -16.1865   21.8183 N   0  0  0  0  0  0  0  0  0  0  0  0
    9.4327  -17.1639   22.8654 C   0  0  1  0  0  0  0  0  0  0  0  0
   10.2176  -18.3880   22.5656 C   0  0  0  0  0  0  0  0  0  0  0  0
    9.8760  -18.9110   21.2195 C   0  0  0  0  0  0  0  0  0  0  0  0
    8.7494  -19.4080   20.9755 O   0  0  0  0  0  0  0  0  0  0  0  0
    9.9134  -16.4731   24.1175 C   0  0  0  0  0  0  0  0  0  0  0  0
   10.9710  -15.8361   24.1979 O   0  0  0  0  0  0  0  0  0  0  0  0
   10.7767  -18.8841   20.1510 O   0  0  0  0  0  0  0  0  0  0  0  0
    6.4004  -10.8258   25.1231 O   0  0  0  0  0  0  0  0  0  0  0  0
    6.8253  -12.0389   25.6519 C   0  0  0  0  0  0  0  0  0  0  0  0
    5.9223  -12.9889   26.0173 C   0  0  0  0  0  0  0  0  0  0  0  0
    6.3518  -14.1923   26.5424 C   0  0  0  0  0  0  0  0  0  0  0  0
    7.6840  -14.4651   26.7101 C   0  0  0  0  0  0  0  0  0  0  0  0
    8.1561  -15.7470   27.2693 C   0  0  0  0  0  0  0  0  0  0  0  0
    9.4612  -16.1726   26.5835 C   0  0  2  0  0  0  0  0  0  0  0  0
    9.0865  -16.5739   25.2561 N   0  0  0  0  0  0  0  0  0  0  0  0
   10.0666  -17.2207   27.3935 C   0  0  0  0  0  0  0  0  0  0  0  0
   10.1245  -18.4058   26.9989 O   0  0  0  0  0  0  0  0  0  0  0  0
    8.6018  -13.4935   26.3363 C   0  0  0  0  0  0  0  0  0  0  0  0
    8.1697  -12.2946   25.8130 C   0  0  0  0  0  0  0  0  0  0  0  0
   10.5965  -16.9192   28.6327 O   0  0  0  0  0  0  0  0  0  0  0  0
  1  2  1  0
  2  3  2  0
  4  2  1  0
  4  5  1  0
  5  7  1  0
  5  6  1  6
  7  8  2  0
  9 10  1  0
  9  7  1  0
 10 11  1  6
 12 11  1  0
 13 12  2  0
 14 15  2  0
 14 10  1  0
 16 12  1  0
 17 18  1  0
 18 19  2  0
 18 28  1  0
 19 20  1  0
 20 21  2  0
 21 22  1  0
 23 22  1  1
 23 24  1  0
 23 25  1  0
 24 14  1  0
 25 29  1  0
 26 25  2  0
 27 21  1  0
 28 27  2  0
M  END
$$$$
