NDY.pdb
     RDKit          3D

 29 29  0  0  1  0  0  0  0  0999 V2000
    8.4577  -12.2909   18.4970 N   0  0  0  0  0  0  0  0  0  0  0  0
    7.6915  -13.3871   18.0166 C   0  0  0  0  0  0  0  0  0  0  0  0
    7.3053  -13.3461   16.8226 O   0  0  0  0  0  0  0  0  0  0  0  0
    7.3765  -14.5240   18.9171 C   0  0  0  0  0  0  0  0  0  0  0  0
    7.9848  -14.2343   20.2510 C   0  0  2  0  0  0  0  0  0  0  0  0
    9.0097  -13.2318   20.1377 N   0  0  0  0  0  0  0  0  0  0  0  0
    8.3960  -15.4225   21.0125 C   0  0  0  0  0  0  0  0  0  0  0  0
    7.5338  -16.3104   21.2124 O   0  0  0  0  0  0  0  0  0  0  0  0
    9.7145  -15.5656   21.5068 N   0  0  0  0  0  0  0  0  0  0  0  0
   10.1027  -16.6598   22.3457 C   0  0  1  0  0  0  0  0  0  0  0  0
   11.3497  -17.3489   21.9278 C   0  0  0  0  0  0  0  0  0  0  0  0
   11.0378  -18.5172   21.0676 C   0  0  0  0  0  0  0  0  0  0  0  0
   10.5703  -19.5787   21.5474 O   0  0  0  0  0  0  0  0  0  0  0  0
   10.1909  -16.1312   23.7560 C   0  0  0  0  0  0  0  0  0  0  0  0
   10.9288  -15.2016   24.1053 O   0  0  0  0  0  0  0  0  0  0  0  0
   11.2429  -18.5096   19.6849 O   0  0  0  0  0  0  0  0  0  0  0  0
    6.4605  -10.7904   25.9400 O   0  0  0  0  0  0  0  0  0  0  0  0
    6.8144  -12.1272   26.0800 C   0  0  0  0  0  0  0  0  0  0  0  0
    7.6467  -12.5215   27.0816 C   0  0  0  0  0  0  0  0  0  0  0  0
    7.9943  -13.8519   27.2146 C   0  0  0  0  0  0  0  0  0  0  0  0
    7.5184  -14.8055   26.3535 C   0  0  0  0  0  0  0  0  0  0  0  0
    7.8815  -16.2300   26.4849 C   0  0  0  0  0  0  0  0  0  0  0  0
    9.3581  -16.4337   26.1204 C   0  0  2  0  0  0  0  0  0  0  0  0
    9.3693  -16.7526   24.7198 N   0  0  0  0  0  0  0  0  0  0  0  0
    9.8905  -17.4730   26.9907 C   0  0  0  0  0  0  0  0  0  0  0  0
   10.1370  -18.6231   26.5666 O   0  0  0  0  0  0  0  0  0  0  0  0
    6.6698  -14.3991   25.3332 C   0  0  0  0  0  0  0  0  0  0  0  0
    6.3254  -13.0715   25.2037 C   0  0  0  0  0  0  0  0  0  0  0  0
   10.1370  -17.2021   28.3223 O   0  0  0  0  0  0  0  0  0  0  0  0
  1  2  1  0
  2  3  2  0
  4  2  1  0
  4  5  1  0
  5  7  1  0
  5  6  1  6
  7  8  2  0
  9 10  1  0
  9  7  1  0
 10 11  1  6
 12 11  1  0
 13 12  2  0
 14 15  2  0
 14 10  1  0
 16 12  1  0
 17 18  1  0
 18 19  2  0
 18 28  1  0
 19 20  1  0
 20 21  2  0
 21 22  1  0
 23 22  1  1
 23 24  1  0
 23 25  1  0
 24 14  1  0
 25 29  1  0
 26 25  2  0
 27 21  1  0
 28 27  2  0
M  END
$$$$
