AKS.pdb
     RDKit          3D

 21 20  0  0  1  0  0  0  0  0999 V2000
   10.3677  -20.5511   18.5893 C   0  0  0  0  0  0  0  0  0  0  0  0
   10.2883  -19.1608   18.0079 C   0  0  2  0  0  0  0  0  0  0  0  0
   11.1736  -18.9773   16.8769 N   0  0  0  0  0  0  0  0  0  0  0  0
   10.5817  -18.1225   19.0357 C   0  0  0  0  0  0  0  0  0  0  0  0
   11.7756  -17.8759   19.3573 O   0  0  0  0  0  0  0  0  0  0  0  0
    9.5780  -17.3781   19.6889 N   0  0  0  0  0  0  0  0  0  0  0  0
    9.8436  -16.4364   20.7663 C   0  0  1  0  0  0  0  0  0  0  0  0
    8.6967  -15.4595   20.7717 C   0  0  0  0  0  0  0  0  0  0  0  0
    8.6383  -14.6160   19.5295 C   0  0  0  0  0  0  0  0  0  0  0  0
    7.4198  -13.7016   19.5377 C   0  0  0  0  0  0  0  0  0  0  0  0
    7.2453  -12.9273   18.2737 C   0  0  0  0  0  0  0  0  0  0  0  0
    6.0495  -12.0928   18.4082 N   0  0  0  0  0  0  0  0  0  0  0  0
   10.1244  -17.0863   22.0333 C   0  0  0  0  0  0  0  0  0  0  0  0
    9.4462  -18.0630   22.4144 O   0  0  0  0  0  0  0  0  0  0  0  0
   13.7585  -17.6716   23.4731 O   0  0  0  0  0  0  0  0  0  0  0  0
   12.9324  -17.2737   24.5319 C   0  0  0  0  0  0  0  0  0  0  0  0
   11.4758  -17.3773   24.1493 C   0  0  2  0  0  0  0  0  0  0  0  0
   11.1779  -16.6684   22.9269 N   0  0  0  0  0  0  0  0  0  0  0  0
   10.6775  -16.8551   25.2844 C   0  0  0  0  0  0  0  0  0  0  0  0
    9.8612  -15.9073   25.1631 O   0  0  0  0  0  0  0  0  0  0  0  0
   10.8217  -17.4215   26.5422 O   0  0  0  0  0  0  0  0  0  0  0  0
  2  1  1  1
  3  2  1  0
  4  5  2  0
  4  2  1  0
  6  4  1  0
  7  6  1  0
  7 13  1  0
  7  8  1  1
  9 10  1  0
  9  8  1  0
 11 12  1  0
 11 10  1  0
 13 14  2  0
 15 16  1  0
 17 16  1  1
 18 13  1  0
 18 17  1  0
 19 21  1  0
 19 17  1  0
 20 19  2  0
M  END
$$$$
