AKS.pdb
     RDKit          3D

 21 20  0  0  1  0  0  0  0  0999 V2000
    8.6504  -25.7334   23.9275 C   0  0  0  0  0  0  0  0  0  0  0  0
    8.0974  -24.5605   23.1557 C   0  0  2  0  0  0  0  0  0  0  0  0
    7.9082  -24.8559   21.7509 N   0  0  0  0  0  0  0  0  0  0  0  0
    8.9676  -23.3586   23.2928 C   0  0  0  0  0  0  0  0  0  0  0  0
   10.2218  -23.4845   23.2682 O   0  0  0  0  0  0  0  0  0  0  0  0
    8.4602  -22.0528   23.4527 N   0  0  0  0  0  0  0  0  0  0  0  0
    9.2996  -20.8712   23.5851 C   0  0  1  0  0  0  0  0  0  0  0  0
    8.5780  -19.7537   22.8779 C   0  0  0  0  0  0  0  0  0  0  0  0
    9.2539  -19.3322   21.6038 C   0  0  0  0  0  0  0  0  0  0  0  0
    8.4490  -18.2618   20.8777 C   0  0  0  0  0  0  0  0  0  0  0  0
    8.9727  -17.9402   19.5176 C   0  0  0  0  0  0  0  0  0  0  0  0
    8.1630  -16.8555   18.9588 N   0  0  0  0  0  0  0  0  0  0  0  0
    9.6896  -20.6016   24.9569 C   0  0  0  0  0  0  0  0  0  0  0  0
    8.9188  -20.8640   25.9035 O   0  0  0  0  0  0  0  0  0  0  0  0
   12.4517  -21.9175   28.1045 O   0  0  0  0  0  0  0  0  0  0  0  0
   11.7497  -21.7278   26.9074 C   0  0  0  0  0  0  0  0  0  0  0  0
   11.5647  -20.2582   26.6165 C   0  0  2  0  0  0  0  0  0  0  0  0
   10.9609  -20.0262   25.3253 N   0  0  0  0  0  0  0  0  0  0  0  0
   12.8961  -19.6127   26.7136 C   0  0  0  0  0  0  0  0  0  0  0  0
   13.5565  -19.5725   27.7820 O   0  0  0  0  0  0  0  0  0  0  0  0
   13.4554  -19.0219   25.5903 O   0  0  0  0  0  0  0  0  0  0  0  0
  2  1  1  1
  3  2  1  0
  4  5  2  0
  4  2  1  0
  6  4  1  0
  7  6  1  0
  7 13  1  0
  7  8  1  1
  9 10  1  0
  9  8  1  0
 11 12  1  0
 11 10  1  0
 13 14  2  0
 15 16  1  0
 17 16  1  6
 18 13  1  0
 18 17  1  0
 19 21  1  0
 19 17  1  0
 20 19  2  0
M  END
$$$$
