AKS.pdb
     RDKit          3D

 21 20  0  0  1  0  0  0  0  0999 V2000
    3.1493  -20.5147   21.4680 C   0  0  0  0  0  0  0  0  0  0  0  0
    3.3347  -19.3372   22.3934 C   0  0  2  0  0  0  0  0  0  0  0  0
    2.3553  -18.2939   22.1725 N   0  0  0  0  0  0  0  0  0  0  0  0
    4.7035  -18.7603   22.2740 C   0  0  0  0  0  0  0  0  0  0  0  0
    5.7129  -19.5035   22.4085 O   0  0  0  0  0  0  0  0  0  0  0  0
    4.9456  -17.3961   22.0124 N   0  0  0  0  0  0  0  0  0  0  0  0
    6.2720  -16.7968   22.0143 C   0  0  1  0  0  0  0  0  0  0  0  0
    6.1944  -15.5857   21.1217 C   0  0  0  0  0  0  0  0  0  0  0  0
    7.5245  -14.9147   20.9257 C   0  0  0  0  0  0  0  0  0  0  0  0
    7.4327  -13.7917   19.9004 C   0  0  0  0  0  0  0  0  0  0  0  0
    8.7211  -13.0685   19.6893 C   0  0  0  0  0  0  0  0  0  0  0  0
    8.4671  -11.9262   18.8088 N   0  0  0  0  0  0  0  0  0  0  0  0
    6.7886  -16.5635   23.3504 C   0  0  0  0  0  0  0  0  0  0  0  0
    6.0895  -15.9963   24.2157 O   0  0  0  0  0  0  0  0  0  0  0  0
    8.2394  -18.8950   25.9447 O   0  0  0  0  0  0  0  0  0  0  0  0
    7.9484  -17.5404   26.1507 C   0  0  0  0  0  0  0  0  0  0  0  0
    8.6085  -16.6802   25.1004 C   0  0  2  0  0  0  0  0  0  0  0  0
    8.1114  -16.9565   23.7730 N   0  0  0  0  0  0  0  0  0  0  0  0
   10.0705  -16.9110   25.1883 C   0  0  0  0  0  0  0  0  0  0  0  0
   10.7672  -17.2465   24.1976 O   0  0  0  0  0  0  0  0  0  0  0  0
   10.7174  -16.7560   26.4054 O   0  0  0  0  0  0  0  0  0  0  0  0
  2  1  1  6
  3  2  1  0
  4  5  2  0
  4  2  1  0
  6  4  1  0
  7  6  1  0
  7 13  1  0
  7  8  1  1
  9 10  1  0
  9  8  1  0
 11 12  1  0
 11 10  1  0
 13 14  2  0
 15 16  1  0
 17 16  1  1
 18 13  1  0
 18 17  1  0
 19 21  1  0
 19 17  1  0
 20 19  2  0
M  END
$$$$
