AKS.pdb
     RDKit          3D

 21 20  0  0  1  0  0  0  0  0999 V2000
    8.0118  -20.9387   18.1835 C   0  0  0  0  0  0  0  0  0  0  0  0
    8.1519  -19.7208   17.3035 C   0  0  2  0  0  0  0  0  0  0  0  0
    8.8061  -20.0134   16.0454 N   0  0  0  0  0  0  0  0  0  0  0  0
    8.8887  -18.6278   17.9985 C   0  0  0  0  0  0  0  0  0  0  0  0
   10.1239  -18.4754   17.7973 O   0  0  0  0  0  0  0  0  0  0  0  0
    8.2719  -17.7286   18.8924 N   0  0  0  0  0  0  0  0  0  0  0  0
    8.9949  -16.7110   19.6409 C   0  0  1  0  0  0  0  0  0  0  0  0
    7.9887  -15.6484   19.9982 C   0  0  0  0  0  0  0  0  0  0  0  0
    8.5940  -14.4946   20.7468 C   0  0  0  0  0  0  0  0  0  0  0  0
    7.5712  -13.3909   20.9845 C   0  0  0  0  0  0  0  0  0  0  0  0
    8.1164  -12.2231   21.7373 C   0  0  0  0  0  0  0  0  0  0  0  0
    7.0413  -11.2431   21.9053 N   0  0  0  0  0  0  0  0  0  0  0  0
    9.7581  -17.2551   20.7492 C   0  0  0  0  0  0  0  0  0  0  0  0
    9.2770  -18.1465   21.4794 O   0  0  0  0  0  0  0  0  0  0  0  0
   14.0407  -18.4355   22.5863 O   0  0  0  0  0  0  0  0  0  0  0  0
   13.2885  -17.7937   21.5942 C   0  0  0  0  0  0  0  0  0  0  0  0
   11.8915  -17.4964   22.0828 C   0  0  2  0  0  0  0  0  0  0  0  0
   11.0932  -16.8227   21.0855 N   0  0  0  0  0  0  0  0  0  0  0  0
   12.0134  -16.6830   23.3165 C   0  0  0  0  0  0  0  0  0  0  0  0
   11.5455  -15.5207   23.4142 O   0  0  0  0  0  0  0  0  0  0  0  0
   12.6677  -17.2069   24.4215 O   0  0  0  0  0  0  0  0  0  0  0  0
  2  1  1  1
  3  2  1  0
  4  5  2  0
  4  2  1  0
  6  4  1  0
  7  6  1  0
  7 13  1  0
  7  8  1  1
  9 10  1  0
  9  8  1  0
 11 12  1  0
 11 10  1  0
 13 14  2  0
 15 16  1  0
 17 16  1  6
 18 13  1  0
 18 17  1  0
 19 21  1  0
 19 17  1  0
 20 19  2  0
M  END
$$$$
