AKS.pdb
     RDKit          3D

 21 20  0  0  1  0  0  0  0  0999 V2000
   10.9071  -23.7925   19.2500 C   0  0  0  0  0  0  0  0  0  0  0  0
   10.9144  -24.4455   20.6104 C   0  0  2  0  0  0  0  0  0  0  0  0
   10.1876  -25.6976   20.6325 N   0  0  0  0  0  0  0  0  0  0  0  0
   10.3610  -23.5371   21.6541 C   0  0  0  0  0  0  0  0  0  0  0  0
   11.0413  -22.5555   22.0580 O   0  0  0  0  0  0  0  0  0  0  0  0
    9.0878  -23.7130   22.2337 N   0  0  0  0  0  0  0  0  0  0  0  0
    8.4584  -22.7369   23.1109 C   0  0  1  0  0  0  0  0  0  0  0  0
    6.9724  -22.9582   22.9991 C   0  0  0  0  0  0  0  0  0  0  0  0
    6.2053  -21.6870   22.7682 C   0  0  0  0  0  0  0  0  0  0  0  0
    4.7110  -21.9565   22.6443 C   0  0  0  0  0  0  0  0  0  0  0  0
    3.8938  -20.7206   22.4645 C   0  0  0  0  0  0  0  0  0  0  0  0
    2.5219  -21.1202   22.1440 N   0  0  0  0  0  0  0  0  0  0  0  0
    8.9986  -22.7512   24.4579 C   0  0  0  0  0  0  0  0  0  0  0  0
    9.2462  -23.8302   25.0355 O   0  0  0  0  0  0  0  0  0  0  0  0
   10.8580  -19.4085   26.2035 O   0  0  0  0  0  0  0  0  0  0  0  0
   11.1602  -20.7283   26.5622 C   0  0  0  0  0  0  0  0  0  0  0  0
    9.9282  -21.5989   26.5064 C   0  0  2  0  0  0  0  0  0  0  0  0
    9.2840  -21.5559   25.2146 N   0  0  0  0  0  0  0  0  0  0  0  0
    9.0126  -21.1467   27.5815 C   0  0  0  0  0  0  0  0  0  0  0  0
    7.8942  -20.6236   27.3474 O   0  0  0  0  0  0  0  0  0  0  0  0
    9.3859  -21.2977   28.9087 O   0  0  0  0  0  0  0  0  0  0  0  0
  2  1  1  6
  3  2  1  0
  4  5  2  0
  4  2  1  0
  6  4  1  0
  7  6  1  0
  7 13  1  0
  7  8  1  1
  9 10  1  0
  9  8  1  0
 11 12  1  0
 11 10  1  0
 13 14  2  0
 15 16  1  0
 17 16  1  6
 18 13  1  0
 18 17  1  0
 19 21  1  0
 19 17  1  0
 20 19  2  0
M  END
$$$$
