AKS.pdb
     RDKit          3D

 21 20  0  0  1  0  0  0  0  0999 V2000
    8.3517  -12.5207   19.5901 C   0  0  0  0  0  0  0  0  0  0  0  0
    8.0288  -13.9943   19.6279 C   0  0  2  0  0  0  0  0  0  0  0  0
    6.9856  -14.3613   18.6933 N   0  0  0  0  0  0  0  0  0  0  0  0
    7.6381  -14.4318   20.9978 C   0  0  0  0  0  0  0  0  0  0  0  0
    6.4333  -14.3575   21.3618 O   0  0  0  0  0  0  0  0  0  0  0  0
    8.5589  -14.9379   21.9381 N   0  0  0  0  0  0  0  0  0  0  0  0
    8.1753  -15.4725   23.2363 C   0  0  1  0  0  0  0  0  0  0  0  0
    8.7674  -16.8552   23.3203 C   0  0  0  0  0  0  0  0  0  0  0  0
    8.4712  -17.5425   24.6233 C   0  0  0  0  0  0  0  0  0  0  0  0
    8.9938  -18.9735   24.6261 C   0  0  0  0  0  0  0  0  0  0  0  0
    8.5588  -19.7662   25.8135 C   0  0  0  0  0  0  0  0  0  0  0  0
    9.1277  -21.1109   25.7010 N   0  0  0  0  0  0  0  0  0  0  0  0
    8.4965  -14.5810   24.3358 C   0  0  0  0  0  0  0  0  0  0  0  0
    9.6505  -14.1235   24.4710 O   0  0  0  0  0  0  0  0  0  0  0  0
    5.9365  -12.0439   25.9394 O   0  0  0  0  0  0  0  0  0  0  0  0
    6.7268  -12.5421   26.9830 C   0  0  0  0  0  0  0  0  0  0  0  0
    7.9018  -13.3229   26.4456 C   0  0  2  0  0  0  0  0  0  0  0  0
    7.5372  -14.1648   25.3303 N   0  0  0  0  0  0  0  0  0  0  0  0
    8.4575  -14.1207   27.5652 C   0  0  0  0  0  0  0  0  0  0  0  0
    8.5496  -15.3735   27.5279 O   0  0  0  0  0  0  0  0  0  0  0  0
    8.9003  -13.4780   28.7116 O   0  0  0  0  0  0  0  0  0  0  0  0
  2  1  1  1
  3  2  1  0
  4  5  2  0
  4  2  1  0
  6  4  1  0
  7  6  1  0
  7 13  1  0
  7  8  1  1
  9 10  1  0
  9  8  1  0
 11 12  1  0
 11 10  1  0
 13 14  2  0
 15 16  1  0
 17 16  1  1
 18 13  1  0
 18 17  1  0
 19 21  1  0
 19 17  1  0
 20 19  2  0
M  END
$$$$
