AKS.pdb
     RDKit          3D

 21 20  0  0  1  0  0  0  0  0999 V2000
   10.9858  -16.9155   13.3403 C   0  0  0  0  0  0  0  0  0  0  0  0
    9.7946  -16.1642   13.8823 C   0  0  2  0  0  0  0  0  0  0  0  0
    9.4918  -14.9719   13.1185 N   0  0  0  0  0  0  0  0  0  0  0  0
    9.9874  -15.7958   15.3133 C   0  0  0  0  0  0  0  0  0  0  0  0
   10.4318  -14.6550   15.6144 O   0  0  0  0  0  0  0  0  0  0  0  0
    9.6952  -16.6692   16.3809 N   0  0  0  0  0  0  0  0  0  0  0  0
    9.9744  -16.3609   17.7757 C   0  0  1  0  0  0  0  0  0  0  0  0
    9.0414  -17.2127   18.5961 C   0  0  0  0  0  0  0  0  0  0  0  0
    9.3048  -17.1175   20.0725 C   0  0  0  0  0  0  0  0  0  0  0  0
    8.4611  -18.1186   20.8514 C   0  0  0  0  0  0  0  0  0  0  0  0
    8.6389  -18.0270   22.3304 C   0  0  0  0  0  0  0  0  0  0  0  0
    7.7024  -18.9578   22.9637 N   0  0  0  0  0  0  0  0  0  0  0  0
   11.3829  -16.4658   18.1103 C   0  0  0  0  0  0  0  0  0  0  0  0
   12.0495  -17.4627   17.7626 O   0  0  0  0  0  0  0  0  0  0  0  0
   14.5250  -14.2380   17.5397 O   0  0  0  0  0  0  0  0  0  0  0  0
   14.3058  -14.3773   18.9161 C   0  0  0  0  0  0  0  0  0  0  0  0
   13.4926  -15.6144   19.2113 C   0  0  2  0  0  0  0  0  0  0  0  0
   12.1034  -15.4570   18.8492 N   0  0  0  0  0  0  0  0  0  0  0  0
   13.6434  -15.9139   20.6557 C   0  0  0  0  0  0  0  0  0  0  0  0
   12.6656  -15.9818   21.4422 O   0  0  0  0  0  0  0  0  0  0  0  0
   14.9078  -16.1318   21.1825 O   0  0  0  0  0  0  0  0  0  0  0  0
  2  1  1  6
  3  2  1  0
  4  5  2  0
  4  2  1  0
  6  4  1  0
  7  6  1  0
  7 13  1  0
  7  8  1  1
  9 10  1  0
  9  8  1  0
 11 12  1  0
 11 10  1  0
 13 14  2  0
 15 16  1  0
 17 16  1  1
 18 13  1  0
 18 17  1  0
 19 21  1  0
 19 17  1  0
 20 19  2  0
M  END
$$$$
