AKS.pdb
     RDKit          3D

 21 20  0  0  1  0  0  0  0  0999 V2000
    7.0409  -12.7639   18.3143 C   0  0  0  0  0  0  0  0  0  0  0  0
    8.3764  -13.4634   18.3822 C   0  0  2  0  0  0  0  0  0  0  0  0
    8.6853  -14.1954   17.1718 N   0  0  0  0  0  0  0  0  0  0  0  0
    8.4486  -14.3883   19.5484 C   0  0  0  0  0  0  0  0  0  0  0  0
    8.1945  -13.9605   20.7068 O   0  0  0  0  0  0  0  0  0  0  0  0
    8.7933  -15.7506   19.4325 N   0  0  0  0  0  0  0  0  0  0  0  0
    8.7830  -16.6837   20.5494 C   0  0  1  0  0  0  0  0  0  0  0  0
    9.0507  -18.0477   19.9685 C   0  0  0  0  0  0  0  0  0  0  0  0
    9.0445  -19.1378   21.0028 C   0  0  0  0  0  0  0  0  0  0  0  0
    9.2285  -20.5085   20.3639 C   0  0  0  0  0  0  0  0  0  0  0  0
    9.1268  -21.6383   21.3339 C   0  0  0  0  0  0  0  0  0  0  0  0
    9.4262  -22.8825   20.6220 N   0  0  0  0  0  0  0  0  0  0  0  0
    9.6552  -16.2789   21.6366 C   0  0  0  0  0  0  0  0  0  0  0  0
   10.8715  -16.0775   21.4386 O   0  0  0  0  0  0  0  0  0  0  0  0
    8.0951  -15.2374   25.3641 O   0  0  0  0  0  0  0  0  0  0  0  0
    9.3112  -14.6551   24.9846 C   0  0  0  0  0  0  0  0  0  0  0  0
   10.0589  -15.5447   24.0211 C   0  0  2  0  0  0  0  0  0  0  0  0
    9.2004  -16.0828   22.9921 N   0  0  0  0  0  0  0  0  0  0  0  0
   10.6953  -16.6250   24.8127 C   0  0  0  0  0  0  0  0  0  0  0  0
   10.4254  -17.8409   24.6450 O   0  0  0  0  0  0  0  0  0  0  0  0
   11.6309  -16.3029   25.7847 O   0  0  0  0  0  0  0  0  0  0  0  0
  2  1  1  6
  3  2  1  0
  4  5  2  0
  4  2  1  0
  6  4  1  0
  7  6  1  0
  7 13  1  0
  7  8  1  6
  9 10  1  0
  9  8  1  0
 11 12  1  0
 11 10  1  0
 13 14  2  0
 15 16  1  0
 17 16  1  1
 18 13  1  0
 18 17  1  0
 19 21  1  0
 19 17  1  0
 20 19  2  0
M  END
$$$$
