AKS.pdb
     RDKit          3D

 21 20  0  0  1  0  0  0  0  0999 V2000
    8.7832  -12.2863   19.6990 C   0  0  0  0  0  0  0  0  0  0  0  0
    8.0990  -13.5866   19.3551 C   0  0  2  0  0  0  0  0  0  0  0  0
    6.7995  -13.3901   18.7476 N   0  0  0  0  0  0  0  0  0  0  0  0
    7.9547  -14.4603   20.5536 C   0  0  0  0  0  0  0  0  0  0  0  0
    6.9687  -14.3112   21.3251 O   0  0  0  0  0  0  0  0  0  0  0  0
    8.8789  -15.4716   20.8871 N   0  0  0  0  0  0  0  0  0  0  0  0
    8.6668  -16.4393   21.9534 C   0  0  1  0  0  0  0  0  0  0  0  0
    8.8097  -17.8021   21.3275 C   0  0  0  0  0  0  0  0  0  0  0  0
    7.6690  -18.1510   20.4137 C   0  0  0  0  0  0  0  0  0  0  0  0
    7.8776  -19.5122   19.7622 C   0  0  0  0  0  0  0  0  0  0  0  0
    6.8858  -19.8198   18.6902 C   0  0  0  0  0  0  0  0  0  0  0  0
    7.1888  -21.1476   18.1520 N   0  0  0  0  0  0  0  0  0  0  0  0
    9.4944  -16.1909   23.1196 C   0  0  0  0  0  0  0  0  0  0  0  0
   10.7127  -15.9460   22.9979 O   0  0  0  0  0  0  0  0  0  0  0  0
   10.0125  -15.2073   27.8626 O   0  0  0  0  0  0  0  0  0  0  0  0
    9.1404  -15.3953   26.7829 C   0  0  0  0  0  0  0  0  0  0  0  0
    9.8544  -16.0343   25.6164 C   0  0  2  0  0  0  0  0  0  0  0  0
    8.9906  -16.2065   24.4719 N   0  0  0  0  0  0  0  0  0  0  0  0
   10.3982  -17.3326   26.0825 C   0  0  0  0  0  0  0  0  0  0  0  0
    9.9867  -18.4379   25.6484 O   0  0  0  0  0  0  0  0  0  0  0  0
   11.4040  -17.3518   27.0373 O   0  0  0  0  0  0  0  0  0  0  0  0
  2  1  1  1
  3  2  1  0
  4  5  2  0
  4  2  1  0
  6  4  1  0
  7  6  1  0
  7 13  1  0
  7  8  1  6
  9 10  1  0
  9  8  1  0
 11 12  1  0
 11 10  1  0
 13 14  2  0
 15 16  1  0
 17 16  1  1
 18 13  1  0
 18 17  1  0
 19 21  1  0
 19 17  1  0
 20 19  2  0
M  END
$$$$
