RMK.pdb
     RDKit          3D

 29 28  0  0  1  0  0  0  0  0999 V2000
    9.1168  -16.0730   14.9814 N   0  0  0  0  0  0  0  0  0  0  0  0
    8.4991  -15.0772   15.7817 C   0  0  0  0  0  0  0  0  0  0  0  0
    7.9330  -14.0349   15.2534 N   0  0  0  0  0  0  0  0  0  0  0  0
    8.4786  -15.1887   17.1957 N   0  0  0  0  0  0  0  0  0  0  0  0
    7.5195  -16.0833   17.8484 C   0  0  0  0  0  0  0  0  0  0  0  0
    8.1903  -16.5734   19.0929 C   0  0  0  0  0  0  0  0  0  0  0  0
    7.6257  -15.9480   20.3066 C   0  0  0  0  0  0  0  0  0  0  0  0
    8.0986  -14.5727   20.6666 C   0  0  2  0  0  0  0  0  0  0  0  0
    9.1368  -14.0542   19.7922 N   0  0  0  0  0  0  0  0  0  0  0  0
    8.5668  -14.6084   22.0693 C   0  0  0  0  0  0  0  0  0  0  0  0
    9.7741  -14.8036   22.2792 O   0  0  0  0  0  0  0  0  0  0  0  0
    7.5077  -13.2536   15.7769 C   0  0  0  0  0  0  0  0  0  0  0  0
    5.7957  -10.9288   28.5810 S   0  0  0  0  0  0  0  0  0  0  0  0
    5.4896  -11.6379   26.9538 C   0  0  0  0  0  0  0  0  0  0  0  0
    6.9689  -12.5974   26.3888 C   0  0  0  0  0  0  0  0  0  0  0  0
    6.7658  -12.9929   24.9481 C   0  0  1  0  0  0  0  0  0  0  0  0
    7.8986  -13.8347   24.3995 N   0  0  0  0  0  0  0  0  0  0  0  0
    7.6557  -14.4234   23.1214 C   0  0  0  0  0  0  0  0  0  0  0  0
    8.3534  -14.8697   25.3442 O   0  0  0  0  0  0  0  0  0  0  0  0
    8.6485  -14.5724   26.5384 N   0  0  0  0  0  0  0  0  0  0  0  0
    8.4499  -16.1969   24.8830 C   0  0  1  0  0  0  0  0  0  0  0  0
    8.8412  -17.3271   25.6707 C   0  0  0  0  0  0  0  0  0  0  0  0
    8.3285  -18.6482   25.1644 C   0  0  0  0  0  0  0  0  0  0  0  0
    7.7014  -19.4029   26.3096 C   0  0  0  0  0  0  0  0  0  0  0  0
    7.3037  -20.7579   25.7495 C   0  0  0  0  0  0  0  0  0  0  0  0
    6.7421  -21.6138   26.8639 N   0  0  0  0  0  0  0  0  0  0  0  0
    6.2957  -22.8785   26.3628 C   0  0  0  0  0  0  0  0  0  0  0  0
   10.2856  -17.3273   25.9858 O   0  0  0  0  0  0  0  0  0  0  0  0
   10.7437  -17.3253   27.2920 O   0  0  0  0  0  0  0  0  0  0  0  0
  1  2  1  0
  2  3  2  0
  4  5  1  0
  4  2  1  0
  6  5  1  0
  7  6  1  0
  8  7  1  0
  8  9  1  6
 10  8  1  0
 11 10  2  0
 13 12  1  0
 14 13  1  0
 15 14  1  0
 16 15  1  6
 16 17  1  0
 17 10  1  0
 18 16  1  0
 18 19  2  0
 20 18  1  0
 21 20  1  0
 21 22  1  1
 23 22  1  0
 23 24  1  0
 24 25  1  0
 25 26  1  0
 27 21  1  0
 28 27  1  0
 29 27  2  0
M  END
$$$$
