RMK.pdb
     RDKit          3D

 29 28  0  0  1  0  0  0  0  0999 V2000
   10.4282  -19.1003   17.1766 N   0  0  0  0  0  0  0  0  0  0  0  0
    9.1787  -19.7717   17.1359 C   0  0  0  0  0  0  0  0  0  0  0  0
    9.0540  -20.9436   16.5907 N   0  0  0  0  0  0  0  0  0  0  0  0
    8.0161  -19.1811   17.6943 N   0  0  0  0  0  0  0  0  0  0  0  0
    7.9766  -17.7399   17.9541 C   0  0  0  0  0  0  0  0  0  0  0  0
    8.7401  -17.5263   19.2231 C   0  0  0  0  0  0  0  0  0  0  0  0
    7.8802  -16.9970   20.3018 C   0  0  0  0  0  0  0  0  0  0  0  0
    7.8302  -15.5113   20.4878 C   0  0  2  0  0  0  0  0  0  0  0  0
    8.4936  -14.7587   19.4365 N   0  0  0  0  0  0  0  0  0  0  0  0
    8.4236  -15.2005   21.8066 C   0  0  0  0  0  0  0  0  0  0  0  0
    9.6432  -15.3738   21.9558 O   0  0  0  0  0  0  0  0  0  0  0  0
    8.1853  -21.4999   16.5569 C   0  0  0  0  0  0  0  0  0  0  0  0
    5.9923  -10.7803   26.6390 S   0  0  0  0  0  0  0  0  0  0  0  0
    6.0899  -12.4552   27.2944 C   0  0  0  0  0  0  0  0  0  0  0  0
    7.4186  -13.4042   26.4212 C   0  0  0  0  0  0  0  0  0  0  0  0
    6.9802  -13.6516   25.0001 C   0  0  1  0  0  0  0  0  0  0  0  0
    7.9928  -14.4398   24.1964 N   0  0  0  0  0  0  0  0  0  0  0  0
    7.6136  -14.7223   22.8489 C   0  0  0  0  0  0  0  0  0  0  0  0
    8.4126  -15.6838   24.8649 O   0  0  0  0  0  0  0  0  0  0  0  0
    7.6581  -16.6998   24.8759 N   0  0  0  0  0  0  0  0  0  0  0  0
    9.6745  -15.7116   25.4896 C   0  0  1  0  0  0  0  0  0  0  0  0
   10.2742  -16.8560   26.1073 C   0  0  0  0  0  0  0  0  0  0  0  0
   11.6691  -17.1620   25.6328 C   0  0  0  0  0  0  0  0  0  0  0  0
   12.1874  -18.3670   26.3767 C   0  0  0  0  0  0  0  0  0  0  0  0
   12.9537  -19.1909   25.3560 C   0  0  0  0  0  0  0  0  0  0  0  0
   13.4778  -20.4460   26.0191 N   0  0  0  0  0  0  0  0  0  0  0  0
   14.3393  -21.1708   25.1346 C   0  0  0  0  0  0  0  0  0  0  0  0
   10.1315  -16.8475   27.5787 O   0  0  0  0  0  0  0  0  0  0  0  0
   10.2171  -18.0114   28.3231 O   0  0  0  0  0  0  0  0  0  0  0  0
  1  2  1  0
  2  3  2  0
  4  5  1  0
  4  2  1  0
  6  5  1  0
  7  6  1  0
  8  7  1  0
  8  9  1  6
 10  8  1  0
 11 10  2  0
 13 12  1  0
 14 13  1  0
 15 14  1  0
 16 15  1  6
 16 17  1  0
 17 10  1  0
 18 16  1  0
 18 19  2  0
 20 18  1  0
 21 20  1  0
 21 22  1  1
 23 22  1  0
 23 24  1  0
 24 25  1  0
 25 26  1  0
 27 21  1  0
 28 27  1  0
 29 27  2  0
M  END
$$$$
