RMK.pdb
     RDKit          3D

 29 28  0  0  1  0  0  0  0  0999 V2000
    6.3754  -21.3155   19.6937 N   0  0  0  0  0  0  0  0  0  0  0  0
    7.7356  -20.9563   19.5075 C   0  0  0  0  0  0  0  0  0  0  0  0
    8.6378  -21.8412   19.2092 N   0  0  0  0  0  0  0  0  0  0  0  0
    8.1578  -19.6087   19.6413 N   0  0  0  0  0  0  0  0  0  0  0  0
    7.1992  -18.5744   20.0383 C   0  0  0  0  0  0  0  0  0  0  0  0
    7.9675  -17.2911   20.0799 C   0  0  0  0  0  0  0  0  0  0  0  0
    7.0891  -16.1304   20.3337 C   0  0  0  0  0  0  0  0  0  0  0  0
    7.7245  -14.7750   20.3928 C   0  0  2  0  0  0  0  0  0  0  0  0
    8.6342  -14.4974   19.2942 N   0  0  0  0  0  0  0  0  0  0  0  0
    8.4235  -14.6596   21.6913 C   0  0  0  0  0  0  0  0  0  0  0  0
    9.6472  -14.8630   21.7182 O   0  0  0  0  0  0  0  0  0  0  0  0
    9.6399  -21.6476   19.0555 C   0  0  0  0  0  0  0  0  0  0  0  0
    5.2749  -11.9966   27.0414 S   0  0  0  0  0  0  0  0  0  0  0  0
    7.0351  -11.7702   27.3496 C   0  0  0  0  0  0  0  0  0  0  0  0
    8.0120  -13.0452   26.4285 C   0  0  0  0  0  0  0  0  0  0  0  0
    7.4752  -13.1414   25.0229 C   0  0  1  0  0  0  0  0  0  0  0  0
    8.2080  -14.1618   24.1775 N   0  0  0  0  0  0  0  0  0  0  0  0
    7.7054  -14.3270   22.8511 C   0  0  0  0  0  0  0  0  0  0  0  0
    8.3191  -15.4764   24.8333 O   0  0  0  0  0  0  0  0  0  0  0  0
    7.3121  -16.2358   24.9372 N   0  0  0  0  0  0  0  0  0  0  0  0
    9.5746  -15.8645   25.3398 C   0  0  1  0  0  0  0  0  0  0  0  0
    9.8791  -17.1322   25.9323 C   0  0  0  0  0  0  0  0  0  0  0  0
   11.0432  -17.8506   25.3051 C   0  0  0  0  0  0  0  0  0  0  0  0
   10.5327  -18.7426   24.2015 C   0  0  0  0  0  0  0  0  0  0  0  0
   11.7554  -19.4355   23.6246 C   0  0  0  0  0  0  0  0  0  0  0  0
   11.3235  -20.3676   22.5136 N   0  0  0  0  0  0  0  0  0  0  0  0
   12.4584  -20.9023   21.8237 C   0  0  0  0  0  0  0  0  0  0  0  0
    9.9399  -17.0697   27.4081 O   0  0  0  0  0  0  0  0  0  0  0  0
    9.6447  -15.9066   28.0982 O   0  0  0  0  0  0  0  0  0  0  0  0
  1  2  1  0
  2  3  2  0
  4  5  1  0
  4  2  1  0
  6  5  1  0
  7  6  1  0
  8  7  1  0
  8  9  1  6
 10  8  1  0
 11 10  2  0
 13 12  1  0
 14 13  1  0
 15 14  1  0
 16 15  1  6
 16 17  1  0
 17 10  1  0
 18 16  1  0
 18 19  2  0
 20 18  1  0
 21 20  1  0
 21 22  1  1
 23 22  1  0
 23 24  1  0
 24 25  1  0
 25 26  1  0
 27 21  1  0
 28 27  1  0
 29 27  2  0
M  END
$$$$
