RMK.pdb
     RDKit          3D

 29 28  0  0  1  0  0  0  0  0999 V2000
    7.5672  -20.0711   17.8375 N   0  0  0  0  0  0  0  0  0  0  0  0
    8.6369  -19.2795   18.3301 C   0  0  0  0  0  0  0  0  0  0  0  0
    9.8710  -19.5318   18.0147 N   0  0  0  0  0  0  0  0  0  0  0  0
    8.3918  -18.1775   19.1891 N   0  0  0  0  0  0  0  0  0  0  0  0
    7.0843  -17.5170   19.1820 C   0  0  0  0  0  0  0  0  0  0  0  0
    7.2735  -16.2308   18.4412 C   0  0  0  0  0  0  0  0  0  0  0  0
    8.1880  -15.3139   19.1526 C   0  0  0  0  0  0  0  0  0  0  0  0
    7.6026  -14.0723   19.7529 C   0  0  2  0  0  0  0  0  0  0  0  0
    7.7418  -12.8886   18.9217 N   0  0  0  0  0  0  0  0  0  0  0  0
    8.2407  -13.8631   21.0708 C   0  0  0  0  0  0  0  0  0  0  0  0
    9.4803  -13.8536   21.1267 O   0  0  0  0  0  0  0  0  0  0  0  0
   10.6946  -19.0071   18.3487 C   0  0  0  0  0  0  0  0  0  0  0  0
    5.2173  -12.4743   27.7355 S   0  0  0  0  0  0  0  0  0  0  0  0
    6.3927  -11.4630   26.8189 C   0  0  0  0  0  0  0  0  0  0  0  0
    7.5458  -12.5435   25.8540 C   0  0  0  0  0  0  0  0  0  0  0  0
    7.0406  -12.6438   24.4371 C   0  0  2  0  0  0  0  0  0  0  0  0
    7.8819  -13.5580   23.5714 N   0  0  0  0  0  0  0  0  0  0  0  0
    7.4493  -13.6808   22.2161 C   0  0  0  0  0  0  0  0  0  0  0  0
    8.0622  -14.8973   24.1581 O   0  0  0  0  0  0  0  0  0  0  0  0
    7.1143  -15.7358   24.1621 N   0  0  0  0  0  0  0  0  0  0  0  0
    9.3163  -15.2188   24.7125 C   0  0  1  0  0  0  0  0  0  0  0  0
    9.7003  -16.5025   25.2178 C   0  0  0  0  0  0  0  0  0  0  0  0
   10.7961  -17.1778   24.4381 C   0  0  0  0  0  0  0  0  0  0  0  0
   10.3691  -18.5865   24.1106 C   0  0  0  0  0  0  0  0  0  0  0  0
   11.5150  -19.1985   23.3232 C   0  0  0  0  0  0  0  0  0  0  0  0
   11.1470  -20.6100   22.9209 N   0  0  0  0  0  0  0  0  0  0  0  0
   12.1340  -21.1668   22.0457 C   0  0  0  0  0  0  0  0  0  0  0  0
    9.9241  -16.4941   26.6791 O   0  0  0  0  0  0  0  0  0  0  0  0
    9.8457  -15.3267   27.4188 O   0  0  0  0  0  0  0  0  0  0  0  0
  1  2  1  0
  2  3  2  0
  4  5  1  0
  4  2  1  0
  6  5  1  0
  7  6  1  0
  8  7  1  0
  8  9  1  6
 10  8  1  0
 11 10  2  0
 13 12  1  0
 14 13  1  0
 15 14  1  0
 16 15  1  6
 16 17  1  0
 17 10  1  0
 18 16  1  0
 18 19  2  0
 20 18  1  0
 21 20  1  0
 21 22  1  1
 23 22  1  0
 23 24  1  0
 24 25  1  0
 25 26  1  0
 27 21  1  0
 28 27  1  0
 29 27  2  0
M  END
$$$$
