RMK.pdb
     RDKit          3D

 29 28  0  0  1  0  0  0  0  0999 V2000
    7.4392  -13.0355   15.7081 N   0  0  0  0  0  0  0  0  0  0  0  0
    8.5116  -13.9021   16.0433 C   0  0  0  0  0  0  0  0  0  0  0  0
    9.0609  -14.6780   15.1587 N   0  0  0  0  0  0  0  0  0  0  0  0
    9.0238  -13.9493   17.3653 N   0  0  0  0  0  0  0  0  0  0  0  0
    8.3266  -13.2519   18.4486 C   0  0  0  0  0  0  0  0  0  0  0  0
    7.8429  -14.3157   19.3830 C   0  0  0  0  0  0  0  0  0  0  0  0
    8.8753  -14.6939   20.3701 C   0  0  0  0  0  0  0  0  0  0  0  0
    8.5384  -15.7739   21.3522 C   0  0  2  0  0  0  0  0  0  0  0  0
    7.1243  -16.1034   21.4103 N   0  0  0  0  0  0  0  0  0  0  0  0
    9.0299  -15.3467   22.6803 C   0  0  0  0  0  0  0  0  0  0  0  0
   10.2423  -15.1165   22.8101 O   0  0  0  0  0  0  0  0  0  0  0  0
    9.8230  -15.3497   15.3408 C   0  0  0  0  0  0  0  0  0  0  0  0
    5.2861  -12.0763   26.9261 S   0  0  0  0  0  0  0  0  0  0  0  0
    6.3328  -11.1736   25.7712 C   0  0  0  0  0  0  0  0  0  0  0  0
    7.4998  -12.3368   24.9265 C   0  0  0  0  0  0  0  0  0  0  0  0
    7.3787  -13.6942   25.5713 C   0  0  2  0  0  0  0  0  0  0  0  0
    8.3980  -14.6881   25.0556 N   0  0  0  0  0  0  0  0  0  0  0  0
    8.1342  -15.2100   23.7528 C   0  0  0  0  0  0  0  0  0  0  0  0
    8.6434  -15.7970   25.9941 O   0  0  0  0  0  0  0  0  0  0  0  0
    8.7786  -15.5792   27.2334 N   0  0  0  0  0  0  0  0  0  0  0  0
    8.7223  -17.1040   25.4753 C   0  0  1  0  0  0  0  0  0  0  0  0
    8.9117  -18.2967   26.2451 C   0  0  0  0  0  0  0  0  0  0  0  0
    8.0023  -19.4344   25.8669 C   0  0  0  0  0  0  0  0  0  0  0  0
    7.1476  -19.7957   27.0557 C   0  0  0  0  0  0  0  0  0  0  0  0
    7.4869  -21.2378   27.3918 C   0  0  0  0  0  0  0  0  0  0  0  0
    6.5824  -21.7171   28.5062 N   0  0  0  0  0  0  0  0  0  0  0  0
    6.9972  -23.0007   28.9861 C   0  0  0  0  0  0  0  0  0  0  0  0
   10.3349  -18.6806   26.3569 O   0  0  0  0  0  0  0  0  0  0  0  0
   11.2815  -18.2307   25.4527 O   0  0  0  0  0  0  0  0  0  0  0  0
  1  2  1  0
  2  3  2  0
  4  5  1  0
  4  2  1  0
  6  5  1  0
  7  6  1  0
  8  7  1  0
  8  9  1  1
 10  8  1  0
 11 10  2  0
 13 12  1  0
 14 13  1  0
 15 14  1  0
 16 15  1  6
 16 17  1  0
 17 10  1  0
 18 16  1  0
 18 19  2  0
 20 18  1  0
 21 20  1  0
 21 22  1  1
 23 22  1  0
 23 24  1  0
 24 25  1  0
 25 26  1  0
 27 21  1  0
 28 27  1  0
 29 27  2  0
M  END
$$$$
