RMK.pdb
     RDKit          3D

 29 28  0  0  1  0  0  0  0  0999 V2000
    8.8112  -14.8543   15.5722 N   0  0  0  0  0  0  0  0  0  0  0  0
    8.4703  -13.8205   16.4826 C   0  0  0  0  0  0  0  0  0  0  0  0
    7.9240  -12.7132   16.0806 N   0  0  0  0  0  0  0  0  0  0  0  0
    8.7158  -13.9639   17.8723 N   0  0  0  0  0  0  0  0  0  0  0  0
    8.3689  -15.2130   18.5547 C   0  0  0  0  0  0  0  0  0  0  0  0
    7.3886  -14.8434   19.6231 C   0  0  0  0  0  0  0  0  0  0  0  0
    6.8655  -16.0325   20.3270 C   0  0  0  0  0  0  0  0  0  0  0  0
    7.8100  -16.7936   21.2063 C   0  0  2  0  0  0  0  0  0  0  0  0
    7.2258  -17.9713   21.8257 N   0  0  0  0  0  0  0  0  0  0  0  0
    8.3206  -15.8615   22.2351 C   0  0  0  0  0  0  0  0  0  0  0  0
    9.1190  -14.9796   21.8823 O   0  0  0  0  0  0  0  0  0  0  0  0
    7.7289  -11.8911   16.6734 C   0  0  0  0  0  0  0  0  0  0  0  0
    7.0863  -11.2791   27.5300 S   0  0  0  0  0  0  0  0  0  0  0  0
    6.0960  -12.2503   26.3809 C   0  0  0  0  0  0  0  0  0  0  0  0
    7.1916  -13.0822   25.1416 C   0  0  0  0  0  0  0  0  0  0  0  0
    7.3062  -14.5417   25.5020 C   0  0  2  0  0  0  0  0  0  0  0  0
    8.3733  -15.2658   24.7085 N   0  0  0  0  0  0  0  0  0  0  0  0
    7.9012  -15.9858   23.5693 C   0  0  0  0  0  0  0  0  0  0  0  0
    9.2082  -16.1482   25.5422 O   0  0  0  0  0  0  0  0  0  0  0  0
    8.7876  -17.2853   25.9048 N   0  0  0  0  0  0  0  0  0  0  0  0
   10.4853  -15.6927   25.9231 C   0  0  2  0  0  0  0  0  0  0  0  0
   11.4238  -16.4173   26.7262 C   0  0  0  0  0  0  0  0  0  0  0  0
   10.9191  -16.7878   28.0946 C   0  0  0  0  0  0  0  0  0  0  0  0
   11.3384  -18.2024   28.4062 C   0  0  0  0  0  0  0  0  0  0  0  0
   11.5340  -18.2587   29.9116 C   0  0  0  0  0  0  0  0  0  0  0  0
   12.0337  -19.6333   30.2995 N   0  0  0  0  0  0  0  0  0  0  0  0
   12.1844  -19.7416   31.7191 C   0  0  0  0  0  0  0  0  0  0  0  0
   12.0492  -17.5400   25.9953 O   0  0  0  0  0  0  0  0  0  0  0  0
   13.4098  -17.7843   26.0665 O   0  0  0  0  0  0  0  0  0  0  0  0
  1  2  1  0
  2  3  2  0
  4  5  1  0
  4  2  1  0
  6  5  1  0
  7  6  1  0
  8  7  1  0
  8  9  1  1
 10  8  1  0
 11 10  2  0
 13 12  1  0
 14 13  1  0
 15 14  1  0
 16 15  1  6
 16 17  1  0
 17 10  1  0
 18 16  1  0
 18 19  2  0
 20 18  1  0
 21 20  1  0
 21 22  1  1
 23 22  1  0
 23 24  1  0
 24 25  1  0
 25 26  1  0
 27 21  1  0
 28 27  1  0
 29 27  2  0
M  END
$$$$
