RMK.pdb
     RDKit          3D

 29 28  0  0  1  0  0  0  0  0999 V2000
    8.4232  -14.9407   17.0819 N   0  0  0  0  0  0  0  0  0  0  0  0
    8.0482  -13.6759   17.6048 C   0  0  0  0  0  0  0  0  0  0  0  0
    7.9372  -12.6307   16.8422 N   0  0  0  0  0  0  0  0  0  0  0  0
    7.7792  -13.5103   18.9876 N   0  0  0  0  0  0  0  0  0  0  0  0
    7.5023  -14.6784   19.8273 C   0  0  0  0  0  0  0  0  0  0  0  0
    8.6976  -15.5701   19.7044 C   0  0  0  0  0  0  0  0  0  0  0  0
    9.5328  -15.5442   20.9230 C   0  0  0  0  0  0  0  0  0  0  0  0
    9.3029  -16.6119   21.9485 C   0  0  2  0  0  0  0  0  0  0  0  0
    8.0125  -17.2711   21.8402 N   0  0  0  0  0  0  0  0  0  0  0  0
    9.4652  -15.9980   23.2845 C   0  0  0  0  0  0  0  0  0  0  0  0
   10.5408  -15.4365   23.5446 O   0  0  0  0  0  0  0  0  0  0  0  0
    7.6702  -11.6847   17.1568 C   0  0  0  0  0  0  0  0  0  0  0  0
    6.6265  -10.4001   26.0973 S   0  0  0  0  0  0  0  0  0  0  0  0
    6.4768  -12.1201   26.6105 C   0  0  0  0  0  0  0  0  0  0  0  0
    7.3103  -13.2262   25.3816 C   0  0  0  0  0  0  0  0  0  0  0  0
    7.1680  -14.6543   25.8438 C   0  0  2  0  0  0  0  0  0  0  0  0
    8.3843  -15.5012   25.5339 N   0  0  0  0  0  0  0  0  0  0  0  0
    8.4195  -16.0579   24.2194 C   0  0  0  0  0  0  0  0  0  0  0  0
    8.6120  -16.5635   26.5290 O   0  0  0  0  0  0  0  0  0  0  0  0
    8.6147  -16.3017   27.7672 N   0  0  0  0  0  0  0  0  0  0  0  0
    8.8253  -17.8762   26.0655 C   0  0  1  0  0  0  0  0  0  0  0  0
    9.0952  -19.0173   26.8876 C   0  0  0  0  0  0  0  0  0  0  0  0
    8.8642  -20.3419   26.2119 C   0  0  0  0  0  0  0  0  0  0  0  0
    7.3822  -20.5418   26.0168 C   0  0  0  0  0  0  0  0  0  0  0  0
    7.2344  -21.8315   25.2278 C   0  0  0  0  0  0  0  0  0  0  0  0
    5.7790  -22.0308   24.8646 N   0  0  0  0  0  0  0  0  0  0  0  0
    5.6016  -23.2282   24.1000 C   0  0  0  0  0  0  0  0  0  0  0  0
   10.3951  -18.9204   27.5850 O   0  0  0  0  0  0  0  0  0  0  0  0
   10.6079  -19.5259   28.8114 O   0  0  0  0  0  0  0  0  0  0  0  0
  1  2  1  0
  2  3  2  0
  4  5  1  0
  4  2  1  0
  6  5  1  0
  7  6  1  0
  8  7  1  0
  8  9  1  1
 10  8  1  0
 11 10  2  0
 13 12  1  0
 14 13  1  0
 15 14  1  0
 16 15  1  6
 16 17  1  0
 17 10  1  0
 18 16  1  0
 18 19  2  0
 20 18  1  0
 21 20  1  0
 21 22  1  1
 23 22  1  0
 23 24  1  0
 24 25  1  0
 25 26  1  0
 27 21  1  0
 28 27  1  0
 29 27  2  0
M  END
$$$$
