RMK.pdb
     RDKit          3D

 29 28  0  0  1  0  0  0  0  0999 V2000
    8.2850  -14.5803   14.5505 N   0  0  0  0  0  0  0  0  0  0  0  0
    7.2448  -14.8645   15.4729 C   0  0  0  0  0  0  0  0  0  0  0  0
    6.2879  -15.6935   15.1844 N   0  0  0  0  0  0  0  0  0  0  0  0
    7.2159  -14.2486   16.7504 N   0  0  0  0  0  0  0  0  0  0  0  0
    8.2899  -13.3362   17.1506 C   0  0  0  0  0  0  0  0  0  0  0  0
    9.4087  -14.2014   17.6389 C   0  0  0  0  0  0  0  0  0  0  0  0
    9.6555  -14.0203   19.0844 C   0  0  0  0  0  0  0  0  0  0  0  0
    9.6578  -15.2433   19.9498 C   0  0  2  0  0  0  0  0  0  0  0  0
    8.4868  -16.0881   19.7867 N   0  0  0  0  0  0  0  0  0  0  0  0
    9.7920  -14.8023   21.3553 C   0  0  0  0  0  0  0  0  0  0  0  0
   10.8466  -14.2443   21.6962 O   0  0  0  0  0  0  0  0  0  0  0  0
    5.5108  -15.9540   15.8116 C   0  0  0  0  0  0  0  0  0  0  0  0
    7.4764  -11.3840   27.3116 S   0  0  0  0  0  0  0  0  0  0  0  0
    6.5757  -12.3141   26.0594 C   0  0  0  0  0  0  0  0  0  0  0  0
    7.4656  -13.8917   25.6752 C   0  0  0  0  0  0  0  0  0  0  0  0
    7.4568  -14.0991   24.1819 C   0  0  1  0  0  0  0  0  0  0  0  0
    8.7269  -14.7417   23.6655 N   0  0  0  0  0  0  0  0  0  0  0  0
    8.7437  -15.0168   22.2644 C   0  0  0  0  0  0  0  0  0  0  0  0
    9.1011  -15.9544   24.4138 O   0  0  0  0  0  0  0  0  0  0  0  0
    8.2820  -16.9092   24.5519 N   0  0  0  0  0  0  0  0  0  0  0  0
   10.3934  -16.0224   24.9696 C   0  0  2  0  0  0  0  0  0  0  0  0
   10.7467  -16.7050   26.1779 C   0  0  0  0  0  0  0  0  0  0  0  0
   10.5724  -15.8885   27.4299 C   0  0  0  0  0  0  0  0  0  0  0  0
   10.8054  -16.7726   28.6291 C   0  0  0  0  0  0  0  0  0  0  0  0
   10.6011  -15.8878   29.8470 C   0  0  0  0  0  0  0  0  0  0  0  0
   10.8217  -16.7053   31.1010 N   0  0  0  0  0  0  0  0  0  0  0  0
   10.5798  -15.9199   32.2734 C   0  0  0  0  0  0  0  0  0  0  0  0
   10.1563  -18.0580   26.2594 O   0  0  0  0  0  0  0  0  0  0  0  0
   10.9438  -19.1962   26.2371 O   0  0  0  0  0  0  0  0  0  0  0  0
  1  2  1  0
  2  3  2  0
  4  5  1  0
  4  2  1  0
  6  5  1  0
  7  6  1  0
  8  7  1  0
  8  9  1  1
 10  8  1  0
 11 10  2  0
 13 12  1  0
 14 13  1  0
 15 14  1  0
 16 15  1  6
 16 17  1  0
 17 10  1  0
 18 16  1  0
 18 19  2  0
 20 18  1  0
 21 20  1  0
 21 22  1  6
 23 22  1  0
 23 24  1  0
 24 25  1  0
 25 26  1  0
 27 21  1  0
 28 27  1  0
 29 27  2  0
M  END
$$$$
