RMK.pdb
     RDKit          3D

 29 28  0  0  1  0  0  0  0  0999 V2000
   10.6416  -20.9301   15.7554 N   0  0  0  0  0  0  0  0  0  0  0  0
   12.0120  -20.5630   15.7830 C   0  0  0  0  0  0  0  0  0  0  0  0
   12.9538  -21.4359   15.5901 N   0  0  0  0  0  0  0  0  0  0  0  0
   12.4016  -19.2203   16.0231 N   0  0  0  0  0  0  0  0  0  0  0  0
   11.3924  -18.2096   16.3490 C   0  0  0  0  0  0  0  0  0  0  0  0
   11.3045  -18.1779   17.8424 C   0  0  0  0  0  0  0  0  0  0  0  0
   10.4239  -17.0919   18.3201 C   0  0  0  0  0  0  0  0  0  0  0  0
    9.6179  -17.3415   19.5581 C   0  0  2  0  0  0  0  0  0  0  0  0
    8.1840  -17.4028   19.3306 N   0  0  0  0  0  0  0  0  0  0  0  0
    9.9469  -16.2794   20.5336 C   0  0  0  0  0  0  0  0  0  0  0  0
   10.7507  -15.3981   20.1915 O   0  0  0  0  0  0  0  0  0  0  0  0
   13.9667  -21.2381   15.6035 C   0  0  0  0  0  0  0  0  0  0  0  0
    7.0310  -13.0169   25.7712 S   0  0  0  0  0  0  0  0  0  0  0  0
    6.3083  -13.6955   24.2674 C   0  0  0  0  0  0  0  0  0  0  0  0
    7.6453  -14.2137   23.0960 C   0  0  0  0  0  0  0  0  0  0  0  0
    8.6449  -15.0561   23.8472 C   0  0  2  0  0  0  0  0  0  0  0  0
    9.7688  -15.5654   22.9695 N   0  0  0  0  0  0  0  0  0  0  0  0
    9.3553  -16.2841   21.8069 C   0  0  0  0  0  0  0  0  0  0  0  0
   10.7642  -16.3563   23.7139 O   0  0  0  0  0  0  0  0  0  0  0  0
   10.5835  -17.5907   23.9264 N   0  0  0  0  0  0  0  0  0  0  0  0
   11.9209  -15.7025   24.1810 C   0  0  2  0  0  0  0  0  0  0  0  0
   12.9274  -16.2842   25.0173 C   0  0  0  0  0  0  0  0  0  0  0  0
   12.4737  -17.4923   25.7915 C   0  0  0  0  0  0  0  0  0  0  0  0
   13.6398  -18.0387   26.5763 C   0  0  0  0  0  0  0  0  0  0  0  0
   13.1464  -19.3244   27.2177 C   0  0  0  0  0  0  0  0  0  0  0  0
   14.2660  -19.9397   28.0286 N   0  0  0  0  0  0  0  0  0  0  0  0
   13.8332  -21.1467   28.6656 C   0  0  0  0  0  0  0  0  0  0  0  0
   14.2124  -16.4741   24.3116 O   0  0  0  0  0  0  0  0  0  0  0  0
   14.2748  -17.0745   23.0660 O   0  0  0  0  0  0  0  0  0  0  0  0
  1  2  1  0
  2  3  2  0
  4  5  1  0
  4  2  1  0
  6  5  1  0
  7  6  1  0
  8  7  1  0
  8  9  1  6
 10  8  1  0
 11 10  2  0
 13 12  1  0
 14 13  1  0
 15 14  1  0
 16 15  1  6
 16 17  1  0
 17 10  1  0
 18 16  1  0
 18 19  2  0
 20 18  1  0
 21 20  1  0
 21 22  1  1
 23 22  1  0
 23 24  1  0
 24 25  1  0
 25 26  1  0
 27 21  1  0
 28 27  1  0
 29 27  2  0
M  END
$$$$
