RMK.pdb
     RDKit          3D

 29 28  0  0  1  0  0  0  0  0999 V2000
    7.5538  -13.2582   16.9455 N   0  0  0  0  0  0  0  0  0  0  0  0
    7.5593  -14.3422   16.0298 C   0  0  0  0  0  0  0  0  0  0  0  0
    7.5755  -14.1478   14.7460 N   0  0  0  0  0  0  0  0  0  0  0  0
    7.5481  -15.6840   16.4897 N   0  0  0  0  0  0  0  0  0  0  0  0
    7.6276  -15.9697   17.9244 C   0  0  0  0  0  0  0  0  0  0  0  0
    8.4817  -14.8924   18.5150 C   0  0  0  0  0  0  0  0  0  0  0  0
    8.6841  -15.0824   19.9662 C   0  0  0  0  0  0  0  0  0  0  0  0
    9.5387  -14.0853   20.6874 C   0  0  2  0  0  0  0  0  0  0  0  0
   10.8974  -13.9915   20.1808 N   0  0  0  0  0  0  0  0  0  0  0  0
    9.5400  -14.4449   22.1222 C   0  0  0  0  0  0  0  0  0  0  0  0
   10.4567  -15.1667   22.5445 O   0  0  0  0  0  0  0  0  0  0  0  0
    7.6158  -14.8880   14.0279 C   0  0  0  0  0  0  0  0  0  0  0  0
    6.3277  -10.7003   27.0904 S   0  0  0  0  0  0  0  0  0  0  0  0
    5.8850  -12.4428   27.2006 C   0  0  0  0  0  0  0  0  0  0  0  0
    7.2565  -13.4917   26.5319 C   0  0  0  0  0  0  0  0  0  0  0  0
    7.2977  -13.3337   25.0331 C   0  0  2  0  0  0  0  0  0  0  0  0
    8.4350  -14.0973   24.3879 N   0  0  0  0  0  0  0  0  0  0  0  0
    8.5241  -13.9721   22.9682 C   0  0  0  0  0  0  0  0  0  0  0  0
    8.4545  -15.5220   24.7626 O   0  0  0  0  0  0  0  0  0  0  0  0
    7.5605  -16.3142   24.3445 N   0  0  0  0  0  0  0  0  0  0  0  0
    9.4938  -15.9777   25.5967 C   0  0  1  0  0  0  0  0  0  0  0  0
    9.7242  -17.3399   25.9736 C   0  0  0  0  0  0  0  0  0  0  0  0
   10.7792  -18.0420   25.1621 C   0  0  0  0  0  0  0  0  0  0  0  0
   11.0020  -19.4198   25.7334 C   0  0  0  0  0  0  0  0  0  0  0  0
   10.9377  -20.3765   24.5551 C   0  0  0  0  0  0  0  0  0  0  0  0
   11.1789  -21.7880   25.0440 N   0  0  0  0  0  0  0  0  0  0  0  0
   11.0829  -22.7264   23.9669 C   0  0  0  0  0  0  0  0  0  0  0  0
    9.8838  -17.5062   27.4339 O   0  0  0  0  0  0  0  0  0  0  0  0
    9.7393  -18.7402   28.0441 O   0  0  0  0  0  0  0  0  0  0  0  0
  1  2  1  0
  2  3  2  0
  4  5  1  0
  4  2  1  0
  6  5  1  0
  7  6  1  0
  8  7  1  0
  8  9  1  6
 10  8  1  0
 11 10  2  0
 13 12  1  0
 14 13  1  0
 15 14  1  0
 16 15  1  1
 16 17  1  0
 17 10  1  0
 18 16  1  0
 18 19  2  0
 20 18  1  0
 21 20  1  0
 21 22  1  1
 23 22  1  0
 23 24  1  0
 24 25  1  0
 25 26  1  0
 27 21  1  0
 28 27  1  0
 29 27  2  0
M  END
$$$$
