RMK.pdb
     RDKit          3D

 29 28  0  0  1  0  0  0  0  0999 V2000
    9.0673  -14.7657   15.9646 N   0  0  0  0  0  0  0  0  0  0  0  0
    8.1265  -13.7294   16.1983 C   0  0  0  0  0  0  0  0  0  0  0  0
    7.4144  -13.2276   15.2353 N   0  0  0  0  0  0  0  0  0  0  0  0
    7.9304  -13.2041   17.5013 N   0  0  0  0  0  0  0  0  0  0  0  0
    8.8508  -13.5612   18.5836 C   0  0  0  0  0  0  0  0  0  0  0  0
    8.5947  -15.0040   18.8865 C   0  0  0  0  0  0  0  0  0  0  0  0
    9.4822  -15.5093   19.9543 C   0  0  0  0  0  0  0  0  0  0  0  0
    8.8815  -16.4046   20.9945 C   0  0  2  0  0  0  0  0  0  0  0  0
    7.4321  -16.4921   20.9372 N   0  0  0  0  0  0  0  0  0  0  0  0
    9.3233  -15.9180   22.3196 C   0  0  0  0  0  0  0  0  0  0  0  0
   10.5383  -15.7489   22.5065 O   0  0  0  0  0  0  0  0  0  0  0  0
    6.6373  -12.5582   15.3502 C   0  0  0  0  0  0  0  0  0  0  0  0
    5.7300  -11.7390   26.0885 S   0  0  0  0  0  0  0  0  0  0  0  0
    7.4092  -11.8547   26.7297 C   0  0  0  0  0  0  0  0  0  0  0  0
    8.0611  -13.5726   26.5016 C   0  0  0  0  0  0  0  0  0  0  0  0
    7.7783  -14.0119   25.0873 C   0  0  1  0  0  0  0  0  0  0  0  0
    8.6181  -15.1956   24.6555 N   0  0  0  0  0  0  0  0  0  0  0  0
    8.3791  -15.6587   23.3259 C   0  0  0  0  0  0  0  0  0  0  0  0
    8.5415  -16.3268   25.5962 O   0  0  0  0  0  0  0  0  0  0  0  0
    7.6416  -17.2086   25.4772 N   0  0  0  0  0  0  0  0  0  0  0  0
    9.4958  -16.4003   26.6293 C   0  0  1  0  0  0  0  0  0  0  0  0
   10.1650  -17.5897   27.0633 C   0  0  0  0  0  0  0  0  0  0  0  0
   11.1714  -18.1319   26.0846 C   0  0  0  0  0  0  0  0  0  0  0  0
   10.6968  -19.4732   25.5849 C   0  0  0  0  0  0  0  0  0  0  0  0
   11.7880  -19.9850   24.6601 C   0  0  0  0  0  0  0  0  0  0  0  0
   11.3634  -21.3138   24.0739 N   0  0  0  0  0  0  0  0  0  0  0  0
   12.2675  -21.7319   23.0454 C   0  0  0  0  0  0  0  0  0  0  0  0
   10.6744  -17.4822   28.4470 O   0  0  0  0  0  0  0  0  0  0  0  0
   10.2784  -18.3650   29.4369 O   0  0  0  0  0  0  0  0  0  0  0  0
  1  2  1  0
  2  3  2  0
  4  5  1  0
  4  2  1  0
  6  5  1  0
  7  6  1  0
  8  7  1  0
  8  9  1  1
 10  8  1  0
 11 10  2  0
 13 12  1  0
 14 13  1  0
 15 14  1  0
 16 15  1  6
 16 17  1  0
 17 10  1  0
 18 16  1  0
 18 19  2  0
 20 18  1  0
 21 20  1  0
 21 22  1  1
 23 22  1  0
 23 24  1  0
 24 25  1  0
 25 26  1  0
 27 21  1  0
 28 27  1  0
 29 27  2  0
M  END
$$$$
