RMK.pdb
     RDKit          3D

 29 28  0  0  1  0  0  0  0  0999 V2000
    7.3294  -13.3015   17.7561 N   0  0  0  0  0  0  0  0  0  0  0  0
    8.5102  -12.9764   18.4727 C   0  0  0  0  0  0  0  0  0  0  0  0
    8.8127  -11.7474   18.7632 N   0  0  0  0  0  0  0  0  0  0  0  0
    9.4055  -13.9906   18.8996 N   0  0  0  0  0  0  0  0  0  0  0  0
    9.1808  -15.3831   18.5039 C   0  0  0  0  0  0  0  0  0  0  0  0
    8.1835  -15.9340   19.4737 C   0  0  0  0  0  0  0  0  0  0  0  0
    8.7331  -17.0677   20.2457 C   0  0  0  0  0  0  0  0  0  0  0  0
    7.9215  -17.5892   21.3920 C   0  0  2  0  0  0  0  0  0  0  0  0
    6.5003  -17.3034   21.2915 N   0  0  0  0  0  0  0  0  0  0  0  0
    8.4815  -17.0215   22.6377 C   0  0  0  0  0  0  0  0  0  0  0  0
    9.6749  -17.2411   22.8970 O   0  0  0  0  0  0  0  0  0  0  0  0
    9.6771  -11.4381   19.2348 C   0  0  0  0  0  0  0  0  0  0  0  0
    6.3933  -11.7306   25.2680 S   0  0  0  0  0  0  0  0  0  0  0  0
    7.2858  -12.3312   26.7127 C   0  0  0  0  0  0  0  0  0  0  0  0
    7.3904  -14.1793   26.6736 C   0  0  0  0  0  0  0  0  0  0  0  0
    7.0474  -14.6526   25.2838 C   0  0  1  0  0  0  0  0  0  0  0  0
    8.0142  -15.6918   24.7564 N   0  0  0  0  0  0  0  0  0  0  0  0
    7.6701  -16.2566   23.4908 C   0  0  0  0  0  0  0  0  0  0  0  0
    8.2817  -16.7697   25.7245 O   0  0  0  0  0  0  0  0  0  0  0  0
    7.3325  -17.4359   26.2311 N   0  0  0  0  0  0  0  0  0  0  0  0
    9.6204  -17.0385   26.0695 C   0  0  1  0  0  0  0  0  0  0  0  0
   10.0686  -18.1245   26.8885 C   0  0  0  0  0  0  0  0  0  0  0  0
   10.8964  -19.1518   26.1645 C   0  0  0  0  0  0  0  0  0  0  0  0
   11.2959  -20.2337   27.1361 C   0  0  0  0  0  0  0  0  0  0  0  0
   12.1838  -21.1887   26.3567 C   0  0  0  0  0  0  0  0  0  0  0  0
   12.6468  -22.3005   27.2728 N   0  0  0  0  0  0  0  0  0  0  0  0
   13.3926  -23.2842   26.5475 C   0  0  0  0  0  0  0  0  0  0  0  0
   10.6630  -17.6675   28.1626 O   0  0  0  0  0  0  0  0  0  0  0  0
   10.4970  -18.3797   29.3378 O   0  0  0  0  0  0  0  0  0  0  0  0
  1  2  1  0
  2  3  2  0
  4  5  1  0
  4  2  1  0
  6  5  1  0
  7  6  1  0
  8  7  1  0
  8  9  1  6
 10  8  1  0
 11 10  2  0
 13 12  1  0
 14 13  1  0
 15 14  1  0
 16 15  1  6
 16 17  1  0
 17 10  1  0
 18 16  1  0
 18 19  2  0
 20 18  1  0
 21 20  1  0
 21 22  1  1
 23 22  1  0
 23 24  1  0
 24 25  1  0
 25 26  1  0
 27 21  1  0
 28 27  1  0
 29 27  2  0
M  END
$$$$
