RMK.pdb
     RDKit          3D

 29 28  0  0  1  0  0  0  0  0999 V2000
    6.9836  -18.6573   16.1381 N   0  0  0  0  0  0  0  0  0  0  0  0
    7.3881  -18.9978   17.4549 C   0  0  0  0  0  0  0  0  0  0  0  0
    7.0671  -20.1355   17.9921 N   0  0  0  0  0  0  0  0  0  0  0  0
    8.1629  -18.1003   18.2336 N   0  0  0  0  0  0  0  0  0  0  0  0
    8.6150  -16.8308   17.6591 C   0  0  0  0  0  0  0  0  0  0  0  0
    7.7972  -15.7638   18.3159 C   0  0  0  0  0  0  0  0  0  0  0  0
    8.3631  -15.3589   19.6194 C   0  0  0  0  0  0  0  0  0  0  0  0
    7.6415  -14.2985   20.3935 C   0  0  2  0  0  0  0  0  0  0  0  0
    7.5272  -13.0287   19.6964 N   0  0  0  0  0  0  0  0  0  0  0  0
    8.3431  -14.1245   21.6841 C   0  0  0  0  0  0  0  0  0  0  0  0
    9.4988  -13.6731   21.6665 O   0  0  0  0  0  0  0  0  0  0  0  0
    7.3891  -20.4767   18.9115 C   0  0  0  0  0  0  0  0  0  0  0  0
    6.6914  -11.9260   27.6591 S   0  0  0  0  0  0  0  0  0  0  0  0
    6.3624  -11.2116   26.0387 C   0  0  0  0  0  0  0  0  0  0  0  0
    7.2820  -12.1469   24.7318 C   0  0  0  0  0  0  0  0  0  0  0  0
    7.4577  -13.5719   25.1920 C   0  0  2  0  0  0  0  0  0  0  0  0
    8.2375  -14.4199   24.2093 N   0  0  0  0  0  0  0  0  0  0  0  0
    7.7025  -14.4653   22.8861 C   0  0  0  0  0  0  0  0  0  0  0  0
    8.4743  -15.7901   24.6961 O   0  0  0  0  0  0  0  0  0  0  0  0
    7.5385  -16.6418   24.7150 N   0  0  0  0  0  0  0  0  0  0  0  0
    9.7687  -16.1259   25.1382 C   0  0  1  0  0  0  0  0  0  0  0  0
   10.1788  -17.4115   25.6176 C   0  0  0  0  0  0  0  0  0  0  0  0
   11.6458  -17.7015   25.4493 C   0  0  0  0  0  0  0  0  0  0  0  0
   11.9191  -19.1193   25.8842 C   0  0  0  0  0  0  0  0  0  0  0  0
   13.3952  -19.3610   25.6187 C   0  0  0  0  0  0  0  0  0  0  0  0
   13.7383  -20.7921   25.9709 N   0  0  0  0  0  0  0  0  0  0  0  0
   15.1441  -21.0290   25.8385 C   0  0  0  0  0  0  0  0  0  0  0  0
    9.6630  -17.7039   26.9719 O   0  0  0  0  0  0  0  0  0  0  0  0
    9.2936  -18.9840   27.3473 O   0  0  0  0  0  0  0  0  0  0  0  0
  1  2  1  0
  2  3  2  0
  4  5  1  0
  4  2  1  0
  6  5  1  0
  7  6  1  0
  8  7  1  0
  8  9  1  6
 10  8  1  0
 11 10  2  0
 13 12  1  0
 14 13  1  0
 15 14  1  0
 16 15  1  6
 16 17  1  0
 17 10  1  0
 18 16  1  0
 18 19  2  0
 20 18  1  0
 21 20  1  0
 21 22  1  1
 23 22  1  0
 23 24  1  0
 24 25  1  0
 25 26  1  0
 27 21  1  0
 28 27  1  0
 29 27  2  0
M  END
$$$$
