VCR.pdb
     RDKit          3D

 25 24  0  0  1  0  0  0  0  0999 V2000
    6.6789  -13.9969   18.8428 C   0  0  0  0  0  0  0  0  0  0  0  0
    7.3099  -14.4185   20.1786 C   0  0  2  0  0  0  0  0  0  0  0  0
    6.4693  -15.5279   20.7099 C   0  0  0  0  0  0  0  0  0  0  0  0
    7.3006  -13.1626   21.0265 C   0  0  2  0  0  0  0  0  0  0  0  0
    8.2532  -12.2669   20.3387 N   0  0  0  0  0  0  0  0  0  0  0  0
    7.8171  -13.3600   22.3913 C   0  0  0  0  0  0  0  0  0  0  0  0
    9.0260  -13.6544   22.5564 O   0  0  0  0  0  0  0  0  0  0  0  0
    7.0518  -13.2434   23.5929 N   0  0  0  0  0  0  0  0  0  0  0  0
    7.6053  -13.5612   24.8905 C   0  0  1  0  0  0  0  0  0  0  0  0
    6.5371  -13.1816   25.9451 C   0  0  0  0  0  0  0  0  0  0  0  0
    6.4772  -11.3593   26.0307 S   0  0  0  0  0  0  0  0  0  0  0  0
    8.0265  -14.9526   25.0624 C   0  0  0  0  0  0  0  0  0  0  0  0
    7.1723  -15.8918   24.8891 O   0  0  0  0  0  0  0  0  0  0  0  0
   12.3122  -20.6629   21.1607 N   0  0  0  0  0  0  0  0  0  0  0  0
   13.2721  -20.3516   22.1399 C   0  0  0  0  0  0  0  0  0  0  0  0
   14.4864  -20.7606   21.9897 N   0  0  0  0  0  0  0  0  0  0  0  0
   12.8715  -19.5883   23.2770 N   0  0  0  0  0  0  0  0  0  0  0  0
   11.4810  -19.2416   23.4574 C   0  0  0  0  0  0  0  0  0  0  0  0
   11.3075  -18.5575   24.7966 C   0  0  0  0  0  0  0  0  0  0  0  0
   10.9033  -17.1166   24.6830 C   0  0  0  0  0  0  0  0  0  0  0  0
    9.6938  -16.8214   25.4835 C   0  0  2  0  0  0  0  0  0  0  0  0
    9.3260  -15.4011   25.4119 N   0  0  0  0  0  0  0  0  0  0  0  0
    9.8625  -17.2378   26.8858 C   0  0  0  0  0  0  0  0  0  0  0  0
    9.8600  -16.3630   27.9416 O   0  0  0  0  0  0  0  0  0  0  0  0
   10.0205  -18.4547   27.1430 O   0  0  0  0  0  0  0  0  0  0  0  0
  2  1  1  6
  2  3  1  0
  4  2  1  0
  4  5  1  6
  6  4  1  0
  7  6  2  0
  8  6  1  0
  9  8  1  0
  9 10  1  1
 11 10  1  0
 12 22  1  0
 12  9  1  0
 13 12  2  0
 14 15  1  0
 15 16  2  0
 17 18  1  0
 17 15  1  0
 19 18  1  0
 20 19  1  0
 21 20  1  6
 21 22  1  0
 23 21  1  0
 24 23  1  0
 25 23  2  0
M  END
$$$$
