VCR.pdb
     RDKit          3D

 25 24  0  0  1  0  0  0  0  0999 V2000
    7.5988  -12.5624   20.2903 C   0  0  0  0  0  0  0  0  0  0  0  0
    8.5904  -12.9874   19.1964 C   0  0  2  0  0  0  0  0  0  0  0  0
    7.8900  -12.7955   17.8956 C   0  0  0  0  0  0  0  0  0  0  0  0
    8.9310  -14.4283   19.5192 C   0  0  2  0  0  0  0  0  0  0  0  0
    7.6393  -15.1331   19.3874 N   0  0  0  0  0  0  0  0  0  0  0  0
    9.3868  -14.6380   20.9037 C   0  0  0  0  0  0  0  0  0  0  0  0
   10.5784  -14.3845   21.2055 O   0  0  0  0  0  0  0  0  0  0  0  0
    8.5773  -15.1172   21.9800 N   0  0  0  0  0  0  0  0  0  0  0  0
    9.1302  -15.4205   23.2814 C   0  0  1  0  0  0  0  0  0  0  0  0
    8.0036  -15.1895   24.3182 C   0  0  0  0  0  0  0  0  0  0  0  0
    7.6061  -13.4082   24.3054 S   0  0  0  0  0  0  0  0  0  0  0  0
    9.6897  -16.7661   23.4204 C   0  0  0  0  0  0  0  0  0  0  0  0
    8.9050  -17.7783   23.3791 O   0  0  0  0  0  0  0  0  0  0  0  0
   11.5648  -15.9559   18.8580 N   0  0  0  0  0  0  0  0  0  0  0  0
   12.7167  -15.4604   19.4941 C   0  0  0  0  0  0  0  0  0  0  0  0
   13.0155  -14.2106   19.3805 N   0  0  0  0  0  0  0  0  0  0  0  0
   13.5254  -16.3606   20.2502 N   0  0  0  0  0  0  0  0  0  0  0  0
   12.9562  -17.5880   20.7558 C   0  0  0  0  0  0  0  0  0  0  0  0
   13.2276  -17.6885   22.2416 C   0  0  0  0  0  0  0  0  0  0  0  0
   12.5713  -18.8725   22.8897 C   0  0  0  0  0  0  0  0  0  0  0  0
   11.5297  -18.4609   23.8575 C   0  0  2  0  0  0  0  0  0  0  0  0
   11.0578  -17.0936   23.6018 N   0  0  0  0  0  0  0  0  0  0  0  0
   12.0049  -18.5888   25.2453 C   0  0  0  0  0  0  0  0  0  0  0  0
   12.4661  -19.7628   25.7830 O   0  0  0  0  0  0  0  0  0  0  0  0
   11.9904  -17.5786   25.9876 O   0  0  0  0  0  0  0  0  0  0  0  0
  2  1  1  1
  2  3  1  0
  4  2  1  0
  4  5  1  1
  6  4  1  0
  7  6  2  0
  8  6  1  0
  9  8  1  0
  9 10  1  1
 11 10  1  0
 12 22  1  0
 12  9  1  0
 13 12  2  0
 14 15  1  0
 15 16  2  0
 17 18  1  0
 17 15  1  0
 19 18  1  0
 20 19  1  0
 21 20  1  6
 21 22  1  0
 23 21  1  0
 24 23  1  0
 25 23  2  0
M  END
$$$$
