VCR.pdb
     RDKit          3D

 25 24  0  0  1  0  0  0  0  0999 V2000
    7.2979  -12.8549   20.4313 C   0  0  0  0  0  0  0  0  0  0  0  0
    8.2704  -13.9016   19.8665 C   0  0  2  0  0  0  0  0  0  0  0  0
    7.6845  -14.3694   18.5791 C   0  0  0  0  0  0  0  0  0  0  0  0
    8.3599  -14.9679   20.9395 C   0  0  2  0  0  0  0  0  0  0  0  0
    7.0317  -15.6139   20.9050 N   0  0  0  0  0  0  0  0  0  0  0  0
    8.5334  -14.4322   22.3001 C   0  0  0  0  0  0  0  0  0  0  0  0
    9.6568  -13.9976   22.6530 O   0  0  0  0  0  0  0  0  0  0  0  0
    7.5118  -14.3521   23.2967 N   0  0  0  0  0  0  0  0  0  0  0  0
    7.7510  -13.7669   24.5973 C   0  0  1  0  0  0  0  0  0  0  0  0
    6.4074  -13.1670   25.0793 C   0  0  0  0  0  0  0  0  0  0  0  0
    6.6920  -12.4476   26.7325 S   0  0  0  0  0  0  0  0  0  0  0  0
    8.2947  -14.6838   25.6006 C   0  0  0  0  0  0  0  0  0  0  0  0
    7.6094  -15.7088   25.9494 O   0  0  0  0  0  0  0  0  0  0  0  0
   12.4791  -20.9972   28.9866 N   0  0  0  0  0  0  0  0  0  0  0  0
   12.3710  -20.0360   30.0072 C   0  0  0  0  0  0  0  0  0  0  0  0
   12.2765  -20.4225   31.2344 N   0  0  0  0  0  0  0  0  0  0  0  0
   12.3686  -18.6540   29.6524 N   0  0  0  0  0  0  0  0  0  0  0  0
   11.7318  -18.2263   28.4285 C   0  0  0  0  0  0  0  0  0  0  0  0
   11.8336  -16.7204   28.3135 C   0  0  0  0  0  0  0  0  0  0  0  0
   11.1951  -16.1720   27.0709 C   0  0  0  0  0  0  0  0  0  0  0  0
    9.9516  -15.4288   27.3750 C   0  0  2  0  0  0  0  0  0  0  0  0
    9.5458  -14.5652   26.2584 N   0  0  0  0  0  0  0  0  0  0  0  0
   10.0855  -14.6404   28.6114 C   0  0  0  0  0  0  0  0  0  0  0  0
   10.3055  -13.2871   28.6270 O   0  0  0  0  0  0  0  0  0  0  0  0
    9.9985  -15.2253   29.7170 O   0  0  0  0  0  0  0  0  0  0  0  0
  2  1  1  1
  2  3  1  0
  4  2  1  0
  4  5  1  1
  6  4  1  0
  7  6  2  0
  8  6  1  0
  9  8  1  0
  9 10  1  1
 11 10  1  0
 12 22  1  0
 12  9  1  0
 13 12  2  0
 14 15  1  0
 15 16  2  0
 17 18  1  0
 17 15  1  0
 19 18  1  0
 20 19  1  0
 21 20  1  6
 21 22  1  0
 23 21  1  0
 24 23  1  0
 25 23  2  0
M  END
$$$$
