VCR.pdb
     RDKit          3D

 25 24  0  0  1  0  0  0  0  0999 V2000
    6.7801  -14.5319   20.2505 C   0  0  0  0  0  0  0  0  0  0  0  0
    7.9077  -13.5129   20.4755 C   0  0  2  0  0  0  0  0  0  0  0  0
    7.5006  -12.2698   19.7624 C   0  0  0  0  0  0  0  0  0  0  0  0
    9.1498  -14.1782   19.9178 C   0  0  2  0  0  0  0  0  0  0  0  0
    8.8269  -14.3862   18.4912 N   0  0  0  0  0  0  0  0  0  0  0  0
    9.4209  -15.5087   20.4875 C   0  0  0  0  0  0  0  0  0  0  0  0
    9.1985  -16.5324   19.7961 O   0  0  0  0  0  0  0  0  0  0  0  0
    9.9338  -15.7615   21.7976 N   0  0  0  0  0  0  0  0  0  0  0  0
   10.3150  -17.0873   22.2311 C   0  0  1  0  0  0  0  0  0  0  0  0
   11.7934  -17.0090   22.6847 C   0  0  0  0  0  0  0  0  0  0  0  0
   11.8596  -15.9171   24.1458 S   0  0  0  0  0  0  0  0  0  0  0  0
    9.4813  -17.6584   23.2902 C   0  0  0  0  0  0  0  0  0  0  0  0
    8.9003  -16.8749   24.1213 O   0  0  0  0  0  0  0  0  0  0  0  0
    5.4147  -24.4141   26.8496 N   0  0  0  0  0  0  0  0  0  0  0  0
    4.4237  -23.6220   26.2432 C   0  0  0  0  0  0  0  0  0  0  0  0
    3.1903  -23.7756   26.5887 N   0  0  0  0  0  0  0  0  0  0  0  0
    4.8147  -22.6668   25.2580 N   0  0  0  0  0  0  0  0  0  0  0  0
    6.1950  -22.5880   24.8400 C   0  0  0  0  0  0  0  0  0  0  0  0
    6.7040  -21.1800   25.0634 C   0  0  0  0  0  0  0  0  0  0  0  0
    8.0776  -20.9462   24.5059 C   0  0  0  0  0  0  0  0  0  0  0  0
    8.5129  -19.5435   24.6895 C   0  0  2  0  0  0  0  0  0  0  0  0
    9.2299  -19.0366   23.5120 N   0  0  0  0  0  0  0  0  0  0  0  0
    9.3392  -19.3910   25.8987 C   0  0  0  0  0  0  0  0  0  0  0  0
    8.8196  -19.1778   27.1495 O   0  0  0  0  0  0  0  0  0  0  0  0
   10.5870  -19.4548   25.7935 O   0  0  0  0  0  0  0  0  0  0  0  0
  2  1  1  6
  2  3  1  0
  4  2  1  0
  4  5  1  6
  6  4  1  0
  7  6  2  0
  8  6  1  0
  9  8  1  0
  9 10  1  1
 11 10  1  0
 12 22  1  0
 12  9  1  0
 13 12  2  0
 14 15  1  0
 15 16  2  0
 17 18  1  0
 17 15  1  0
 19 18  1  0
 20 19  1  0
 21 20  1  6
 21 22  1  0
 23 21  1  0
 24 23  1  0
 25 23  2  0
M  END
$$$$
