VCR.pdb
     RDKit          3D

 25 24  0  0  1  0  0  0  0  0999 V2000
    9.5728  -14.5278   17.7941 C   0  0  0  0  0  0  0  0  0  0  0  0
    8.0419  -14.4722   17.9110 C   0  0  2  0  0  0  0  0  0  0  0  0
    7.5263  -14.1647   16.5475 C   0  0  0  0  0  0  0  0  0  0  0  0
    7.7696  -13.3959   18.9424 C   0  0  2  0  0  0  0  0  0  0  0  0
    8.4483  -12.2036   18.3940 N   0  0  0  0  0  0  0  0  0  0  0  0
    8.3788  -13.6610   20.2566 C   0  0  0  0  0  0  0  0  0  0  0  0
    9.6055  -13.4523   20.4210 O   0  0  0  0  0  0  0  0  0  0  0  0
    7.6869  -14.1485   21.4085 N   0  0  0  0  0  0  0  0  0  0  0  0
    8.3830  -14.5456   22.6123 C   0  0  1  0  0  0  0  0  0  0  0  0
    7.3124  -14.7319   23.7152 C   0  0  0  0  0  0  0  0  0  0  0  0
    8.1885  -15.1373   25.2643 S   0  0  0  0  0  0  0  0  0  0  0  0
    9.2061  -15.7495   22.4853 C   0  0  0  0  0  0  0  0  0  0  0  0
    8.8765  -16.6468   21.6321 O   0  0  0  0  0  0  0  0  0  0  0  0
   14.9300  -14.0907   17.9848 N   0  0  0  0  0  0  0  0  0  0  0  0
   15.5597  -15.2755   18.4053 C   0  0  0  0  0  0  0  0  0  0  0  0
   16.7785  -15.5058   18.0507 N   0  0  0  0  0  0  0  0  0  0  0  0
   14.8270  -16.1930   19.2161 N   0  0  0  0  0  0  0  0  0  0  0  0
   13.4866  -15.8648   19.6426 C   0  0  0  0  0  0  0  0  0  0  0  0
   13.4873  -15.6050   21.1338 C   0  0  0  0  0  0  0  0  0  0  0  0
   12.1242  -15.3132   21.6898 C   0  0  0  0  0  0  0  0  0  0  0  0
   11.6622  -16.3845   22.6007 C   0  0  2  0  0  0  0  0  0  0  0  0
   10.3767  -16.0502   23.2277 N   0  0  0  0  0  0  0  0  0  0  0  0
   12.6715  -16.6878   23.6291 C   0  0  0  0  0  0  0  0  0  0  0  0
   13.7571  -17.4963   23.4102 O   0  0  0  0  0  0  0  0  0  0  0  0
   12.5427  -16.1888   24.7721 O   0  0  0  0  0  0  0  0  0  0  0  0
  2  1  1  6
  2  3  1  0
  4  2  1  0
  4  5  1  6
  6  4  1  0
  7  6  2  0
  8  6  1  0
  9  8  1  0
  9 10  1  1
 11 10  1  0
 12 22  1  0
 12  9  1  0
 13 12  2  0
 14 15  1  0
 15 16  2  0
 17 18  1  0
 17 15  1  0
 19 18  1  0
 20 19  1  0
 21 20  1  1
 21 22  1  0
 23 21  1  0
 24 23  1  0
 25 23  2  0
M  END
$$$$
