VCR.pdb
     RDKit          3D

 25 24  0  0  1  0  0  0  0  0999 V2000
    7.0741  -12.4564   21.0439 C   0  0  0  0  0  0  0  0  0  0  0  0
    7.9531  -13.2922   20.1009 C   0  0  2  0  0  0  0  0  0  0  0  0
    7.2868  -13.2641   18.7687 C   0  0  0  0  0  0  0  0  0  0  0  0
    8.0163  -14.6638   20.7422 C   0  0  2  0  0  0  0  0  0  0  0  0
    6.6136  -15.1271   20.7205 N   0  0  0  0  0  0  0  0  0  0  0  0
    8.4322  -14.6435   22.1547 C   0  0  0  0  0  0  0  0  0  0  0  0
    9.6541  -14.5928   22.4369 O   0  0  0  0  0  0  0  0  0  0  0  0
    7.5507  -14.6747   23.2796 N   0  0  0  0  0  0  0  0  0  0  0  0
    8.0412  -14.7102   24.6395 C   0  0  1  0  0  0  0  0  0  0  0  0
    6.8491  -14.3546   25.5614 C   0  0  0  0  0  0  0  0  0  0  0  0
    6.8694  -12.5462   25.8077 S   0  0  0  0  0  0  0  0  0  0  0  0
    8.6476  -15.9783   25.0482 C   0  0  0  0  0  0  0  0  0  0  0  0
    7.9409  -17.0470   25.0249 O   0  0  0  0  0  0  0  0  0  0  0  0
   14.1927  -21.9351   25.2169 N   0  0  0  0  0  0  0  0  0  0  0  0
   14.2009  -21.1920   24.0232 C   0  0  0  0  0  0  0  0  0  0  0  0
   14.3085  -21.8071   22.8944 N   0  0  0  0  0  0  0  0  0  0  0  0
   14.0897  -19.7713   24.0972 N   0  0  0  0  0  0  0  0  0  0  0  0
   13.9673  -19.1251   25.3832 C   0  0  0  0  0  0  0  0  0  0  0  0
   12.5011  -18.9759   25.7286 C   0  0  0  0  0  0  0  0  0  0  0  0
   11.9423  -17.6249   25.3895 C   0  0  0  0  0  0  0  0  0  0  0  0
   10.5355  -17.4869   25.8286 C   0  0  2  0  0  0  0  0  0  0  0  0
    9.9836  -16.1700   25.4843 N   0  0  0  0  0  0  0  0  0  0  0  0
   10.3959  -17.7405   27.2724 C   0  0  0  0  0  0  0  0  0  0  0  0
   10.3549  -18.9967   27.8205 O   0  0  0  0  0  0  0  0  0  0  0  0
   10.3059  -16.7647   28.0544 O   0  0  0  0  0  0  0  0  0  0  0  0
  2  1  1  1
  2  3  1  0
  4  2  1  0
  4  5  1  1
  6  4  1  0
  7  6  2  0
  8  6  1  0
  9  8  1  0
  9 10  1  1
 11 10  1  0
 12 22  1  0
 12  9  1  0
 13 12  2  0
 14 15  1  0
 15 16  2  0
 17 18  1  0
 17 15  1  0
 19 18  1  0
 20 19  1  0
 21 20  1  1
 21 22  1  0
 23 21  1  0
 24 23  1  0
 25 23  2  0
M  END
$$$$
