VCR.pdb
     RDKit          3D

 25 24  0  0  1  0  0  0  0  0999 V2000
   10.4758  -19.7969   14.3979 C   0  0  0  0  0  0  0  0  0  0  0  0
   10.1160  -19.2676   15.7947 C   0  0  2  0  0  0  0  0  0  0  0  0
   11.3585  -18.6594   16.3475 C   0  0  0  0  0  0  0  0  0  0  0  0
    9.6197  -20.4813   16.5543 C   0  0  2  0  0  0  0  0  0  0  0  0
    8.3775  -20.8550   15.8472 N   0  0  0  0  0  0  0  0  0  0  0  0
    9.2424  -20.1990   17.9494 C   0  0  0  0  0  0  0  0  0  0  0  0
    8.2267  -19.5000   18.1840 O   0  0  0  0  0  0  0  0  0  0  0  0
    9.9418  -20.6604   19.1075 N   0  0  0  0  0  0  0  0  0  0  0  0
    9.6007  -20.2138   20.4400 C   0  0  1  0  0  0  0  0  0  0  0  0
    9.6404  -21.4585   21.3601 C   0  0  0  0  0  0  0  0  0  0  0  0
    9.1588  -20.9156   23.0348 S   0  0  0  0  0  0  0  0  0  0  0  0
   10.4522  -19.1504   20.9757 C   0  0  0  0  0  0  0  0  0  0  0  0
   11.7255  -19.2614   20.8843 O   0  0  0  0  0  0  0  0  0  0  0  0
    6.3186  -14.2139   20.5026 N   0  0  0  0  0  0  0  0  0  0  0  0
    7.2130  -13.4598   19.7225 C   0  0  0  0  0  0  0  0  0  0  0  0
    6.8488  -13.0564   18.5525 N   0  0  0  0  0  0  0  0  0  0  0  0
    8.5042  -13.1622   20.2517 N   0  0  0  0  0  0  0  0  0  0  0  0
    8.9230  -13.7519   21.5020 C   0  0  0  0  0  0  0  0  0  0  0  0
    9.7032  -15.0180   21.2195 C   0  0  0  0  0  0  0  0  0  0  0  0
   10.2342  -15.6807   22.4569 C   0  0  0  0  0  0  0  0  0  0  0  0
   10.9331  -16.9474   22.1440 C   0  0  2  0  0  0  0  0  0  0  0  0
   10.0129  -17.9602   21.6100 N   0  0  0  0  0  0  0  0  0  0  0  0
   11.6472  -17.4719   23.3201 C   0  0  0  0  0  0  0  0  0  0  0  0
   12.8326  -16.9572   23.7785 O   0  0  0  0  0  0  0  0  0  0  0  0
   11.1580  -18.4430   23.9443 O   0  0  0  0  0  0  0  0  0  0  0  0
  2  1  1  6
  2  3  1  0
  4  2  1  0
  4  5  1  6
  6  4  1  0
  7  6  2  0
  8  6  1  0
  9  8  1  0
  9 10  1  1
 11 10  1  0
 12 22  1  0
 12  9  1  0
 13 12  2  0
 14 15  1  0
 15 16  2  0
 17 18  1  0
 17 15  1  0
 19 18  1  0
 20 19  1  0
 21 20  1  1
 21 22  1  0
 23 21  1  0
 24 23  1  0
 25 23  2  0
M  END
$$$$
