VCR.pdb
     RDKit          3D

 25 24  0  0  1  0  0  0  0  0999 V2000
    7.7280  -12.2331   20.6992 C   0  0  0  0  0  0  0  0  0  0  0  0
    8.2840  -13.3799   19.8411 C   0  0  2  0  0  0  0  0  0  0  0  0
    7.4668  -13.4087   18.5958 C   0  0  0  0  0  0  0  0  0  0  0  0
    8.1495  -14.6151   20.7088 C   0  0  2  0  0  0  0  0  0  0  0  0
    6.6907  -14.8376   20.7800 N   0  0  0  0  0  0  0  0  0  0  0  0
    8.6156  -14.4258   22.0928 C   0  0  0  0  0  0  0  0  0  0  0  0
    9.8474  -14.4204   22.3332 O   0  0  0  0  0  0  0  0  0  0  0  0
    7.7743  -14.2381   23.2331 N   0  0  0  0  0  0  0  0  0  0  0  0
    8.2816  -14.3228   24.5847 C   0  0  1  0  0  0  0  0  0  0  0  0
    7.4170  -13.3773   25.4541 C   0  0  0  0  0  0  0  0  0  0  0  0
    5.7003  -13.9941   25.3909 S   0  0  0  0  0  0  0  0  0  0  0  0
    8.3046  -15.6702   25.1562 C   0  0  0  0  0  0  0  0  0  0  0  0
    7.4968  -16.5564   24.7044 O   0  0  0  0  0  0  0  0  0  0  0  0
   14.7288  -16.9672   21.4195 N   0  0  0  0  0  0  0  0  0  0  0  0
   14.9570  -16.4954   22.7243 C   0  0  0  0  0  0  0  0  0  0  0  0
   15.9868  -15.7548   22.9594 N   0  0  0  0  0  0  0  0  0  0  0  0
   14.0372  -16.8525   23.7550 N   0  0  0  0  0  0  0  0  0  0  0  0
   12.9517  -17.7611   23.4678 C   0  0  0  0  0  0  0  0  0  0  0  0
   12.1151  -17.9485   24.7153 C   0  0  0  0  0  0  0  0  0  0  0  0
   11.1206  -16.8469   24.9383 C   0  0  0  0  0  0  0  0  0  0  0  0
   10.1548  -17.1876   26.0070 C   0  0  2  0  0  0  0  0  0  0  0  0
    9.1542  -16.1288   26.1953 N   0  0  0  0  0  0  0  0  0  0  0  0
   10.8397  -17.4786   27.2776 C   0  0  0  0  0  0  0  0  0  0  0  0
   11.5379  -16.5409   27.9940 O   0  0  0  0  0  0  0  0  0  0  0  0
   10.7924  -18.6430   27.7401 O   0  0  0  0  0  0  0  0  0  0  0  0
  2  1  1  1
  2  3  1  0
  4  2  1  0
  4  5  1  1
  6  4  1  0
  7  6  2  0
  8  6  1  0
  9  8  1  0
  9 10  1  1
 11 10  1  0
 12 22  1  0
 12  9  1  0
 13 12  2  0
 14 15  1  0
 15 16  2  0
 17 18  1  0
 17 15  1  0
 19 18  1  0
 20 19  1  0
 21 20  1  6
 21 22  1  0
 23 21  1  0
 24 23  1  0
 25 23  2  0
M  END
$$$$
