VCR.pdb
     RDKit          3D

 25 24  0  0  1  0  0  0  0  0999 V2000
    7.5076  -12.2454   21.2915 C   0  0  0  0  0  0  0  0  0  0  0  0
    8.1963  -13.4574   20.6455 C   0  0  2  0  0  0  0  0  0  0  0  0
    7.5492  -13.6512   19.3177 C   0  0  0  0  0  0  0  0  0  0  0  0
    7.9775  -14.5950   21.6224 C   0  0  2  0  0  0  0  0  0  0  0  0
    6.5093  -14.7572   21.6503 N   0  0  0  0  0  0  0  0  0  0  0  0
    8.3941  -14.2865   23.0007 C   0  0  0  0  0  0  0  0  0  0  0  0
    9.6151  -14.1579   23.2615 O   0  0  0  0  0  0  0  0  0  0  0  0
    7.5144  -14.1097   24.1134 N   0  0  0  0  0  0  0  0  0  0  0  0
    8.0009  -14.0323   25.4730 C   0  0  1  0  0  0  0  0  0  0  0  0
    6.9312  -13.2728   26.2954 C   0  0  0  0  0  0  0  0  0  0  0  0
    6.1464  -12.0582   25.1816 S   0  0  0  0  0  0  0  0  0  0  0  0
    8.3106  -15.3202   26.0962 C   0  0  0  0  0  0  0  0  0  0  0  0
    7.5701  -16.3342   25.8405 O   0  0  0  0  0  0  0  0  0  0  0  0
   13.6804  -21.2844   23.6541 N   0  0  0  0  0  0  0  0  0  0  0  0
   14.0998  -20.2009   24.4460 C   0  0  0  0  0  0  0  0  0  0  0  0
   15.2475  -20.2515   25.0329 N   0  0  0  0  0  0  0  0  0  0  0  0
   13.2377  -19.0715   24.5777 N   0  0  0  0  0  0  0  0  0  0  0  0
   11.8273  -19.2671   24.8203 C   0  0  0  0  0  0  0  0  0  0  0  0
   11.4557  -18.6297   26.1420 C   0  0  0  0  0  0  0  0  0  0  0  0
   10.8611  -17.2593   25.9977 C   0  0  0  0  0  0  0  0  0  0  0  0
    9.9854  -16.9178   27.1411 C   0  0  2  0  0  0  0  0  0  0  0  0
    9.3814  -15.5878   26.9871 N   0  0  0  0  0  0  0  0  0  0  0  0
   10.7112  -17.0071   28.4193 C   0  0  0  0  0  0  0  0  0  0  0  0
   10.8323  -15.9603   29.2965 O   0  0  0  0  0  0  0  0  0  0  0  0
   11.2550  -18.0920   28.7342 O   0  0  0  0  0  0  0  0  0  0  0  0
  2  1  1  1
  2  3  1  0
  4  2  1  0
  4  5  1  1
  6  4  1  0
  7  6  2  0
  8  6  1  0
  9  8  1  0
  9 10  1  1
 11 10  1  0
 12 22  1  0
 12  9  1  0
 13 12  2  0
 14 15  1  0
 15 16  2  0
 17 18  1  0
 17 15  1  0
 19 18  1  0
 20 19  1  0
 21 20  1  6
 21 22  1  0
 23 21  1  0
 24 23  1  0
 25 23  2  0
M  END
$$$$
