RVV.pdb
     RDKit          3D

 26 25  0  0  1  0  0  0  0  0999 V2000
    9.2115  -12.7534   18.3381 N   0  0  0  0  0  0  0  0  0  0  0  0
    8.5475  -13.4744   17.3120 C   0  0  0  0  0  0  0  0  0  0  0  0
    9.1548  -13.6980   16.2145 N   0  0  0  0  0  0  0  0  0  0  0  0
    7.2282  -13.9372   17.5089 N   0  0  0  0  0  0  0  0  0  0  0  0
    6.9305  -15.1381   18.2508 C   0  0  0  0  0  0  0  0  0  0  0  0
    7.3545  -14.9456   19.6853 C   0  0  0  0  0  0  0  0  0  0  0  0
    6.3325  -15.4644   20.6644 C   0  0  0  0  0  0  0  0  0  0  0  0
    6.6331  -16.8642   21.1220 C   0  0  2  0  0  0  0  0  0  0  0  0
    5.8251  -17.7981   20.3787 N   0  0  0  0  0  0  0  0  0  0  0  0
    6.4527  -17.0186   22.5905 C   0  0  0  0  0  0  0  0  0  0  0  0
    5.2541  -17.0762   23.0040 O   0  0  0  0  0  0  0  0  0  0  0  0
    8.7589  -14.2785   15.4446 C   0  0  0  0  0  0  0  0  0  0  0  0
    8.0131  -18.4275   26.9908 C   0  0  2  0  0  0  0  0  0  0  0  0
    7.8552  -18.3781   25.5087 C   0  0  0  0  0  0  0  0  0  0  0  0
    7.0894  -19.5577   24.9543 C   0  0  1  0  0  0  0  0  0  0  0  0
    7.3144  -17.0671   24.9692 N   0  0  0  0  0  0  0  0  0  0  0  0
    7.5284  -17.0995   23.5015 C   0  0  0  0  0  0  0  0  0  0  0  0
    8.0261  -15.8822   25.4917 O   0  0  0  0  0  0  0  0  0  0  0  0
    9.2559  -15.7056   25.1837 C   0  0  0  0  0  0  0  0  0  0  0  0
    6.2962  -12.6428   27.7713 C   0  0  1  0  0  0  0  0  0  0  0  0
    7.5158  -12.4896   26.8899 C   0  0  0  0  0  0  0  0  0  0  0  0
    7.1462  -11.9954   25.5326 C   0  0  1  0  0  0  0  0  0  0  0  0
    8.2573  -13.8015   26.8972 N   0  0  0  0  0  0  0  0  0  0  0  0
    7.4814  -14.8787   26.3252 C   0  0  0  0  0  0  0  0  0  0  0  0
    8.6531  -14.1762   28.2653 O   0  0  0  0  0  0  0  0  0  0  0  0
    7.9756  -15.0064   28.9059 O   0  0  0  0  0  0  0  0  0  0  0  0
  2  1  1  0
  2  3  2  0
  4  2  1  0
  5  4  1  0
  6  5  1  0
  7  6  1  0
  7  8  1  0
  8  9  1  6
 10  8  1  0
 10 16  1  0
 11 10  2  0
 13 15  1  0
 13 12  1  6
 14 13  1  0
 15 16  1  6
 17 15  1  0
 18 17  2  0
 20 19  1  1
 20 22  1  0
 21 20  1  0
 22 23  1  6
 22 24  1  0
 23 17  1  0
 24 26  1  0
 25 24  2  0
M  END
$$$$
