RVV.pdb
     RDKit          3D

 26 25  0  0  1  0  0  0  0  0999 V2000
    7.2981  -17.0466   18.1504 N   0  0  0  0  0  0  0  0  0  0  0  0
    6.4069  -18.1432   18.2812 C   0  0  0  0  0  0  0  0  0  0  0  0
    5.9901  -18.7358   17.2332 N   0  0  0  0  0  0  0  0  0  0  0  0
    5.9890  -18.5698   19.5606 N   0  0  0  0  0  0  0  0  0  0  0  0
    6.3671  -17.8800   20.7699 C   0  0  0  0  0  0  0  0  0  0  0  0
    7.8719  -17.8113   20.8446 C   0  0  0  0  0  0  0  0  0  0  0  0
    8.3572  -17.1190   22.0926 C   0  0  0  0  0  0  0  0  0  0  0  0
    8.5320  -15.6388   21.8983 C   0  0  2  0  0  0  0  0  0  0  0  0
    9.5163  -15.4004   20.8727 N   0  0  0  0  0  0  0  0  0  0  0  0
    8.8761  -14.9491   23.1707 C   0  0  0  0  0  0  0  0  0  0  0  0
   10.1132  -14.8478   23.4353 O   0  0  0  0  0  0  0  0  0  0  0  0
    5.3140  -19.5289   17.2498 C   0  0  0  0  0  0  0  0  0  0  0  0
    7.1803  -12.5988   27.2735 C   0  0  1  0  0  0  0  0  0  0  0  0
    7.1087  -13.0452   25.8524 C   0  0  0  0  0  0  0  0  0  0  0  0
    6.8376  -11.9129   24.8882 C   0  0  1  0  0  0  0  0  0  0  0  0
    8.2792  -13.8933   25.3915 N   0  0  0  0  0  0  0  0  0  0  0  0
    7.9097  -14.4252   24.0567 C   0  0  0  0  0  0  0  0  0  0  0  0
    8.5427  -15.0523   26.2696 O   0  0  0  0  0  0  0  0  0  0  0  0
    7.6391  -15.9480   26.4102 C   0  0  0  0  0  0  0  0  0  0  0  0
   12.3827  -16.4402   27.5276 C   0  0  1  0  0  0  0  0  0  0  0  0
   11.1453  -17.2790   27.2979 C   0  0  0  0  0  0  0  0  0  0  0  0
   11.0508  -17.7303   25.8799 C   0  0  1  0  0  0  0  0  0  0  0  0
    9.9570  -16.4897   27.7835 N   0  0  0  0  0  0  0  0  0  0  0  0
    9.7279  -15.2965   27.0004 C   0  0  0  0  0  0  0  0  0  0  0  0
   10.1196  -16.1064   29.1960 O   0  0  0  0  0  0  0  0  0  0  0  0
   10.2485  -14.9038   29.5057 O   0  0  0  0  0  0  0  0  0  0  0  0
  2  1  1  0
  2  3  2  0
  4  2  1  0
  5  4  1  0
  6  5  1  0
  7  6  1  0
  7  8  1  0
  8  9  1  6
 10  8  1  0
 10 16  1  0
 11 10  2  0
 13 15  1  0
 13 12  1  1
 14 13  1  0
 15 16  1  1
 17 15  1  0
 18 17  2  0
 20 19  1  1
 20 22  1  0
 21 20  1  0
 22 23  1  6
 22 24  1  0
 23 17  1  0
 24 26  1  0
 25 24  2  0
M  END
$$$$
