RVV.pdb
     RDKit          3D

 26 25  0  0  1  0  0  0  0  0999 V2000
    3.7958  -20.8866   22.2696 N   0  0  0  0  0  0  0  0  0  0  0  0
    4.5656  -21.6690   23.1690 C   0  0  0  0  0  0  0  0  0  0  0  0
    3.9897  -22.5715   23.8598 N   0  0  0  0  0  0  0  0  0  0  0  0
    5.9543  -21.4469   23.2941 N   0  0  0  0  0  0  0  0  0  0  0  0
    6.6339  -20.3783   22.6031 C   0  0  0  0  0  0  0  0  0  0  0  0
    5.9083  -19.0832   22.8692 C   0  0  0  0  0  0  0  0  0  0  0  0
    6.7419  -18.1056   23.6578 C   0  0  0  0  0  0  0  0  0  0  0  0
    6.9265  -16.7977   22.9406 C   0  0  2  0  0  0  0  0  0  0  0  0
    7.5418  -17.0336   21.6587 N   0  0  0  0  0  0  0  0  0  0  0  0
    7.6976  -15.8216   23.7565 C   0  0  0  0  0  0  0  0  0  0  0  0
    8.9475  -15.7760   23.5406 O   0  0  0  0  0  0  0  0  0  0  0  0
    4.4846  -23.1669   24.5576 C   0  0  0  0  0  0  0  0  0  0  0  0
    7.5366  -12.2183   27.2528 C   0  0  1  0  0  0  0  0  0  0  0  0
    6.9702  -13.0562   26.1568 C   0  0  0  0  0  0  0  0  0  0  0  0
    6.3301  -12.2401   25.0569 C   0  0  1  0  0  0  0  0  0  0  0  0
    7.9223  -14.0931   25.5909 N   0  0  0  0  0  0  0  0  0  0  0  0
    7.1074  -14.9792   24.7238 C   0  0  0  0  0  0  0  0  0  0  0  0
    8.5443  -14.9428   26.6276 O   0  0  0  0  0  0  0  0  0  0  0  0
    7.8289  -15.8148   27.2330 C   0  0  0  0  0  0  0  0  0  0  0  0
   11.4455  -17.1931   26.1762 C   0  0  1  0  0  0  0  0  0  0  0  0
   11.7633  -16.4428   27.4505 C   0  0  0  0  0  0  0  0  0  0  0  0
   12.4806  -17.3114   28.4274 C   0  0  2  0  0  0  0  0  0  0  0  0
   10.4788  -15.8484   27.9677 N   0  0  0  0  0  0  0  0  0  0  0  0
    9.8949  -14.9031   27.0430 C   0  0  0  0  0  0  0  0  0  0  0  0
   10.6911  -15.1775   29.2614 O   0  0  0  0  0  0  0  0  0  0  0  0
   10.7935  -13.9343   29.3105 O   0  0  0  0  0  0  0  0  0  0  0  0
  2  1  1  0
  2  3  2  0
  4  2  1  0
  5  4  1  0
  6  5  1  0
  7  6  1  0
  7  8  1  0
  8  9  1  6
 10  8  1  0
 10 16  1  0
 11 10  2  0
 13 15  1  0
 13 12  1  1
 14 13  1  0
 15 16  1  1
 17 15  1  0
 18 17  2  0
 20 19  1  6
 20 22  1  0
 21 20  1  0
 22 23  1  1
 22 24  1  0
 23 17  1  0
 24 26  1  0
 25 24  2  0
M  END
$$$$
