RVV.pdb
     RDKit          3D

 26 25  0  0  1  0  0  0  0  0999 V2000
    6.2590  -20.7422   20.2495 N   0  0  0  0  0  0  0  0  0  0  0  0
    7.3631  -20.5697   19.3749 C   0  0  0  0  0  0  0  0  0  0  0  0
    7.3317  -21.1045   18.2189 N   0  0  0  0  0  0  0  0  0  0  0  0
    8.4824  -19.8131   19.7849 N   0  0  0  0  0  0  0  0  0  0  0  0
    8.5670  -19.1968   21.0866 C   0  0  0  0  0  0  0  0  0  0  0  0
    7.9265  -17.8327   21.0254 C   0  0  0  0  0  0  0  0  0  0  0  0
    8.7464  -16.7778   21.7234 C   0  0  0  0  0  0  0  0  0  0  0  0
    8.0226  -15.4650   21.8315 C   0  0  2  0  0  0  0  0  0  0  0  0
    8.2224  -14.7037   20.6240 N   0  0  0  0  0  0  0  0  0  0  0  0
    8.4315  -14.7041   23.0427 C   0  0  0  0  0  0  0  0  0  0  0  0
    9.5406  -14.0913   22.9705 O   0  0  0  0  0  0  0  0  0  0  0  0
    8.0807  -20.9786   17.5050 C   0  0  0  0  0  0  0  0  0  0  0  0
    7.0937  -12.6706   27.3781 C   0  0  2  0  0  0  0  0  0  0  0  0
    6.9101  -13.2155   26.0021 C   0  0  0  0  0  0  0  0  0  0  0  0
    6.3576  -12.1979   25.0302 C   0  0  1  0  0  0  0  0  0  0  0  0
    8.1248  -13.9216   25.4295 N   0  0  0  0  0  0  0  0  0  0  0  0
    7.6567  -14.6448   24.2216 C   0  0  0  0  0  0  0  0  0  0  0  0
    8.7036  -14.9253   26.3467 O   0  0  0  0  0  0  0  0  0  0  0  0
    7.9872  -15.9188   26.7186 C   0  0  0  0  0  0  0  0  0  0  0  0
   12.2766  -16.4236   25.9059 C   0  0  1  0  0  0  0  0  0  0  0  0
   12.0685  -16.1601   27.3807 C   0  0  0  0  0  0  0  0  0  0  0  0
   12.7318  -17.2012   28.2171 C   0  0  2  0  0  0  0  0  0  0  0  0
   10.5874  -16.0170   27.6186 N   0  0  0  0  0  0  0  0  0  0  0  0
   10.0125  -14.9150   26.8807 C   0  0  0  0  0  0  0  0  0  0  0  0
   10.2985  -15.8313   29.0507 O   0  0  0  0  0  0  0  0  0  0  0  0
   10.1977  -14.6800   29.5230 O   0  0  0  0  0  0  0  0  0  0  0  0
  2  1  1  0
  2  3  2  0
  4  2  1  0
  5  4  1  0
  6  5  1  0
  7  6  1  0
  7  8  1  0
  8  9  1  6
 10  8  1  0
 10 16  1  0
 11 10  2  0
 13 15  1  0
 13 12  1  1
 14 13  1  0
 15 16  1  1
 17 15  1  0
 18 17  2  0
 20 19  1  1
 20 22  1  0
 21 20  1  0
 22 23  1  6
 22 24  1  0
 23 17  1  0
 24 26  1  0
 25 24  2  0
M  END
$$$$
