RVV.pdb
     RDKit          3D

 26 25  0  0  1  0  0  0  0  0999 V2000
    3.1975  -19.7831   19.4726 N   0  0  0  0  0  0  0  0  0  0  0  0
    2.2969  -18.9906   20.2305 C   0  0  0  0  0  0  0  0  0  0  0  0
    1.0429  -19.1317   20.0546 N   0  0  0  0  0  0  0  0  0  0  0  0
    2.7890  -18.0569   21.1684 N   0  0  0  0  0  0  0  0  0  0  0  0
    3.7744  -18.4033   22.1634 C   0  0  0  0  0  0  0  0  0  0  0  0
    5.1507  -18.2227   21.5735 C   0  0  0  0  0  0  0  0  0  0  0  0
    6.1178  -17.5959   22.5451 C   0  0  0  0  0  0  0  0  0  0  0  0
    6.4192  -16.1615   22.2120 C   0  0  2  0  0  0  0  0  0  0  0  0
    6.8979  -16.0722   20.8554 N   0  0  0  0  0  0  0  0  0  0  0  0
    7.3733  -15.5559   23.1795 C   0  0  0  0  0  0  0  0  0  0  0  0
    8.6053  -15.6721   22.8974 O   0  0  0  0  0  0  0  0  0  0  0  0
    0.3225  -18.6005   20.5888 C   0  0  0  0  0  0  0  0  0  0  0  0
    7.9559  -12.8923   27.3975 C   0  0  1  0  0  0  0  0  0  0  0  0
    7.2159  -13.3522   26.1871 C   0  0  0  0  0  0  0  0  0  0  0  0
    6.6969  -12.2122   25.3408 C   0  0  1  0  0  0  0  0  0  0  0  0
    7.9507  -14.3758   25.3421 N   0  0  0  0  0  0  0  0  0  0  0  0
    6.9683  -14.8839   24.3533 C   0  0  0  0  0  0  0  0  0  0  0  0
    8.4338  -15.5364   26.1188 O   0  0  0  0  0  0  0  0  0  0  0  0
    7.5825  -16.3431   26.6319 C   0  0  0  0  0  0  0  0  0  0  0  0
   10.8557  -18.0763   24.8316 C   0  0  1  0  0  0  0  0  0  0  0  0
   11.3374  -17.7693   26.2321 C   0  0  0  0  0  0  0  0  0  0  0  0
   11.8933  -18.9845   26.8936 C   0  0  2  0  0  0  0  0  0  0  0  0
   10.2021  -17.1159   26.9770 N   0  0  0  0  0  0  0  0  0  0  0  0
    9.7838  -15.8732   26.3686 C   0  0  0  0  0  0  0  0  0  0  0  0
   10.5704  -16.8575   28.3792 O   0  0  0  0  0  0  0  0  0  0  0  0
   11.1375  -15.7893   28.6891 O   0  0  0  0  0  0  0  0  0  0  0  0
  2  1  1  0
  2  3  2  0
  4  2  1  0
  5  4  1  0
  6  5  1  0
  7  6  1  0
  7  8  1  0
  8  9  1  6
 10  8  1  0
 10 16  1  0
 11 10  2  0
 13 15  1  0
 13 12  1  1
 14 13  1  0
 15 16  1  1
 17 15  1  0
 18 17  2  0
 20 19  1  6
 20 22  1  0
 21 20  1  0
 22 23  1  1
 22 24  1  0
 23 17  1  0
 24 26  1  0
 25 24  2  0
M  END
$$$$
