RVV.pdb
     RDKit          3D

 26 25  0  0  1  0  0  0  0  0999 V2000
    9.0525  -15.1526   16.4308 N   0  0  0  0  0  0  0  0  0  0  0  0
    7.8519  -14.4337   16.1951 C   0  0  0  0  0  0  0  0  0  0  0  0
    7.5644  -14.0734   15.0073 N   0  0  0  0  0  0  0  0  0  0  0  0
    6.9879  -14.1231   17.2678 N   0  0  0  0  0  0  0  0  0  0  0  0
    7.3679  -13.2311   18.3361 C   0  0  0  0  0  0  0  0  0  0  0  0
    8.4798  -13.8664   19.1327 C   0  0  0  0  0  0  0  0  0  0  0  0
    8.4514  -13.4655   20.5855 C   0  0  0  0  0  0  0  0  0  0  0  0
    8.3262  -14.6471   21.5060 C   0  0  2  0  0  0  0  0  0  0  0  0
    6.9884  -15.1781   21.4291 N   0  0  0  0  0  0  0  0  0  0  0  0
    8.7099  -14.3059   22.9022 C   0  0  0  0  0  0  0  0  0  0  0  0
    9.9205  -13.9708   23.0837 O   0  0  0  0  0  0  0  0  0  0  0  0
    6.7091  -13.5312   14.7605 C   0  0  0  0  0  0  0  0  0  0  0  0
    7.1323  -13.2433   27.5317 C   0  0  2  0  0  0  0  0  0  0  0  0
    6.9742  -13.4757   26.0671 C   0  0  0  0  0  0  0  0  0  0  0  0
    6.3673  -12.2964   25.3418 C   0  0  1  0  0  0  0  0  0  0  0  0
    8.2226  -13.9730   25.3628 N   0  0  0  0  0  0  0  0  0  0  0  0
    7.8071  -14.3419   23.9871 C   0  0  0  0  0  0  0  0  0  0  0  0
    8.8033  -15.1806   25.9858 O   0  0  0  0  0  0  0  0  0  0  0  0
    8.1191  -16.2623   26.0094 C   0  0  0  0  0  0  0  0  0  0  0  0
   12.4592  -16.5949   25.6781 C   0  0  1  0  0  0  0  0  0  0  0  0
   12.0741  -16.6035   27.1407 C   0  0  0  0  0  0  0  0  0  0  0  0
   12.6372  -17.7919   27.8435 C   0  0  2  0  0  0  0  0  0  0  0  0
   10.5744  -16.4809   27.2229 N   0  0  0  0  0  0  0  0  0  0  0  0
   10.0813  -15.2832   26.5813 C   0  0  0  0  0  0  0  0  0  0  0  0
   10.1203  -16.4903   28.6238 O   0  0  0  0  0  0  0  0  0  0  0  0
    9.9789  -15.4145   29.2414 O   0  0  0  0  0  0  0  0  0  0  0  0
  2  1  1  0
  2  3  2  0
  4  2  1  0
  5  4  1  0
  6  5  1  0
  7  6  1  0
  7  8  1  0
  8  9  1  1
 10  8  1  0
 10 16  1  0
 11 10  2  0
 13 15  1  0
 13 12  1  1
 14 13  1  0
 15 16  1  1
 17 15  1  0
 18 17  2  0
 20 19  1  1
 20 22  1  0
 21 20  1  0
 22 23  1  6
 22 24  1  0
 23 17  1  0
 24 26  1  0
 25 24  2  0
M  END
$$$$
