RVV.pdb
     RDKit          3D

 26 25  0  0  1  0  0  0  0  0999 V2000
    9.0948  -15.1997   15.4012 N   0  0  0  0  0  0  0  0  0  0  0  0
    7.7418  -15.5392   15.6616 C   0  0  0  0  0  0  0  0  0  0  0  0
    6.8241  -15.0516   14.9245 N   0  0  0  0  0  0  0  0  0  0  0  0
    7.4201  -16.4081   16.7270 N   0  0  0  0  0  0  0  0  0  0  0  0
    8.0465  -16.3110   18.0229 C   0  0  0  0  0  0  0  0  0  0  0  0
    7.5799  -15.0463   18.6991 C   0  0  0  0  0  0  0  0  0  0  0  0
    8.1731  -14.8738   20.0741 C   0  0  0  0  0  0  0  0  0  0  0  0
    7.8154  -13.5516   20.6931 C   0  0  2  0  0  0  0  0  0  0  0  0
    8.3958  -12.4840   19.9179 N   0  0  0  0  0  0  0  0  0  0  0  0
    8.2170  -13.4821   22.1238 C   0  0  0  0  0  0  0  0  0  0  0  0
    9.3973  -13.0763   22.3545 O   0  0  0  0  0  0  0  0  0  0  0  0
    5.8074  -15.2157   15.0853 C   0  0  0  0  0  0  0  0  0  0  0  0
    6.8514  -13.2885   26.8848 C   0  0  1  0  0  0  0  0  0  0  0  0
    6.6819  -13.2087   25.4054 C   0  0  0  0  0  0  0  0  0  0  0  0
    6.3446  -11.8168   24.9215 C   0  0  1  0  0  0  0  0  0  0  0  0
    7.8182  -13.8116   24.6008 N   0  0  0  0  0  0  0  0  0  0  0  0
    7.3620  -13.8387   23.1893 C   0  0  0  0  0  0  0  0  0  0  0  0
    8.1347  -15.2021   24.9878 O   0  0  0  0  0  0  0  0  0  0  0  0
    7.2400  -16.1076   24.8527 C   0  0  0  0  0  0  0  0  0  0  0  0
   11.9921  -16.8636   25.3460 C   0  0  1  0  0  0  0  0  0  0  0  0
   10.7343  -17.6536   25.0603 C   0  0  0  0  0  0  0  0  0  0  0  0
   10.4677  -17.7388   23.5958 C   0  0  1  0  0  0  0  0  0  0  0  0
    9.6152  -17.0450   25.8653 N   0  0  0  0  0  0  0  0  0  0  0  0
    9.3637  -15.6668   25.5094 C   0  0  0  0  0  0  0  0  0  0  0  0
    9.9028  -17.1178   27.3078 O   0  0  0  0  0  0  0  0  0  0  0  0
   10.1746  -16.0782   27.9434 O   0  0  0  0  0  0  0  0  0  0  0  0
  2  1  1  0
  2  3  2  0
  4  2  1  0
  5  4  1  0
  6  5  1  0
  7  6  1  0
  7  8  1  0
  8  9  1  6
 10  8  1  0
 10 16  1  0
 11 10  2  0
 13 15  1  0
 13 12  1  1
 14 13  1  0
 15 16  1  6
 17 15  1  0
 18 17  2  0
 20 19  1  6
 20 22  1  0
 21 20  1  0
 22 23  1  6
 22 24  1  0
 23 17  1  0
 24 26  1  0
 25 24  2  0
M  END
$$$$
