RVV.pdb
     RDKit          3D

 26 25  0  0  1  0  0  0  0  0999 V2000
   12.2300  -15.5491   18.2341 N   0  0  0  0  0  0  0  0  0  0  0  0
   12.8773  -14.7336   19.1982 C   0  0  0  0  0  0  0  0  0  0  0  0
   13.9045  -15.1815   19.8045 N   0  0  0  0  0  0  0  0  0  0  0  0
   12.3853  -13.4405   19.4799 N   0  0  0  0  0  0  0  0  0  0  0  0
   11.1572  -12.9379   18.9141 C   0  0  0  0  0  0  0  0  0  0  0  0
   10.1564  -14.0636   18.8374 C   0  0  0  0  0  0  0  0  0  0  0  0
    9.0963  -13.9677   19.9048 C   0  0  0  0  0  0  0  0  0  0  0  0
    8.1143  -15.1039   19.8438 C   0  0  2  0  0  0  0  0  0  0  0  0
    7.2068  -14.8979   18.7431 N   0  0  0  0  0  0  0  0  0  0  0  0
    7.3935  -15.2841   21.1326 C   0  0  0  0  0  0  0  0  0  0  0  0
    6.3179  -14.6243   21.2691 O   0  0  0  0  0  0  0  0  0  0  0  0
   14.4094  -14.6553   20.5493 C   0  0  0  0  0  0  0  0  0  0  0  0
    6.7053  -17.9755   25.2383 C   0  0  1  0  0  0  0  0  0  0  0  0
    7.0625  -17.6856   23.8198 C   0  0  0  0  0  0  0  0  0  0  0  0
    6.1978  -18.4283   22.8269 C   0  0  1  0  0  0  0  0  0  0  0  0
    7.1554  -16.2110   23.4751 N   0  0  0  0  0  0  0  0  0  0  0  0
    7.8495  -16.1309   22.1663 C   0  0  0  0  0  0  0  0  0  0  0  0
    7.9539  -15.4332   24.4451 O   0  0  0  0  0  0  0  0  0  0  0  0
    9.2204  -15.6120   24.4981 C   0  0  0  0  0  0  0  0  0  0  0  0
    6.4075  -12.5758   27.2998 C   0  0  1  0  0  0  0  0  0  0  0  0
    7.7333  -12.3737   26.6004 C   0  0  0  0  0  0  0  0  0  0  0  0
    7.5947  -11.4655   25.4260 C   0  0  1  0  0  0  0  0  0  0  0  0
    8.2953  -13.7337   26.2764 N   0  0  0  0  0  0  0  0  0  0  0  0
    7.4597  -14.4731   25.3574 C   0  0  0  0  0  0  0  0  0  0  0  0
    8.4794  -14.5336   27.4991 O   0  0  0  0  0  0  0  0  0  0  0  0
    9.3841  -14.2391   28.3075 O   0  0  0  0  0  0  0  0  0  0  0  0
  2  1  1  0
  2  3  2  0
  4  2  1  0
  5  4  1  0
  6  5  1  0
  7  6  1  0
  7  8  1  0
  8  9  1  6
 10  8  1  0
 10 16  1  0
 11 10  2  0
 13 15  1  0
 13 12  1  1
 14 13  1  0
 15 16  1  6
 17 15  1  0
 18 17  2  0
 20 19  1  1
 20 22  1  0
 21 20  1  0
 22 23  1  6
 22 24  1  0
 23 17  1  0
 24 26  1  0
 25 24  2  0
M  END
$$$$
