RVV.pdb
     RDKit          3D

 26 25  0  0  1  0  0  0  0  0999 V2000
   10.7346  -19.6102   16.7987 N   0  0  0  0  0  0  0  0  0  0  0  0
   10.0580  -20.6154   17.5373 C   0  0  0  0  0  0  0  0  0  0  0  0
   10.6736  -21.6903   17.8354 N   0  0  0  0  0  0  0  0  0  0  0  0
    8.7173  -20.4226   17.9358 N   0  0  0  0  0  0  0  0  0  0  0  0
    8.3360  -19.4485   18.9292 C   0  0  0  0  0  0  0  0  0  0  0  0
    8.1465  -18.1117   18.2572 C   0  0  0  0  0  0  0  0  0  0  0  0
    7.4951  -17.0974   19.1623 C   0  0  0  0  0  0  0  0  0  0  0  0
    8.4053  -16.6467   20.2702 C   0  0  2  0  0  0  0  0  0  0  0  0
    9.5414  -17.5302   20.3500 N   0  0  0  0  0  0  0  0  0  0  0  0
    7.6885  -16.5436   21.5697 C   0  0  0  0  0  0  0  0  0  0  0  0
    6.6460  -15.8198   21.5777 O   0  0  0  0  0  0  0  0  0  0  0  0
   10.2610  -22.4475   18.4209 C   0  0  0  0  0  0  0  0  0  0  0  0
    7.0816  -18.4451   26.1395 C   0  0  1  0  0  0  0  0  0  0  0  0
    7.4583  -18.4377   24.6966 C   0  0  0  0  0  0  0  0  0  0  0  0
    6.7484  -19.5033   23.8930 C   0  0  1  0  0  0  0  0  0  0  0  0
    7.3634  -17.0827   24.0206 N   0  0  0  0  0  0  0  0  0  0  0  0
    8.1140  -17.1983   22.7461 C   0  0  0  0  0  0  0  0  0  0  0  0
    7.9877  -15.9949   24.8018 O   0  0  0  0  0  0  0  0  0  0  0  0
    9.2640  -15.9022   24.8351 C   0  0  0  0  0  0  0  0  0  0  0  0
    6.4108  -12.3140   25.4445 C   0  0  1  0  0  0  0  0  0  0  0  0
    7.0496  -12.8539   26.7047 C   0  0  0  0  0  0  0  0  0  0  0  0
    7.6938  -11.7663   27.4957 C   0  0  2  0  0  0  0  0  0  0  0  0
    7.9780  -13.9725   26.3079 N   0  0  0  0  0  0  0  0  0  0  0  0
    7.3091  -15.0025   25.5455 C   0  0  0  0  0  0  0  0  0  0  0  0
    8.6001  -14.5873   27.4926 O   0  0  0  0  0  0  0  0  0  0  0  0
    8.0122  -15.5055   28.1008 O   0  0  0  0  0  0  0  0  0  0  0  0
  2  1  1  0
  2  3  2  0
  4  2  1  0
  5  4  1  0
  6  5  1  0
  7  6  1  0
  7  8  1  0
  8  9  1  1
 10  8  1  0
 10 16  1  0
 11 10  2  0
 13 15  1  0
 13 12  1  1
 14 13  1  0
 15 16  1  1
 17 15  1  0
 18 17  2  0
 20 19  1  1
 20 22  1  0
 21 20  1  0
 22 23  1  6
 22 24  1  0
 23 17  1  0
 24 26  1  0
 25 24  2  0
M  END
$$$$
