RVV.pdb
     RDKit          3D

 26 25  0  0  1  0  0  0  0  0999 V2000
    7.5975  -22.1436   22.2543 N   0  0  0  0  0  0  0  0  0  0  0  0
    6.3538  -21.8480   21.6384 C   0  0  0  0  0  0  0  0  0  0  0  0
    5.8558  -22.6782   20.8100 N   0  0  0  0  0  0  0  0  0  0  0  0
    5.6785  -20.6460   21.9427 N   0  0  0  0  0  0  0  0  0  0  0  0
    6.2371  -19.6425   22.8157 C   0  0  0  0  0  0  0  0  0  0  0  0
    7.5568  -19.1808   22.2502 C   0  0  0  0  0  0  0  0  0  0  0  0
    8.2168  -18.1308   23.1072 C   0  0  0  0  0  0  0  0  0  0  0  0
    8.0443  -16.7444   22.5529 C   0  0  2  0  0  0  0  0  0  0  0  0
    8.7590  -16.6314   21.3063 N   0  0  0  0  0  0  0  0  0  0  0  0
    8.4597  -15.7012   23.5288 C   0  0  0  0  0  0  0  0  0  0  0  0
    9.6813  -15.3586   23.4953 O   0  0  0  0  0  0  0  0  0  0  0  0
    4.9728  -22.5075   20.2832 C   0  0  0  0  0  0  0  0  0  0  0  0
    7.0178  -12.6083   27.2081 C   0  0  1  0  0  0  0  0  0  0  0  0
    6.8523  -13.3485   25.9240 C   0  0  0  0  0  0  0  0  0  0  0  0
    6.3716  -12.4704   24.7912 C   0  0  1  0  0  0  0  0  0  0  0  0
    8.0528  -14.1775   25.5076 N   0  0  0  0  0  0  0  0  0  0  0  0
    7.5744  -15.1048   24.4529 C   0  0  0  0  0  0  0  0  0  0  0  0
    8.6015  -15.0029   26.6036 O   0  0  0  0  0  0  0  0  0  0  0  0
    7.8398  -15.8470   27.1919 C   0  0  0  0  0  0  0  0  0  0  0  0
   12.7259  -15.0467   27.9805 C   0  0  1  0  0  0  0  0  0  0  0  0
   11.8610  -16.2802   27.8451 C   0  0  0  0  0  0  0  0  0  0  0  0
   12.0843  -16.9589   26.5364 C   0  0  1  0  0  0  0  0  0  0  0  0
   10.4333  -15.8723   28.1025 N   0  0  0  0  0  0  0  0  0  0  0  0
    9.9263  -14.9676   27.0956 C   0  0  0  0  0  0  0  0  0  0  0  0
   10.2961  -15.2369   29.4239 O   0  0  0  0  0  0  0  0  0  0  0  0
   10.4218  -15.9201   30.4612 O   0  0  0  0  0  0  0  0  0  0  0  0
  2  1  1  0
  2  3  2  0
  4  2  1  0
  5  4  1  0
  6  5  1  0
  7  6  1  0
  7  8  1  0
  8  9  1  6
 10  8  1  0
 10 16  1  0
 11 10  2  0
 13 15  1  0
 13 12  1  1
 14 13  1  0
 15 16  1  1
 17 15  1  0
 18 17  2  0
 20 19  1  1
 20 22  1  0
 21 20  1  0
 22 23  1  6
 22 24  1  0
 23 17  1  0
 24 26  1  0
 25 24  2  0
M  END
$$$$
