RVV.pdb
     RDKit          3D

 26 25  0  0  1  0  0  0  0  0999 V2000
    9.3248  -14.8300   16.2872 N   0  0  0  0  0  0  0  0  0  0  0  0
    8.1805  -14.0480   15.9830 C   0  0  0  0  0  0  0  0  0  0  0  0
    8.0570  -13.5522   14.8158 N   0  0  0  0  0  0  0  0  0  0  0  0
    7.1918  -13.8239   16.9657 N   0  0  0  0  0  0  0  0  0  0  0  0
    7.1951  -14.5039   18.2381 C   0  0  0  0  0  0  0  0  0  0  0  0
    8.5576  -14.3580   18.8681 C   0  0  0  0  0  0  0  0  0  0  0  0
    8.4872  -13.8460   20.2842 C   0  0  0  0  0  0  0  0  0  0  0  0
    8.5282  -14.9540   21.2990 C   0  0  2  0  0  0  0  0  0  0  0  0
    7.2708  -15.6586   21.2942 N   0  0  0  0  0  0  0  0  0  0  0  0
    8.8793  -14.4519   22.6547 C   0  0  0  0  0  0  0  0  0  0  0  0
   10.0223  -13.9131   22.7730 O   0  0  0  0  0  0  0  0  0  0  0  0
    7.2122  -13.0314   14.4973 C   0  0  0  0  0  0  0  0  0  0  0  0
    7.1638  -13.3227   27.2367 C   0  0  2  0  0  0  0  0  0  0  0  0
    7.0586  -13.9453   25.8857 C   0  0  0  0  0  0  0  0  0  0  0  0
    5.8746  -13.4425   25.0916 C   0  0  1  0  0  0  0  0  0  0  0  0
    8.3328  -13.9010   25.0632 N   0  0  0  0  0  0  0  0  0  0  0  0
    8.0167  -14.5518   23.7680 C   0  0  0  0  0  0  0  0  0  0  0  0
    9.4486  -14.6536   25.6731 O   0  0  0  0  0  0  0  0  0  0  0  0
   10.6526  -14.2962   25.4259 C   0  0  0  0  0  0  0  0  0  0  0  0
   10.7908  -13.6873   27.9692 C   0  0  1  0  0  0  0  0  0  0  0  0
   10.2735  -14.9369   28.6465 C   0  0  0  0  0  0  0  0  0  0  0  0
   11.0561  -15.2517   29.8760 C   0  0  2  0  0  0  0  0  0  0  0  0
   10.2495  -16.0405   27.6208 N   0  0  0  0  0  0  0  0  0  0  0  0
    9.3341  -15.7677   26.5358 C   0  0  0  0  0  0  0  0  0  0  0  0
    9.8840  -17.3267   28.2380 O   0  0  0  0  0  0  0  0  0  0  0  0
   10.6495  -17.8612   29.0668 O   0  0  0  0  0  0  0  0  0  0  0  0
  2  1  1  0
  2  3  2  0
  4  2  1  0
  5  4  1  0
  6  5  1  0
  7  6  1  0
  7  8  1  0
  8  9  1  1
 10  8  1  0
 10 16  1  0
 11 10  2  0
 13 15  1  0
 13 12  1  1
 14 13  1  0
 15 16  1  1
 17 15  1  0
 18 17  2  0
 20 19  1  1
 20 22  1  0
 21 20  1  0
 22 23  1  6
 22 24  1  0
 23 17  1  0
 24 26  1  0
 25 24  2  0
M  END
$$$$
