RVV.pdb
     RDKit          3D

 26 25  0  0  1  0  0  0  0  0999 V2000
    4.5020  -19.3120   17.7977 N   0  0  0  0  0  0  0  0  0  0  0  0
    4.0851  -19.8693   19.0344 C   0  0  0  0  0  0  0  0  0  0  0  0
    2.8637  -19.7691   19.3827 N   0  0  0  0  0  0  0  0  0  0  0  0
    5.0167  -20.5269   19.8670 N   0  0  0  0  0  0  0  0  0  0  0  0
    6.4361  -20.2816   19.7874 C   0  0  0  0  0  0  0  0  0  0  0  0
    6.6635  -18.8855   19.2638 C   0  0  0  0  0  0  0  0  0  0  0  0
    7.6040  -18.8564   18.0862 C   0  0  0  0  0  0  0  0  0  0  0  0
    7.9506  -17.4569   17.6614 C   0  0  2  0  0  0  0  0  0  0  0  0
    8.8153  -17.5032   16.5091 N   0  0  0  0  0  0  0  0  0  0  0  0
    8.5486  -16.6714   18.7743 C   0  0  0  0  0  0  0  0  0  0  0  0
    9.7633  -16.9205   19.0452 O   0  0  0  0  0  0  0  0  0  0  0  0
    2.4682  -20.2214   20.2345 C   0  0  0  0  0  0  0  0  0  0  0  0
    7.9334  -12.8648   21.9930 C   0  0  1  0  0  0  0  0  0  0  0  0
    7.5841  -13.6880   20.7996 C   0  0  0  0  0  0  0  0  0  0  0  0
    7.4191  -12.8672   19.5409 C   0  0  1  0  0  0  0  0  0  0  0  0
    8.4883  -14.8832   20.5637 N   0  0  0  0  0  0  0  0  0  0  0  0
    7.8369  -15.6979   19.5086 C   0  0  0  0  0  0  0  0  0  0  0  0
    8.6402  -15.7452   21.7542 O   0  0  0  0  0  0  0  0  0  0  0  0
    7.6186  -16.3678   22.2095 C   0  0  0  0  0  0  0  0  0  0  0  0
   12.0881  -17.6988   23.0426 C   0  0  1  0  0  0  0  0  0  0  0  0
   10.6754  -18.0700   23.4353 C   0  0  0  0  0  0  0  0  0  0  0  0
   10.0584  -18.9902   22.4374 C   0  0  1  0  0  0  0  0  0  0  0  0
    9.9101  -16.7922   23.6646 N   0  0  0  0  0  0  0  0  0  0  0  0
    9.8340  -15.9722   22.4766 C   0  0  0  0  0  0  0  0  0  0  0  0
   10.5162  -16.0015   24.7490 O   0  0  0  0  0  0  0  0  0  0  0  0
   11.1576  -14.9642   24.4819 O   0  0  0  0  0  0  0  0  0  0  0  0
  2  1  1  0
  2  3  2  0
  4  2  1  0
  5  4  1  0
  6  5  1  0
  7  6  1  0
  7  8  1  0
  8  9  1  6
 10  8  1  0
 10 16  1  0
 11 10  2  0
 13 15  1  0
 13 12  1  1
 14 13  1  0
 15 16  1  1
 17 15  1  0
 18 17  2  0
 20 19  1  1
 20 22  1  0
 21 20  1  0
 22 23  1  6
 22 24  1  0
 23 17  1  0
 24 26  1  0
 25 24  2  0
M  END
$$$$
