RVV.pdb
     RDKit          3D

 26 25  0  0  1  0  0  0  0  0999 V2000
    5.4799  -19.9526   20.2492 N   0  0  0  0  0  0  0  0  0  0  0  0
    6.7642  -20.4724   19.9425 C   0  0  0  0  0  0  0  0  0  0  0  0
    6.9801  -21.7206   20.0792 N   0  0  0  0  0  0  0  0  0  0  0  0
    7.7890  -19.6125   19.4911 N   0  0  0  0  0  0  0  0  0  0  0  0
    7.6781  -18.1754   19.5518 C   0  0  0  0  0  0  0  0  0  0  0  0
    7.3784  -17.7667   20.9723 C   0  0  0  0  0  0  0  0  0  0  0  0
    8.4321  -16.8533   21.5450 C   0  0  0  0  0  0  0  0  0  0  0  0
    7.9513  -15.4359   21.6829 C   0  0  2  0  0  0  0  0  0  0  0  0
    8.3586  -14.6746   20.5287 N   0  0  0  0  0  0  0  0  0  0  0  0
    8.4155  -14.8136   22.9518 C   0  0  0  0  0  0  0  0  0  0  0  0
    9.6348  -14.4631   22.9898 O   0  0  0  0  0  0  0  0  0  0  0  0
    7.8945  -22.1740   19.8678 C   0  0  0  0  0  0  0  0  0  0  0  0
    7.0245  -12.8423   27.3407 C   0  0  1  0  0  0  0  0  0  0  0  0
    6.8389  -13.2752   25.9257 C   0  0  0  0  0  0  0  0  0  0  0  0
    6.2702  -12.1879   25.0428 C   0  0  1  0  0  0  0  0  0  0  0  0
    8.0577  -13.9190   25.2916 N   0  0  0  0  0  0  0  0  0  0  0  0
    7.5772  -14.6091   24.0694 C   0  0  0  0  0  0  0  0  0  0  0  0
    8.6939  -14.9385   26.1514 O   0  0  0  0  0  0  0  0  0  0  0  0
    8.0514  -16.0099   26.4306 C   0  0  0  0  0  0  0  0  0  0  0  0
   12.2930  -14.3649   28.4081 C   0  0  1  0  0  0  0  0  0  0  0  0
   12.0066  -15.7271   27.8164 C   0  0  0  0  0  0  0  0  0  0  0  0
   12.7977  -15.9565   26.5735 C   0  0  1  0  0  0  0  0  0  0  0  0
   10.5150  -15.8482   27.6395 N   0  0  0  0  0  0  0  0  0  0  0  0
    9.9849  -14.8645   26.7226 C   0  0  0  0  0  0  0  0  0  0  0  0
    9.8183  -15.7179   28.9303 O   0  0  0  0  0  0  0  0  0  0  0  0
    9.2797  -14.6357   29.2425 O   0  0  0  0  0  0  0  0  0  0  0  0
  2  1  1  0
  2  3  2  0
  4  2  1  0
  5  4  1  0
  6  5  1  0
  7  6  1  0
  7  8  1  0
  8  9  1  6
 10  8  1  0
 10 16  1  0
 11 10  2  0
 13 15  1  0
 13 12  1  1
 14 13  1  0
 15 16  1  1
 17 15  1  0
 18 17  2  0
 20 19  1  1
 20 22  1  0
 21 20  1  0
 22 23  1  6
 22 24  1  0
 23 17  1  0
 24 26  1  0
 25 24  2  0
M  END
$$$$
