RVV.pdb
     RDKit          3D

 26 25  0  0  1  0  0  0  0  0999 V2000
    5.2304  -23.9932   18.6129 N   0  0  0  0  0  0  0  0  0  0  0  0
    4.9922  -22.7701   17.9340 C   0  0  0  0  0  0  0  0  0  0  0  0
    4.0413  -22.7015   17.0888 N   0  0  0  0  0  0  0  0  0  0  0  0
    5.8024  -21.6436   18.1950 N   0  0  0  0  0  0  0  0  0  0  0  0
    6.8513  -21.6555   19.1854 C   0  0  0  0  0  0  0  0  0  0  0  0
    6.2361  -21.4905   20.5525 C   0  0  0  0  0  0  0  0  0  0  0  0
    6.2707  -20.0621   21.0329 C   0  0  0  0  0  0  0  0  0  0  0  0
    5.8707  -19.9307   22.4757 C   0  0  2  0  0  0  0  0  0  0  0  0
    4.5427  -20.4607   22.6577 N   0  0  0  0  0  0  0  0  0  0  0  0
    5.9800  -18.5270   22.9561 C   0  0  0  0  0  0  0  0  0  0  0  0
    4.9610  -17.7926   22.7743 O   0  0  0  0  0  0  0  0  0  0  0  0
    3.7886  -21.8307   16.5748 C   0  0  0  0  0  0  0  0  0  0  0  0
    8.4324  -15.1016   25.5971 C   0  0  2  0  0  0  0  0  0  0  0  0
    7.9440  -16.4631   25.2341 C   0  0  0  0  0  0  0  0  0  0  0  0
    7.0857  -17.0910   26.3085 C   0  0  1  0  0  0  0  0  0  0  0  0
    7.2814  -16.5600   23.8727 N   0  0  0  0  0  0  0  0  0  0  0  0
    7.1340  -18.0074   23.5820 C   0  0  0  0  0  0  0  0  0  0  0  0
    8.0918  -15.9731   22.7853 O   0  0  0  0  0  0  0  0  0  0  0  0
    9.1413  -16.5878   22.3862 C   0  0  0  0  0  0  0  0  0  0  0  0
    6.6238  -13.1664   20.0750 C   0  0  1  0  0  0  0  0  0  0  0  0
    8.0826  -12.9845   20.4309 C   0  0  0  0  0  0  0  0  0  0  0  0
    8.8596  -12.4453   19.2782 C   0  0  2  0  0  0  0  0  0  0  0  0
    8.5923  -14.2961   20.9699 N   0  0  0  0  0  0  0  0  0  0  0  0
    7.8288  -14.7617   22.1056 C   0  0  0  0  0  0  0  0  0  0  0  0
   10.0083  -14.1915   21.3607 O   0  0  0  0  0  0  0  0  0  0  0  0
   10.3116  -13.8550   22.5241 O   0  0  0  0  0  0  0  0  0  0  0  0
  2  1  1  0
  2  3  2  0
  4  2  1  0
  5  4  1  0
  6  5  1  0
  7  6  1  0
  7  8  1  0
  8  9  1  6
 10  8  1  0
 10 16  1  0
 11 10  2  0
 13 15  1  0
 13 12  1  1
 14 13  1  0
 15 16  1  1
 17 15  1  0
 18 17  2  0
 20 19  1  1
 20 22  1  0
 21 20  1  0
 22 23  1  6
 22 24  1  0
 23 17  1  0
 24 26  1  0
 25 24  2  0
M  END
$$$$
