RVV.pdb
     RDKit          3D

 26 25  0  0  1  0  0  0  0  0999 V2000
   11.8918  -21.7640   23.1481 N   0  0  0  0  0  0  0  0  0  0  0  0
   13.2831  -21.6205   22.9085 C   0  0  0  0  0  0  0  0  0  0  0  0
   13.9754  -22.6508   22.6215 N   0  0  0  0  0  0  0  0  0  0  0  0
   13.8899  -20.3481   22.9884 N   0  0  0  0  0  0  0  0  0  0  0  0
   13.1269  -19.1237   22.9871 C   0  0  0  0  0  0  0  0  0  0  0  0
   13.1644  -18.5245   21.6035 C   0  0  0  0  0  0  0  0  0  0  0  0
   12.4693  -17.1888   21.5336 C   0  0  0  0  0  0  0  0  0  0  0  0
   11.2061  -17.2396   20.7207 C   0  0  2  0  0  0  0  0  0  0  0  0
   11.5373  -17.3164   19.3199 N   0  0  0  0  0  0  0  0  0  0  0  0
   10.3085  -16.0911   21.0179 C   0  0  0  0  0  0  0  0  0  0  0  0
   10.6019  -14.9917   20.4557 O   0  0  0  0  0  0  0  0  0  0  0  0
   14.9974  -22.6204   22.4190 C   0  0  0  0  0  0  0  0  0  0  0  0
    6.8786  -15.5929   19.9991 C   0  0  2  0  0  0  0  0  0  0  0  0
    6.9191  -15.4890   21.4862 C   0  0  0  0  0  0  0  0  0  0  0  0
    6.4105  -16.7312   22.1815 C   0  0  2  0  0  0  0  0  0  0  0  0
    8.2526  -15.0445   22.0574 N   0  0  0  0  0  0  0  0  0  0  0  0
    9.1869  -16.1817   21.8707 C   0  0  0  0  0  0  0  0  0  0  0  0
    8.1998  -14.7513   23.5048 O   0  0  0  0  0  0  0  0  0  0  0  0
    8.9100  -15.4484   24.3099 C   0  0  0  0  0  0  0  0  0  0  0  0
    6.6558  -11.2295   25.0191 C   0  0  1  0  0  0  0  0  0  0  0  0
    6.4693  -12.4071   25.9499 C   0  0  0  0  0  0  0  0  0  0  0  0
    6.5592  -11.9895   27.3785 C   0  0  2  0  0  0  0  0  0  0  0  0
    7.4546  -13.4735   25.5469 N   0  0  0  0  0  0  0  0  0  0  0  0
    7.4249  -13.7464   24.1277 C   0  0  0  0  0  0  0  0  0  0  0  0
    7.2029  -14.7276   26.2767 O   0  0  0  0  0  0  0  0  0  0  0  0
    6.2969  -15.4989   25.8985 O   0  0  0  0  0  0  0  0  0  0  0  0
  2  1  1  0
  2  3  2  0
  4  2  1  0
  5  4  1  0
  6  5  1  0
  7  6  1  0
  7  8  1  0
  8  9  1  6
 10  8  1  0
 10 16  1  0
 11 10  2  0
 13 15  1  0
 13 12  1  6
 14 13  1  0
 15 16  1  1
 17 15  1  0
 18 17  2  0
 20 19  1  1
 20 22  1  0
 21 20  1  0
 22 23  1  1
 22 24  1  0
 23 17  1  0
 24 26  1  0
 25 24  2  0
M  END
$$$$
