RVV.pdb
     RDKit          3D

 26 25  0  0  1  0  0  0  0  0999 V2000
   10.1905  -19.0871   17.2940 N   0  0  0  0  0  0  0  0  0  0  0  0
   11.3394  -19.5371   16.5931 C   0  0  0  0  0  0  0  0  0  0  0  0
   11.3475  -19.4979   15.3196 N   0  0  0  0  0  0  0  0  0  0  0  0
   12.4594  -20.0224   17.3028 N   0  0  0  0  0  0  0  0  0  0  0  0
   12.5227  -20.0244   18.7441 C   0  0  0  0  0  0  0  0  0  0  0  0
   11.1772  -19.6221   19.2941 C   0  0  0  0  0  0  0  0  0  0  0  0
   11.2906  -18.6955   20.4777 C   0  0  0  0  0  0  0  0  0  0  0  0
    9.9549  -18.3770   21.0889 C   0  0  2  0  0  0  0  0  0  0  0  0
    8.9401  -18.3952   20.0655 N   0  0  0  0  0  0  0  0  0  0  0  0
    9.9765  -17.0861   21.8279 C   0  0  0  0  0  0  0  0  0  0  0  0
   11.1076  -16.5196   21.9313 O   0  0  0  0  0  0  0  0  0  0  0  0
   12.1705  -19.7680   14.7399 C   0  0  0  0  0  0  0  0  0  0  0  0
    7.3425  -13.2469   23.5814 C   0  0  2  0  0  0  0  0  0  0  0  0
    7.6398  -14.4336   22.7286 C   0  0  0  0  0  0  0  0  0  0  0  0
    7.6307  -14.1185   21.2501 C   0  0  1  0  0  0  0  0  0  0  0  0
    8.8872  -15.2031   23.1205 N   0  0  0  0  0  0  0  0  0  0  0  0
    8.8261  -16.4956   22.3946 C   0  0  0  0  0  0  0  0  0  0  0  0
    8.9541  -15.5119   24.5640 O   0  0  0  0  0  0  0  0  0  0  0  0
    8.1782  -16.4076   25.0482 C   0  0  0  0  0  0  0  0  0  0  0  0
   11.0011  -15.1056   29.0604 C   0  0  1  0  0  0  0  0  0  0  0  0
   10.9025  -14.5088   27.6741 C   0  0  0  0  0  0  0  0  0  0  0  0
   10.6020  -13.0495   27.7313 C   0  0  2  0  0  0  0  0  0  0  0  0
    9.9040  -15.3226   26.8921 N   0  0  0  0  0  0  0  0  0  0  0  0
    9.8136  -14.9083   25.5103 C   0  0  0  0  0  0  0  0  0  0  0  0
    8.5653  -15.2419   27.5004 O   0  0  0  0  0  0  0  0  0  0  0  0
    7.7603  -14.3652   27.1236 O   0  0  0  0  0  0  0  0  0  0  0  0
  2  1  1  0
  2  3  2  0
  4  2  1  0
  5  4  1  0
  6  5  1  0
  7  6  1  0
  7  8  1  0
  8  9  1  6
 10  8  1  0
 10 16  1  0
 11 10  2  0
 13 15  1  0
 13 12  1  6
 14 13  1  0
 15 16  1  1
 17 15  1  0
 18 17  2  0
 20 19  1  1
 20 22  1  0
 21 20  1  0
 22 23  1  1
 22 24  1  0
 23 17  1  0
 24 26  1  0
 25 24  2  0
M  END
$$$$
