RVV.pdb
     RDKit          3D

 26 25  0  0  1  0  0  0  0  0999 V2000
   15.9490  -20.4938   22.5907 N   0  0  0  0  0  0  0  0  0  0  0  0
   14.7090  -21.1838   22.5879 C   0  0  0  0  0  0  0  0  0  0  0  0
   14.6770  -22.4091   22.9357 N   0  0  0  0  0  0  0  0  0  0  0  0
   13.5258  -20.5163   22.2033 N   0  0  0  0  0  0  0  0  0  0  0  0
   13.5283  -19.3936   21.2974 C   0  0  0  0  0  0  0  0  0  0  0  0
   12.5364  -18.3678   21.7856 C   0  0  0  0  0  0  0  0  0  0  0  0
   12.4021  -17.1996   20.8424 C   0  0  0  0  0  0  0  0  0  0  0  0
   10.9796  -16.7353   20.7009 C   0  0  2  0  0  0  0  0  0  0  0  0
   10.8033  -16.1072   19.4155 N   0  0  0  0  0  0  0  0  0  0  0  0
   10.5746  -15.8398   21.8176 C   0  0  0  0  0  0  0  0  0  0  0  0
   11.1439  -14.7063   21.8604 O   0  0  0  0  0  0  0  0  0  0  0  0
   13.8095  -22.9870   22.9316 C   0  0  0  0  0  0  0  0  0  0  0  0
    6.9492  -14.4297   24.7912 C   0  0  1  0  0  0  0  0  0  0  0  0
    7.6337  -15.2051   23.7168 C   0  0  0  0  0  0  0  0  0  0  0  0
    7.1822  -14.8183   22.3270 C   0  0  1  0  0  0  0  0  0  0  0  0
    9.1474  -15.2324   23.8170 N   0  0  0  0  0  0  0  0  0  0  0  0
    9.6165  -16.1965   22.7915 C   0  0  0  0  0  0  0  0  0  0  0  0
    9.6379  -15.7096   25.1266 O   0  0  0  0  0  0  0  0  0  0  0  0
    9.9433  -16.9447   25.2674 C   0  0  0  0  0  0  0  0  0  0  0  0
    9.1943  -13.9714   29.0633 C   0  0  1  0  0  0  0  0  0  0  0  0
   10.5672  -14.3530   28.5560 C   0  0  0  0  0  0  0  0  0  0  0  0
   11.3242  -13.1574   28.0863 C   0  0  1  0  0  0  0  0  0  0  0  0
   10.3914  -15.4299   27.5167 N   0  0  0  0  0  0  0  0  0  0  0  0
    9.8182  -14.9257   26.2892 C   0  0  0  0  0  0  0  0  0  0  0  0
    9.5416  -16.5199   28.0247 O   0  0  0  0  0  0  0  0  0  0  0  0
    8.3151  -16.5159   27.7914 O   0  0  0  0  0  0  0  0  0  0  0  0
  2  1  1  0
  2  3  2  0
  4  2  1  0
  5  4  1  0
  6  5  1  0
  7  6  1  0
  7  8  1  0
  8  9  1  6
 10  8  1  0
 10 16  1  0
 11 10  2  0
 13 15  1  0
 13 12  1  1
 14 13  1  0
 15 16  1  1
 17 15  1  0
 18 17  2  0
 20 19  1  1
 20 22  1  0
 21 20  1  0
 22 23  1  6
 22 24  1  0
 23 17  1  0
 24 26  1  0
 25 24  2  0
M  END
$$$$
