RVV.pdb
     RDKit          3D

 26 25  0  0  1  0  0  0  0  0999 V2000
    6.9262  -20.6560   15.1857 N   0  0  0  0  0  0  0  0  0  0  0  0
    6.5199  -21.6704   16.0910 C   0  0  0  0  0  0  0  0  0  0  0  0
    5.4557  -22.3290   15.8521 N   0  0  0  0  0  0  0  0  0  0  0  0
    7.2892  -21.9439   17.2429 N   0  0  0  0  0  0  0  0  0  0  0  0
    8.4769  -21.1965   17.5776 C   0  0  0  0  0  0  0  0  0  0  0  0
    8.2833  -19.7586   17.1655 C   0  0  0  0  0  0  0  0  0  0  0  0
    8.6135  -18.7909   18.2731 C   0  0  0  0  0  0  0  0  0  0  0  0
    9.1629  -17.4909   17.7562 C   0  0  2  0  0  0  0  0  0  0  0  0
   10.3063  -17.7504   16.9178 N   0  0  0  0  0  0  0  0  0  0  0  0
    9.4852  -16.5468   18.8598 C   0  0  0  0  0  0  0  0  0  0  0  0
   10.7030  -16.4947   19.2136 O   0  0  0  0  0  0  0  0  0  0  0  0
    5.0918  -23.0818   16.4745 C   0  0  0  0  0  0  0  0  0  0  0  0
    7.7837  -12.9548   21.9197 C   0  0  1  0  0  0  0  0  0  0  0  0
    7.8083  -13.7656   20.6683 C   0  0  0  0  0  0  0  0  0  0  0  0
    7.8415  -12.9209   19.4151 C   0  0  1  0  0  0  0  0  0  0  0  0
    8.8708  -14.8481   20.6317 N   0  0  0  0  0  0  0  0  0  0  0  0
    8.5191  -15.7404   19.4998 C   0  0  0  0  0  0  0  0  0  0  0  0
    8.9014  -15.6785   21.8536 O   0  0  0  0  0  0  0  0  0  0  0  0
    7.8808  -16.3918   22.1503 C   0  0  0  0  0  0  0  0  0  0  0  0
   12.3846  -16.5988   24.1499 C   0  0  1  0  0  0  0  0  0  0  0  0
   11.1804  -17.5064   24.0323 C   0  0  0  0  0  0  0  0  0  0  0  0
   11.3397  -18.4774   22.9121 C   0  0  1  0  0  0  0  0  0  0  0  0
    9.9547  -16.6353   23.9353 N   0  0  0  0  0  0  0  0  0  0  0  0
    9.9736  -15.7814   22.7691 C   0  0  0  0  0  0  0  0  0  0  0  0
    9.8077  -15.7955   25.1361 O   0  0  0  0  0  0  0  0  0  0  0  0
   10.0738  -14.5769   25.0820 O   0  0  0  0  0  0  0  0  0  0  0  0
  2  1  1  0
  2  3  2  0
  4  2  1  0
  5  4  1  0
  6  5  1  0
  7  6  1  0
  7  8  1  0
  8  9  1  1
 10  8  1  0
 10 16  1  0
 11 10  2  0
 13 15  1  0
 13 12  1  6
 14 13  1  0
 15 16  1  6
 17 15  1  0
 18 17  2  0
 20 19  1  1
 20 22  1  0
 21 20  1  0
 22 23  1  6
 22 24  1  0
 23 17  1  0
 24 26  1  0
 25 24  2  0
M  END
$$$$
