AGQ.pdb
     RDKit          3D

 19 18  0  0  1  0  0  0  0  0999 V2000
   17.8057  -10.7663  -17.2696 C   0  0  0  0  0  0  0  0  0  0  0  0
   18.2144  -11.2758  -15.9048 C   0  0  2  0  0  0  0  0  0  0  0  0
   17.0816  -11.9201  -15.2720 N   0  0  0  0  0  0  0  0  0  0  0  0
   18.6858  -10.1211  -15.0627 C   0  0  0  0  0  0  0  0  0  0  0  0
   19.7105   -9.5121  -15.4649 O   0  0  0  0  0  0  0  0  0  0  0  0
   17.9755   -9.7908  -13.9004 N   0  0  0  0  0  0  0  0  0  0  0  0
   18.3829   -8.6764  -13.1013 C   0  0  0  0  0  0  0  0  0  0  0  0
   17.2166   -7.8632  -12.6436 C   0  0  0  0  0  0  0  0  0  0  0  0
   16.1789   -7.8905  -13.3278 O   0  0  0  0  0  0  0  0  0  0  0  0
   15.0671   -7.0066   -6.8590 N   0  0  0  0  0  0  0  0  0  0  0  0
   14.2968   -6.0492   -7.5712 C   0  0  0  0  0  0  0  0  0  0  0  0
   13.4015   -5.4350   -6.9174 O   0  0  0  0  0  0  0  0  0  0  0  0
   14.5898   -5.8335   -9.0016 C   0  0  0  0  0  0  0  0  0  0  0  0
   15.7392   -6.5747   -9.5588 C   0  0  0  0  0  0  0  0  0  0  0  0
   16.1122   -6.3301  -10.9790 C   0  0  2  0  0  0  0  0  0  0  0  0
   17.2499   -7.0720  -11.4730 N   0  0  0  0  0  0  0  0  0  0  0  0
   16.2450   -4.8817  -11.2832 C   0  0  0  0  0  0  0  0  0  0  0  0
   17.3770   -4.3641  -11.3448 O   0  0  0  0  0  0  0  0  0  0  0  0
   15.1282   -4.1074  -11.4975 O   0  0  0  0  0  0  0  0  0  0  0  0
  2  1  1  6
  2  3  1  0
  4  2  1  0
  4  5  2  0
  6  4  1  0
  7  8  1  0
  7  6  1  0
  8 16  1  0
  9  8  2  0
 10 11  1  0
 11 13  1  0
 12 11  2  0
 13 14  1  0
 15 14  1  1
 15 17  1  0
 16 15  1  0
 17 18  2  0
 17 19  1  0
M  END
$$$$
