AGQ.pdb
     RDKit          3D

 19 18  0  0  1  0  0  0  0  0999 V2000
   28.0041  -18.1065  -17.3853 C   0  0  0  0  0  0  0  0  0  0  0  0
   26.6159  -18.7053  -17.4450 C   0  0  2  0  0  0  0  0  0  0  0  0
   25.6687  -17.6868  -17.8503 N   0  0  0  0  0  0  0  0  0  0  0  0
   26.2458  -19.2411  -16.0883 C   0  0  0  0  0  0  0  0  0  0  0  0
   26.8642  -20.2653  -15.6994 O   0  0  0  0  0  0  0  0  0  0  0  0
   25.2541  -18.5869  -15.3446 N   0  0  0  0  0  0  0  0  0  0  0  0
   24.8145  -19.1314  -14.0970 C   0  0  0  0  0  0  0  0  0  0  0  0
   23.8044  -20.2152  -14.2873 C   0  0  0  0  0  0  0  0  0  0  0  0
   24.2076  -21.3353  -14.6459 O   0  0  0  0  0  0  0  0  0  0  0  0
   19.8967  -22.9140   -9.9150 N   0  0  0  0  0  0  0  0  0  0  0  0
   19.7843  -21.8111  -10.8027 C   0  0  0  0  0  0  0  0  0  0  0  0
   18.7668  -21.0681  -10.6654 O   0  0  0  0  0  0  0  0  0  0  0  0
   20.8464  -21.6045  -11.8066 C   0  0  0  0  0  0  0  0  0  0  0  0
   20.4120  -21.1484  -13.1424 C   0  0  0  0  0  0  0  0  0  0  0  0
   21.4331  -21.0600  -14.2219 C   0  0  2  0  0  0  0  0  0  0  0  0
   22.4213  -20.0154  -14.0766 N   0  0  0  0  0  0  0  0  0  0  0  0
   20.8190  -21.0310  -15.5747 C   0  0  0  0  0  0  0  0  0  0  0  0
   20.7250  -19.9502  -16.1880 O   0  0  0  0  0  0  0  0  0  0  0  0
   20.3534  -22.1879  -16.1557 O   0  0  0  0  0  0  0  0  0  0  0  0
  2  1  1  1
  2  3  1  0
  4  2  1  0
  4  5  2  0
  6  4  1  0
  7  8  1  0
  7  6  1  0
  8 16  1  0
  9  8  2  0
 10 11  1  0
 11 13  1  0
 12 11  2  0
 13 14  1  0
 15 14  1  1
 15 17  1  0
 16 15  1  0
 17 18  2  0
 17 19  1  0
M  END
$$$$
