AGQ.pdb
     RDKit          3D

 19 18  0  0  1  0  0  0  0  0999 V2000
   22.5050  -16.8379  -17.9678 C   0  0  0  0  0  0  0  0  0  0  0  0
   22.6787  -15.7846  -19.0401 C   0  0  2  0  0  0  0  0  0  0  0  0
   24.0840  -15.4586  -19.1721 N   0  0  0  0  0  0  0  0  0  0  0  0
   21.8987  -14.5547  -18.6611 C   0  0  0  0  0  0  0  0  0  0  0  0
   20.6516  -14.6869  -18.5622 O   0  0  0  0  0  0  0  0  0  0  0  0
   22.5857  -13.3527  -18.4428 N   0  0  0  0  0  0  0  0  0  0  0  0
   21.8619  -12.1538  -18.1507 C   0  0  0  0  0  0  0  0  0  0  0  0
   22.4577  -11.4095  -17.0009 C   0  0  0  0  0  0  0  0  0  0  0  0
   22.4372  -11.9483  -15.8806 O   0  0  0  0  0  0  0  0  0  0  0  0
   26.6000  -12.2668  -15.9931 N   0  0  0  0  0  0  0  0  0  0  0  0
   26.6217  -10.8682  -15.7467 C   0  0  0  0  0  0  0  0  0  0  0  0
   27.1553  -10.4870  -14.6622 O   0  0  0  0  0  0  0  0  0  0  0  0
   26.0350   -9.9663  -16.7571 C   0  0  0  0  0  0  0  0  0  0  0  0
   25.0608   -8.9707  -16.2666 C   0  0  0  0  0  0  0  0  0  0  0  0
   23.6556   -9.4102  -16.0475 C   0  0  2  0  0  0  0  0  0  0  0  0
   23.0379  -10.1282  -17.1391 N   0  0  0  0  0  0  0  0  0  0  0  0
   22.7868   -8.3001  -15.5777 C   0  0  0  0  0  0  0  0  0  0  0  0
   23.0408   -7.7302  -14.4989 O   0  0  0  0  0  0  0  0  0  0  0  0
   21.7040   -7.8963  -16.3243 O   0  0  0  0  0  0  0  0  0  0  0  0
  2  1  1  1
  2  3  1  0
  4  2  1  0
  4  5  2  0
  6  4  1  0
  7  8  1  0
  7  6  1  0
  8 16  1  0
  9  8  2  0
 10 11  1  0
 11 13  1  0
 12 11  2  0
 13 14  1  0
 15 14  1  6
 15 17  1  0
 16 15  1  0
 17 18  2  0
 17 19  1  0
M  END
$$$$
