AGQ.pdb
     RDKit          3D

 19 18  0  0  1  0  0  0  0  0999 V2000
   12.7278   -9.7703   -8.4058 C   0  0  0  0  0  0  0  0  0  0  0  0
   13.6089   -9.6067   -9.6248 C   0  0  2  0  0  0  0  0  0  0  0  0
   14.5984  -10.6646   -9.6496 N   0  0  0  0  0  0  0  0  0  0  0  0
   14.2905   -8.2661   -9.5705 C   0  0  0  0  0  0  0  0  0  0  0  0
   13.5427   -7.2561   -9.5123 O   0  0  0  0  0  0  0  0  0  0  0  0
   15.6910   -8.2126   -9.5871 N   0  0  0  0  0  0  0  0  0  0  0  0
   16.3631   -6.9519   -9.5148 C   0  0  0  0  0  0  0  0  0  0  0  0
   17.7723   -7.0433  -10.0014 C   0  0  0  0  0  0  0  0  0  0  0  0
   18.5026   -7.9262   -9.5187 O   0  0  0  0  0  0  0  0  0  0  0  0
   21.9196   -9.8108  -14.5960 N   0  0  0  0  0  0  0  0  0  0  0  0
   20.7626   -9.4276  -13.8668 C   0  0  0  0  0  0  0  0  0  0  0  0
   19.7780  -10.2249  -13.8964 O   0  0  0  0  0  0  0  0  0  0  0  0
   20.7863   -8.1485  -13.1305 C   0  0  0  0  0  0  0  0  0  0  0  0
   19.5543   -7.7831  -12.4029 C   0  0  0  0  0  0  0  0  0  0  0  0
   19.4991   -6.4531  -11.7367 C   0  0  2  0  0  0  0  0  0  0  0  0
   18.3000   -6.1714  -10.9806 N   0  0  0  0  0  0  0  0  0  0  0  0
   19.8146   -5.3428  -12.6725 C   0  0  0  0  0  0  0  0  0  0  0  0
   18.8948   -4.6308  -13.1197 O   0  0  0  0  0  0  0  0  0  0  0  0
   21.1143   -5.0946  -13.0492 O   0  0  0  0  0  0  0  0  0  0  0  0
  2  1  1  1
  2  3  1  0
  4  2  1  0
  4  5  2  0
  6  4  1  0
  7  8  1  0
  7  6  1  0
  8 16  1  0
  9  8  2  0
 10 11  1  0
 11 13  1  0
 12 11  2  0
 13 14  1  0
 15 14  1  6
 15 17  1  0
 16 15  1  0
 17 18  2  0
 17 19  1  0
M  END
$$$$
