AGQ.pdb
     RDKit          3D

 19 18  0  0  1  0  0  0  0  0999 V2000
   24.5193  -19.4618  -16.4353 C   0  0  0  0  0  0  0  0  0  0  0  0
   23.6851  -20.6395  -15.9811 C   0  0  2  0  0  0  0  0  0  0  0  0
   22.5737  -20.8226  -16.8922 N   0  0  0  0  0  0  0  0  0  0  0  0
   23.1725  -20.3799  -14.5902 C   0  0  0  0  0  0  0  0  0  0  0  0
   24.0382  -20.2238  -13.6909 O   0  0  0  0  0  0  0  0  0  0  0  0
   21.7888  -20.3265  -14.3730 N   0  0  0  0  0  0  0  0  0  0  0  0
   21.2766  -20.0288  -13.0709 C   0  0  0  0  0  0  0  0  0  0  0  0
   20.3895  -21.1162  -12.5593 C   0  0  0  0  0  0  0  0  0  0  0  0
   20.0832  -22.0368  -13.3368 O   0  0  0  0  0  0  0  0  0  0  0  0
   19.8413  -23.7691   -7.3035 N   0  0  0  0  0  0  0  0  0  0  0  0
   18.5018  -24.0432   -7.6883 C   0  0  0  0  0  0  0  0  0  0  0  0
   17.9384  -25.0329   -7.1323 O   0  0  0  0  0  0  0  0  0  0  0  0
   17.8642  -23.1671   -8.6906 C   0  0  0  0  0  0  0  0  0  0  0  0
   18.7100  -22.1055   -9.2724 C   0  0  0  0  0  0  0  0  0  0  0  0
   19.0317  -22.1789  -10.7240 C   0  0  2  0  0  0  0  0  0  0  0  0
   19.8911  -21.1362  -11.2369 N   0  0  0  0  0  0  0  0  0  0  0  0
   17.8138  -22.3290  -11.5621 C   0  0  0  0  0  0  0  0  0  0  0  0
   17.2449  -21.3161  -12.0130 O   0  0  0  0  0  0  0  0  0  0  0  0
   17.3094  -23.5774  -11.8443 O   0  0  0  0  0  0  0  0  0  0  0  0
  2  1  1  6
  2  3  1  0
  4  2  1  0
  4  5  2  0
  6  4  1  0
  7  8  1  0
  7  6  1  0
  8 16  1  0
  9  8  2  0
 10 11  1  0
 11 13  1  0
 12 11  2  0
 13 14  1  0
 15 14  1  1
 15 17  1  0
 16 15  1  0
 17 18  2  0
 17 19  1  0
M  END
$$$$
