AGQ.pdb
     RDKit          3D

 19 18  0  0  1  0  0  0  0  0999 V2000
   28.4753  -22.2754  -15.5407 C   0  0  0  0  0  0  0  0  0  0  0  0
   27.3787  -21.8381  -16.4869 C   0  0  2  0  0  0  0  0  0  0  0  0
   27.8519  -20.7327  -17.2950 N   0  0  0  0  0  0  0  0  0  0  0  0
   26.1737  -21.4144  -15.6911 C   0  0  0  0  0  0  0  0  0  0  0  0
   25.6375  -22.2944  -14.9695 O   0  0  0  0  0  0  0  0  0  0  0  0
   25.7210  -20.0918  -15.7922 N   0  0  0  0  0  0  0  0  0  0  0  0
   24.6302  -19.6416  -14.9836 C   0  0  0  0  0  0  0  0  0  0  0  0
   23.3112  -19.8901  -15.6390 C   0  0  0  0  0  0  0  0  0  0  0  0
   23.3082  -20.3652  -16.7879 O   0  0  0  0  0  0  0  0  0  0  0  0
   19.2231  -21.3234  -12.0133 N   0  0  0  0  0  0  0  0  0  0  0  0
   19.9120  -22.3052  -12.7740 C   0  0  0  0  0  0  0  0  0  0  0  0
   20.1939  -23.3911  -12.1845 O   0  0  0  0  0  0  0  0  0  0  0  0
   20.2435  -22.0015  -14.1799 C   0  0  0  0  0  0  0  0  0  0  0  0
   19.8517  -20.6672  -14.6767 C   0  0  0  0  0  0  0  0  0  0  0  0
   20.7945  -19.9465  -15.5754 C   0  0  2  0  0  0  0  0  0  0  0  0
   22.0792  -19.6076  -15.0067 N   0  0  0  0  0  0  0  0  0  0  0  0
   20.1648  -18.7636  -16.2175 C   0  0  0  0  0  0  0  0  0  0  0  0
   20.6430  -17.6287  -16.0265 O   0  0  0  0  0  0  0  0  0  0  0  0
   19.0581  -18.9113  -17.0213 O   0  0  0  0  0  0  0  0  0  0  0  0
  2  1  1  1
  2  3  1  0
  4  2  1  0
  4  5  2  0
  6  4  1  0
  7  8  1  0
  7  6  1  0
  8 16  1  0
  9  8  2  0
 10 11  1  0
 11 13  1  0
 12 11  2  0
 13 14  1  0
 15 14  1  1
 15 17  1  0
 16 15  1  0
 17 18  2  0
 17 19  1  0
M  END
$$$$
