AGQ.pdb
     RDKit          3D

 19 18  0  0  1  0  0  0  0  0999 V2000
   29.7162  -22.7975  -18.9873 C   0  0  0  0  0  0  0  0  0  0  0  0
   28.4069  -23.0395  -18.2688 C   0  0  2  0  0  0  0  0  0  0  0  0
   27.3133  -22.5465  -19.0810 N   0  0  0  0  0  0  0  0  0  0  0  0
   28.4262  -22.3255  -16.9442 C   0  0  0  0  0  0  0  0  0  0  0  0
   29.2437  -22.7501  -16.0874 O   0  0  0  0  0  0  0  0  0  0  0  0
   27.5527  -21.2490  -16.7376 N   0  0  0  0  0  0  0  0  0  0  0  0
   27.5782  -20.5297  -15.5014 C   0  0  0  0  0  0  0  0  0  0  0  0
   26.5877  -21.0695  -14.5223 C   0  0  0  0  0  0  0  0  0  0  0  0
   25.8517  -22.0026  -14.8877 O   0  0  0  0  0  0  0  0  0  0  0  0
   25.9169  -19.6159   -8.2212 N   0  0  0  0  0  0  0  0  0  0  0  0
   24.9827  -20.6645   -8.4331 C   0  0  0  0  0  0  0  0  0  0  0  0
   24.3528  -21.0832   -7.4163 O   0  0  0  0  0  0  0  0  0  0  0  0
   24.8074  -21.1847   -9.8033 C   0  0  0  0  0  0  0  0  0  0  0  0
   25.7022  -20.6301  -10.8391 C   0  0  0  0  0  0  0  0  0  0  0  0
   25.5101  -21.0756  -12.2464 C   0  0  2  0  0  0  0  0  0  0  0  0
   26.4584  -20.5632  -13.2092 N   0  0  0  0  0  0  0  0  0  0  0  0
   24.1134  -20.8760  -12.7128 C   0  0  0  0  0  0  0  0  0  0  0  0
   23.2649  -21.7690  -12.5239 O   0  0  0  0  0  0  0  0  0  0  0  0
   23.7495  -19.7132  -13.3516 O   0  0  0  0  0  0  0  0  0  0  0  0
  2  1  1  6
  2  3  1  0
  4  2  1  0
  4  5  2  0
  6  4  1  0
  7  8  1  0
  7  6  1  0
  8 16  1  0
  9  8  2  0
 10 11  1  0
 11 13  1  0
 12 11  2  0
 13 14  1  0
 15 14  1  1
 15 17  1  0
 16 15  1  0
 17 18  2  0
 17 19  1  0
M  END
$$$$
