AGQ.pdb
     RDKit          3D

 19 18  0  0  1  0  0  0  0  0999 V2000
   12.3681   -9.0936   -9.6393 C   0  0  0  0  0  0  0  0  0  0  0  0
   13.0090  -10.0278  -10.6421 C   0  0  2  0  0  0  0  0  0  0  0  0
   14.0097  -10.8365   -9.9762 N   0  0  0  0  0  0  0  0  0  0  0  0
   13.6477   -9.2191  -11.7388 C   0  0  0  0  0  0  0  0  0  0  0  0
   12.8728   -8.5477  -12.4678 O   0  0  0  0  0  0  0  0  0  0  0  0
   15.0408   -9.2545  -11.8884 N   0  0  0  0  0  0  0  0  0  0  0  0
   15.6740   -8.4785  -12.9099 C   0  0  0  0  0  0  0  0  0  0  0  0
   17.1625   -8.5058  -12.7880 C   0  0  0  0  0  0  0  0  0  0  0  0
   17.6546   -8.7924  -11.6828 O   0  0  0  0  0  0  0  0  0  0  0  0
   21.3853  -10.0630  -17.2400 N   0  0  0  0  0  0  0  0  0  0  0  0
   22.2081   -9.7832  -16.1166 C   0  0  0  0  0  0  0  0  0  0  0  0
   23.4448  -10.0321  -16.2376 O   0  0  0  0  0  0  0  0  0  0  0  0
   21.5778   -9.2252  -14.9042 C   0  0  0  0  0  0  0  0  0  0  0  0
   20.1172   -9.0131  -14.9578 C   0  0  0  0  0  0  0  0  0  0  0  0
   19.4612   -8.3412  -13.8029 C   0  0  2  0  0  0  0  0  0  0  0  0
   18.0227   -8.2204  -13.8725 N   0  0  0  0  0  0  0  0  0  0  0  0
   20.0927   -7.0354  -13.4801 C   0  0  0  0  0  0  0  0  0  0  0  0
   19.6402   -5.9887  -13.9828 O   0  0  0  0  0  0  0  0  0  0  0  0
   21.1731   -6.9727  -12.6306 O   0  0  0  0  0  0  0  0  0  0  0  0
  2  1  1  1
  2  3  1  0
  4  2  1  0
  4  5  2  0
  6  4  1  0
  7  8  1  0
  7  6  1  0
  8 16  1  0
  9  8  2  0
 10 11  1  0
 11 13  1  0
 12 11  2  0
 13 14  1  0
 15 14  1  6
 15 17  1  0
 16 15  1  0
 17 18  2  0
 17 19  1  0
M  END
$$$$
