AGQ.pdb
     RDKit          3D

 19 18  0  0  1  0  0  0  0  0999 V2000
   13.7932  -26.3666   -2.8926 C   0  0  0  0  0  0  0  0  0  0  0  0
   15.0051  -25.7169   -2.2616 C   0  0  2  0  0  0  0  0  0  0  0  0
   15.3669  -26.4382   -1.0584 N   0  0  0  0  0  0  0  0  0  0  0  0
   14.6848  -24.2852   -1.9263 C   0  0  0  0  0  0  0  0  0  0  0  0
   14.3513  -23.5431   -2.8857 O   0  0  0  0  0  0  0  0  0  0  0  0
   14.7724  -23.8617   -0.5930 N   0  0  0  0  0  0  0  0  0  0  0  0
   14.4208  -22.5207   -0.2402 C   0  0  0  0  0  0  0  0  0  0  0  0
   14.6002  -22.2637    1.2202 C   0  0  0  0  0  0  0  0  0  0  0  0
   15.0650  -23.1778    1.9231 O   0  0  0  0  0  0  0  0  0  0  0  0
   15.1167  -16.5509    4.0813 N   0  0  0  0  0  0  0  0  0  0  0  0
   16.0335  -17.1544    3.1799 C   0  0  0  0  0  0  0  0  0  0  0  0
   16.9499  -16.4129    2.7147 O   0  0  0  0  0  0  0  0  0  0  0  0
   15.8629  -18.5840    2.8545 C   0  0  0  0  0  0  0  0  0  0  0  0
   14.7545  -19.2871    3.5314 C   0  0  0  0  0  0  0  0  0  0  0  0
   14.5336  -20.7240    3.2117 C   0  0  2  0  0  0  0  0  0  0  0  0
   14.2642  -21.0315    1.8255 N   0  0  0  0  0  0  0  0  0  0  0  0
   13.5234  -21.3490    4.1045 C   0  0  0  0  0  0  0  0  0  0  0  0
   12.3730  -21.5680    3.6785 O   0  0  0  0  0  0  0  0  0  0  0  0
   13.8482  -21.6879    5.3977 O   0  0  0  0  0  0  0  0  0  0  0  0
  2  1  1  1
  2  3  1  0
  4  2  1  0
  4  5  2  0
  6  4  1  0
  7  8  1  0
  7  6  1  0
  8 16  1  0
  9  8  2  0
 10 11  1  0
 11 13  1  0
 12 11  2  0
 13 14  1  0
 15 14  1  6
 15 17  1  0
 16 15  1  0
 17 18  2  0
 17 19  1  0
M  END
$$$$
