AGQ.pdb
     RDKit          3D

 19 18  0  0  1  0  0  0  0  0999 V2000
   26.8094  -19.2606  -16.4622 C   0  0  0  0  0  0  0  0  0  0  0  0
   26.7156  -18.5838  -15.1122 C   0  0  2  0  0  0  0  0  0  0  0  0
   25.4671  -18.9504  -14.4752 N   0  0  0  0  0  0  0  0  0  0  0  0
   26.7798  -17.0918  -15.2975 C   0  0  0  0  0  0  0  0  0  0  0  0
   27.8017  -16.6394  -15.8751 O   0  0  0  0  0  0  0  0  0  0  0  0
   25.7223  -16.3008  -14.8279 N   0  0  0  0  0  0  0  0  0  0  0  0
   25.7876  -14.8758  -14.9355 C   0  0  0  0  0  0  0  0  0  0  0  0
   25.2145  -14.3878  -16.2256 C   0  0  0  0  0  0  0  0  0  0  0  0
   25.6101  -14.9159  -17.2794 O   0  0  0  0  0  0  0  0  0  0  0  0
   22.4315  -16.9944  -16.6362 N   0  0  0  0  0  0  0  0  0  0  0  0
   22.7202  -16.7884  -18.0115 C   0  0  0  0  0  0  0  0  0  0  0  0
   22.9519  -17.8216  -18.7079 O   0  0  0  0  0  0  0  0  0  0  0  0
   22.7257  -15.4066  -18.5303 C   0  0  0  0  0  0  0  0  0  0  0  0
   22.3579  -14.3418  -17.5754 C   0  0  0  0  0  0  0  0  0  0  0  0
   23.3089  -13.2136  -17.3793 C   0  0  2  0  0  0  0  0  0  0  0  0
   24.2489  -13.3579  -16.2910 N   0  0  0  0  0  0  0  0  0  0  0  0
   22.6169  -11.9001  -17.3179 C   0  0  0  0  0  0  0  0  0  0  0  0
   22.6052  -11.2567  -16.2507 O   0  0  0  0  0  0  0  0  0  0  0  0
   21.9889  -11.3885  -18.4300 O   0  0  0  0  0  0  0  0  0  0  0  0
  2  1  1  6
  2  3  1  0
  4  2  1  0
  4  5  2  0
  6  4  1  0
  7  8  1  0
  7  6  1  0
  8 16  1  0
  9  8  2  0
 10 11  1  0
 11 13  1  0
 12 11  2  0
 13 14  1  0
 15 14  1  1
 15 17  1  0
 16 15  1  0
 17 18  2  0
 17 19  1  0
M  END
$$$$
