AGQ.pdb
     RDKit          3D

 19 18  0  0  1  0  0  0  0  0999 V2000
   15.1488  -14.8089  -16.4676 C   0  0  0  0  0  0  0  0  0  0  0  0
   16.5532  -14.4360  -16.0460 C   0  0  2  0  0  0  0  0  0  0  0  0
   16.5885  -14.2356  -14.6116 N   0  0  0  0  0  0  0  0  0  0  0  0
   16.9664  -13.1729  -16.7520 C   0  0  0  0  0  0  0  0  0  0  0  0
   17.0344  -13.2257  -18.0071 O   0  0  0  0  0  0  0  0  0  0  0  0
   17.2478  -12.0288  -15.9928 N   0  0  0  0  0  0  0  0  0  0  0  0
   17.6986  -10.8328  -16.6352 C   0  0  0  0  0  0  0  0  0  0  0  0
   17.9034   -9.7200  -15.6601 C   0  0  0  0  0  0  0  0  0  0  0  0
   17.2557   -9.7443  -14.5990 O   0  0  0  0  0  0  0  0  0  0  0  0
   23.0687   -6.1696  -14.6150 N   0  0  0  0  0  0  0  0  0  0  0  0
   22.0916   -5.5241  -13.8112 C   0  0  0  0  0  0  0  0  0  0  0  0
   22.4844   -4.5439  -13.1106 O   0  0  0  0  0  0  0  0  0  0  0  0
   20.7046   -6.0275  -13.8494 C   0  0  0  0  0  0  0  0  0  0  0  0
   20.4257   -7.1217  -14.8012 C   0  0  0  0  0  0  0  0  0  0  0  0
   19.0159   -7.5713  -14.9627 C   0  0  2  0  0  0  0  0  0  0  0  0
   18.7975   -8.6516  -15.8976 N   0  0  0  0  0  0  0  0  0  0  0  0
   18.0922   -6.4382  -15.2293 C   0  0  0  0  0  0  0  0  0  0  0  0
   17.7382   -6.1910  -16.3983 O   0  0  0  0  0  0  0  0  0  0  0  0
   17.6248   -5.6598  -14.1957 O   0  0  0  0  0  0  0  0  0  0  0  0
  2  1  1  6
  2  3  1  0
  4  2  1  0
  4  5  2  0
  6  4  1  0
  7  8  1  0
  7  6  1  0
  8 16  1  0
  9  8  2  0
 10 11  1  0
 11 13  1  0
 12 11  2  0
 13 14  1  0
 15 14  1  6
 15 17  1  0
 16 15  1  0
 17 18  2  0
 17 19  1  0
M  END
$$$$
