AGQ.pdb
     RDKit          3D

 19 18  0  0  1  0  0  0  0  0999 V2000
   15.2843  -14.5913  -16.2680 C   0  0  0  0  0  0  0  0  0  0  0  0
   16.7847  -14.6363  -16.0781 C   0  0  2  0  0  0  0  0  0  0  0  0
   17.0900  -14.6854  -14.6628 N   0  0  0  0  0  0  0  0  0  0  0  0
   17.4018  -13.4103  -16.6952 C   0  0  0  0  0  0  0  0  0  0  0  0
   17.5683  -13.4304  -17.9419 O   0  0  0  0  0  0  0  0  0  0  0  0
   17.7513  -12.3338  -15.8684 N   0  0  0  0  0  0  0  0  0  0  0  0
   18.2480  -11.1202  -16.4400 C   0  0  0  0  0  0  0  0  0  0  0  0
   18.4647  -10.0650  -15.4053 C   0  0  0  0  0  0  0  0  0  0  0  0
   17.9402  -10.2225  -14.2892 O   0  0  0  0  0  0  0  0  0  0  0  0
   23.1934   -5.7348  -15.0741 N   0  0  0  0  0  0  0  0  0  0  0  0
   22.3548   -5.3675  -13.9883 C   0  0  0  0  0  0  0  0  0  0  0  0
   22.7554   -4.4163  -13.2528 O   0  0  0  0  0  0  0  0  0  0  0  0
   21.0900   -6.1035  -13.7954 C   0  0  0  0  0  0  0  0  0  0  0  0
   20.7578   -7.1222  -14.8118 C   0  0  0  0  0  0  0  0  0  0  0  0
   19.4993   -7.8991  -14.6438 C   0  0  2  0  0  0  0  0  0  0  0  0
   19.2364   -8.9058  -15.6469 N   0  0  0  0  0  0  0  0  0  0  0  0
   18.3182   -7.0192  -14.4465 C   0  0  0  0  0  0  0  0  0  0  0  0
   17.6025   -6.7174  -15.4210 O   0  0  0  0  0  0  0  0  0  0  0  0
   18.0086   -6.5350  -13.1965 O   0  0  0  0  0  0  0  0  0  0  0  0
  2  1  1  1
  2  3  1  0
  4  2  1  0
  4  5  2  0
  6  4  1  0
  7  8  1  0
  7  6  1  0
  8 16  1  0
  9  8  2  0
 10 11  1  0
 11 13  1  0
 12 11  2  0
 13 14  1  0
 15 14  1  6
 15 17  1  0
 16 15  1  0
 17 18  2  0
 17 19  1  0
M  END
$$$$
