AGQ.pdb
     RDKit          3D

 19 18  0  0  1  0  0  0  0  0999 V2000
   15.9405  -13.5173  -17.9055 C   0  0  0  0  0  0  0  0  0  0  0  0
   17.1778  -13.4221  -18.7710 C   0  0  2  0  0  0  0  0  0  0  0  0
   18.2926  -14.0466  -18.0884 N   0  0  0  0  0  0  0  0  0  0  0  0
   17.4863  -11.9742  -19.0415 C   0  0  0  0  0  0  0  0  0  0  0  0
   16.6203  -11.3240  -19.6818 O   0  0  0  0  0  0  0  0  0  0  0  0
   18.6945  -11.4367  -18.5771 N   0  0  0  0  0  0  0  0  0  0  0  0
   18.9565  -10.0366  -18.7098 C   0  0  0  0  0  0  0  0  0  0  0  0
   19.1569   -9.3793  -17.3836 C   0  0  0  0  0  0  0  0  0  0  0  0
   18.5221   -9.8198  -16.4096 O   0  0  0  0  0  0  0  0  0  0  0  0
   19.4251   -9.1258  -12.6261 N   0  0  0  0  0  0  0  0  0  0  0  0
   20.6736   -8.4682  -12.4649 C   0  0  0  0  0  0  0  0  0  0  0  0
   20.9896   -8.1221  -11.2874 O   0  0  0  0  0  0  0  0  0  0  0  0
   21.5086   -8.2403  -13.6605 C   0  0  0  0  0  0  0  0  0  0  0  0
   20.9780   -8.7468  -14.9422 C   0  0  0  0  0  0  0  0  0  0  0  0
   20.3962   -7.7662  -15.8993 C   0  0  2  0  0  0  0  0  0  0  0  0
   20.0331   -8.2860  -17.1980 N   0  0  0  0  0  0  0  0  0  0  0  0
   21.2305   -6.5431  -16.0267 C   0  0  0  0  0  0  0  0  0  0  0  0
   21.2643   -5.7178  -15.0936 O   0  0  0  0  0  0  0  0  0  0  0  0
   21.9659   -6.3146  -17.1667 O   0  0  0  0  0  0  0  0  0  0  0  0
  2  1  1  1
  2  3  1  0
  4  2  1  0
  4  5  2  0
  6  4  1  0
  7  8  1  0
  7  6  1  0
  8 16  1  0
  9  8  2  0
 10 11  1  0
 11 13  1  0
 12 11  2  0
 13 14  1  0
 15 14  1  6
 15 17  1  0
 16 15  1  0
 17 18  2  0
 17 19  1  0
M  END
$$$$
