IRK.pdb
     RDKit          3D

 29 28  0  0  1  0  0  0  0  0999 V2000
    8.8139  -11.9970   18.1880 C   0  0  0  0  0  0  0  0  0  0  0  0
    8.9323  -13.5048   18.1897 C   0  0  0  0  0  0  0  0  0  0  0  0
    8.2528  -14.0654   19.4203 C   0  0  2  0  0  0  0  0  0  0  0  0
    8.8283  -13.3966   20.6248 C   0  0  0  0  0  0  0  0  0  0  0  0
    8.2434  -15.5597   19.4687 C   0  0  2  0  0  0  0  0  0  0  0  0
    7.5814  -16.0392   18.2713 N   0  0  0  0  0  0  0  0  0  0  0  0
    7.6708  -16.1366   20.6970 C   0  0  0  0  0  0  0  0  0  0  0  0
    6.4340  -16.0753   20.9074 O   0  0  0  0  0  0  0  0  0  0  0  0
    6.5426  -22.0189   26.0875 N   0  0  0  0  0  0  0  0  0  0  0  0
    7.9698  -22.0145   26.2010 C   0  0  0  0  0  0  0  0  0  0  0  0
    8.5537  -22.4550   27.2570 N   0  0  0  0  0  0  0  0  0  0  0  0
    8.7666  -21.5200   25.1406 N   0  0  0  0  0  0  0  0  0  0  0  0
    8.1136  -20.9530   23.9913 C   0  0  0  0  0  0  0  0  0  0  0  0
    7.7648  -19.4726   24.2406 C   0  0  0  0  0  0  0  0  0  0  0  0
    8.1414  -18.7478   23.0021 C   0  0  0  0  0  0  0  0  0  0  0  0
    7.8597  -17.2904   22.9441 C   0  0  2  0  0  0  0  0  0  0  0  0
    8.4615  -16.7774   21.6874 N   0  0  0  0  0  0  0  0  0  0  0  0
    8.3713  -16.4715   24.0494 C   0  0  0  0  0  0  0  0  0  0  0  0
    9.6305  -16.2881   24.1166 O   0  0  0  0  0  0  0  0  0  0  0  0
    9.5901  -22.4478   27.3803 N   0  0  0  0  0  0  0  0  0  0  0  0
    7.6195  -15.8553   25.0519 C   0  0  2  0  0  0  0  0  0  0  0  0
    8.2854  -14.9718   26.0811 C   0  0  0  0  0  0  0  0  0  0  0  0
    7.1902  -14.1729   26.6741 C   0  0  0  0  0  0  0  0  0  0  0  0
    7.0908  -12.7358   26.6471 C   0  0  0  0  0  0  0  0  0  0  0  0
    5.8443  -11.9875   26.8656 C   0  0  0  0  0  0  0  0  0  0  0  0
    6.2134  -10.4727   26.6922 N   0  0  0  0  0  0  0  0  0  0  0  0
    4.9977   -9.7527   26.9283 C   0  0  0  0  0  0  0  0  0  0  0  0
    8.9978  -15.9142   26.9418 O   0  0  0  0  0  0  0  0  0  0  0  0
    8.6317  -17.0819   27.1090 O   0  0  0  0  0  0  0  0  0  0  0  0
  2  1  1  0
  2  3  1  0
  3  4  1  1
  5  6  1  6
  5  3  1  0
  7  5  1  0
  8  7  2  0
 10 12  1  0
 10  9  1  0
 11 10  2  0
 13 14  1  0
 13 12  1  0
 16 15  1  1
 15 14  1  0
 16 17  1  0
 17  7  1  0
 18 19  2  0
 18 16  1  0
 20 18  1  0
 21 20  1  0
 22 23  1  0
 21 22  1  6
 23 24  1  0
 24 25  1  0
 25 26  1  0
 27 29  1  0
 27 21  1  0
 28 27  2  0
M  END
$$$$
