IRK.pdb
     RDKit          3D

 29 28  0  0  1  0  0  0  0  0999 V2000
    8.1636  -11.5235   26.8050 C   0  0  0  0  0  0  0  0  0  0  0  0
    8.0581  -13.0276   26.6874 C   0  0  0  0  0  0  0  0  0  0  0  0
    6.6730  -13.4028   26.2067 C   0  0  2  0  0  0  0  0  0  0  0  0
    5.6713  -12.8200   27.1480 C   0  0  0  0  0  0  0  0  0  0  0  0
    6.5112  -14.8638   25.9336 C   0  0  2  0  0  0  0  0  0  0  0  0
    7.1688  -15.5912   27.0014 N   0  0  0  0  0  0  0  0  0  0  0  0
    6.9581  -15.2983   24.5991 C   0  0  0  0  0  0  0  0  0  0  0  0
    6.6834  -16.4518   24.1847 O   0  0  0  0  0  0  0  0  0  0  0  0
    9.0022  -12.9860   16.5342 N   0  0  0  0  0  0  0  0  0  0  0  0
    8.2361  -14.1629   16.8131 C   0  0  0  0  0  0  0  0  0  0  0  0
    8.1370  -15.1108   15.9519 N   0  0  0  0  0  0  0  0  0  0  0  0
    7.5698  -14.3007   18.0545 N   0  0  0  0  0  0  0  0  0  0  0  0
    7.8344  -13.3401   19.0917 C   0  0  0  0  0  0  0  0  0  0  0  0
    8.7735  -13.9373   20.1579 C   0  0  0  0  0  0  0  0  0  0  0  0
    8.0509  -13.8287   21.4490 C   0  0  0  0  0  0  0  0  0  0  0  0
    8.1874  -14.9517   22.4116 C   0  0  2  0  0  0  0  0  0  0  0  0
    7.7051  -14.4620   23.7277 N   0  0  0  0  0  0  0  0  0  0  0  0
    9.5356  -15.4980   22.6066 C   0  0  0  0  0  0  0  0  0  0  0  0
   10.3195  -14.8727   23.3929 O   0  0  0  0  0  0  0  0  0  0  0  0
    7.6067  -15.9916   16.1322 N   0  0  0  0  0  0  0  0  0  0  0  0
   10.0648  -16.6495   22.0203 C   0  0  2  0  0  0  0  0  0  0  0  0
   11.4884  -17.0717   22.2999 C   0  0  0  0  0  0  0  0  0  0  0  0
   11.4209  -18.5301   22.5407 C   0  0  0  0  0  0  0  0  0  0  0  0
   12.5263  -19.3678   22.9307 C   0  0  0  0  0  0  0  0  0  0  0  0
   12.4190  -20.8097   23.1973 C   0  0  0  0  0  0  0  0  0  0  0  0
   13.8445  -21.2704   23.6628 N   0  0  0  0  0  0  0  0  0  0  0  0
   13.7091  -22.6569   23.9964 C   0  0  0  0  0  0  0  0  0  0  0  0
   12.2289  -16.5974   21.1323 O   0  0  0  0  0  0  0  0  0  0  0  0
   11.7104  -16.4499   20.0211 O   0  0  0  0  0  0  0  0  0  0  0  0
  2  1  1  0
  2  3  1  0
  3  4  1  1
  5  6  1  1
  5  3  1  0
  7  5  1  0
  8  7  2  0
 10 12  1  0
 10  9  1  0
 11 10  2  0
 13 14  1  0
 13 12  1  0
 16 15  1  6
 15 14  1  0
 16 17  1  0
 17  7  1  0
 18 19  2  0
 18 16  1  0
 20 18  1  0
 21 20  1  0
 22 23  1  0
 21 22  1  1
 23 24  1  0
 24 25  1  0
 25 26  1  0
 27 29  1  0
 27 21  1  0
 28 27  2  0
M  END
$$$$
