IRK.pdb
     RDKit          3D

 29 28  0  0  1  0  0  0  0  0999 V2000
    7.4460  -11.7603   28.2449 C   0  0  0  0  0  0  0  0  0  0  0  0
    7.2509  -11.2808   26.8238 C   0  0  0  0  0  0  0  0  0  0  0  0
    6.5963  -12.3728   26.0056 C   0  0  2  0  0  0  0  0  0  0  0  0
    5.1490  -12.4323   26.3674 C   0  0  0  0  0  0  0  0  0  0  0  0
    7.3194  -13.6800   26.0674 C   0  0  2  0  0  0  0  0  0  0  0  0
    8.6574  -13.4250   26.5638 N   0  0  0  0  0  0  0  0  0  0  0  0
    7.3229  -14.4466   24.8098 C   0  0  0  0  0  0  0  0  0  0  0  0
    6.4424  -15.3168   24.5972 O   0  0  0  0  0  0  0  0  0  0  0  0
    7.2544  -13.1914   17.1784 N   0  0  0  0  0  0  0  0  0  0  0  0
    8.2883  -14.1671   17.0095 C   0  0  0  0  0  0  0  0  0  0  0  0
    8.2273  -15.0446   16.0735 N   0  0  0  0  0  0  0  0  0  0  0  0
    9.4045  -14.1793   17.8802 N   0  0  0  0  0  0  0  0  0  0  0  0
    9.2373  -13.6988   19.2255 C   0  0  0  0  0  0  0  0  0  0  0  0
    8.3381  -14.6536   20.0350 C   0  0  0  0  0  0  0  0  0  0  0  0
    8.2766  -14.0946   21.4078 C   0  0  0  0  0  0  0  0  0  0  0  0
    8.2762  -15.0531   22.5427 C   0  0  2  0  0  0  0  0  0  0  0  0
    8.2949  -14.2523   23.7928 N   0  0  0  0  0  0  0  0  0  0  0  0
    9.3915  -16.0052   22.6070 C   0  0  0  0  0  0  0  0  0  0  0  0
   10.4631  -15.6233   23.1810 O   0  0  0  0  0  0  0  0  0  0  0  0
    8.9561  -15.7784   15.9316 N   0  0  0  0  0  0  0  0  0  0  0  0
    9.4095  -17.3080   22.1050 C   0  0  2  0  0  0  0  0  0  0  0  0
   10.6166  -18.1943   22.3063 C   0  0  0  0  0  0  0  0  0  0  0  0
   10.0815  -19.5728   22.3605 C   0  0  0  0  0  0  0  0  0  0  0  0
   10.8597  -20.7669   22.5709 C   0  0  0  0  0  0  0  0  0  0  0  0
   10.3163  -22.1316   22.5076 C   0  0  0  0  0  0  0  0  0  0  0  0
   11.5004  -23.0866   22.8906 N   0  0  0  0  0  0  0  0  0  0  0  0
   10.9217  -24.3931   22.9916 C   0  0  0  0  0  0  0  0  0  0  0  0
   11.4997  -17.8388   21.1971 O   0  0  0  0  0  0  0  0  0  0  0  0
   11.0809  -17.4733   20.0942 O   0  0  0  0  0  0  0  0  0  0  0  0
  2  1  1  0
  2  3  1  0
  3  4  1  1
  5  6  1  6
  5  3  1  0
  7  5  1  0
  8  7  2  0
 10 12  1  0
 10  9  1  0
 11 10  2  0
 13 14  1  0
 13 12  1  0
 16 15  1  6
 15 14  1  0
 16 17  1  0
 17  7  1  0
 18 19  2  0
 18 16  1  0
 20 18  1  0
 21 20  1  0
 22 23  1  0
 21 22  1  1
 23 24  1  0
 24 25  1  0
 25 26  1  0
 27 29  1  0
 27 21  1  0
 28 27  2  0
M  END
$$$$
