IRK.pdb
     RDKit          3D

 29 28  0  0  1  0  0  0  0  0999 V2000
    6.6300  -11.3684   27.4677 C   0  0  0  0  0  0  0  0  0  0  0  0
    5.8993  -12.4708   26.7342 C   0  0  0  0  0  0  0  0  0  0  0  0
    6.8825  -13.2630   25.8999 C   0  0  2  0  0  0  0  0  0  0  0  0
    7.6441  -12.3126   25.0364 C   0  0  0  0  0  0  0  0  0  0  0  0
    6.2607  -14.4157   25.1787 C   0  0  2  0  0  0  0  0  0  0  0  0
    5.5250  -15.2027   26.1489 N   0  0  0  0  0  0  0  0  0  0  0  0
    7.1986  -15.2312   24.3884 C   0  0  0  0  0  0  0  0  0  0  0  0
    7.8567  -16.1491   24.9381 O   0  0  0  0  0  0  0  0  0  0  0  0
    8.8452  -13.3404   16.4585 N   0  0  0  0  0  0  0  0  0  0  0  0
    7.9177  -13.3901   17.5480 C   0  0  0  0  0  0  0  0  0  0  0  0
    6.8302  -12.7067   17.5265 N   0  0  0  0  0  0  0  0  0  0  0  0
    8.1879  -14.2013   18.6762 N   0  0  0  0  0  0  0  0  0  0  0  0
    9.0421  -15.3471   18.5154 C   0  0  0  0  0  0  0  0  0  0  0  0
    9.2698  -16.0486   19.8688 C   0  0  0  0  0  0  0  0  0  0  0  0
    8.3871  -15.3598   20.8421 C   0  0  0  0  0  0  0  0  0  0  0  0
    8.3231  -15.9070   22.2216 C   0  0  2  0  0  0  0  0  0  0  0  0
    7.4080  -15.0328   22.9979 N   0  0  0  0  0  0  0  0  0  0  0  0
    9.5886  -15.9942   22.9599 C   0  0  0  0  0  0  0  0  0  0  0  0
   10.1043  -14.9075   23.3806 O   0  0  0  0  0  0  0  0  0  0  0  0
    6.1403  -12.7086   18.3098 N   0  0  0  0  0  0  0  0  0  0  0  0
   10.3024  -17.1554   23.2629 C   0  0  1  0  0  0  0  0  0  0  0  0
   11.5775  -17.0871   24.0707 C   0  0  0  0  0  0  0  0  0  0  0  0
   11.3841  -18.0432   25.1833 C   0  0  0  0  0  0  0  0  0  0  0  0
   12.4221  -18.5472   26.0460 C   0  0  0  0  0  0  0  0  0  0  0  0
   12.2181  -19.5824   27.0699 C   0  0  0  0  0  0  0  0  0  0  0  0
   13.6269  -19.8414   27.7095 N   0  0  0  0  0  0  0  0  0  0  0  0
   13.4091  -20.8197   28.7330 C   0  0  0  0  0  0  0  0  0  0  0  0
   12.6263  -17.3681   23.0921 O   0  0  0  0  0  0  0  0  0  0  0  0
   13.8047  -17.0358   23.2546 O   0  0  0  0  0  0  0  0  0  0  0  0
  2  1  1  0
  2  3  1  0
  3  4  1  6
  5  6  1  1
  5  3  1  0
  7  5  1  0
  8  7  2  0
 10 12  1  0
 10  9  1  0
 11 10  2  0
 13 14  1  0
 13 12  1  0
 16 15  1  6
 15 14  1  0
 16 17  1  0
 17  7  1  0
 18 19  2  0
 18 16  1  0
 20 18  1  0
 21 20  1  0
 22 23  1  0
 21 22  1  1
 23 24  1  0
 24 25  1  0
 25 26  1  0
 27 29  1  0
 27 21  1  0
 28 27  2  0
M  END
$$$$
