IRK.pdb
     RDKit          3D

 29 28  0  0  1  0  0  0  0  0999 V2000
    6.6958  -11.3007   27.0362 C   0  0  0  0  0  0  0  0  0  0  0  0
    6.0649  -12.4574   26.2937 C   0  0  0  0  0  0  0  0  0  0  0  0
    7.1468  -13.3931   25.7993 C   0  0  2  0  0  0  0  0  0  0  0  0
    8.1596  -12.5918   25.0501 C   0  0  0  0  0  0  0  0  0  0  0  0
    6.6170  -14.5861   25.0703 C   0  0  2  0  0  0  0  0  0  0  0  0
    5.6789  -15.2615   25.9453 N   0  0  0  0  0  0  0  0  0  0  0  0
    7.6465  -15.4962   24.5402 C   0  0  0  0  0  0  0  0  0  0  0  0
    8.0525  -16.4631   25.2317 O   0  0  0  0  0  0  0  0  0  0  0  0
    7.8695  -15.2754   16.9185 N   0  0  0  0  0  0  0  0  0  0  0  0
    7.8333  -13.9211   17.3815 C   0  0  0  0  0  0  0  0  0  0  0  0
    7.2683  -12.9975   16.6904 N   0  0  0  0  0  0  0  0  0  0  0  0
    8.4253  -13.5765   18.6203 N   0  0  0  0  0  0  0  0  0  0  0  0
    9.2025  -14.5676   19.3147 C   0  0  0  0  0  0  0  0  0  0  0  0
    8.5876  -14.8703   20.6952 C   0  0  0  0  0  0  0  0  0  0  0  0
    9.3867  -15.9824   21.2659 C   0  0  0  0  0  0  0  0  0  0  0  0
    9.1157  -16.3743   22.6729 C   0  0  2  0  0  0  0  0  0  0  0  0
    8.2243  -15.3381   23.2526 N   0  0  0  0  0  0  0  0  0  0  0  0
   10.2776  -16.5088   23.5594 C   0  0  0  0  0  0  0  0  0  0  0  0
   10.7441  -15.4478   24.0888 O   0  0  0  0  0  0  0  0  0  0  0  0
    7.3291  -11.9845   16.9349 N   0  0  0  0  0  0  0  0  0  0  0  0
   10.9393  -17.6909   23.8982 C   0  0  1  0  0  0  0  0  0  0  0  0
   12.0831  -17.6776   24.8855 C   0  0  0  0  0  0  0  0  0  0  0  0
   12.0981  -19.0322   25.4807 C   0  0  0  0  0  0  0  0  0  0  0  0
   12.9757  -19.4759   26.5336 C   0  0  0  0  0  0  0  0  0  0  0  0
   12.5925  -19.5611   27.9505 C   0  0  0  0  0  0  0  0  0  0  0  0
   13.8406  -20.1433   28.7016 N   0  0  0  0  0  0  0  0  0  0  0  0
   13.4365  -20.2773   30.0694 C   0  0  0  0  0  0  0  0  0  0  0  0
   13.2321  -17.2623   24.0830 O   0  0  0  0  0  0  0  0  0  0  0  0
   13.2825  -17.4027   22.8569 O   0  0  0  0  0  0  0  0  0  0  0  0
  2  1  1  0
  2  3  1  0
  3  4  1  6
  5  6  1  1
  5  3  1  0
  7  5  1  0
  8  7  2  0
 10 12  1  0
 10  9  1  0
 11 10  2  0
 13 14  1  0
 13 12  1  0
 16 15  1  6
 15 14  1  0
 16 17  1  0
 17  7  1  0
 18 19  2  0
 18 16  1  0
 20 18  1  0
 21 20  1  0
 22 23  1  0
 21 22  1  6
 23 24  1  0
 24 25  1  0
 25 26  1  0
 27 29  1  0
 27 21  1  0
 28 27  2  0
M  END
$$$$
