IRK.pdb
     RDKit          3D

 29 28  0  0  1  0  0  0  0  0999 V2000
    6.9700  -11.7246   28.1202 C   0  0  0  0  0  0  0  0  0  0  0  0
    6.1285  -12.7574   27.4042 C   0  0  0  0  0  0  0  0  0  0  0  0
    6.9851  -13.5059   26.4060 C   0  0  2  0  0  0  0  0  0  0  0  0
    7.7246  -12.5094   25.5758 C   0  0  0  0  0  0  0  0  0  0  0  0
    6.2339  -14.5420   25.6331 C   0  0  2  0  0  0  0  0  0  0  0  0
    5.7574  -15.5386   26.5720 N   0  0  0  0  0  0  0  0  0  0  0  0
    6.9775  -15.1379   24.5100 C   0  0  0  0  0  0  0  0  0  0  0  0
    7.4772  -16.2850   24.6202 O   0  0  0  0  0  0  0  0  0  0  0  0
    8.2649  -13.2799   15.3918 N   0  0  0  0  0  0  0  0  0  0  0  0
    8.6758  -14.2249   16.3857 C   0  0  0  0  0  0  0  0  0  0  0  0
    9.8954  -14.6208   16.4622 N   0  0  0  0  0  0  0  0  0  0  0  0
    7.7348  -14.7421   17.3082 N   0  0  0  0  0  0  0  0  0  0  0  0
    7.5147  -14.0350   18.5412 C   0  0  0  0  0  0  0  0  0  0  0  0
    8.3353  -14.6664   19.6829 C   0  0  0  0  0  0  0  0  0  0  0  0
    7.6646  -14.2623   20.9429 C   0  0  0  0  0  0  0  0  0  0  0  0
    7.8537  -15.1306   22.1333 C   0  0  2  0  0  0  0  0  0  0  0  0
    7.1679  -14.4689   23.2718 N   0  0  0  0  0  0  0  0  0  0  0  0
    9.2366  -15.4020   22.5433 C   0  0  0  0  0  0  0  0  0  0  0  0
    9.9117  -14.4347   23.0252 O   0  0  0  0  0  0  0  0  0  0  0  0
   10.2240  -15.3232   17.1610 N   0  0  0  0  0  0  0  0  0  0  0  0
    9.9072  -16.6245   22.4677 C   0  0  2  0  0  0  0  0  0  0  0  0
   11.3306  -16.7537   22.9578 C   0  0  0  0  0  0  0  0  0  0  0  0
   11.4211  -18.1136   23.5339 C   0  0  0  0  0  0  0  0  0  0  0  0
   11.7758  -18.4261   24.8949 C   0  0  0  0  0  0  0  0  0  0  0  0
   11.9224  -19.7914   25.4201 C   0  0  0  0  0  0  0  0  0  0  0  0
   12.3832  -19.6339   26.9113 N   0  0  0  0  0  0  0  0  0  0  0  0
   11.1764  -19.5675   27.6803 C   0  0  0  0  0  0  0  0  0  0  0  0
   12.1357  -16.4485   21.7765 O   0  0  0  0  0  0  0  0  0  0  0  0
   11.7154  -16.5826   20.6229 O   0  0  0  0  0  0  0  0  0  0  0  0
  2  1  1  0
  2  3  1  0
  3  4  1  6
  5  6  1  1
  5  3  1  0
  7  5  1  0
  8  7  2  0
 10 12  1  0
 10  9  1  0
 11 10  2  0
 13 14  1  0
 13 12  1  0
 16 15  1  6
 15 14  1  0
 16 17  1  0
 17  7  1  0
 18 19  2  0
 18 16  1  0
 20 18  1  0
 21 20  1  0
 22 23  1  0
 21 22  1  6
 23 24  1  0
 24 25  1  0
 25 26  1  0
 27 29  1  0
 27 21  1  0
 28 27  2  0
M  END
$$$$
