IRK.pdb
     RDKit          3D

 29 28  0  0  1  0  0  0  0  0999 V2000
    7.4647  -11.5358   18.8466 C   0  0  0  0  0  0  0  0  0  0  0  0
    7.8474  -12.9288   18.3989 C   0  0  0  0  0  0  0  0  0  0  0  0
    8.0397  -13.8157   19.6100 C   0  0  2  0  0  0  0  0  0  0  0  0
    9.0005  -13.1482   20.5377 C   0  0  0  0  0  0  0  0  0  0  0  0
    8.3712  -15.2324   19.2660 C   0  0  2  0  0  0  0  0  0  0  0  0
    7.3065  -15.7471   18.4273 N   0  0  0  0  0  0  0  0  0  0  0  0
    8.6469  -16.1028   20.4218 C   0  0  0  0  0  0  0  0  0  0  0  0
    7.7041  -16.5148   21.1423 O   0  0  0  0  0  0  0  0  0  0  0  0
   15.0115  -21.7406   21.4681 N   0  0  0  0  0  0  0  0  0  0  0  0
   14.5042  -21.7413   22.8069 C   0  0  0  0  0  0  0  0  0  0  0  0
   14.8765  -22.6282   23.6581 N   0  0  0  0  0  0  0  0  0  0  0  0
   13.5755  -20.7545   23.2165 N   0  0  0  0  0  0  0  0  0  0  0  0
   13.0593  -19.8403   22.2334 C   0  0  0  0  0  0  0  0  0  0  0  0
   12.0333  -18.8819   22.8693 C   0  0  0  0  0  0  0  0  0  0  0  0
   11.5056  -18.0502   21.7599 C   0  0  0  0  0  0  0  0  0  0  0  0
   10.2023  -17.3688   21.9691 C   0  0  2  0  0  0  0  0  0  0  0  0
    9.9580  -16.5151   20.7792 N   0  0  0  0  0  0  0  0  0  0  0  0
   10.0821  -16.5186   23.1595 C   0  0  0  0  0  0  0  0  0  0  0  0
   10.7962  -15.4644   23.2083 O   0  0  0  0  0  0  0  0  0  0  0  0
   14.4998  -22.6789   24.6303 N   0  0  0  0  0  0  0  0  0  0  0  0
    9.2547  -16.7362   24.2631 C   0  0  2  0  0  0  0  0  0  0  0  0
    9.3052  -15.8122   25.4576 C   0  0  0  0  0  0  0  0  0  0  0  0
    7.9582  -15.2048   25.5360 C   0  0  0  0  0  0  0  0  0  0  0  0
    7.6250  -13.9910   26.2369 C   0  0  0  0  0  0  0  0  0  0  0  0
    6.2720  -13.4202   26.3078 C   0  0  0  0  0  0  0  0  0  0  0  0
    6.3762  -12.1779   27.2599 N   0  0  0  0  0  0  0  0  0  0  0  0
    5.0692  -11.5915   27.2692 C   0  0  0  0  0  0  0  0  0  0  0  0
    9.7371  -16.6796   26.5519 O   0  0  0  0  0  0  0  0  0  0  0  0
    9.7045  -17.9126   26.4862 O   0  0  0  0  0  0  0  0  0  0  0  0
  2  1  1  0
  2  3  1  0
  3  4  1  1
  5  6  1  1
  5  3  1  0
  7  5  1  0
  8  7  2  0
 10 12  1  0
 10  9  1  0
 11 10  2  0
 13 14  1  0
 13 12  1  0
 16 15  1  6
 15 14  1  0
 16 17  1  0
 17  7  1  0
 18 19  2  0
 18 16  1  0
 20 18  1  0
 21 20  1  0
 22 23  1  0
 21 22  1  1
 23 24  1  0
 24 25  1  0
 25 26  1  0
 27 29  1  0
 27 21  1  0
 28 27  2  0
M  END
$$$$
