IRK.pdb
     RDKit          3D

 29 28  0  0  1  0  0  0  0  0999 V2000
    6.7142  -11.5712   27.9739 C   0  0  0  0  0  0  0  0  0  0  0  0
    6.0097  -12.7003   27.2554 C   0  0  0  0  0  0  0  0  0  0  0  0
    6.9451  -13.3148   26.2367 C   0  0  2  0  0  0  0  0  0  0  0  0
    7.5090  -12.2208   25.3915 C   0  0  0  0  0  0  0  0  0  0  0  0
    6.3389  -14.4524   25.4793 C   0  0  2  0  0  0  0  0  0  0  0  0
    5.9499  -15.4679   26.4382 N   0  0  0  0  0  0  0  0  0  0  0  0
    7.1782  -14.9937   24.3967 C   0  0  0  0  0  0  0  0  0  0  0  0
    7.7820  -16.0844   24.5498 O   0  0  0  0  0  0  0  0  0  0  0  0
    9.6826  -15.1883   16.9722 N   0  0  0  0  0  0  0  0  0  0  0  0
    8.3479  -14.7122   16.7680 C   0  0  0  0  0  0  0  0  0  0  0  0
    7.6251  -15.1544   15.8026 N   0  0  0  0  0  0  0  0  0  0  0  0
    7.7994  -13.7374   17.6357 N   0  0  0  0  0  0  0  0  0  0  0  0
    8.6234  -13.2066   18.6883 C   0  0  0  0  0  0  0  0  0  0  0  0
    8.9409  -14.2964   19.7310 C   0  0  0  0  0  0  0  0  0  0  0  0
    8.0461  -14.0339   20.8848 C   0  0  0  0  0  0  0  0  0  0  0  0
    8.1548  -14.9358   22.0602 C   0  0  2  0  0  0  0  0  0  0  0  0
    7.3492  -14.3323   23.1517 N   0  0  0  0  0  0  0  0  0  0  0  0
    9.5032  -15.1812   22.5853 C   0  0  0  0  0  0  0  0  0  0  0  0
   10.1040  -14.2101   23.1507 O   0  0  0  0  0  0  0  0  0  0  0  0
    6.6640  -14.8003   15.6016 N   0  0  0  0  0  0  0  0  0  0  0  0
   10.2135  -16.3825   22.5385 C   0  0  2  0  0  0  0  0  0  0  0  0
   11.5826  -16.4927   23.1684 C   0  0  0  0  0  0  0  0  0  0  0  0
   11.6002  -17.8161   23.8301 C   0  0  0  0  0  0  0  0  0  0  0  0
   11.1757  -18.0843   25.1805 C   0  0  0  0  0  0  0  0  0  0  0  0
   11.1185  -19.4255   25.7799 C   0  0  0  0  0  0  0  0  0  0  0  0
   10.4914  -19.2357   27.2052 N   0  0  0  0  0  0  0  0  0  0  0  0
   10.3754  -20.5549   27.7516 C   0  0  0  0  0  0  0  0  0  0  0  0
   12.4994  -16.2654   22.0528 O   0  0  0  0  0  0  0  0  0  0  0  0
   12.1687  -16.4049   20.8710 O   0  0  0  0  0  0  0  0  0  0  0  0
  2  1  1  0
  2  3  1  0
  3  4  1  6
  5  6  1  1
  5  3  1  0
  7  5  1  0
  8  7  2  0
 10 12  1  0
 10  9  1  0
 11 10  2  0
 13 14  1  0
 13 12  1  0
 16 15  1  6
 15 14  1  0
 16 17  1  0
 17  7  1  0
 18 19  2  0
 18 16  1  0
 20 18  1  0
 21 20  1  0
 22 23  1  0
 21 22  1  1
 23 24  1  0
 24 25  1  0
 25 26  1  0
 27 29  1  0
 27 21  1  0
 28 27  2  0
M  END
$$$$
