IRK.pdb
     RDKit          3D

 29 28  0  0  1  0  0  0  0  0999 V2000
    7.3910  -12.2324   28.2827 C   0  0  0  0  0  0  0  0  0  0  0  0
    6.4487  -13.0446   27.4226 C   0  0  0  0  0  0  0  0  0  0  0  0
    7.2250  -13.7045   26.3036 C   0  0  2  0  0  0  0  0  0  0  0  0
    8.0648  -12.6672   25.6343 C   0  0  0  0  0  0  0  0  0  0  0  0
    6.3721  -14.5191   25.3847 C   0  0  2  0  0  0  0  0  0  0  0  0
    5.7798  -15.5907   26.1610 N   0  0  0  0  0  0  0  0  0  0  0  0
    7.0567  -15.0117   24.1772 C   0  0  0  0  0  0  0  0  0  0  0  0
    7.6147  -16.1370   24.1814 O   0  0  0  0  0  0  0  0  0  0  0  0
    8.0334  -12.9386   16.4747 N   0  0  0  0  0  0  0  0  0  0  0  0
    8.5005  -14.2808   16.3009 C   0  0  0  0  0  0  0  0  0  0  0  0
    8.9131  -14.6981   15.1583 N   0  0  0  0  0  0  0  0  0  0  0  0
    8.5148  -15.1768   17.3968 N   0  0  0  0  0  0  0  0  0  0  0  0
    7.7541  -14.8448   18.5714 C   0  0  0  0  0  0  0  0  0  0  0  0
    8.5660  -13.9217   19.5010 C   0  0  0  0  0  0  0  0  0  0  0  0
    7.7437  -13.7430   20.7228 C   0  0  0  0  0  0  0  0  0  0  0  0
    7.8531  -14.7765   21.7842 C   0  0  2  0  0  0  0  0  0  0  0  0
    7.1242  -14.2640   22.9718 N   0  0  0  0  0  0  0  0  0  0  0  0
    9.2071  -15.1425   22.2165 C   0  0  0  0  0  0  0  0  0  0  0  0
    9.8367  -14.3155   22.9537 O   0  0  0  0  0  0  0  0  0  0  0  0
    9.2679  -15.6668   14.9994 N   0  0  0  0  0  0  0  0  0  0  0  0
    9.8945  -16.3184   21.9090 C   0  0  2  0  0  0  0  0  0  0  0  0
   11.2899  -16.5556   22.4380 C   0  0  0  0  0  0  0  0  0  0  0  0
   11.1815  -17.7578   23.2939 C   0  0  0  0  0  0  0  0  0  0  0  0
   12.2822  -18.4384   23.9272 C   0  0  0  0  0  0  0  0  0  0  0  0
   12.1380  -19.6120   24.8009 C   0  0  0  0  0  0  0  0  0  0  0  0
   13.5762  -19.9276   25.3419 N   0  0  0  0  0  0  0  0  0  0  0  0
   13.3846  -20.8381   26.4311 C   0  0  0  0  0  0  0  0  0  0  0  0
   12.1113  -16.6376   21.2317 O   0  0  0  0  0  0  0  0  0  0  0  0
   11.6411  -16.8591   20.1113 O   0  0  0  0  0  0  0  0  0  0  0  0
  2  1  1  0
  2  3  1  0
  3  4  1  6
  5  6  1  1
  5  3  1  0
  7  5  1  0
  8  7  2  0
 10 12  1  0
 10  9  1  0
 11 10  2  0
 13 14  1  0
 13 12  1  0
 16 15  1  6
 15 14  1  0
 16 17  1  0
 17  7  1  0
 18 19  2  0
 18 16  1  0
 20 18  1  0
 21 20  1  0
 22 23  1  0
 21 22  1  1
 23 24  1  0
 24 25  1  0
 25 26  1  0
 27 29  1  0
 27 21  1  0
 28 27  2  0
M  END
$$$$
