IRK.pdb
     RDKit          3D

 29 28  0  0  1  0  0  0  0  0999 V2000
    6.6172  -11.7122   28.1371 C   0  0  0  0  0  0  0  0  0  0  0  0
    5.8560  -12.6993   27.2806 C   0  0  0  0  0  0  0  0  0  0  0  0
    6.8085  -13.3761   26.3188 C   0  0  2  0  0  0  0  0  0  0  0  0
    7.5218  -12.3218   25.5386 C   0  0  0  0  0  0  0  0  0  0  0  0
    6.1661  -14.4473   25.4970 C   0  0  2  0  0  0  0  0  0  0  0  0
    5.5871  -15.4176   26.4053 N   0  0  0  0  0  0  0  0  0  0  0  0
    7.0464  -15.0712   24.4944 C   0  0  0  0  0  0  0  0  0  0  0  0
    7.6728  -16.1243   24.7708 O   0  0  0  0  0  0  0  0  0  0  0  0
    8.6502  -12.6847   16.6355 N   0  0  0  0  0  0  0  0  0  0  0  0
    8.6665  -14.0797   16.3139 C   0  0  0  0  0  0  0  0  0  0  0  0
    9.1804  -14.5024   15.2152 N   0  0  0  0  0  0  0  0  0  0  0  0
    8.1109  -15.0234   17.2110 N   0  0  0  0  0  0  0  0  0  0  0  0
    7.5797  -14.5572   18.4636 C   0  0  0  0  0  0  0  0  0  0  0  0
    8.3767  -15.1462   19.6440 C   0  0  0  0  0  0  0  0  0  0  0  0
    7.7982  -14.5453   20.8708 C   0  0  0  0  0  0  0  0  0  0  0  0
    7.9832  -15.2776   22.1500 C   0  0  2  0  0  0  0  0  0  0  0  0
    7.2333  -14.5336   23.1933 N   0  0  0  0  0  0  0  0  0  0  0  0
    9.3617  -15.4437   22.6256 C   0  0  0  0  0  0  0  0  0  0  0  0
    9.9368  -14.4294   23.1396 O   0  0  0  0  0  0  0  0  0  0  0  0
    9.1676  -15.5060   14.9288 N   0  0  0  0  0  0  0  0  0  0  0  0
   10.1271  -16.6108   22.5818 C   0  0  2  0  0  0  0  0  0  0  0  0
   11.5134  -16.6458   23.1820 C   0  0  0  0  0  0  0  0  0  0  0  0
   11.5377  -17.8561   24.0329 C   0  0  0  0  0  0  0  0  0  0  0  0
   12.6883  -18.3645   24.7353 C   0  0  0  0  0  0  0  0  0  0  0  0
   12.6656  -19.5357   25.6238 C   0  0  0  0  0  0  0  0  0  0  0  0
   14.1454  -19.7458   26.0999 N   0  0  0  0  0  0  0  0  0  0  0  0
   14.0979  -20.8350   27.0292 C   0  0  0  0  0  0  0  0  0  0  0  0
   12.3983  -16.6002   22.0195 O   0  0  0  0  0  0  0  0  0  0  0  0
   13.5956  -16.3069   22.0965 O   0  0  0  0  0  0  0  0  0  0  0  0
  2  1  1  0
  2  3  1  0
  3  4  1  6
  5  6  1  1
  5  3  1  0
  7  5  1  0
  8  7  2  0
 10 12  1  0
 10  9  1  0
 11 10  2  0
 13 14  1  0
 13 12  1  0
 16 15  1  6
 15 14  1  0
 16 17  1  0
 17  7  1  0
 18 19  2  0
 18 16  1  0
 20 18  1  0
 21 20  1  0
 22 23  1  0
 21 22  1  6
 23 24  1  0
 24 25  1  0
 25 26  1  0
 27 29  1  0
 27 21  1  0
 28 27  2  0
M  END
$$$$
