IRK.pdb
     RDKit          3D

 29 28  0  0  1  0  0  0  0  0999 V2000
    7.7200  -11.6409   26.9828 C   0  0  0  0  0  0  0  0  0  0  0  0
    7.5967  -13.1402   26.8270 C   0  0  0  0  0  0  0  0  0  0  0  0
    6.3442  -13.4672   26.0429 C   0  0  2  0  0  0  0  0  0  0  0  0
    5.1801  -12.8228   26.7203 C   0  0  0  0  0  0  0  0  0  0  0  0
    6.1830  -14.9257   25.7563 C   0  0  2  0  0  0  0  0  0  0  0  0
    6.3859  -15.6478   26.9970 N   0  0  0  0  0  0  0  0  0  0  0  0
    7.0254  -15.4394   24.6627 C   0  0  0  0  0  0  0  0  0  0  0  0
    7.1919  -16.6762   24.5203 O   0  0  0  0  0  0  0  0  0  0  0  0
    9.3034  -15.2089   17.7419 N   0  0  0  0  0  0  0  0  0  0  0  0
    8.4239  -14.1928   17.2480 C   0  0  0  0  0  0  0  0  0  0  0  0
    8.7062  -13.5287   16.1853 N   0  0  0  0  0  0  0  0  0  0  0  0
    7.2181  -13.9021   17.9303 N   0  0  0  0  0  0  0  0  0  0  0  0
    7.2835  -13.5035   19.3107 C   0  0  0  0  0  0  0  0  0  0  0  0
    7.5362  -14.7245   20.2167 C   0  0  0  0  0  0  0  0  0  0  0  0
    8.2064  -14.2018   21.4327 C   0  0  0  0  0  0  0  0  0  0  0  0
    8.4124  -15.1422   22.5640 C   0  0  2  0  0  0  0  0  0  0  0  0
    7.6803  -14.5901   23.7318 N   0  0  0  0  0  0  0  0  0  0  0  0
    9.7986  -15.3843   22.9813 C   0  0  0  0  0  0  0  0  0  0  0  0
   10.3814  -14.4732   23.6550 O   0  0  0  0  0  0  0  0  0  0  0  0
    8.1046  -12.7591   15.8175 N   0  0  0  0  0  0  0  0  0  0  0  0
   10.5636  -16.5233   22.7223 C   0  0  2  0  0  0  0  0  0  0  0  0
   11.9585  -16.6590   23.2872 C   0  0  0  0  0  0  0  0  0  0  0  0
   12.0203  -18.0284   23.8443 C   0  0  0  0  0  0  0  0  0  0  0  0
   11.5493  -18.4261   25.1465 C   0  0  0  0  0  0  0  0  0  0  0  0
   11.5106  -19.8160   25.6244 C   0  0  0  0  0  0  0  0  0  0  0  0
   11.1032  -19.7417   27.1375 N   0  0  0  0  0  0  0  0  0  0  0  0
   10.8077  -21.0898   27.5214 C   0  0  0  0  0  0  0  0  0  0  0  0
   12.8261  -16.3327   22.1570 O   0  0  0  0  0  0  0  0  0  0  0  0
   13.9982  -15.9675   22.2921 O   0  0  0  0  0  0  0  0  0  0  0  0
  2  1  1  0
  2  3  1  0
  3  4  1  1
  5  6  1  1
  5  3  1  0
  7  5  1  0
  8  7  2  0
 10 12  1  0
 10  9  1  0
 11 10  2  0
 13 14  1  0
 13 12  1  0
 16 15  1  6
 15 14  1  0
 16 17  1  0
 17  7  1  0
 18 19  2  0
 18 16  1  0
 20 18  1  0
 21 20  1  0
 22 23  1  0
 21 22  1  1
 23 24  1  0
 24 25  1  0
 25 26  1  0
 27 29  1  0
 27 21  1  0
 28 27  2  0
M  END
$$$$
