IRK.pdb
     RDKit          3D

 29 28  0  0  1  0  0  0  0  0999 V2000
    6.8282  -11.4169   27.9300 C   0  0  0  0  0  0  0  0  0  0  0  0
    5.9909  -12.1674   26.9185 C   0  0  0  0  0  0  0  0  0  0  0  0
    6.8651  -13.1432   26.1609 C   0  0  2  0  0  0  0  0  0  0  0  0
    8.0542  -12.4066   25.6388 C   0  0  0  0  0  0  0  0  0  0  0  0
    6.1202  -13.9465   25.1434 C   0  0  2  0  0  0  0  0  0  0  0  0
    5.0568  -14.6552   25.8281 N   0  0  0  0  0  0  0  0  0  0  0  0
    6.9572  -14.8418   24.3266 C   0  0  0  0  0  0  0  0  0  0  0  0
    7.1053  -16.0447   24.6564 O   0  0  0  0  0  0  0  0  0  0  0  0
    9.8343  -15.0816   17.9215 N   0  0  0  0  0  0  0  0  0  0  0  0
    8.6525  -14.3748   17.5299 C   0  0  0  0  0  0  0  0  0  0  0  0
    8.7235  -13.2819   16.8587 N   0  0  0  0  0  0  0  0  0  0  0  0
    7.3752  -14.8749   17.8801 N   0  0  0  0  0  0  0  0  0  0  0  0
    7.1817  -15.4144   19.1992 C   0  0  0  0  0  0  0  0  0  0  0  0
    7.4093  -14.3281   20.2686 C   0  0  0  0  0  0  0  0  0  0  0  0
    8.6326  -14.7281   21.0065 C   0  0  0  0  0  0  0  0  0  0  0  0
    8.4584  -15.3412   22.3483 C   0  0  2  0  0  0  0  0  0  0  0  0
    7.6271  -14.4093   23.1514 N   0  0  0  0  0  0  0  0  0  0  0  0
    9.6794  -15.6207   23.1133 C   0  0  0  0  0  0  0  0  0  0  0  0
   10.1717  -14.6735   23.8092 O   0  0  0  0  0  0  0  0  0  0  0  0
    7.8832  -12.7319   16.5744 N   0  0  0  0  0  0  0  0  0  0  0  0
   10.3730  -16.8314   23.1693 C   0  0  1  0  0  0  0  0  0  0  0  0
   11.6175  -16.9676   24.0154 C   0  0  0  0  0  0  0  0  0  0  0  0
   11.4643  -18.2558   24.7269 C   0  0  0  0  0  0  0  0  0  0  0  0
   11.2854  -18.4130   26.1479 C   0  0  0  0  0  0  0  0  0  0  0  0
   11.1492  -19.7098   26.8272 C   0  0  0  0  0  0  0  0  0  0  0  0
   11.1053  -19.3910   28.3625 N   0  0  0  0  0  0  0  0  0  0  0  0
   10.9466  -20.6577   29.0124 C   0  0  0  0  0  0  0  0  0  0  0  0
   12.7099  -16.8350   23.0532 O   0  0  0  0  0  0  0  0  0  0  0  0
   12.5430  -16.9068   21.8316 O   0  0  0  0  0  0  0  0  0  0  0  0
  2  1  1  0
  2  3  1  0
  3  4  1  6
  5  6  1  1
  5  3  1  0
  7  5  1  0
  8  7  2  0
 10 12  1  0
 10  9  1  0
 11 10  2  0
 13 14  1  0
 13 12  1  0
 16 15  1  6
 15 14  1  0
 16 17  1  0
 17  7  1  0
 18 19  2  0
 18 16  1  0
 20 18  1  0
 21 20  1  0
 22 23  1  0
 21 22  1  1
 23 24  1  0
 24 25  1  0
 25 26  1  0
 27 29  1  0
 27 21  1  0
 28 27  2  0
M  END
$$$$
