IRK.pdb
     RDKit          3D

 29 28  0  0  1  0  0  0  0  0999 V2000
    7.7467  -11.4877   26.8700 C   0  0  0  0  0  0  0  0  0  0  0  0
    7.5545  -12.9868   26.9255 C   0  0  0  0  0  0  0  0  0  0  0  0
    6.3014  -13.3657   26.1660 C   0  0  2  0  0  0  0  0  0  0  0  0
    5.1564  -12.5863   26.7233 C   0  0  0  0  0  0  0  0  0  0  0  0
    6.0802  -14.8418   26.0778 C   0  0  2  0  0  0  0  0  0  0  0  0
    6.4660  -15.4259   27.3473 N   0  0  0  0  0  0  0  0  0  0  0  0
    6.7351  -15.4994   24.9341 C   0  0  0  0  0  0  0  0  0  0  0  0
    6.2952  -16.5912   24.4956 O   0  0  0  0  0  0  0  0  0  0  0  0
    8.0285  -13.6917   17.0590 N   0  0  0  0  0  0  0  0  0  0  0  0
    8.8633  -13.2314   18.1272 C   0  0  0  0  0  0  0  0  0  0  0  0
    9.5850  -12.1766   17.9992 N   0  0  0  0  0  0  0  0  0  0  0  0
    8.9059  -13.9390   19.3526 N   0  0  0  0  0  0  0  0  0  0  0  0
    7.8145  -14.8154   19.6834 C   0  0  0  0  0  0  0  0  0  0  0  0
    7.2990  -14.5268   21.1069 C   0  0  0  0  0  0  0  0  0  0  0  0
    8.4843  -14.6011   21.9959 C   0  0  0  0  0  0  0  0  0  0  0  0
    8.4651  -15.6089   23.0871 C   0  0  2  0  0  0  0  0  0  0  0  0
    7.8705  -14.9531   24.2790 N   0  0  0  0  0  0  0  0  0  0  0  0
    9.7579  -16.1757   23.4891 C   0  0  0  0  0  0  0  0  0  0  0  0
   10.4446  -15.5324   24.3484 O   0  0  0  0  0  0  0  0  0  0  0  0
   10.2777  -11.8693   18.7171 N   0  0  0  0  0  0  0  0  0  0  0  0
   10.3289  -17.3649   23.0312 C   0  0  1  0  0  0  0  0  0  0  0  0
   11.6543  -17.8430   23.5770 C   0  0  0  0  0  0  0  0  0  0  0  0
   11.3770  -19.1747   24.1591 C   0  0  0  0  0  0  0  0  0  0  0  0
   12.1111  -19.7887   25.2361 C   0  0  0  0  0  0  0  0  0  0  0  0
   11.8337  -21.1309   25.7681 C   0  0  0  0  0  0  0  0  0  0  0  0
   12.8415  -21.3438   26.9512 N   0  0  0  0  0  0  0  0  0  0  0  0
   12.1994  -22.2652   27.8405 C   0  0  0  0  0  0  0  0  0  0  0  0
   12.5538  -17.7648   22.4274 O   0  0  0  0  0  0  0  0  0  0  0  0
   12.1527  -17.7426   21.2595 O   0  0  0  0  0  0  0  0  0  0  0  0
  2  1  1  0
  2  3  1  0
  3  4  1  1
  5  6  1  1
  5  3  1  0
  7  5  1  0
  8  7  2  0
 10 12  1  0
 10  9  1  0
 11 10  2  0
 13 14  1  0
 13 12  1  0
 16 15  1  6
 15 14  1  0
 16 17  1  0
 17  7  1  0
 18 19  2  0
 18 16  1  0
 20 18  1  0
 21 20  1  0
 22 23  1  0
 21 22  1  6
 23 24  1  0
 24 25  1  0
 25 26  1  0
 27 29  1  0
 27 21  1  0
 28 27  2  0
M  END
$$$$
