IRK.pdb
     RDKit          3D

 29 28  0  0  1  0  0  0  0  0999 V2000
    7.4845  -12.1864   28.4763 C   0  0  0  0  0  0  0  0  0  0  0  0
    6.5277  -13.0298   27.6635 C   0  0  0  0  0  0  0  0  0  0  0  0
    7.2746  -13.6879   26.5236 C   0  0  2  0  0  0  0  0  0  0  0  0
    7.8221  -12.6188   25.6368 C   0  0  0  0  0  0  0  0  0  0  0  0
    6.4846  -14.7478   25.8252 C   0  0  2  0  0  0  0  0  0  0  0  0
    6.2120  -15.8023   26.7821 N   0  0  0  0  0  0  0  0  0  0  0  0
    7.0927  -15.2579   24.5845 C   0  0  0  0  0  0  0  0  0  0  0  0
    7.6949  -16.3602   24.5822 O   0  0  0  0  0  0  0  0  0  0  0  0
    8.7232  -12.8679   17.1244 N   0  0  0  0  0  0  0  0  0  0  0  0
    8.3215  -14.1782   16.7100 C   0  0  0  0  0  0  0  0  0  0  0  0
    8.9244  -14.7863   15.7527 N   0  0  0  0  0  0  0  0  0  0  0  0
    7.2431  -14.8294   17.3558 N   0  0  0  0  0  0  0  0  0  0  0  0
    6.7820  -14.3172   18.6182 C   0  0  0  0  0  0  0  0  0  0  0  0
    7.8908  -14.4209   19.6836 C   0  0  0  0  0  0  0  0  0  0  0  0
    7.2220  -14.2232   20.9930 C   0  0  0  0  0  0  0  0  0  0  0  0
    7.6138  -15.1215   22.1094 C   0  0  2  0  0  0  0  0  0  0  0  0
    7.0354  -14.5530   23.3530 N   0  0  0  0  0  0  0  0  0  0  0  0
    9.0516  -15.3124   22.3337 C   0  0  0  0  0  0  0  0  0  0  0  0
    9.6908  -14.3722   22.9092 O   0  0  0  0  0  0  0  0  0  0  0  0
    8.6816  -15.7555   15.4505 N   0  0  0  0  0  0  0  0  0  0  0  0
    9.8116  -16.4308   21.9853 C   0  0  2  0  0  0  0  0  0  0  0  0
   11.2658  -16.5285   22.3841 C   0  0  0  0  0  0  0  0  0  0  0  0
   11.3783  -17.7992   23.1337 C   0  0  0  0  0  0  0  0  0  0  0  0
   12.6015  -18.3707   23.6368 C   0  0  0  0  0  0  0  0  0  0  0  0
   12.6716  -19.5954   24.4472 C   0  0  0  0  0  0  0  0  0  0  0  0
   14.1789  -19.7627   24.8483 N   0  0  0  0  0  0  0  0  0  0  0  0
   14.2208  -20.9033   25.7139 C   0  0  0  0  0  0  0  0  0  0  0  0
   11.9843  -16.4074   21.1170 O   0  0  0  0  0  0  0  0  0  0  0  0
   11.4872  -16.7169   20.0295 O   0  0  0  0  0  0  0  0  0  0  0  0
  2  1  1  0
  2  3  1  0
  3  4  1  6
  5  6  1  1
  5  3  1  0
  7  5  1  0
  8  7  2  0
 10 12  1  0
 10  9  1  0
 11 10  2  0
 13 14  1  0
 13 12  1  0
 16 15  1  6
 15 14  1  0
 16 17  1  0
 17  7  1  0
 18 19  2  0
 18 16  1  0
 20 18  1  0
 21 20  1  0
 22 23  1  0
 21 22  1  1
 23 24  1  0
 24 25  1  0
 25 26  1  0
 27 29  1  0
 27 21  1  0
 28 27  2  0
M  END
$$$$
