AIS.pdb
     RDKit          3D

 20 19  0  0  1  0  0  0  0  0999 V2000
    6.7468  -16.9238   20.8470 C   0  0  0  0  0  0  0  0  0  0  0  0
    6.9442  -15.4056   20.8589 C   0  0  2  0  0  0  0  0  0  0  0  0
    7.7032  -15.0809   19.6702 N   0  0  0  0  0  0  0  0  0  0  0  0
    7.7317  -15.0747   22.0440 C   0  0  0  0  0  0  0  0  0  0  0  0
    8.9854  -15.0554   21.9624 O   0  0  0  0  0  0  0  0  0  0  0  0
    7.9298  -11.9467   27.3893 C   0  0  0  0  0  0  0  0  0  0  0  0
    8.4213  -13.0239   26.4741 C   0  0  0  0  0  0  0  0  0  0  0  0
    7.4758  -13.4485   25.4011 C   0  0  2  0  0  0  0  0  0  0  0  0
    6.1078  -13.8211   25.9620 C   0  0  0  0  0  0  0  0  0  0  0  0
    7.9786  -14.4594   24.4315 C   0  0  2  0  0  0  0  0  0  0  0  0
    7.1532  -14.7649   23.3172 N   0  0  0  0  0  0  0  0  0  0  0  0
    8.4322  -15.6345   25.2198 C   0  0  0  0  0  0  0  0  0  0  0  0
    7.5357  -16.3941   25.6477 O   0  0  0  0  0  0  0  0  0  0  0  0
   11.8183  -17.5868   24.4575 O   0  0  0  0  0  0  0  0  0  0  0  0
   11.6445  -17.4626   25.8345 C   0  0  0  0  0  0  0  0  0  0  0  0
   10.2008  -17.1180   26.1740 C   0  0  2  0  0  0  0  0  0  0  0  0
    9.7930  -15.9178   25.4958 N   0  0  0  0  0  0  0  0  0  0  0  0
   10.1224  -16.9137   27.6428 C   0  0  0  0  0  0  0  0  0  0  0  0
    9.4564  -17.7073   28.3741 O   0  0  0  0  0  0  0  0  0  0  0  0
   10.7558  -15.8693   28.2914 O   0  0  0  0  0  0  0  0  0  0  0  0
  2  1  1  6
  2  3  1  0
  4  2  1  0
  5  4  2  0
  7  6  1  0
  7  8  1  0
  8 10  1  0
  8  9  1  1
 10 12  1  0
 10 11  1  6
 11  4  1  0
 12 17  1  0
 13 12  2  0
 16 15  1  1
 15 14  1  0
 17 16  1  0
 18 16  1  0
 18 20  1  0
 19 18  2  0
M  END
$$$$
