AIS.pdb
     RDKit          3D

 20 19  0  0  1  0  0  0  0  0999 V2000
    6.6371  -16.3960   20.7196 C   0  0  0  0  0  0  0  0  0  0  0  0
    7.1224  -14.9449   20.7727 C   0  0  2  0  0  0  0  0  0  0  0  0
    8.0789  -14.7922   19.6975 N   0  0  0  0  0  0  0  0  0  0  0  0
    7.7970  -14.7543   22.0544 C   0  0  0  0  0  0  0  0  0  0  0  0
    9.0227  -15.0146   22.1478 O   0  0  0  0  0  0  0  0  0  0  0  0
    7.5514  -11.9223   27.6409 C   0  0  0  0  0  0  0  0  0  0  0  0
    8.0873  -12.9449   26.6888 C   0  0  0  0  0  0  0  0  0  0  0  0
    7.2854  -13.1652   25.4502 C   0  0  2  0  0  0  0  0  0  0  0  0
    5.8271  -13.4805   25.7643 C   0  0  0  0  0  0  0  0  0  0  0  0
    7.8571  -14.1004   24.4436 C   0  0  2  0  0  0  0  0  0  0  0  0
    7.1363  -14.2803   23.2335 N   0  0  0  0  0  0  0  0  0  0  0  0
    8.2073  -15.3542   25.1601 C   0  0  0  0  0  0  0  0  0  0  0  0
    7.2514  -16.0920   25.4852 O   0  0  0  0  0  0  0  0  0  0  0  0
   12.0842  -16.7769   25.1706 O   0  0  0  0  0  0  0  0  0  0  0  0
   11.0105  -17.6593   25.2728 C   0  0  0  0  0  0  0  0  0  0  0  0
    9.8507  -17.0236   26.0271 C   0  0  2  0  0  0  0  0  0  0  0  0
    9.5353  -15.7329   25.4780 N   0  0  0  0  0  0  0  0  0  0  0  0
   10.2656  -16.8760   27.4452 C   0  0  0  0  0  0  0  0  0  0  0  0
   10.3331  -15.7311   27.9863 O   0  0  0  0  0  0  0  0  0  0  0  0
   10.5970  -17.9527   28.2475 O   0  0  0  0  0  0  0  0  0  0  0  0
  2  1  1  1
  2  3  1  0
  4  2  1  0
  5  4  2  0
  7  6  1  0
  7  8  1  0
  8 10  1  0
  8  9  1  1
 10 12  1  0
 10 11  1  6
 11  4  1  0
 12 17  1  0
 13 12  2  0
 16 15  1  6
 15 14  1  0
 17 16  1  0
 18 16  1  0
 18 20  1  0
 19 18  2  0
M  END
$$$$
