AIS.pdb
     RDKit          3D

 20 19  0  0  1  0  0  0  0  0999 V2000
    7.7887  -17.5695   21.4694 C   0  0  0  0  0  0  0  0  0  0  0  0
    7.9877  -16.0681   21.2455 C   0  0  2  0  0  0  0  0  0  0  0  0
    9.0037  -15.9363   20.2234 N   0  0  0  0  0  0  0  0  0  0  0  0
    8.4809  -15.4992   22.4975 C   0  0  0  0  0  0  0  0  0  0  0  0
    9.7085  -15.5618   22.7588 O   0  0  0  0  0  0  0  0  0  0  0  0
    7.2710  -11.6081   27.2578 C   0  0  0  0  0  0  0  0  0  0  0  0
    8.0307  -12.7198   26.6048 C   0  0  0  0  0  0  0  0  0  0  0  0
    7.3845  -13.3365   25.4100 C   0  0  2  0  0  0  0  0  0  0  0  0
    5.9684  -13.8146   25.7114 C   0  0  0  0  0  0  0  0  0  0  0  0
    8.1779  -14.3603   24.6770 C   0  0  2  0  0  0  0  0  0  0  0  0
    7.6371  -14.8627   23.4640 N   0  0  0  0  0  0  0  0  0  0  0  0
    8.5757  -15.3961   25.6655 C   0  0  0  0  0  0  0  0  0  0  0  0
    7.7223  -16.2732   25.9227 O   0  0  0  0  0  0  0  0  0  0  0  0
   12.0926  -18.0884   27.4190 O   0  0  0  0  0  0  0  0  0  0  0  0
   11.6452  -17.0277   26.6338 C   0  0  0  0  0  0  0  0  0  0  0  0
   10.2717  -16.5531   27.0882 C   0  0  2  0  0  0  0  0  0  0  0  0
    9.8397  -15.4273   26.3054 N   0  0  0  0  0  0  0  0  0  0  0  0
   10.3838  -16.1567   28.5148 C   0  0  0  0  0  0  0  0  0  0  0  0
   10.3036  -14.9387   28.8587 O   0  0  0  0  0  0  0  0  0  0  0  0
   10.5783  -17.0694   29.5356 O   0  0  0  0  0  0  0  0  0  0  0  0
  2  1  1  1
  2  3  1  0
  4  2  1  0
  5  4  2  0
  7  6  1  0
  7  8  1  0
  8 10  1  0
  8  9  1  1
 10 12  1  0
 10 11  1  6
 11  4  1  0
 12 17  1  0
 13 12  2  0
 16 15  1  6
 15 14  1  0
 17 16  1  0
 18 16  1  0
 18 20  1  0
 19 18  2  0
M  END
$$$$
