AIS.pdb
     RDKit          3D

 20 19  0  0  1  0  0  0  0  0999 V2000
    6.6272  -15.6583   20.6785 C   0  0  0  0  0  0  0  0  0  0  0  0
    7.1494  -14.2549   20.9974 C   0  0  2  0  0  0  0  0  0  0  0  0
    8.1498  -13.9517   19.9966 N   0  0  0  0  0  0  0  0  0  0  0  0
    7.7799  -14.3099   22.3141 C   0  0  0  0  0  0  0  0  0  0  0  0
    8.9901  -14.6364   22.4022 O   0  0  0  0  0  0  0  0  0  0  0  0
    5.8773  -11.3759   26.7855 C   0  0  0  0  0  0  0  0  0  0  0  0
    6.7421  -11.9789   25.7235 C   0  0  0  0  0  0  0  0  0  0  0  0
    7.1496  -13.3972   25.9427 C   0  0  2  0  0  0  0  0  0  0  0  0
    7.9731  -13.5631   27.2151 C   0  0  0  0  0  0  0  0  0  0  0  0
    7.7610  -14.1018   24.7831 C   0  0  2  0  0  0  0  0  0  0  0  0
    7.0921  -14.0092   23.5340 N   0  0  0  0  0  0  0  0  0  0  0  0
    8.0761  -15.4843   25.2275 C   0  0  0  0  0  0  0  0  0  0  0  0
    7.0987  -16.2382   25.4278 O   0  0  0  0  0  0  0  0  0  0  0  0
   11.7015  -17.1771   24.5517 O   0  0  0  0  0  0  0  0  0  0  0  0
   10.6041  -17.9909   24.8260 C   0  0  0  0  0  0  0  0  0  0  0  0
    9.6619  -17.3218   25.8173 C   0  0  2  0  0  0  0  0  0  0  0  0
    9.3945  -15.9646   25.4261 N   0  0  0  0  0  0  0  0  0  0  0  0
   10.3245  -17.3379   27.1462 C   0  0  0  0  0  0  0  0  0  0  0  0
   10.6585  -16.2566   27.7184 O   0  0  0  0  0  0  0  0  0  0  0  0
   10.6128  -18.5059   27.8284 O   0  0  0  0  0  0  0  0  0  0  0  0
  2  1  1  6
  2  3  1  0
  4  2  1  0
  5  4  2  0
  7  6  1  0
  7  8  1  0
  8 10  1  0
  8  9  1  1
 10 12  1  0
 10 11  1  6
 11  4  1  0
 12 17  1  0
 13 12  2  0
 16 15  1  6
 15 14  1  0
 17 16  1  0
 18 16  1  0
 18 20  1  0
 19 18  2  0
M  END
$$$$
