AIS.pdb
     RDKit          3D

 20 19  0  0  1  0  0  0  0  0999 V2000
    6.7011  -15.4890   20.5304 C   0  0  0  0  0  0  0  0  0  0  0  0
    7.1127  -14.0685   20.9262 C   0  0  2  0  0  0  0  0  0  0  0  0
    8.0690  -13.6265   19.9339 N   0  0  0  0  0  0  0  0  0  0  0  0
    7.7668  -14.1482   22.2301 C   0  0  0  0  0  0  0  0  0  0  0  0
    8.9979  -14.3936   22.2854 O   0  0  0  0  0  0  0  0  0  0  0  0
    5.8517  -11.4240   26.7806 C   0  0  0  0  0  0  0  0  0  0  0  0
    6.7186  -11.9838   25.6968 C   0  0  0  0  0  0  0  0  0  0  0  0
    7.1769  -13.3902   25.8903 C   0  0  2  0  0  0  0  0  0  0  0  0
    8.0433  -13.5407   27.1359 C   0  0  0  0  0  0  0  0  0  0  0  0
    7.7749  -14.0654   24.7064 C   0  0  2  0  0  0  0  0  0  0  0  0
    7.0797  -13.9607   23.4727 N   0  0  0  0  0  0  0  0  0  0  0  0
    8.1186  -15.4507   25.1197 C   0  0  0  0  0  0  0  0  0  0  0  0
    7.1561  -16.2157   25.3478 O   0  0  0  0  0  0  0  0  0  0  0  0
   11.8849  -16.9727   24.5671 O   0  0  0  0  0  0  0  0  0  0  0  0
   10.8148  -17.8560   24.6954 C   0  0  0  0  0  0  0  0  0  0  0  0
    9.7416  -17.2845   25.6119 C   0  0  2  0  0  0  0  0  0  0  0  0
    9.4476  -15.9218   25.2604 N   0  0  0  0  0  0  0  0  0  0  0  0
   10.2621  -17.3415   27.0014 C   0  0  0  0  0  0  0  0  0  0  0  0
   10.4291  -16.2809   27.6763 O   0  0  0  0  0  0  0  0  0  0  0  0
   10.5903  -18.5271   27.6332 O   0  0  0  0  0  0  0  0  0  0  0  0
  2  1  1  6
  2  3  1  0
  4  2  1  0
  5  4  2  0
  7  6  1  0
  7  8  1  0
  8 10  1  0
  8  9  1  1
 10 12  1  0
 10 11  1  6
 11  4  1  0
 12 17  1  0
 13 12  2  0
 16 15  1  6
 15 14  1  0
 17 16  1  0
 18 16  1  0
 18 20  1  0
 19 18  2  0
M  END
$$$$
