AIS.pdb
     RDKit          3D

 20 19  0  0  1  0  0  0  0  0999 V2000
    6.5354  -16.0600   20.8065 C   0  0  0  0  0  0  0  0  0  0  0  0
    7.1123  -14.6625   21.0474 C   0  0  2  0  0  0  0  0  0  0  0  0
    8.1318  -14.4598   20.0405 N   0  0  0  0  0  0  0  0  0  0  0  0
    7.7301  -14.6649   22.3713 C   0  0  0  0  0  0  0  0  0  0  0  0
    8.9355  -15.0011   22.4857 O   0  0  0  0  0  0  0  0  0  0  0  0
    5.7749  -11.2728   26.3739 C   0  0  0  0  0  0  0  0  0  0  0  0
    6.6617  -12.0002   25.4127 C   0  0  0  0  0  0  0  0  0  0  0  0
    7.1467  -13.3386   25.8588 C   0  0  2  0  0  0  0  0  0  0  0  0
    8.0485  -13.2383   27.0841 C   0  0  0  0  0  0  0  0  0  0  0  0
    7.7228  -14.2226   24.8092 C   0  0  2  0  0  0  0  0  0  0  0  0
    7.0349  -14.3013   23.5696 N   0  0  0  0  0  0  0  0  0  0  0  0
    8.0156  -15.5306   25.4509 C   0  0  0  0  0  0  0  0  0  0  0  0
    7.0256  -16.2116   25.7974 O   0  0  0  0  0  0  0  0  0  0  0  0
   11.5706  -17.3981   24.9234 O   0  0  0  0  0  0  0  0  0  0  0  0
   10.4737  -18.1422   25.3534 C   0  0  0  0  0  0  0  0  0  0  0  0
    9.5703  -17.3123   26.2554 C   0  0  2  0  0  0  0  0  0  0  0  0
    9.3265  -16.0189   25.6772 N   0  0  0  0  0  0  0  0  0  0  0  0
   10.2623  -17.1547   27.5598 C   0  0  0  0  0  0  0  0  0  0  0  0
   10.6007  -16.0074   27.9809 O   0  0  0  0  0  0  0  0  0  0  0  0
   10.5743  -18.2241   28.3793 O   0  0  0  0  0  0  0  0  0  0  0  0
  2  1  1  6
  2  3  1  0
  4  2  1  0
  5  4  2  0
  7  6  1  0
  7  8  1  0
  8 10  1  0
  8  9  1  1
 10 12  1  0
 10 11  1  6
 11  4  1  0
 12 17  1  0
 13 12  2  0
 16 15  1  6
 15 14  1  0
 17 16  1  0
 18 16  1  0
 18 20  1  0
 19 18  2  0
M  END
$$$$
