AIS.pdb
     RDKit          3D

 20 19  0  0  1  0  0  0  0  0999 V2000
    6.8042  -14.9002   20.1860 C   0  0  0  0  0  0  0  0  0  0  0  0
    7.2280  -13.5098   20.6665 C   0  0  2  0  0  0  0  0  0  0  0  0
    8.2499  -13.0521   19.7497 N   0  0  0  0  0  0  0  0  0  0  0  0
    7.8045  -13.6631   22.0001 C   0  0  0  0  0  0  0  0  0  0  0  0
    9.0491  -13.7878   22.1203 O   0  0  0  0  0  0  0  0  0  0  0  0
    5.5984  -11.3381   26.5788 C   0  0  0  0  0  0  0  0  0  0  0  0
    6.5415  -11.8289   25.5256 C   0  0  0  0  0  0  0  0  0  0  0  0
    6.9735  -13.2515   25.6499 C   0  0  2  0  0  0  0  0  0  0  0  0
    7.7469  -13.5013   26.9398 C   0  0  0  0  0  0  0  0  0  0  0  0
    7.6495  -13.8486   24.4660 C   0  0  2  0  0  0  0  0  0  0  0  0
    7.0253  -13.6804   23.2018 N   0  0  0  0  0  0  0  0  0  0  0  0
    7.9906  -15.2514   24.8180 C   0  0  0  0  0  0  0  0  0  0  0  0
    7.0280  -16.0378   24.9554 O   0  0  0  0  0  0  0  0  0  0  0  0
   10.5060  -17.3324   23.0646 O   0  0  0  0  0  0  0  0  0  0  0  0
   10.7554  -17.5913   24.4109 C   0  0  0  0  0  0  0  0  0  0  0  0
    9.6114  -17.0939   25.2839 C   0  0  2  0  0  0  0  0  0  0  0  0
    9.3172  -15.7161   24.9977 N   0  0  0  0  0  0  0  0  0  0  0  0
   10.0363  -17.2308   26.7002 C   0  0  0  0  0  0  0  0  0  0  0  0
   10.3013  -18.3695   27.1915 O   0  0  0  0  0  0  0  0  0  0  0  0
   10.1670  -16.1505   27.5537 O   0  0  0  0  0  0  0  0  0  0  0  0
  2  1  1  6
  2  3  1  0
  4  2  1  0
  5  4  2  0
  7  6  1  0
  7  8  1  0
  8 10  1  0
  8  9  1  1
 10 12  1  0
 10 11  1  6
 11  4  1  0
 12 17  1  0
 13 12  2  0
 16 15  1  6
 15 14  1  0
 17 16  1  0
 18 16  1  0
 18 20  1  0
 19 18  2  0
M  END
$$$$
