AIS.pdb
     RDKit          3D

 20 19  0  0  1  0  0  0  0  0999 V2000
    6.6951  -16.0449   20.8080 C   0  0  0  0  0  0  0  0  0  0  0  0
    7.1880  -14.6155   21.0481 C   0  0  2  0  0  0  0  0  0  0  0  0
    8.1852  -14.3490   20.0336 N   0  0  0  0  0  0  0  0  0  0  0  0
    7.8156  -14.5833   22.3670 C   0  0  0  0  0  0  0  0  0  0  0  0
    9.0261  -14.9013   22.4788 O   0  0  0  0  0  0  0  0  0  0  0  0
    5.8907  -11.3394   26.5731 C   0  0  0  0  0  0  0  0  0  0  0  0
    6.7607  -12.0243   25.5665 C   0  0  0  0  0  0  0  0  0  0  0  0
    7.1973  -13.4073   25.9164 C   0  0  2  0  0  0  0  0  0  0  0  0
    8.0564  -13.4319   27.1757 C   0  0  0  0  0  0  0  0  0  0  0  0
    7.7897  -14.2174   24.8174 C   0  0  2  0  0  0  0  0  0  0  0  0
    7.1244  -14.2048   23.5630 N   0  0  0  0  0  0  0  0  0  0  0  0
    8.0661  -15.5689   25.3698 C   0  0  0  0  0  0  0  0  0  0  0  0
    7.0676  -16.2688   25.6474 O   0  0  0  0  0  0  0  0  0  0  0  0
   11.5544  -17.5225   24.6899 O   0  0  0  0  0  0  0  0  0  0  0  0
   10.4167  -18.2199   25.0914 C   0  0  0  0  0  0  0  0  0  0  0  0
    9.5995  -17.4061   26.0855 C   0  0  2  0  0  0  0  0  0  0  0  0
    9.3709  -16.0774   25.5866 N   0  0  0  0  0  0  0  0  0  0  0  0
   10.3721  -17.3388   27.3519 C   0  0  0  0  0  0  0  0  0  0  0  0
   10.6804  -18.3957   27.9814 O   0  0  0  0  0  0  0  0  0  0  0  0
   10.7946  -16.1472   27.9124 O   0  0  0  0  0  0  0  0  0  0  0  0
  2  1  1  6
  2  3  1  0
  4  2  1  0
  5  4  2  0
  7  6  1  0
  7  8  1  0
  8 10  1  0
  8  9  1  1
 10 12  1  0
 10 11  1  6
 11  4  1  0
 12 17  1  0
 13 12  2  0
 16 15  1  6
 15 14  1  0
 17 16  1  0
 18 16  1  0
 18 20  1  0
 19 18  2  0
M  END
$$$$
