AIS.pdb
     RDKit          3D

 20 19  0  0  1  0  0  0  0  0999 V2000
    7.8034  -19.3893   17.9378 C   0  0  0  0  0  0  0  0  0  0  0  0
    8.2347  -18.0196   17.4069 C   0  0  2  0  0  0  0  0  0  0  0  0
    9.2808  -18.2657   16.4376 N   0  0  0  0  0  0  0  0  0  0  0  0
    8.7821  -17.2653   18.5319 C   0  0  0  0  0  0  0  0  0  0  0  0
   10.0006  -17.3830   18.8153 O   0  0  0  0  0  0  0  0  0  0  0  0
    7.0249  -12.1202   20.1340 C   0  0  0  0  0  0  0  0  0  0  0  0
    7.7986  -13.3411   19.7464 C   0  0  0  0  0  0  0  0  0  0  0  0
    7.9618  -14.3739   20.8105 C   0  0  2  0  0  0  0  0  0  0  0  0
    8.5828  -13.7941   22.0766 C   0  0  0  0  0  0  0  0  0  0  0  0
    8.6058  -15.6528   20.4049 C   0  0  2  0  0  0  0  0  0  0  0  0
    8.0021  -16.3833   19.3475 N   0  0  0  0  0  0  0  0  0  0  0  0
    8.8537  -16.4311   21.6463 C   0  0  0  0  0  0  0  0  0  0  0  0
    7.8407  -16.8091   22.2748 O   0  0  0  0  0  0  0  0  0  0  0  0
   12.3297  -18.4213   22.2687 O   0  0  0  0  0  0  0  0  0  0  0  0
   11.1937  -18.7706   22.9961 C   0  0  0  0  0  0  0  0  0  0  0  0
   10.3475  -17.5443   23.3101 C   0  0  2  0  0  0  0  0  0  0  0  0
   10.1474  -16.7503   22.1285 N   0  0  0  0  0  0  0  0  0  0  0  0
   11.0744  -16.7477   24.3309 C   0  0  0  0  0  0  0  0  0  0  0  0
   11.4945  -15.5809   24.0659 O   0  0  0  0  0  0  0  0  0  0  0  0
   11.3334  -17.2166   25.6059 O   0  0  0  0  0  0  0  0  0  0  0  0
  2  1  1  1
  2  3  1  0
  4  2  1  0
  5  4  2  0
  7  6  1  0
  7  8  1  0
  8 10  1  0
  8  9  1  1
 10 12  1  0
 10 11  1  6
 11  4  1  0
 12 17  1  0
 13 12  2  0
 16 15  1  6
 15 14  1  0
 17 16  1  0
 18 16  1  0
 18 20  1  0
 19 18  2  0
M  END
$$$$
