AIS.pdb
     RDKit          3D

 20 19  0  0  1  0  0  0  0  0999 V2000
    6.7456  -16.1812   20.9309 C   0  0  0  0  0  0  0  0  0  0  0  0
    7.2850  -14.7622   21.1297 C   0  0  2  0  0  0  0  0  0  0  0  0
    8.3168  -14.5717   20.1330 N   0  0  0  0  0  0  0  0  0  0  0  0
    7.8796  -14.7014   22.4628 C   0  0  0  0  0  0  0  0  0  0  0  0
    9.0782  -15.0460   22.6167 O   0  0  0  0  0  0  0  0  0  0  0  0
    5.7679  -11.3512   26.4963 C   0  0  0  0  0  0  0  0  0  0  0  0
    6.6975  -12.0307   25.5405 C   0  0  0  0  0  0  0  0  0  0  0  0
    7.1805  -13.3813   25.9505 C   0  0  2  0  0  0  0  0  0  0  0  0
    8.0265  -13.3233   27.2177 C   0  0  0  0  0  0  0  0  0  0  0  0
    7.8138  -14.2127   24.8910 C   0  0  2  0  0  0  0  0  0  0  0  0
    7.1686  -14.2654   23.6271 N   0  0  0  0  0  0  0  0  0  0  0  0
    8.1207  -15.5345   25.4967 C   0  0  0  0  0  0  0  0  0  0  0  0
    7.1382  -16.2337   25.8277 O   0  0  0  0  0  0  0  0  0  0  0  0
   11.7937  -17.3260   25.0217 O   0  0  0  0  0  0  0  0  0  0  0  0
   10.6491  -18.0819   25.2674 C   0  0  0  0  0  0  0  0  0  0  0  0
    9.6953  -17.3429   26.1961 C   0  0  2  0  0  0  0  0  0  0  0  0
    9.4367  -16.0163   25.7063 N   0  0  0  0  0  0  0  0  0  0  0  0
   10.3398  -17.2662   27.5317 C   0  0  0  0  0  0  0  0  0  0  0  0
   10.6139  -18.3200   28.1819 O   0  0  0  0  0  0  0  0  0  0  0  0
   10.6745  -16.0688   28.1373 O   0  0  0  0  0  0  0  0  0  0  0  0
  2  1  1  6
  2  3  1  0
  4  2  1  0
  5  4  2  0
  7  6  1  0
  7  8  1  0
  8 10  1  0
  8  9  1  1
 10 12  1  0
 10 11  1  6
 11  4  1  0
 12 17  1  0
 13 12  2  0
 16 15  1  6
 15 14  1  0
 17 16  1  0
 18 16  1  0
 18 20  1  0
 19 18  2  0
M  END
$$$$
