AIS.pdb
     RDKit          3D

 20 19  0  0  1  0  0  0  0  0999 V2000
    5.9904  -19.0860   24.3689 C   0  0  0  0  0  0  0  0  0  0  0  0
    5.7992  -17.7274   23.6895 C   0  0  2  0  0  0  0  0  0  0  0  0
    5.9681  -17.9509   22.2697 N   0  0  0  0  0  0  0  0  0  0  0  0
    6.8570  -16.8427   24.1717 C   0  0  0  0  0  0  0  0  0  0  0  0
    7.9493  -16.7973   23.5523 O   0  0  0  0  0  0  0  0  0  0  0  0
    5.6637  -12.2221   26.9418 C   0  0  0  0  0  0  0  0  0  0  0  0
    6.4168  -13.0633   25.9597 C   0  0  0  0  0  0  0  0  0  0  0  0
    7.4581  -13.9629   26.5360 C   0  0  2  0  0  0  0  0  0  0  0  0
    8.7007  -13.1923   26.9682 C   0  0  0  0  0  0  0  0  0  0  0  0
    7.7980  -15.1792   25.7486 C   0  0  2  0  0  0  0  0  0  0  0  0
    6.7246  -16.0082   25.3282 N   0  0  0  0  0  0  0  0  0  0  0  0
    8.8878  -15.8808   26.4755 C   0  0  0  0  0  0  0  0  0  0  0  0
    8.5721  -16.4246   27.5564 O   0  0  0  0  0  0  0  0  0  0  0  0
   12.9207  -15.6770   25.3796 O   0  0  0  0  0  0  0  0  0  0  0  0
   12.4381  -16.9323   25.7443 C   0  0  0  0  0  0  0  0  0  0  0  0
   11.2024  -16.8078   26.6252 C   0  0  2  0  0  0  0  0  0  0  0  0
   10.2235  -15.9550   26.0079 N   0  0  0  0  0  0  0  0  0  0  0  0
   11.6321  -16.2207   27.9197 C   0  0  0  0  0  0  0  0  0  0  0  0
   11.1562  -15.1161   28.3216 O   0  0  0  0  0  0  0  0  0  0  0  0
   12.5572  -16.8270   28.7499 O   0  0  0  0  0  0  0  0  0  0  0  0
  2  1  1  1
  2  3  1  0
  4  2  1  0
  5  4  2  0
  7  6  1  0
  7  8  1  0
  8 10  1  0
  8  9  1  6
 10 12  1  0
 10 11  1  1
 11  4  1  0
 12 17  1  0
 13 12  2  0
 16 15  1  6
 15 14  1  0
 17 16  1  0
 18 16  1  0
 18 20  1  0
 19 18  2  0
M  END
$$$$
