AIS.pdb
     RDKit          3D

 20 19  0  0  1  0  0  0  0  0999 V2000
    8.3769  -17.6411   21.6617 C   0  0  0  0  0  0  0  0  0  0  0  0
    8.5277  -16.1355   21.4288 C   0  0  2  0  0  0  0  0  0  0  0  0
    9.6225  -15.9717   20.4966 N   0  0  0  0  0  0  0  0  0  0  0  0
    8.8835  -15.5268   22.7083 C   0  0  0  0  0  0  0  0  0  0  0  0
   10.0914  -15.4805   23.0514 O   0  0  0  0  0  0  0  0  0  0  0  0
    7.0447  -11.7730   27.3791 C   0  0  0  0  0  0  0  0  0  0  0  0
    7.9312  -12.8153   26.7731 C   0  0  0  0  0  0  0  0  0  0  0  0
    7.4429  -13.4276   25.5034 C   0  0  2  0  0  0  0  0  0  0  0  0
    6.0079  -13.9277   25.6272 C   0  0  0  0  0  0  0  0  0  0  0  0
    8.3338  -14.4328   24.8624 C   0  0  2  0  0  0  0  0  0  0  0  0
    7.9236  -14.9691   23.6133 N   0  0  0  0  0  0  0  0  0  0  0  0
    8.6732  -15.4414   25.8996 C   0  0  0  0  0  0  0  0  0  0  0  0
    7.7650  -16.2424   26.2116 O   0  0  0  0  0  0  0  0  0  0  0  0
   11.3571  -17.8341   25.8400 O   0  0  0  0  0  0  0  0  0  0  0  0
   11.4767  -17.3190   27.1292 C   0  0  0  0  0  0  0  0  0  0  0  0
   10.2363  -16.5261   27.5180 C   0  0  2  0  0  0  0  0  0  0  0  0
    9.9411  -15.5279   26.5264 N   0  0  0  0  0  0  0  0  0  0  0  0
   10.5140  -15.8700   28.8209 C   0  0  0  0  0  0  0  0  0  0  0  0
   10.7336  -16.5604   29.8618 O   0  0  0  0  0  0  0  0  0  0  0  0
   10.5499  -14.4965   28.9785 O   0  0  0  0  0  0  0  0  0  0  0  0
  2  1  1  1
  2  3  1  0
  4  2  1  0
  5  4  2  0
  7  6  1  0
  7  8  1  0
  8 10  1  0
  8  9  1  1
 10 12  1  0
 10 11  1  6
 11  4  1  0
 12 17  1  0
 13 12  2  0
 16 15  1  6
 15 14  1  0
 17 16  1  0
 18 16  1  0
 18 20  1  0
 19 18  2  0
M  END
$$$$
