AIS.pdb
     RDKit          3D

 20 19  0  0  1  0  0  0  0  0999 V2000
    6.5779  -16.5260   21.3802 C   0  0  0  0  0  0  0  0  0  0  0  0
    6.9023  -15.0314   21.4490 C   0  0  2  0  0  0  0  0  0  0  0  0
    7.6875  -14.7269   20.2721 N   0  0  0  0  0  0  0  0  0  0  0  0
    7.7132  -14.8128   22.6444 C   0  0  0  0  0  0  0  0  0  0  0  0
    8.9659  -14.8277   22.5477 O   0  0  0  0  0  0  0  0  0  0  0  0
    5.9379  -11.6996   26.8437 C   0  0  0  0  0  0  0  0  0  0  0  0
    6.8917  -12.2733   25.8434 C   0  0  0  0  0  0  0  0  0  0  0  0
    7.4960  -13.5898   26.2002 C   0  0  2  0  0  0  0  0  0  0  0  0
    8.5163  -13.4619   27.3261 C   0  0  0  0  0  0  0  0  0  0  0  0
    8.0058  -14.4168   25.0727 C   0  0  2  0  0  0  0  0  0  0  0  0
    7.1593  -14.5782   23.9442 N   0  0  0  0  0  0  0  0  0  0  0  0
    8.5245  -15.6810   25.6566 C   0  0  0  0  0  0  0  0  0  0  0  0
    7.6701  -16.4720   26.1127 O   0  0  0  0  0  0  0  0  0  0  0  0
   11.5189  -17.7416   24.2058 O   0  0  0  0  0  0  0  0  0  0  0  0
   11.6622  -17.6900   25.5909 C   0  0  0  0  0  0  0  0  0  0  0  0
   10.3630  -17.2609   26.2589 C   0  0  2  0  0  0  0  0  0  0  0  0
    9.9009  -16.0132   25.7146 N   0  0  0  0  0  0  0  0  0  0  0  0
   10.6361  -17.1030   27.7100 C   0  0  0  0  0  0  0  0  0  0  0  0
   10.5270  -15.9714   28.2719 O   0  0  0  0  0  0  0  0  0  0  0  0
   11.0178  -18.1554   28.5220 O   0  0  0  0  0  0  0  0  0  0  0  0
  2  1  1  6
  2  3  1  0
  4  2  1  0
  5  4  2  0
  7  6  1  0
  7  8  1  0
  8 10  1  0
  8  9  1  1
 10 12  1  0
 10 11  1  6
 11  4  1  0
 12 17  1  0
 13 12  2  0
 16 15  1  6
 15 14  1  0
 17 16  1  0
 18 16  1  0
 18 20  1  0
 19 18  2  0
M  END
$$$$
