AIS.pdb
     RDKit          3D

 20 19  0  0  1  0  0  0  0  0999 V2000
    6.6723  -16.0890   20.9410 C   0  0  0  0  0  0  0  0  0  0  0  0
    7.2461  -14.6811   21.1209 C   0  0  2  0  0  0  0  0  0  0  0  0
    8.2638  -14.5194   20.1047 N   0  0  0  0  0  0  0  0  0  0  0  0
    7.8658  -14.6253   22.4427 C   0  0  0  0  0  0  0  0  0  0  0  0
    9.0707  -14.9582   22.5705 O   0  0  0  0  0  0  0  0  0  0  0  0
    5.7809  -11.3426   26.5221 C   0  0  0  0  0  0  0  0  0  0  0  0
    6.7161  -11.9986   25.5554 C   0  0  0  0  0  0  0  0  0  0  0  0
    7.2285  -13.3418   25.9542 C   0  0  2  0  0  0  0  0  0  0  0  0
    8.1129  -13.2690   27.1941 C   0  0  0  0  0  0  0  0  0  0  0  0
    7.8388  -14.1689   24.8779 C   0  0  2  0  0  0  0  0  0  0  0  0
    7.1729  -14.2069   23.6244 N   0  0  0  0  0  0  0  0  0  0  0  0
    8.1462  -15.4976   25.4680 C   0  0  0  0  0  0  0  0  0  0  0  0
    7.1639  -16.2030   25.7864 O   0  0  0  0  0  0  0  0  0  0  0  0
   11.8823  -17.1829   25.0982 O   0  0  0  0  0  0  0  0  0  0  0  0
   10.7648  -17.9968   25.2728 C   0  0  0  0  0  0  0  0  0  0  0  0
    9.7220  -17.3129   26.1465 C   0  0  2  0  0  0  0  0  0  0  0  0
    9.4624  -15.9793   25.6765 N   0  0  0  0  0  0  0  0  0  0  0  0
   10.2609  -17.2599   27.5292 C   0  0  0  0  0  0  0  0  0  0  0  0
   10.5373  -18.3249   28.1597 O   0  0  0  0  0  0  0  0  0  0  0  0
   10.4904  -16.0733   28.2016 O   0  0  0  0  0  0  0  0  0  0  0  0
  2  1  1  6
  2  3  1  0
  4  2  1  0
  5  4  2  0
  7  6  1  0
  7  8  1  0
  8 10  1  0
  8  9  1  1
 10 12  1  0
 10 11  1  6
 11  4  1  0
 12 17  1  0
 13 12  2  0
 16 15  1  6
 15 14  1  0
 17 16  1  0
 18 16  1  0
 18 20  1  0
 19 18  2  0
M  END
$$$$
