TYC.pdb
     RDKit          3D

 26 26  0  0  1  0  0  0  0  0999 V2000
    6.4700  -16.0262   20.2562 C   0  0  0  0  0  0  0  0  0  0  0  0
    7.1762  -14.8857   19.5954 C   0  0  1  0  0  0  0  0  0  0  0  0
    6.6479  -14.6598   18.3484 O   0  0  0  0  0  0  0  0  0  0  0  0
    7.2603  -13.6479   20.4555 C   0  0  2  0  0  0  0  0  0  0  0  0
    7.7519  -12.5542   19.6430 N   0  0  0  0  0  0  0  0  0  0  0  0
    8.1185  -13.7983   21.6307 C   0  0  0  0  0  0  0  0  0  0  0  0
    9.3694  -13.7417   21.5240 O   0  0  0  0  0  0  0  0  0  0  0  0
   10.6732  -15.1932   29.9773 O   0  0  0  0  0  0  0  0  0  0  0  0
    9.9398  -14.8919   28.8467 C   0  0  0  0  0  0  0  0  0  0  0  0
    9.9395  -13.6256   28.2837 C   0  0  0  0  0  0  0  0  0  0  0  0
    9.2072  -13.3258   27.1552 C   0  0  0  0  0  0  0  0  0  0  0  0
    8.4497  -14.2986   26.5578 C   0  0  0  0  0  0  0  0  0  0  0  0
    7.6526  -14.0356   25.3571 C   0  0  0  0  0  0  0  0  0  0  0  0
    8.4548  -14.3233   24.0798 C   0  0  2  0  0  0  0  0  0  0  0  0
    7.6110  -14.0150   22.9541 N   0  0  0  0  0  0  0  0  0  0  0  0
    8.9298  -15.7257   24.0667 C   0  0  0  0  0  0  0  0  0  0  0  0
    8.1306  -16.7114   24.0082 O   0  0  0  0  0  0  0  0  0  0  0  0
    8.4505  -15.5756   27.1261 C   0  0  0  0  0  0  0  0  0  0  0  0
    9.1772  -15.8700   28.2446 C   0  0  0  0  0  0  0  0  0  0  0  0
   10.3168  -16.0292   24.1197 N   0  0  0  0  0  0  0  0  0  0  0  0
   10.8078  -17.4012   24.2193 C   0  0  1  0  0  0  0  0  0  0  0  0
   11.7469  -17.6331   23.0488 C   0  0  0  0  0  0  0  0  0  0  0  0
   10.9013  -17.3094   21.4794 S   0  0  0  0  0  0  0  0  0  0  0  0
   11.4424  -17.6716   25.5097 C   0  0  0  0  0  0  0  0  0  0  0  0
   11.9405  -18.9446   25.7391 O   0  0  0  0  0  0  0  0  0  0  0  0
   11.5645  -16.8123   26.4310 O   0  0  0  0  0  0  0  0  0  0  0  0
  2  1  1  1
  3  2  1  0
  4  2  1  0
  4  5  1  6
  6  7  2  0
  6  4  1  0
  8  9  1  0
  9 10  2  0
 10 11  1  0
 12 11  2  0
 12 13  1  0
 14 13  1  1
 14 15  1  0
 15  6  1  0
 16 17  2  0
 16 14  1  0
 18 12  1  0
 19  9  1  0
 19 18  2  0
 20 16  1  0
 21 20  1  0
 21 22  1  6
 23 22  1  0
 24 21  1  0
 25 24  1  0
 26 24  2  0
M  END
$$$$
