TYC.pdb
     RDKit          3D

 26 26  0  0  1  0  0  0  0  0999 V2000
    6.7632  -20.9790   20.7897 C   0  0  0  0  0  0  0  0  0  0  0  0
    7.6412  -19.9865   21.4824 C   0  0  1  0  0  0  0  0  0  0  0  0
    8.8081  -20.5868   21.8862 O   0  0  0  0  0  0  0  0  0  0  0  0
    7.8498  -18.7138   20.6977 C   0  0  2  0  0  0  0  0  0  0  0  0
    8.5516  -19.0372   19.4725 N   0  0  0  0  0  0  0  0  0  0  0  0
    8.5953  -17.6845   21.4222 C   0  0  0  0  0  0  0  0  0  0  0  0
    9.8305  -17.5393   21.2418 O   0  0  0  0  0  0  0  0  0  0  0  0
    7.5820  -12.4654   17.7737 O   0  0  0  0  0  0  0  0  0  0  0  0
    7.6820  -12.9514   19.0624 C   0  0  0  0  0  0  0  0  0  0  0  0
    8.8016  -12.7310   19.8488 C   0  0  0  0  0  0  0  0  0  0  0  0
    8.9006  -13.2164   21.1349 C   0  0  0  0  0  0  0  0  0  0  0  0
    7.8686  -13.9421   21.6691 C   0  0  0  0  0  0  0  0  0  0  0  0
    7.9203  -14.4815   23.0303 C   0  0  0  0  0  0  0  0  0  0  0  0
    8.7297  -15.7853   23.0841 C   0  0  2  0  0  0  0  0  0  0  0  0
    7.9895  -16.7900   22.3650 N   0  0  0  0  0  0  0  0  0  0  0  0
    9.0003  -16.1741   24.4870 C   0  0  0  0  0  0  0  0  0  0  0  0
    8.0692  -16.4596   25.3028 O   0  0  0  0  0  0  0  0  0  0  0  0
    6.7396  -14.1641   20.8755 C   0  0  0  0  0  0  0  0  0  0  0  0
    6.6442  -13.6818   19.6011 C   0  0  0  0  0  0  0  0  0  0  0  0
   10.3296  -16.2444   24.9836 N   0  0  0  0  0  0  0  0  0  0  0  0
   10.6588  -16.9420   26.2240 C   0  0  1  0  0  0  0  0  0  0  0  0
   10.2439  -18.3926   26.0525 C   0  0  0  0  0  0  0  0  0  0  0  0
   10.4403  -19.2999   27.6084 S   0  0  0  0  0  0  0  0  0  0  0  0
   12.0703  -16.8009   26.5826 C   0  0  0  0  0  0  0  0  0  0  0  0
   12.4510  -17.1204   27.8765 O   0  0  0  0  0  0  0  0  0  0  0  0
   12.9666  -16.4042   25.7818 O   0  0  0  0  0  0  0  0  0  0  0  0
  2  1  1  6
  3  2  1  0
  4  2  1  0
  4  5  1  6
  6  7  2  0
  6  4  1  0
  8  9  1  0
  9 10  2  0
 10 11  1  0
 12 11  2  0
 12 13  1  0
 14 13  1  1
 14 15  1  0
 15  6  1  0
 16 17  2  0
 16 14  1  0
 18 12  1  0
 19  9  1  0
 19 18  2  0
 20 16  1  0
 21 20  1  0
 21 22  1  6
 23 22  1  0
 24 21  1  0
 25 24  1  0
 26 24  2  0
M  END
$$$$
