TYC.pdb
     RDKit          3D

 26 26  0  0  1  0  0  0  0  0999 V2000
    8.7453  -19.7035   20.4953 C   0  0  0  0  0  0  0  0  0  0  0  0
    9.4988  -19.0436   19.3851 C   0  0  1  0  0  0  0  0  0  0  0  0
    9.4411  -19.8138   18.2500 O   0  0  0  0  0  0  0  0  0  0  0  0
    9.1090  -17.6019   19.1644 C   0  0  2  0  0  0  0  0  0  0  0  0
    9.9108  -17.0678   18.0826 N   0  0  0  0  0  0  0  0  0  0  0  0
    9.2701  -16.7553   20.3465 C   0  0  0  0  0  0  0  0  0  0  0  0
   10.4116  -16.3892   20.7237 O   0  0  0  0  0  0  0  0  0  0  0  0
    7.2100  -12.2342   27.6698 O   0  0  0  0  0  0  0  0  0  0  0  0
    7.1580  -12.8819   26.4512 C   0  0  0  0  0  0  0  0  0  0  0  0
    6.6092  -14.1467   26.3112 C   0  0  0  0  0  0  0  0  0  0  0  0
    6.5576  -14.7924   25.0947 C   0  0  0  0  0  0  0  0  0  0  0  0
    7.0604  -14.1791   23.9776 C   0  0  0  0  0  0  0  0  0  0  0  0
    7.0316  -14.8188   22.6599 C   0  0  0  0  0  0  0  0  0  0  0  0
    8.3374  -15.5760   22.3778 C   0  0  2  0  0  0  0  0  0  0  0  0
    8.1690  -16.2931   21.1402 N   0  0  0  0  0  0  0  0  0  0  0  0
    8.6784  -16.4679   23.5095 C   0  0  0  0  0  0  0  0  0  0  0  0
    7.9432  -17.4479   23.8454 O   0  0  0  0  0  0  0  0  0  0  0  0
    7.6139  -12.9034   24.1193 C   0  0  0  0  0  0  0  0  0  0  0  0
    7.6636  -12.2658   25.3264 C   0  0  0  0  0  0  0  0  0  0  0  0
    9.8571  -16.2606   24.2752 N   0  0  0  0  0  0  0  0  0  0  0  0
   10.3648  -17.2656   25.2057 C   0  0  1  0  0  0  0  0  0  0  0  0
   11.8560  -17.4040   24.9548 C   0  0  0  0  0  0  0  0  0  0  0  0
   12.6465  -15.7748   24.8968 S   0  0  0  0  0  0  0  0  0  0  0  0
   10.0584  -16.9379   26.5984 C   0  0  0  0  0  0  0  0  0  0  0  0
    9.4147  -15.7389   26.8614 O   0  0  0  0  0  0  0  0  0  0  0  0
   10.3459  -17.6841   27.5796 O   0  0  0  0  0  0  0  0  0  0  0  0
  2  1  1  1
  3  2  1  0
  4  2  1  0
  4  5  1  6
  6  7  2  0
  6  4  1  0
  8  9  1  0
  9 10  2  0
 10 11  1  0
 12 11  2  0
 12 13  1  0
 14 13  1  1
 14 15  1  0
 15  6  1  0
 16 17  2  0
 16 14  1  0
 18 12  1  0
 19  9  1  0
 19 18  2  0
 20 16  1  0
 21 20  1  0
 21 22  1  1
 23 22  1  0
 24 21  1  0
 25 24  1  0
 26 24  2  0
M  END
$$$$
