TYC.pdb
     RDKit          3D

 26 26  0  0  1  0  0  0  0  0999 V2000
   11.5185  -22.0878   13.8779 C   0  0  0  0  0  0  0  0  0  0  0  0
   12.0245  -21.7176   15.2354 C   0  0  1  0  0  0  0  0  0  0  0  0
   12.8751  -20.6434   15.1473 O   0  0  0  0  0  0  0  0  0  0  0  0
   10.9304  -21.5467   16.2615 C   0  0  2  0  0  0  0  0  0  0  0  0
   10.0640  -20.4665   15.8363 N   0  0  0  0  0  0  0  0  0  0  0  0
   11.4203  -21.2681   17.6115 C   0  0  0  0  0  0  0  0  0  0  0  0
   11.6178  -20.0868   17.9920 O   0  0  0  0  0  0  0  0  0  0  0  0
   14.3912  -22.5874   25.8426 O   0  0  0  0  0  0  0  0  0  0  0  0
   13.8067  -22.7406   24.6009 C   0  0  0  0  0  0  0  0  0  0  0  0
   12.5559  -22.2222   24.3056 C   0  0  0  0  0  0  0  0  0  0  0  0
   11.9734  -22.3755   23.0659 C   0  0  0  0  0  0  0  0  0  0  0  0
   12.6379  -23.0596   22.0823 C   0  0  0  0  0  0  0  0  0  0  0  0
   12.0662  -23.2523   20.7473 C   0  0  0  0  0  0  0  0  0  0  0  0
   12.3021  -22.0244   19.8559 C   0  0  2  0  0  0  0  0  0  0  0  0
   11.7034  -22.2927   18.5737 N   0  0  0  0  0  0  0  0  0  0  0  0
   13.7482  -21.7222   19.7558 C   0  0  0  0  0  0  0  0  0  0  0  0
   14.4889  -22.2418   18.8641 O   0  0  0  0  0  0  0  0  0  0  0  0
   13.8994  -23.5822   22.3807 C   0  0  0  0  0  0  0  0  0  0  0  0
   14.4744  -23.4287   23.6102 C   0  0  0  0  0  0  0  0  0  0  0  0
   14.3734  -20.8272   20.6650 N   0  0  0  0  0  0  0  0  0  0  0  0
   15.7758  -20.4407   20.5328 C   0  0  1  0  0  0  0  0  0  0  0  0
   15.8788  -19.5084   19.3387 C   0  0  0  0  0  0  0  0  0  0  0  0
   17.5858  -18.9432   19.1168 S   0  0  0  0  0  0  0  0  0  0  0  0
   16.3049  -19.8425   21.7588 C   0  0  0  0  0  0  0  0  0  0  0  0
   17.6726  -19.8993   21.9764 O   0  0  0  0  0  0  0  0  0  0  0  0
   15.5884  -19.2751   22.6345 O   0  0  0  0  0  0  0  0  0  0  0  0
  2  1  1  6
  3  2  1  0
  4  2  1  0
  4  5  1  6
  6  7  2  0
  6  4  1  0
  8  9  1  0
  9 10  2  0
 10 11  1  0
 12 11  2  0
 12 13  1  0
 14 13  1  1
 14 15  1  0
 15  6  1  0
 16 17  2  0
 16 14  1  0
 18 12  1  0
 19  9  1  0
 19 18  2  0
 20 16  1  0
 21 20  1  0
 21 22  1  6
 23 22  1  0
 24 21  1  0
 25 24  1  0
 26 24  2  0
M  END
$$$$
