TYC.pdb
     RDKit          3D

 26 26  0  0  1  0  0  0  0  0999 V2000
    8.6749  -20.6118   21.4996 C   0  0  0  0  0  0  0  0  0  0  0  0
    9.0433  -20.1348   20.1312 C   0  0  1  0  0  0  0  0  0  0  0  0
    8.6566  -21.0552   19.1886 O   0  0  0  0  0  0  0  0  0  0  0  0
    8.5796  -18.7286   19.8369 C   0  0  2  0  0  0  0  0  0  0  0  0
    8.8191  -18.4476   18.4362 N   0  0  0  0  0  0  0  0  0  0  0  0
    9.2332  -17.7047   20.6520 C   0  0  0  0  0  0  0  0  0  0  0  0
   10.4372  -17.4011   20.4579 O   0  0  0  0  0  0  0  0  0  0  0  0
    6.9321  -12.5296   17.6329 O   0  0  0  0  0  0  0  0  0  0  0  0
    7.2637  -13.0769   18.8566 C   0  0  0  0  0  0  0  0  0  0  0  0
    8.4624  -12.7923   19.4912 C   0  0  0  0  0  0  0  0  0  0  0  0
    8.7925  -13.3389   20.7126 C   0  0  0  0  0  0  0  0  0  0  0  0
    7.9196  -14.1930   21.3336 C   0  0  0  0  0  0  0  0  0  0  0  0
    8.2190  -14.8022   22.6318 C   0  0  0  0  0  0  0  0  0  0  0  0
    9.2088  -15.9673   22.4872 C   0  0  2  0  0  0  0  0  0  0  0  0
    8.5679  -16.9914   21.7029 N   0  0  0  0  0  0  0  0  0  0  0  0
    9.6382  -16.4556   23.8175 C   0  0  0  0  0  0  0  0  0  0  0  0
    8.8304  -17.0003   24.6327 O   0  0  0  0  0  0  0  0  0  0  0  0
    6.7108  -14.4797   20.6931 C   0  0  0  0  0  0  0  0  0  0  0  0
    6.3861  -13.9364   19.4825 C   0  0  0  0  0  0  0  0  0  0  0  0
   10.9888  -16.3329   24.2411 N   0  0  0  0  0  0  0  0  0  0  0  0
   11.5720  -17.2225   25.2422 C   0  0  1  0  0  0  0  0  0  0  0  0
   11.3847  -18.6461   24.7484 C   0  0  0  0  0  0  0  0  0  0  0  0
   11.6813  -19.8296   26.0877 S   0  0  0  0  0  0  0  0  0  0  0  0
   12.9732  -16.9045   25.5188 C   0  0  0  0  0  0  0  0  0  0  0  0
   13.4868  -17.2408   26.7615 O   0  0  0  0  0  0  0  0  0  0  0  0
   13.7464  -16.3399   24.6908 O   0  0  0  0  0  0  0  0  0  0  0  0
  2  1  1  1
  3  2  1  0
  4  2  1  0
  4  5  1  6
  6  7  2  0
  6  4  1  0
  8  9  1  0
  9 10  2  0
 10 11  1  0
 12 11  2  0
 12 13  1  0
 14 13  1  1
 14 15  1  0
 15  6  1  0
 16 17  2  0
 16 14  1  0
 18 12  1  0
 19  9  1  0
 19 18  2  0
 20 16  1  0
 21 20  1  0
 21 22  1  6
 23 22  1  0
 24 21  1  0
 25 24  1  0
 26 24  2  0
M  END
$$$$
