TYC.pdb
     RDKit          3D

 26 26  0  0  1  0  0  0  0  0999 V2000
    8.3212  -19.0657   18.4434 C   0  0  0  0  0  0  0  0  0  0  0  0
    8.5719  -18.3956   19.7564 C   0  0  1  0  0  0  0  0  0  0  0  0
    9.3468  -19.1976   20.5573 O   0  0  0  0  0  0  0  0  0  0  0  0
    9.0891  -16.9835   19.6245 C   0  0  2  0  0  0  0  0  0  0  0  0
   10.3646  -17.0216   18.9389 N   0  0  0  0  0  0  0  0  0  0  0  0
    9.2494  -16.2878   20.9013 C   0  0  0  0  0  0  0  0  0  0  0  0
   10.3174  -16.3856   21.5564 O   0  0  0  0  0  0  0  0  0  0  0  0
    6.9674  -11.9355   28.2745 O   0  0  0  0  0  0  0  0  0  0  0  0
    7.0110  -12.4349   26.9878 C   0  0  0  0  0  0  0  0  0  0  0  0
    7.8494  -11.9058   26.0194 C   0  0  0  0  0  0  0  0  0  0  0  0
    7.8923  -12.4050   24.7354 C   0  0  0  0  0  0  0  0  0  0  0  0
    7.0873  -13.4576   24.3879 C   0  0  0  0  0  0  0  0  0  0  0  0
    7.0923  -14.0277   23.0383 C   0  0  0  0  0  0  0  0  0  0  0  0
    8.3263  -14.9127   22.8102 C   0  0  2  0  0  0  0  0  0  0  0  0
    8.2292  -15.4657   21.4839 N   0  0  0  0  0  0  0  0  0  0  0  0
    8.4201  -15.9569   23.8559 C   0  0  0  0  0  0  0  0  0  0  0  0
    7.5468  -16.8710   23.9811 O   0  0  0  0  0  0  0  0  0  0  0  0
    6.2420  -13.9909   25.3650 C   0  0  0  0  0  0  0  0  0  0  0  0
    6.2014  -13.4942   26.6368 C   0  0  0  0  0  0  0  0  0  0  0  0
    9.5048  -15.9787   24.7731 N   0  0  0  0  0  0  0  0  0  0  0  0
    9.6420  -17.0201   25.7882 C   0  0  1  0  0  0  0  0  0  0  0  0
   10.7529  -17.9511   25.3356 C   0  0  0  0  0  0  0  0  0  0  0  0
   10.0935  -19.5977   24.9660 S   0  0  0  0  0  0  0  0  0  0  0  0
    9.8816  -16.4676   27.1217 C   0  0  0  0  0  0  0  0  0  0  0  0
    9.9225  -15.0891   27.2604 O   0  0  0  0  0  0  0  0  0  0  0  0
   10.0542  -17.1731   28.1584 O   0  0  0  0  0  0  0  0  0  0  0  0
  2  1  1  6
  3  2  1  0
  4  2  1  0
  4  5  1  1
  6  7  2  0
  6  4  1  0
  8  9  1  0
  9 10  2  0
 10 11  1  0
 12 11  2  0
 12 13  1  0
 14 13  1  1
 14 15  1  0
 15  6  1  0
 16 17  2  0
 16 14  1  0
 18 12  1  0
 19  9  1  0
 19 18  2  0
 20 16  1  0
 21 20  1  0
 21 22  1  6
 23 22  1  0
 24 21  1  0
 25 24  1  0
 26 24  2  0
M  END
$$$$
