TYC.pdb
     RDKit          3D

 26 26  0  0  1  0  0  0  0  0999 V2000
   13.3660  -18.3058   16.0181 C   0  0  0  0  0  0  0  0  0  0  0  0
   12.0491  -18.9162   15.6589 C   0  0  1  0  0  0  0  0  0  0  0  0
   11.7870  -18.7263   14.3246 O   0  0  0  0  0  0  0  0  0  0  0  0
   11.9047  -20.3494   16.1109 C   0  0  2  0  0  0  0  0  0  0  0  0
   10.6191  -20.8462   15.6652 N   0  0  0  0  0  0  0  0  0  0  0  0
   12.0151  -20.5298   17.5584 C   0  0  0  0  0  0  0  0  0  0  0  0
   11.0393  -20.2869   18.3122 O   0  0  0  0  0  0  0  0  0  0  0  0
   10.5424  -26.9009   19.2690 O   0  0  0  0  0  0  0  0  0  0  0  0
   11.3917  -25.8246   19.4340 C   0  0  0  0  0  0  0  0  0  0  0  0
   11.5026  -25.1508   20.6399 C   0  0  0  0  0  0  0  0  0  0  0  0
   12.3506  -24.0767   20.8036 C   0  0  0  0  0  0  0  0  0  0  0  0
   13.1158  -23.6479   19.7512 C   0  0  0  0  0  0  0  0  0  0  0  0
   14.0338  -22.5122   19.8692 C   0  0  0  0  0  0  0  0  0  0  0  0
   13.3081  -21.1802   19.6301 C   0  0  2  0  0  0  0  0  0  0  0  0
   13.2106  -20.9843   18.2065 N   0  0  0  0  0  0  0  0  0  0  0  0
   14.0159  -20.0710   20.3093 C   0  0  0  0  0  0  0  0  0  0  0  0
   15.1617  -19.6690   19.9361 O   0  0  0  0  0  0  0  0  0  0  0  0
   13.0036  -24.3279   18.5352 C   0  0  0  0  0  0  0  0  0  0  0  0
   12.1623  -25.3922   18.3757 C   0  0  0  0  0  0  0  0  0  0  0  0
   13.4342  -19.4031   21.4202 N   0  0  0  0  0  0  0  0  0  0  0  0
   14.2451  -18.8049   22.4776 C   0  0  1  0  0  0  0  0  0  0  0  0
   13.9304  -19.5461   23.7649 C   0  0  0  0  0  0  0  0  0  0  0  0
   14.9765  -18.9469   25.1174 S   0  0  0  0  0  0  0  0  0  0  0  0
   15.6727  -18.8181   22.1573 C   0  0  0  0  0  0  0  0  0  0  0  0
   16.2836  -20.0440   21.9447 O   0  0  0  0  0  0  0  0  0  0  0  0
   16.3853  -17.7762   22.0623 O   0  0  0  0  0  0  0  0  0  0  0  0
  2  1  1  6
  3  2  1  0
  4  2  1  0
  4  5  1  1
  6  7  2  0
  6  4  1  0
  8  9  1  0
  9 10  2  0
 10 11  1  0
 12 11  2  0
 12 13  1  0
 14 13  1  6
 14 15  1  0
 15  6  1  0
 16 17  2  0
 16 14  1  0
 18 12  1  0
 19  9  1  0
 19 18  2  0
 20 16  1  0
 21 20  1  0
 21 22  1  1
 23 22  1  0
 24 21  1  0
 25 24  1  0
 26 24  2  0
M  END
$$$$
