TYC.pdb
     RDKit          3D

 26 26  0  0  1  0  0  0  0  0999 V2000
    8.2839  -13.1386   20.3692 C   0  0  0  0  0  0  0  0  0  0  0  0
    7.8106  -14.3962   19.7133 C   0  0  1  0  0  0  0  0  0  0  0  0
    7.8175  -14.2502   18.3481 O   0  0  0  0  0  0  0  0  0  0  0  0
    8.5241  -15.6352   20.1978 C   0  0  2  0  0  0  0  0  0  0  0  0
    7.9602  -16.7860   19.5226 N   0  0  0  0  0  0  0  0  0  0  0  0
    8.4449  -15.8391   21.6443 C   0  0  0  0  0  0  0  0  0  0  0  0
    7.3711  -16.2079   22.1831 O   0  0  0  0  0  0  0  0  0  0  0  0
   10.7119  -15.5560   30.1939 O   0  0  0  0  0  0  0  0  0  0  0  0
   10.7360  -15.6430   28.8159 C   0  0  0  0  0  0  0  0  0  0  0  0
   10.5508  -16.8439   28.1495 C   0  0  0  0  0  0  0  0  0  0  0  0
   10.5751  -16.9298   26.7741 C   0  0  0  0  0  0  0  0  0  0  0  0
   10.7878  -15.8019   26.0260 C   0  0  0  0  0  0  0  0  0  0  0  0
   10.8233  -15.8354   24.5618 C   0  0  0  0  0  0  0  0  0  0  0  0
    9.4244  -15.6257   23.9642 C   0  0  2  0  0  0  0  0  0  0  0  0
    9.5547  -15.6391   22.5298 N   0  0  0  0  0  0  0  0  0  0  0  0
    8.8243  -14.3695   24.4686 C   0  0  0  0  0  0  0  0  0  0  0  0
    9.0348  -13.2469   23.9125 O   0  0  0  0  0  0  0  0  0  0  0  0
   10.9746  -14.5910   26.6987 C   0  0  0  0  0  0  0  0  0  0  0  0
   10.9501  -14.5087   28.0620 C   0  0  0  0  0  0  0  0  0  0  0  0
    7.9780  -14.3694   25.6097 N   0  0  0  0  0  0  0  0  0  0  0  0
    7.4674  -13.1333   26.1971 C   0  0  1  0  0  0  0  0  0  0  0  0
    6.0496  -12.9412   25.6886 C   0  0  0  0  0  0  0  0  0  0  0  0
    5.2582  -11.5401   26.5212 S   0  0  0  0  0  0  0  0  0  0  0  0
    7.5432  -13.1402   27.6584 C   0  0  0  0  0  0  0  0  0  0  0  0
    7.4902  -11.9241   28.3213 O   0  0  0  0  0  0  0  0  0  0  0  0
    7.6543  -14.1910   28.3552 O   0  0  0  0  0  0  0  0  0  0  0  0
  2  1  1  1
  3  2  1  0
  4  2  1  0
  4  5  1  6
  6  7  2  0
  6  4  1  0
  8  9  1  0
  9 10  2  0
 10 11  1  0
 12 11  2  0
 12 13  1  0
 14 13  1  1
 14 15  1  0
 15  6  1  0
 16 17  2  0
 16 14  1  0
 18 12  1  0
 19  9  1  0
 19 18  2  0
 20 16  1  0
 21 20  1  0
 21 22  1  1
 23 22  1  0
 24 21  1  0
 25 24  1  0
 26 24  2  0
M  END
$$$$
