TYC.pdb
     RDKit          3D

 26 26  0  0  1  0  0  0  0  0999 V2000
    6.5521  -15.8758   19.6111 C   0  0  0  0  0  0  0  0  0  0  0  0
    7.2303  -14.6489   19.0906 C   0  0  1  0  0  0  0  0  0  0  0  0
    6.7984  -14.3731   17.8169 O   0  0  0  0  0  0  0  0  0  0  0  0
    7.1503  -13.4702   20.0304 C   0  0  2  0  0  0  0  0  0  0  0  0
    7.6968  -12.3081   19.3603 N   0  0  0  0  0  0  0  0  0  0  0  0
    7.8546  -13.6713   21.2968 C   0  0  0  0  0  0  0  0  0  0  0  0
    9.1077  -13.7615   21.3276 O   0  0  0  0  0  0  0  0  0  0  0  0
    9.4409  -14.4733   29.9411 O   0  0  0  0  0  0  0  0  0  0  0  0
    8.8310  -14.2634   28.7201 C   0  0  0  0  0  0  0  0  0  0  0  0
    8.7591  -13.0079   28.1378 C   0  0  0  0  0  0  0  0  0  0  0  0
    8.1502  -12.7993   26.9191 C   0  0  0  0  0  0  0  0  0  0  0  0
    7.5930  -13.8556   26.2478 C   0  0  0  0  0  0  0  0  0  0  0  0
    6.9338  -13.6913   24.9498 C   0  0  0  0  0  0  0  0  0  0  0  0
    7.8762  -14.0579   23.7942 C   0  0  2  0  0  0  0  0  0  0  0  0
    7.1867  -13.7773   22.5612 N   0  0  0  0  0  0  0  0  0  0  0  0
    8.3032  -15.4719   23.8975 C   0  0  0  0  0  0  0  0  0  0  0  0
    7.5790  -16.4304   23.4844 O   0  0  0  0  0  0  0  0  0  0  0  0
    7.6658  -15.1217   26.8355 C   0  0  0  0  0  0  0  0  0  0  0  0
    8.2699  -15.3256   28.0436 C   0  0  0  0  0  0  0  0  0  0  0  0
    9.5565  -15.8180   24.4703 N   0  0  0  0  0  0  0  0  0  0  0  0
   10.1086  -17.1668   24.3724 C   0  0  1  0  0  0  0  0  0  0  0  0
   10.4704  -17.4043   22.9170 C   0  0  0  0  0  0  0  0  0  0  0  0
   10.5833  -19.1789   22.5697 S   0  0  0  0  0  0  0  0  0  0  0  0
   11.2441  -17.3687   25.2729 C   0  0  0  0  0  0  0  0  0  0  0  0
   11.8060  -18.6339   25.3427 O   0  0  0  0  0  0  0  0  0  0  0  0
   11.7455  -16.4568   25.9933 O   0  0  0  0  0  0  0  0  0  0  0  0
  2  1  1  1
  3  2  1  0
  4  2  1  0
  4  5  1  6
  6  7  2  0
  6  4  1  0
  8  9  1  0
  9 10  2  0
 10 11  1  0
 12 11  2  0
 12 13  1  0
 14 13  1  1
 14 15  1  0
 15  6  1  0
 16 17  2  0
 16 14  1  0
 18 12  1  0
 19  9  1  0
 19 18  2  0
 20 16  1  0
 21 20  1  0
 21 22  1  6
 23 22  1  0
 24 21  1  0
 25 24  1  0
 26 24  2  0
M  END
$$$$
