TYC.pdb
     RDKit          3D

 26 26  0  0  1  0  0  0  0  0999 V2000
    6.6458  -17.5846   19.1726 C   0  0  0  0  0  0  0  0  0  0  0  0
    7.4795  -17.3454   20.3907 C   0  0  1  0  0  0  0  0  0  0  0  0
    8.4257  -18.3320   20.5185 O   0  0  0  0  0  0  0  0  0  0  0  0
    8.0418  -15.9468   20.4722 C   0  0  2  0  0  0  0  0  0  0  0  0
    8.9019  -15.7280   19.3274 N   0  0  0  0  0  0  0  0  0  0  0  0
    8.7944  -15.6795   21.6978 C   0  0  0  0  0  0  0  0  0  0  0  0
   10.0459  -15.7916   21.7204 O   0  0  0  0  0  0  0  0  0  0  0  0
   10.4205  -14.2562   30.2769 O   0  0  0  0  0  0  0  0  0  0  0  0
    9.8306  -14.3001   29.0291 C   0  0  0  0  0  0  0  0  0  0  0  0
    9.9364  -13.2541   28.1262 C   0  0  0  0  0  0  0  0  0  0  0  0
    9.3474  -13.2988   26.8810 C   0  0  0  0  0  0  0  0  0  0  0  0
    8.6306  -14.4049   26.5071 C   0  0  0  0  0  0  0  0  0  0  0  0
    7.9841  -14.5059   25.1964 C   0  0  0  0  0  0  0  0  0  0  0  0
    8.8876  -15.2211   24.1814 C   0  0  2  0  0  0  0  0  0  0  0  0
    8.1779  -15.2810   22.9296 N   0  0  0  0  0  0  0  0  0  0  0  0
    9.2745  -16.5605   24.6801 C   0  0  0  0  0  0  0  0  0  0  0  0
    8.4381  -17.5103   24.7900 O   0  0  0  0  0  0  0  0  0  0  0  0
    8.5242  -15.4596   27.4182 C   0  0  0  0  0  0  0  0  0  0  0  0
    9.1091  -15.4126   28.6517 C   0  0  0  0  0  0  0  0  0  0  0  0
   10.6144  -16.8409   25.0605 N   0  0  0  0  0  0  0  0  0  0  0  0
   11.0268  -18.1595   25.5344 C   0  0  1  0  0  0  0  0  0  0  0  0
   12.1298  -18.6484   24.6124 C   0  0  0  0  0  0  0  0  0  0  0  0
   11.5926  -18.5792   22.8834 S   0  0  0  0  0  0  0  0  0  0  0  0
   11.4366  -18.1417   26.9390 C   0  0  0  0  0  0  0  0  0  0  0  0
   11.3886  -16.9346   27.6185 O   0  0  0  0  0  0  0  0  0  0  0  0
   11.8330  -19.1634   27.5724 O   0  0  0  0  0  0  0  0  0  0  0  0
  2  1  1  6
  3  2  1  0
  4  2  1  0
  4  5  1  6
  6  7  2  0
  6  4  1  0
  8  9  1  0
  9 10  2  0
 10 11  1  0
 12 11  2  0
 12 13  1  0
 14 13  1  1
 14 15  1  0
 15  6  1  0
 16 17  2  0
 16 14  1  0
 18 12  1  0
 19  9  1  0
 19 18  2  0
 20 16  1  0
 21 20  1  0
 21 22  1  6
 23 22  1  0
 24 21  1  0
 25 24  1  0
 26 24  2  0
M  END
$$$$
