TYC.pdb
     RDKit          3D

 26 26  0  0  1  0  0  0  0  0999 V2000
    7.9297  -18.2052   17.8672 C   0  0  0  0  0  0  0  0  0  0  0  0
    8.1900  -17.7561   19.2695 C   0  0  1  0  0  0  0  0  0  0  0  0
    8.7596  -18.7733   19.9948 O   0  0  0  0  0  0  0  0  0  0  0  0
    8.9426  -16.4503   19.3553 C   0  0  2  0  0  0  0  0  0  0  0  0
   10.2456  -16.6281   18.7479 N   0  0  0  0  0  0  0  0  0  0  0  0
    9.1117  -15.9505   20.7198 C   0  0  0  0  0  0  0  0  0  0  0  0
   10.1424  -16.2289   21.3827 O   0  0  0  0  0  0  0  0  0  0  0  0
    7.2338  -12.1126   28.4628 O   0  0  0  0  0  0  0  0  0  0  0  0
    7.1827  -12.5404   27.1507 C   0  0  0  0  0  0  0  0  0  0  0  0
    6.3487  -13.5692   26.7425 C   0  0  0  0  0  0  0  0  0  0  0  0
    6.2983  -13.9954   25.4328 C   0  0  0  0  0  0  0  0  0  0  0  0
    7.0912  -13.3942   24.4911 C   0  0  0  0  0  0  0  0  0  0  0  0
    7.0779  -13.8068   23.0854 C   0  0  0  0  0  0  0  0  0  0  0  0
    8.2477  -14.7499   22.7689 C   0  0  2  0  0  0  0  0  0  0  0  0
    8.1418  -15.1291   21.3835 N   0  0  0  0  0  0  0  0  0  0  0  0
    8.2381  -15.9172   23.6799 C   0  0  0  0  0  0  0  0  0  0  0  0
    7.3953  -16.8606   23.5637 O   0  0  0  0  0  0  0  0  0  0  0  0
    7.9321  -12.3566   24.9034 C   0  0  0  0  0  0  0  0  0  0  0  0
    7.9801  -11.9361   26.2022 C   0  0  0  0  0  0  0  0  0  0  0  0
    9.1836  -16.0304   24.7343 N   0  0  0  0  0  0  0  0  0  0  0  0
    9.2868  -17.2320   25.5584 C   0  0  1  0  0  0  0  0  0  0  0  0
   10.0839  -18.2559   24.7698 C   0  0  0  0  0  0  0  0  0  0  0  0
   10.4592  -19.7003   25.7972 S   0  0  0  0  0  0  0  0  0  0  0  0
    9.8711  -16.9564   26.8713 C   0  0  0  0  0  0  0  0  0  0  0  0
    9.9594  -17.9998   27.7795 O   0  0  0  0  0  0  0  0  0  0  0  0
   10.3017  -15.8212   27.2289 O   0  0  0  0  0  0  0  0  0  0  0  0
  2  1  1  6
  3  2  1  0
  4  2  1  0
  4  5  1  1
  6  7  2  0
  6  4  1  0
  8  9  1  0
  9 10  2  0
 10 11  1  0
 12 11  2  0
 12 13  1  0
 14 13  1  1
 14 15  1  0
 15  6  1  0
 16 17  2  0
 16 14  1  0
 18 12  1  0
 19  9  1  0
 19 18  2  0
 20 16  1  0
 21 20  1  0
 21 22  1  6
 23 22  1  0
 24 21  1  0
 25 24  1  0
 26 24  2  0
M  END
$$$$
