TYC.pdb
     RDKit          3D

 26 26  0  0  1  0  0  0  0  0999 V2000
    6.9410  -22.8651   22.7088 C   0  0  0  0  0  0  0  0  0  0  0  0
    7.0058  -21.3787   22.8574 C   0  0  1  0  0  0  0  0  0  0  0  0
    7.3230  -20.7957   21.6556 O   0  0  0  0  0  0  0  0  0  0  0  0
    5.7865  -20.7846   23.5205 C   0  0  2  0  0  0  0  0  0  0  0  0
    4.6145  -21.1719   22.7624 N   0  0  0  0  0  0  0  0  0  0  0  0
    5.8245  -19.3269   23.6370 C   0  0  0  0  0  0  0  0  0  0  0  0
    5.2272  -18.6001   22.8037 O   0  0  0  0  0  0  0  0  0  0  0  0
    7.1646  -11.2347   26.8516 O   0  0  0  0  0  0  0  0  0  0  0  0
    7.1821  -12.6038   26.6712 C   0  0  0  0  0  0  0  0  0  0  0  0
    8.3428  -13.2910   26.3534 C   0  0  0  0  0  0  0  0  0  0  0  0
    8.3592  -14.6573   26.1737 C   0  0  0  0  0  0  0  0  0  0  0  0
    7.2002  -15.3750   26.3096 C   0  0  0  0  0  0  0  0  0  0  0  0
    7.1602  -16.8285   26.1298 C   0  0  0  0  0  0  0  0  0  0  0  0
    6.6546  -17.2045   24.7295 C   0  0  2  0  0  0  0  0  0  0  0  0
    6.5260  -18.6382   24.6809 N   0  0  0  0  0  0  0  0  0  0  0  0
    7.5663  -16.6800   23.6872 C   0  0  0  0  0  0  0  0  0  0  0  0
    8.6674  -17.2461   23.4028 O   0  0  0  0  0  0  0  0  0  0  0  0
    6.0298  -14.6814   26.6301 C   0  0  0  0  0  0  0  0  0  0  0  0
    6.0163  -13.3271   26.8077 C   0  0  0  0  0  0  0  0  0  0  0  0
    7.2418  -15.5073   22.9538 N   0  0  0  0  0  0  0  0  0  0  0  0
    8.0092  -15.0860   21.7845 C   0  0  1  0  0  0  0  0  0  0  0  0
    7.2611  -13.9309   21.1429 C   0  0  0  0  0  0  0  0  0  0  0  0
    8.1291  -13.3540   19.6609 S   0  0  0  0  0  0  0  0  0  0  0  0
    9.3907  -14.7414   22.1216 C   0  0  0  0  0  0  0  0  0  0  0  0
   10.3586  -14.8864   21.1401 O   0  0  0  0  0  0  0  0  0  0  0  0
    9.7565  -14.3181   23.2570 O   0  0  0  0  0  0  0  0  0  0  0  0
  2  1  1  6
  3  2  1  0
  4  2  1  0
  4  5  1  6
  6  7  2  0
  6  4  1  0
  8  9  1  0
  9 10  2  0
 10 11  1  0
 12 11  2  0
 12 13  1  0
 14 13  1  1
 14 15  1  0
 15  6  1  0
 16 17  2  0
 16 14  1  0
 18 12  1  0
 19  9  1  0
 19 18  2  0
 20 16  1  0
 21 20  1  0
 21 22  1  1
 23 22  1  0
 24 21  1  0
 25 24  1  0
 26 24  2  0
M  END
$$$$
