HIC.pdb
     RDKit          3D

 25 25  0  0  1  0  0  0  0  0999 V2000
   26.6314  -21.1391  -15.7940 N   0  0  0  0  0  0  0  0  0  0  0  0
   25.7305  -20.2468  -15.0933 C   0  0  1  0  0  0  0  0  0  0  0  0
   24.8009  -19.5408  -16.0551 C   0  0  0  0  0  0  0  0  0  0  0  0
   25.5830  -18.6493  -16.9495 C   0  0  0  0  0  0  0  0  0  0  0  0
   26.9604  -18.4322  -16.8375 C   0  0  0  0  0  0  0  0  0  0  0  0
   27.2966  -17.5741  -17.8143 N   0  0  0  0  0  0  0  0  0  0  0  0
   26.2074  -17.2393  -18.5346 C   0  0  0  0  0  0  0  0  0  0  0  0
   25.1696  -17.9033  -17.9949 N   0  0  0  0  0  0  0  0  0  0  0  0
   24.9844  -20.9524  -14.0203 C   0  0  0  0  0  0  0  0  0  0  0  0
   24.4041  -22.0385  -14.2755 O   0  0  0  0  0  0  0  0  0  0  0  0
   26.1951  -20.1485   -8.8091 C   0  0  0  0  0  0  0  0  0  0  0  0
   25.7909  -21.0429   -9.9854 C   0  0  0  0  0  0  0  0  0  0  0  0
   24.3581  -20.7047  -10.2995 C   0  0  2  0  0  0  0  0  0  0  0  0
   23.3879  -21.3818   -9.3723 C   0  0  0  0  0  0  0  0  0  0  0  0
   23.9674  -21.0473  -11.7158 C   0  0  2  0  0  0  0  0  0  0  0  0
   24.8780  -20.4710  -12.6867 N   0  0  0  0  0  0  0  0  0  0  0  0
   22.5636  -20.6700  -12.0258 C   0  0  0  0  0  0  0  0  0  0  0  0
   22.1769  -19.4777  -12.1040 O   0  0  0  0  0  0  0  0  0  0  0  0
   21.5827  -21.6761  -12.2506 N   0  0  0  0  0  0  0  0  0  0  0  0
   20.1909  -21.3201  -12.5736 C   0  0  1  0  0  0  0  0  0  0  0  0
   19.7644  -22.2484  -13.7121 C   0  0  0  0  0  0  0  0  0  0  0  0
   20.8106  -21.8483  -15.1415 S   0  0  0  0  0  0  0  0  0  0  0  0
   19.3794  -21.7180  -11.3934 C   0  0  0  0  0  0  0  0  0  0  0  0
   18.0390  -21.3266  -11.2617 O   0  0  0  0  0  0  0  0  0  0  0  0
   19.8305  -22.4209  -10.4478 O   0  0  0  0  0  0  0  0  0  0  0  0
  2  1  1  6
  2  9  1  0
  3  2  1  0
  4  3  1  0
  5  4  2  0
  6  5  1  0
  7  6  1  0
  7  8  2  0
  8  4  1  0
  9 16  1  0
  9 10  2  0
 12 11  1  0
 13 12  1  0
 13 14  1  1
 15 13  1  0
 15 16  1  6
 17 15  1  0
 17 18  2  0
 19 17  1  0
 20 19  1  0
 21 22  1  0
 20 21  1  6
 23 20  1  0
 23 24  1  0
 25 23  2  0
M  END
$$$$
