HIC.pdb
     RDKit          3D

 25 25  0  0  1  0  0  0  0  0999 V2000
   18.2087  -13.3722  -16.5201 N   0  0  0  0  0  0  0  0  0  0  0  0
   18.6017  -12.0857  -17.0579 C   0  0  1  0  0  0  0  0  0  0  0  0
   17.3965  -11.2849  -17.4984 C   0  0  0  0  0  0  0  0  0  0  0  0
   16.6629  -12.0205  -18.5600 C   0  0  0  0  0  0  0  0  0  0  0  0
   17.1442  -12.2178  -19.8586 C   0  0  0  0  0  0  0  0  0  0  0  0
   16.2063  -12.9195  -20.5154 N   0  0  0  0  0  0  0  0  0  0  0  0
   15.1617  -13.1747  -19.7024 C   0  0  0  0  0  0  0  0  0  0  0  0
   15.4550  -12.6198  -18.5127 N   0  0  0  0  0  0  0  0  0  0  0  0
   19.4502  -11.3283  -16.1031 C   0  0  0  0  0  0  0  0  0  0  0  0
   19.1539  -11.3153  -14.8808 O   0  0  0  0  0  0  0  0  0  0  0  0
   25.0523  -10.3880  -14.4780 C   0  0  0  0  0  0  0  0  0  0  0  0
   23.6694   -9.7321  -14.4113 C   0  0  0  0  0  0  0  0  0  0  0  0
   22.8224  -10.4277  -15.4431 C   0  0  2  0  0  0  0  0  0  0  0  0
   23.4321  -10.3835  -16.8163 C   0  0  0  0  0  0  0  0  0  0  0  0
   21.4245   -9.8679  -15.5344 C   0  0  2  0  0  0  0  0  0  0  0  0
   20.6072  -10.5959  -16.4861 N   0  0  0  0  0  0  0  0  0  0  0  0
   21.4131   -8.4131  -15.8391 C   0  0  0  0  0  0  0  0  0  0  0  0
   21.7086   -7.9481  -16.9676 O   0  0  0  0  0  0  0  0  0  0  0  0
   21.0568   -7.4718  -14.8332 N   0  0  0  0  0  0  0  0  0  0  0  0
   21.0111   -6.0294  -15.1259 C   0  0  1  0  0  0  0  0  0  0  0  0
   19.6278   -5.5467  -14.6862 C   0  0  0  0  0  0  0  0  0  0  0  0
   19.6426   -3.7337  -14.7876 S   0  0  0  0  0  0  0  0  0  0  0  0
   21.9826   -5.3901  -14.2002 C   0  0  0  0  0  0  0  0  0  0  0  0
   22.6957   -4.2398  -14.5683 O   0  0  0  0  0  0  0  0  0  0  0  0
   22.2282   -5.8285  -13.0429 O   0  0  0  0  0  0  0  0  0  0  0  0
  2  1  1  1
  2  9  1  0
  3  2  1  0
  4  3  1  0
  5  4  2  0
  6  5  1  0
  7  6  1  0
  7  8  2  0
  8  4  1  0
  9 16  1  0
  9 10  2  0
 12 11  1  0
 13 12  1  0
 13 14  1  6
 15 13  1  0
 15 16  1  6
 17 15  1  0
 17 18  2  0
 19 17  1  0
 20 19  1  0
 21 22  1  0
 20 21  1  1
 23 20  1  0
 23 24  1  0
 25 23  2  0
M  END
$$$$
