HIC.pdb
     RDKit          3D

 25 25  0  0  1  0  0  0  0  0999 V2000
   21.1128  -12.6921  -19.1348 N   0  0  0  0  0  0  0  0  0  0  0  0
   21.8234  -11.4498  -18.9100 C   0  0  1  0  0  0  0  0  0  0  0  0
   22.0030  -10.6804  -20.1997 C   0  0  0  0  0  0  0  0  0  0  0  0
   22.7893  -11.4906  -21.1649 C   0  0  0  0  0  0  0  0  0  0  0  0
   24.1870  -11.5244  -21.2108 C   0  0  0  0  0  0  0  0  0  0  0  0
   24.5204  -12.3618  -22.2064 N   0  0  0  0  0  0  0  0  0  0  0  0
   23.4102  -12.8568  -22.7893 C   0  0  0  0  0  0  0  0  0  0  0  0
   22.3619  -12.3160  -22.1429 N   0  0  0  0  0  0  0  0  0  0  0  0
   21.1698  -10.6262  -17.8611 C   0  0  0  0  0  0  0  0  0  0  0  0
   19.9206  -10.6707  -17.7222 O   0  0  0  0  0  0  0  0  0  0  0  0
   21.5318   -9.2186  -12.1395 C   0  0  0  0  0  0  0  0  0  0  0  0
   21.0582   -8.5985  -13.4579 C   0  0  0  0  0  0  0  0  0  0  0  0
   21.6803   -9.4178  -14.5568 C   0  0  2  0  0  0  0  0  0  0  0  0
   23.1826   -9.3726  -14.5315 C   0  0  0  0  0  0  0  0  0  0  0  0
   21.2236   -9.0029  -15.9335 C   0  0  2  0  0  0  0  0  0  0  0  0
   21.8788   -9.7666  -16.9781 N   0  0  0  0  0  0  0  0  0  0  0  0
   21.3851   -7.5445  -16.1709 C   0  0  0  0  0  0  0  0  0  0  0  0
   22.5024   -6.9713  -16.1732 O   0  0  0  0  0  0  0  0  0  0  0  0
   20.2462   -6.7257  -16.4104 N   0  0  0  0  0  0  0  0  0  0  0  0
   20.3943   -5.3008  -16.7512 C   0  0  1  0  0  0  0  0  0  0  0  0
   19.0949   -4.8892  -17.4455 C   0  0  0  0  0  0  0  0  0  0  0  0
   18.9909   -5.8466  -18.9851 S   0  0  0  0  0  0  0  0  0  0  0  0
   20.4188   -4.5683  -15.4580 C   0  0  0  0  0  0  0  0  0  0  0  0
   20.1092   -5.2081  -14.2489 O   0  0  0  0  0  0  0  0  0  0  0  0
   20.7138   -3.3455  -15.3600 O   0  0  0  0  0  0  0  0  0  0  0  0
  2  1  1  6
  2  9  1  0
  3  2  1  0
  4  3  1  0
  5  4  2  0
  6  5  1  0
  7  6  1  0
  7  8  2  0
  8  4  1  0
  9 16  1  0
  9 10  2  0
 12 11  1  0
 13 12  1  0
 13 14  1  6
 15 13  1  0
 15 16  1  6
 17 15  1  0
 17 18  2  0
 19 17  1  0
 20 19  1  0
 21 22  1  0
 20 21  1  6
 23 20  1  0
 23 24  1  0
 25 23  2  0
M  END
$$$$
