HIC.pdb
     RDKit          3D

 25 25  0  0  1  0  0  0  0  0999 V2000
   20.8814  -13.3019  -17.5466 N   0  0  0  0  0  0  0  0  0  0  0  0
   21.4208  -12.0197  -17.9516 C   0  0  1  0  0  0  0  0  0  0  0  0
   20.3266  -11.0918  -18.4304 C   0  0  0  0  0  0  0  0  0  0  0  0
   19.6488  -11.6800  -19.6141 C   0  0  0  0  0  0  0  0  0  0  0  0
   20.2936  -11.9986  -20.8139 C   0  0  0  0  0  0  0  0  0  0  0  0
   19.3568  -12.5032  -21.6333 N   0  0  0  0  0  0  0  0  0  0  0  0
   18.1587  -12.5198  -21.0158 C   0  0  0  0  0  0  0  0  0  0  0  0
   18.3529  -12.0144  -19.7845 N   0  0  0  0  0  0  0  0  0  0  0  0
   22.2368  -11.4033  -16.8747 C   0  0  0  0  0  0  0  0  0  0  0  0
   21.8327  -11.4462  -15.6844 O   0  0  0  0  0  0  0  0  0  0  0  0
   27.4442  -12.2264  -16.1428 C   0  0  0  0  0  0  0  0  0  0  0  0
   25.9292  -12.0139  -16.0620 C   0  0  0  0  0  0  0  0  0  0  0  0
   25.7092  -10.5253  -16.1041 C   0  0  2  0  0  0  0  0  0  0  0  0
   26.4321   -9.8031  -15.0017 C   0  0  0  0  0  0  0  0  0  0  0  0
   24.2518  -10.1417  -16.0367 C   0  0  2  0  0  0  0  0  0  0  0  0
   23.4786  -10.7494  -17.1028 N   0  0  0  0  0  0  0  0  0  0  0  0
   24.0515   -8.6690  -16.0182 C   0  0  0  0  0  0  0  0  0  0  0  0
   24.4657   -7.9338  -15.0881 O   0  0  0  0  0  0  0  0  0  0  0  0
   23.3641   -8.0245  -17.0845 N   0  0  0  0  0  0  0  0  0  0  0  0
   23.1497   -6.5676  -17.0782 C   0  0  1  0  0  0  0  0  0  0  0  0
   23.0238   -6.1469  -18.5435 C   0  0  0  0  0  0  0  0  0  0  0  0
   24.5996   -6.5545  -19.3486 S   0  0  0  0  0  0  0  0  0  0  0  0
   21.8097   -6.3511  -16.4722 C   0  0  0  0  0  0  0  0  0  0  0  0
   21.3934   -5.0790  -16.0530 O   0  0  0  0  0  0  0  0  0  0  0  0
   20.9711   -7.2772  -16.2963 O   0  0  0  0  0  0  0  0  0  0  0  0
  2  1  1  1
  2  9  1  0
  3  2  1  0
  4  3  1  0
  5  4  2  0
  6  5  1  0
  7  6  1  0
  7  8  2  0
  8  4  1  0
  9 16  1  0
  9 10  2  0
 12 11  1  0
 13 12  1  0
 13 14  1  1
 15 13  1  0
 15 16  1  6
 17 15  1  0
 17 18  2  0
 19 17  1  0
 20 19  1  0
 21 22  1  0
 20 21  1  6
 23 20  1  0
 23 24  1  0
 25 23  2  0
M  END
$$$$
