HIC.pdb
     RDKit          3D

 25 25  0  0  1  0  0  0  0  0999 V2000
   25.9229  -11.9719  -21.2075 N   0  0  0  0  0  0  0  0  0  0  0  0
   26.0595  -10.6195  -20.7063 C   0  0  1  0  0  0  0  0  0  0  0  0
   25.7300   -9.6028  -21.7765 C   0  0  0  0  0  0  0  0  0  0  0  0
   26.7150   -9.6995  -22.8842 C   0  0  0  0  0  0  0  0  0  0  0  0
   26.4404  -10.2596  -24.1363 C   0  0  0  0  0  0  0  0  0  0  0  0
   27.5691  -10.1643  -24.8577 N   0  0  0  0  0  0  0  0  0  0  0  0
   28.5385   -9.5754  -24.1292 C   0  0  0  0  0  0  0  0  0  0  0  0
   28.0022   -9.2975  -22.9273 N   0  0  0  0  0  0  0  0  0  0  0  0
   25.2561  -10.4071  -19.4755 C   0  0  0  0  0  0  0  0  0  0  0  0
   24.0832  -10.8567  -19.4115 O   0  0  0  0  0  0  0  0  0  0  0  0
   27.7098  -11.2575  -16.5182 C   0  0  0  0  0  0  0  0  0  0  0  0
   26.3054  -11.3381  -15.9115 C   0  0  0  0  0  0  0  0  0  0  0  0
   25.7746   -9.9297  -15.8878 C   0  0  2  0  0  0  0  0  0  0  0  0
   24.9318   -9.6502  -14.6750 C   0  0  0  0  0  0  0  0  0  0  0  0
   24.9621   -9.5843  -17.1110 C   0  0  2  0  0  0  0  0  0  0  0  0
   25.7348   -9.7108  -18.3320 N   0  0  0  0  0  0  0  0  0  0  0  0
   24.3426   -8.2362  -17.0204 C   0  0  0  0  0  0  0  0  0  0  0  0
   25.0012   -7.1721  -17.1259 O   0  0  0  0  0  0  0  0  0  0  0  0
   22.9424   -8.1025  -16.8047 N   0  0  0  0  0  0  0  0  0  0  0  0
   22.2960   -6.7795  -16.8151 C   0  0  1  0  0  0  0  0  0  0  0  0
   21.0162   -6.9346  -17.6385 C   0  0  0  0  0  0  0  0  0  0  0  0
   21.5246   -7.2729  -19.3486 S   0  0  0  0  0  0  0  0  0  0  0  0
   21.8572   -6.5245  -15.4180 C   0  0  0  0  0  0  0  0  0  0  0  0
   21.9694   -7.5085  -14.4248 O   0  0  0  0  0  0  0  0  0  0  0  0
   21.3636   -5.4279  -15.0362 O   0  0  0  0  0  0  0  0  0  0  0  0
  2  1  1  6
  2  9  1  0
  3  2  1  0
  4  3  1  0
  5  4  2  0
  6  5  1  0
  7  6  1  0
  7  8  2  0
  8  4  1  0
  9 16  1  0
  9 10  2  0
 12 11  1  0
 13 12  1  0
 13 14  1  1
 15 13  1  0
 15 16  1  6
 17 15  1  0
 17 18  2  0
 19 17  1  0
 20 19  1  0
 21 22  1  0
 20 21  1  6
 23 20  1  0
 23 24  1  0
 25 23  2  0
M  END
$$$$
