HIC.pdb
     RDKit          3D

 25 25  0  0  1  0  0  0  0  0999 V2000
   27.1394  -24.5234  -17.7869 N   0  0  0  0  0  0  0  0  0  0  0  0
   26.0920  -23.9190  -16.9891 C   0  0  1  0  0  0  0  0  0  0  0  0
   25.2164  -24.9717  -16.3466 C   0  0  0  0  0  0  0  0  0  0  0  0
   24.2873  -25.5399  -17.3567 C   0  0  0  0  0  0  0  0  0  0  0  0
   23.0193  -25.0219  -17.6406 C   0  0  0  0  0  0  0  0  0  0  0  0
   22.4906  -25.7994  -18.5996 N   0  0  0  0  0  0  0  0  0  0  0  0
   23.3555  -26.7776  -18.9348 C   0  0  0  0  0  0  0  0  0  0  0  0
   24.4471  -26.6061  -18.1678 N   0  0  0  0  0  0  0  0  0  0  0  0
   26.6434  -22.9714  -15.9873 C   0  0  0  0  0  0  0  0  0  0  0  0
   27.6980  -23.2636  -15.3676 O   0  0  0  0  0  0  0  0  0  0  0  0
   27.3219  -19.3865  -17.3439 C   0  0  0  0  0  0  0  0  0  0  0  0
   27.8127  -19.1678  -15.9092 C   0  0  0  0  0  0  0  0  0  0  0  0
   26.6311  -19.4305  -15.0145 C   0  0  2  0  0  0  0  0  0  0  0  0
   26.6470  -18.5836  -13.7727 C   0  0  0  0  0  0  0  0  0  0  0  0
   26.5189  -20.8749  -14.5934 C   0  0  2  0  0  0  0  0  0  0  0  0
   26.0443  -21.7213  -15.6714 N   0  0  0  0  0  0  0  0  0  0  0  0
   25.6778  -21.0501  -13.3806 C   0  0  0  0  0  0  0  0  0  0  0  0
   24.4422  -21.2689  -13.4306 O   0  0  0  0  0  0  0  0  0  0  0  0
   26.2614  -20.9735  -12.0850 N   0  0  0  0  0  0  0  0  0  0  0  0
   25.4295  -21.0503  -10.8724 C   0  0  1  0  0  0  0  0  0  0  0  0
   26.3018  -20.5451   -9.7219 C   0  0  0  0  0  0  0  0  0  0  0  0
   25.2615  -20.5351   -8.2335 S   0  0  0  0  0  0  0  0  0  0  0  0
   24.3534  -20.0398  -11.0463 C   0  0  0  0  0  0  0  0  0  0  0  0
   23.0385  -20.2920  -10.6283 O   0  0  0  0  0  0  0  0  0  0  0  0
   24.5438  -18.9084  -11.5712 O   0  0  0  0  0  0  0  0  0  0  0  0
  2  1  1  1
  2  9  1  0
  3  2  1  0
  4  3  1  0
  5  4  2  0
  6  5  1  0
  7  6  1  0
  7  8  2  0
  8  4  1  0
  9 16  1  0
  9 10  2  0
 12 11  1  0
 13 12  1  0
 13 14  1  1
 15 13  1  0
 15 16  1  6
 17 15  1  0
 17 18  2  0
 19 17  1  0
 20 19  1  0
 21 22  1  0
 20 21  1  1
 23 20  1  0
 23 24  1  0
 25 23  2  0
M  END
$$$$
