HIC.pdb
     RDKit          3D

 25 25  0  0  1  0  0  0  0  0999 V2000
   24.5906  -11.0730  -18.1681 N   0  0  0  0  0  0  0  0  0  0  0  0
   24.6291   -9.8821  -17.3441 C   0  0  1  0  0  0  0  0  0  0  0  0
   25.6870   -8.9154  -17.8277 C   0  0  0  0  0  0  0  0  0  0  0  0
   27.0187   -9.5729  -17.8059 C   0  0  0  0  0  0  0  0  0  0  0  0
   27.8062   -9.7203  -16.6591 C   0  0  0  0  0  0  0  0  0  0  0  0
   28.9256  -10.3577  -17.0388 N   0  0  0  0  0  0  0  0  0  0  0  0
   28.8862  -10.6195  -18.3606 C   0  0  0  0  0  0  0  0  0  0  0  0
   27.7166  -10.1346  -18.8147 N   0  0  0  0  0  0  0  0  0  0  0  0
   23.2942   -9.2384  -17.2478 C   0  0  0  0  0  0  0  0  0  0  0  0
   22.5763   -9.1358  -18.2754 O   0  0  0  0  0  0  0  0  0  0  0  0
   19.6233  -11.0316  -14.1364 C   0  0  0  0  0  0  0  0  0  0  0  0
   20.2975  -10.3654  -15.3400 C   0  0  0  0  0  0  0  0  0  0  0  0
   20.5780   -8.9437  -14.9328 C   0  0  2  0  0  0  0  0  0  0  0  0
   19.3226   -8.1559  -14.6824 C   0  0  0  0  0  0  0  0  0  0  0  0
   21.4070   -8.1922  -15.9447 C   0  0  2  0  0  0  0  0  0  0  0  0
   22.7565   -8.7154  -16.0400 N   0  0  0  0  0  0  0  0  0  0  0  0
   21.4296   -6.7285  -15.6874 C   0  0  0  0  0  0  0  0  0  0  0  0
   21.9086   -6.2250  -14.6414 O   0  0  0  0  0  0  0  0  0  0  0  0
   20.8936   -5.8228  -16.6452 N   0  0  0  0  0  0  0  0  0  0  0  0
   20.8711   -4.3730  -16.3889 C   0  0  1  0  0  0  0  0  0  0  0  0
   20.4909   -3.7096  -17.7138 C   0  0  0  0  0  0  0  0  0  0  0  0
   20.3196   -1.9318  -17.3858 S   0  0  0  0  0  0  0  0  0  0  0  0
   19.7289   -4.1351  -15.4678 C   0  0  0  0  0  0  0  0  0  0  0  0
   19.8190   -3.2149  -14.4131 O   0  0  0  0  0  0  0  0  0  0  0  0
   18.6219   -4.7319  -15.5686 O   0  0  0  0  0  0  0  0  0  0  0  0
  2  1  1  6
  2  9  1  0
  3  2  1  0
  4  3  1  0
  5  4  2  0
  6  5  1  0
  7  6  1  0
  7  8  2  0
  8  4  1  0
  9 16  1  0
  9 10  2  0
 12 11  1  0
 13 12  1  0
 13 14  1  6
 15 13  1  0
 15 16  1  1
 17 15  1  0
 17 18  2  0
 19 17  1  0
 20 19  1  0
 21 22  1  0
 20 21  1  6
 23 20  1  0
 23 24  1  0
 25 23  2  0
M  END
$$$$
