HIC.pdb
     RDKit          3D

 25 25  0  0  1  0  0  0  0  0999 V2000
   26.8182  -19.8207  -17.9331 N   0  0  0  0  0  0  0  0  0  0  0  0
   25.9813  -19.0796  -17.0116 C   0  0  1  0  0  0  0  0  0  0  0  0
   25.0498  -18.1437  -17.7492 C   0  0  0  0  0  0  0  0  0  0  0  0
   25.8378  -17.1018  -18.4562 C   0  0  0  0  0  0  0  0  0  0  0  0
   26.6189  -16.1342  -17.8155 C   0  0  0  0  0  0  0  0  0  0  0  0
   27.1706  -15.3819  -18.7815 N   0  0  0  0  0  0  0  0  0  0  0  0
   26.7801  -15.8223  -19.9942 C   0  0  0  0  0  0  0  0  0  0  0  0
   25.9672  -16.8722  -19.7794 N   0  0  0  0  0  0  0  0  0  0  0  0
   25.2435  -19.9835  -16.0927 C   0  0  0  0  0  0  0  0  0  0  0  0
   24.6341  -20.9813  -16.5562 O   0  0  0  0  0  0  0  0  0  0  0  0
   26.9065  -21.2546  -11.0436 C   0  0  0  0  0  0  0  0  0  0  0  0
   26.3919  -21.3033  -12.4857 C   0  0  0  0  0  0  0  0  0  0  0  0
   24.9802  -20.7822  -12.4476 C   0  0  2  0  0  0  0  0  0  0  0  0
   24.0672  -21.6469  -11.6242 C   0  0  0  0  0  0  0  0  0  0  0  0
   24.3695  -20.6308  -13.8187 C   0  0  2  0  0  0  0  0  0  0  0  0
   25.1767  -19.7933  -14.6852 N   0  0  0  0  0  0  0  0  0  0  0  0
   22.9695  -20.1344  -13.7661 C   0  0  0  0  0  0  0  0  0  0  0  0
   22.6527  -19.0338  -13.2509 O   0  0  0  0  0  0  0  0  0  0  0  0
   21.9110  -20.9120  -14.3136 N   0  0  0  0  0  0  0  0  0  0  0  0
   20.5147  -20.4498  -14.2426 C   0  0  1  0  0  0  0  0  0  0  0  0
   19.8608  -20.8578  -15.5639 C   0  0  0  0  0  0  0  0  0  0  0  0
   18.1030  -20.4184  -15.4426 S   0  0  0  0  0  0  0  0  0  0  0  0
   19.8617  -21.2717  -13.1901 C   0  0  0  0  0  0  0  0  0  0  0  0
   18.8356  -20.7518  -12.3876 O   0  0  0  0  0  0  0  0  0  0  0  0
   20.1783  -22.4693  -12.9505 O   0  0  0  0  0  0  0  0  0  0  0  0
  2  1  1  6
  2  9  1  0
  3  2  1  0
  4  3  1  0
  5  4  2  0
  6  5  1  0
  7  6  1  0
  7  8  2  0
  8  4  1  0
  9 16  1  0
  9 10  2  0
 12 11  1  0
 13 12  1  0
 13 14  1  1
 15 13  1  0
 15 16  1  6
 17 15  1  0
 17 18  2  0
 19 17  1  0
 20 19  1  0
 21 22  1  0
 20 21  1  6
 23 20  1  0
 23 24  1  0
 25 23  2  0
M  END
$$$$
