HIC.pdb
     RDKit          3D

 25 25  0  0  1  0  0  0  0  0999 V2000
   19.0929  -11.7097  -18.6870 N   0  0  0  0  0  0  0  0  0  0  0  0
   20.1100  -10.6792  -18.7368 C   0  0  1  0  0  0  0  0  0  0  0  0
   19.8729   -9.7310  -19.8911 C   0  0  0  0  0  0  0  0  0  0  0  0
   20.0651  -10.4462  -21.1787 C   0  0  0  0  0  0  0  0  0  0  0  0
   20.6164  -11.7267  -21.2944 C   0  0  0  0  0  0  0  0  0  0  0  0
   20.6244  -12.0267  -22.6034 N   0  0  0  0  0  0  0  0  0  0  0  0
   20.1089  -11.0063  -23.3177 C   0  0  0  0  0  0  0  0  0  0  0  0
   19.7722  -10.0492  -22.4345 N   0  0  0  0  0  0  0  0  0  0  0  0
   20.2240   -9.9583  -17.4434 C   0  0  0  0  0  0  0  0  0  0  0  0
   19.1829   -9.6339  -16.8168 O   0  0  0  0  0  0  0  0  0  0  0  0
   21.1799   -9.1624  -12.4673 C   0  0  0  0  0  0  0  0  0  0  0  0
   22.4865   -8.9710  -13.2440 C   0  0  0  0  0  0  0  0  0  0  0  0
   22.3136   -9.7038  -14.5474 C   0  0  2  0  0  0  0  0  0  0  0  0
   23.6243  -10.1172  -15.1561 C   0  0  0  0  0  0  0  0  0  0  0  0
   21.5515   -8.9063  -15.5766 C   0  0  2  0  0  0  0  0  0  0  0  0
   21.4642   -9.5995  -16.8477 N   0  0  0  0  0  0  0  0  0  0  0  0
   22.1059   -7.5398  -15.7621 C   0  0  0  0  0  0  0  0  0  0  0  0
   23.2227   -7.3208  -16.2930 O   0  0  0  0  0  0  0  0  0  0  0  0
   21.3685   -6.4013  -15.3319 N   0  0  0  0  0  0  0  0  0  0  0  0
   21.8844   -5.0386  -15.5439 C   0  0  1  0  0  0  0  0  0  0  0  0
   20.8040   -4.2882  -16.3247 C   0  0  0  0  0  0  0  0  0  0  0  0
   20.6633   -5.0969  -17.9445 S   0  0  0  0  0  0  0  0  0  0  0  0
   21.9361   -4.4039  -14.2008 C   0  0  0  0  0  0  0  0  0  0  0  0
   22.4522   -3.1122  -14.0214 O   0  0  0  0  0  0  0  0  0  0  0  0
   21.5277   -4.9712  -13.1504 O   0  0  0  0  0  0  0  0  0  0  0  0
  2  1  1  1
  2  9  1  0
  3  2  1  0
  4  3  1  0
  5  4  2  0
  6  5  1  0
  7  6  1  0
  7  8  2  0
  8  4  1  0
  9 16  1  0
  9 10  2  0
 12 11  1  0
 13 12  1  0
 13 14  1  6
 15 13  1  0
 15 16  1  6
 17 15  1  0
 17 18  2  0
 19 17  1  0
 20 19  1  0
 21 22  1  0
 20 21  1  6
 23 20  1  0
 23 24  1  0
 25 23  2  0
M  END
$$$$
