HIC.pdb
     RDKit          3D

 25 25  0  0  1  0  0  0  0  0999 V2000
   28.3312  -20.7812  -16.3362 N   0  0  0  0  0  0  0  0  0  0  0  0
   27.4330  -19.9300  -15.5829 C   0  0  1  0  0  0  0  0  0  0  0  0
   26.7819  -18.8960  -16.4742 C   0  0  0  0  0  0  0  0  0  0  0  0
   27.8075  -17.9468  -16.9778 C   0  0  0  0  0  0  0  0  0  0  0  0
   29.1619  -17.9930  -16.6308 C   0  0  0  0  0  0  0  0  0  0  0  0
   29.7615  -16.9819  -17.2804 N   0  0  0  0  0  0  0  0  0  0  0  0
   28.8596  -16.3023  -18.0167 C   0  0  0  0  0  0  0  0  0  0  0  0
   27.6720  -16.9029  -17.8217 N   0  0  0  0  0  0  0  0  0  0  0  0
   26.4279  -20.7233  -14.8305 C   0  0  0  0  0  0  0  0  0  0  0  0
   25.9918  -21.7983  -15.3162 O   0  0  0  0  0  0  0  0  0  0  0  0
   25.4058  -20.2538   -9.1744 C   0  0  0  0  0  0  0  0  0  0  0  0
   25.1142  -19.9403  -10.6454 C   0  0  0  0  0  0  0  0  0  0  0  0
   25.2292  -21.2459  -11.3857 C   0  0  2  0  0  0  0  0  0  0  0  0
   26.5918  -21.8668  -11.2539 C   0  0  0  0  0  0  0  0  0  0  0  0
   24.9129  -21.1211  -12.8555 C   0  0  2  0  0  0  0  0  0  0  0  0
   25.9097  -20.3404  -13.5630 N   0  0  0  0  0  0  0  0  0  0  0  0
   23.5513  -20.5776  -13.1001 C   0  0  0  0  0  0  0  0  0  0  0  0
   23.3017  -19.3473  -13.1343 O   0  0  0  0  0  0  0  0  0  0  0  0
   22.4536  -21.4585  -13.3098 N   0  0  0  0  0  0  0  0  0  0  0  0
   21.1058  -20.9373  -13.5927 C   0  0  1  0  0  0  0  0  0  0  0  0
   20.3029  -22.1102  -14.1581 C   0  0  0  0  0  0  0  0  0  0  0  0
   21.1714  -22.6765  -15.6490 S   0  0  0  0  0  0  0  0  0  0  0  0
   20.4999  -20.6235  -12.2721 C   0  0  0  0  0  0  0  0  0  0  0  0
   19.4638  -19.6864  -12.1468 O   0  0  0  0  0  0  0  0  0  0  0  0
   20.8677  -21.1669  -11.1945 O   0  0  0  0  0  0  0  0  0  0  0  0
  2  1  1  6
  2  9  1  0
  3  2  1  0
  4  3  1  0
  5  4  2  0
  6  5  1  0
  7  6  1  0
  7  8  2  0
  8  4  1  0
  9 16  1  0
  9 10  2  0
 12 11  1  0
 13 12  1  0
 13 14  1  6
 15 13  1  0
 15 16  1  6
 17 15  1  0
 17 18  2  0
 19 17  1  0
 20 19  1  0
 21 22  1  0
 20 21  1  1
 23 20  1  0
 23 24  1  0
 25 23  2  0
M  END
$$$$
