HIC.pdb
     RDKit          3D

 25 25  0  0  1  0  0  0  0  0999 V2000
   21.7163  -15.7587  -17.2615 N   0  0  0  0  0  0  0  0  0  0  0  0
   22.2048  -14.5486  -17.8908 C   0  0  1  0  0  0  0  0  0  0  0  0
   21.2565  -14.0700  -18.9675 C   0  0  0  0  0  0  0  0  0  0  0  0
   21.1874  -15.0731  -20.0608 C   0  0  0  0  0  0  0  0  0  0  0  0
   22.1519  -16.0610  -20.2861 C   0  0  0  0  0  0  0  0  0  0  0  0
   21.7409  -16.7657  -21.3530 N   0  0  0  0  0  0  0  0  0  0  0  0
   20.5716  -16.2760  -21.8114 C   0  0  0  0  0  0  0  0  0  0  0  0
   20.2466  -15.2436  -21.0127 N   0  0  0  0  0  0  0  0  0  0  0  0
   22.4884  -13.4870  -16.8917 C   0  0  0  0  0  0  0  0  0  0  0  0
   21.6914  -13.3010  -15.9367 O   0  0  0  0  0  0  0  0  0  0  0  0
   27.5335  -12.0599  -15.3209 C   0  0  0  0  0  0  0  0  0  0  0  0
   26.0529  -12.4526  -15.2988 C   0  0  0  0  0  0  0  0  0  0  0  0
   25.2903  -11.2503  -15.7873 C   0  0  2  0  0  0  0  0  0  0  0  0
   25.3895  -10.0819  -14.8470 C   0  0  0  0  0  0  0  0  0  0  0  0
   23.8281  -11.5353  -16.0257 C   0  0  2  0  0  0  0  0  0  0  0  0
   23.6311  -12.6424  -16.9418 N   0  0  0  0  0  0  0  0  0  0  0  0
   23.0823  -10.3350  -16.4864 C   0  0  0  0  0  0  0  0  0  0  0  0
   23.1918   -9.8647  -17.6457 O   0  0  0  0  0  0  0  0  0  0  0  0
   22.1939   -9.6592  -15.6038 N   0  0  0  0  0  0  0  0  0  0  0  0
   21.3773   -8.5261  -16.0700 C   0  0  1  0  0  0  0  0  0  0  0  0
   19.9281   -8.8708  -15.7224 C   0  0  0  0  0  0  0  0  0  0  0  0
   18.9286   -7.4037  -16.1046 S   0  0  0  0  0  0  0  0  0  0  0  0
   21.7433   -7.3721  -15.2075 C   0  0  0  0  0  0  0  0  0  0  0  0
   21.7617   -6.0619  -15.7076 O   0  0  0  0  0  0  0  0  0  0  0  0
   22.0562   -7.4884  -13.9908 O   0  0  0  0  0  0  0  0  0  0  0  0
  2  1  1  1
  2  9  1  0
  3  2  1  0
  4  3  1  0
  5  4  2  0
  6  5  1  0
  7  6  1  0
  7  8  2  0
  8  4  1  0
  9 16  1  0
  9 10  2  0
 12 11  1  0
 13 12  1  0
 13 14  1  1
 15 13  1  0
 15 16  1  6
 17 15  1  0
 17 18  2  0
 19 17  1  0
 20 19  1  0
 21 22  1  0
 20 21  1  1
 23 20  1  0
 23 24  1  0
 25 23  2  0
M  END
$$$$
