VIY.pdb
     RDKit          3D

 28 28  0  0  1  0  0  0  0  0999 V2000
    4.4561  -19.8255   22.7048 C   0  0  0  0  0  0  0  0  0  0  0  0
    5.5180  -18.7807   22.5124 C   0  0  1  0  0  0  0  0  0  0  0  0
    6.8738  -19.4071   22.8097 C   0  0  0  0  0  0  0  0  0  0  0  0
    5.5821  -18.2632   21.0806 C   0  0  2  0  0  0  0  0  0  0  0  0
    5.6986  -19.4332   20.2352 N   0  0  0  0  0  0  0  0  0  0  0  0
    6.7992  -17.4147   20.9948 C   0  0  0  0  0  0  0  0  0  0  0  0
    7.8674  -17.9451   20.5913 O   0  0  0  0  0  0  0  0  0  0  0  0
    6.5351  -12.7771   18.7666 C   0  0  0  0  0  0  0  0  0  0  0  0
    7.1395  -14.0162   19.3145 C   0  0  0  0  0  0  0  0  0  0  0  0
    7.6634  -13.8955   20.7131 C   0  0  2  0  0  0  0  0  0  0  0  0
    8.7197  -12.8529   20.8743 C   0  0  0  0  0  0  0  0  0  0  0  0
    8.0581  -15.2429   21.2924 C   0  0  2  0  0  0  0  0  0  0  0  0
    6.8345  -16.0543   21.3360 N   0  0  0  0  0  0  0  0  0  0  0  0
    8.5631  -15.1086   22.6780 C   0  0  0  0  0  0  0  0  0  0  0  0
    7.8663  -14.4663   23.5002 O   0  0  0  0  0  0  0  0  0  0  0  0
   11.0014  -14.9010   30.7948 O   0  0  0  0  0  0  0  0  0  0  0  0
   10.5333  -15.0727   29.4982 C   0  0  0  0  0  0  0  0  0  0  0  0
   10.2219  -16.3284   29.0212 C   0  0  0  0  0  0  0  0  0  0  0  0
    9.7553  -16.5723   27.7546 C   0  0  0  0  0  0  0  0  0  0  0  0
    9.5740  -15.5026   26.8699 C   0  0  0  0  0  0  0  0  0  0  0  0
    9.1032  -15.7449   25.4871 C   0  0  0  0  0  0  0  0  0  0  0  0
   10.1845  -15.4404   24.5203 C   0  0  2  0  0  0  0  0  0  0  0  0
    9.7780  -15.6553   23.1380 N   0  0  0  0  0  0  0  0  0  0  0  0
   11.4457  -16.1416   24.8167 C   0  0  0  0  0  0  0  0  0  0  0  0
   12.4243  -15.5374   25.2834 O   0  0  0  0  0  0  0  0  0  0  0  0
    9.8844  -14.2421   27.3411 C   0  0  0  0  0  0  0  0  0  0  0  0
   10.3513  -14.0282   28.6196 C   0  0  0  0  0  0  0  0  0  0  0  0
   11.5541  -17.4993   24.5746 O   0  0  0  0  0  0  0  0  0  0  0  0
  2  1  1  6
  2  4  1  0
  3  2  1  0
  4  5  1  6
  6  4  1  0
  6 13  1  0
  7  6  2  0
  9  8  1  0
 10  9  1  0
 10 12  1  0
 10 11  1  6
 12 14  1  0
 12 13  1  1
 14 23  1  0
 15 14  2  0
 16 17  1  0
 17 18  2  0
 18 19  1  0
 20 21  1  0
 20 19  2  0
 22 21  1  1
 22 24  1  0
 23 22  1  0
 24 25  2  0
 24 28  1  0
 26 20  1  0
 27 26  2  0
 27 17  1  0
M  END
$$$$
