VIY.pdb
     RDKit          3D

 28 28  0  0  1  0  0  0  0  0999 V2000
   10.5317  -19.5427   20.6765 C   0  0  0  0  0  0  0  0  0  0  0  0
   11.1421  -19.1325   19.3667 C   0  0  1  0  0  0  0  0  0  0  0  0
   11.1472  -20.3375   18.4357 C   0  0  0  0  0  0  0  0  0  0  0  0
   10.3454  -18.0413   18.6621 C   0  0  2  0  0  0  0  0  0  0  0  0
   11.0664  -17.7410   17.4426 N   0  0  0  0  0  0  0  0  0  0  0  0
   10.3312  -16.8725   19.5799 C   0  0  0  0  0  0  0  0  0  0  0  0
   11.4222  -16.2930   19.8226 O   0  0  0  0  0  0  0  0  0  0  0  0
    6.6022  -13.1781   18.9297 C   0  0  0  0  0  0  0  0  0  0  0  0
    7.8746  -13.8241   19.3354 C   0  0  0  0  0  0  0  0  0  0  0  0
    7.8625  -14.4332   20.7042 C   0  0  2  0  0  0  0  0  0  0  0  0
    7.4366  -13.4906   21.7808 C   0  0  0  0  0  0  0  0  0  0  0  0
    9.1617  -15.1545   21.0189 C   0  0  2  0  0  0  0  0  0  0  0  0
    9.1748  -16.3711   20.1961 N   0  0  0  0  0  0  0  0  0  0  0  0
    9.2205  -15.5670   22.4399 C   0  0  0  0  0  0  0  0  0  0  0  0
    8.5131  -16.5378   22.8021 O   0  0  0  0  0  0  0  0  0  0  0  0
   10.4740  -16.6927   30.9966 O   0  0  0  0  0  0  0  0  0  0  0  0
   10.5607  -16.1941   29.7029 C   0  0  0  0  0  0  0  0  0  0  0  0
   10.0389  -14.9574   29.3871 C   0  0  0  0  0  0  0  0  0  0  0  0
   10.0886  -14.4029   28.1335 C   0  0  0  0  0  0  0  0  0  0  0  0
   10.6990  -15.1107   27.0914 C   0  0  0  0  0  0  0  0  0  0  0  0
   10.7352  -14.5470   25.7226 C   0  0  0  0  0  0  0  0  0  0  0  0
    9.9782  -15.4182   24.7929 C   0  0  2  0  0  0  0  0  0  0  0  0
   10.0203  -14.9410   23.4172 N   0  0  0  0  0  0  0  0  0  0  0  0
    8.5920  -15.6667   25.2253 C   0  0  0  0  0  0  0  0  0  0  0  0
    7.6865  -14.8527   24.9844 O   0  0  0  0  0  0  0  0  0  0  0  0
   11.2234  -16.3504   27.4006 C   0  0  0  0  0  0  0  0  0  0  0  0
   11.1584  -16.8814   28.6703 C   0  0  0  0  0  0  0  0  0  0  0  0
    8.2808  -16.8256   25.9136 O   0  0  0  0  0  0  0  0  0  0  0  0
  2  1  1  1
  2  4  1  0
  3  2  1  0
  4  5  1  6
  6  4  1  0
  6 13  1  0
  7  6  2  0
  9  8  1  0
 10  9  1  0
 10 12  1  0
 10 11  1  1
 12 14  1  0
 12 13  1  6
 14 23  1  0
 15 14  2  0
 16 17  1  0
 17 18  2  0
 18 19  1  0
 20 21  1  0
 20 19  2  0
 22 21  1  1
 22 24  1  0
 23 22  1  0
 24 25  2  0
 24 28  1  0
 26 20  1  0
 27 26  2  0
 27 17  1  0
M  END
$$$$
