VIY.pdb
     RDKit          3D

 28 28  0  0  1  0  0  0  0  0999 V2000
    7.6905  -16.7042   20.3404 C   0  0  0  0  0  0  0  0  0  0  0  0
    7.8834  -15.3942   19.6310 C   0  0  1  0  0  0  0  0  0  0  0  0
    7.2472  -15.4921   18.2509 C   0  0  0  0  0  0  0  0  0  0  0  0
    7.2010  -14.2329   20.3436 C   0  0  2  0  0  0  0  0  0  0  0  0
    7.4046  -13.0707   19.5039 N   0  0  0  0  0  0  0  0  0  0  0  0
    7.8905  -14.0790   21.6510 C   0  0  0  0  0  0  0  0  0  0  0  0
    9.0745  -13.6508   21.6528 O   0  0  0  0  0  0  0  0  0  0  0  0
    5.0410  -12.3174   25.8672 C   0  0  0  0  0  0  0  0  0  0  0  0
    6.1631  -12.6034   24.9398 C   0  0  0  0  0  0  0  0  0  0  0  0
    6.8764  -13.8961   25.1950 C   0  0  2  0  0  0  0  0  0  0  0  0
    7.3319  -14.0660   26.6066 C   0  0  0  0  0  0  0  0  0  0  0  0
    7.9735  -14.1528   24.1764 C   0  0  2  0  0  0  0  0  0  0  0  0
    7.3041  -14.3815   22.8892 N   0  0  0  0  0  0  0  0  0  0  0  0
    8.7457  -15.3717   24.5093 C   0  0  0  0  0  0  0  0  0  0  0  0
    8.3276  -16.4719   24.0749 O   0  0  0  0  0  0  0  0  0  0  0  0
   10.9737  -15.1141   31.4744 O   0  0  0  0  0  0  0  0  0  0  0  0
   11.2463  -15.4479   30.1538 C   0  0  0  0  0  0  0  0  0  0  0  0
   11.2320  -14.4861   29.1658 C   0  0  0  0  0  0  0  0  0  0  0  0
   11.4914  -14.7430   27.8435 C   0  0  0  0  0  0  0  0  0  0  0  0
   11.7918  -16.0500   27.4422 C   0  0  0  0  0  0  0  0  0  0  0  0
   12.0424  -16.3573   26.0155 C   0  0  0  0  0  0  0  0  0  0  0  0
   10.7584  -16.5735   25.3079 C   0  0  2  0  0  0  0  0  0  0  0  0
    9.9232  -15.3802   25.2838 N   0  0  0  0  0  0  0  0  0  0  0  0
   10.0057  -17.7368   25.8085 C   0  0  0  0  0  0  0  0  0  0  0  0
   10.4541  -18.8891   25.7004 O   0  0  0  0  0  0  0  0  0  0  0  0
   11.8073  -17.0184   28.4267 C   0  0  0  0  0  0  0  0  0  0  0  0
   11.5426  -16.7297   29.7477 C   0  0  0  0  0  0  0  0  0  0  0  0
    8.7745  -17.5545   26.4124 O   0  0  0  0  0  0  0  0  0  0  0  0
  2  1  1  1
  2  4  1  0
  3  2  1  0
  4  5  1  6
  6  4  1  0
  6 13  1  0
  7  6  2  0
  9  8  1  0
 10  9  1  0
 10 12  1  0
 10 11  1  1
 12 14  1  0
 12 13  1  6
 14 23  1  0
 15 14  2  0
 16 17  1  0
 17 18  2  0
 18 19  1  0
 20 21  1  0
 20 19  2  0
 22 21  1  1
 22 24  1  0
 23 22  1  0
 24 25  2  0
 24 28  1  0
 26 20  1  0
 27 26  2  0
 27 17  1  0
M  END
$$$$
