VIY.pdb
     RDKit          3D

 28 28  0  0  1  0  0  0  0  0999 V2000
    7.8334  -18.9931   26.2225 C   0  0  0  0  0  0  0  0  0  0  0  0
    6.8586  -19.3506   25.1370 C   0  0  1  0  0  0  0  0  0  0  0  0
    6.0332  -20.5434   25.6004 C   0  0  0  0  0  0  0  0  0  0  0  0
    5.8722  -18.2281   24.8387 C   0  0  2  0  0  0  0  0  0  0  0  0
    5.0323  -18.7070   23.7606 N   0  0  0  0  0  0  0  0  0  0  0  0
    6.6834  -17.0592   24.4094 C   0  0  0  0  0  0  0  0  0  0  0  0
    7.2882  -17.1269   23.3072 O   0  0  0  0  0  0  0  0  0  0  0  0
    5.2670  -12.2451   26.3046 C   0  0  0  0  0  0  0  0  0  0  0  0
    5.8098  -13.2924   25.4049 C   0  0  0  0  0  0  0  0  0  0  0  0
    7.2742  -13.5646   25.5678 C   0  0  2  0  0  0  0  0  0  0  0  0
    8.1392  -12.3687   25.3434 C   0  0  0  0  0  0  0  0  0  0  0  0
    7.7191  -14.7827   24.7770 C   0  0  2  0  0  0  0  0  0  0  0  0
    6.8193  -15.8797   25.1569 N   0  0  0  0  0  0  0  0  0  0  0  0
    9.0993  -15.1838   25.1332 C   0  0  0  0  0  0  0  0  0  0  0  0
    9.3777  -15.3246   26.3484 O   0  0  0  0  0  0  0  0  0  0  0  0
   10.4388  -15.3524   30.8996 O   0  0  0  0  0  0  0  0  0  0  0  0
   10.6521  -15.8117   29.6060 C   0  0  0  0  0  0  0  0  0  0  0  0
   10.6352  -14.9413   28.5367 C   0  0  0  0  0  0  0  0  0  0  0  0
   10.8379  -15.3236   27.2350 C   0  0  0  0  0  0  0  0  0  0  0  0
   11.0786  -16.6713   26.9430 C   0  0  0  0  0  0  0  0  0  0  0  0
   11.2671  -17.1128   25.5421 C   0  0  0  0  0  0  0  0  0  0  0  0
   11.4091  -15.9363   24.6521 C   0  0  2  0  0  0  0  0  0  0  0  0
   10.1258  -15.4193   24.1964 N   0  0  0  0  0  0  0  0  0  0  0  0
   12.3190  -16.1705   23.5174 C   0  0  0  0  0  0  0  0  0  0  0  0
   11.9304  -16.0501   22.3448 O   0  0  0  0  0  0  0  0  0  0  0  0
   11.0963  -17.5487   28.0093 C   0  0  0  0  0  0  0  0  0  0  0  0
   10.8894  -17.1346   29.3070 C   0  0  0  0  0  0  0  0  0  0  0  0
   13.6340  -16.5318   23.7501 O   0  0  0  0  0  0  0  0  0  0  0  0
  2  1  1  1
  2  4  1  0
  3  2  1  0
  4  5  1  6
  6  4  1  0
  6 13  1  0
  7  6  2  0
  9  8  1  0
 10  9  1  0
 10 12  1  0
 10 11  1  6
 12 14  1  0
 12 13  1  1
 14 23  1  0
 15 14  2  0
 16 17  1  0
 17 18  2  0
 18 19  1  0
 20 21  1  0
 20 19  2  0
 22 21  1  6
 22 24  1  0
 23 22  1  0
 24 25  2  0
 24 28  1  0
 26 20  1  0
 27 26  2  0
 27 17  1  0
M  END
$$$$
