VIY.pdb
     RDKit          3D

 28 28  0  0  1  0  0  0  0  0999 V2000
    7.6449  -17.3220   20.9900 C   0  0  0  0  0  0  0  0  0  0  0  0
    7.6900  -16.2015   19.9906 C   0  0  1  0  0  0  0  0  0  0  0  0
    6.8309  -16.5849   18.7933 C   0  0  0  0  0  0  0  0  0  0  0  0
    7.1168  -14.9004   20.5390 C   0  0  2  0  0  0  0  0  0  0  0  0
    7.2105  -13.9350   19.4635 N   0  0  0  0  0  0  0  0  0  0  0  0
    7.9783  -14.5124   21.6861 C   0  0  0  0  0  0  0  0  0  0  0  0
    9.1402  -14.0930   21.4428 O   0  0  0  0  0  0  0  0  0  0  0  0
    5.8610  -11.9388   25.9525 C   0  0  0  0  0  0  0  0  0  0  0  0
    6.7863  -12.4421   24.9077 C   0  0  0  0  0  0  0  0  0  0  0  0
    7.4999  -13.7121   25.2582 C   0  0  2  0  0  0  0  0  0  0  0  0
    8.1508  -13.6880   26.6015 C   0  0  0  0  0  0  0  0  0  0  0  0
    8.4323  -14.1670   24.1487 C   0  0  2  0  0  0  0  0  0  0  0  0
    7.5781  -14.5838   23.0289 N   0  0  0  0  0  0  0  0  0  0  0  0
    9.2376  -15.3378   24.5655 C   0  0  0  0  0  0  0  0  0  0  0  0
    8.6309  -16.3928   24.8701 O   0  0  0  0  0  0  0  0  0  0  0  0
    9.5876  -15.1204   30.9873 O   0  0  0  0  0  0  0  0  0  0  0  0
   10.2637  -15.4420   29.8171 C   0  0  0  0  0  0  0  0  0  0  0  0
   10.5651  -14.4699   28.8867 C   0  0  0  0  0  0  0  0  0  0  0  0
   11.2293  -14.7144   27.7117 C   0  0  0  0  0  0  0  0  0  0  0  0
   11.6384  -16.0189   27.4109 C   0  0  0  0  0  0  0  0  0  0  0  0
   12.3272  -16.3128   26.1334 C   0  0  0  0  0  0  0  0  0  0  0  0
   11.3321  -16.5615   25.0637 C   0  0  2  0  0  0  0  0  0  0  0  0
   10.6448  -15.3477   24.6436 N   0  0  0  0  0  0  0  0  0  0  0  0
   10.3704  -17.6260   25.3984 C   0  0  0  0  0  0  0  0  0  0  0  0
    9.1555  -17.3900   25.4931 O   0  0  0  0  0  0  0  0  0  0  0  0
   11.3393  -16.9976   28.3382 C   0  0  0  0  0  0  0  0  0  0  0  0
   10.6705  -16.7212   29.5107 C   0  0  0  0  0  0  0  0  0  0  0  0
   10.8173  -18.9175   25.6135 O   0  0  0  0  0  0  0  0  0  0  0  0
  2  1  1  1
  2  4  1  0
  3  2  1  0
  4  5  1  6
  6  4  1  0
  6 13  1  0
  7  6  2  0
  9  8  1  0
 10  9  1  0
 10 12  1  0
 10 11  1  1
 12 14  1  0
 12 13  1  6
 14 23  1  0
 15 14  2  0
 16 17  1  0
 17 18  2  0
 18 19  1  0
 20 21  1  0
 20 19  2  0
 22 21  1  1
 22 24  1  0
 23 22  1  0
 24 25  2  0
 24 28  1  0
 26 20  1  0
 27 26  2  0
 27 17  1  0
M  END
$$$$
