VIY.pdb
     RDKit          3D

 28 28  0  0  1  0  0  0  0  0999 V2000
    6.7380  -15.4561   18.3341 C   0  0  0  0  0  0  0  0  0  0  0  0
    7.3277  -15.2538   19.7008 C   0  0  1  0  0  0  0  0  0  0  0  0
    8.8246  -15.5239   19.6276 C   0  0  0  0  0  0  0  0  0  0  0  0
    7.1672  -13.8250   20.2055 C   0  0  2  0  0  0  0  0  0  0  0  0
    7.7812  -12.9746   19.2068 N   0  0  0  0  0  0  0  0  0  0  0  0
    7.8983  -13.7512   21.4972 C   0  0  0  0  0  0  0  0  0  0  0  0
    9.1018  -13.3819   21.4798 O   0  0  0  0  0  0  0  0  0  0  0  0
    5.2169  -11.8643   25.7073 C   0  0  0  0  0  0  0  0  0  0  0  0
    6.3558  -12.1965   24.8166 C   0  0  0  0  0  0  0  0  0  0  0  0
    6.9632  -13.5463   25.0488 C   0  0  2  0  0  0  0  0  0  0  0  0
    7.4126  -13.7725   26.4544 C   0  0  0  0  0  0  0  0  0  0  0  0
    8.0292  -13.8768   24.0185 C   0  0  2  0  0  0  0  0  0  0  0  0
    7.3309  -14.0682   22.7406 N   0  0  0  0  0  0  0  0  0  0  0  0
    8.7264  -15.1409   24.3485 C   0  0  0  0  0  0  0  0  0  0  0  0
    8.2424  -16.2129   23.9118 O   0  0  0  0  0  0  0  0  0  0  0  0
   10.5111  -15.2125   31.4693 O   0  0  0  0  0  0  0  0  0  0  0  0
   10.8439  -15.5335   30.1593 C   0  0  0  0  0  0  0  0  0  0  0  0
   10.8974  -14.5582   29.1859 C   0  0  0  0  0  0  0  0  0  0  0  0
   11.2184  -14.8020   27.8748 C   0  0  0  0  0  0  0  0  0  0  0  0
   11.5144  -16.1090   27.4701 C   0  0  0  0  0  0  0  0  0  0  0  0
   11.8312  -16.4016   26.0535 C   0  0  0  0  0  0  0  0  0  0  0  0
   10.5818  -16.5027   25.2627 C   0  0  2  0  0  0  0  0  0  0  0  0
    9.9014  -15.2223   25.1227 N   0  0  0  0  0  0  0  0  0  0  0  0
    9.6610  -17.5406   25.7579 C   0  0  0  0  0  0  0  0  0  0  0  0
    8.5573  -17.2444   26.2425 O   0  0  0  0  0  0  0  0  0  0  0  0
   11.4623  -17.0908   28.4399 C   0  0  0  0  0  0  0  0  0  0  0  0
   11.1366  -16.8151   29.7500 C   0  0  0  0  0  0  0  0  0  0  0  0
   10.0216  -18.8742   25.6870 O   0  0  0  0  0  0  0  0  0  0  0  0
  2  1  1  6
  2  4  1  0
  3  2  1  0
  4  5  1  6
  6  4  1  0
  6 13  1  0
  7  6  2  0
  9  8  1  0
 10  9  1  0
 10 12  1  0
 10 11  1  1
 12 14  1  0
 12 13  1  6
 14 23  1  0
 15 14  2  0
 16 17  1  0
 17 18  2  0
 18 19  1  0
 20 21  1  0
 20 19  2  0
 22 21  1  1
 22 24  1  0
 23 22  1  0
 24 25  2  0
 24 28  1  0
 26 20  1  0
 27 26  2  0
 27 17  1  0
M  END
$$$$
