VIY.pdb
     RDKit          3D

 28 28  0  0  1  0  0  0  0  0999 V2000
    8.0888  -18.2811   22.5836 C   0  0  0  0  0  0  0  0  0  0  0  0
    8.2783  -17.6584   21.2298 C   0  0  1  0  0  0  0  0  0  0  0  0
    7.7520  -18.6223   20.1749 C   0  0  0  0  0  0  0  0  0  0  0  0
    7.4958  -16.3615   21.0637 C   0  0  2  0  0  0  0  0  0  0  0  0
    7.7016  -15.9405   19.6934 N   0  0  0  0  0  0  0  0  0  0  0  0
    8.0870  -15.3889   22.0193 C   0  0  0  0  0  0  0  0  0  0  0  0
    9.2362  -14.9370   21.7741 O   0  0  0  0  0  0  0  0  0  0  0  0
    6.4123  -11.6033   26.6297 C   0  0  0  0  0  0  0  0  0  0  0  0
    7.4624  -12.3133   25.8590 C   0  0  0  0  0  0  0  0  0  0  0  0
    6.9492  -13.3277   24.8830 C   0  0  2  0  0  0  0  0  0  0  0  0
    5.9326  -14.2579   25.4575 C   0  0  0  0  0  0  0  0  0  0  0  0
    8.0763  -14.0445   24.1600 C   0  0  2  0  0  0  0  0  0  0  0  0
    7.4437  -14.9399   23.1826 N   0  0  0  0  0  0  0  0  0  0  0  0
    8.8717  -14.8778   25.0906 C   0  0  0  0  0  0  0  0  0  0  0  0
    8.3461  -15.9238   25.5419 O   0  0  0  0  0  0  0  0  0  0  0  0
   12.4011  -18.0873   32.0892 O   0  0  0  0  0  0  0  0  0  0  0  0
   11.7651  -17.4419   31.0362 C   0  0  0  0  0  0  0  0  0  0  0  0
   11.0606  -18.1584   30.0919 C   0  0  0  0  0  0  0  0  0  0  0  0
   10.4090  -17.5887   29.0278 C   0  0  0  0  0  0  0  0  0  0  0  0
   10.4430  -16.1989   28.8637 C   0  0  0  0  0  0  0  0  0  0  0  0
    9.7752  -15.5642   27.7044 C   0  0  0  0  0  0  0  0  0  0  0  0
   10.7635  -15.2900   26.6346 C   0  0  2  0  0  0  0  0  0  0  0  0
   10.1842  -14.5749   25.5055 N   0  0  0  0  0  0  0  0  0  0  0  0
   11.4853  -16.4932   26.1856 C   0  0  0  0  0  0  0  0  0  0  0  0
   12.7257  -16.5372   26.1841 O   0  0  0  0  0  0  0  0  0  0  0  0
   11.1473  -15.4751   29.8057 C   0  0  0  0  0  0  0  0  0  0  0  0
   11.7921  -16.0759   30.8647 C   0  0  0  0  0  0  0  0  0  0  0  0
   10.7785  -17.6018   25.7551 O   0  0  0  0  0  0  0  0  0  0  0  0
  2  1  1  1
  2  4  1  0
  3  2  1  0
  4  5  1  6
  6  4  1  0
  6 13  1  0
  7  6  2  0
  9  8  1  0
 10  9  1  0
 10 12  1  0
 10 11  1  1
 12 14  1  0
 12 13  1  6
 14 23  1  0
 15 14  2  0
 16 17  1  0
 17 18  2  0
 18 19  1  0
 20 21  1  0
 20 19  2  0
 22 21  1  1
 22 24  1  0
 23 22  1  0
 24 25  2  0
 24 28  1  0
 26 20  1  0
 27 26  2  0
 27 17  1  0
M  END
$$$$
