VIY.pdb
     RDKit          3D

 28 28  0  0  1  0  0  0  0  0999 V2000
    9.2760  -17.1666   18.9156 C   0  0  0  0  0  0  0  0  0  0  0  0
    9.3089  -16.8408   20.3816 C   0  0  1  0  0  0  0  0  0  0  0  0
   10.3832  -17.6931   21.0436 C   0  0  0  0  0  0  0  0  0  0  0  0
    9.6774  -15.3874   20.6533 C   0  0  2  0  0  0  0  0  0  0  0  0
   11.0459  -15.2294   20.2066 N   0  0  0  0  0  0  0  0  0  0  0  0
    9.5658  -15.1934   22.1225 C   0  0  0  0  0  0  0  0  0  0  0  0
   10.5939  -15.3738   22.8265 O   0  0  0  0  0  0  0  0  0  0  0  0
    5.7614  -12.4635   26.1834 C   0  0  0  0  0  0  0  0  0  0  0  0
    6.9573  -13.2885   25.8831 C   0  0  0  0  0  0  0  0  0  0  0  0
    7.0472  -13.7745   24.4687 C   0  0  2  0  0  0  0  0  0  0  0  0
    5.8022  -14.4356   23.9771 C   0  0  0  0  0  0  0  0  0  0  0  0
    8.2992  -14.6003   24.2281 C   0  0  2  0  0  0  0  0  0  0  0  0
    8.3829  -14.8205   22.7784 N   0  0  0  0  0  0  0  0  0  0  0  0
    8.2072  -15.9249   24.8838 C   0  0  0  0  0  0  0  0  0  0  0  0
    7.9142  -16.9161   24.1727 O   0  0  0  0  0  0  0  0  0  0  0  0
   13.0366  -14.1999   29.5846 O   0  0  0  0  0  0  0  0  0  0  0  0
   11.9852  -15.0368   29.2325 C   0  0  0  0  0  0  0  0  0  0  0  0
   10.6993  -14.7688   29.6524 C   0  0  0  0  0  0  0  0  0  0  0  0
    9.6147  -15.5495   29.3432 C   0  0  0  0  0  0  0  0  0  0  0  0
    9.7919  -16.6934   28.5559 C   0  0  0  0  0  0  0  0  0  0  0  0
    8.6416  -17.5696   28.2370 C   0  0  0  0  0  0  0  0  0  0  0  0
    8.3366  -17.5026   26.7883 C   0  0  2  0  0  0  0  0  0  0  0  0
    8.4274  -16.1489   26.2578 N   0  0  0  0  0  0  0  0  0  0  0  0
    7.0492  -18.1251   26.4343 C   0  0  0  0  0  0  0  0  0  0  0  0
    6.1323  -17.4626   25.9234 O   0  0  0  0  0  0  0  0  0  0  0  0
   11.0774  -16.9680   28.1324 C   0  0  0  0  0  0  0  0  0  0  0  0
   12.1478  -16.1643   28.4592 C   0  0  0  0  0  0  0  0  0  0  0  0
    6.8459  -19.4729   26.6707 O   0  0  0  0  0  0  0  0  0  0  0  0
  2  1  1  6
  2  4  1  0
  3  2  1  0
  4  5  1  1
  6  4  1  0
  6 13  1  0
  7  6  2  0
  9  8  1  0
 10  9  1  0
 10 12  1  0
 10 11  1  1
 12 14  1  0
 12 13  1  6
 14 23  1  0
 15 14  2  0
 16 17  1  0
 17 18  2  0
 18 19  1  0
 20 21  1  0
 20 19  2  0
 22 21  1  1
 22 24  1  0
 23 22  1  0
 24 25  2  0
 24 28  1  0
 26 20  1  0
 27 26  2  0
 27 17  1  0
M  END
$$$$
