VIY.pdb
     RDKit          3D

 28 28  0  0  1  0  0  0  0  0999 V2000
    8.6443  -19.5754   22.2844 C   0  0  0  0  0  0  0  0  0  0  0  0
    8.8161  -19.6629   20.7947 C   0  0  1  0  0  0  0  0  0  0  0  0
    8.1959  -20.9669   20.3110 C   0  0  0  0  0  0  0  0  0  0  0  0
    8.1019  -18.5396   20.0529 C   0  0  2  0  0  0  0  0  0  0  0  0
    8.2762  -18.8154   18.6419 N   0  0  0  0  0  0  0  0  0  0  0  0
    8.7848  -17.2785   20.4424 C   0  0  0  0  0  0  0  0  0  0  0  0
   10.0073  -17.1542   20.1682 O   0  0  0  0  0  0  0  0  0  0  0  0
    7.2394  -12.6240   19.0532 C   0  0  0  0  0  0  0  0  0  0  0  0
    8.0193  -13.7618   19.5993 C   0  0  0  0  0  0  0  0  0  0  0  0
    8.0861  -13.8185   21.0950 C   0  0  2  0  0  0  0  0  0  0  0  0
    8.5205  -12.5386   21.7290 C   0  0  0  0  0  0  0  0  0  0  0  0
    8.8670  -15.0254   21.5856 C   0  0  2  0  0  0  0  0  0  0  0  0
    8.1518  -16.2125   21.0992 N   0  0  0  0  0  0  0  0  0  0  0  0
    8.8945  -15.0865   23.0649 C   0  0  0  0  0  0  0  0  0  0  0  0
    8.1804  -14.2755   23.7022 O   0  0  0  0  0  0  0  0  0  0  0  0
    5.6875  -11.2466   26.9863 O   0  0  0  0  0  0  0  0  0  0  0  0
    6.3062  -12.4497   26.6711 C   0  0  0  0  0  0  0  0  0  0  0  0
    5.6115  -13.4534   26.0296 C   0  0  0  0  0  0  0  0  0  0  0  0
    6.1572  -14.6645   25.6878 C   0  0  0  0  0  0  0  0  0  0  0  0
    7.4975  -14.9271   25.9955 C   0  0  0  0  0  0  0  0  0  0  0  0
    8.0990  -16.2395   25.6663 C   0  0  0  0  0  0  0  0  0  0  0  0
    9.5119  -16.0634   25.2552 C   0  0  2  0  0  0  0  0  0  0  0  0
    9.6713  -15.9976   23.8087 N   0  0  0  0  0  0  0  0  0  0  0  0
   10.4191  -17.0644   25.8430 C   0  0  0  0  0  0  0  0  0  0  0  0
   10.2685  -18.2769   25.6248 O   0  0  0  0  0  0  0  0  0  0  0  0
    8.1990  -13.9263   26.6385 C   0  0  0  0  0  0  0  0  0  0  0  0
    7.6233  -12.7190   26.9690 C   0  0  0  0  0  0  0  0  0  0  0  0
   11.4623  -16.6577   26.6554 O   0  0  0  0  0  0  0  0  0  0  0  0
  2  1  1  1
  2  4  1  0
  3  2  1  0
  4  5  1  6
  6  4  1  0
  6 13  1  0
  7  6  2  0
  9  8  1  0
 10  9  1  0
 10 12  1  0
 10 11  1  6
 12 14  1  0
 12 13  1  6
 14 23  1  0
 15 14  2  0
 16 17  1  0
 17 18  2  0
 18 19  1  0
 20 21  1  0
 20 19  2  0
 22 21  1  6
 22 24  1  0
 23 22  1  0
 24 25  2  0
 24 28  1  0
 26 20  1  0
 27 26  2  0
 27 17  1  0
M  END
$$$$
