VIY.pdb
     RDKit          3D

 28 28  0  0  1  0  0  0  0  0999 V2000
    8.6097  -19.1137   21.5596 C   0  0  0  0  0  0  0  0  0  0  0  0
    8.5784  -18.5182   20.1809 C   0  0  1  0  0  0  0  0  0  0  0  0
    7.8574  -19.4852   19.2514 C   0  0  0  0  0  0  0  0  0  0  0  0
    7.8085  -17.2044   20.1246 C   0  0  2  0  0  0  0  0  0  0  0  0
    7.8407  -16.7786   18.7407 N   0  0  0  0  0  0  0  0  0  0  0  0
    8.5409  -16.2505   20.9976 C   0  0  0  0  0  0  0  0  0  0  0  0
    9.7015  -15.9017   20.6561 O   0  0  0  0  0  0  0  0  0  0  0  0
    5.8205  -13.3355   25.0682 C   0  0  0  0  0  0  0  0  0  0  0  0
    6.7377  -14.3191   24.4420 C   0  0  0  0  0  0  0  0  0  0  0  0
    7.7441  -13.7305   23.5010 C   0  0  2  0  0  0  0  0  0  0  0  0
    7.1398  -12.9445   22.3848 C   0  0  0  0  0  0  0  0  0  0  0  0
    8.7548  -14.7616   23.0292 C   0  0  2  0  0  0  0  0  0  0  0  0
    8.0199  -15.7113   22.1834 N   0  0  0  0  0  0  0  0  0  0  0  0
    9.3280  -15.5165   24.1669 C   0  0  0  0  0  0  0  0  0  0  0  0
    8.7076  -16.5270   24.5768 O   0  0  0  0  0  0  0  0  0  0  0  0
   12.0907  -17.2023   32.1650 O   0  0  0  0  0  0  0  0  0  0  0  0
   12.0304  -16.6737   30.8819 C   0  0  0  0  0  0  0  0  0  0  0  0
   11.2721  -15.5531   30.6155 C   0  0  0  0  0  0  0  0  0  0  0  0
   11.1665  -14.9773   29.3751 C   0  0  0  0  0  0  0  0  0  0  0  0
   11.8580  -15.5379   28.2947 C   0  0  0  0  0  0  0  0  0  0  0  0
   11.7327  -14.9536   26.9399 C   0  0  0  0  0  0  0  0  0  0  0  0
   10.8488  -15.7972   26.1011 C   0  0  2  0  0  0  0  0  0  0  0  0
   10.5280  -15.1761   24.8231 N   0  0  0  0  0  0  0  0  0  0  0  0
    9.6273  -16.2349   26.7988 C   0  0  0  0  0  0  0  0  0  0  0  0
    8.6521  -15.4778   26.9263 O   0  0  0  0  0  0  0  0  0  0  0  0
   12.6190  -16.6607   28.5543 C   0  0  0  0  0  0  0  0  0  0  0  0
   12.7059  -17.2167   29.8119 C   0  0  0  0  0  0  0  0  0  0  0  0
    9.5535  -17.5117   27.3262 O   0  0  0  0  0  0  0  0  0  0  0  0
  2  1  1  1
  2  4  1  0
  3  2  1  0
  4  5  1  6
  6  4  1  0
  6 13  1  0
  7  6  2  0
  9  8  1  0
 10  9  1  0
 10 12  1  0
 10 11  1  6
 12 14  1  0
 12 13  1  6
 14 23  1  0
 15 14  2  0
 16 17  1  0
 17 18  2  0
 18 19  1  0
 20 21  1  0
 20 19  2  0
 22 21  1  1
 22 24  1  0
 23 22  1  0
 24 25  2  0
 24 28  1  0
 26 20  1  0
 27 26  2  0
 27 17  1  0
M  END
$$$$
