VIY.pdb
     RDKit          3D

 28 28  0  0  1  0  0  0  0  0999 V2000
    5.1762  -17.9840   21.0908 C   0  0  0  0  0  0  0  0  0  0  0  0
    6.1086  -17.3169   22.0613 C   0  0  1  0  0  0  0  0  0  0  0  0
    7.4762  -17.9779   21.9519 C   0  0  0  0  0  0  0  0  0  0  0  0
    6.3144  -15.8379   21.7579 C   0  0  2  0  0  0  0  0  0  0  0  0
    6.8975  -15.7765   20.4337 N   0  0  0  0  0  0  0  0  0  0  0  0
    7.2584  -15.3258   22.7852 C   0  0  0  0  0  0  0  0  0  0  0  0
    8.4933  -15.4325   22.5647 O   0  0  0  0  0  0  0  0  0  0  0  0
    5.2111  -11.7871   26.3991 C   0  0  0  0  0  0  0  0  0  0  0  0
    6.1301  -12.4636   25.4511 C   0  0  0  0  0  0  0  0  0  0  0  0
    6.9888  -13.5299   26.0599 C   0  0  2  0  0  0  0  0  0  0  0  0
    7.8019  -13.0608   27.2208 C   0  0  0  0  0  0  0  0  0  0  0  0
    7.8068  -14.2689   25.0150 C   0  0  2  0  0  0  0  0  0  0  0  0
    6.8599  -14.7283   23.9904 N   0  0  0  0  0  0  0  0  0  0  0  0
    8.4671  -15.4629   25.5907 C   0  0  0  0  0  0  0  0  0  0  0  0
    7.7908  -16.2067   26.3412 O   0  0  0  0  0  0  0  0  0  0  0  0
    7.4736  -21.2991   29.7421 O   0  0  0  0  0  0  0  0  0  0  0  0
    8.0252  -20.5649   28.6999 C   0  0  0  0  0  0  0  0  0  0  0  0
    7.2402  -19.7317   27.9311 C   0  0  0  0  0  0  0  0  0  0  0  0
    7.7162  -18.9782   26.8885 C   0  0  0  0  0  0  0  0  0  0  0  0
    9.0759  -19.0373   26.5609 C   0  0  0  0  0  0  0  0  0  0  0  0
    9.6064  -18.2585   25.4186 C   0  0  0  0  0  0  0  0  0  0  0  0
   10.3305  -17.0625   25.9101 C   0  0  2  0  0  0  0  0  0  0  0  0
    9.8089  -15.8221   25.3518 N   0  0  0  0  0  0  0  0  0  0  0  0
   11.7902  -17.1508   25.7321 C   0  0  0  0  0  0  0  0  0  0  0  0
   12.4526  -18.0471   26.2784 O   0  0  0  0  0  0  0  0  0  0  0  0
    9.8679  -19.8702   27.3265 C   0  0  0  0  0  0  0  0  0  0  0  0
    9.3607  -20.6153   28.3686 C   0  0  0  0  0  0  0  0  0  0  0  0
   12.4469  -16.2232   24.9433 O   0  0  0  0  0  0  0  0  0  0  0  0
  2  1  1  6
  2  4  1  0
  3  2  1  0
  4  5  1  6
  6  4  1  0
  6 13  1  0
  7  6  2  0
  9  8  1  0
 10  9  1  0
 10 12  1  0
 10 11  1  1
 12 14  1  0
 12 13  1  6
 14 23  1  0
 15 14  2  0
 16 17  1  0
 17 18  2  0
 18 19  1  0
 20 21  1  0
 20 19  2  0
 22 21  1  6
 22 24  1  0
 23 22  1  0
 24 25  2  0
 24 28  1  0
 26 20  1  0
 27 26  2  0
 27 17  1  0
M  END
$$$$
