VIY.pdb
     RDKit          3D

 28 28  0  0  1  0  0  0  0  0999 V2000
    6.6405  -17.7989   20.4900 C   0  0  0  0  0  0  0  0  0  0  0  0
    7.4117  -17.0845   21.5629 C   0  0  1  0  0  0  0  0  0  0  0  0
    8.8723  -17.5056   21.4721 C   0  0  0  0  0  0  0  0  0  0  0  0
    7.3843  -15.5698   21.3980 C   0  0  2  0  0  0  0  0  0  0  0  0
    8.0358  -15.2911   20.1351 N   0  0  0  0  0  0  0  0  0  0  0  0
    8.1572  -15.0093   22.5369 C   0  0  0  0  0  0  0  0  0  0  0  0
    9.3848  -14.7850   22.3700 O   0  0  0  0  0  0  0  0  0  0  0  0
    5.6295  -11.5442   25.8024 C   0  0  0  0  0  0  0  0  0  0  0  0
    6.6825  -12.2464   25.0282 C   0  0  0  0  0  0  0  0  0  0  0  0
    7.3576  -13.3675   25.7577 C   0  0  2  0  0  0  0  0  0  0  0  0
    7.9066  -12.9770   27.0900 C   0  0  0  0  0  0  0  0  0  0  0  0
    8.3664  -14.0913   24.8828 C   0  0  2  0  0  0  0  0  0  0  0  0
    7.6043  -14.7126   23.7917 N   0  0  0  0  0  0  0  0  0  0  0  0
    9.0529  -15.1706   25.6289 C   0  0  0  0  0  0  0  0  0  0  0  0
    8.3576  -16.1168   26.0707 O   0  0  0  0  0  0  0  0  0  0  0  0
   13.8180  -19.6787   31.3111 O   0  0  0  0  0  0  0  0  0  0  0  0
   13.4144  -18.7391   30.3709 C   0  0  0  0  0  0  0  0  0  0  0  0
   13.8608  -18.8081   29.0680 C   0  0  0  0  0  0  0  0  0  0  0  0
   13.5042  -17.9168   28.0883 C   0  0  0  0  0  0  0  0  0  0  0  0
   12.6364  -16.8631   28.3989 C   0  0  0  0  0  0  0  0  0  0  0  0
   12.2637  -15.8695   27.3662 C   0  0  0  0  0  0  0  0  0  0  0  0
   10.9911  -16.2630   26.7167 C   0  0  2  0  0  0  0  0  0  0  0  0
   10.4398  -15.2076   25.8774 N   0  0  0  0  0  0  0  0  0  0  0  0
    9.9830  -16.7655   27.6663 C   0  0  0  0  0  0  0  0  0  0  0  0
    9.7456  -17.9792   27.7712 O   0  0  0  0  0  0  0  0  0  0  0  0
   12.1857  -16.7878   29.7022 C   0  0  0  0  0  0  0  0  0  0  0  0
   12.5617  -17.6988   30.6651 C   0  0  0  0  0  0  0  0  0  0  0  0
    9.2811  -15.8777   28.4619 O   0  0  0  0  0  0  0  0  0  0  0  0
  2  1  1  6
  2  4  1  0
  3  2  1  0
  4  5  1  6
  6  4  1  0
  6 13  1  0
  7  6  2  0
  9  8  1  0
 10  9  1  0
 10 12  1  0
 10 11  1  1
 12 14  1  0
 12 13  1  6
 14 23  1  0
 15 14  2  0
 16 17  1  0
 17 18  2  0
 18 19  1  0
 20 21  1  0
 20 19  2  0
 22 21  1  1
 22 24  1  0
 23 22  1  0
 24 25  2  0
 24 28  1  0
 26 20  1  0
 27 26  2  0
 27 17  1  0
M  END
$$$$
