VIY.pdb
     RDKit          3D

 28 28  0  0  1  0  0  0  0  0999 V2000
    8.4336  -20.7064   21.3054 C   0  0  0  0  0  0  0  0  0  0  0  0
    8.5783  -19.2909   21.7869 C   0  0  1  0  0  0  0  0  0  0  0  0
    9.5935  -19.2664   22.9217 C   0  0  0  0  0  0  0  0  0  0  0  0
    9.1080  -18.3536   20.7086 C   0  0  2  0  0  0  0  0  0  0  0  0
   10.3987  -18.8805   20.3166 N   0  0  0  0  0  0  0  0  0  0  0  0
    9.2434  -17.0168   21.3436 C   0  0  0  0  0  0  0  0  0  0  0  0
   10.3057  -16.7596   21.9687 O   0  0  0  0  0  0  0  0  0  0  0  0
    7.7278  -12.7490   18.7255 C   0  0  0  0  0  0  0  0  0  0  0  0
    8.4154  -13.6075   19.7211 C   0  0  0  0  0  0  0  0  0  0  0  0
    7.7360  -13.6934   21.0538 C   0  0  2  0  0  0  0  0  0  0  0  0
    7.5288  -12.3698   21.7124 C   0  0  0  0  0  0  0  0  0  0  0  0
    8.3913  -14.7188   21.9627 C   0  0  2  0  0  0  0  0  0  0  0  0
    8.2591  -16.0184   21.2911 N   0  0  0  0  0  0  0  0  0  0  0  0
    7.6948  -14.8089   23.2665 C   0  0  0  0  0  0  0  0  0  0  0  0
    6.7337  -15.6089   23.3678 O   0  0  0  0  0  0  0  0  0  0  0  0
   12.6413  -16.8244   28.2450 O   0  0  0  0  0  0  0  0  0  0  0  0
   11.3888  -16.5253   27.7238 C   0  0  0  0  0  0  0  0  0  0  0  0
   10.4335  -17.5086   27.5749 C   0  0  0  0  0  0  0  0  0  0  0  0
    9.1783  -17.2861   27.0688 C   0  0  0  0  0  0  0  0  0  0  0  0
    8.8156  -15.9939   26.6707 C   0  0  0  0  0  0  0  0  0  0  0  0
    7.4779  -15.7359   26.0905 C   0  0  0  0  0  0  0  0  0  0  0  0
    7.3691  -14.3184   25.6719 C   0  0  2  0  0  0  0  0  0  0  0  0
    8.0395  -14.0542   24.4059 N   0  0  0  0  0  0  0  0  0  0  0  0
    7.8053  -13.3689   26.7105 C   0  0  0  0  0  0  0  0  0  0  0  0
    7.1981  -13.2697   27.7884 O   0  0  0  0  0  0  0  0  0  0  0  0
    9.7678  -15.0043   26.8166 C   0  0  0  0  0  0  0  0  0  0  0  0
   11.0214  -15.2585   27.3288 C   0  0  0  0  0  0  0  0  0  0  0  0
    8.9112  -12.5670   26.4921 O   0  0  0  0  0  0  0  0  0  0  0  0
  2  1  1  6
  2  4  1  0
  3  2  1  0
  4  5  1  1
  6  4  1  0
  6 13  1  0
  7  6  2  0
  9  8  1  0
 10  9  1  0
 10 12  1  0
 10 11  1  1
 12 14  1  0
 12 13  1  6
 14 23  1  0
 15 14  2  0
 16 17  1  0
 17 18  2  0
 18 19  1  0
 20 21  1  0
 20 19  2  0
 22 21  1  1
 22 24  1  0
 23 22  1  0
 24 25  2  0
 24 28  1  0
 26 20  1  0
 27 26  2  0
 27 17  1  0
M  END
$$$$
