VIY.pdb
     RDKit          3D

 28 28  0  0  1  0  0  0  0  0999 V2000
    5.9145  -18.0419   20.4679 C   0  0  0  0  0  0  0  0  0  0  0  0
    6.7054  -17.2472   21.4676 C   0  0  1  0  0  0  0  0  0  0  0  0
    8.1687  -17.6554   21.3627 C   0  0  0  0  0  0  0  0  0  0  0  0
    6.6516  -15.7476   21.2025 C   0  0  2  0  0  0  0  0  0  0  0  0
    7.0987  -15.5644   19.8373 N   0  0  0  0  0  0  0  0  0  0  0  0
    7.5918  -15.1169   22.1653 C   0  0  0  0  0  0  0  0  0  0  0  0
    8.8155  -15.0888   21.8706 O   0  0  0  0  0  0  0  0  0  0  0  0
    5.3914  -11.7505   25.8281 C   0  0  0  0  0  0  0  0  0  0  0  0
    6.3205  -12.3599   24.8451 C   0  0  0  0  0  0  0  0  0  0  0  0
    7.3243  -13.3057   25.4307 C   0  0  2  0  0  0  0  0  0  0  0  0
    8.1508  -12.7096   26.5217 C   0  0  0  0  0  0  0  0  0  0  0  0
    8.1526  -13.9933   24.3591 C   0  0  2  0  0  0  0  0  0  0  0  0
    7.2015  -14.5483   23.3870 N   0  0  0  0  0  0  0  0  0  0  0  0
    8.9361  -15.1177   24.9201 C   0  0  0  0  0  0  0  0  0  0  0  0
    8.3148  -16.1427   25.2908 O   0  0  0  0  0  0  0  0  0  0  0  0
   12.3979  -17.4337   32.2462 O   0  0  0  0  0  0  0  0  0  0  0  0
   11.8198  -16.9702   31.0712 C   0  0  0  0  0  0  0  0  0  0  0  0
   11.8189  -15.6249   30.7684 C   0  0  0  0  0  0  0  0  0  0  0  0
   11.2679  -15.0971   29.6286 C   0  0  0  0  0  0  0  0  0  0  0  0
   10.6628  -15.9499   28.6978 C   0  0  0  0  0  0  0  0  0  0  0  0
   10.0319  -15.3997   27.4763 C   0  0  0  0  0  0  0  0  0  0  0  0
   10.9308  -15.5829   26.3122 C   0  0  2  0  0  0  0  0  0  0  0  0
   10.3379  -15.1150   25.0666 N   0  0  0  0  0  0  0  0  0  0  0  0
   11.4332  -16.9609   26.1750 C   0  0  0  0  0  0  0  0  0  0  0  0
   10.9355  -17.7494   25.3557 O   0  0  0  0  0  0  0  0  0  0  0  0
   10.6597  -17.2985   28.9951 C   0  0  0  0  0  0  0  0  0  0  0  0
   11.2218  -17.7995   30.1490 C   0  0  0  0  0  0  0  0  0  0  0  0
   12.4793  -17.3965   26.9685 O   0  0  0  0  0  0  0  0  0  0  0  0
  2  1  1  6
  2  4  1  0
  3  2  1  0
  4  5  1  6
  6  4  1  0
  6 13  1  0
  7  6  2  0
  9  8  1  0
 10  9  1  0
 10 12  1  0
 10 11  1  1
 12 14  1  0
 12 13  1  6
 14 23  1  0
 15 14  2  0
 16 17  1  0
 17 18  2  0
 18 19  1  0
 20 21  1  0
 20 19  2  0
 22 21  1  1
 22 24  1  0
 23 22  1  0
 24 25  2  0
 24 28  1  0
 26 20  1  0
 27 26  2  0
 27 17  1  0
M  END
$$$$
