VIY.pdb
     RDKit          3D

 28 28  0  0  1  0  0  0  0  0999 V2000
    7.4899  -17.4249   21.9807 C   0  0  0  0  0  0  0  0  0  0  0  0
    7.9876  -16.3893   21.0131 C   0  0  1  0  0  0  0  0  0  0  0  0
    7.3524  -16.6509   19.6540 C   0  0  0  0  0  0  0  0  0  0  0  0
    7.5931  -14.9727   21.4126 C   0  0  2  0  0  0  0  0  0  0  0  0
    8.0887  -14.1064   20.3633 N   0  0  0  0  0  0  0  0  0  0  0  0
    8.2735  -14.6958   22.7045 C   0  0  0  0  0  0  0  0  0  0  0  0
    9.5128  -14.4738   22.6889 O   0  0  0  0  0  0  0  0  0  0  0  0
    5.4500  -11.8932   26.2487 C   0  0  0  0  0  0  0  0  0  0  0  0
    6.5437  -12.4986   25.4498 C   0  0  0  0  0  0  0  0  0  0  0  0
    7.2110  -13.6781   26.0890 C   0  0  2  0  0  0  0  0  0  0  0  0
    7.6779  -13.4250   27.4842 C   0  0  0  0  0  0  0  0  0  0  0  0
    8.2846  -14.2781   25.1975 C   0  0  2  0  0  0  0  0  0  0  0  0
    7.6207  -14.6657   23.9460 N   0  0  0  0  0  0  0  0  0  0  0  0
    8.8667  -15.4994   25.7996 C   0  0  0  0  0  0  0  0  0  0  0  0
    8.0961  -16.4558   26.0555 O   0  0  0  0  0  0  0  0  0  0  0  0
   11.5293  -18.0891   20.4567 O   0  0  0  0  0  0  0  0  0  0  0  0
   11.6173  -17.9414   21.8351 C   0  0  0  0  0  0  0  0  0  0  0  0
   12.1697  -16.8059   22.3891 C   0  0  0  0  0  0  0  0  0  0  0  0
   12.2886  -16.5924   23.7388 C   0  0  0  0  0  0  0  0  0  0  0  0
   11.8308  -17.5675   24.6329 C   0  0  0  0  0  0  0  0  0  0  0  0
   11.9788  -17.3741   26.0935 C   0  0  0  0  0  0  0  0  0  0  0  0
   10.6962  -16.9178   26.6793 C   0  0  2  0  0  0  0  0  0  0  0  0
   10.2329  -15.6614   26.1057 N   0  0  0  0  0  0  0  0  0  0  0  0
   10.7183  -16.8520   28.1509 C   0  0  0  0  0  0  0  0  0  0  0  0
   10.4639  -15.7965   28.7523 O   0  0  0  0  0  0  0  0  0  0  0  0
   11.2768  -18.7077   24.0848 C   0  0  0  0  0  0  0  0  0  0  0  0
   11.1708  -18.8937   22.7237 C   0  0  0  0  0  0  0  0  0  0  0  0
   11.0269  -17.9813   28.8878 O   0  0  0  0  0  0  0  0  0  0  0  0
  2  1  1  1
  2  4  1  0
  3  2  1  0
  4  5  1  6
  6  4  1  0
  6 13  1  0
  7  6  2  0
  9  8  1  0
 10  9  1  0
 10 12  1  0
 10 11  1  1
 12 14  1  0
 12 13  1  6
 14 23  1  0
 15 14  2  0
 16 17  1  0
 17 18  2  0
 18 19  1  0
 20 21  1  0
 20 19  2  0
 22 21  1  6
 22 24  1  0
 23 22  1  0
 24 25  2  0
 24 28  1  0
 26 20  1  0
 27 26  2  0
 27 17  1  0
M  END
$$$$
