VIY.pdb
     RDKit          3D

 28 28  0  0  1  0  0  0  0  0999 V2000
    8.0156  -18.3108   22.1258 C   0  0  0  0  0  0  0  0  0  0  0  0
    7.2767  -17.5522   21.0605 C   0  0  1  0  0  0  0  0  0  0  0  0
    6.3731  -18.5231   20.3123 C   0  0  0  0  0  0  0  0  0  0  0  0
    6.3718  -16.4669   21.6310 C   0  0  2  0  0  0  0  0  0  0  0  0
    5.6938  -15.8722   20.4980 N   0  0  0  0  0  0  0  0  0  0  0  0
    7.2643  -15.4846   22.2996 C   0  0  0  0  0  0  0  0  0  0  0  0
    8.0857  -14.8470   21.5895 O   0  0  0  0  0  0  0  0  0  0  0  0
    5.1032  -12.5552   26.1425 C   0  0  0  0  0  0  0  0  0  0  0  0
    5.9494  -13.0815   25.0434 C   0  0  0  0  0  0  0  0  0  0  0  0
    7.2688  -13.6425   25.4787 C   0  0  2  0  0  0  0  0  0  0  0  0
    8.0522  -12.7280   26.3611 C   0  0  0  0  0  0  0  0  0  0  0  0
    8.0736  -14.1806   24.3082 C   0  0  2  0  0  0  0  0  0  0  0  0
    7.2504  -15.2207   23.6775 N   0  0  0  0  0  0  0  0  0  0  0  0
    9.3331  -14.8125   24.7633 C   0  0  0  0  0  0  0  0  0  0  0  0
   10.3012  -14.0647   25.0418 O   0  0  0  0  0  0  0  0  0  0  0  0
   11.3601  -14.5737   31.2271 O   0  0  0  0  0  0  0  0  0  0  0  0
   11.2219  -15.2830   30.0408 C   0  0  0  0  0  0  0  0  0  0  0  0
   11.1062  -16.6571   30.0499 C   0  0  0  0  0  0  0  0  0  0  0  0
   10.9667  -17.4212   28.9194 C   0  0  0  0  0  0  0  0  0  0  0  0
   10.9365  -16.7975   27.6664 C   0  0  0  0  0  0  0  0  0  0  0  0
   10.8202  -17.6041   26.4301 C   0  0  0  0  0  0  0  0  0  0  0  0
   10.8391  -16.7195   25.2412 C   0  0  2  0  0  0  0  0  0  0  0  0
    9.5192  -16.2023   24.9057 N   0  0  0  0  0  0  0  0  0  0  0  0
   11.4811  -17.3351   24.0668 C   0  0  0  0  0  0  0  0  0  0  0  0
   12.6354  -17.7873   24.1268 O   0  0  0  0  0  0  0  0  0  0  0  0
   11.0523  -15.4214   27.6500 C   0  0  0  0  0  0  0  0  0  0  0  0
   11.1912  -14.6804   28.8032 C   0  0  0  0  0  0  0  0  0  0  0  0
   10.7947  -17.4167   22.8684 O   0  0  0  0  0  0  0  0  0  0  0  0
  2  1  1  1
  2  4  1  0
  3  2  1  0
  4  5  1  6
  6  4  1  0
  6 13  1  0
  7  6  2  0
  9  8  1  0
 10  9  1  0
 10 12  1  0
 10 11  1  6
 12 14  1  0
 12 13  1  1
 14 23  1  0
 15 14  2  0
 16 17  1  0
 17 18  2  0
 18 19  1  0
 20 21  1  0
 20 19  2  0
 22 21  1  1
 22 24  1  0
 23 22  1  0
 24 25  2  0
 24 28  1  0
 26 20  1  0
 27 26  2  0
 27 17  1  0
M  END
$$$$
