RMW.pdb
     RDKit          3D

 34 35  0  0  1  0  0  0  0  0999 V2000
   25.4565  -20.4886  -21.3923 N   0  0  0  0  0  0  0  0  0  0  0  0
   24.1259  -20.7856  -20.9919 C   0  0  0  0  0  0  0  0  0  0  0  0
   23.1501  -20.3055  -21.6864 N   0  0  0  0  0  0  0  0  0  0  0  0
   23.8316  -21.5938  -19.8517 N   0  0  0  0  0  0  0  0  0  0  0  0
   24.7474  -21.6460  -18.7295 C   0  0  0  0  0  0  0  0  0  0  0  0
   25.9667  -22.4671  -19.1625 C   0  0  0  0  0  0  0  0  0  0  0  0
   26.9831  -22.3791  -18.0533 C   0  0  0  0  0  0  0  0  0  0  0  0
   26.4685  -22.9774  -16.7698 C   0  0  2  0  0  0  0  0  0  0  0  0
   25.0303  -22.7147  -16.7577 N   0  0  0  0  0  0  0  0  0  0  0  0
   27.0705  -22.2557  -15.6276 C   0  0  0  0  0  0  0  0  0  0  0  0
   28.3014  -22.1226  -15.4849 O   0  0  0  0  0  0  0  0  0  0  0  0
   22.1577  -20.4924  -21.4548 C   0  0  0  0  0  0  0  0  0  0  0  0
   27.3865  -16.2168  -13.7884 S   0  0  0  0  0  0  0  0  0  0  0  0
   27.0961  -17.2560  -15.2570 C   0  0  0  0  0  0  0  0  0  0  0  0
   27.4030  -19.0020  -14.8763 C   0  0  0  0  0  0  0  0  0  0  0  0
   26.4857  -19.4808  -13.7710 C   0  0  2  0  0  0  0  0  0  0  0  0
   26.7364  -20.9425  -13.4801 N   0  0  0  0  0  0  0  0  0  0  0  0
   26.2404  -21.6736  -14.6275 C   0  0  0  0  0  0  0  0  0  0  0  0
   26.0409  -21.3975  -12.2600 O   0  0  0  0  0  0  0  0  0  0  0  0
   24.7949  -21.2446  -12.1965 N   0  0  0  0  0  0  0  0  0  0  0  0
   26.7245  -21.9986  -11.1607 C   0  0  2  0  0  0  0  0  0  0  0  0
   26.5623  -21.5122   -9.8281 C   0  0  0  0  0  0  0  0  0  0  0  0
   27.8683  -21.0742   -9.1999 C   0  0  0  0  0  0  0  0  0  0  0  0
   27.6519  -20.2732   -7.9773 C   0  0  0  0  0  0  0  0  0  0  0  0
   26.7215  -19.2977   -7.7109 N   0  0  0  0  0  0  0  0  0  0  0  0
   26.9008  -18.8411   -6.4552 C   0  0  0  0  0  0  0  0  0  0  0  0
   27.9333  -19.4860   -5.8631 C   0  0  0  0  0  0  0  0  0  0  0  0
   28.5053  -19.3820   -4.6019 C   0  0  0  0  0  0  0  0  0  0  0  0
   29.5620  -20.1997   -4.3180 C   0  0  0  0  0  0  0  0  0  0  0  0
   30.0838  -21.1135   -5.2113 C   0  0  0  0  0  0  0  0  0  0  0  0
   29.4840  -21.1828   -6.4531 C   0  0  0  0  0  0  0  0  0  0  0  0
   28.4068  -20.3790   -6.8029 C   0  0  0  0  0  0  0  0  0  0  0  0
   25.5382  -20.4421   -9.7781 O   0  0  0  0  0  0  0  0  0  0  0  0
   24.3531  -20.5441   -9.0677 O   0  0  0  0  0  0  0  0  0  0  0  0
  2  3  2  0
  2  1  1  0
  4  2  1  0
  5  4  1  0
  6  5  1  0
  7  6  1  0
  8  7  1  0
  8  9  1  6
 10 11  2  0
 10  8  1  0
 12 13  1  0
 14 13  1  0
 14 15  1  0
 16 15  1  6
 16 18  1  0
 16 17  1  0
 17 10  1  0
 18 19  2  0
 20 21  1  0
 20 18  1  0
 21 22  1  6
 23 22  1  0
 23 24  2  0
 25 24  1  0
 26 31  2  0
 26 25  1  0
 27 26  1  0
 28 29  1  0
 28 27  2  0
 29 30  2  0
 30 31  1  0
 31 23  1  0
 32 21  1  0
 33 32  1  0
 34 32  2  0
M  END
$$$$
