RMW.pdb
     RDKit          3D

 34 35  0  0  1  0  0  0  0  0999 V2000
   16.9480  -21.7546  -12.7926 N   0  0  0  0  0  0  0  0  0  0  0  0
   17.4589  -22.8052  -13.6014 C   0  0  0  0  0  0  0  0  0  0  0  0
   16.6577  -23.7482  -13.9677 N   0  0  0  0  0  0  0  0  0  0  0  0
   18.8230  -22.8542  -14.0215 N   0  0  0  0  0  0  0  0  0  0  0  0
   19.5563  -21.6326  -14.2876 C   0  0  0  0  0  0  0  0  0  0  0  0
   19.6933  -20.8749  -12.9627 C   0  0  0  0  0  0  0  0  0  0  0  0
   21.0323  -20.1836  -12.9782 C   0  0  0  0  0  0  0  0  0  0  0  0
   22.0713  -20.9861  -13.7176 C   0  0  2  0  0  0  0  0  0  0  0  0
   22.1137  -22.2882  -13.0541 N   0  0  0  0  0  0  0  0  0  0  0  0
   23.3916  -20.3436  -13.5393 C   0  0  0  0  0  0  0  0  0  0  0  0
   23.6245  -19.1693  -13.8859 O   0  0  0  0  0  0  0  0  0  0  0  0
   15.6688  -23.7882  -13.6613 C   0  0  0  0  0  0  0  0  0  0  0  0
   25.7969  -20.5160   -7.4469 S   0  0  0  0  0  0  0  0  0  0  0  0
   26.5597  -21.2601   -8.9251 C   0  0  0  0  0  0  0  0  0  0  0  0
   25.8922  -20.5110  -10.4354 C   0  0  0  0  0  0  0  0  0  0  0  0
   26.4531  -21.1913  -11.6664 C   0  0  2  0  0  0  0  0  0  0  0  0
   25.8395  -20.6011  -12.9151 N   0  0  0  0  0  0  0  0  0  0  0  0
   24.4683  -21.0655  -12.9496 C   0  0  0  0  0  0  0  0  0  0  0  0
   26.5423  -21.0301  -14.1404 O   0  0  0  0  0  0  0  0  0  0  0  0
   26.6132  -22.2614  -14.3824 N   0  0  0  0  0  0  0  0  0  0  0  0
   27.1386  -20.1070  -15.0512 C   0  0  1  0  0  0  0  0  0  0  0  0
   26.7826  -20.0911  -16.4338 C   0  0  0  0  0  0  0  0  0  0  0  0
   25.2853  -20.0509  -16.6542 C   0  0  0  0  0  0  0  0  0  0  0  0
   24.9343  -20.1681  -18.0847 C   0  0  0  0  0  0  0  0  0  0  0  0
   24.8628  -21.2785  -18.8910 N   0  0  0  0  0  0  0  0  0  0  0  0
   24.4989  -20.9047  -20.1340 C   0  0  0  0  0  0  0  0  0  0  0  0
   24.3217  -19.5638  -20.1890 C   0  0  0  0  0  0  0  0  0  0  0  0
   23.9543  -18.7073  -21.2187 C   0  0  0  0  0  0  0  0  0  0  0  0
   23.8666  -17.3749  -20.9312 C   0  0  0  0  0  0  0  0  0  0  0  0
   24.1217  -16.8431  -19.6833 C   0  0  0  0  0  0  0  0  0  0  0  0
   24.4835  -17.7313  -18.6899 C   0  0  0  0  0  0  0  0  0  0  0  0
   24.5904  -19.0970  -18.9183 C   0  0  0  0  0  0  0  0  0  0  0  0
   27.4760  -18.9906  -17.1443 O   0  0  0  0  0  0  0  0  0  0  0  0
   27.6043  -17.7078  -16.6368 O   0  0  0  0  0  0  0  0  0  0  0  0
  2  3  2  0
  2  1  1  0
  4  2  1  0
  5  4  1  0
  6  5  1  0
  7  6  1  0
  8  7  1  0
  8  9  1  1
 10 11  2  0
 10  8  1  0
 12 13  1  0
 14 13  1  0
 14 15  1  0
 16 15  1  1
 16 18  1  0
 16 17  1  0
 17 10  1  0
 18 19  2  0
 20 21  1  0
 20 18  1  0
 21 22  1  6
 23 22  1  0
 23 24  2  0
 25 24  1  0
 26 31  2  0
 26 25  1  0
 27 26  1  0
 28 29  1  0
 28 27  2  0
 29 30  2  0
 30 31  1  0
 31 23  1  0
 32 21  1  0
 33 32  1  0
 34 32  2  0
M  END
$$$$
