RMW.pdb
     RDKit          3D

 34 35  0  0  1  0  0  0  0  0999 V2000
   30.6122  -24.1748  -15.4409 N   0  0  0  0  0  0  0  0  0  0  0  0
   31.2047  -23.9030  -16.7035 C   0  0  0  0  0  0  0  0  0  0  0  0
   32.0659  -24.7405  -17.1748 N   0  0  0  0  0  0  0  0  0  0  0  0
   30.8820  -22.7395  -17.4663 N   0  0  0  0  0  0  0  0  0  0  0  0
   29.8680  -21.8129  -17.0035 C   0  0  0  0  0  0  0  0  0  0  0  0
   28.5023  -22.3792  -17.4068 C   0  0  0  0  0  0  0  0  0  0  0  0
   27.6499  -22.4207  -16.1647 C   0  0  0  0  0  0  0  0  0  0  0  0
   26.2411  -21.9591  -16.4334 C   0  0  2  0  0  0  0  0  0  0  0  0
   26.2896  -21.2626  -17.7180 N   0  0  0  0  0  0  0  0  0  0  0  0
   25.8518  -20.9758  -15.3993 C   0  0  0  0  0  0  0  0  0  0  0  0
   26.4119  -19.8697  -15.2732 O   0  0  0  0  0  0  0  0  0  0  0  0
   32.5852  -24.5684  -18.0547 C   0  0  0  0  0  0  0  0  0  0  0  0
   21.1792  -19.8719  -16.5838 S   0  0  0  0  0  0  0  0  0  0  0  0
   22.3866  -18.5685  -16.1786 C   0  0  0  0  0  0  0  0  0  0  0  0
   22.7881  -18.5954  -14.4107 C   0  0  0  0  0  0  0  0  0  0  0  0
   22.8748  -20.0183  -13.9003 C   0  0  2  0  0  0  0  0  0  0  0  0
   24.2944  -20.3431  -13.4962 N   0  0  0  0  0  0  0  0  0  0  0  0
   24.7955  -21.2691  -14.4903 C   0  0  0  0  0  0  0  0  0  0  0  0
   24.3675  -20.9608  -12.1574 O   0  0  0  0  0  0  0  0  0  0  0  0
   23.9715  -22.1469  -12.0297 N   0  0  0  0  0  0  0  0  0  0  0  0
   24.8661  -20.2675  -11.0138 C   0  0  1  0  0  0  0  0  0  0  0  0
   24.7439  -20.8142   -9.7005 C   0  0  0  0  0  0  0  0  0  0  0  0
   25.6243  -20.1126   -8.6882 C   0  0  0  0  0  0  0  0  0  0  0  0
   27.0188  -20.5984   -8.7383 C   0  0  0  0  0  0  0  0  0  0  0  0
   27.6345  -21.4314   -9.6412 N   0  0  0  0  0  0  0  0  0  0  0  0
   28.9246  -21.5979   -9.2870 C   0  0  0  0  0  0  0  0  0  0  0  0
   29.1980  -20.8955   -8.1626 C   0  0  0  0  0  0  0  0  0  0  0  0
   30.3556  -20.7408   -7.4111 C   0  0  0  0  0  0  0  0  0  0  0  0
   30.2887  -19.9425   -6.3047 C   0  0  0  0  0  0  0  0  0  0  0  0
   29.1417  -19.2894   -5.9009 C   0  0  0  0  0  0  0  0  0  0  0  0
   28.0149  -19.4717   -6.6778 C   0  0  0  0  0  0  0  0  0  0  0  0
   28.0180  -20.2704   -7.8139 C   0  0  0  0  0  0  0  0  0  0  0  0
   23.3254  -20.8457   -9.2722 O   0  0  0  0  0  0  0  0  0  0  0  0
   22.8116  -21.7730   -8.3801 O   0  0  0  0  0  0  0  0  0  0  0  0
  2  3  2  0
  2  1  1  0
  4  2  1  0
  5  4  1  0
  6  5  1  0
  7  6  1  0
  8  7  1  0
  8  9  1  6
 10 11  2  0
 10  8  1  0
 12 13  1  0
 14 13  1  0
 14 15  1  0
 16 15  1  6
 16 18  1  0
 16 17  1  0
 17 10  1  0
 18 19  2  0
 20 21  1  0
 20 18  1  0
 21 22  1  1
 23 22  1  0
 23 24  2  0
 25 24  1  0
 26 31  2  0
 26 25  1  0
 27 26  1  0
 28 29  1  0
 28 27  2  0
 29 30  2  0
 30 31  1  0
 31 23  1  0
 32 21  1  0
 33 32  1  0
 34 32  2  0
M  END
$$$$
