RMW.pdb
     RDKit          3D

 34 35  0  0  1  0  0  0  0  0999 V2000
   29.2025  -26.7955  -16.0552 N   0  0  0  0  0  0  0  0  0  0  0  0
   28.1585  -26.4210  -16.9434 C   0  0  0  0  0  0  0  0  0  0  0  0
   27.2289  -27.2783  -17.2003 N   0  0  0  0  0  0  0  0  0  0  0  0
   28.1023  -25.1339  -17.5597 N   0  0  0  0  0  0  0  0  0  0  0  0
   29.0692  -24.1100  -17.2170 C   0  0  0  0  0  0  0  0  0  0  0  0
   28.7735  -23.6524  -15.7847 C   0  0  0  0  0  0  0  0  0  0  0  0
   28.5023  -22.1708  -15.8345 C   0  0  0  0  0  0  0  0  0  0  0  0
   27.1115  -21.8697  -16.3294 C   0  0  2  0  0  0  0  0  0  0  0  0
   27.2836  -21.2291  -17.6323 N   0  0  0  0  0  0  0  0  0  0  0  0
   26.4802  -20.8873  -15.4215 C   0  0  0  0  0  0  0  0  0  0  0  0
   26.8510  -19.6998  -15.3471 O   0  0  0  0  0  0  0  0  0  0  0  0
   26.4638  -27.0848  -17.8716 C   0  0  0  0  0  0  0  0  0  0  0  0
   20.9468  -20.3362  -16.6532 S   0  0  0  0  0  0  0  0  0  0  0  0
   21.8961  -18.8333  -16.2519 C   0  0  0  0  0  0  0  0  0  0  0  0
   23.5128  -19.2650  -15.5538 C   0  0  0  0  0  0  0  0  0  0  0  0
   23.3526  -20.1185  -14.3135 C   0  0  2  0  0  0  0  0  0  0  0  0
   24.7004  -20.3818  -13.6824 N   0  0  0  0  0  0  0  0  0  0  0  0
   25.3989  -21.2773  -14.5808 C   0  0  0  0  0  0  0  0  0  0  0  0
   24.5819  -21.0050  -12.3494 O   0  0  0  0  0  0  0  0  0  0  0  0
   24.3470  -22.2384  -12.2908 N   0  0  0  0  0  0  0  0  0  0  0  0
   24.7226  -20.2657  -11.1367 C   0  0  1  0  0  0  0  0  0  0  0  0
   24.4626  -20.8636   -9.8664 C   0  0  0  0  0  0  0  0  0  0  0  0
   25.1847  -20.1687   -8.7316 C   0  0  0  0  0  0  0  0  0  0  0  0
   26.6325  -20.4639   -8.7353 C   0  0  0  0  0  0  0  0  0  0  0  0
   27.3878  -21.1809   -9.6317 N   0  0  0  0  0  0  0  0  0  0  0  0
   28.6741  -21.1855   -9.2282 C   0  0  0  0  0  0  0  0  0  0  0  0
   28.8083  -20.4867   -8.0767 C   0  0  0  0  0  0  0  0  0  0  0  0
   29.9054  -20.2023   -7.2741 C   0  0  0  0  0  0  0  0  0  0  0  0
   29.6905  -19.4530   -6.1524 C   0  0  0  0  0  0  0  0  0  0  0  0
   28.4520  -18.9698   -5.7810 C   0  0  0  0  0  0  0  0  0  0  0  0
   27.3900  -19.2766   -6.6084 C   0  0  0  0  0  0  0  0  0  0  0  0
   27.5430  -20.0339   -7.7625 C   0  0  0  0  0  0  0  0  0  0  0  0
   23.0048  -20.9603   -9.6175 O   0  0  0  0  0  0  0  0  0  0  0  0
   22.4469  -21.7143   -8.5977 O   0  0  0  0  0  0  0  0  0  0  0  0
  2  3  2  0
  2  1  1  0
  4  2  1  0
  5  4  1  0
  6  5  1  0
  7  6  1  0
  8  7  1  0
  8  9  1  6
 10 11  2  0
 10  8  1  0
 12 13  1  0
 14 13  1  0
 14 15  1  0
 16 15  1  6
 16 18  1  0
 16 17  1  0
 17 10  1  0
 18 19  2  0
 20 21  1  0
 20 18  1  0
 21 22  1  1
 23 22  1  0
 23 24  2  0
 25 24  1  0
 26 31  2  0
 26 25  1  0
 27 26  1  0
 28 29  1  0
 28 27  2  0
 29 30  2  0
 30 31  1  0
 31 23  1  0
 32 21  1  0
 33 32  1  0
 34 32  2  0
M  END
$$$$
