RMW.pdb
     RDKit          3D

 34 35  0  0  1  0  0  0  0  0999 V2000
   26.3190  -21.0864  -21.0858 N   0  0  0  0  0  0  0  0  0  0  0  0
   27.6763  -20.8594  -20.7319 C   0  0  0  0  0  0  0  0  0  0  0  0
   28.5956  -21.1548  -21.5879 N   0  0  0  0  0  0  0  0  0  0  0  0
   28.0575  -20.3179  -19.4665 N   0  0  0  0  0  0  0  0  0  0  0  0
   27.0570  -19.7954  -18.5571 C   0  0  0  0  0  0  0  0  0  0  0  0
   27.6758  -19.7609  -17.1556 C   0  0  0  0  0  0  0  0  0  0  0  0
   27.4631  -21.1192  -16.5383 C   0  0  0  0  0  0  0  0  0  0  0  0
   28.0074  -21.1910  -15.1352 C   0  0  2  0  0  0  0  0  0  0  0  0
   29.0661  -22.1987  -15.1711 N   0  0  0  0  0  0  0  0  0  0  0  0
   26.9444  -21.6828  -14.2318 C   0  0  0  0  0  0  0  0  0  0  0  0
   26.3478  -22.7617  -14.4139 O   0  0  0  0  0  0  0  0  0  0  0  0
   29.6046  -21.0399  -21.3825 C   0  0  0  0  0  0  0  0  0  0  0  0
   28.7372  -21.0681   -7.6878 S   0  0  0  0  0  0  0  0  0  0  0  0
   27.3007  -20.3437   -8.5436 C   0  0  0  0  0  0  0  0  0  0  0  0
   26.9259  -21.2667  -10.0586 C   0  0  0  0  0  0  0  0  0  0  0  0
   25.8507  -20.5668  -10.8627 C   0  0  2  0  0  0  0  0  0  0  0  0
   25.5614  -21.3371  -12.1305 N   0  0  0  0  0  0  0  0  0  0  0  0
   26.5584  -20.9186  -13.0937 C   0  0  0  0  0  0  0  0  0  0  0  0
   24.2109  -21.0594  -12.6580 O   0  0  0  0  0  0  0  0  0  0  0  0
   23.9613  -19.8966  -13.0650 N   0  0  0  0  0  0  0  0  0  0  0  0
   23.1881  -22.0528  -12.7220 C   0  0  2  0  0  0  0  0  0  0  0  0
   21.8567  -21.7253  -13.1204 C   0  0  0  0  0  0  0  0  0  0  0  0
   20.9436  -22.9321  -13.1652 C   0  0  0  0  0  0  0  0  0  0  0  0
   19.6103  -22.5961  -13.7065 C   0  0  0  0  0  0  0  0  0  0  0  0
   19.1895  -22.4684  -15.0083 N   0  0  0  0  0  0  0  0  0  0  0  0
   17.8798  -22.1495  -15.0247 C   0  0  0  0  0  0  0  0  0  0  0  0
   17.4022  -22.0580  -13.7614 C   0  0  0  0  0  0  0  0  0  0  0  0
   16.1443  -21.7614  -13.2530 C   0  0  0  0  0  0  0  0  0  0  0  0
   15.9980  -21.7514  -11.8949 C   0  0  0  0  0  0  0  0  0  0  0  0
   17.0255  -22.0184  -11.0128 C   0  0  0  0  0  0  0  0  0  0  0  0
   18.2586  -22.3084  -11.5624 C   0  0  0  0  0  0  0  0  0  0  0  0
   18.4720  -22.3343  -12.9344 C   0  0  0  0  0  0  0  0  0  0  0  0
   21.3030  -20.6440  -12.2714 O   0  0  0  0  0  0  0  0  0  0  0  0
   21.5639  -20.5199  -10.9164 O   0  0  0  0  0  0  0  0  0  0  0  0
  2  3  2  0
  2  1  1  0
  4  2  1  0
  5  4  1  0
  6  5  1  0
  7  6  1  0
  8  7  1  0
  8  9  1  6
 10 11  2  0
 10  8  1  0
 12 13  1  0
 14 13  1  0
 14 15  1  0
 16 15  1  1
 16 18  1  0
 16 17  1  0
 17 10  1  0
 18 19  2  0
 20 21  1  0
 20 18  1  0
 21 22  1  1
 23 22  1  0
 23 24  2  0
 25 24  1  0
 26 31  2  0
 26 25  1  0
 27 26  1  0
 28 29  1  0
 28 27  2  0
 29 30  2  0
 30 31  1  0
 31 23  1  0
 32 21  1  0
 33 32  1  0
 34 32  2  0
M  END
$$$$
