RMW.pdb
     RDKit          3D

 34 35  0  0  1  0  0  0  0  0999 V2000
   31.9380  -24.9868  -17.0892 N   0  0  0  0  0  0  0  0  0  0  0  0
   30.8846  -24.8913  -18.0381 C   0  0  0  0  0  0  0  0  0  0  0  0
   30.5735  -25.9397  -18.7232 N   0  0  0  0  0  0  0  0  0  0  0  0
   30.1610  -23.6801  -18.2596 N   0  0  0  0  0  0  0  0  0  0  0  0
   30.5685  -22.4493  -17.6117 C   0  0  0  0  0  0  0  0  0  0  0  0
   29.4880  -22.0829  -16.5887 C   0  0  0  0  0  0  0  0  0  0  0  0
   28.2372  -21.7467  -17.3591 C   0  0  0  0  0  0  0  0  0  0  0  0
   27.4129  -20.6952  -16.6626 C   0  0  2  0  0  0  0  0  0  0  0  0
   28.3691  -19.7111  -16.1576 N   0  0  0  0  0  0  0  0  0  0  0  0
   26.7360  -21.3077  -15.4988 C   0  0  0  0  0  0  0  0  0  0  0  0
   25.9718  -22.2870  -15.5994 O   0  0  0  0  0  0  0  0  0  0  0  0
   29.8454  -25.9266  -19.4602 C   0  0  0  0  0  0  0  0  0  0  0  0
   26.0413  -19.5688   -7.9800 S   0  0  0  0  0  0  0  0  0  0  0  0
   27.1478  -20.4915   -9.0958 C   0  0  0  0  0  0  0  0  0  0  0  0
   26.2403  -21.0875  -10.5480 C   0  0  0  0  0  0  0  0  0  0  0  0
   26.9629  -20.7131  -11.8248 C   0  0  2  0  0  0  0  0  0  0  0  0
   26.1693  -21.1689  -13.0275 N   0  0  0  0  0  0  0  0  0  0  0  0
   26.9416  -20.7842  -14.1905 C   0  0  0  0  0  0  0  0  0  0  0  0
   24.8336  -20.5429  -13.0864 O   0  0  0  0  0  0  0  0  0  0  0  0
   24.7620  -19.3281  -13.4010 N   0  0  0  0  0  0  0  0  0  0  0  0
   23.6324  -21.2594  -12.8019 C   0  0  1  0  0  0  0  0  0  0  0  0
   22.3485  -20.6649  -12.9934 C   0  0  0  0  0  0  0  0  0  0  0  0
   21.6796  -21.1125  -14.2758 C   0  0  0  0  0  0  0  0  0  0  0  0
   21.2376  -22.5207  -14.2058 C   0  0  0  0  0  0  0  0  0  0  0  0
   20.0141  -23.0492  -13.8711 N   0  0  0  0  0  0  0  0  0  0  0  0
   20.0734  -24.3940  -13.9460 C   0  0  0  0  0  0  0  0  0  0  0  0
   21.3113  -24.7898  -14.3244 C   0  0  0  0  0  0  0  0  0  0  0  0
   21.8707  -26.0424  -14.5408 C   0  0  0  0  0  0  0  0  0  0  0  0
   23.1807  -26.0917  -14.9246 C   0  0  0  0  0  0  0  0  0  0  0  0
   23.9672  -24.9720  -15.1063 C   0  0  0  0  0  0  0  0  0  0  0  0
   23.3698  -23.7479  -14.8803 C   0  0  0  0  0  0  0  0  0  0  0  0
   22.0426  -23.6308  -14.4884 C   0  0  0  0  0  0  0  0  0  0  0  0
   21.4826  -20.8871  -11.8113 O   0  0  0  0  0  0  0  0  0  0  0  0
   20.2616  -20.2598  -11.6233 O   0  0  0  0  0  0  0  0  0  0  0  0
  2  3  2  0
  2  1  1  0
  4  2  1  0
  5  4  1  0
  6  5  1  0
  7  6  1  0
  8  7  1  0
  8  9  1  1
 10 11  2  0
 10  8  1  0
 12 13  1  0
 14 13  1  0
 14 15  1  0
 16 15  1  1
 16 18  1  0
 16 17  1  0
 17 10  1  0
 18 19  2  0
 20 21  1  0
 20 18  1  0
 21 22  1  1
 23 22  1  0
 23 24  2  0
 25 24  1  0
 26 31  2  0
 26 25  1  0
 27 26  1  0
 28 29  1  0
 28 27  2  0
 29 30  2  0
 30 31  1  0
 31 23  1  0
 32 21  1  0
 33 32  1  0
 34 32  2  0
M  END
$$$$
