RMW.pdb
     RDKit          3D

 34 35  0  0  1  0  0  0  0  0999 V2000
   23.9250  -26.0608  -18.6811 N   0  0  0  0  0  0  0  0  0  0  0  0
   24.1251  -24.6799  -18.9493 C   0  0  0  0  0  0  0  0  0  0  0  0
   23.3308  -24.0901  -19.7778 N   0  0  0  0  0  0  0  0  0  0  0  0
   25.1708  -23.9244  -18.3365 N   0  0  0  0  0  0  0  0  0  0  0  0
   25.2925  -22.5011  -18.5817 C   0  0  0  0  0  0  0  0  0  0  0  0
   26.7851  -22.1542  -18.5737 C   0  0  0  0  0  0  0  0  0  0  0  0
   27.3098  -22.4638  -17.1953 C   0  0  0  0  0  0  0  0  0  0  0  0
   26.4442  -21.8663  -16.1165 C   0  0  2  0  0  0  0  0  0  0  0  0
   26.4732  -20.4216  -16.3387 N   0  0  0  0  0  0  0  0  0  0  0  0
   27.0627  -22.1347  -14.8000 C   0  0  0  0  0  0  0  0  0  0  0  0
   27.4312  -23.2712  -14.4452 O   0  0  0  0  0  0  0  0  0  0  0  0
   23.3958  -23.0772  -19.9854 C   0  0  0  0  0  0  0  0  0  0  0  0
   31.9813  -22.1331  -10.2277 S   0  0  0  0  0  0  0  0  0  0  0  0
   30.2790  -21.5455  -10.5066 C   0  0  0  0  0  0  0  0  0  0  0  0
   30.1516  -20.6852  -12.0976 C   0  0  0  0  0  0  0  0  0  0  0  0
   28.7578  -20.1287  -12.2980 C   0  0  2  0  0  0  0  0  0  0  0  0
   27.7741  -21.2528  -12.5275 N   0  0  0  0  0  0  0  0  0  0  0  0
   27.2630  -21.0744  -13.8706 C   0  0  0  0  0  0  0  0  0  0  0  0
   26.6582  -21.2257  -11.5615 O   0  0  0  0  0  0  0  0  0  0  0  0
   25.7026  -20.4396  -11.7822 N   0  0  0  0  0  0  0  0  0  0  0  0
   26.6249  -22.0510  -10.3976 C   0  0  2  0  0  0  0  0  0  0  0  0
   26.0270  -21.5994   -9.1822 C   0  0  0  0  0  0  0  0  0  0  0  0
   26.9493  -21.7333   -7.9890 C   0  0  0  0  0  0  0  0  0  0  0  0
   27.2550  -20.4234   -7.3775 C   0  0  0  0  0  0  0  0  0  0  0  0
   26.8782  -19.1583   -7.7592 N   0  0  0  0  0  0  0  0  0  0  0  0
   27.3930  -18.2599   -6.8960 C   0  0  0  0  0  0  0  0  0  0  0  0
   28.1115  -18.8881   -5.9360 C   0  0  0  0  0  0  0  0  0  0  0  0
   28.8256  -18.4198   -4.8408 C   0  0  0  0  0  0  0  0  0  0  0  0
   29.4524  -19.3433   -4.0534 C   0  0  0  0  0  0  0  0  0  0  0  0
   29.4121  -20.7028   -4.2888 C   0  0  0  0  0  0  0  0  0  0  0  0
   28.6905  -21.1234   -5.3884 C   0  0  0  0  0  0  0  0  0  0  0  0
   28.0311  -20.2347   -6.2275 C   0  0  0  0  0  0  0  0  0  0  0  0
   25.5107  -20.2180   -9.3298 O   0  0  0  0  0  0  0  0  0  0  0  0
   24.1868  -19.8655   -9.1234 O   0  0  0  0  0  0  0  0  0  0  0  0
  2  3  2  0
  2  1  1  0
  4  2  1  0
  5  4  1  0
  6  5  1  0
  7  6  1  0
  8  7  1  0
  8  9  1  6
 10 11  2  0
 10  8  1  0
 12 13  1  0
 14 13  1  0
 14 15  1  0
 16 15  1  6
 16 18  1  0
 16 17  1  0
 17 10  1  0
 18 19  2  0
 20 21  1  0
 20 18  1  0
 21 22  1  6
 23 22  1  0
 23 24  2  0
 25 24  1  0
 26 31  2  0
 26 25  1  0
 27 26  1  0
 28 29  1  0
 28 27  2  0
 29 30  2  0
 30 31  1  0
 31 23  1  0
 32 21  1  0
 33 32  1  0
 34 32  2  0
M  END
$$$$
