RMW.pdb
     RDKit          3D

 34 35  0  0  1  0  0  0  0  0999 V2000
   31.4870  -23.5938  -15.3197 N   0  0  0  0  0  0  0  0  0  0  0  0
   31.5859  -23.7208  -16.7315 C   0  0  0  0  0  0  0  0  0  0  0  0
   32.7591  -23.7662  -17.2670 N   0  0  0  0  0  0  0  0  0  0  0  0
   30.4366  -23.7993  -17.5756 N   0  0  0  0  0  0  0  0  0  0  0  0
   29.1046  -23.8363  -17.0052 C   0  0  0  0  0  0  0  0  0  0  0  0
   28.8395  -22.4742  -16.3552 C   0  0  0  0  0  0  0  0  0  0  0  0
   27.5128  -22.5664  -15.6465 C   0  0  0  0  0  0  0  0  0  0  0  0
   27.1147  -21.2532  -15.0243 C   0  0  2  0  0  0  0  0  0  0  0  0
   28.2802  -20.8043  -14.2643 N   0  0  0  0  0  0  0  0  0  0  0  0
   26.0127  -21.4895  -14.0663 C   0  0  0  0  0  0  0  0  0  0  0  0
   24.9510  -22.0597  -14.3842 O   0  0  0  0  0  0  0  0  0  0  0  0
   32.9041  -23.9694  -18.2725 C   0  0  0  0  0  0  0  0  0  0  0  0
   28.9103  -21.2421   -7.8217 S   0  0  0  0  0  0  0  0  0  0  0  0
   27.3711  -20.4525   -8.3945 C   0  0  0  0  0  0  0  0  0  0  0  0
   26.7843  -21.2292   -9.9242 C   0  0  0  0  0  0  0  0  0  0  0  0
   25.5914  -20.4827  -10.4832 C   0  0  2  0  0  0  0  0  0  0  0  0
   25.0789  -21.1724  -11.7264 N   0  0  0  0  0  0  0  0  0  0  0  0
   26.1328  -21.0619  -12.7132 C   0  0  0  0  0  0  0  0  0  0  0  0
   23.8444  -20.5493  -12.2432 O   0  0  0  0  0  0  0  0  0  0  0  0
   23.9407  -19.4428  -12.8316 N   0  0  0  0  0  0  0  0  0  0  0  0
   22.5581  -21.1512  -12.1006 C   0  0  1  0  0  0  0  0  0  0  0  0
   21.4670  -20.7835  -12.9449 C   0  0  0  0  0  0  0  0  0  0  0  0
   21.6872  -21.1718  -14.3916 C   0  0  0  0  0  0  0  0  0  0  0  0
   20.5519  -20.7735  -15.2494 C   0  0  0  0  0  0  0  0  0  0  0  0
   19.9709  -19.5420  -15.4340 N   0  0  0  0  0  0  0  0  0  0  0  0
   18.9581  -19.6543  -16.3167 C   0  0  0  0  0  0  0  0  0  0  0  0
   18.8391  -20.9360  -16.7354 C   0  0  0  0  0  0  0  0  0  0  0  0
   17.9693  -21.5563  -17.6227 C   0  0  0  0  0  0  0  0  0  0  0  0
   18.1236  -22.8984  -17.8247 C   0  0  0  0  0  0  0  0  0  0  0  0
   19.0894  -23.6602  -17.1985 C   0  0  0  0  0  0  0  0  0  0  0  0
   19.9321  -23.0020  -16.3249 C   0  0  0  0  0  0  0  0  0  0  0  0
   19.8267  -21.6397  -16.0765 C   0  0  0  0  0  0  0  0  0  0  0  0
   20.1888  -21.3170  -12.4175 O   0  0  0  0  0  0  0  0  0  0  0  0
   18.9932  -20.6176  -12.4459 O   0  0  0  0  0  0  0  0  0  0  0  0
  2  3  2  0
  2  1  1  0
  4  2  1  0
  5  4  1  0
  6  5  1  0
  7  6  1  0
  8  7  1  0
  8  9  1  1
 10 11  2  0
 10  8  1  0
 12 13  1  0
 14 13  1  0
 14 15  1  0
 16 15  1  1
 16 18  1  0
 16 17  1  0
 17 10  1  0
 18 19  2  0
 20 21  1  0
 20 18  1  0
 21 22  1  1
 23 22  1  0
 23 24  2  0
 25 24  1  0
 26 31  2  0
 26 25  1  0
 27 26  1  0
 28 29  1  0
 28 27  2  0
 29 30  2  0
 30 31  1  0
 31 23  1  0
 32 21  1  0
 33 32  1  0
 34 32  2  0
M  END
$$$$
