RMW.pdb
     RDKit          3D

 34 35  0  0  1  0  0  0  0  0999 V2000
   28.1689  -16.2413  -17.8420 N   0  0  0  0  0  0  0  0  0  0  0  0
   27.0274  -17.0743  -17.6936 C   0  0  0  0  0  0  0  0  0  0  0  0
   26.3648  -17.4081  -18.7494 N   0  0  0  0  0  0  0  0  0  0  0  0
   26.5890  -17.5531  -16.4214 N   0  0  0  0  0  0  0  0  0  0  0  0
   27.2940  -17.1804  -15.2111 C   0  0  0  0  0  0  0  0  0  0  0  0
   28.0652  -18.4121  -14.7246 C   0  0  0  0  0  0  0  0  0  0  0  0
   27.0884  -19.2886  -13.9839 C   0  0  0  0  0  0  0  0  0  0  0  0
   27.7757  -20.4367  -13.2913 C   0  0  2  0  0  0  0  0  0  0  0  0
   28.1745  -21.3595  -14.3529 N   0  0  0  0  0  0  0  0  0  0  0  0
   26.7966  -21.1338  -12.4292 C   0  0  0  0  0  0  0  0  0  0  0  0
   25.8337  -21.7803  -12.8854 O   0  0  0  0  0  0  0  0  0  0  0  0
   25.4761  -17.9387  -18.7037 C   0  0  0  0  0  0  0  0  0  0  0  0
   27.2666  -20.9473   -5.8132 S   0  0  0  0  0  0  0  0  0  0  0  0
   26.9194  -19.3830   -6.6810 C   0  0  0  0  0  0  0  0  0  0  0  0
   26.5539  -19.6890   -8.4304 C   0  0  0  0  0  0  0  0  0  0  0  0
   26.4224  -21.1729   -8.7008 C   0  0  1  0  0  0  0  0  0  0  0  0
   25.8602  -21.4043  -10.0844 N   0  0  0  0  0  0  0  0  0  0  0  0
   26.9264  -21.0878  -11.0117 C   0  0  0  0  0  0  0  0  0  0  0  0
   24.6881  -20.5508  -10.3620 O   0  0  0  0  0  0  0  0  0  0  0  0
   24.8498  -19.3043  -10.3629 N   0  0  0  0  0  0  0  0  0  0  0  0
   23.3908  -21.0837  -10.6266 C   0  0  1  0  0  0  0  0  0  0  0  0
   22.4647  -20.4017  -11.4727 C   0  0  0  0  0  0  0  0  0  0  0  0
   23.0231  -20.1261  -12.8526 C   0  0  0  0  0  0  0  0  0  0  0  0
   22.0362  -19.4550  -13.7239 C   0  0  0  0  0  0  0  0  0  0  0  0
   20.7583  -19.0302  -13.4510 N   0  0  0  0  0  0  0  0  0  0  0  0
   20.2298  -18.4670  -14.5559 C   0  0  0  0  0  0  0  0  0  0  0  0
   21.1218  -18.5004  -15.5735 C   0  0  0  0  0  0  0  0  0  0  0  0
   21.0620  -18.0586  -16.8888 C   0  0  0  0  0  0  0  0  0  0  0  0
   22.1648  -18.2521  -17.6712 C   0  0  0  0  0  0  0  0  0  0  0  0
   23.3223  -18.8576  -17.2253 C   0  0  0  0  0  0  0  0  0  0  0  0
   23.3374  -19.2808  -15.9111 C   0  0  0  0  0  0  0  0  0  0  0  0
   22.2489  -19.1135  -15.0650 C   0  0  0  0  0  0  0  0  0  0  0  0
   21.1732  -21.1262  -11.5332 O   0  0  0  0  0  0  0  0  0  0  0  0
   19.9445  -20.5288  -11.3032 O   0  0  0  0  0  0  0  0  0  0  0  0
  2  3  2  0
  2  1  1  0
  4  2  1  0
  5  4  1  0
  6  5  1  0
  7  6  1  0
  8  7  1  0
  8  9  1  6
 10 11  2  0
 10  8  1  0
 12 13  1  0
 14 13  1  0
 14 15  1  0
 16 15  1  1
 16 18  1  0
 16 17  1  0
 17 10  1  0
 18 19  2  0
 20 21  1  0
 20 18  1  0
 21 22  1  1
 23 22  1  0
 23 24  2  0
 25 24  1  0
 26 31  2  0
 26 25  1  0
 27 26  1  0
 28 29  1  0
 28 27  2  0
 29 30  2  0
 30 31  1  0
 31 23  1  0
 32 21  1  0
 33 32  1  0
 34 32  2  0
M  END
$$$$
