RMW.pdb
     RDKit          3D

 34 35  0  0  1  0  0  0  0  0999 V2000
   22.0405  -22.0399  -19.7380 N   0  0  0  0  0  0  0  0  0  0  0  0
   21.3232  -20.8984  -19.2891 C   0  0  0  0  0  0  0  0  0  0  0  0
   20.2665  -20.5388  -19.9367 N   0  0  0  0  0  0  0  0  0  0  0  0
   21.7293  -20.1376  -18.1507 N   0  0  0  0  0  0  0  0  0  0  0  0
   23.0140  -20.3780  -17.5240 C   0  0  0  0  0  0  0  0  0  0  0  0
   23.1413  -21.8869  -17.2893 C   0  0  0  0  0  0  0  0  0  0  0  0
   24.0552  -22.0809  -16.1068 C   0  0  0  0  0  0  0  0  0  0  0  0
   25.3767  -21.3823  -16.2964 C   0  0  2  0  0  0  0  0  0  0  0  0
   25.9799  -21.9886  -17.4821 N   0  0  0  0  0  0  0  0  0  0  0  0
   26.2494  -21.6824  -15.1404 C   0  0  0  0  0  0  0  0  0  0  0  0
   26.7898  -22.7926  -14.9715 O   0  0  0  0  0  0  0  0  0  0  0  0
   19.6865  -19.7298  -19.6494 C   0  0  0  0  0  0  0  0  0  0  0  0
   30.6808  -21.8138  -11.7339 S   0  0  0  0  0  0  0  0  0  0  0  0
   31.0128  -20.4817  -12.9322 C   0  0  0  0  0  0  0  0  0  0  0  0
   29.5333  -20.1237  -13.9173 C   0  0  0  0  0  0  0  0  0  0  0  0
   28.3671  -19.7589  -13.0233 C   0  0  2  0  0  0  0  0  0  0  0  0
   27.3553  -20.8813  -12.9996 N   0  0  0  0  0  0  0  0  0  0  0  0
   26.5074  -20.6852  -14.1570 C   0  0  0  0  0  0  0  0  0  0  0  0
   26.5349  -20.8693  -11.7724 O   0  0  0  0  0  0  0  0  0  0  0  0
   25.5071  -20.1459  -11.7539 N   0  0  0  0  0  0  0  0  0  0  0  0
   26.8627  -21.6411  -10.6175 C   0  0  2  0  0  0  0  0  0  0  0  0
   26.1969  -21.4349   -9.3713 C   0  0  0  0  0  0  0  0  0  0  0  0
   27.0181  -21.8918   -8.1843 C   0  0  0  0  0  0  0  0  0  0  0  0
   26.8607  -20.9904   -7.0241 C   0  0  0  0  0  0  0  0  0  0  0  0
   25.7227  -20.5552   -6.3887 N   0  0  0  0  0  0  0  0  0  0  0  0
   26.0641  -19.7396   -5.3710 C   0  0  0  0  0  0  0  0  0  0  0  0
   27.4099  -19.6116   -5.3019 C   0  0  0  0  0  0  0  0  0  0  0  0
   28.2420  -18.8978   -4.4495 C   0  0  0  0  0  0  0  0  0  0  0  0
   29.5887  -18.9875   -4.6596 C   0  0  0  0  0  0  0  0  0  0  0  0
   30.1574  -19.7434   -5.6648 C   0  0  0  0  0  0  0  0  0  0  0  0
   29.2924  -20.4365   -6.4882 C   0  0  0  0  0  0  0  0  0  0  0  0
   27.9140  -20.3866   -6.3267 C   0  0  0  0  0  0  0  0  0  0  0  0
   25.7616  -20.0250   -9.2329 O   0  0  0  0  0  0  0  0  0  0  0  0
   26.5552  -18.9388   -9.5643 O   0  0  0  0  0  0  0  0  0  0  0  0
  2  3  2  0
  2  1  1  0
  4  2  1  0
  5  4  1  0
  6  5  1  0
  7  6  1  0
  8  7  1  0
  8  9  1  6
 10 11  2  0
 10  8  1  0
 12 13  1  0
 14 13  1  0
 14 15  1  0
 16 15  1  6
 16 18  1  0
 16 17  1  0
 17 10  1  0
 18 19  2  0
 20 21  1  0
 20 18  1  0
 21 22  1  6
 23 22  1  0
 23 24  2  0
 25 24  1  0
 26 31  2  0
 26 25  1  0
 27 26  1  0
 28 29  1  0
 28 27  2  0
 29 30  2  0
 30 31  1  0
 31 23  1  0
 32 21  1  0
 33 32  1  0
 34 32  2  0
M  END
$$$$
