RMW.pdb
     RDKit          3D

 34 35  0  0  1  0  0  0  0  0999 V2000
   27.9397  -28.0726  -16.2877 N   0  0  0  0  0  0  0  0  0  0  0  0
   27.1603  -28.5216  -17.3876 C   0  0  0  0  0  0  0  0  0  0  0  0
   27.5024  -29.6148  -17.9817 N   0  0  0  0  0  0  0  0  0  0  0  0
   26.0158  -27.8079  -17.8572 N   0  0  0  0  0  0  0  0  0  0  0  0
   25.6836  -26.5070  -17.3113 C   0  0  0  0  0  0  0  0  0  0  0  0
   26.8314  -25.5518  -17.6553 C   0  0  0  0  0  0  0  0  0  0  0  0
   27.1469  -24.7635  -16.4103 C   0  0  0  0  0  0  0  0  0  0  0  0
   26.1729  -23.6337  -16.1977 C   0  0  2  0  0  0  0  0  0  0  0  0
   26.0517  -22.9650  -17.4922 N   0  0  0  0  0  0  0  0  0  0  0  0
   26.7577  -22.6681  -15.2420 C   0  0  0  0  0  0  0  0  0  0  0  0
   27.9789  -22.6118  -14.9997 O   0  0  0  0  0  0  0  0  0  0  0  0
   26.9674  -30.0061  -18.7780 C   0  0  0  0  0  0  0  0  0  0  0  0
   27.1332  -16.6616  -13.5856 S   0  0  0  0  0  0  0  0  0  0  0  0
   27.7674  -17.5975  -15.0149 C   0  0  0  0  0  0  0  0  0  0  0  0
   26.6619  -18.9769  -15.4182 C   0  0  0  0  0  0  0  0  0  0  0  0
   25.8710  -19.4061  -14.2005 C   0  0  2  0  0  0  0  0  0  0  0  0
   26.4087  -20.7116  -13.6615 N   0  0  0  0  0  0  0  0  0  0  0  0
   25.9215  -21.7465  -14.5495 C   0  0  0  0  0  0  0  0  0  0  0  0
   25.9498  -20.9796  -12.2842 O   0  0  0  0  0  0  0  0  0  0  0  0
   24.7410  -21.2767  -12.1097 N   0  0  0  0  0  0  0  0  0  0  0  0
   26.8197  -20.9141  -11.1545 C   0  0  2  0  0  0  0  0  0  0  0  0
   26.3165  -21.0087   -9.8216 C   0  0  0  0  0  0  0  0  0  0  0  0
   27.4117  -20.9747   -8.7768 C   0  0  0  0  0  0  0  0  0  0  0  0
   26.8739  -20.7420   -7.4204 C   0  0  0  0  0  0  0  0  0  0  0  0
   25.6642  -21.0979   -6.8742 N   0  0  0  0  0  0  0  0  0  0  0  0
   25.6102  -20.6749   -5.5954 C   0  0  0  0  0  0  0  0  0  0  0  0
   26.7578  -20.0393   -5.2614 C   0  0  0  0  0  0  0  0  0  0  0  0
   27.1877  -19.4337   -4.0879 C   0  0  0  0  0  0  0  0  0  0  0  0
   28.4318  -18.8699   -4.0869 C   0  0  0  0  0  0  0  0  0  0  0  0
   29.2735  -18.8719   -5.1809 C   0  0  0  0  0  0  0  0  0  0  0  0
   28.8051  -19.4852   -6.3259 C   0  0  0  0  0  0  0  0  0  0  0  0
   27.5500  -20.0762   -6.3909 C   0  0  0  0  0  0  0  0  0  0  0  0
   25.2830  -19.9758   -9.5734 O   0  0  0  0  0  0  0  0  0  0  0  0
   25.4707  -18.6252   -9.8192 O   0  0  0  0  0  0  0  0  0  0  0  0
  2  3  2  0
  2  1  1  0
  4  2  1  0
  5  4  1  0
  6  5  1  0
  7  6  1  0
  8  7  1  0
  8  9  1  6
 10 11  2  0
 10  8  1  0
 12 13  1  0
 14 13  1  0
 14 15  1  0
 16 15  1  6
 16 18  1  0
 16 17  1  0
 17 10  1  0
 18 19  2  0
 20 21  1  0
 20 18  1  0
 21 22  1  6
 23 22  1  0
 23 24  2  0
 25 24  1  0
 26 31  2  0
 26 25  1  0
 27 26  1  0
 28 29  1  0
 28 27  2  0
 29 30  2  0
 30 31  1  0
 31 23  1  0
 32 21  1  0
 33 32  1  0
 34 32  2  0
M  END
$$$$
