YHW.pdb
     RDKit          3D

 37 40  0  0  1  0  0  0  0  0999 V2000
    8.8811  -12.9917   15.6171 O   0  0  0  0  0  0  0  0  0  0  0  0
    8.6113  -13.4090   16.9044 C   0  0  0  0  0  0  0  0  0  0  0  0
    7.5808  -12.8949   17.6596 C   0  0  0  0  0  0  0  0  0  0  0  0
    7.3562  -13.3404   18.9250 C   0  0  0  0  0  0  0  0  0  0  0  0
    8.1305  -14.3281   19.5451 C   0  0  0  0  0  0  0  0  0  0  0  0
    7.8287  -14.7655   20.9236 C   0  0  0  0  0  0  0  0  0  0  0  0
    7.6275  -16.2486   20.9660 C   0  0  2  0  0  0  0  0  0  0  0  0
    6.4819  -16.6133   20.1505 N   0  0  0  0  0  0  0  0  0  0  0  0
    7.4476  -16.6970   22.3674 C   0  0  0  0  0  0  0  0  0  0  0  0
    6.7999  -16.0043   23.2006 O   0  0  0  0  0  0  0  0  0  0  0  0
    9.1563  -14.8377   18.7884 C   0  0  0  0  0  0  0  0  0  0  0  0
    9.3922  -14.3931   17.5054 C   0  0  0  0  0  0  0  0  0  0  0  0
    7.9985  -17.9331   22.8388 N   0  0  0  0  0  0  0  0  0  0  0  0
    7.9078  -18.2725   24.2689 C   0  0  1  0  0  0  0  0  0  0  0  0
    7.9634  -19.7872   24.3200 C   0  0  0  0  0  0  0  0  0  0  0  0
    7.8352  -20.2647   25.7291 C   0  0  0  0  0  0  0  0  0  0  0  0
    7.5397  -19.4602   26.8020 C   0  0  0  0  0  0  0  0  0  0  0  0
    7.4956  -20.2021   27.9294 N   0  0  0  0  0  0  0  0  0  0  0  0
    7.7616  -21.4701   27.5752 C   0  0  0  0  0  0  0  0  0  0  0  0
    7.9674  -21.5004   26.2338 N   0  0  0  0  0  0  0  0  0  0  0  0
    9.0377  -17.6413   25.0040 C   0  0  0  0  0  0  0  0  0  0  0  0
   10.1741  -17.6113   24.5132 O   0  0  0  0  0  0  0  0  0  0  0  0
    8.8312  -17.0644   26.2775 N   0  0  0  0  0  0  0  0  0  0  0  0
    9.8740  -16.4847   27.1102 C   0  0  1  0  0  0  0  0  0  0  0  0
    9.5172  -15.1361   27.5943 C   0  0  0  0  0  0  0  0  0  0  0  0
    8.1738  -14.7120   27.1873 C   0  0  0  0  0  0  0  0  0  0  0  0
    7.1112  -15.5438   26.8946 C   0  0  0  0  0  0  0  0  0  0  0  0
    6.0420  -14.8454   26.5224 N   0  0  0  0  0  0  0  0  0  0  0  0
    6.3659  -13.5443   26.5596 C   0  0  0  0  0  0  0  0  0  0  0  0
    5.6056  -12.4187   26.2841 C   0  0  0  0  0  0  0  0  0  0  0  0
    6.1700  -11.1602   26.4216 C   0  0  0  0  0  0  0  0  0  0  0  0
    7.4780  -11.0568   26.8302 C   0  0  0  0  0  0  0  0  0  0  0  0
    8.2434  -12.1659   27.1058 C   0  0  0  0  0  0  0  0  0  0  0  0
    7.6772  -13.4238   26.9670 C   0  0  0  0  0  0  0  0  0  0  0  0
   10.4013  -17.3749   28.1165 C   0  0  0  0  0  0  0  0  0  0  0  0
   11.5551  -16.9541   28.8127 O   0  0  0  0  0  0  0  0  0  0  0  0
    9.9140  -18.4832   28.4139 O   0  0  0  0  0  0  0  0  0  0  0  0
  2  1  1  0
  3  2  2  0
  4  3  1  0
  5  4  2  0
  5 11  1  0
  6  5  1  0
  7  9  1  0
  7  6  1  0
  7  8  1  6
  9 10  2  0
 11 12  2  0
 12  2  1  0
 13 14  1  0
 13  9  1  0
 14 15  1  6
 15 16  1  0
 16 17  2  0
 18 17  1  0
 19 18  1  0
 20 19  2  0
 20 16  1  0
 21 23  1  0
 21 14  1  0
 22 21  2  0
 24 23  1  0
 24 35  1  0
 24 25  1  1
 26 25  1  0
 27 26  2  0
 28 27  1  0
 29 28  1  0
 29 34  2  0
 30 29  1  0
 31 30  2  0
 31 32  1  0
 32 33  2  0
 33 34  1  0
 34 26  1  0
 35 36  1  0
 37 35  2  0
M  END
$$$$
