YHW.pdb
     RDKit          3D

 37 40  0  0  1  0  0  0  0  0999 V2000
    7.6870  -11.4854   17.1851 O   0  0  0  0  0  0  0  0  0  0  0  0
    7.8166  -12.3368   18.2633 C   0  0  0  0  0  0  0  0  0  0  0  0
    9.0362  -12.7095   18.7830 C   0  0  0  0  0  0  0  0  0  0  0  0
    9.1103  -13.5523   19.8480 C   0  0  0  0  0  0  0  0  0  0  0  0
    7.9872  -14.0938   20.4842 C   0  0  0  0  0  0  0  0  0  0  0  0
    8.1417  -15.0032   21.6383 C   0  0  0  0  0  0  0  0  0  0  0  0
    8.6071  -16.3505   21.1797 C   0  0  2  0  0  0  0  0  0  0  0  0
    7.5723  -16.9825   20.3796 N   0  0  0  0  0  0  0  0  0  0  0  0
    8.9634  -17.1898   22.3485 C   0  0  0  0  0  0  0  0  0  0  0  0
    8.0824  -17.8173   22.9994 O   0  0  0  0  0  0  0  0  0  0  0  0
    6.7738  -13.7194   19.9629 C   0  0  0  0  0  0  0  0  0  0  0  0
    6.6878  -12.8660   18.8840 C   0  0  0  0  0  0  0  0  0  0  0  0
   10.3194  -17.3269   22.7912 N   0  0  0  0  0  0  0  0  0  0  0  0
   10.6164  -18.1277   23.9909 C   0  0  1  0  0  0  0  0  0  0  0  0
   11.8937  -18.8757   23.6608 C   0  0  0  0  0  0  0  0  0  0  0  0
   12.2226  -19.8468   24.7464 C   0  0  0  0  0  0  0  0  0  0  0  0
   11.3918  -20.1559   25.7952 C   0  0  0  0  0  0  0  0  0  0  0  0
   11.9867  -21.0674   26.5944 N   0  0  0  0  0  0  0  0  0  0  0  0
   13.1880  -21.3358   26.0569 C   0  0  0  0  0  0  0  0  0  0  0  0
   13.3246  -20.5887   24.9319 N   0  0  0  0  0  0  0  0  0  0  0  0
   10.7775  -17.2267   25.1646 C   0  0  0  0  0  0  0  0  0  0  0  0
   11.4722  -16.2046   25.0875 O   0  0  0  0  0  0  0  0  0  0  0  0
   10.1383  -17.5239   26.3896 N   0  0  0  0  0  0  0  0  0  0  0  0
   10.2298  -16.7161   27.5963 C   0  0  1  0  0  0  0  0  0  0  0  0
    8.9018  -16.4039   28.1613 C   0  0  0  0  0  0  0  0  0  0  0  0
    7.9777  -15.8242   27.1814 C   0  0  0  0  0  0  0  0  0  0  0  0
    7.1228  -16.5257   26.3544 C   0  0  0  0  0  0  0  0  0  0  0  0
    6.4449  -15.7054   25.5563 N   0  0  0  0  0  0  0  0  0  0  0  0
    6.8294  -14.4503   25.8323 C   0  0  0  0  0  0  0  0  0  0  0  0
    6.4117  -13.2422   25.2969 C   0  0  0  0  0  0  0  0  0  0  0  0
    6.9514  -12.0580   25.7745 C   0  0  0  0  0  0  0  0  0  0  0  0
    7.8935  -12.1096   26.7736 C   0  0  0  0  0  0  0  0  0  0  0  0
    8.3170  -13.3020   27.3127 C   0  0  0  0  0  0  0  0  0  0  0  0
    7.7766  -14.4853   26.8331 C   0  0  0  0  0  0  0  0  0  0  0  0
   11.2075  -17.1765   28.5528 C   0  0  0  0  0  0  0  0  0  0  0  0
   11.8677  -18.3919   28.2696 O   0  0  0  0  0  0  0  0  0  0  0  0
   11.5096  -16.5818   29.6061 O   0  0  0  0  0  0  0  0  0  0  0  0
  2  1  1  0
  3  2  2  0
  4  3  1  0
  5  4  2  0
  5 11  1  0
  6  5  1  0
  7  9  1  0
  7  6  1  0
  7  8  1  1
  9 10  2  0
 11 12  2  0
 12  2  1  0
 13 14  1  0
 13  9  1  0
 14 15  1  6
 15 16  1  0
 16 17  2  0
 18 17  1  0
 19 18  1  0
 20 19  2  0
 20 16  1  0
 21 23  1  0
 21 14  1  0
 22 21  2  0
 24 23  1  0
 24 35  1  0
 24 25  1  1
 26 25  1  0
 27 26  2  0
 28 27  1  0
 29 28  1  0
 29 34  2  0
 30 29  1  0
 31 30  2  0
 31 32  1  0
 32 33  2  0
 33 34  1  0
 34 26  1  0
 35 36  1  0
 37 35  2  0
M  END
$$$$
