YHW.pdb
     RDKit          3D

 37 40  0  0  1  0  0  0  0  0999 V2000
    7.5530  -11.9931   15.8072 O   0  0  0  0  0  0  0  0  0  0  0  0
    7.6184  -12.7612   16.9517 C   0  0  0  0  0  0  0  0  0  0  0  0
    6.5036  -13.2798   17.5722 C   0  0  0  0  0  0  0  0  0  0  0  0
    6.6215  -14.0316   18.6996 C   0  0  0  0  0  0  0  0  0  0  0  0
    7.8482  -14.3310   19.3037 C   0  0  0  0  0  0  0  0  0  0  0  0
    7.9024  -15.1556   20.5283 C   0  0  0  0  0  0  0  0  0  0  0  0
    9.2891  -15.1570   21.0931 C   0  0  2  0  0  0  0  0  0  0  0  0
   10.2416  -15.5193   20.0579 N   0  0  0  0  0  0  0  0  0  0  0  0
    9.3692  -16.0915   22.2410 C   0  0  0  0  0  0  0  0  0  0  0  0
    8.5153  -16.0649   23.1704 O   0  0  0  0  0  0  0  0  0  0  0  0
    8.9564  -13.8121   18.6816 C   0  0  0  0  0  0  0  0  0  0  0  0
    8.8478  -13.0491   17.5390 C   0  0  0  0  0  0  0  0  0  0  0  0
   10.4157  -17.0647   22.3476 N   0  0  0  0  0  0  0  0  0  0  0  0
   10.4861  -17.9312   23.5362 C   0  0  1  0  0  0  0  0  0  0  0  0
   11.5528  -18.9597   23.2131 C   0  0  0  0  0  0  0  0  0  0  0  0
   11.0659  -19.9001   22.1602 C   0  0  0  0  0  0  0  0  0  0  0  0
    9.7764  -19.9462   21.6906 C   0  0  0  0  0  0  0  0  0  0  0  0
    9.6700  -20.9033   20.7441 N   0  0  0  0  0  0  0  0  0  0  0  0
   10.8843  -21.4622   20.6131 C   0  0  0  0  0  0  0  0  0  0  0  0
   11.7292  -20.8462   21.4787 N   0  0  0  0  0  0  0  0  0  0  0  0
   10.8344  -17.1131   24.7299 C   0  0  0  0  0  0  0  0  0  0  0  0
   11.5809  -16.1305   24.6280 O   0  0  0  0  0  0  0  0  0  0  0  0
   10.3172  -17.4455   26.0025 N   0  0  0  0  0  0  0  0  0  0  0  0
   10.5526  -16.6888   27.2227 C   0  0  1  0  0  0  0  0  0  0  0  0
   10.1751  -15.2685   27.0808 C   0  0  0  0  0  0  0  0  0  0  0  0
    8.7312  -15.0664   26.9241 C   0  0  0  0  0  0  0  0  0  0  0  0
    7.7951  -16.0480   26.6653 C   0  0  0  0  0  0  0  0  0  0  0  0
    6.5760  -15.5299   26.5437 N   0  0  0  0  0  0  0  0  0  0  0  0
    6.6722  -14.2035   26.7184 C   0  0  0  0  0  0  0  0  0  0  0  0
    5.6951  -13.2207   26.7094 C   0  0  0  0  0  0  0  0  0  0  0  0
    6.0485  -11.9010   26.9436 C   0  0  0  0  0  0  0  0  0  0  0  0
    7.3672  -11.5957   27.1807 C   0  0  0  0  0  0  0  0  0  0  0  0
    8.3465  -12.5615   27.1914 C   0  0  0  0  0  0  0  0  0  0  0  0
    7.9911  -13.8808   26.9561 C   0  0  0  0  0  0  0  0  0  0  0  0
   10.0782  -17.3294   28.4258 C   0  0  0  0  0  0  0  0  0  0  0  0
    9.3601  -18.5358   28.2768 O   0  0  0  0  0  0  0  0  0  0  0  0
   10.2555  -16.8966   29.5815 O   0  0  0  0  0  0  0  0  0  0  0  0
  2  1  1  0
  3  2  2  0
  4  3  1  0
  5  4  2  0
  5 11  1  0
  6  5  1  0
  7  9  1  0
  7  6  1  0
  7  8  1  6
  9 10  2  0
 11 12  2  0
 12  2  1  0
 13 14  1  0
 13  9  1  0
 14 15  1  6
 15 16  1  0
 16 17  2  0
 18 17  1  0
 19 18  1  0
 20 19  2  0
 20 16  1  0
 21 23  1  0
 21 14  1  0
 22 21  2  0
 24 23  1  0
 24 35  1  0
 24 25  1  6
 26 25  1  0
 27 26  2  0
 28 27  1  0
 29 28  1  0
 29 34  2  0
 30 29  1  0
 31 30  2  0
 31 32  1  0
 32 33  2  0
 33 34  1  0
 34 26  1  0
 35 36  1  0
 37 35  2  0
M  END
$$$$
