YHW.pdb
     RDKit          3D

 37 40  0  0  1  0  0  0  0  0999 V2000
   10.0234  -19.7773   28.2972 O   0  0  0  0  0  0  0  0  0  0  0  0
    8.9932  -19.5852   27.3994 C   0  0  0  0  0  0  0  0  0  0  0  0
    8.3841  -20.6190   26.7236 C   0  0  0  0  0  0  0  0  0  0  0  0
    7.3718  -20.3769   25.8480 C   0  0  0  0  0  0  0  0  0  0  0  0
    6.8806  -19.0958   25.5701 C   0  0  0  0  0  0  0  0  0  0  0  0
    5.7763  -18.9060   24.6071 C   0  0  0  0  0  0  0  0  0  0  0  0
    6.1360  -19.4996   23.2804 C   0  0  2  0  0  0  0  0  0  0  0  0
    6.7362  -20.8083   23.4732 N   0  0  0  0  0  0  0  0  0  0  0  0
    7.0559  -18.5942   22.5514 C   0  0  0  0  0  0  0  0  0  0  0  0
    8.1805  -18.9932   22.1395 O   0  0  0  0  0  0  0  0  0  0  0  0
    7.4907  -18.0686   26.2461 C   0  0  0  0  0  0  0  0  0  0  0  0
    8.5172  -18.3034   27.1353 C   0  0  0  0  0  0  0  0  0  0  0  0
    6.7118  -17.2294   22.2817 N   0  0  0  0  0  0  0  0  0  0  0  0
    7.6181  -16.3958   21.4741 C   0  0  1  0  0  0  0  0  0  0  0  0
    6.7567  -15.2581   20.9608 C   0  0  0  0  0  0  0  0  0  0  0  0
    7.5257  -14.4193   19.9939 C   0  0  0  0  0  0  0  0  0  0  0  0
    8.0413  -13.1780   20.2753 C   0  0  0  0  0  0  0  0  0  0  0  0
    8.6803  -12.6931   19.1891 N   0  0  0  0  0  0  0  0  0  0  0  0
    8.5715  -13.6203   18.2234 C   0  0  0  0  0  0  0  0  0  0  0  0
    7.8670  -14.6685   18.7208 N   0  0  0  0  0  0  0  0  0  0  0  0
    8.7418  -15.9140   22.3230 C   0  0  0  0  0  0  0  0  0  0  0  0
    9.5845  -15.1273   21.8710 O   0  0  0  0  0  0  0  0  0  0  0  0
    8.8657  -16.3479   23.6623 N   0  0  0  0  0  0  0  0  0  0  0  0
    9.8926  -15.9033   24.5921 C   0  0  1  0  0  0  0  0  0  0  0  0
    9.3944  -15.8270   25.9800 C   0  0  0  0  0  0  0  0  0  0  0  0
    8.0481  -15.2546   26.0808 C   0  0  0  0  0  0  0  0  0  0  0  0
    6.8590  -15.9359   25.9119 C   0  0  0  0  0  0  0  0  0  0  0  0
    5.8156  -15.1197   26.0325 N   0  0  0  0  0  0  0  0  0  0  0  0
    6.2827  -13.8876   26.2832 C   0  0  0  0  0  0  0  0  0  0  0  0
    5.6090  -12.6974   26.5074 C   0  0  0  0  0  0  0  0  0  0  0  0
    6.3281  -11.5426   26.7735 C   0  0  0  0  0  0  0  0  0  0  0  0
    7.7004  -11.6048   26.8088 C   0  0  0  0  0  0  0  0  0  0  0  0
    8.3810  -12.7794   26.5871 C   0  0  0  0  0  0  0  0  0  0  0  0
    7.6599  -13.9331   26.3205 C   0  0  0  0  0  0  0  0  0  0  0  0
   11.1675  -16.5616   24.4364 C   0  0  0  0  0  0  0  0  0  0  0  0
   12.2407  -16.0883   25.2222 O   0  0  0  0  0  0  0  0  0  0  0  0
   11.3886  -17.5132   23.6619 O   0  0  0  0  0  0  0  0  0  0  0  0
  2  1  1  0
  3  2  2  0
  4  3  1  0
  5  4  2  0
  5 11  1  0
  6  5  1  0
  7  9  1  0
  7  6  1  0
  7  8  1  1
  9 10  2  0
 11 12  2  0
 12  2  1  0
 13 14  1  0
 13  9  1  0
 14 15  1  1
 15 16  1  0
 16 17  2  0
 18 17  1  0
 19 18  1  0
 20 19  2  0
 20 16  1  0
 21 23  1  0
 21 14  1  0
 22 21  2  0
 24 23  1  0
 24 35  1  0
 24 25  1  1
 26 25  1  0
 27 26  2  0
 28 27  1  0
 29 28  1  0
 29 34  2  0
 30 29  1  0
 31 30  2  0
 31 32  1  0
 32 33  2  0
 33 34  1  0
 34 26  1  0
 35 36  1  0
 37 35  2  0
M  END
$$$$
