YHW.pdb
     RDKit          3D

 37 40  0  0  1  0  0  0  0  0999 V2000
    8.2204  -12.3166   15.8495 O   0  0  0  0  0  0  0  0  0  0  0  0
    8.1388  -12.9041   17.0954 C   0  0  0  0  0  0  0  0  0  0  0  0
    7.4921  -12.3180   18.1607 C   0  0  0  0  0  0  0  0  0  0  0  0
    7.4398  -12.9389   19.3698 C   0  0  0  0  0  0  0  0  0  0  0  0
    8.0213  -14.1867   19.6233 C   0  0  0  0  0  0  0  0  0  0  0  0
    7.9246  -14.8037   20.9622 C   0  0  0  0  0  0  0  0  0  0  0  0
    7.3191  -16.1695   20.8625 C   0  0  2  0  0  0  0  0  0  0  0  0
    5.8845  -16.0584   20.6628 N   0  0  0  0  0  0  0  0  0  0  0  0
    7.6276  -16.9523   22.0830 C   0  0  0  0  0  0  0  0  0  0  0  0
    7.0174  -16.7442   23.1683 O   0  0  0  0  0  0  0  0  0  0  0  0
    8.6645  -14.7671   18.5585 C   0  0  0  0  0  0  0  0  0  0  0  0
    8.7232  -14.1463   17.3294 C   0  0  0  0  0  0  0  0  0  0  0  0
    8.6289  -17.9774   22.0866 N   0  0  0  0  0  0  0  0  0  0  0  0
    8.9429  -18.6845   23.3397 C   0  0  1  0  0  0  0  0  0  0  0  0
    9.6393  -19.9611   22.9095 C   0  0  0  0  0  0  0  0  0  0  0  0
    9.9608  -20.8040   24.0995 C   0  0  0  0  0  0  0  0  0  0  0  0
    9.5984  -20.5038   25.3895 C   0  0  0  0  0  0  0  0  0  0  0  0
   10.0404  -21.4694   26.2235 N   0  0  0  0  0  0  0  0  0  0  0  0
   10.6798  -22.3776   25.4682 C   0  0  0  0  0  0  0  0  0  0  0  0
   10.6273  -21.9655   24.1759 N   0  0  0  0  0  0  0  0  0  0  0  0
    9.8117  -17.8273   24.1917 C   0  0  0  0  0  0  0  0  0  0  0  0
   10.8275  -17.2944   23.7256 O   0  0  0  0  0  0  0  0  0  0  0  0
    9.4903  -17.6073   25.5503 N   0  0  0  0  0  0  0  0  0  0  0  0
   10.3631  -16.9644   26.5208 C   0  0  1  0  0  0  0  0  0  0  0  0
   10.1230  -15.5103   26.6109 C   0  0  0  0  0  0  0  0  0  0  0  0
    8.7000  -15.1567   26.5937 C   0  0  0  0  0  0  0  0  0  0  0  0
    7.6432  -16.0385   26.4823 C   0  0  0  0  0  0  0  0  0  0  0  0
    6.4796  -15.3945   26.4610 N   0  0  0  0  0  0  0  0  0  0  0  0
    6.7334  -14.0809   26.5578 C   0  0  0  0  0  0  0  0  0  0  0  0
    5.8700  -12.9976   26.6000 C   0  0  0  0  0  0  0  0  0  0  0  0
    6.3838  -11.7167   26.7299 C   0  0  0  0  0  0  0  0  0  0  0  0
    7.7451  -11.5495   26.8143 C   0  0  0  0  0  0  0  0  0  0  0  0
    8.6126  -12.6162   26.7727 C   0  0  0  0  0  0  0  0  0  0  0  0
    8.0968  -13.8964   26.6420 C   0  0  0  0  0  0  0  0  0  0  0  0
   10.4554  -17.6477   27.7887 C   0  0  0  0  0  0  0  0  0  0  0  0
   11.4805  -17.2410   28.6701 O   0  0  0  0  0  0  0  0  0  0  0  0
    9.6992  -18.5668   28.1600 O   0  0  0  0  0  0  0  0  0  0  0  0
  2  1  1  0
  3  2  2  0
  4  3  1  0
  5  4  2  0
  5 11  1  0
  6  5  1  0
  7  9  1  0
  7  6  1  0
  7  8  1  1
  9 10  2  0
 11 12  2  0
 12  2  1  0
 13 14  1  0
 13  9  1  0
 14 15  1  6
 15 16  1  0
 16 17  2  0
 18 17  1  0
 19 18  1  0
 20 19  2  0
 20 16  1  0
 21 23  1  0
 21 14  1  0
 22 21  2  0
 24 23  1  0
 24 35  1  0
 24 25  1  1
 26 25  1  0
 27 26  2  0
 28 27  1  0
 29 28  1  0
 29 34  2  0
 30 29  1  0
 31 30  2  0
 31 32  1  0
 32 33  2  0
 33 34  1  0
 34 26  1  0
 35 36  1  0
 37 35  2  0
M  END
$$$$
