YHW.pdb
     RDKit          3D

 37 40  0  0  1  0  0  0  0  0999 V2000
    7.9753  -12.2842   17.1002 O   0  0  0  0  0  0  0  0  0  0  0  0
    8.0619  -12.9358   18.3135 C   0  0  0  0  0  0  0  0  0  0  0  0
    7.2292  -12.6594   19.3750 C   0  0  0  0  0  0  0  0  0  0  0  0
    7.3555  -13.3305   20.5513 C   0  0  0  0  0  0  0  0  0  0  0  0
    8.3131  -14.3272   20.7731 C   0  0  0  0  0  0  0  0  0  0  0  0
    8.3930  -15.0168   22.0772 C   0  0  0  0  0  0  0  0  0  0  0  0
    8.0695  -16.4700   21.9173 C   0  0  2  0  0  0  0  0  0  0  0  0
    6.6316  -16.6448   21.8071 N   0  0  0  0  0  0  0  0  0  0  0  0
    8.6133  -17.2404   23.0611 C   0  0  0  0  0  0  0  0  0  0  0  0
    7.8710  -17.6222   24.0080 O   0  0  0  0  0  0  0  0  0  0  0  0
    9.1406  -14.5993   19.7122 C   0  0  0  0  0  0  0  0  0  0  0  0
    9.0210  -13.9250   18.5162 C   0  0  0  0  0  0  0  0  0  0  0  0
   10.0016  -17.5858   23.1438 N   0  0  0  0  0  0  0  0  0  0  0  0
   10.5637  -18.0413   24.4264 C   0  0  1  0  0  0  0  0  0  0  0  0
   11.6055  -19.0790   24.0554 C   0  0  0  0  0  0  0  0  0  0  0  0
   11.9081  -19.0124   22.5947 C   0  0  0  0  0  0  0  0  0  0  0  0
   11.2891  -18.1670   21.7071 C   0  0  0  0  0  0  0  0  0  0  0  0
   11.7943  -18.3565   20.4692 N   0  0  0  0  0  0  0  0  0  0  0  0
   12.7284  -19.3165   20.5695 C   0  0  0  0  0  0  0  0  0  0  0  0
   12.7920  -19.7111   21.8667 N   0  0  0  0  0  0  0  0  0  0  0  0
   11.1541  -16.8832   25.1516 C   0  0  0  0  0  0  0  0  0  0  0  0
   11.2896  -15.7876   24.5908 O   0  0  0  0  0  0  0  0  0  0  0  0
   11.5706  -17.0157   26.4955 N   0  0  0  0  0  0  0  0  0  0  0  0
   10.7189  -16.8112   27.6574 C   0  0  1  0  0  0  0  0  0  0  0  0
    9.3645  -16.3570   27.2840 C   0  0  0  0  0  0  0  0  0  0  0  0
    9.2657  -14.9028   27.1231 C   0  0  0  0  0  0  0  0  0  0  0  0
   10.2535  -13.9826   27.4133 C   0  0  0  0  0  0  0  0  0  0  0  0
    9.8337  -12.7401   27.1910 N   0  0  0  0  0  0  0  0  0  0  0  0
    8.5684  -12.8049   26.7507 C   0  0  0  0  0  0  0  0  0  0  0  0
    7.6970  -11.7992   26.3633 C   0  0  0  0  0  0  0  0  0  0  0  0
    6.4272  -12.1279   25.9149 C   0  0  0  0  0  0  0  0  0  0  0  0
    6.0594  -13.4509   25.8645 C   0  0  0  0  0  0  0  0  0  0  0  0
    6.9144  -14.4583   26.2469 C   0  0  0  0  0  0  0  0  0  0  0  0
    8.1837  -14.1274   26.6958 C   0  0  0  0  0  0  0  0  0  0  0  0
   10.7590  -17.8809   28.6254 C   0  0  0  0  0  0  0  0  0  0  0  0
   10.4804  -17.5488   29.9690 O   0  0  0  0  0  0  0  0  0  0  0  0
   11.0208  -19.0711   28.3623 O   0  0  0  0  0  0  0  0  0  0  0  0
  2  1  1  0
  3  2  2  0
  4  3  1  0
  5  4  2  0
  5 11  1  0
  6  5  1  0
  7  9  1  0
  7  6  1  0
  7  8  1  1
  9 10  2  0
 11 12  2  0
 12  2  1  0
 13 14  1  0
 13  9  1  0
 14 15  1  6
 15 16  1  0
 16 17  2  0
 18 17  1  0
 19 18  1  0
 20 19  2  0
 20 16  1  0
 21 23  1  0
 21 14  1  0
 22 21  2  0
 24 23  1  0
 24 35  1  0
 24 25  1  6
 26 25  1  0
 27 26  2  0
 28 27  1  0
 29 28  1  0
 29 34  2  0
 30 29  1  0
 31 30  2  0
 31 32  1  0
 32 33  2  0
 33 34  1  0
 34 26  1  0
 35 36  1  0
 37 35  2  0
M  END
$$$$
