YHW.pdb
     RDKit          3D

 37 40  0  0  1  0  0  0  0  0999 V2000
    7.8386  -22.5562   29.0035 O   0  0  0  0  0  0  0  0  0  0  0  0
    7.7541  -21.6835   27.9380 C   0  0  0  0  0  0  0  0  0  0  0  0
    6.6018  -21.5020   27.2060 C   0  0  0  0  0  0  0  0  0  0  0  0
    6.5701  -20.6288   26.1636 C   0  0  0  0  0  0  0  0  0  0  0  0
    7.6726  -19.8659   25.7612 C   0  0  0  0  0  0  0  0  0  0  0  0
    7.5666  -18.9348   24.6191 C   0  0  0  0  0  0  0  0  0  0  0  0
    7.3335  -19.6938   23.3496 C   0  0  2  0  0  0  0  0  0  0  0  0
    8.0785  -20.9406   23.3779 N   0  0  0  0  0  0  0  0  0  0  0  0
    7.7248  -18.8662   22.1837 C   0  0  0  0  0  0  0  0  0  0  0  0
    8.6753  -19.2067   21.4260 O   0  0  0  0  0  0  0  0  0  0  0  0
    8.8188  -20.0500   26.4938 C   0  0  0  0  0  0  0  0  0  0  0  0
    8.8613  -20.9323   27.5518 C   0  0  0  0  0  0  0  0  0  0  0  0
    7.0443  -17.6461   21.8644 N   0  0  0  0  0  0  0  0  0  0  0  0
    7.6958  -16.6560   20.9905 C   0  0  1  0  0  0  0  0  0  0  0  0
    6.6006  -15.6749   20.6192 C   0  0  0  0  0  0  0  0  0  0  0  0
    7.1257  -14.6415   19.6778 C   0  0  0  0  0  0  0  0  0  0  0  0
    7.1328  -14.7633   18.3100 C   0  0  0  0  0  0  0  0  0  0  0  0
    7.6718  -13.6557   17.7568 N   0  0  0  0  0  0  0  0  0  0  0  0
    8.0052  -12.8353   18.7666 C   0  0  0  0  0  0  0  0  0  0  0  0
    7.6698  -13.4424   19.9334 N   0  0  0  0  0  0  0  0  0  0  0  0
    8.8139  -16.0023   21.7242 C   0  0  0  0  0  0  0  0  0  0  0  0
    9.6211  -15.2751   21.1304 O   0  0  0  0  0  0  0  0  0  0  0  0
    8.9726  -16.2018   23.1143 N   0  0  0  0  0  0  0  0  0  0  0  0
    9.9046  -15.4727   23.9610 C   0  0  1  0  0  0  0  0  0  0  0  0
    9.5458  -14.0460   24.0873 C   0  0  0  0  0  0  0  0  0  0  0  0
    8.3540  -13.8198   24.9112 C   0  0  0  0  0  0  0  0  0  0  0  0
    7.3844  -14.7551   25.2145 C   0  0  0  0  0  0  0  0  0  0  0  0
    6.4154  -14.2212   25.9530 N   0  0  0  0  0  0  0  0  0  0  0  0
    6.7161  -12.9300   26.1568 C   0  0  0  0  0  0  0  0  0  0  0  0
    6.0450  -11.9512   26.8727 C   0  0  0  0  0  0  0  0  0  0  0  0
    6.5806  -10.6755   26.9569 C   0  0  0  0  0  0  0  0  0  0  0  0
    7.7714  -10.4090   26.3250 C   0  0  0  0  0  0  0  0  0  0  0  0
    8.4467  -11.3712   25.6107 C   0  0  0  0  0  0  0  0  0  0  0  0
    7.9090  -12.6463   25.5270 C   0  0  0  0  0  0  0  0  0  0  0  0
   10.2284  -16.1331   25.2027 C   0  0  0  0  0  0  0  0  0  0  0  0
   11.3225  -15.6281   25.9383 O   0  0  0  0  0  0  0  0  0  0  0  0
    9.6150  -17.1125   25.6705 O   0  0  0  0  0  0  0  0  0  0  0  0
  2  1  1  0
  3  2  2  0
  4  3  1  0
  5  4  2  0
  5 11  1  0
  6  5  1  0
  7  9  1  0
  7  6  1  0
  7  8  1  1
  9 10  2  0
 11 12  2  0
 12  2  1  0
 13 14  1  0
 13  9  1  0
 14 15  1  1
 15 16  1  0
 16 17  2  0
 18 17  1  0
 19 18  1  0
 20 19  2  0
 20 16  1  0
 21 23  1  0
 21 14  1  0
 22 21  2  0
 24 23  1  0
 24 35  1  0
 24 25  1  1
 26 25  1  0
 27 26  2  0
 28 27  1  0
 29 28  1  0
 29 34  2  0
 30 29  1  0
 31 30  2  0
 31 32  1  0
 32 33  2  0
 33 34  1  0
 34 26  1  0
 35 36  1  0
 37 35  2  0
M  END
$$$$
