YHW.pdb
     RDKit          3D

 37 40  0  0  1  0  0  0  0  0999 V2000
    7.5147  -11.5315   17.1213 O   0  0  0  0  0  0  0  0  0  0  0  0
    7.6748  -12.3698   18.2057 C   0  0  0  0  0  0  0  0  0  0  0  0
    8.8684  -12.5065   18.8789 C   0  0  0  0  0  0  0  0  0  0  0  0
    8.9747  -13.3470   19.9430 C   0  0  0  0  0  0  0  0  0  0  0  0
    7.9118  -14.1190   20.4267 C   0  0  0  0  0  0  0  0  0  0  0  0
    8.0982  -15.0112   21.5895 C   0  0  0  0  0  0  0  0  0  0  0  0
    8.7485  -16.2910   21.1635 C   0  0  2  0  0  0  0  0  0  0  0  0
    7.8549  -17.0292   20.2878 N   0  0  0  0  0  0  0  0  0  0  0  0
    9.1129  -17.0962   22.3536 C   0  0  0  0  0  0  0  0  0  0  0  0
    8.2376  -17.7123   23.0228 O   0  0  0  0  0  0  0  0  0  0  0  0
    6.7242  -13.9793   19.7527 C   0  0  0  0  0  0  0  0  0  0  0  0
    6.6061  -13.1304   18.6734 C   0  0  0  0  0  0  0  0  0  0  0  0
   10.4707  -17.2118   22.7971 N   0  0  0  0  0  0  0  0  0  0  0  0
   10.7771  -17.9891   24.0098 C   0  0  1  0  0  0  0  0  0  0  0  0
   12.1933  -18.4930   23.8091 C   0  0  0  0  0  0  0  0  0  0  0  0
   12.2136  -19.6018   22.8092 C   0  0  0  0  0  0  0  0  0  0  0  0
   11.0952  -20.1652   22.2456 C   0  0  0  0  0  0  0  0  0  0  0  0
   11.4604  -21.1375   21.3827 N   0  0  0  0  0  0  0  0  0  0  0  0
   12.8023  -21.1918   21.3978 C   0  0  0  0  0  0  0  0  0  0  0  0
   13.2539  -20.2538   22.2689 N   0  0  0  0  0  0  0  0  0  0  0  0
   10.6540  -17.1139   25.2075 C   0  0  0  0  0  0  0  0  0  0  0  0
   11.1139  -15.9643   25.2014 O   0  0  0  0  0  0  0  0  0  0  0  0
   10.0085  -17.5822   26.3742 N   0  0  0  0  0  0  0  0  0  0  0  0
   10.0206  -16.9069   27.6630 C   0  0  1  0  0  0  0  0  0  0  0  0
    8.6619  -16.5561   28.1226 C   0  0  0  0  0  0  0  0  0  0  0  0
    7.8894  -15.8072   27.1262 C   0  0  0  0  0  0  0  0  0  0  0  0
    7.0067  -16.3432   26.2095 C   0  0  0  0  0  0  0  0  0  0  0  0
    6.4972  -15.3988   25.4235 N   0  0  0  0  0  0  0  0  0  0  0  0
    7.0240  -14.2230   25.7967 C   0  0  0  0  0  0  0  0  0  0  0  0
    6.8054  -12.9435   25.3111 C   0  0  0  0  0  0  0  0  0  0  0  0
    7.4630  -11.8693   25.8901 C   0  0  0  0  0  0  0  0  0  0  0  0
    8.3215  -12.0991   26.9382 C   0  0  0  0  0  0  0  0  0  0  0  0
    8.5478  -13.3641   27.4287 C   0  0  0  0  0  0  0  0  0  0  0  0
    7.8897  -14.4372   26.8478 C   0  0  0  0  0  0  0  0  0  0  0  0
   10.8599  -17.5301   28.6580 C   0  0  0  0  0  0  0  0  0  0  0  0
   10.9908  -16.8707   29.8995 O   0  0  0  0  0  0  0  0  0  0  0  0
   11.4747  -18.6033   28.5014 O   0  0  0  0  0  0  0  0  0  0  0  0
  2  1  1  0
  3  2  2  0
  4  3  1  0
  5  4  2  0
  5 11  1  0
  6  5  1  0
  7  9  1  0
  7  6  1  0
  7  8  1  6
  9 10  2  0
 11 12  2  0
 12  2  1  0
 13 14  1  0
 13  9  1  0
 14 15  1  6
 15 16  1  0
 16 17  2  0
 18 17  1  0
 19 18  1  0
 20 19  2  0
 20 16  1  0
 21 23  1  0
 21 14  1  0
 22 21  2  0
 24 23  1  0
 24 35  1  0
 24 25  1  1
 26 25  1  0
 27 26  2  0
 28 27  1  0
 29 28  1  0
 29 34  2  0
 30 29  1  0
 31 30  2  0
 31 32  1  0
 32 33  2  0
 33 34  1  0
 34 26  1  0
 35 36  1  0
 37 35  2  0
M  END
$$$$
