YHW.pdb
     RDKit          3D

 37 40  0  0  1  0  0  0  0  0999 V2000
    7.3979  -12.3662   16.1395 O   0  0  0  0  0  0  0  0  0  0  0  0
    7.4863  -12.9883   17.3680 C   0  0  0  0  0  0  0  0  0  0  0  0
    6.7738  -14.1225   17.6880 C   0  0  0  0  0  0  0  0  0  0  0  0
    6.8962  -14.6981   18.9143 C   0  0  0  0  0  0  0  0  0  0  0  0
    7.7311  -14.2002   19.9215 C   0  0  0  0  0  0  0  0  0  0  0  0
    7.8160  -14.8778   21.2316 C   0  0  0  0  0  0  0  0  0  0  0  0
    9.2469  -15.0322   21.6451 C   0  0  2  0  0  0  0  0  0  0  0  0
   10.0408  -15.4778   20.5131 N   0  0  0  0  0  0  0  0  0  0  0  0
    9.3490  -15.9858   22.7754 C   0  0  0  0  0  0  0  0  0  0  0  0
    8.5043  -15.9852   23.7135 O   0  0  0  0  0  0  0  0  0  0  0  0
    8.4394  -13.0697   19.5979 C   0  0  0  0  0  0  0  0  0  0  0  0
    8.3225  -12.4788   18.3584 C   0  0  0  0  0  0  0  0  0  0  0  0
   10.4073  -16.9487   22.8544 N   0  0  0  0  0  0  0  0  0  0  0  0
   10.4782  -17.8599   24.0091 C   0  0  1  0  0  0  0  0  0  0  0  0
   11.4142  -18.9726   23.5779 C   0  0  0  0  0  0  0  0  0  0  0  0
   10.7715  -19.8133   22.5243 C   0  0  0  0  0  0  0  0  0  0  0  0
    9.4285  -20.0924   22.4601 C   0  0  0  0  0  0  0  0  0  0  0  0
    9.1763  -20.8744   21.3885 N   0  0  0  0  0  0  0  0  0  0  0  0
   10.3517  -21.0909   20.7756 C   0  0  0  0  0  0  0  0  0  0  0  0
   11.3184  -20.4417   21.4731 N   0  0  0  0  0  0  0  0  0  0  0  0
   10.9888  -17.1216   25.1964 C   0  0  0  0  0  0  0  0  0  0  0  0
   12.1311  -16.6437   25.2016 O   0  0  0  0  0  0  0  0  0  0  0  0
   10.1759  -16.9536   26.3402 N   0  0  0  0  0  0  0  0  0  0  0  0
   10.6399  -16.4639   27.6294 C   0  0  1  0  0  0  0  0  0  0  0  0
    9.9443  -15.2281   28.0407 C   0  0  0  0  0  0  0  0  0  0  0  0
    8.6218  -15.0763   27.4256 C   0  0  0  0  0  0  0  0  0  0  0  0
    7.7378  -16.0962   27.1339 C   0  0  0  0  0  0  0  0  0  0  0  0
    6.6405  -15.6280   26.5457 N   0  0  0  0  0  0  0  0  0  0  0  0
    6.7680  -14.2973   26.4344 C   0  0  0  0  0  0  0  0  0  0  0  0
    5.8997  -13.3497   25.9159 C   0  0  0  0  0  0  0  0  0  0  0  0
    6.2556  -12.0101   25.9370 C   0  0  0  0  0  0  0  0  0  0  0  0
    7.4680  -11.6505   26.4745 C   0  0  0  0  0  0  0  0  0  0  0  0
    8.3390  -12.5813   26.9914 C   0  0  0  0  0  0  0  0  0  0  0  0
    7.9815  -13.9206   26.9687 C   0  0  0  0  0  0  0  0  0  0  0  0
   10.7429  -17.4761   28.6530 C   0  0  0  0  0  0  0  0  0  0  0  0
   11.4734  -17.1487   29.8159 O   0  0  0  0  0  0  0  0  0  0  0  0
   10.2362  -18.6131   28.5849 O   0  0  0  0  0  0  0  0  0  0  0  0
  2  1  1  0
  3  2  2  0
  4  3  1  0
  5  4  2  0
  5 11  1  0
  6  5  1  0
  7  9  1  0
  7  6  1  0
  7  8  1  6
  9 10  2  0
 11 12  2  0
 12  2  1  0
 13 14  1  0
 13  9  1  0
 14 15  1  6
 15 16  1  0
 16 17  2  0
 18 17  1  0
 19 18  1  0
 20 19  2  0
 20 16  1  0
 21 23  1  0
 21 14  1  0
 22 21  2  0
 24 23  1  0
 24 35  1  0
 24 25  1  1
 26 25  1  0
 27 26  2  0
 28 27  1  0
 29 28  1  0
 29 34  2  0
 30 29  1  0
 31 30  2  0
 31 32  1  0
 32 33  2  0
 33 34  1  0
 34 26  1  0
 35 36  1  0
 37 35  2  0
M  END
$$$$
