YHW.pdb
     RDKit          3D

 37 40  0  0  1  0  0  0  0  0999 V2000
    7.6054  -11.5212   16.7364 O   0  0  0  0  0  0  0  0  0  0  0  0
    7.6295  -12.4204   17.7829 C   0  0  0  0  0  0  0  0  0  0  0  0
    6.5667  -13.2392   18.0935 C   0  0  0  0  0  0  0  0  0  0  0  0
    6.6405  -14.1095   19.1362 C   0  0  0  0  0  0  0  0  0  0  0  0
    7.7686  -14.2404   19.9547 C   0  0  0  0  0  0  0  0  0  0  0  0
    7.7799  -15.2084   21.0708 C   0  0  0  0  0  0  0  0  0  0  0  0
    8.9362  -16.1494   20.9309 C   0  0  2  0  0  0  0  0  0  0  0  0
    8.9307  -16.7419   19.6045 N   0  0  0  0  0  0  0  0  0  0  0  0
    8.8711  -17.1938   21.9808 C   0  0  0  0  0  0  0  0  0  0  0  0
    8.4028  -18.3407   21.7381 O   0  0  0  0  0  0  0  0  0  0  0  0
    8.8254  -13.4224   19.6412 C   0  0  0  0  0  0  0  0  0  0  0  0
    8.7607  -12.5372   18.5868 C   0  0  0  0  0  0  0  0  0  0  0  0
    9.3354  -16.9503   23.3145 N   0  0  0  0  0  0  0  0  0  0  0  0
   10.5869  -17.5748   23.7754 C   0  0  1  0  0  0  0  0  0  0  0  0
   11.5918  -17.3081   22.6714 C   0  0  0  0  0  0  0  0  0  0  0  0
   11.7311  -18.5086   21.7943 C   0  0  0  0  0  0  0  0  0  0  0  0
   11.2333  -19.7536   22.0906 C   0  0  0  0  0  0  0  0  0  0  0  0
   11.5285  -20.6121   21.0909 N   0  0  0  0  0  0  0  0  0  0  0  0
   12.2098  -19.9170   20.1653 C   0  0  0  0  0  0  0  0  0  0  0  0
   12.3294  -18.6369   20.6006 N   0  0  0  0  0  0  0  0  0  0  0  0
   10.9985  -16.9693   25.0714 C   0  0  0  0  0  0  0  0  0  0  0  0
   11.7910  -16.0184   25.1024 O   0  0  0  0  0  0  0  0  0  0  0  0
   10.4902  -17.4714   26.2907 N   0  0  0  0  0  0  0  0  0  0  0  0
   10.7030  -16.8654   27.5963 C   0  0  1  0  0  0  0  0  0  0  0  0
   10.4566  -15.4096   27.5832 C   0  0  0  0  0  0  0  0  0  0  0  0
    9.1022  -15.0559   27.1465 C   0  0  0  0  0  0  0  0  0  0  0  0
    8.1078  -15.9410   26.7797 C   0  0  0  0  0  0  0  0  0  0  0  0
    7.0074  -15.2976   26.3995 N   0  0  0  0  0  0  0  0  0  0  0  0
    7.2422  -13.9812   26.5046 C   0  0  0  0  0  0  0  0  0  0  0  0
    6.4181  -12.8963   26.2505 C   0  0  0  0  0  0  0  0  0  0  0  0
    6.8924  -11.6111   26.4626 C   0  0  0  0  0  0  0  0  0  0  0  0
    8.1761  -11.4414   26.9225 C   0  0  0  0  0  0  0  0  0  0  0  0
    9.0043  -12.5096   27.1777 C   0  0  0  0  0  0  0  0  0  0  0  0
    8.5283  -13.7941   26.9641 C   0  0  0  0  0  0  0  0  0  0  0  0
   10.0942  -17.5778   28.6939 C   0  0  0  0  0  0  0  0  0  0  0  0
    9.2878  -18.6918   28.3747 O   0  0  0  0  0  0  0  0  0  0  0  0
   10.2281  -17.2822   29.8976 O   0  0  0  0  0  0  0  0  0  0  0  0
  2  1  1  0
  3  2  2  0
  4  3  1  0
  5  4  2  0
  5 11  1  0
  6  5  1  0
  7  9  1  0
  7  6  1  0
  7  8  1  6
  9 10  2  0
 11 12  2  0
 12  2  1  0
 13 14  1  0
 13  9  1  0
 14 15  1  6
 15 16  1  0
 16 17  2  0
 18 17  1  0
 19 18  1  0
 20 19  2  0
 20 16  1  0
 21 23  1  0
 21 14  1  0
 22 21  2  0
 24 23  1  0
 24 35  1  0
 24 25  1  6
 26 25  1  0
 27 26  2  0
 28 27  1  0
 29 28  1  0
 29 34  2  0
 30 29  1  0
 31 30  2  0
 31 32  1  0
 32 33  2  0
 33 34  1  0
 34 26  1  0
 35 36  1  0
 37 35  2  0
M  END
$$$$
