YHW.pdb
     RDKit          3D

 37 40  0  0  1  0  0  0  0  0999 V2000
    7.3519  -12.8368   15.2204 O   0  0  0  0  0  0  0  0  0  0  0  0
    7.3736  -13.3656   16.4948 C   0  0  0  0  0  0  0  0  0  0  0  0
    6.9135  -14.6294   16.7909 C   0  0  0  0  0  0  0  0  0  0  0  0
    6.9568  -15.1047   18.0646 C   0  0  0  0  0  0  0  0  0  0  0  0
    7.4575  -14.3708   19.1464 C   0  0  0  0  0  0  0  0  0  0  0  0
    7.4752  -14.9508   20.5051 C   0  0  0  0  0  0  0  0  0  0  0  0
    8.8818  -15.0537   21.0079 C   0  0  2  0  0  0  0  0  0  0  0  0
    9.7534  -15.5142   19.9408 N   0  0  0  0  0  0  0  0  0  0  0  0
    8.9391  -15.9676   22.1737 C   0  0  0  0  0  0  0  0  0  0  0  0
    8.1430  -15.8431   23.1455 O   0  0  0  0  0  0  0  0  0  0  0  0
    7.9151  -13.1119   18.8463 C   0  0  0  0  0  0  0  0  0  0  0  0
    7.8756  -12.6209   17.5592 C   0  0  0  0  0  0  0  0  0  0  0  0
    9.8971  -17.0305   22.2504 N   0  0  0  0  0  0  0  0  0  0  0  0
    9.8929  -17.9321   23.4148 C   0  0  1  0  0  0  0  0  0  0  0  0
   10.6500  -19.1658   22.9624 C   0  0  0  0  0  0  0  0  0  0  0  0
    9.8252  -19.9590   22.0030 C   0  0  0  0  0  0  0  0  0  0  0  0
   10.0233  -19.9914   20.6446 C   0  0  0  0  0  0  0  0  0  0  0  0
    9.1104  -20.8039   20.0702 N   0  0  0  0  0  0  0  0  0  0  0  0
    8.3370  -21.2848   21.0574 C   0  0  0  0  0  0  0  0  0  0  0  0
    8.7782  -20.7658   22.2315 N   0  0  0  0  0  0  0  0  0  0  0  0
   10.5491  -17.2592   24.5690 C   0  0  0  0  0  0  0  0  0  0  0  0
   11.6428  -16.6945   24.4343 O   0  0  0  0  0  0  0  0  0  0  0  0
    9.9328  -17.2538   25.8408 N   0  0  0  0  0  0  0  0  0  0  0  0
   10.5026  -16.6625   27.0419 C   0  0  1  0  0  0  0  0  0  0  0  0
   10.2334  -15.2136   27.1329 C   0  0  0  0  0  0  0  0  0  0  0  0
    8.8279  -14.8700   26.8945 C   0  0  0  0  0  0  0  0  0  0  0  0
    7.8138  -15.7560   26.5891 C   0  0  0  0  0  0  0  0  0  0  0  0
    6.6614  -15.1202   26.3967 N   0  0  0  0  0  0  0  0  0  0  0  0
    6.8804  -13.8082   26.5691 C   0  0  0  0  0  0  0  0  0  0  0  0
    6.0088  -12.7328   26.4999 C   0  0  0  0  0  0  0  0  0  0  0  0
    6.4795  -11.4525   26.7463 C   0  0  0  0  0  0  0  0  0  0  0  0
    7.8070  -11.2778   27.0551 C   0  0  0  0  0  0  0  0  0  0  0  0
    8.6824  -12.3365   27.1260 C   0  0  0  0  0  0  0  0  0  0  0  0
    8.2099  -13.6161   26.8785 C   0  0  0  0  0  0  0  0  0  0  0  0
   10.2529  -17.4072   28.2527 C   0  0  0  0  0  0  0  0  0  0  0  0
   10.9310  -16.9922   29.4194 O   0  0  0  0  0  0  0  0  0  0  0  0
    9.4855  -18.3856   28.3425 O   0  0  0  0  0  0  0  0  0  0  0  0
  2  1  1  0
  3  2  2  0
  4  3  1  0
  5  4  2  0
  5 11  1  0
  6  5  1  0
  7  9  1  0
  7  6  1  0
  7  8  1  6
  9 10  2  0
 11 12  2  0
 12  2  1  0
 13 14  1  0
 13  9  1  0
 14 15  1  6
 15 16  1  0
 16 17  2  0
 18 17  1  0
 19 18  1  0
 20 19  2  0
 20 16  1  0
 21 23  1  0
 21 14  1  0
 22 21  2  0
 24 23  1  0
 24 35  1  0
 24 25  1  1
 26 25  1  0
 27 26  2  0
 28 27  1  0
 29 28  1  0
 29 34  2  0
 30 29  1  0
 31 30  2  0
 31 32  1  0
 32 33  2  0
 33 34  1  0
 34 26  1  0
 35 36  1  0
 37 35  2  0
M  END
$$$$
