YHW.pdb
     RDKit          3D

 37 40  0  0  1  0  0  0  0  0999 V2000
    8.4037  -21.9520   27.9512 O   0  0  0  0  0  0  0  0  0  0  0  0
    7.8451  -21.1965   26.9405 C   0  0  0  0  0  0  0  0  0  0  0  0
    7.7848  -19.8211   26.9772 C   0  0  0  0  0  0  0  0  0  0  0  0
    7.2231  -19.1219   25.9546 C   0  0  0  0  0  0  0  0  0  0  0  0
    6.6768  -19.7244   24.8153 C   0  0  0  0  0  0  0  0  0  0  0  0
    6.0831  -18.9022   23.7409 C   0  0  0  0  0  0  0  0  0  0  0  0
    6.8891  -19.0270   22.4852 C   0  0  2  0  0  0  0  0  0  0  0  0
    7.4198  -20.3747   22.3731 N   0  0  0  0  0  0  0  0  0  0  0  0
    7.9799  -18.0232   22.4798 C   0  0  0  0  0  0  0  0  0  0  0  0
    9.1909  -18.3698   22.3965 O   0  0  0  0  0  0  0  0  0  0  0  0
    6.7394  -21.0953   24.7831 C   0  0  0  0  0  0  0  0  0  0  0  0
    7.3063  -21.8130   25.8141 C   0  0  0  0  0  0  0  0  0  0  0  0
    7.7105  -16.6186   22.5685 N   0  0  0  0  0  0  0  0  0  0  0  0
    8.8149  -15.6548   22.4265 C   0  0  1  0  0  0  0  0  0  0  0  0
    8.1647  -14.3793   21.9261 C   0  0  0  0  0  0  0  0  0  0  0  0
    7.9514  -14.4494   20.4498 C   0  0  0  0  0  0  0  0  0  0  0  0
    8.3175  -15.5097   19.6577 C   0  0  0  0  0  0  0  0  0  0  0  0
    7.9820  -15.2570   18.3744 N   0  0  0  0  0  0  0  0  0  0  0  0
    7.4064  -14.0436   18.3510 C   0  0  0  0  0  0  0  0  0  0  0  0
    7.3914  -13.5580   19.6185 N   0  0  0  0  0  0  0  0  0  0  0  0
    9.4857  -15.4676   23.7420 C   0  0  0  0  0  0  0  0  0  0  0  0
   10.5097  -14.7779   23.8380 O   0  0  0  0  0  0  0  0  0  0  0  0
    8.9634  -16.0755   24.9060 N   0  0  0  0  0  0  0  0  0  0  0  0
    9.6369  -16.1270   26.1947 C   0  0  1  0  0  0  0  0  0  0  0  0
    8.7529  -15.7163   27.3037 C   0  0  0  0  0  0  0  0  0  0  0  0
    7.7615  -14.7097   26.9111 C   0  0  0  0  0  0  0  0  0  0  0  0
    6.4592  -14.9571   26.5243 C   0  0  0  0  0  0  0  0  0  0  0  0
    5.8325  -13.8306   26.1963 N   0  0  0  0  0  0  0  0  0  0  0  0
    6.6959  -12.8167   26.3568 C   0  0  0  0  0  0  0  0  0  0  0  0
    6.5291  -11.4536   26.1693 C   0  0  0  0  0  0  0  0  0  0  0  0
    7.5832  -10.5921   26.4305 C   0  0  0  0  0  0  0  0  0  0  0  0
    8.7761  -11.1123   26.8717 C   0  0  0  0  0  0  0  0  0  0  0  0
    8.9547  -12.4630   27.0608 C   0  0  0  0  0  0  0  0  0  0  0  0
    7.8995  -13.3231   26.7984 C   0  0  0  0  0  0  0  0  0  0  0  0
   10.3896  -17.3358   26.4295 C   0  0  0  0  0  0  0  0  0  0  0  0
   11.1496  -17.4047   27.6173 O   0  0  0  0  0  0  0  0  0  0  0  0
   10.4173  -18.3187   25.6630 O   0  0  0  0  0  0  0  0  0  0  0  0
  2  1  1  0
  3  2  2  0
  4  3  1  0
  5  4  2  0
  5 11  1  0
  6  5  1  0
  7  9  1  0
  7  6  1  0
  7  8  1  1
  9 10  2  0
 11 12  2  0
 12  2  1  0
 13 14  1  0
 13  9  1  0
 14 15  1  1
 15 16  1  0
 16 17  2  0
 18 17  1  0
 19 18  1  0
 20 19  2  0
 20 16  1  0
 21 23  1  0
 21 14  1  0
 22 21  2  0
 24 23  1  0
 24 35  1  0
 24 25  1  1
 26 25  1  0
 27 26  2  0
 28 27  1  0
 29 28  1  0
 29 34  2  0
 30 29  1  0
 31 30  2  0
 31 32  1  0
 32 33  2  0
 33 34  1  0
 34 26  1  0
 35 36  1  0
 37 35  2  0
M  END
$$$$
