YHW.pdb
     RDKit          3D

 37 40  0  0  1  0  0  0  0  0999 V2000
   15.9580  -21.4426   19.2520 O   0  0  0  0  0  0  0  0  0  0  0  0
   14.6595  -21.1763   19.6355 C   0  0  0  0  0  0  0  0  0  0  0  0
   13.9510  -21.9833   20.4977 C   0  0  0  0  0  0  0  0  0  0  0  0
   12.6721  -21.6767   20.8449 C   0  0  0  0  0  0  0  0  0  0  0  0
   11.9914  -20.5500   20.3690 C   0  0  0  0  0  0  0  0  0  0  0  0
   10.6016  -20.2774   20.7894 C   0  0  0  0  0  0  0  0  0  0  0  0
   10.0564  -19.0964   20.0479 C   0  0  2  0  0  0  0  0  0  0  0  0
   10.2766  -19.2661   18.6220 N   0  0  0  0  0  0  0  0  0  0  0  0
   10.6910  -17.8504   20.5399 C   0  0  0  0  0  0  0  0  0  0  0  0
   11.4930  -17.1932   19.8199 O   0  0  0  0  0  0  0  0  0  0  0  0
   12.7016  -19.7486   19.5100 C   0  0  0  0  0  0  0  0  0  0  0  0
   13.9978  -20.0503   19.1519 C   0  0  0  0  0  0  0  0  0  0  0  0
   10.4240  -17.3367   21.8508 N   0  0  0  0  0  0  0  0  0  0  0  0
   11.1839  -16.1771   22.3473 C   0  0  1  0  0  0  0  0  0  0  0  0
   10.6315  -14.9871   21.5865 C   0  0  0  0  0  0  0  0  0  0  0  0
    9.1386  -15.0202   21.5830 C   0  0  0  0  0  0  0  0  0  0  0  0
    8.3794  -16.0488   22.0843 C   0  0  0  0  0  0  0  0  0  0  0  0
    7.0684  -15.7654   21.9286 N   0  0  0  0  0  0  0  0  0  0  0  0
    6.9948  -14.5643   21.3321 C   0  0  0  0  0  0  0  0  0  0  0  0
    8.2594  -14.1167   21.1247 N   0  0  0  0  0  0  0  0  0  0  0  0
   10.9903  -16.0462   23.8173 C   0  0  0  0  0  0  0  0  0  0  0  0
   11.4899  -15.0996   24.4399 O   0  0  0  0  0  0  0  0  0  0  0  0
   10.2310  -17.0029   24.5283 N   0  0  0  0  0  0  0  0  0  0  0  0
   10.0373  -17.0104   25.9704 C   0  0  1  0  0  0  0  0  0  0  0  0
    9.7510  -15.6632   26.5025 C   0  0  0  0  0  0  0  0  0  0  0  0
    8.3596  -15.2456   26.3024 C   0  0  0  0  0  0  0  0  0  0  0  0
    7.2962  -16.0738   26.0025 C   0  0  0  0  0  0  0  0  0  0  0  0
    6.1731  -15.3778   25.8483 N   0  0  0  0  0  0  0  0  0  0  0  0
    6.4611  -14.0821   26.0414 C   0  0  0  0  0  0  0  0  0  0  0  0
    5.6431  -12.9637   26.0128 C   0  0  0  0  0  0  0  0  0  0  0  0
    6.1823  -11.7136   26.2736 C   0  0  0  0  0  0  0  0  0  0  0  0
    7.5232  -11.6113   26.5560 C   0  0  0  0  0  0  0  0  0  0  0  0
    8.3459  -12.7133   26.5865 C   0  0  0  0  0  0  0  0  0  0  0  0
    7.8049  -13.9626   26.3247 C   0  0  0  0  0  0  0  0  0  0  0  0
    9.1660  -18.0552   26.4524 C   0  0  0  0  0  0  0  0  0  0  0  0
    9.1447  -18.2893   27.8445 O   0  0  0  0  0  0  0  0  0  0  0  0
    8.4346  -18.7625   25.7320 O   0  0  0  0  0  0  0  0  0  0  0  0
  2  1  1  0
  3  2  2  0
  4  3  1  0
  5  4  2  0
  5 11  1  0
  6  5  1  0
  7  9  1  0
  7  6  1  0
  7  8  1  6
  9 10  2  0
 11 12  2  0
 12  2  1  0
 13 14  1  0
 13  9  1  0
 14 15  1  6
 15 16  1  0
 16 17  2  0
 18 17  1  0
 19 18  1  0
 20 19  2  0
 20 16  1  0
 21 23  1  0
 21 14  1  0
 22 21  2  0
 24 23  1  0
 24 35  1  0
 24 25  1  6
 26 25  1  0
 27 26  2  0
 28 27  1  0
 29 28  1  0
 29 34  2  0
 30 29  1  0
 31 30  2  0
 31 32  1  0
 32 33  2  0
 33 34  1  0
 34 26  1  0
 35 36  1  0
 37 35  2  0
M  END
$$$$
