YHW.pdb
     RDKit          3D

 37 40  0  0  1  0  0  0  0  0999 V2000
    8.1227  -12.1925   16.2890 O   0  0  0  0  0  0  0  0  0  0  0  0
    8.1344  -12.8451   17.5048 C   0  0  0  0  0  0  0  0  0  0  0  0
    9.2007  -13.5991   17.9417 C   0  0  0  0  0  0  0  0  0  0  0  0
    9.1628  -14.2233   19.1496 C   0  0  0  0  0  0  0  0  0  0  0  0
    8.0699  -14.1530   20.0215 C   0  0  0  0  0  0  0  0  0  0  0  0
    8.0974  -14.8562   21.3205 C   0  0  0  0  0  0  0  0  0  0  0  0
    7.9532  -16.3324   21.1155 C   0  0  2  0  0  0  0  0  0  0  0  0
    6.5735  -16.6518   20.7918 N   0  0  0  0  0  0  0  0  0  0  0  0
    8.3975  -17.0596   22.3284 C   0  0  0  0  0  0  0  0  0  0  0  0
    7.5855  -17.3647   23.2455 O   0  0  0  0  0  0  0  0  0  0  0  0
    7.0096  -13.4002   19.5818 C   0  0  0  0  0  0  0  0  0  0  0  0
    7.0380  -12.7638   18.3596 C   0  0  0  0  0  0  0  0  0  0  0  0
    9.7642  -17.4481   22.5147 N   0  0  0  0  0  0  0  0  0  0  0  0
   10.1530  -18.1848   23.7291 C   0  0  1  0  0  0  0  0  0  0  0  0
   11.2627  -19.1190   23.2867 C   0  0  0  0  0  0  0  0  0  0  0  0
   11.7156  -19.9661   24.4300 C   0  0  0  0  0  0  0  0  0  0  0  0
   12.7552  -19.6520   25.2703 C   0  0  0  0  0  0  0  0  0  0  0  0
   12.9024  -20.6240   26.1962 N   0  0  0  0  0  0  0  0  0  0  0  0
   11.9622  -21.5499   25.9457 C   0  0  0  0  0  0  0  0  0  0  0  0
   11.2434  -21.1425   24.8687 N   0  0  0  0  0  0  0  0  0  0  0  0
   10.6064  -17.2239   24.7716 C   0  0  0  0  0  0  0  0  0  0  0  0
   11.3282  -16.2625   24.4753 O   0  0  0  0  0  0  0  0  0  0  0  0
   10.2194  -17.3939   26.1201 N   0  0  0  0  0  0  0  0  0  0  0  0
   10.6658  -16.5626   27.2277 C   0  0  1  0  0  0  0  0  0  0  0  0
   10.1434  -15.1845   27.1377 C   0  0  0  0  0  0  0  0  0  0  0  0
    8.7047  -15.1280   26.8598 C   0  0  0  0  0  0  0  0  0  0  0  0
    7.8710  -16.2105   26.6600 C   0  0  0  0  0  0  0  0  0  0  0  0
    6.6283  -15.8179   26.3936 N   0  0  0  0  0  0  0  0  0  0  0  0
    6.6069  -14.4768   26.4109 C   0  0  0  0  0  0  0  0  0  0  0  0
    5.5598  -13.5902   26.2156 C   0  0  0  0  0  0  0  0  0  0  0  0
    5.7899  -12.2266   26.3102 C   0  0  0  0  0  0  0  0  0  0  0  0
    7.0583  -11.7825   26.5971 C   0  0  0  0  0  0  0  0  0  0  0  0
    8.1062  -12.6519   26.7922 C   0  0  0  0  0  0  0  0  0  0  0  0
    7.8741  -14.0154   26.6964 C   0  0  0  0  0  0  0  0  0  0  0  0
   10.5423  -17.1788   28.5270 C   0  0  0  0  0  0  0  0  0  0  0  0
    9.9824  -18.4738   28.5787 O   0  0  0  0  0  0  0  0  0  0  0  0
   10.8924  -16.6528   29.6017 O   0  0  0  0  0  0  0  0  0  0  0  0
  2  1  1  0
  3  2  2  0
  4  3  1  0
  5  4  2  0
  5 11  1  0
  6  5  1  0
  7  9  1  0
  7  6  1  0
  7  8  1  1
  9 10  2  0
 11 12  2  0
 12  2  1  0
 13 14  1  0
 13  9  1  0
 14 15  1  6
 15 16  1  0
 16 17  2  0
 18 17  1  0
 19 18  1  0
 20 19  2  0
 20 16  1  0
 21 23  1  0
 21 14  1  0
 22 21  2  0
 24 23  1  0
 24 35  1  0
 24 25  1  1
 26 25  1  0
 27 26  2  0
 28 27  1  0
 29 28  1  0
 29 34  2  0
 30 29  1  0
 31 30  2  0
 31 32  1  0
 32 33  2  0
 33 34  1  0
 34 26  1  0
 35 36  1  0
 37 35  2  0
M  END
$$$$
