MAA.pdb
     RDKit          3D

 19 18  0  0  1  0  0  0  0  0999 V2000
    6.3457  -11.2136   27.3355 C   0  0  0  0  0  0  0  0  0  0  0  0
    7.2222  -12.2602   26.2001 S   0  0  0  0  0  0  0  0  0  0  0  0
    6.1911  -13.1195   25.0448 C   0  0  0  0  0  0  0  0  0  0  0  0
    6.9420  -13.9756   24.1037 C   0  0  0  0  0  0  0  0  0  0  0  0
    6.9214  -15.4250   24.4359 C   0  0  2  0  0  0  0  0  0  0  0  0
    7.3442  -15.5488   25.8658 N   0  0  0  0  0  0  0  0  0  0  0  0
    7.9812  -16.1076   23.6072 C   0  0  0  0  0  0  0  0  0  0  0  0
    7.9650  -16.1577   22.3576 O   0  0  0  0  0  0  0  0  0  0  0  0
   10.8988  -15.8667   22.8378 C   0  0  0  0  0  0  0  0  0  0  0  0
   10.2500  -17.1327   23.4101 C   0  0  2  0  0  0  0  0  0  0  0  0
    9.0842  -16.7467   24.2314 N   0  0  0  0  0  0  0  0  0  0  0  0
   11.2540  -17.7440   24.3084 C   0  0  0  0  0  0  0  0  0  0  0  0
   12.3850  -18.0748   23.8812 O   0  0  0  0  0  0  0  0  0  0  0  0
   11.4618  -18.4287   27.9382 C   0  0  0  0  0  0  0  0  0  0  0  0
   11.8711  -18.7076   26.4989 C   0  0  2  0  0  0  0  0  0  0  0  0
   10.9471  -17.9644   25.6722 N   0  0  0  0  0  0  0  0  0  0  0  0
   11.7980  -20.1584   26.2098 C   0  0  0  0  0  0  0  0  0  0  0  0
   10.7776  -20.6736   25.4466 O   0  0  0  0  0  0  0  0  0  0  0  0
   12.6939  -20.8998   26.6818 O   0  0  0  0  0  0  0  0  0  0  0  0
  2  1  1  0
  3  2  1  0
  4  5  1  0
  4  3  1  0
  5  6  1  1
  7  5  1  0
  7 11  1  0
  8  7  2  0
 10 12  1  0
 10  9  1  1
 10 11  1  0
 12 16  1  0
 13 12  2  0
 15 14  1  1
 16 15  1  0
 17 18  1  0
 17 15  1  0
 19 17  2  0
M  END
$$$$
