MAA.pdb
     RDKit          3D

 19 18  0  0  1  0  0  0  0  0999 V2000
    7.5444  -11.5232   26.2339 C   0  0  0  0  0  0  0  0  0  0  0  0
    6.9525  -12.6637   27.4594 S   0  0  0  0  0  0  0  0  0  0  0  0
    6.2036  -14.1277   26.8018 C   0  0  0  0  0  0  0  0  0  0  0  0
    6.9727  -14.7426   25.7004 C   0  0  0  0  0  0  0  0  0  0  0  0
    6.2666  -15.8443   24.9938 C   0  0  2  0  0  0  0  0  0  0  0  0
    6.4121  -17.0679   25.8424 N   0  0  0  0  0  0  0  0  0  0  0  0
    7.0020  -16.1173   23.7052 C   0  0  0  0  0  0  0  0  0  0  0  0
    7.5653  -17.2020   23.4397 O   0  0  0  0  0  0  0  0  0  0  0  0
    7.4949  -14.2922   20.4279 C   0  0  0  0  0  0  0  0  0  0  0  0
    7.6964  -15.4631   21.3972 C   0  0  2  0  0  0  0  0  0  0  0  0
    7.0908  -15.1190   22.7000 N   0  0  0  0  0  0  0  0  0  0  0  0
    9.1569  -15.5904   21.5965 C   0  0  0  0  0  0  0  0  0  0  0  0
    9.9208  -15.8300   20.6320 O   0  0  0  0  0  0  0  0  0  0  0  0
   11.4630  -15.0754   24.4447 C   0  0  0  0  0  0  0  0  0  0  0  0
   11.1263  -15.6753   23.0869 C   0  0  2  0  0  0  0  0  0  0  0  0
    9.7136  -15.4419   22.8890 N   0  0  0  0  0  0  0  0  0  0  0  0
   11.4360  -17.1235   23.0676 C   0  0  0  0  0  0  0  0  0  0  0  0
   10.4332  -18.0564   22.9515 O   0  0  0  0  0  0  0  0  0  0  0  0
   12.6385  -17.4710   23.1601 O   0  0  0  0  0  0  0  0  0  0  0  0
  2  1  1  0
  3  2  1  0
  4  5  1  0
  4  3  1  0
  5  6  1  1
  7  5  1  0
  7 11  1  0
  8  7  2  0
 10 12  1  0
 10  9  1  6
 10 11  1  0
 12 16  1  0
 13 12  2  0
 15 14  1  1
 16 15  1  0
 17 18  1  0
 17 15  1  0
 19 17  2  0
M  END
$$$$
