MAA.pdb
     RDKit          3D

 19 18  0  0  1  0  0  0  0  0999 V2000
    5.7975  -12.0620   27.5203 C   0  0  0  0  0  0  0  0  0  0  0  0
    6.7044  -11.2234   26.2447 S   0  0  0  0  0  0  0  0  0  0  0  0
    7.3268  -12.2805   24.9674 C   0  0  0  0  0  0  0  0  0  0  0  0
    6.8419  -13.6728   25.0626 C   0  0  0  0  0  0  0  0  0  0  0  0
    7.9170  -14.6976   25.1372 C   0  0  2  0  0  0  0  0  0  0  0  0
    8.9116  -14.3619   24.0712 N   0  0  0  0  0  0  0  0  0  0  0  0
    7.3154  -16.0309   24.7680 C   0  0  0  0  0  0  0  0  0  0  0  0
    6.4011  -16.5871   25.4153 O   0  0  0  0  0  0  0  0  0  0  0  0
    7.1623  -18.3557   21.8903 C   0  0  0  0  0  0  0  0  0  0  0  0
    7.3021  -18.1196   23.3989 C   0  0  2  0  0  0  0  0  0  0  0  0
    7.7770  -16.7396   23.6280 N   0  0  0  0  0  0  0  0  0  0  0  0
    8.3570  -19.0449   23.8679 C   0  0  0  0  0  0  0  0  0  0  0  0
    8.2017  -20.2869   23.8009 O   0  0  0  0  0  0  0  0  0  0  0  0
   11.8664  -19.0945   24.3762 C   0  0  0  0  0  0  0  0  0  0  0  0
   10.5200  -19.4425   24.9951 C   0  0  2  0  0  0  0  0  0  0  0  0
    9.5639  -18.5348   24.4023 N   0  0  0  0  0  0  0  0  0  0  0  0
   10.5675  -19.2814   26.4667 C   0  0  0  0  0  0  0  0  0  0  0  0
   11.3526  -20.1031   27.2398 O   0  0  0  0  0  0  0  0  0  0  0  0
    9.8709  -18.3743   26.9836 O   0  0  0  0  0  0  0  0  0  0  0  0
  2  1  1  0
  3  2  1  0
  4  5  1  0
  4  3  1  0
  5  6  1  6
  7  5  1  0
  7 11  1  0
  8  7  2  0
 10 12  1  0
 10  9  1  6
 10 11  1  0
 12 16  1  0
 13 12  2  0
 15 14  1  6
 16 15  1  0
 17 18  1  0
 17 15  1  0
 19 17  2  0
M  END
$$$$
