MAA.pdb
     RDKit          3D

 19 18  0  0  1  0  0  0  0  0999 V2000
    8.0010  -11.8769   26.4669 C   0  0  0  0  0  0  0  0  0  0  0  0
    6.7041  -12.6078   27.4347 S   0  0  0  0  0  0  0  0  0  0  0  0
    6.0908  -14.1444   26.8030 C   0  0  0  0  0  0  0  0  0  0  0  0
    6.8811  -14.6783   25.6747 C   0  0  0  0  0  0  0  0  0  0  0  0
    6.2786  -15.8606   25.0032 C   0  0  2  0  0  0  0  0  0  0  0  0
    6.4346  -17.0176   25.9388 N   0  0  0  0  0  0  0  0  0  0  0  0
    7.1059  -16.1734   23.7810 C   0  0  0  0  0  0  0  0  0  0  0  0
    7.6764  -17.2693   23.5865 O   0  0  0  0  0  0  0  0  0  0  0  0
    7.8626  -14.4271   20.5088 C   0  0  0  0  0  0  0  0  0  0  0  0
    7.9308  -15.5996   21.4946 C   0  0  2  0  0  0  0  0  0  0  0  0
    7.2802  -15.2026   22.7602 N   0  0  0  0  0  0  0  0  0  0  0  0
    9.3662  -15.8237   21.7745 C   0  0  0  0  0  0  0  0  0  0  0  0
   10.1589  -16.1466   20.8589 O   0  0  0  0  0  0  0  0  0  0  0  0
   11.6720  -15.0245   24.4791 C   0  0  0  0  0  0  0  0  0  0  0  0
   11.2540  -15.9708   23.3625 C   0  0  2  0  0  0  0  0  0  0  0  0
    9.8655  -15.6751   23.0902 N   0  0  0  0  0  0  0  0  0  0  0  0
   11.4269  -17.3801   23.7839 C   0  0  0  0  0  0  0  0  0  0  0  0
   10.3439  -18.2188   23.8976 O   0  0  0  0  0  0  0  0  0  0  0  0
   12.5892  -17.7831   24.0331 O   0  0  0  0  0  0  0  0  0  0  0  0
  2  1  1  0
  3  2  1  0
  4  5  1  0
  4  3  1  0
  5  6  1  1
  7  5  1  0
  7 11  1  0
  8  7  2  0
 10 12  1  0
 10  9  1  6
 10 11  1  0
 12 16  1  0
 13 12  2  0
 15 14  1  1
 16 15  1  0
 17 18  1  0
 17 15  1  0
 19 17  2  0
M  END
$$$$
