MAA.pdb
     RDKit          3D

 19 18  0  0  1  0  0  0  0  0999 V2000
    7.3308  -11.7447   27.1154 C   0  0  0  0  0  0  0  0  0  0  0  0
    5.6784  -12.2330   26.6864 S   0  0  0  0  0  0  0  0  0  0  0  0
    5.5800  -13.6619   25.6448 C   0  0  0  0  0  0  0  0  0  0  0  0
    6.8207  -14.4637   25.6209 C   0  0  0  0  0  0  0  0  0  0  0  0
    6.8321  -15.5541   24.6097 C   0  0  2  0  0  0  0  0  0  0  0  0
    5.8065  -16.5552   25.0391 N   0  0  0  0  0  0  0  0  0  0  0  0
    8.1720  -16.2435   24.6838 C   0  0  0  0  0  0  0  0  0  0  0  0
    8.3985  -17.2551   25.3835 O   0  0  0  0  0  0  0  0  0  0  0  0
   11.4947  -15.9296   22.9082 C   0  0  0  0  0  0  0  0  0  0  0  0
   10.5553  -16.4940   23.9806 C   0  0  2  0  0  0  0  0  0  0  0  0
    9.2757  -15.7569   23.9356 N   0  0  0  0  0  0  0  0  0  0  0  0
   11.1952  -16.2105   25.2840 C   0  0  0  0  0  0  0  0  0  0  0  0
   12.3418  -16.6432   25.5470 O   0  0  0  0  0  0  0  0  0  0  0  0
   10.4930  -13.9694   28.1147 C   0  0  0  0  0  0  0  0  0  0  0  0
   11.1193  -15.2388   27.5550 C   0  0  2  0  0  0  0  0  0  0  0  0
   10.5150  -15.4411   26.2575 N   0  0  0  0  0  0  0  0  0  0  0  0
   10.8552  -16.3875   28.4518 C   0  0  0  0  0  0  0  0  0  0  0  0
   11.4278  -16.4526   29.6997 O   0  0  0  0  0  0  0  0  0  0  0  0
   10.0948  -17.2963   28.0381 O   0  0  0  0  0  0  0  0  0  0  0  0
  2  1  1  0
  3  2  1  0
  4  5  1  0
  4  3  1  0
  5  6  1  1
  7  5  1  0
  7 11  1  0
  8  7  2  0
 10 12  1  0
 10  9  1  6
 10 11  1  0
 12 16  1  0
 13 12  2  0
 15 14  1  1
 16 15  1  0
 17 18  1  0
 17 15  1  0
 19 17  2  0
M  END
$$$$
