MAA.pdb
     RDKit          3D

 19 18  0  0  1  0  0  0  0  0999 V2000
    9.0760  -13.8927   14.4746 C   0  0  0  0  0  0  0  0  0  0  0  0
    7.5426  -14.4106   15.2048 S   0  0  0  0  0  0  0  0  0  0  0  0
    7.7062  -15.1858   16.7887 C   0  0  0  0  0  0  0  0  0  0  0  0
    9.0053  -15.8612   16.9860 C   0  0  0  0  0  0  0  0  0  0  0  0
    9.1785  -16.4890   18.3229 C   0  0  2  0  0  0  0  0  0  0  0  0
    7.9335  -17.2711   18.5999 N   0  0  0  0  0  0  0  0  0  0  0  0
    9.2383  -15.3862   19.3507 C   0  0  0  0  0  0  0  0  0  0  0  0
   10.2224  -14.6302   19.5064 O   0  0  0  0  0  0  0  0  0  0  0  0
    6.8704  -13.7276   21.7602 C   0  0  0  0  0  0  0  0  0  0  0  0
    8.2700  -14.1279   21.2785 C   0  0  2  0  0  0  0  0  0  0  0  0
    8.1404  -15.1488   20.2185 N   0  0  0  0  0  0  0  0  0  0  0  0
    8.9424  -14.7594   22.4352 C   0  0  0  0  0  0  0  0  0  0  0  0
    9.1536  -14.1146   23.4891 O   0  0  0  0  0  0  0  0  0  0  0  0
    9.5950  -18.1552   23.5386 C   0  0  0  0  0  0  0  0  0  0  0  0
   10.0467  -16.7024   23.4898 C   0  0  2  0  0  0  0  0  0  0  0  0
    9.3585  -16.1101   22.3651 N   0  0  0  0  0  0  0  0  0  0  0  0
   11.5158  -16.6206   23.3201 C   0  0  0  0  0  0  0  0  0  0  0  0
   12.0640  -16.1313   22.1585 O   0  0  0  0  0  0  0  0  0  0  0  0
   12.2417  -17.0106   24.2668 O   0  0  0  0  0  0  0  0  0  0  0  0
  2  1  1  0
  3  2  1  0
  4  5  1  0
  4  3  1  0
  5  6  1  1
  7  5  1  0
  7 11  1  0
  8  7  2  0
 10 12  1  0
 10  9  1  1
 10 11  1  0
 12 16  1  0
 13 12  2  0
 15 14  1  6
 16 15  1  0
 17 18  1  0
 17 15  1  0
 19 17  2  0
M  END
$$$$
