MAA.pdb
     RDKit          3D

 19 18  0  0  1  0  0  0  0  0999 V2000
    7.4031  -11.8526   27.2640 C   0  0  0  0  0  0  0  0  0  0  0  0
    5.9007  -12.0542   26.3393 S   0  0  0  0  0  0  0  0  0  0  0  0
    5.8310  -13.5283   25.3602 C   0  0  0  0  0  0  0  0  0  0  0  0
    7.0660  -14.3370   25.4190 C   0  0  0  0  0  0  0  0  0  0  0  0
    7.1293  -15.4412   24.4248 C   0  0  2  0  0  0  0  0  0  0  0  0
    6.0464  -16.4098   24.7822 N   0  0  0  0  0  0  0  0  0  0  0  0
    8.4402  -16.1634   24.6142 C   0  0  0  0  0  0  0  0  0  0  0  0
    8.5763  -17.1901   25.3153 O   0  0  0  0  0  0  0  0  0  0  0  0
   11.8866  -15.9450   23.0813 C   0  0  0  0  0  0  0  0  0  0  0  0
   10.8534  -16.5025   24.0675 C   0  0  2  0  0  0  0  0  0  0  0  0
    9.6208  -15.6926   23.9821 N   0  0  0  0  0  0  0  0  0  0  0  0
   11.4257  -16.3145   25.4189 C   0  0  0  0  0  0  0  0  0  0  0  0
   12.5089  -16.8564   25.7414 O   0  0  0  0  0  0  0  0  0  0  0  0
   10.7735  -14.0354   28.2230 C   0  0  0  0  0  0  0  0  0  0  0  0
   11.3121  -15.3574   27.6944 C   0  0  2  0  0  0  0  0  0  0  0  0
   10.7515  -15.5140   26.3713 N   0  0  0  0  0  0  0  0  0  0  0  0
   10.9095  -16.4739   28.5804 C   0  0  0  0  0  0  0  0  0  0  0  0
   11.4483  -16.6040   29.8382 O   0  0  0  0  0  0  0  0  0  0  0  0
   10.0638  -17.2945   28.1482 O   0  0  0  0  0  0  0  0  0  0  0  0
  2  1  1  0
  3  2  1  0
  4  5  1  0
  4  3  1  0
  5  6  1  1
  7  5  1  0
  7 11  1  0
  8  7  2  0
 10 12  1  0
 10  9  1  6
 10 11  1  0
 12 16  1  0
 13 12  2  0
 15 14  1  1
 16 15  1  0
 17 18  1  0
 17 15  1  0
 19 17  2  0
M  END
$$$$
