MAA.pdb
     RDKit          3D

 19 18  0  0  1  0  0  0  0  0999 V2000
    7.3644  -12.3706   27.4783 C   0  0  0  0  0  0  0  0  0  0  0  0
    5.7538  -12.6710   26.7937 S   0  0  0  0  0  0  0  0  0  0  0  0
    5.7016  -13.9478   25.5675 C   0  0  0  0  0  0  0  0  0  0  0  0
    6.9476  -14.7368   25.4809 C   0  0  0  0  0  0  0  0  0  0  0  0
    6.9840  -15.7130   24.3595 C   0  0  2  0  0  0  0  0  0  0  0  0
    5.9255  -16.7332   24.6375 N   0  0  0  0  0  0  0  0  0  0  0  0
    8.3085  -16.4332   24.4123 C   0  0  0  0  0  0  0  0  0  0  0  0
    8.4725  -17.5542   24.9422 O   0  0  0  0  0  0  0  0  0  0  0  0
   11.7374  -15.9624   22.9172 C   0  0  0  0  0  0  0  0  0  0  0  0
   10.7516  -16.5807   23.9157 C   0  0  2  0  0  0  0  0  0  0  0  0
    9.4700  -15.8495   23.8422 N   0  0  0  0  0  0  0  0  0  0  0  0
   11.3256  -16.3540   25.2603 C   0  0  0  0  0  0  0  0  0  0  0  0
   12.4258  -16.8590   25.5853 O   0  0  0  0  0  0  0  0  0  0  0  0
   10.8212  -13.8925   27.8790 C   0  0  0  0  0  0  0  0  0  0  0  0
   11.2278  -15.3089   27.4976 C   0  0  2  0  0  0  0  0  0  0  0  0
   10.6337  -15.5578   26.2036 N   0  0  0  0  0  0  0  0  0  0  0  0
   10.7392  -16.2787   28.5048 C   0  0  0  0  0  0  0  0  0  0  0  0
   11.2318  -16.2695   29.7879 O   0  0  0  0  0  0  0  0  0  0  0  0
    9.8643  -17.1062   28.1511 O   0  0  0  0  0  0  0  0  0  0  0  0
  2  1  1  0
  3  2  1  0
  4  5  1  0
  4  3  1  0
  5  6  1  1
  7  5  1  0
  7 11  1  0
  8  7  2  0
 10 12  1  0
 10  9  1  6
 10 11  1  0
 12 16  1  0
 13 12  2  0
 15 14  1  1
 16 15  1  0
 17 18  1  0
 17 15  1  0
 19 17  2  0
M  END
$$$$
