MAA.pdb
     RDKit          3D

 19 18  0  0  1  0  0  0  0  0999 V2000
    7.5411  -12.6636   21.6376 C   0  0  0  0  0  0  0  0  0  0  0  0
    7.7229  -12.2711   19.9154 S   0  0  0  0  0  0  0  0  0  0  0  0
    8.1505  -13.6485   18.8876 C   0  0  0  0  0  0  0  0  0  0  0  0
    8.5278  -14.8587   19.6463 C   0  0  0  0  0  0  0  0  0  0  0  0
    8.8156  -16.0506   18.8048 C   0  0  2  0  0  0  0  0  0  0  0  0
    7.5381  -16.4149   18.1165 N   0  0  0  0  0  0  0  0  0  0  0  0
    9.1583  -17.1972   19.7235 C   0  0  0  0  0  0  0  0  0  0  0  0
    8.3059  -17.9109   20.2965 O   0  0  0  0  0  0  0  0  0  0  0  0
   12.2020  -19.2650   20.3656 C   0  0  0  0  0  0  0  0  0  0  0  0
   10.8149  -18.7485   20.7658 C   0  0  2  0  0  0  0  0  0  0  0  0
   10.5127  -17.5291   19.9884 N   0  0  0  0  0  0  0  0  0  0  0  0
   10.9103  -18.3643   22.1914 C   0  0  0  0  0  0  0  0  0  0  0  0
   11.3871  -17.2556   22.5298 O   0  0  0  0  0  0  0  0  0  0  0  0
    9.3783  -19.4496   25.2969 C   0  0  0  0  0  0  0  0  0  0  0  0
   10.5986  -18.8791   24.5882 C   0  0  2  0  0  0  0  0  0  0  0  0
   10.4606  -19.2511   23.1982 N   0  0  0  0  0  0  0  0  0  0  0  0
   11.8431  -19.4344   25.1684 C   0  0  0  0  0  0  0  0  0  0  0  0
   12.3693  -18.9200   26.3293 O   0  0  0  0  0  0  0  0  0  0  0  0
   12.4001  -20.3861   24.5688 O   0  0  0  0  0  0  0  0  0  0  0  0
  2  1  1  0
  3  2  1  0
  4  5  1  0
  4  3  1  0
  5  6  1  1
  7  5  1  0
  7 11  1  0
  8  7  2  0
 10 12  1  0
 10  9  1  6
 10 11  1  0
 12 16  1  0
 13 12  2  0
 15 14  1  1
 16 15  1  0
 17 18  1  0
 17 15  1  0
 19 17  2  0
M  END
$$$$
