MAA.pdb
     RDKit          3D

 19 18  0  0  1  0  0  0  0  0999 V2000
    4.9459  -11.0139   26.8575 C   0  0  0  0  0  0  0  0  0  0  0  0
    6.2050  -12.2654   26.8895 S   0  0  0  0  0  0  0  0  0  0  0  0
    6.1358  -13.4140   25.5432 C   0  0  0  0  0  0  0  0  0  0  0  0
    7.2295  -14.4071   25.5554 C   0  0  0  0  0  0  0  0  0  0  0  0
    7.2204  -15.3502   24.4056 C   0  0  2  0  0  0  0  0  0  0  0  0
    6.0724  -16.2854   24.6202 N   0  0  0  0  0  0  0  0  0  0  0  0
    8.4780  -16.1806   24.4749 C   0  0  0  0  0  0  0  0  0  0  0  0
    8.5475  -17.2962   25.0361 O   0  0  0  0  0  0  0  0  0  0  0  0
   11.9673  -15.9949   23.0416 C   0  0  0  0  0  0  0  0  0  0  0  0
   10.9050  -16.5367   24.0054 C   0  0  2  0  0  0  0  0  0  0  0  0
    9.6825  -15.7159   23.8849 N   0  0  0  0  0  0  0  0  0  0  0  0
   11.4457  -16.3458   25.3692 C   0  0  0  0  0  0  0  0  0  0  0  0
   12.5351  -16.8641   25.7093 O   0  0  0  0  0  0  0  0  0  0  0  0
   10.7388  -14.0255   28.1118 C   0  0  0  0  0  0  0  0  0  0  0  0
   11.2942  -15.3581   27.6295 C   0  0  2  0  0  0  0  0  0  0  0  0
   10.7336  -15.5692   26.3139 N   0  0  0  0  0  0  0  0  0  0  0  0
   10.9078  -16.4476   28.5554 C   0  0  0  0  0  0  0  0  0  0  0  0
   11.4222  -16.5050   29.8287 O   0  0  0  0  0  0  0  0  0  0  0  0
   10.0988  -17.3138   28.1423 O   0  0  0  0  0  0  0  0  0  0  0  0
  2  1  1  0
  3  2  1  0
  4  5  1  0
  4  3  1  0
  5  6  1  1
  7  5  1  0
  7 11  1  0
  8  7  2  0
 10 12  1  0
 10  9  1  6
 10 11  1  0
 12 16  1  0
 13 12  2  0
 15 14  1  1
 16 15  1  0
 17 18  1  0
 17 15  1  0
 19 17  2  0
M  END
$$$$
