MAA.pdb
     RDKit          3D

 19 18  0  0  1  0  0  0  0  0999 V2000
    7.5475  -11.7808   20.5688 C   0  0  0  0  0  0  0  0  0  0  0  0
    7.5554  -12.7671   19.0923 S   0  0  0  0  0  0  0  0  0  0  0  0
    8.4346  -14.2979   19.2343 C   0  0  0  0  0  0  0  0  0  0  0  0
    8.5303  -14.7993   20.6207 C   0  0  0  0  0  0  0  0  0  0  0  0
    9.2326  -16.1028   20.7591 C   0  0  2  0  0  0  0  0  0  0  0  0
    8.7113  -16.9940   19.6763 N   0  0  0  0  0  0  0  0  0  0  0  0
    8.8143  -16.7198   22.0707 C   0  0  0  0  0  0  0  0  0  0  0  0
    8.9770  -16.1715   23.1831 O   0  0  0  0  0  0  0  0  0  0  0  0
    6.8324  -19.6892   23.2370 C   0  0  0  0  0  0  0  0  0  0  0  0
    7.9345  -18.6370   23.4078 C   0  0  2  0  0  0  0  0  0  0  0  0
    8.1950  -17.9966   22.1021 N   0  0  0  0  0  0  0  0  0  0  0  0
    9.1551  -19.3744   23.8017 C   0  0  0  0  0  0  0  0  0  0  0  0
    9.1966  -20.0286   24.8700 O   0  0  0  0  0  0  0  0  0  0  0  0
   11.9817  -20.8235   22.1857 C   0  0  0  0  0  0  0  0  0  0  0  0
   11.5024  -20.0311   23.3937 C   0  0  2  0  0  0  0  0  0  0  0  0
   10.2999  -19.3498   22.9702 N   0  0  0  0  0  0  0  0  0  0  0  0
   12.5388  -19.0655   23.8262 C   0  0  0  0  0  0  0  0  0  0  0  0
   12.3267  -17.7114   23.7222 O   0  0  0  0  0  0  0  0  0  0  0  0
   13.6130  -19.5208   24.2889 O   0  0  0  0  0  0  0  0  0  0  0  0
  2  1  1  0
  3  2  1  0
  4  5  1  0
  4  3  1  0
  5  6  1  6
  7  5  1  0
  7 11  1  0
  8  7  2  0
 10 12  1  0
 10  9  1  6
 10 11  1  0
 12 16  1  0
 13 12  2  0
 15 14  1  6
 16 15  1  0
 17 18  1  0
 17 15  1  0
 19 17  2  0
M  END
$$$$
