HNV.pdb
     RDKit          3D

 26 26  0  0  1  0  0  0  0  0999 V2000
   17.0150   -1.6704  -15.3273 N   0  0  0  0  0  0  0  0  0  0  0  0
   17.3324   -3.0273  -15.6809 C   0  0  1  0  0  0  0  0  0  0  0  0
   18.2018   -3.0360  -16.9096 C   0  0  0  0  0  0  0  0  0  0  0  0
   17.4248   -2.7061  -18.1324 C   0  0  0  0  0  0  0  0  0  0  0  0
   16.7059   -3.6225  -18.9026 C   0  0  0  0  0  0  0  0  0  0  0  0
   16.1329   -2.9631  -19.9317 N   0  0  0  0  0  0  0  0  0  0  0  0
   16.4829   -1.6623  -19.8119 C   0  0  0  0  0  0  0  0  0  0  0  0
   17.2556   -1.5193  -18.7328 N   0  0  0  0  0  0  0  0  0  0  0  0
   18.1563   -3.6641  -14.5727 C   0  0  0  0  0  0  0  0  0  0  0  0
   18.8348   -2.8537  -13.9240 O   0  0  0  0  0  0  0  0  0  0  0  0
   18.1132   -6.2283   -9.7543 N   0  0  0  0  0  0  0  0  0  0  0  0
   18.0260   -6.8473  -11.0210 C   0  0  0  0  0  0  0  0  0  0  0  0
   18.3723   -8.0483  -11.1237 O   0  0  0  0  0  0  0  0  0  0  0  0
   17.5459   -6.1038  -12.1705 C   0  0  0  0  0  0  0  0  0  0  0  0
   18.5998   -5.7945  -13.2336 C   0  0  2  0  0  0  0  0  0  0  0  0
   18.1185   -5.0321  -14.3476 N   0  0  0  0  0  0  0  0  0  0  0  0
   18.9925   -7.1555  -13.7462 C   0  0  0  0  0  0  0  0  0  0  0  0
   18.1943   -7.8581  -14.4196 O   0  0  0  0  0  0  0  0  0  0  0  0
   22.8043  -10.3580  -14.3095 C   0  0  0  0  0  0  0  0  0  0  0  0
   22.2494   -9.0789  -13.7337 C   0  0  2  0  0  0  0  0  0  0  0  0
   22.3916   -9.1315  -12.2386 C   0  0  0  0  0  0  0  0  0  0  0  0
   20.7526   -8.9416  -14.0508 C   0  0  2  0  0  0  0  0  0  0  0  0
   20.2794   -7.6797  -13.4807 N   0  0  0  0  0  0  0  0  0  0  0  0
   20.0799  -10.0705  -13.3760 C   0  0  0  0  0  0  0  0  0  0  0  0
   19.6335   -9.8862  -12.2152 O   0  0  0  0  0  0  0  0  0  0  0  0
   19.8938  -11.3265  -13.9097 O   0  0  0  0  0  0  0  0  0  0  0  0
  2  1  1  1
  2  9  1  0
  3  4  1  0
  3  2  1  0
  4  5  2  0
  4  8  1  0
  5  6  1  0
  6  7  1  0
  8  7  2  0
  9 10  2  0
 11 12  1  0
 12 13  2  0
 12 14  1  0
 15 14  1  1
 15 17  1  0
 16  9  1  0
 16 15  1  0
 17 23  1  0
 17 18  2  0
 20 19  1  6
 20 22  1  0
 21 20  1  0
 22 24  1  0
 22 23  1  1
 24 25  2  0
 24 26  1  0
M  END
$$$$
