HNV.pdb
     RDKit          3D

 26 26  0  0  1  0  0  0  0  0999 V2000
   25.4543  -22.1037  -13.0204 N   0  0  0  0  0  0  0  0  0  0  0  0
   24.5861  -20.9916  -13.2963 C   0  0  1  0  0  0  0  0  0  0  0  0
   24.7515  -19.9474  -12.2249 C   0  0  0  0  0  0  0  0  0  0  0  0
   24.3036  -20.4473  -10.8992 C   0  0  0  0  0  0  0  0  0  0  0  0
   23.1056  -21.1217  -10.6546 C   0  0  0  0  0  0  0  0  0  0  0  0
   23.0397  -21.4175   -9.3392 N   0  0  0  0  0  0  0  0  0  0  0  0
   24.1698  -20.9405   -8.7694 C   0  0  0  0  0  0  0  0  0  0  0  0
   24.9187  -20.3621   -9.7110 N   0  0  0  0  0  0  0  0  0  0  0  0
   25.0017  -20.3311  -14.6014 C   0  0  0  0  0  0  0  0  0  0  0  0
   26.2278  -20.3138  -14.7859 O   0  0  0  0  0  0  0  0  0  0  0  0
   24.4179  -18.5223  -19.5191 N   0  0  0  0  0  0  0  0  0  0  0  0
   23.2996  -19.3009  -19.1470 C   0  0  0  0  0  0  0  0  0  0  0  0
   22.5202  -19.6949  -20.0471 O   0  0  0  0  0  0  0  0  0  0  0  0
   23.0661  -19.6323  -17.7540 C   0  0  0  0  0  0  0  0  0  0  0  0
   24.2157  -19.2998  -16.8029 C   0  0  2  0  0  0  0  0  0  0  0  0
   24.0572  -19.8100  -15.4731 N   0  0  0  0  0  0  0  0  0  0  0  0
   24.1822  -17.7958  -16.7230 C   0  0  0  0  0  0  0  0  0  0  0  0
   23.2013  -17.1875  -16.2210 O   0  0  0  0  0  0  0  0  0  0  0  0
   27.7548  -15.6651  -17.6138 C   0  0  0  0  0  0  0  0  0  0  0  0
   26.7035  -15.1488  -16.6630 C   0  0  2  0  0  0  0  0  0  0  0  0
   26.9391  -15.7683  -15.3144 C   0  0  0  0  0  0  0  0  0  0  0  0
   25.2986  -15.5656  -17.1239 C   0  0  2  0  0  0  0  0  0  0  0  0
   25.2626  -17.0258  -17.2139 N   0  0  0  0  0  0  0  0  0  0  0  0
   25.1133  -14.9840  -18.4692 C   0  0  0  0  0  0  0  0  0  0  0  0
   25.5145  -15.6444  -19.4609 O   0  0  0  0  0  0  0  0  0  0  0  0
   24.5323  -13.7653  -18.7415 O   0  0  0  0  0  0  0  0  0  0  0  0
  2  1  1  1
  2  9  1  0
  3  4  1  0
  3  2  1  0
  4  5  2  0
  4  8  1  0
  5  6  1  0
  6  7  1  0
  8  7  2  0
  9 10  2  0
 11 12  1  0
 12 13  2  0
 12 14  1  0
 15 14  1  6
 15 17  1  0
 16  9  1  0
 16 15  1  0
 17 23  1  0
 17 18  2  0
 20 19  1  6
 20 22  1  0
 21 20  1  0
 22 24  1  0
 22 23  1  6
 24 25  2  0
 24 26  1  0
M  END
$$$$
