HNV.pdb
     RDKit          3D

 26 26  0  0  1  0  0  0  0  0999 V2000
   27.0473  -22.7847  -17.1112 N   0  0  0  0  0  0  0  0  0  0  0  0
   26.0439  -21.7821  -16.8774 C   0  0  1  0  0  0  0  0  0  0  0  0
   25.1382  -21.6888  -18.0760 C   0  0  0  0  0  0  0  0  0  0  0  0
   25.7992  -20.9904  -19.2088 C   0  0  0  0  0  0  0  0  0  0  0  0
   25.7403  -19.6170  -19.4540 C   0  0  0  0  0  0  0  0  0  0  0  0
   26.4556  -19.3480  -20.5667 N   0  0  0  0  0  0  0  0  0  0  0  0
   26.9530  -20.5245  -21.0112 C   0  0  0  0  0  0  0  0  0  0  0  0
   26.5544  -21.5004  -20.1921 N   0  0  0  0  0  0  0  0  0  0  0  0
   25.1636  -22.2031  -15.7112 C   0  0  0  0  0  0  0  0  0  0  0  0
   24.7113  -23.3531  -15.8145 O   0  0  0  0  0  0  0  0  0  0  0  0
   26.2921  -21.3496  -10.3668 N   0  0  0  0  0  0  0  0  0  0  0  0
   25.9923  -21.3389  -11.7471 C   0  0  0  0  0  0  0  0  0  0  0  0
   26.8578  -21.7633  -12.5493 O   0  0  0  0  0  0  0  0  0  0  0  0
   24.7108  -20.8469  -12.2167 C   0  0  0  0  0  0  0  0  0  0  0  0
   24.1565  -21.5503  -13.4555 C   0  0  2  0  0  0  0  0  0  0  0  0
   24.9186  -21.3427  -14.6513 N   0  0  0  0  0  0  0  0  0  0  0  0
   22.8098  -20.9048  -13.6535 C   0  0  0  0  0  0  0  0  0  0  0  0
   22.7023  -19.6770  -13.9088 O   0  0  0  0  0  0  0  0  0  0  0  0
   20.4480  -21.6943  -16.2164 C   0  0  0  0  0  0  0  0  0  0  0  0
   19.6440  -21.8629  -14.9511 C   0  0  2  0  0  0  0  0  0  0  0  0
   18.2815  -21.2689  -15.1728 C   0  0  0  0  0  0  0  0  0  0  0  0
   20.2950  -21.1034  -13.7854 C   0  0  2  0  0  0  0  0  0  0  0  0
   21.6245  -21.6709  -13.5570 N   0  0  0  0  0  0  0  0  0  0  0  0
   19.4443  -21.3492  -12.6029 C   0  0  0  0  0  0  0  0  0  0  0  0
   18.4342  -20.6192  -12.4374 O   0  0  0  0  0  0  0  0  0  0  0  0
   19.6591  -22.3199  -11.6498 O   0  0  0  0  0  0  0  0  0  0  0  0
  2  1  1  6
  2  9  1  0
  3  4  1  0
  3  2  1  0
  4  5  2  0
  4  8  1  0
  5  6  1  0
  6  7  1  0
  8  7  2  0
  9 10  2  0
 11 12  1  0
 12 13  2  0
 12 14  1  0
 15 14  1  1
 15 17  1  0
 16  9  1  0
 16 15  1  0
 17 23  1  0
 17 18  2  0
 20 19  1  6
 20 22  1  0
 21 20  1  0
 22 24  1  0
 22 23  1  1
 24 25  2  0
 24 26  1  0
M  END
$$$$
