HNV.pdb
     RDKit          3D

 26 26  0  0  1  0  0  0  0  0999 V2000
   21.8073  -11.4459  -16.8650 N   0  0  0  0  0  0  0  0  0  0  0  0
   20.5705  -10.7320  -17.0304 C   0  0  1  0  0  0  0  0  0  0  0  0
   19.4156  -11.6829  -16.8649 C   0  0  0  0  0  0  0  0  0  0  0  0
   19.3924  -12.7086  -17.9396 C   0  0  0  0  0  0  0  0  0  0  0  0
   18.8454  -12.5310  -19.2120 C   0  0  0  0  0  0  0  0  0  0  0  0
   19.0050  -13.6741  -19.9120 N   0  0  0  0  0  0  0  0  0  0  0  0
   19.6377  -14.5505  -19.0992 C   0  0  0  0  0  0  0  0  0  0  0  0
   19.8647  -13.9633  -17.9220 N   0  0  0  0  0  0  0  0  0  0  0  0
   20.4285   -9.6947  -15.9276 C   0  0  0  0  0  0  0  0  0  0  0  0
   20.1947  -10.1798  -14.8106 O   0  0  0  0  0  0  0  0  0  0  0  0
   20.5226   -4.9522  -13.6222 N   0  0  0  0  0  0  0  0  0  0  0  0
   21.7692   -5.4972  -14.0020 C   0  0  0  0  0  0  0  0  0  0  0  0
   22.8129   -4.9848  -13.5319 O   0  0  0  0  0  0  0  0  0  0  0  0
   21.8313   -6.6231  -14.9147 C   0  0  0  0  0  0  0  0  0  0  0  0
   20.4794   -7.2152  -15.3128 C   0  0  2  0  0  0  0  0  0  0  0  0
   20.5572   -8.3403  -16.1971 N   0  0  0  0  0  0  0  0  0  0  0  0
   19.8095   -6.0916  -16.0599 C   0  0  0  0  0  0  0  0  0  0  0  0
   20.2886   -5.6400  -17.1326 O   0  0  0  0  0  0  0  0  0  0  0  0
   15.8414   -5.4994  -15.2799 C   0  0  0  0  0  0  0  0  0  0  0  0
   16.4604   -4.9632  -16.5469 C   0  0  2  0  0  0  0  0  0  0  0  0
   16.5462   -6.0846  -17.5436 C   0  0  0  0  0  0  0  0  0  0  0  0
   17.8902   -4.4651  -16.2877 C   0  0  2  0  0  0  0  0  0  0  0  0
   18.6152   -5.5136  -15.5690 N   0  0  0  0  0  0  0  0  0  0  0  0
   17.7644   -3.2726  -15.4249 C   0  0  0  0  0  0  0  0  0  0  0  0
   17.9331   -3.4159  -14.1873 O   0  0  0  0  0  0  0  0  0  0  0  0
   17.4746   -1.9978  -15.8581 O   0  0  0  0  0  0  0  0  0  0  0  0
  2  1  1  1
  2  9  1  0
  3  4  1  0
  3  2  1  0
  4  5  2  0
  4  8  1  0
  5  6  1  0
  6  7  1  0
  8  7  2  0
  9 10  2  0
 11 12  1  0
 12 13  2  0
 12 14  1  0
 15 14  1  6
 15 17  1  0
 16  9  1  0
 16 15  1  0
 17 23  1  0
 17 18  2  0
 20 19  1  1
 20 22  1  0
 21 20  1  0
 22 24  1  0
 22 23  1  1
 24 25  2  0
 24 26  1  0
M  END
$$$$
