HNV.pdb
     RDKit          3D

 26 26  0  0  1  0  0  0  0  0999 V2000
   16.4215  -14.1621  -16.7227 N   0  0  0  0  0  0  0  0  0  0  0  0
   16.3919  -12.7302  -16.8466 C   0  0  1  0  0  0  0  0  0  0  0  0
   15.4789  -12.1540  -15.7977 C   0  0  0  0  0  0  0  0  0  0  0  0
   14.0487  -12.3578  -16.1448 C   0  0  0  0  0  0  0  0  0  0  0  0
   13.2023  -13.2993  -15.5558 C   0  0  0  0  0  0  0  0  0  0  0  0
   11.9822  -13.1956  -16.1240 N   0  0  0  0  0  0  0  0  0  0  0  0
   12.0590  -12.2118  -17.0488 C   0  0  0  0  0  0  0  0  0  0  0  0
   13.2990  -11.7175  -17.0533 N   0  0  0  0  0  0  0  0  0  0  0  0
   17.7748  -12.1646  -16.5637 C   0  0  0  0  0  0  0  0  0  0  0  0
   18.3220  -12.6552  -15.5649 O   0  0  0  0  0  0  0  0  0  0  0  0
   21.8094   -8.3807  -19.3003 N   0  0  0  0  0  0  0  0  0  0  0  0
   21.5131   -9.6387  -18.7302 C   0  0  0  0  0  0  0  0  0  0  0  0
   22.4530  -10.3074  -18.2381 O   0  0  0  0  0  0  0  0  0  0  0  0
   20.1508  -10.1373  -18.7184 C   0  0  0  0  0  0  0  0  0  0  0  0
   19.6412  -10.6105  -17.3571 C   0  0  2  0  0  0  0  0  0  0  0  0
   18.3303  -11.1892  -17.3783 N   0  0  0  0  0  0  0  0  0  0  0  0
   19.5682   -9.3417  -16.5484 C   0  0  0  0  0  0  0  0  0  0  0  0
   18.6231   -8.5236  -16.6957 O   0  0  0  0  0  0  0  0  0  0  0  0
   22.0821   -9.0541  -13.2209 C   0  0  0  0  0  0  0  0  0  0  0  0
   20.8136   -8.2427  -13.3129 C   0  0  2  0  0  0  0  0  0  0  0  0
   19.6680   -9.1009  -12.8552 C   0  0  0  0  0  0  0  0  0  0  0  0
   20.5319   -7.8328  -14.7663 C   0  0  2  0  0  0  0  0  0  0  0  0
   20.5687   -9.0381  -15.5955 N   0  0  0  0  0  0  0  0  0  0  0  0
   21.6302   -6.9279  -15.1629 C   0  0  0  0  0  0  0  0  0  0  0  0
   22.5431   -7.3887  -15.8942 O   0  0  0  0  0  0  0  0  0  0  0  0
   21.7481   -5.6047  -14.7994 O   0  0  0  0  0  0  0  0  0  0  0  0
  2  1  1  1
  2  9  1  0
  3  4  1  0
  3  2  1  0
  4  5  2  0
  4  8  1  0
  5  6  1  0
  6  7  1  0
  8  7  2  0
  9 10  2  0
 11 12  1  0
 12 13  2  0
 12 14  1  0
 15 14  1  6
 15 17  1  0
 16  9  1  0
 16 15  1  0
 17 23  1  0
 17 18  2  0
 20 19  1  6
 20 22  1  0
 21 20  1  0
 22 24  1  0
 22 23  1  6
 24 25  2  0
 24 26  1  0
M  END
$$$$
