HNV.pdb
     RDKit          3D

 26 26  0  0  1  0  0  0  0  0999 V2000
   20.0393  -13.4551  -18.1537 N   0  0  0  0  0  0  0  0  0  0  0  0
   20.5480  -12.1264  -18.3598 C   0  0  1  0  0  0  0  0  0  0  0  0
   20.1364  -11.6367  -19.7223 C   0  0  0  0  0  0  0  0  0  0  0  0
   20.8136  -12.3963  -20.8049 C   0  0  0  0  0  0  0  0  0  0  0  0
   21.7855  -11.8811  -21.6650 C   0  0  0  0  0  0  0  0  0  0  0  0
   22.1674  -12.8569  -22.5159 N   0  0  0  0  0  0  0  0  0  0  0  0
   21.4528  -13.9604  -22.1986 C   0  0  0  0  0  0  0  0  0  0  0  0
   20.6461  -13.6742  -21.1742 N   0  0  0  0  0  0  0  0  0  0  0  0
   19.9138  -11.1757  -17.3567 C   0  0  0  0  0  0  0  0  0  0  0  0
   18.7270  -11.4322  -17.1046 O   0  0  0  0  0  0  0  0  0  0  0  0
   19.6406   -7.3389  -13.7518 N   0  0  0  0  0  0  0  0  0  0  0  0
   20.7968   -8.1331  -13.5849 C   0  0  0  0  0  0  0  0  0  0  0  0
   21.4643   -8.0018  -12.5313 O   0  0  0  0  0  0  0  0  0  0  0  0
   21.1952   -9.0758  -14.6132 C   0  0  0  0  0  0  0  0  0  0  0  0
   20.2535   -9.1677  -15.8138 C   0  0  2  0  0  0  0  0  0  0  0  0
   20.6385  -10.1312  -16.8024 N   0  0  0  0  0  0  0  0  0  0  0  0
   20.3516   -7.8024  -16.4431 C   0  0  0  0  0  0  0  0  0  0  0  0
   21.4003   -7.4231  -17.0265 O   0  0  0  0  0  0  0  0  0  0  0  0
   16.8669   -5.4261  -16.3710 C   0  0  0  0  0  0  0  0  0  0  0  0
   17.8444   -5.2770  -17.5104 C   0  0  2  0  0  0  0  0  0  0  0  0
   17.4800   -6.2678  -18.5798 C   0  0  0  0  0  0  0  0  0  0  0  0
   19.2737   -5.5998  -17.0492 C   0  0  2  0  0  0  0  0  0  0  0  0
   19.2569   -6.9077  -16.3931 N   0  0  0  0  0  0  0  0  0  0  0  0
   19.6375   -4.5593  -16.0655 C   0  0  0  0  0  0  0  0  0  0  0  0
   19.5365   -4.8377  -14.8436 O   0  0  0  0  0  0  0  0  0  0  0  0
   20.0843   -3.2923  -16.3684 O   0  0  0  0  0  0  0  0  0  0  0  0
  2  1  1  1
  2  9  1  0
  3  4  1  0
  3  2  1  0
  4  5  2  0
  4  8  1  0
  5  6  1  0
  6  7  1  0
  8  7  2  0
  9 10  2  0
 11 12  1  0
 12 13  2  0
 12 14  1  0
 15 14  1  1
 15 17  1  0
 16  9  1  0
 16 15  1  0
 17 23  1  0
 17 18  2  0
 20 19  1  1
 20 22  1  0
 21 20  1  0
 22 24  1  0
 22 23  1  1
 24 25  2  0
 24 26  1  0
M  END
$$$$
