HNV.pdb
     RDKit          3D

 26 26  0  0  1  0  0  0  0  0999 V2000
   25.2072  -16.0355  -17.5221 N   0  0  0  0  0  0  0  0  0  0  0  0
   26.0027  -16.7683  -16.5751 C   0  0  1  0  0  0  0  0  0  0  0  0
   27.0228  -15.8493  -15.9583 C   0  0  0  0  0  0  0  0  0  0  0  0
   28.0709  -15.4594  -16.9367 C   0  0  0  0  0  0  0  0  0  0  0  0
   29.1169  -16.2783  -17.3671 C   0  0  0  0  0  0  0  0  0  0  0  0
   29.8679  -15.5875  -18.2508 N   0  0  0  0  0  0  0  0  0  0  0  0
   29.3077  -14.3628  -18.3738 C   0  0  0  0  0  0  0  0  0  0  0  0
   28.2338  -14.2964  -17.5836 N   0  0  0  0  0  0  0  0  0  0  0  0
   25.1214  -17.2519  -15.4341 C   0  0  0  0  0  0  0  0  0  0  0  0
   24.5386  -16.3393  -14.8298 O   0  0  0  0  0  0  0  0  0  0  0  0
   21.7816  -19.7578  -16.6786 N   0  0  0  0  0  0  0  0  0  0  0  0
   22.0516  -19.4909  -15.3181 C   0  0  0  0  0  0  0  0  0  0  0  0
   21.3312  -18.6575  -14.7187 O   0  0  0  0  0  0  0  0  0  0  0  0
   23.1386  -20.1696  -14.6381 C   0  0  0  0  0  0  0  0  0  0  0  0
   24.2503  -19.2597  -14.1157 C   0  0  2  0  0  0  0  0  0  0  0  0
   25.0125  -18.6020  -15.1356 N   0  0  0  0  0  0  0  0  0  0  0  0
   25.1725  -20.2087  -13.3957 C   0  0  0  0  0  0  0  0  0  0  0  0
   25.9376  -20.9843  -14.0260 O   0  0  0  0  0  0  0  0  0  0  0  0
   24.3566  -20.9947   -9.3692 C   0  0  0  0  0  0  0  0  0  0  0  0
   25.8190  -20.9371   -9.7352 C   0  0  2  0  0  0  0  0  0  0  0  0
   26.3232  -19.5495   -9.4547 C   0  0  0  0  0  0  0  0  0  0  0  0
   26.0175  -21.2065  -11.2344 C   0  0  2  0  0  0  0  0  0  0  0  0
   25.2007  -20.2497  -11.9819 N   0  0  0  0  0  0  0  0  0  0  0  0
   25.5210  -22.5761  -11.4795 C   0  0  0  0  0  0  0  0  0  0  0  0
   24.3309  -22.7158  -11.8601 O   0  0  0  0  0  0  0  0  0  0  0  0
   26.2532  -23.7326  -11.3270 O   0  0  0  0  0  0  0  0  0  0  0  0
  2  1  1  6
  2  9  1  0
  3  4  1  0
  3  2  1  0
  4  5  2  0
  4  8  1  0
  5  6  1  0
  6  7  1  0
  8  7  2  0
  9 10  2  0
 11 12  1  0
 12 13  2  0
 12 14  1  0
 15 14  1  6
 15 17  1  0
 16  9  1  0
 16 15  1  0
 17 23  1  0
 17 18  2  0
 20 19  1  6
 20 22  1  0
 21 20  1  0
 22 24  1  0
 22 23  1  6
 24 25  2  0
 24 26  1  0
M  END
$$$$
