HNV.pdb
     RDKit          3D

 26 26  0  0  1  0  0  0  0  0999 V2000
   24.6568  -19.0585  -16.5353 N   0  0  0  0  0  0  0  0  0  0  0  0
   25.6648  -18.9499  -15.5160 C   0  0  1  0  0  0  0  0  0  0  0  0
   26.4712  -17.6985  -15.7383 C   0  0  0  0  0  0  0  0  0  0  0  0
   27.4336  -17.8591  -16.8590 C   0  0  0  0  0  0  0  0  0  0  0  0
   27.6317  -19.0323  -17.5897 C   0  0  0  0  0  0  0  0  0  0  0  0
   28.5810  -18.8032  -18.5216 N   0  0  0  0  0  0  0  0  0  0  0  0
   28.9711  -17.5160  -18.3806 C   0  0  0  0  0  0  0  0  0  0  0  0
   28.2789  -16.9604  -17.3836 N   0  0  0  0  0  0  0  0  0  0  0  0
   25.0013  -18.7923  -14.1569 C   0  0  0  0  0  0  0  0  0  0  0  0
   24.7883  -17.6132  -13.8371 O   0  0  0  0  0  0  0  0  0  0  0  0
   21.8273  -19.6997  -13.8997 N   0  0  0  0  0  0  0  0  0  0  0  0
   21.7865  -20.7835  -12.9948 C   0  0  0  0  0  0  0  0  0  0  0  0
   20.7876  -21.5415  -13.0156 O   0  0  0  0  0  0  0  0  0  0  0  0
   22.8789  -21.0071  -12.0667 C   0  0  0  0  0  0  0  0  0  0  0  0
   24.0040  -19.9737  -12.1227 C   0  0  2  0  0  0  0  0  0  0  0  0
   24.6832  -19.8979  -13.3824 N   0  0  0  0  0  0  0  0  0  0  0  0
   24.9912  -20.4726  -11.0999 C   0  0  0  0  0  0  0  0  0  0  0  0
   25.7967  -21.4026  -11.3652 O   0  0  0  0  0  0  0  0  0  0  0  0
   26.6884  -18.2034   -8.1865 C   0  0  0  0  0  0  0  0  0  0  0  0
   25.9898  -19.4169   -7.6250 C   0  0  2  0  0  0  0  0  0  0  0  0
   26.8567  -20.0067   -6.5484 C   0  0  0  0  0  0  0  0  0  0  0  0
   25.8042  -20.4900   -8.7084 C   0  0  2  0  0  0  0  0  0  0  0  0
   25.0365  -19.9016   -9.8065 N   0  0  0  0  0  0  0  0  0  0  0  0
   25.0209  -21.5771   -8.0862 C   0  0  0  0  0  0  0  0  0  0  0  0
   23.7676  -21.5295   -8.1735 O   0  0  0  0  0  0  0  0  0  0  0  0
   25.5454  -22.6551   -7.4083 O   0  0  0  0  0  0  0  0  0  0  0  0
  2  1  1  6
  2  9  1  0
  3  4  1  0
  3  2  1  0
  4  5  2  0
  4  8  1  0
  5  6  1  0
  6  7  1  0
  8  7  2  0
  9 10  2  0
 11 12  1  0
 12 13  2  0
 12 14  1  0
 15 14  1  6
 15 17  1  0
 16  9  1  0
 16 15  1  0
 17 23  1  0
 17 18  2  0
 20 19  1  6
 20 22  1  0
 21 20  1  0
 22 24  1  0
 22 23  1  6
 24 25  2  0
 24 26  1  0
M  END
$$$$
