HNV.pdb
     RDKit          3D

 26 26  0  0  1  0  0  0  0  0999 V2000
   21.7393  -32.0845   -9.8389 N   0  0  0  0  0  0  0  0  0  0  0  0
   22.0417  -32.2671   -8.4453 C   0  0  1  0  0  0  0  0  0  0  0  0
   23.3081  -31.5280   -8.1051 C   0  0  0  0  0  0  0  0  0  0  0  0
   24.4989  -32.1708   -8.7187 C   0  0  0  0  0  0  0  0  0  0  0  0
   24.4782  -33.3295   -9.4976 C   0  0  0  0  0  0  0  0  0  0  0  0
   25.7416  -33.6146   -9.8778 N   0  0  0  0  0  0  0  0  0  0  0  0
   26.5387  -32.6577   -9.3507 C   0  0  0  0  0  0  0  0  0  0  0  0
   25.7857  -31.7992   -8.6592 N   0  0  0  0  0  0  0  0  0  0  0  0
   20.9441  -31.6420   -7.5986 C   0  0  0  0  0  0  0  0  0  0  0  0
   20.5654  -30.5343   -8.0076 O   0  0  0  0  0  0  0  0  0  0  0  0
   20.5980  -34.3163   -4.7307 N   0  0  0  0  0  0  0  0  0  0  0  0
   19.1866  -34.2594   -4.7397 C   0  0  0  0  0  0  0  0  0  0  0  0
   18.5455  -35.2912   -4.4281 O   0  0  0  0  0  0  0  0  0  0  0  0
   18.5032  -33.0320   -5.1019 C   0  0  0  0  0  0  0  0  0  0  0  0
   19.4104  -31.8944   -5.5708 C   0  0  2  0  0  0  0  0  0  0  0  0
   20.4450  -32.2915   -6.4794 N   0  0  0  0  0  0  0  0  0  0  0  0
   20.0717  -31.4257   -4.3010 C   0  0  0  0  0  0  0  0  0  0  0  0
   21.1076  -31.9852   -3.8560 O   0  0  0  0  0  0  0  0  0  0  0  0
   19.4047  -27.5245   -3.0575 C   0  0  0  0  0  0  0  0  0  0  0  0
   19.4135  -28.5398   -1.9418 C   0  0  2  0  0  0  0  0  0  0  0  0
   20.1416  -27.9477   -0.7681 C   0  0  0  0  0  0  0  0  0  0  0  0
   20.1711  -29.8078   -2.3636 C   0  0  2  0  0  0  0  0  0  0  0  0
   19.5393  -30.3355   -3.5735 N   0  0  0  0  0  0  0  0  0  0  0  0
   20.0076  -30.7759   -1.2596 C   0  0  0  0  0  0  0  0  0  0  0  0
   19.0290  -31.5641   -1.3026 O   0  0  0  0  0  0  0  0  0  0  0  0
   20.8415  -30.8964   -0.1702 O   0  0  0  0  0  0  0  0  0  0  0  0
  2  1  1  6
  2  9  1  0
  3  4  1  0
  3  2  1  0
  4  5  2  0
  4  8  1  0
  5  6  1  0
  6  7  1  0
  8  7  2  0
  9 10  2  0
 11 12  1  0
 12 13  2  0
 12 14  1  0
 15 14  1  1
 15 17  1  0
 16  9  1  0
 16 15  1  0
 17 23  1  0
 17 18  2  0
 20 19  1  6
 20 22  1  0
 21 20  1  0
 22 24  1  0
 22 23  1  6
 24 25  2  0
 24 26  1  0
M  END
$$$$
