HNV.pdb
     RDKit          3D

 26 26  0  0  1  0  0  0  0  0999 V2000
   28.3660  -21.7300  -16.9824 N   0  0  0  0  0  0  0  0  0  0  0  0
   28.0426  -20.6537  -16.0858 C   0  0  1  0  0  0  0  0  0  0  0  0
   27.4168  -19.5252  -16.8608 C   0  0  0  0  0  0  0  0  0  0  0  0
   28.4281  -18.7767  -17.6512 C   0  0  0  0  0  0  0  0  0  0  0  0
   28.8911  -19.1391  -18.9177 C   0  0  0  0  0  0  0  0  0  0  0  0
   29.8020  -18.2276  -19.3195 N   0  0  0  0  0  0  0  0  0  0  0  0
   29.9097  -17.3130  -18.3291 C   0  0  0  0  0  0  0  0  0  0  0  0
   29.0840  -17.6507  -17.3360 N   0  0  0  0  0  0  0  0  0  0  0  0
   26.9929  -21.1181  -15.0885 C   0  0  0  0  0  0  0  0  0  0  0  0
   26.2324  -21.9915  -15.5319 O   0  0  0  0  0  0  0  0  0  0  0  0
   24.5018  -21.5013  -10.4410 N   0  0  0  0  0  0  0  0  0  0  0  0
   25.6520  -20.7047  -10.2467 C   0  0  0  0  0  0  0  0  0  0  0  0
   25.9492  -20.3603   -9.0779 O   0  0  0  0  0  0  0  0  0  0  0  0
   26.4645  -20.2992  -11.3781 C   0  0  0  0  0  0  0  0  0  0  0  0
   26.0501  -20.8925  -12.7245 C   0  0  2  0  0  0  0  0  0  0  0  0
   26.9322  -20.5826  -13.8106 N   0  0  0  0  0  0  0  0  0  0  0  0
   24.7262  -20.2318  -13.0076 C   0  0  0  0  0  0  0  0  0  0  0  0
   24.6364  -18.9873  -13.1730 O   0  0  0  0  0  0  0  0  0  0  0  0
   21.8595  -22.2770  -14.9996 C   0  0  0  0  0  0  0  0  0  0  0  0
   21.8292  -20.7815  -14.8038 C   0  0  2  0  0  0  0  0  0  0  0  0
   22.8366  -20.1618  -15.7308 C   0  0  0  0  0  0  0  0  0  0  0  0
   22.2324  -20.4105  -13.3687 C   0  0  2  0  0  0  0  0  0  0  0  0
   23.5428  -21.0020  -13.0957 N   0  0  0  0  0  0  0  0  0  0  0  0
   21.2212  -21.0218  -12.4820 C   0  0  0  0  0  0  0  0  0  0  0  0
   20.0937  -20.4716  -12.4011 O   0  0  0  0  0  0  0  0  0  0  0  0
   21.4027  -22.1571  -11.7237 O   0  0  0  0  0  0  0  0  0  0  0  0
  2  1  1  6
  2  9  1  0
  3  4  1  0
  3  2  1  0
  4  5  2  0
  4  8  1  0
  5  6  1  0
  6  7  1  0
  8  7  2  0
  9 10  2  0
 11 12  1  0
 12 13  2  0
 12 14  1  0
 15 14  1  1
 15 17  1  0
 16  9  1  0
 16 15  1  0
 17 23  1  0
 17 18  2  0
 20 19  1  1
 20 22  1  0
 21 20  1  0
 22 24  1  0
 22 23  1  1
 24 25  2  0
 24 26  1  0
M  END
$$$$
