HNV.pdb
     RDKit          3D

 26 26  0  0  1  0  0  0  0  0999 V2000
   23.3322  -13.6215  -17.7855 N   0  0  0  0  0  0  0  0  0  0  0  0
   23.4637  -12.7716  -16.6334 C   0  0  1  0  0  0  0  0  0  0  0  0
   24.8975  -12.3364  -16.4912 C   0  0  0  0  0  0  0  0  0  0  0  0
   25.8040  -13.4959  -16.2871 C   0  0  0  0  0  0  0  0  0  0  0  0
   25.8222  -14.3160  -15.1571 C   0  0  0  0  0  0  0  0  0  0  0  0
   26.7738  -15.2585  -15.3252 N   0  0  0  0  0  0  0  0  0  0  0  0
   27.3411  -15.0368  -16.5327 C   0  0  0  0  0  0  0  0  0  0  0  0
   26.7540  -13.9804  -17.0996 N   0  0  0  0  0  0  0  0  0  0  0  0
   22.6526  -11.5022  -16.8405 C   0  0  0  0  0  0  0  0  0  0  0  0
   22.7558  -11.0218  -17.9790 O   0  0  0  0  0  0  0  0  0  0  0  0
   18.8866  -11.6392  -16.7200 N   0  0  0  0  0  0  0  0  0  0  0  0
   18.7122  -11.0243  -15.4603 C   0  0  0  0  0  0  0  0  0  0  0  0
   17.6776  -11.2914  -14.8038 O   0  0  0  0  0  0  0  0  0  0  0  0
   19.7115  -10.1070  -14.9460 C   0  0  0  0  0  0  0  0  0  0  0  0
   20.9300   -9.8988  -15.8454 C   0  0  2  0  0  0  0  0  0  0  0  0
   21.8828  -10.9690  -15.8174 N   0  0  0  0  0  0  0  0  0  0  0  0
   21.5942   -8.6794  -15.2611 C   0  0  0  0  0  0  0  0  0  0  0  0
   22.2652   -8.7441  -14.1982 O   0  0  0  0  0  0  0  0  0  0  0  0
   23.2422   -5.9305  -17.6714 C   0  0  0  0  0  0  0  0  0  0  0  0
   22.3775   -5.2828  -16.6185 C   0  0  2  0  0  0  0  0  0  0  0  0
   23.0855   -4.0579  -16.1118 C   0  0  0  0  0  0  0  0  0  0  0  0
   22.1737   -6.2261  -15.4234 C   0  0  2  0  0  0  0  0  0  0  0  0
   21.4788   -7.4225  -15.9000 N   0  0  0  0  0  0  0  0  0  0  0  0
   21.3112   -5.5034  -14.4662 C   0  0  0  0  0  0  0  0  0  0  0  0
   21.8504   -4.6692  -13.6955 O   0  0  0  0  0  0  0  0  0  0  0  0
   19.9491   -5.6618  -14.3382 O   0  0  0  0  0  0  0  0  0  0  0  0
  2  1  1  6
  2  9  1  0
  3  4  1  0
  3  2  1  0
  4  5  2  0
  4  8  1  0
  5  6  1  0
  6  7  1  0
  8  7  2  0
  9 10  2  0
 11 12  1  0
 12 13  2  0
 12 14  1  0
 15 14  1  1
 15 17  1  0
 16  9  1  0
 16 15  1  0
 17 23  1  0
 17 18  2  0
 20 19  1  6
 20 22  1  0
 21 20  1  0
 22 24  1  0
 22 23  1  6
 24 25  2  0
 24 26  1  0
M  END
$$$$
