HNV.pdb
     RDKit          3D

 26 26  0  0  1  0  0  0  0  0999 V2000
   24.1972  -13.1565  -19.6243 N   0  0  0  0  0  0  0  0  0  0  0  0
   22.9675  -12.4179  -19.5285 C   0  0  1  0  0  0  0  0  0  0  0  0
   21.9101  -13.2827  -18.8964 C   0  0  0  0  0  0  0  0  0  0  0  0
   21.4979  -14.3902  -19.7971 C   0  0  0  0  0  0  0  0  0  0  0  0
   21.7652  -15.7441  -19.5847 C   0  0  0  0  0  0  0  0  0  0  0  0
   21.2416  -16.4515  -20.6082 N   0  0  0  0  0  0  0  0  0  0  0  0
   20.6583  -15.5635  -21.4450 C   0  0  0  0  0  0  0  0  0  0  0  0
   20.8174  -14.3337  -20.9509 N   0  0  0  0  0  0  0  0  0  0  0  0
   23.1568  -11.2297  -18.5987 C   0  0  0  0  0  0  0  0  0  0  0  0
   23.7543  -11.5062  -17.5478 O   0  0  0  0  0  0  0  0  0  0  0  0
   24.8060   -7.6789  -19.9277 N   0  0  0  0  0  0  0  0  0  0  0  0
   23.5448   -7.0434  -19.9557 C   0  0  0  0  0  0  0  0  0  0  0  0
   23.3744   -6.0898  -20.7521 O   0  0  0  0  0  0  0  0  0  0  0  0
   22.4776   -7.4901  -19.0803 C   0  0  0  0  0  0  0  0  0  0  0  0
   22.7981   -8.7256  -18.2392 C   0  0  2  0  0  0  0  0  0  0  0  0
   22.6856   -9.9707  -18.9399 N   0  0  0  0  0  0  0  0  0  0  0  0
   21.7393   -8.7062  -17.1678 C   0  0  0  0  0  0  0  0  0  0  0  0
   20.5668   -9.1023  -17.3974 O   0  0  0  0  0  0  0  0  0  0  0  0
   21.7308  -10.5297  -14.0955 C   0  0  0  0  0  0  0  0  0  0  0  0
   21.5792   -9.0988  -13.6424 C   0  0  2  0  0  0  0  0  0  0  0  0
   20.5618   -9.0571  -12.5372 C   0  0  0  0  0  0  0  0  0  0  0  0
   21.0556   -8.2167  -14.7858 C   0  0  2  0  0  0  0  0  0  0  0  0
   22.0413   -8.2389  -15.8672 N   0  0  0  0  0  0  0  0  0  0  0  0
   20.9528   -6.8476  -14.2404 C   0  0  0  0  0  0  0  0  0  0  0  0
   21.9661   -6.1062  -14.3050 O   0  0  0  0  0  0  0  0  0  0  0  0
   19.8313   -6.2997  -13.6583 O   0  0  0  0  0  0  0  0  0  0  0  0
  2  1  1  1
  2  9  1  0
  3  4  1  0
  3  2  1  0
  4  5  2  0
  4  8  1  0
  5  6  1  0
  6  7  1  0
  8  7  2  0
  9 10  2  0
 11 12  1  0
 12 13  2  0
 12 14  1  0
 15 14  1  6
 15 17  1  0
 16  9  1  0
 16 15  1  0
 17 23  1  0
 17 18  2  0
 20 19  1  6
 20 22  1  0
 21 20  1  0
 22 24  1  0
 22 23  1  6
 24 25  2  0
 24 26  1  0
M  END
$$$$
