HNV.pdb
     RDKit          3D

 26 26  0  0  1  0  0  0  0  0999 V2000
   24.9543  -18.4199  -17.9797 N   0  0  0  0  0  0  0  0  0  0  0  0
   23.6468  -18.8744  -18.3679 C   0  0  1  0  0  0  0  0  0  0  0  0
   23.7626  -20.2071  -19.0580 C   0  0  0  0  0  0  0  0  0  0  0  0
   24.5590  -20.1088  -20.3085 C   0  0  0  0  0  0  0  0  0  0  0  0
   24.0443  -19.8051  -21.5705 C   0  0  0  0  0  0  0  0  0  0  0  0
   25.0590  -19.8071  -22.4606 N   0  0  0  0  0  0  0  0  0  0  0  0
   26.1860  -20.1048  -21.7749 C   0  0  0  0  0  0  0  0  0  0  0  0
   25.8760  -20.2835  -20.4888 N   0  0  0  0  0  0  0  0  0  0  0  0
   22.7993  -19.1102  -17.1276 C   0  0  0  0  0  0  0  0  0  0  0  0
   23.0236  -20.1928  -16.5659 O   0  0  0  0  0  0  0  0  0  0  0  0
   19.8080  -17.7325  -12.7930 N   0  0  0  0  0  0  0  0  0  0  0  0
   19.6728  -16.8712  -13.9044 C   0  0  0  0  0  0  0  0  0  0  0  0
   18.6682  -16.1225  -13.9607 O   0  0  0  0  0  0  0  0  0  0  0  0
   20.6772  -16.8594  -14.9511 C   0  0  0  0  0  0  0  0  0  0  0  0
   20.9546  -18.2135  -15.6039 C   0  0  2  0  0  0  0  0  0  0  0  0
   21.8726  -18.1694  -16.7036 N   0  0  0  0  0  0  0  0  0  0  0  0
   19.6106  -18.6246  -16.1462 C   0  0  0  0  0  0  0  0  0  0  0  0
   19.1258  -18.0855  -17.1750 O   0  0  0  0  0  0  0  0  0  0  0  0
   18.2335  -22.3847  -16.3770 C   0  0  0  0  0  0  0  0  0  0  0  0
   17.3001  -21.4997  -15.5887 C   0  0  2  0  0  0  0  0  0  0  0  0
   15.8871  -21.8533  -15.9584 C   0  0  0  0  0  0  0  0  0  0  0  0
   17.5155  -20.0218  -15.9479 C   0  0  2  0  0  0  0  0  0  0  0  0
   18.8562  -19.6358  -15.5062 N   0  0  0  0  0  0  0  0  0  0  0  0
   16.5064  -19.2579  -15.1860 C   0  0  0  0  0  0  0  0  0  0  0  0
   15.3548  -19.1431  -15.6773 O   0  0  0  0  0  0  0  0  0  0  0  0
   16.7141  -18.6501  -13.9677 O   0  0  0  0  0  0  0  0  0  0  0  0
  2  1  1  1
  2  9  1  0
  3  4  1  0
  3  2  1  0
  4  5  2  0
  4  8  1  0
  5  6  1  0
  6  7  1  0
  8  7  2  0
  9 10  2  0
 11 12  1  0
 12 13  2  0
 12 14  1  0
 15 14  1  6
 15 17  1  0
 16  9  1  0
 16 15  1  0
 17 23  1  0
 17 18  2  0
 20 19  1  6
 20 22  1  0
 21 20  1  0
 22 24  1  0
 22 23  1  1
 24 25  2  0
 24 26  1  0
M  END
$$$$
