HNV.pdb
     RDKit          3D

 26 26  0  0  1  0  0  0  0  0999 V2000
   25.9092  -19.1712  -18.6236 N   0  0  0  0  0  0  0  0  0  0  0  0
   24.5113  -19.3942  -18.8746 C   0  0  1  0  0  0  0  0  0  0  0  0
   24.3506  -20.5348  -19.8436 C   0  0  0  0  0  0  0  0  0  0  0  0
   24.8803  -20.1897  -21.1883 C   0  0  0  0  0  0  0  0  0  0  0  0
   26.0082  -20.7605  -21.7814 C   0  0  0  0  0  0  0  0  0  0  0  0
   26.1845  -20.2006  -22.9970 N   0  0  0  0  0  0  0  0  0  0  0  0
   25.1909  -19.2987  -23.1648 C   0  0  0  0  0  0  0  0  0  0  0  0
   24.4165  -19.2998  -22.0774 N   0  0  0  0  0  0  0  0  0  0  0  0
   23.8248  -19.8285  -17.5891 C   0  0  0  0  0  0  0  0  0  0  0  0
   24.4996  -20.6073  -16.8993 O   0  0  0  0  0  0  0  0  0  0  0  0
   21.2978  -19.6886  -13.0746 N   0  0  0  0  0  0  0  0  0  0  0  0
   21.0102  -18.5750  -13.8946 C   0  0  0  0  0  0  0  0  0  0  0  0
   20.1144  -17.7781  -13.5265 O   0  0  0  0  0  0  0  0  0  0  0  0
   21.7388  -18.3657  -15.1315 C   0  0  0  0  0  0  0  0  0  0  0  0
   21.7847  -19.5693  -16.0728 C   0  0  2  0  0  0  0  0  0  0  0  0
   22.5581  -19.3678  -17.2625 N   0  0  0  0  0  0  0  0  0  0  0  0
   20.3472  -19.7475  -16.4864 C   0  0  0  0  0  0  0  0  0  0  0  0
   19.8061  -18.9806  -17.3250 O   0  0  0  0  0  0  0  0  0  0  0  0
   17.7922  -22.7681  -14.5760 C   0  0  0  0  0  0  0  0  0  0  0  0
   17.8785  -22.5348  -16.0639 C   0  0  2  0  0  0  0  0  0  0  0  0
   19.0097  -23.3609  -16.6081 C   0  0  0  0  0  0  0  0  0  0  0  0
   18.1936  -21.0625  -16.3683 C   0  0  2  0  0  0  0  0  0  0  0  0
   19.5655  -20.7910  -15.9374 N   0  0  0  0  0  0  0  0  0  0  0  0
   17.2543  -20.2606  -15.5576 C   0  0  0  0  0  0  0  0  0  0  0  0
   17.6588  -19.8083  -14.4564 O   0  0  0  0  0  0  0  0  0  0  0  0
   15.9557  -19.9581  -15.9022 O   0  0  0  0  0  0  0  0  0  0  0  0
  2  1  1  1
  2  9  1  0
  3  4  1  0
  3  2  1  0
  4  5  2  0
  4  8  1  0
  5  6  1  0
  6  7  1  0
  8  7  2  0
  9 10  2  0
 11 12  1  0
 12 13  2  0
 12 14  1  0
 15 14  1  1
 15 17  1  0
 16  9  1  0
 16 15  1  0
 17 23  1  0
 17 18  2  0
 20 19  1  1
 20 22  1  0
 21 20  1  0
 22 24  1  0
 22 23  1  1
 24 25  2  0
 24 26  1  0
M  END
$$$$
