HNV.pdb
     RDKit          3D

 26 26  0  0  1  0  0  0  0  0999 V2000
   20.1090  -12.0630  -17.4439 N   0  0  0  0  0  0  0  0  0  0  0  0
   19.8524  -10.7508  -17.9721 C   0  0  1  0  0  0  0  0  0  0  0  0
   18.5812  -10.7734  -18.7777 C   0  0  0  0  0  0  0  0  0  0  0  0
   18.7399  -11.5581  -20.0294 C   0  0  0  0  0  0  0  0  0  0  0  0
   18.8896  -12.9447  -20.0983 C   0  0  0  0  0  0  0  0  0  0  0  0
   19.0086  -13.3004  -21.3950 N   0  0  0  0  0  0  0  0  0  0  0  0
   18.9353  -12.1643  -22.1250 C   0  0  0  0  0  0  0  0  0  0  0  0
   18.7748  -11.1281  -21.2989 N   0  0  0  0  0  0  0  0  0  0  0  0
   19.6136   -9.7779  -16.8282 C   0  0  0  0  0  0  0  0  0  0  0  0
   18.7317  -10.1424  -16.0363 O   0  0  0  0  0  0  0  0  0  0  0  0
   22.6973   -9.5535  -14.0817 N   0  0  0  0  0  0  0  0  0  0  0  0
   21.7165   -8.5561  -13.8851 C   0  0  0  0  0  0  0  0  0  0  0  0
   20.9969   -8.6203  -12.8600 O   0  0  0  0  0  0  0  0  0  0  0  0
   21.5526   -7.4865  -14.8514 C   0  0  0  0  0  0  0  0  0  0  0  0
   20.2986   -7.5795  -15.7207 C   0  0  2  0  0  0  0  0  0  0  0  0
   20.3418   -8.6021  -16.7239 N   0  0  0  0  0  0  0  0  0  0  0  0
   20.2595   -6.2486  -16.4254 C   0  0  0  0  0  0  0  0  0  0  0  0
   21.0696   -5.9710  -17.3478 O   0  0  0  0  0  0  0  0  0  0  0  0
   17.7730   -2.7841  -18.4471 C   0  0  0  0  0  0  0  0  0  0  0  0
   18.0689   -4.1200  -17.8118 C   0  0  2  0  0  0  0  0  0  0  0  0
   16.8297   -4.5938  -17.1060 C   0  0  0  0  0  0  0  0  0  0  0  0
   19.1793   -3.9896  -16.7584 C   0  0  2  0  0  0  0  0  0  0  0  0
   19.3022   -5.2719  -16.0639 N   0  0  0  0  0  0  0  0  0  0  0  0
   18.7285   -2.9542  -15.8058 C   0  0  0  0  0  0  0  0  0  0  0  0
   18.0088   -3.3115  -14.8389 O   0  0  0  0  0  0  0  0  0  0  0  0
   19.0287   -1.6122  -15.8807 O   0  0  0  0  0  0  0  0  0  0  0  0
  2  1  1  1
  2  9  1  0
  3  4  1  0
  3  2  1  0
  4  5  2  0
  4  8  1  0
  5  6  1  0
  6  7  1  0
  8  7  2  0
  9 10  2  0
 11 12  1  0
 12 13  2  0
 12 14  1  0
 15 14  1  1
 15 17  1  0
 16  9  1  0
 16 15  1  0
 17 23  1  0
 17 18  2  0
 20 19  1  1
 20 22  1  0
 21 20  1  0
 22 24  1  0
 22 23  1  1
 24 25  2  0
 24 26  1  0
M  END
$$$$
