FYF.pdb
     RDKit          3D

 35 37  0  0  1  0  0  0  0  0999 V2000
   28.5922  -20.1623  -12.0215 N   0  0  0  0  0  0  0  0  0  0  0  0
   27.4147  -20.9411  -11.7908 C   0  0  1  0  0  0  0  0  0  0  0  0
   26.9181  -20.7298  -10.3637 C   0  0  0  0  0  0  0  0  0  0  0  0
   28.0448  -21.0151   -9.4311 C   0  0  0  0  0  0  0  0  0  0  0  0
   29.0440  -21.9079   -9.7216 C   0  0  0  0  0  0  0  0  0  0  0  0
   30.0667  -22.1410   -8.8299 C   0  0  0  0  0  0  0  0  0  0  0  0
   30.1142  -21.4802   -7.6155 C   0  0  0  0  0  0  0  0  0  0  0  0
   29.1223  -20.5810   -7.3044 C   0  0  0  0  0  0  0  0  0  0  0  0
   28.1029  -20.3533   -8.2013 C   0  0  0  0  0  0  0  0  0  0  0  0
   26.3124  -20.5726  -12.7369 C   0  0  0  0  0  0  0  0  0  0  0  0
   26.0964  -19.3765  -13.0552 O   0  0  0  0  0  0  0  0  0  0  0  0
   28.7994  -19.3662  -18.3804 O   0  0  0  0  0  0  0  0  0  0  0  0
   27.7708  -19.9941  -17.6926 C   0  0  0  0  0  0  0  0  0  0  0  0
   26.4528  -19.6252  -17.8773 C   0  0  0  0  0  0  0  0  0  0  0  0
   25.4628  -20.2909  -17.1596 C   0  0  0  0  0  0  0  0  0  0  0  0
   25.8066  -21.3009  -16.2812 C   0  0  0  0  0  0  0  0  0  0  0  0
   24.7350  -21.9778  -15.5439 C   0  0  0  0  0  0  0  0  0  0  0  0
   24.4043  -21.2679  -14.2237 C   0  0  2  0  0  0  0  0  0  0  0  0
   25.4739  -21.5914  -13.3031 N   0  0  0  0  0  0  0  0  0  0  0  0
   23.1010  -21.8430  -13.7458 C   0  0  0  0  0  0  0  0  0  0  0  0
   22.9853  -23.0391  -13.3791 O   0  0  0  0  0  0  0  0  0  0  0  0
   27.1185  -21.6741  -16.0918 C   0  0  0  0  0  0  0  0  0  0  0  0
   28.1001  -21.0016  -16.8149 C   0  0  0  0  0  0  0  0  0  0  0  0
   21.9346  -21.0341  -13.6930 N   0  0  0  0  0  0  0  0  0  0  0  0
   20.7195  -21.4358  -12.9917 C   0  0  1  0  0  0  0  0  0  0  0  0
   20.4060  -20.5308  -11.8557 C   0  0  0  0  0  0  0  0  0  0  0  0
   21.2944  -20.7735  -10.7191 C   0  0  0  0  0  0  0  0  0  0  0  0
   22.5121  -20.1575  -10.6440 C   0  0  0  0  0  0  0  0  0  0  0  0
   23.3394  -20.3949   -9.5515 C   0  0  0  0  0  0  0  0  0  0  0  0
   22.9300  -21.2457   -8.5549 C   0  0  0  0  0  0  0  0  0  0  0  0
   21.7155  -21.8659   -8.6212 C   0  0  0  0  0  0  0  0  0  0  0  0
   20.9020  -21.6196   -9.7156 C   0  0  0  0  0  0  0  0  0  0  0  0
   19.6203  -21.4335  -13.9667 C   0  0  0  0  0  0  0  0  0  0  0  0
   18.4684  -21.8995  -13.7827 O   0  0  0  0  0  0  0  0  0  0  0  0
   19.8333  -20.8717  -15.2242 O   0  0  0  0  0  0  0  0  0  0  0  0
  2  1  1  6
  2  3  1  0
  3  4  1  0
  4  9  1  0
  5  4  2  0
  5  6  1  0
  6  7  2  0
  7  8  1  0
  9  8  2  0
 10 11  2  0
 10  2  1  0
 12 13  1  0
 13 14  2  0
 14 15  1  0
 16 15  2  0
 16 17  1  0
 18 17  1  6
 18 19  1  0
 19 10  1  0
 20 18  1  0
 21 20  2  0
 22 16  1  0
 23 13  1  0
 23 22  2  0
 24 20  1  0
 25 24  1  0
 25 26  1  1
 26 27  1  0
 27 32  1  0
 28 27  2  0
 28 29  1  0
 29 30  2  0
 30 31  1  0
 32 31  2  0
 33 35  1  0
 33 25  1  0
 34 33  2  0
M  END
$$$$
