FYF.pdb
     RDKit          3D

 35 37  0  0  1  0  0  0  0  0999 V2000
   25.7722  -17.7775  -19.6094 N   0  0  0  0  0  0  0  0  0  0  0  0
   25.6660  -18.2868  -18.2768 C   0  0  1  0  0  0  0  0  0  0  0  0
   26.1940  -17.2598  -17.2798 C   0  0  0  0  0  0  0  0  0  0  0  0
   27.6639  -17.1243  -17.4847 C   0  0  0  0  0  0  0  0  0  0  0  0
   28.2577  -15.9473  -17.8617 C   0  0  0  0  0  0  0  0  0  0  0  0
   29.6206  -15.8671  -18.0397 C   0  0  0  0  0  0  0  0  0  0  0  0
   30.4286  -16.9725  -17.8428 C   0  0  0  0  0  0  0  0  0  0  0  0
   29.8535  -18.1623  -17.4646 C   0  0  0  0  0  0  0  0  0  0  0  0
   28.4899  -18.2346  -17.2886 C   0  0  0  0  0  0  0  0  0  0  0  0
   24.2471  -18.6106  -17.9190 C   0  0  0  0  0  0  0  0  0  0  0  0
   23.3127  -17.8048  -18.1560 O   0  0  0  0  0  0  0  0  0  0  0  0
   21.0564  -20.6310  -23.1231 O   0  0  0  0  0  0  0  0  0  0  0  0
   21.3888  -20.8544  -21.7946 C   0  0  0  0  0  0  0  0  0  0  0  0
   22.7037  -20.9967  -21.3969 C   0  0  0  0  0  0  0  0  0  0  0  0
   22.9771  -21.2193  -20.0501 C   0  0  0  0  0  0  0  0  0  0  0  0
   21.9417  -21.2945  -19.1378 C   0  0  0  0  0  0  0  0  0  0  0  0
   22.2707  -21.5302  -17.7285 C   0  0  0  0  0  0  0  0  0  0  0  0
   22.5606  -20.2237  -16.9765 C   0  0  2  0  0  0  0  0  0  0  0  0
   23.9266  -19.8618  -17.2917 N   0  0  0  0  0  0  0  0  0  0  0  0
   22.4182  -20.5340  -15.5133 C   0  0  0  0  0  0  0  0  0  0  0  0
   23.1836  -21.3306  -14.9147 O   0  0  0  0  0  0  0  0  0  0  0  0
   20.6283  -21.1536  -19.5268 C   0  0  0  0  0  0  0  0  0  0  0  0
   20.3667  -20.9313  -20.8762 C   0  0  0  0  0  0  0  0  0  0  0  0
   21.3913  -19.9229  -14.7453 N   0  0  0  0  0  0  0  0  0  0  0  0
   21.2280  -20.1490  -13.3130 C   0  0  1  0  0  0  0  0  0  0  0  0
   20.4493  -19.0637  -12.6620 C   0  0  0  0  0  0  0  0  0  0  0  0
   20.2320  -19.3407  -11.2421 C   0  0  0  0  0  0  0  0  0  0  0  0
   19.1145  -20.0088  -10.8267 C   0  0  0  0  0  0  0  0  0  0  0  0
   18.9295  -20.2696   -9.4732 C   0  0  0  0  0  0  0  0  0  0  0  0
   19.8686  -19.8552   -8.5616 C   0  0  0  0  0  0  0  0  0  0  0  0
   20.9880  -19.1869   -8.9669 C   0  0  0  0  0  0  0  0  0  0  0  0
   21.1589  -18.9343  -10.3187 C   0  0  0  0  0  0  0  0  0  0  0  0
   20.5495  -21.4408  -13.1398 C   0  0  0  0  0  0  0  0  0  0  0  0
   19.5661  -21.8538  -13.8034 O   0  0  0  0  0  0  0  0  0  0  0  0
   21.0079  -22.3190  -12.1596 O   0  0  0  0  0  0  0  0  0  0  0  0
  2  1  1  6
  2  3  1  0
  3  4  1  0
  4  9  1  0
  5  4  2  0
  5  6  1  0
  6  7  2  0
  7  8  1  0
  9  8  2  0
 10 11  2  0
 10  2  1  0
 12 13  1  0
 13 14  2  0
 14 15  1  0
 16 15  2  0
 16 17  1  0
 18 17  1  6
 18 19  1  0
 19 10  1  0
 20 18  1  0
 21 20  2  0
 22 16  1  0
 23 13  1  0
 23 22  2  0
 24 20  1  0
 25 24  1  0
 25 26  1  6
 26 27  1  0
 27 32  1  0
 28 27  2  0
 28 29  1  0
 29 30  2  0
 30 31  1  0
 32 31  2  0
 33 35  1  0
 33 25  1  0
 34 33  2  0
M  END
$$$$
