FYF.pdb
     RDKit          3D

 35 37  0  0  1  0  0  0  0  0999 V2000
   25.4900  -18.3598  -15.6181 N   0  0  0  0  0  0  0  0  0  0  0  0
   26.4501  -18.6141  -14.5885 C   0  0  1  0  0  0  0  0  0  0  0  0
   27.2484  -17.3481  -14.2924 C   0  0  0  0  0  0  0  0  0  0  0  0
   28.1134  -17.0563  -15.4703 C   0  0  0  0  0  0  0  0  0  0  0  0
   28.0199  -15.8951  -16.1933 C   0  0  0  0  0  0  0  0  0  0  0  0
   28.8399  -15.6668  -17.2754 C   0  0  0  0  0  0  0  0  0  0  0  0
   29.7811  -16.6034  -17.6632 C   0  0  0  0  0  0  0  0  0  0  0  0
   29.8913  -17.7745  -16.9520 C   0  0  0  0  0  0  0  0  0  0  0  0
   29.0679  -17.9956  -15.8710 C   0  0  0  0  0  0  0  0  0  0  0  0
   25.7947  -19.0702  -13.3202 C   0  0  0  0  0  0  0  0  0  0  0  0
   24.8385  -18.4327  -12.8124 O   0  0  0  0  0  0  0  0  0  0  0  0
   20.7705  -22.2245  -15.3741 O   0  0  0  0  0  0  0  0  0  0  0  0
   21.8688  -22.2277  -14.5261 C   0  0  0  0  0  0  0  0  0  0  0  0
   23.1367  -22.5127  -14.9936 C   0  0  0  0  0  0  0  0  0  0  0  0
   24.2011  -22.5012  -14.0962 C   0  0  0  0  0  0  0  0  0  0  0  0
   23.9790  -22.2081  -12.7640 C   0  0  0  0  0  0  0  0  0  0  0  0
   25.1258  -22.2061  -11.8504 C   0  0  0  0  0  0  0  0  0  0  0  0
   25.5745  -20.7831  -11.4894 C   0  0  2  0  0  0  0  0  0  0  0  0
   26.2532  -20.2572  -12.6552 N   0  0  0  0  0  0  0  0  0  0  0  0
   26.5279  -20.9171  -10.3359 C   0  0  0  0  0  0  0  0  0  0  0  0
   27.5368  -21.6648  -10.3776 O   0  0  0  0  0  0  0  0  0  0  0  0
   22.7177  -21.9230  -12.2907 C   0  0  0  0  0  0  0  0  0  0  0  0
   21.6608  -21.9374  -13.1971 C   0  0  0  0  0  0  0  0  0  0  0  0
   26.3129  -20.1865   -9.1368 N   0  0  0  0  0  0  0  0  0  0  0  0
   27.0687  -20.4280   -7.9122 C   0  0  1  0  0  0  0  0  0  0  0  0
   27.6322  -19.1742   -7.3478 C   0  0  0  0  0  0  0  0  0  0  0  0
   28.2311  -19.4028   -6.0329 C   0  0  0  0  0  0  0  0  0  0  0  0
   29.3280  -20.2069   -5.8983 C   0  0  0  0  0  0  0  0  0  0  0  0
   29.8879  -20.4057   -4.6408 C   0  0  0  0  0  0  0  0  0  0  0  0
   29.3371  -19.7946   -3.5418 C   0  0  0  0  0  0  0  0  0  0  0  0
   28.2413  -18.9898   -3.6662 C   0  0  0  0  0  0  0  0  0  0  0  0
   27.6943  -18.8010   -4.9254 C   0  0  0  0  0  0  0  0  0  0  0  0
   26.1615  -21.0621   -6.9458 C   0  0  0  0  0  0  0  0  0  0  0  0
   24.9084  -20.9742   -6.9408 O   0  0  0  0  0  0  0  0  0  0  0  0
   26.7002  -21.8422   -5.9242 O   0  0  0  0  0  0  0  0  0  0  0  0
  2  1  1  6
  2  3  1  0
  3  4  1  0
  4  9  1  0
  5  4  2  0
  5  6  1  0
  6  7  2  0
  7  8  1  0
  9  8  2  0
 10 11  2  0
 10  2  1  0
 12 13  1  0
 13 14  2  0
 14 15  1  0
 16 15  2  0
 16 17  1  0
 18 17  1  6
 18 19  1  0
 19 10  1  0
 20 18  1  0
 21 20  2  0
 22 16  1  0
 23 13  1  0
 23 22  2  0
 24 20  1  0
 25 24  1  0
 25 26  1  1
 26 27  1  0
 27 32  1  0
 28 27  2  0
 28 29  1  0
 29 30  2  0
 30 31  1  0
 32 31  2  0
 33 35  1  0
 33 25  1  0
 34 33  2  0
M  END
$$$$
