FYF.pdb
     RDKit          3D

 35 37  0  0  1  0  0  0  0  0999 V2000
   24.8670  -18.6833  -15.8088 N   0  0  0  0  0  0  0  0  0  0  0  0
   25.7161  -18.4694  -14.6775 C   0  0  1  0  0  0  0  0  0  0  0  0
   26.1162  -16.9995  -14.5933 C   0  0  0  0  0  0  0  0  0  0  0  0
   27.0585  -16.7082  -15.7104 C   0  0  0  0  0  0  0  0  0  0  0  0
   28.3117  -17.2590  -15.7902 C   0  0  0  0  0  0  0  0  0  0  0  0
   29.1501  -16.9618  -16.8410 C   0  0  0  0  0  0  0  0  0  0  0  0
   28.7509  -16.0988  -17.8458 C   0  0  0  0  0  0  0  0  0  0  0  0
   27.4984  -15.5356  -17.7850 C   0  0  0  0  0  0  0  0  0  0  0  0
   26.6657  -15.8377  -16.7310 C   0  0  0  0  0  0  0  0  0  0  0  0
   25.0389  -18.8517  -13.3964 C   0  0  0  0  0  0  0  0  0  0  0  0
   24.0433  -18.2162  -12.9681 O   0  0  0  0  0  0  0  0  0  0  0  0
   24.8943  -24.1698  -16.3437 O   0  0  0  0  0  0  0  0  0  0  0  0
   24.6356  -23.4800  -15.1679 C   0  0  0  0  0  0  0  0  0  0  0  0
   23.4656  -22.7666  -14.9957 C   0  0  0  0  0  0  0  0  0  0  0  0
   23.2606  -22.0938  -13.7943 C   0  0  0  0  0  0  0  0  0  0  0  0
   24.2189  -22.1469  -12.7998 C   0  0  0  0  0  0  0  0  0  0  0  0
   23.9657  -21.4250  -11.5490 C   0  0  0  0  0  0  0  0  0  0  0  0
   24.9680  -20.2835  -11.3277 C   0  0  2  0  0  0  0  0  0  0  0  0
   25.5213  -19.9638  -12.6269 N   0  0  0  0  0  0  0  0  0  0  0  0
   26.0332  -20.8230  -10.4156 C   0  0  0  0  0  0  0  0  0  0  0  0
   26.9807  -21.5354  -10.8319 O   0  0  0  0  0  0  0  0  0  0  0  0
   25.3878  -22.8561  -12.9643 C   0  0  0  0  0  0  0  0  0  0  0  0
   25.5821  -23.5251  -14.1699 C   0  0  0  0  0  0  0  0  0  0  0  0
   26.0006  -20.5378   -9.0245 N   0  0  0  0  0  0  0  0  0  0  0  0
   26.9196  -21.1441   -8.0667 C   0  0  1  0  0  0  0  0  0  0  0  0
   28.1543  -20.3364   -7.8901 C   0  0  0  0  0  0  0  0  0  0  0  0
   28.2248  -19.7558   -6.5492 C   0  0  0  0  0  0  0  0  0  0  0  0
   27.9540  -18.4312   -6.3496 C   0  0  0  0  0  0  0  0  0  0  0  0
   28.0187  -17.8993   -5.0661 C   0  0  0  0  0  0  0  0  0  0  0  0
   28.3541  -18.7058   -4.0070 C   0  0  0  0  0  0  0  0  0  0  0  0
   28.6266  -20.0301   -4.1965 C   0  0  0  0  0  0  0  0  0  0  0  0
   28.5580  -20.5460   -5.4808 C   0  0  0  0  0  0  0  0  0  0  0  0
   26.2076  -21.2774   -6.7883 C   0  0  0  0  0  0  0  0  0  0  0  0
   25.0699  -20.8150   -6.5243 O   0  0  0  0  0  0  0  0  0  0  0  0
   26.8155  -21.9743   -5.7456 O   0  0  0  0  0  0  0  0  0  0  0  0
  2  1  1  6
  2  3  1  0
  3  4  1  0
  4  9  1  0
  5  4  2  0
  5  6  1  0
  6  7  2  0
  7  8  1  0
  9  8  2  0
 10 11  2  0
 10  2  1  0
 12 13  1  0
 13 14  2  0
 14 15  1  0
 16 15  2  0
 16 17  1  0
 18 17  1  6
 18 19  1  0
 19 10  1  0
 20 18  1  0
 21 20  2  0
 22 16  1  0
 23 13  1  0
 23 22  2  0
 24 20  1  0
 25 24  1  0
 25 26  1  1
 26 27  1  0
 27 32  1  0
 28 27  2  0
 28 29  1  0
 29 30  2  0
 30 31  1  0
 32 31  2  0
 33 35  1  0
 33 25  1  0
 34 33  2  0
M  END
$$$$
