FYF.pdb
     RDKit          3D

 35 37  0  0  1  0  0  0  0  0999 V2000
   27.5238  -19.2376  -18.5969 N   0  0  0  0  0  0  0  0  0  0  0  0
   27.8799  -20.0593  -17.4812 C   0  0  1  0  0  0  0  0  0  0  0  0
   29.3463  -19.8443  -17.1192 C   0  0  0  0  0  0  0  0  0  0  0  0
   30.1849  -20.4770  -18.1763 C   0  0  0  0  0  0  0  0  0  0  0  0
   31.0050  -19.7569  -19.0063 C   0  0  0  0  0  0  0  0  0  0  0  0
   31.7631  -20.3829  -19.9701 C   0  0  0  0  0  0  0  0  0  0  0  0
   31.7180  -21.7565  -20.1276 C   0  0  0  0  0  0  0  0  0  0  0  0
   30.9023  -22.4973  -19.3058 C   0  0  0  0  0  0  0  0  0  0  0  0
   30.1473  -21.8641  -18.3444 C   0  0  0  0  0  0  0  0  0  0  0  0
   27.0430  -19.7511  -16.2768 C   0  0  0  0  0  0  0  0  0  0  0  0
   26.9631  -18.5845  -15.8171 O   0  0  0  0  0  0  0  0  0  0  0  0
   20.1933  -20.2077  -10.9334 O   0  0  0  0  0  0  0  0  0  0  0  0
   21.1359  -20.3600  -11.9402 C   0  0  0  0  0  0  0  0  0  0  0  0
   21.4641  -19.3149  -12.7813 C   0  0  0  0  0  0  0  0  0  0  0  0
   22.4172  -19.5264  -13.7739 C   0  0  0  0  0  0  0  0  0  0  0  0
   23.0165  -20.7649  -13.9043 C   0  0  0  0  0  0  0  0  0  0  0  0
   24.0155  -20.9477  -14.9619 C   0  0  0  0  0  0  0  0  0  0  0  0
   25.4182  -20.5150  -14.5129 C   0  0  2  0  0  0  0  0  0  0  0  0
   26.3093  -20.7955  -15.6191 N   0  0  0  0  0  0  0  0  0  0  0  0
   25.7654  -21.3647  -13.3234 C   0  0  0  0  0  0  0  0  0  0  0  0
   26.0981  -22.5716  -13.4301 O   0  0  0  0  0  0  0  0  0  0  0  0
   22.6944  -21.8115  -13.0694 C   0  0  0  0  0  0  0  0  0  0  0  0
   21.7399  -21.5886  -12.0804 C   0  0  0  0  0  0  0  0  0  0  0  0
   25.7275  -20.8172  -12.0132 N   0  0  0  0  0  0  0  0  0  0  0  0
   25.7882  -21.6364  -10.8071 C   0  0  1  0  0  0  0  0  0  0  0  0
   27.1268  -21.5846  -10.1642 C   0  0  0  0  0  0  0  0  0  0  0  0
   27.2016  -20.5113   -9.1729 C   0  0  0  0  0  0  0  0  0  0  0  0
   27.8141  -19.3274   -9.4742 C   0  0  0  0  0  0  0  0  0  0  0  0
   27.8681  -18.3161   -8.5210 C   0  0  0  0  0  0  0  0  0  0  0  0
   27.3069  -18.5112   -7.2834 C   0  0  0  0  0  0  0  0  0  0  0  0
   26.6931  -19.6905   -6.9730 C   0  0  0  0  0  0  0  0  0  0  0  0
   26.6469  -20.6890   -7.9328 C   0  0  0  0  0  0  0  0  0  0  0  0
   24.7568  -21.1463   -9.8825 C   0  0  0  0  0  0  0  0  0  0  0  0
   24.4161  -21.6875   -8.8012 O   0  0  0  0  0  0  0  0  0  0  0  0
   24.0687  -19.9757  -10.1965 O   0  0  0  0  0  0  0  0  0  0  0  0
  2  1  1  6
  2  3  1  0
  3  4  1  0
  4  9  1  0
  5  4  2  0
  5  6  1  0
  6  7  2  0
  7  8  1  0
  9  8  2  0
 10 11  2  0
 10  2  1  0
 12 13  1  0
 13 14  2  0
 14 15  1  0
 16 15  2  0
 16 17  1  0
 18 17  1  6
 18 19  1  0
 19 10  1  0
 20 18  1  0
 21 20  2  0
 22 16  1  0
 23 13  1  0
 23 22  2  0
 24 20  1  0
 25 24  1  0
 25 26  1  1
 26 27  1  0
 27 32  1  0
 28 27  2  0
 28 29  1  0
 29 30  2  0
 30 31  1  0
 32 31  2  0
 33 35  1  0
 33 25  1  0
 34 33  2  0
M  END
$$$$
