FYF.pdb
     RDKit          3D

 35 37  0  0  1  0  0  0  0  0999 V2000
   25.7738  -21.3663  -18.8415 N   0  0  0  0  0  0  0  0  0  0  0  0
   24.6910  -20.5959  -18.3117 C   0  0  1  0  0  0  0  0  0  0  0  0
   23.5234  -20.5889  -19.2936 C   0  0  0  0  0  0  0  0  0  0  0  0
   23.9282  -19.8034  -20.4936 C   0  0  0  0  0  0  0  0  0  0  0  0
   24.0946  -18.4425  -20.4713 C   0  0  0  0  0  0  0  0  0  0  0  0
   24.4698  -17.7564  -21.6044 C   0  0  0  0  0  0  0  0  0  0  0  0
   24.6894  -18.4217  -22.7972 C   0  0  0  0  0  0  0  0  0  0  0  0
   24.5282  -19.7861  -22.8414 C   0  0  0  0  0  0  0  0  0  0  0  0
   24.1528  -20.4652  -21.7041 C   0  0  0  0  0  0  0  0  0  0  0  0
   24.2084  -21.1450  -17.0034 C   0  0  0  0  0  0  0  0  0  0  0  0
   24.3569  -22.3573  -16.7084 O   0  0  0  0  0  0  0  0  0  0  0  0
   21.5119  -20.9293   -8.6307 O   0  0  0  0  0  0  0  0  0  0  0  0
   21.9380  -20.6007   -9.9097 C   0  0  0  0  0  0  0  0  0  0  0  0
   23.2315  -20.8520  -10.3230 C   0  0  0  0  0  0  0  0  0  0  0  0
   23.6024  -20.5005  -11.6181 C   0  0  0  0  0  0  0  0  0  0  0  0
   22.6827  -19.9111  -12.4647 C   0  0  0  0  0  0  0  0  0  0  0  0
   23.1119  -19.5556  -13.8209 C   0  0  0  0  0  0  0  0  0  0  0  0
   23.1374  -20.7723  -14.7565 C   0  0  2  0  0  0  0  0  0  0  0  0
   23.5603  -20.2859  -16.0530 N   0  0  0  0  0  0  0  0  0  0  0  0
   21.7287  -21.2914  -14.8184 C   0  0  0  0  0  0  0  0  0  0  0  0
   20.7913  -20.6385  -15.3415 O   0  0  0  0  0  0  0  0  0  0  0  0
   21.3912  -19.6575  -12.0596 C   0  0  0  0  0  0  0  0  0  0  0  0
   21.0314  -20.0132  -10.7624 C   0  0  0  0  0  0  0  0  0  0  0  0
   21.4070  -22.5639  -14.2755 N   0  0  0  0  0  0  0  0  0  0  0  0
   20.0399  -23.0654  -14.1808 C   0  0  1  0  0  0  0  0  0  0  0  0
   19.9974  -24.5407  -14.0088 C   0  0  0  0  0  0  0  0  0  0  0  0
   18.6212  -25.0365  -13.9905 C   0  0  0  0  0  0  0  0  0  0  0  0
   17.8704  -25.0473  -15.1324 C   0  0  0  0  0  0  0  0  0  0  0  0
   16.5665  -25.5298  -15.0965 C   0  0  0  0  0  0  0  0  0  0  0  0
   16.0399  -25.9922  -13.9160 C   0  0  0  0  0  0  0  0  0  0  0  0
   16.7821  -25.9852  -12.7701 C   0  0  0  0  0  0  0  0  0  0  0  0
   18.0797  -25.5016  -12.8212 C   0  0  0  0  0  0  0  0  0  0  0  0
   19.3979  -22.3982  -13.0398 C   0  0  0  0  0  0  0  0  0  0  0  0
   18.2922  -21.8025  -13.0586 O   0  0  0  0  0  0  0  0  0  0  0  0
   20.0420  -22.4035  -11.8039 O   0  0  0  0  0  0  0  0  0  0  0  0
  2  1  1  6
  2  3  1  0
  3  4  1  0
  4  9  1  0
  5  4  2  0
  5  6  1  0
  6  7  2  0
  7  8  1  0
  9  8  2  0
 10 11  2  0
 10  2  1  0
 12 13  1  0
 13 14  2  0
 14 15  1  0
 16 15  2  0
 16 17  1  0
 18 17  1  1
 18 19  1  0
 19 10  1  0
 20 18  1  0
 21 20  2  0
 22 16  1  0
 23 13  1  0
 23 22  2  0
 24 20  1  0
 25 24  1  0
 25 26  1  1
 26 27  1  0
 27 32  1  0
 28 27  2  0
 28 29  1  0
 29 30  2  0
 30 31  1  0
 32 31  2  0
 33 35  1  0
 33 25  1  0
 34 33  2  0
M  END
$$$$
