FYF.pdb
     RDKit          3D

 35 37  0  0  1  0  0  0  0  0999 V2000
   23.3503  -21.9528  -15.5011 N   0  0  0  0  0  0  0  0  0  0  0  0
   23.2641  -21.3521  -14.2057 C   0  0  1  0  0  0  0  0  0  0  0  0
   22.0920  -21.9454  -13.4299 C   0  0  0  0  0  0  0  0  0  0  0  0
   20.8281  -21.4396  -14.0362 C   0  0  0  0  0  0  0  0  0  0  0  0
   20.4240  -20.1333  -13.9342 C   0  0  0  0  0  0  0  0  0  0  0  0
   19.2479  -19.7089  -14.5104 C   0  0  0  0  0  0  0  0  0  0  0  0
   18.4410  -20.5894  -15.2084 C   0  0  0  0  0  0  0  0  0  0  0  0
   18.8276  -21.9036  -15.3227 C   0  0  0  0  0  0  0  0  0  0  0  0
   20.0051  -22.3204  -14.7438 C   0  0  0  0  0  0  0  0  0  0  0  0
   24.5168  -21.5662  -13.4113 C   0  0  0  0  0  0  0  0  0  0  0  0
   25.0961  -22.6810  -13.3916 O   0  0  0  0  0  0  0  0  0  0  0  0
   28.6873  -18.5799  -17.4793 O   0  0  0  0  0  0  0  0  0  0  0  0
   28.2768  -18.7376  -16.1632 C   0  0  0  0  0  0  0  0  0  0  0  0
   27.3523  -17.8856  -15.5918 C   0  0  0  0  0  0  0  0  0  0  0  0
   26.9782  -18.0926  -14.2668 C   0  0  0  0  0  0  0  0  0  0  0  0
   27.5299  -19.1358  -13.5476 C   0  0  0  0  0  0  0  0  0  0  0  0
   27.1102  -19.3207  -12.1549 C   0  0  0  0  0  0  0  0  0  0  0  0
   26.3438  -20.6352  -11.9520 C   0  0  2  0  0  0  0  0  0  0  0  0
   25.0837  -20.4891  -12.6498 N   0  0  0  0  0  0  0  0  0  0  0  0
   26.1183  -20.7725  -10.4728 C   0  0  0  0  0  0  0  0  0  0  0  0
   25.0345  -20.4538   -9.9230 O   0  0  0  0  0  0  0  0  0  0  0  0
   28.4522  -19.9894  -14.1107 C   0  0  0  0  0  0  0  0  0  0  0  0
   28.8189  -19.7729  -15.4363 C   0  0  0  0  0  0  0  0  0  0  0  0
   27.1462  -21.2780   -9.6327 N   0  0  0  0  0  0  0  0  0  0  0  0
   27.2211  -20.9868   -8.2048 C   0  0  1  0  0  0  0  0  0  0  0  0
   28.6053  -20.6612   -7.7736 C   0  0  0  0  0  0  0  0  0  0  0  0
   28.6436  -20.2454   -6.3716 C   0  0  0  0  0  0  0  0  0  0  0  0
   28.5673  -18.9229   -6.0359 C   0  0  0  0  0  0  0  0  0  0  0  0
   28.5974  -18.5478   -4.6970 C   0  0  0  0  0  0  0  0  0  0  0  0
   28.7038  -19.5062   -3.7198 C   0  0  0  0  0  0  0  0  0  0  0  0
   28.7809  -20.8298   -4.0453 C   0  0  0  0  0  0  0  0  0  0  0  0
   28.7495  -21.1885   -5.3835 C   0  0  0  0  0  0  0  0  0  0  0  0
   26.3209  -19.8581   -7.9318 C   0  0  0  0  0  0  0  0  0  0  0  0
   26.2973  -18.7653   -8.5508 O   0  0  0  0  0  0  0  0  0  0  0  0
   25.3917  -19.9689   -6.8990 O   0  0  0  0  0  0  0  0  0  0  0  0
  2  1  1  6
  2  3  1  0
  3  4  1  0
  4  9  1  0
  5  4  2  0
  5  6  1  0
  6  7  2  0
  7  8  1  0
  9  8  2  0
 10 11  2  0
 10  2  1  0
 12 13  1  0
 13 14  2  0
 14 15  1  0
 16 15  2  0
 16 17  1  0
 18 17  1  1
 18 19  1  0
 19 10  1  0
 20 18  1  0
 21 20  2  0
 22 16  1  0
 23 13  1  0
 23 22  2  0
 24 20  1  0
 25 24  1  0
 25 26  1  6
 26 27  1  0
 27 32  1  0
 28 27  2  0
 28 29  1  0
 29 30  2  0
 30 31  1  0
 32 31  2  0
 33 35  1  0
 33 25  1  0
 34 33  2  0
M  END
$$$$
