FYF.pdb
     RDKit          3D

 35 37  0  0  1  0  0  0  0  0999 V2000
   26.1774  -14.8730  -18.2645 N   0  0  0  0  0  0  0  0  0  0  0  0
   26.1084  -16.2363  -17.8366 C   0  0  1  0  0  0  0  0  0  0  0  0
   27.2216  -16.5279  -16.8349 C   0  0  0  0  0  0  0  0  0  0  0  0
   28.4899  -16.7254  -17.5920 C   0  0  0  0  0  0  0  0  0  0  0  0
   28.7393  -17.8413  -18.3486 C   0  0  0  0  0  0  0  0  0  0  0  0
   29.9259  -17.9824  -19.0324 C   0  0  0  0  0  0  0  0  0  0  0  0
   30.8997  -17.0015  -18.9746 C   0  0  0  0  0  0  0  0  0  0  0  0
   30.6698  -15.8747  -18.2217 C   0  0  0  0  0  0  0  0  0  0  0  0
   29.4808  -15.7408  -17.5408 C   0  0  0  0  0  0  0  0  0  0  0  0
   24.7931  -16.5479  -17.1893 C   0  0  0  0  0  0  0  0  0  0  0  0
   24.3074  -15.8017  -16.3028 O   0  0  0  0  0  0  0  0  0  0  0  0
   16.6942  -19.4626  -15.9948 O   0  0  0  0  0  0  0  0  0  0  0  0
   17.9527  -19.1831  -16.5079 C   0  0  0  0  0  0  0  0  0  0  0  0
   18.7267  -20.1680  -17.0893 C   0  0  0  0  0  0  0  0  0  0  0  0
   19.9819  -19.8288  -17.5871 C   0  0  0  0  0  0  0  0  0  0  0  0
   20.4332  -18.5258  -17.4945 C   0  0  0  0  0  0  0  0  0  0  0  0
   21.7606  -18.2085  -18.0304 C   0  0  0  0  0  0  0  0  0  0  0  0
   22.8158  -18.0822  -16.9227 C   0  0  2  0  0  0  0  0  0  0  0  0
   24.0560  -17.7181  -17.5752 N   0  0  0  0  0  0  0  0  0  0  0  0
   22.9295  -19.4385  -16.2863 C   0  0  0  0  0  0  0  0  0  0  0  0
   23.2598  -20.4627  -16.9348 O   0  0  0  0  0  0  0  0  0  0  0  0
   19.6671  -17.5385  -16.9161 C   0  0  0  0  0  0  0  0  0  0  0  0
   18.4136  -17.8892  -16.4218 C   0  0  0  0  0  0  0  0  0  0  0  0
   22.6612  -19.6078  -14.9017 N   0  0  0  0  0  0  0  0  0  0  0  0
   22.7992  -20.8883  -14.2158 C   0  0  1  0  0  0  0  0  0  0  0  0
   23.8544  -20.8504  -13.1702 C   0  0  0  0  0  0  0  0  0  0  0  0
   25.1598  -20.5190  -13.7412 C   0  0  0  0  0  0  0  0  0  0  0  0
   25.6090  -19.2283  -13.7474 C   0  0  0  0  0  0  0  0  0  0  0  0
   26.8564  -18.9342  -14.2876 C   0  0  0  0  0  0  0  0  0  0  0  0
   27.6297  -19.9401  -14.8119 C   0  0  0  0  0  0  0  0  0  0  0  0
   27.1894  -21.2324  -14.8106 C   0  0  0  0  0  0  0  0  0  0  0  0
   25.9446  -21.5103  -14.2688 C   0  0  0  0  0  0  0  0  0  0  0  0
   21.4977  -21.2168  -13.6181 C   0  0  0  0  0  0  0  0  0  0  0  0
   20.5409  -20.4210  -13.4476 O   0  0  0  0  0  0  0  0  0  0  0  0
   21.2616  -22.5210  -13.1872 O   0  0  0  0  0  0  0  0  0  0  0  0
  2  1  1  1
  2  3  1  0
  3  4  1  0
  4  9  1  0
  5  4  2  0
  5  6  1  0
  6  7  2  0
  7  8  1  0
  9  8  2  0
 10 11  2  0
 10  2  1  0
 12 13  1  0
 13 14  2  0
 14 15  1  0
 16 15  2  0
 16 17  1  0
 18 17  1  6
 18 19  1  0
 19 10  1  0
 20 18  1  0
 21 20  2  0
 22 16  1  0
 23 13  1  0
 23 22  2  0
 24 20  1  0
 25 24  1  0
 25 26  1  1
 26 27  1  0
 27 32  1  0
 28 27  2  0
 28 29  1  0
 29 30  2  0
 30 31  1  0
 32 31  2  0
 33 35  1  0
 33 25  1  0
 34 33  2  0
M  END
$$$$
