FYF.pdb
     RDKit          3D

 35 37  0  0  1  0  0  0  0  0999 V2000
   24.0282  -17.1113  -18.6548 N   0  0  0  0  0  0  0  0  0  0  0  0
   23.1430  -16.6079  -17.6500 C   0  0  1  0  0  0  0  0  0  0  0  0
   23.4053  -15.1232  -17.4169 C   0  0  0  0  0  0  0  0  0  0  0  0
   24.8031  -14.9685  -16.9240 C   0  0  0  0  0  0  0  0  0  0  0  0
   25.8356  -14.5609  -17.7289 C   0  0  0  0  0  0  0  0  0  0  0  0
   27.1127  -14.4314  -17.2313 C   0  0  0  0  0  0  0  0  0  0  0  0
   27.3894  -14.7092  -15.9047 C   0  0  0  0  0  0  0  0  0  0  0  0
   26.3687  -15.1194  -15.0805 C   0  0  0  0  0  0  0  0  0  0  0  0
   25.0942  -15.2464  -15.5854 C   0  0  0  0  0  0  0  0  0  0  0  0
   21.7064  -16.7813  -18.0399 C   0  0  0  0  0  0  0  0  0  0  0  0
   21.3058  -16.5078  -19.1990 O   0  0  0  0  0  0  0  0  0  0  0  0
   20.9437  -22.8389  -20.5514 O   0  0  0  0  0  0  0  0  0  0  0  0
   20.5045  -21.8805  -19.6493 C   0  0  0  0  0  0  0  0  0  0  0  0
   21.2689  -21.5170  -18.5580 C   0  0  0  0  0  0  0  0  0  0  0  0
   20.7768  -20.5493  -17.6863 C   0  0  0  0  0  0  0  0  0  0  0  0
   19.5437  -19.9708  -17.9206 C   0  0  0  0  0  0  0  0  0  0  0  0
   19.0603  -18.9556  -16.9796 C   0  0  0  0  0  0  0  0  0  0  0  0
   19.3760  -17.5304  -17.4546 C   0  0  2  0  0  0  0  0  0  0  0  0
   20.7512  -17.2685  -17.0851 N   0  0  0  0  0  0  0  0  0  0  0  0
   18.4435  -16.6172  -16.7102 C   0  0  0  0  0  0  0  0  0  0  0  0
   18.6020  -16.3346  -15.4962 O   0  0  0  0  0  0  0  0  0  0  0  0
   18.7760  -20.3282  -19.0065 C   0  0  0  0  0  0  0  0  0  0  0  0
   19.2782  -21.2969  -19.8715 C   0  0  0  0  0  0  0  0  0  0  0  0
   17.3301  -16.0327  -17.3708 N   0  0  0  0  0  0  0  0  0  0  0  0
   16.3754  -15.1582  -16.6977 C   0  0  1  0  0  0  0  0  0  0  0  0
   15.7025  -14.2324  -17.6453 C   0  0  0  0  0  0  0  0  0  0  0  0
   14.6998  -13.4107  -16.9674 C   0  0  0  0  0  0  0  0  0  0  0  0
   15.0362  -12.1942  -16.4433 C   0  0  0  0  0  0  0  0  0  0  0  0
   14.0671  -11.4240  -15.8093 C   0  0  0  0  0  0  0  0  0  0  0  0
   12.7788  -11.8885  -15.7127 C   0  0  0  0  0  0  0  0  0  0  0  0
   12.4333  -13.1026  -16.2329 C   0  0  0  0  0  0  0  0  0  0  0  0
   13.4095  -13.8588  -16.8618 C   0  0  0  0  0  0  0  0  0  0  0  0
   15.3858  -16.0115  -16.0257 C   0  0  0  0  0  0  0  0  0  0  0  0
   14.9058  -17.0817  -16.4755 O   0  0  0  0  0  0  0  0  0  0  0  0
   14.9093  -15.6350  -14.7713 O   0  0  0  0  0  0  0  0  0  0  0  0
  2  1  1  6
  2  3  1  0
  3  4  1  0
  4  9  1  0
  5  4  2  0
  5  6  1  0
  6  7  2  0
  7  8  1  0
  9  8  2  0
 10 11  2  0
 10  2  1  0
 12 13  1  0
 13 14  2  0
 14 15  1  0
 16 15  2  0
 16 17  1  0
 18 17  1  1
 18 19  1  0
 19 10  1  0
 20 18  1  0
 21 20  2  0
 22 16  1  0
 23 13  1  0
 23 22  2  0
 24 20  1  0
 25 24  1  0
 25 26  1  6
 26 27  1  0
 27 32  1  0
 28 27  2  0
 28 29  1  0
 29 30  2  0
 30 31  1  0
 32 31  2  0
 33 35  1  0
 33 25  1  0
 34 33  2  0
M  END
$$$$
