FYF.pdb
     RDKit          3D

 35 37  0  0  1  0  0  0  0  0999 V2000
   28.4383  -20.1179  -14.5110 N   0  0  0  0  0  0  0  0  0  0  0  0
   27.2800  -19.4682  -13.9792 C   0  0  1  0  0  0  0  0  0  0  0  0
   26.5181  -18.7597  -15.0951 C   0  0  0  0  0  0  0  0  0  0  0  0
   27.2803  -17.5373  -15.4767 C   0  0  0  0  0  0  0  0  0  0  0  0
   28.0892  -17.4790  -16.5822 C   0  0  0  0  0  0  0  0  0  0  0  0
   28.7756  -16.3279  -16.8974 C   0  0  0  0  0  0  0  0  0  0  0  0
   28.6678  -15.1979  -16.1068 C   0  0  0  0  0  0  0  0  0  0  0  0
   27.8621  -15.2350  -14.9938 C   0  0  0  0  0  0  0  0  0  0  0  0
   27.1789  -16.3897  -14.6851 C   0  0  0  0  0  0  0  0  0  0  0  0
   26.3541  -20.4421  -13.3157 C   0  0  0  0  0  0  0  0  0  0  0  0
   26.3299  -21.6530  -13.6498 O   0  0  0  0  0  0  0  0  0  0  0  0
   28.8919  -20.5543   -7.0625 O   0  0  0  0  0  0  0  0  0  0  0  0
   27.7548  -20.5374   -7.8575 C   0  0  0  0  0  0  0  0  0  0  0  0
   27.3943  -21.6315   -8.6194 C   0  0  0  0  0  0  0  0  0  0  0  0
   26.2426  -21.5569   -9.3980 C   0  0  0  0  0  0  0  0  0  0  0  0
   25.4827  -20.4025   -9.3994 C   0  0  0  0  0  0  0  0  0  0  0  0
   24.2769  -20.3631  -10.2327 C   0  0  0  0  0  0  0  0  0  0  0  0
   24.5317  -20.9104  -11.6441 C   0  0  2  0  0  0  0  0  0  0  0  0
   25.4680  -20.0036  -12.2744 N   0  0  0  0  0  0  0  0  0  0  0  0
   23.2086  -20.8859  -12.3556 C   0  0  0  0  0  0  0  0  0  0  0  0
   22.6349  -19.8152  -12.6768 O   0  0  0  0  0  0  0  0  0  0  0  0
   25.8358  -19.3077   -8.6424 C   0  0  0  0  0  0  0  0  0  0  0  0
   26.9895  -19.3937   -7.8676 C   0  0  0  0  0  0  0  0  0  0  0  0
   22.5517  -22.0990  -12.6941 N   0  0  0  0  0  0  0  0  0  0  0  0
   21.2636  -22.1415  -13.3785 C   0  0  1  0  0  0  0  0  0  0  0  0
   21.0684  -23.4132  -14.1219 C   0  0  0  0  0  0  0  0  0  0  0  0
   19.7310  -23.4878  -14.7099 C   0  0  0  0  0  0  0  0  0  0  0  0
   18.7221  -24.1440  -14.0624 C   0  0  0  0  0  0  0  0  0  0  0  0
   17.4552  -24.1973  -14.6339 C   0  0  0  0  0  0  0  0  0  0  0  0
   17.2241  -23.5918  -15.8441 C   0  0  0  0  0  0  0  0  0  0  0  0
   18.2257  -22.9342  -16.4985 C   0  0  0  0  0  0  0  0  0  0  0  0
   19.4827  -22.8893  -15.9169 C   0  0  0  0  0  0  0  0  0  0  0  0
   20.2137  -21.9751  -12.3640 C   0  0  0  0  0  0  0  0  0  0  0  0
   19.1291  -21.3602  -12.5170 O   0  0  0  0  0  0  0  0  0  0  0  0
   20.3986  -22.5361  -11.1017 O   0  0  0  0  0  0  0  0  0  0  0  0
  2  1  1  6
  2  3  1  0
  3  4  1  0
  4  9  1  0
  5  4  2  0
  5  6  1  0
  6  7  2  0
  7  8  1  0
  9  8  2  0
 10 11  2  0
 10  2  1  0
 12 13  1  0
 13 14  2  0
 14 15  1  0
 16 15  2  0
 16 17  1  0
 18 17  1  1
 18 19  1  0
 19 10  1  0
 20 18  1  0
 21 20  2  0
 22 16  1  0
 23 13  1  0
 23 22  2  0
 24 20  1  0
 25 24  1  0
 25 26  1  1
 26 27  1  0
 27 32  1  0
 28 27  2  0
 28 29  1  0
 29 30  2  0
 30 31  1  0
 32 31  2  0
 33 35  1  0
 33 25  1  0
 34 33  2  0
M  END
$$$$
