FYF.pdb
     RDKit          3D

 35 37  0  0  1  0  0  0  0  0999 V2000
   26.3101  -18.2419  -16.3808 N   0  0  0  0  0  0  0  0  0  0  0  0
   27.0095  -18.7072  -15.2229 C   0  0  1  0  0  0  0  0  0  0  0  0
   28.1379  -17.7430  -14.8698 C   0  0  0  0  0  0  0  0  0  0  0  0
   29.0991  -17.7135  -16.0083 C   0  0  0  0  0  0  0  0  0  0  0  0
   29.2911  -16.6049  -16.7920 C   0  0  0  0  0  0  0  0  0  0  0  0
   30.1903  -16.6220  -17.8344 C   0  0  0  0  0  0  0  0  0  0  0  0
   30.9251  -17.7587  -18.1198 C   0  0  0  0  0  0  0  0  0  0  0  0
   30.7478  -18.8811  -17.3464 C   0  0  0  0  0  0  0  0  0  0  0  0
   29.8468  -18.8564  -16.3057 C   0  0  0  0  0  0  0  0  0  0  0  0
   26.1000  -18.8286  -14.0379 C   0  0  0  0  0  0  0  0  0  0  0  0
   25.4904  -17.8316  -13.5766 O   0  0  0  0  0  0  0  0  0  0  0  0
   19.3924  -21.0126   -9.5032 O   0  0  0  0  0  0  0  0  0  0  0  0
   20.5426  -21.0834  -10.2760 C   0  0  0  0  0  0  0  0  0  0  0  0
   20.6916  -20.3163  -11.4147 C   0  0  0  0  0  0  0  0  0  0  0  0
   21.8679  -20.4292  -12.1508 C   0  0  0  0  0  0  0  0  0  0  0  0
   22.8609  -21.2974  -11.7382 C   0  0  0  0  0  0  0  0  0  0  0  0
   24.0849  -21.3878  -12.5404 C   0  0  0  0  0  0  0  0  0  0  0  0
   25.0622  -20.2444  -12.2342 C   0  0  2  0  0  0  0  0  0  0  0  0
   25.9068  -20.1011  -13.4015 N   0  0  0  0  0  0  0  0  0  0  0  0
   25.8701  -20.6818  -11.0453 C   0  0  0  0  0  0  0  0  0  0  0  0
   26.4946  -21.7717  -11.0178 O   0  0  0  0  0  0  0  0  0  0  0  0
   22.7195  -22.0654  -10.6040 C   0  0  0  0  0  0  0  0  0  0  0  0
   21.5389  -21.9442   -9.8757 C   0  0  0  0  0  0  0  0  0  0  0  0
   25.9543  -19.8583   -9.8910 N   0  0  0  0  0  0  0  0  0  0  0  0
   26.6405  -20.2682   -8.6701 C   0  0  1  0  0  0  0  0  0  0  0  0
   27.2456  -19.1142   -7.9559 C   0  0  0  0  0  0  0  0  0  0  0  0
   27.8431  -19.5264   -6.6858 C   0  0  0  0  0  0  0  0  0  0  0  0
   27.2290  -19.2336   -5.5006 C   0  0  0  0  0  0  0  0  0  0  0  0
   27.8086  -19.6409   -4.3037 C   0  0  0  0  0  0  0  0  0  0  0  0
   28.9936  -20.3341   -4.3181 C   0  0  0  0  0  0  0  0  0  0  0  0
   29.6147  -20.6311   -5.4970 C   0  0  0  0  0  0  0  0  0  0  0  0
   29.0252  -20.2189   -6.6815 C   0  0  0  0  0  0  0  0  0  0  0  0
   25.6580  -20.9438   -7.8115 C   0  0  0  0  0  0  0  0  0  0  0  0
   25.8842  -21.9243   -7.0596 O   0  0  0  0  0  0  0  0  0  0  0  0
   24.3418  -20.4857   -7.8005 O   0  0  0  0  0  0  0  0  0  0  0  0
  2  1  1  6
  2  3  1  0
  3  4  1  0
  4  9  1  0
  5  4  2  0
  5  6  1  0
  6  7  2  0
  7  8  1  0
  9  8  2  0
 10 11  2  0
 10  2  1  0
 12 13  1  0
 13 14  2  0
 14 15  1  0
 16 15  2  0
 16 17  1  0
 18 17  1  6
 18 19  1  0
 19 10  1  0
 20 18  1  0
 21 20  2  0
 22 16  1  0
 23 13  1  0
 23 22  2  0
 24 20  1  0
 25 24  1  0
 25 26  1  1
 26 27  1  0
 27 32  1  0
 28 27  2  0
 28 29  1  0
 29 30  2  0
 30 31  1  0
 32 31  2  0
 33 35  1  0
 33 25  1  0
 34 33  2  0
M  END
$$$$
