FYF.pdb
     RDKit          3D

 35 37  0  0  1  0  0  0  0  0999 V2000
   26.2342  -22.7939  -18.6266 N   0  0  0  0  0  0  0  0  0  0  0  0
   26.1427  -21.6383  -17.7883 C   0  0  1  0  0  0  0  0  0  0  0  0
   25.2442  -20.5900  -18.4375 C   0  0  0  0  0  0  0  0  0  0  0  0
   25.9835  -19.9872  -19.5826 C   0  0  0  0  0  0  0  0  0  0  0  0
   25.8562  -20.4381  -20.8712 C   0  0  0  0  0  0  0  0  0  0  0  0
   26.5589  -19.8511  -21.8994 C   0  0  0  0  0  0  0  0  0  0  0  0
   27.4130  -18.7896  -21.6604 C   0  0  0  0  0  0  0  0  0  0  0  0
   27.5553  -18.3220  -20.3756 C   0  0  0  0  0  0  0  0  0  0  0  0
   26.8493  -18.9141  -19.3527 C   0  0  0  0  0  0  0  0  0  0  0  0
   25.5822  -21.9750  -16.4398 C   0  0  0  0  0  0  0  0  0  0  0  0
   24.6468  -22.8036  -16.3087 O   0  0  0  0  0  0  0  0  0  0  0  0
   24.4344  -21.1271   -7.7151 O   0  0  0  0  0  0  0  0  0  0  0  0
   24.9792  -21.1154   -8.9911 C   0  0  0  0  0  0  0  0  0  0  0  0
   26.3079  -20.8033   -9.2024 C   0  0  0  0  0  0  0  0  0  0  0  0
   26.7993  -20.8075  -10.5050 C   0  0  0  0  0  0  0  0  0  0  0  0
   25.9617  -21.1203  -11.5588 C   0  0  0  0  0  0  0  0  0  0  0  0
   26.5170  -21.1139  -12.9158 C   0  0  0  0  0  0  0  0  0  0  0  0
   25.4714  -21.5037  -13.9699 C   0  0  2  0  0  0  0  0  0  0  0  0
   26.1102  -21.3496  -15.2601 N   0  0  0  0  0  0  0  0  0  0  0  0
   24.3347  -20.5324  -13.8215 C   0  0  0  0  0  0  0  0  0  0  0  0
   24.4754  -19.2966  -13.9991 O   0  0  0  0  0  0  0  0  0  0  0  0
   24.6360  -21.4326  -11.3559 C   0  0  0  0  0  0  0  0  0  0  0  0
   24.1554  -21.4252  -10.0491 C   0  0  0  0  0  0  0  0  0  0  0  0
   23.0378  -20.9919  -13.4682 N   0  0  0  0  0  0  0  0  0  0  0  0
   21.8929  -20.1004  -13.3144 C   0  0  1  0  0  0  0  0  0  0  0  0
   21.4776  -19.4974  -14.6075 C   0  0  0  0  0  0  0  0  0  0  0  0
   20.9782  -20.5133  -15.5341 C   0  0  0  0  0  0  0  0  0  0  0  0
   21.8081  -21.0764  -16.4624 C   0  0  0  0  0  0  0  0  0  0  0  0
   21.3166  -22.0464  -17.3295 C   0  0  0  0  0  0  0  0  0  0  0  0
   20.0018  -22.4332  -17.2495 C   0  0  0  0  0  0  0  0  0  0  0  0
   19.1650  -21.8762  -16.3257 C   0  0  0  0  0  0  0  0  0  0  0  0
   19.6688  -20.9111  -15.4683 C   0  0  0  0  0  0  0  0  0  0  0  0
   20.7917  -20.8839  -12.7378 C   0  0  0  0  0  0  0  0  0  0  0  0
   20.8208  -22.1097  -12.4646 O   0  0  0  0  0  0  0  0  0  0  0  0
   19.5858  -20.2464  -12.4521 O   0  0  0  0  0  0  0  0  0  0  0  0
  2  1  1  6
  2  3  1  0
  3  4  1  0
  4  9  1  0
  5  4  2  0
  5  6  1  0
  6  7  2  0
  7  8  1  0
  9  8  2  0
 10 11  2  0
 10  2  1  0
 12 13  1  0
 13 14  2  0
 14 15  1  0
 16 15  2  0
 16 17  1  0
 18 17  1  1
 18 19  1  0
 19 10  1  0
 20 18  1  0
 21 20  2  0
 22 16  1  0
 23 13  1  0
 23 22  2  0
 24 20  1  0
 25 24  1  0
 25 26  1  6
 26 27  1  0
 27 32  1  0
 28 27  2  0
 28 29  1  0
 29 30  2  0
 30 31  1  0
 32 31  2  0
 33 35  1  0
 33 25  1  0
 34 33  2  0
M  END
$$$$
