FYF.pdb
     RDKit          3D

 35 37  0  0  1  0  0  0  0  0999 V2000
   27.5594  -21.6635  -17.1551 N   0  0  0  0  0  0  0  0  0  0  0  0
   27.7120  -22.1583  -15.8216 C   0  0  1  0  0  0  0  0  0  0  0  0
   29.1781  -22.0953  -15.4040 C   0  0  0  0  0  0  0  0  0  0  0  0
   29.9174  -23.1627  -16.1355 C   0  0  0  0  0  0  0  0  0  0  0  0
   29.7246  -24.4991  -15.8971 C   0  0  0  0  0  0  0  0  0  0  0  0
   30.4299  -25.4521  -16.5970 C   0  0  0  0  0  0  0  0  0  0  0  0
   31.3530  -25.0871  -17.5604 C   0  0  0  0  0  0  0  0  0  0  0  0
   31.5616  -23.7525  -17.8150 C   0  0  0  0  0  0  0  0  0  0  0  0
   30.8524  -22.8054  -17.1111 C   0  0  0  0  0  0  0  0  0  0  0  0
   26.9039  -21.3646  -14.8403 C   0  0  0  0  0  0  0  0  0  0  0  0
   26.9124  -20.1082  -14.8508 O   0  0  0  0  0  0  0  0  0  0  0  0
   20.1424  -18.8192  -10.1479 O   0  0  0  0  0  0  0  0  0  0  0  0
   21.0647  -19.5993  -10.8306 C   0  0  0  0  0  0  0  0  0  0  0  0
   21.4910  -20.8131  -10.3283 C   0  0  0  0  0  0  0  0  0  0  0  0
   22.4182  -21.5527  -11.0573 C   0  0  0  0  0  0  0  0  0  0  0  0
   22.8955  -21.0693  -12.2609 C   0  0  0  0  0  0  0  0  0  0  0  0
   23.8711  -21.8777  -12.9988 C   0  0  0  0  0  0  0  0  0  0  0  0
   25.2885  -21.2950  -12.9115 C   0  0  2  0  0  0  0  0  0  0  0  0
   26.0963  -22.0333  -13.8594 N   0  0  0  0  0  0  0  0  0  0  0  0
   25.7632  -21.5387  -11.5069 C   0  0  0  0  0  0  0  0  0  0  0  0
   25.9063  -22.6938  -11.0338 O   0  0  0  0  0  0  0  0  0  0  0  0
   22.4751  -19.8600  -12.7680 C   0  0  0  0  0  0  0  0  0  0  0  0
   21.5476  -19.1289  -12.0304 C   0  0  0  0  0  0  0  0  0  0  0  0
   26.0715  -20.4465  -10.6525 N   0  0  0  0  0  0  0  0  0  0  0  0
   26.4843  -20.6158   -9.2631 C   0  0  1  0  0  0  0  0  0  0  0  0
   27.3852  -19.5237   -8.8118 C   0  0  0  0  0  0  0  0  0  0  0  0
   27.6864  -19.6359   -7.3846 C   0  0  0  0  0  0  0  0  0  0  0  0
   27.1210  -18.7767   -6.4847 C   0  0  0  0  0  0  0  0  0  0  0  0
   27.4135  -18.9043   -5.1310 C   0  0  0  0  0  0  0  0  0  0  0  0
   28.2678  -19.8911   -4.7053 C   0  0  0  0  0  0  0  0  0  0  0  0
   28.8376  -20.7539   -5.5968 C   0  0  0  0  0  0  0  0  0  0  0  0
   28.5367  -20.6147   -6.9423 C   0  0  0  0  0  0  0  0  0  0  0  0
   25.2692  -20.6512   -8.4378 C   0  0  0  0  0  0  0  0  0  0  0  0
   25.0702  -21.3973   -7.4471 O   0  0  0  0  0  0  0  0  0  0  0  0
   24.2156  -19.7935   -8.7489 O   0  0  0  0  0  0  0  0  0  0  0  0
  2  1  1  6
  2  3  1  0
  3  4  1  0
  4  9  1  0
  5  4  2  0
  5  6  1  0
  6  7  2  0
  7  8  1  0
  9  8  2  0
 10 11  2  0
 10  2  1  0
 12 13  1  0
 13 14  2  0
 14 15  1  0
 16 15  2  0
 16 17  1  0
 18 17  1  1
 18 19  1  0
 19 10  1  0
 20 18  1  0
 21 20  2  0
 22 16  1  0
 23 13  1  0
 23 22  2  0
 24 20  1  0
 25 24  1  0
 25 26  1  1
 26 27  1  0
 27 32  1  0
 28 27  2  0
 28 29  1  0
 29 30  2  0
 30 31  1  0
 32 31  2  0
 33 35  1  0
 33 25  1  0
 34 33  2  0
M  END
$$$$
