FYF.pdb
     RDKit          3D

 35 37  0  0  1  0  0  0  0  0999 V2000
   28.4886  -35.1909   -7.3398 N   0  0  0  0  0  0  0  0  0  0  0  0
   28.0667  -34.3715   -6.2457 C   0  0  1  0  0  0  0  0  0  0  0  0
   26.5430  -34.3264   -6.1820 C   0  0  0  0  0  0  0  0  0  0  0  0
   26.0582  -33.4184   -7.2597 C   0  0  0  0  0  0  0  0  0  0  0  0
   25.9544  -32.0607   -7.0988 C   0  0  0  0  0  0  0  0  0  0  0  0
   25.5012  -31.2590   -8.1222 C   0  0  0  0  0  0  0  0  0  0  0  0
   25.1379  -31.8017   -9.3416 C   0  0  0  0  0  0  0  0  0  0  0  0
   25.2343  -33.1607   -9.5240 C   0  0  0  0  0  0  0  0  0  0  0  0
   25.6884  -33.9559   -8.4959 C   0  0  0  0  0  0  0  0  0  0  0  0
   28.5819  -34.8875   -4.9363 C   0  0  0  0  0  0  0  0  0  0  0  0
   28.6499  -36.1196   -4.7001 O   0  0  0  0  0  0  0  0  0  0  0  0
   34.3381  -37.5437   -5.2435 O   0  0  0  0  0  0  0  0  0  0  0  0
   33.4877  -36.6595   -4.5951 C   0  0  0  0  0  0  0  0  0  0  0  0
   32.6962  -35.7752   -5.3014 C   0  0  0  0  0  0  0  0  0  0  0  0
   31.8622  -34.9111   -4.5970 C   0  0  0  0  0  0  0  0  0  0  0  0
   31.8365  -34.9481   -3.2157 C   0  0  0  0  0  0  0  0  0  0  0  0
   30.9449  -34.0221   -2.5104 C   0  0  0  0  0  0  0  0  0  0  0  0
   29.4717  -34.4381   -2.6252 C   0  0  2  0  0  0  0  0  0  0  0  0
   29.0120  -33.9725   -3.9168 N   0  0  0  0  0  0  0  0  0  0  0  0
   28.7425  -33.7331   -1.5167 C   0  0  0  0  0  0  0  0  0  0  0  0
   28.0389  -32.7111   -1.7149 O   0  0  0  0  0  0  0  0  0  0  0  0
   32.6227  -35.8271   -2.5048 C   0  0  0  0  0  0  0  0  0  0  0  0
   33.4529  -36.6865   -3.2196 C   0  0  0  0  0  0  0  0  0  0  0  0
   28.8283  -34.2109   -0.1818 N   0  0  0  0  0  0  0  0  0  0  0  0
   28.1683  -33.5542    0.9418 C   0  0  1  0  0  0  0  0  0  0  0  0
   26.7101  -33.3857    0.7114 C   0  0  0  0  0  0  0  0  0  0  0  0
   26.0545  -32.7729    1.8667 C   0  0  0  0  0  0  0  0  0  0  0  0
   25.1798  -33.4915    2.6324 C   0  0  0  0  0  0  0  0  0  0  0  0
   24.5725  -32.8937    3.7315 C   0  0  0  0  0  0  0  0  0  0  0  0
   24.8537  -31.5863    4.0420 C   0  0  0  0  0  0  0  0  0  0  0  0
   25.7259  -30.8603    3.2830 C   0  0  0  0  0  0  0  0  0  0  0  0
   26.3235  -31.4693    2.1910 C   0  0  0  0  0  0  0  0  0  0  0  0
   28.4065  -34.3720    2.1390 C   0  0  0  0  0  0  0  0  0  0  0  0
   27.9873  -34.1261    3.2974 O   0  0  0  0  0  0  0  0  0  0  0  0
   29.1626  -35.5369    2.0224 O   0  0  0  0  0  0  0  0  0  0  0  0
  2  1  1  6
  2  3  1  0
  3  4  1  0
  4  9  1  0
  5  4  2  0
  5  6  1  0
  6  7  2  0
  7  8  1  0
  9  8  2  0
 10 11  2  0
 10  2  1  0
 12 13  1  0
 13 14  2  0
 14 15  1  0
 16 15  2  0
 16 17  1  0
 18 17  1  1
 18 19  1  0
 19 10  1  0
 20 18  1  0
 21 20  2  0
 22 16  1  0
 23 13  1  0
 23 22  2  0
 24 20  1  0
 25 24  1  0
 25 26  1  6
 26 27  1  0
 27 32  1  0
 28 27  2  0
 28 29  1  0
 29 30  2  0
 30 31  1  0
 32 31  2  0
 33 35  1  0
 33 25  1  0
 34 33  2  0
M  END
$$$$
