FYF.pdb
     RDKit          3D

 35 37  0  0  1  0  0  0  0  0999 V2000
   27.0581  -22.6954  -12.8756 N   0  0  0  0  0  0  0  0  0  0  0  0
   26.4507  -21.7854  -11.9540 C   0  0  1  0  0  0  0  0  0  0  0  0
   27.2330  -20.4760  -11.9181 C   0  0  0  0  0  0  0  0  0  0  0  0
   28.3476  -20.6257  -10.9403 C   0  0  0  0  0  0  0  0  0  0  0  0
   29.6368  -20.9009  -11.3174 C   0  0  0  0  0  0  0  0  0  0  0  0
   30.6364  -21.0310  -10.3796 C   0  0  0  0  0  0  0  0  0  0  0  0
   30.3671  -20.8874   -9.0303 C   0  0  0  0  0  0  0  0  0  0  0  0
   29.0812  -20.6114   -8.6308 C   0  0  0  0  0  0  0  0  0  0  0  0
   28.0871  -20.4827   -9.5745 C   0  0  0  0  0  0  0  0  0  0  0  0
   25.0320  -21.4812  -12.3294 C   0  0  0  0  0  0  0  0  0  0  0  0
   24.5706  -21.7994  -13.4539 O   0  0  0  0  0  0  0  0  0  0  0  0
   16.5534  -20.3116  -10.2054 O   0  0  0  0  0  0  0  0  0  0  0  0
   17.9364  -20.2150  -10.2621 C   0  0  0  0  0  0  0  0  0  0  0  0
   18.5579  -19.1033  -10.7961 C   0  0  0  0  0  0  0  0  0  0  0  0
   19.9492  -19.0621  -10.8266 C   0  0  0  0  0  0  0  0  0  0  0  0
   20.6832  -20.1216  -10.3281 C   0  0  0  0  0  0  0  0  0  0  0  0
   22.1464  -20.0403  -10.3782 C   0  0  0  0  0  0  0  0  0  0  0  0
   22.7273  -20.8111  -11.5719 C   0  0  2  0  0  0  0  0  0  0  0  0
   24.1650  -20.8131  -11.4003 N   0  0  0  0  0  0  0  0  0  0  0  0
   22.3412  -20.0424  -12.8037 C   0  0  0  0  0  0  0  0  0  0  0  0
   22.7963  -18.8986  -13.0557 O   0  0  0  0  0  0  0  0  0  0  0  0
   20.0706  -21.2333   -9.7942 C   0  0  0  0  0  0  0  0  0  0  0  0
   18.6787  -21.2636   -9.7688 C   0  0  0  0  0  0  0  0  0  0  0  0
   21.4300  -20.5974  -13.7415 N   0  0  0  0  0  0  0  0  0  0  0  0
   20.9726  -19.8793  -14.9266 C   0  0  1  0  0  0  0  0  0  0  0  0
   21.2998  -20.6064  -16.1804 C   0  0  0  0  0  0  0  0  0  0  0  0
   20.7821  -19.9045  -17.3549 C   0  0  0  0  0  0  0  0  0  0  0  0
   21.4281  -18.8068  -17.8502 C   0  0  0  0  0  0  0  0  0  0  0  0
   20.9247  -18.1577  -18.9725 C   0  0  0  0  0  0  0  0  0  0  0  0
   19.7827  -18.6216  -19.5769 C   0  0  0  0  0  0  0  0  0  0  0  0
   19.1302  -19.7172  -19.0893 C   0  0  0  0  0  0  0  0  0  0  0  0
   19.6435  -20.3537  -17.9705 C   0  0  0  0  0  0  0  0  0  0  0  0
   19.5197  -19.6969  -14.8046 C   0  0  0  0  0  0  0  0  0  0  0  0
   18.8743  -18.6689  -15.1279 O   0  0  0  0  0  0  0  0  0  0  0  0
   18.7491  -20.7365  -14.2871 O   0  0  0  0  0  0  0  0  0  0  0  0
  2  1  1  6
  2  3  1  0
  3  4  1  0
  4  9  1  0
  5  4  2  0
  5  6  1  0
  6  7  2  0
  7  8  1  0
  9  8  2  0
 10 11  2  0
 10  2  1  0
 12 13  1  0
 13 14  2  0
 14 15  1  0
 16 15  2  0
 16 17  1  0
 18 17  1  1
 18 19  1  0
 19 10  1  0
 20 18  1  0
 21 20  2  0
 22 16  1  0
 23 13  1  0
 23 22  2  0
 24 20  1  0
 25 24  1  0
 25 26  1  6
 26 27  1  0
 27 32  1  0
 28 27  2  0
 28 29  1  0
 29 30  2  0
 30 31  1  0
 32 31  2  0
 33 35  1  0
 33 25  1  0
 34 33  2  0
M  END
$$$$
