RCD.pdb
     RDKit          3D

 26 25  0  0  1  0  0  0  0  0999 V2000
    7.7525  -12.7288   16.3337 N   0  0  0  0  0  0  0  0  0  0  0  0
    7.8637  -14.0252   15.7512 C   0  0  0  0  0  0  0  0  0  0  0  0
    7.0761  -14.3887   14.8008 N   0  0  0  0  0  0  0  0  0  0  0  0
    8.8494  -14.9322   16.2153 N   0  0  0  0  0  0  0  0  0  0  0  0
    9.2563  -14.8812   17.6036 C   0  0  0  0  0  0  0  0  0  0  0  0
    8.2312  -15.5602   18.5236 C   0  0  0  0  0  0  0  0  0  0  0  0
    8.7729  -15.4156   19.9175 C   0  0  0  0  0  0  0  0  0  0  0  0
    7.8506  -14.6781   20.8550 C   0  0  2  0  0  0  0  0  0  0  0  0
    7.5383  -13.4157   20.2107 N   0  0  0  0  0  0  0  0  0  0  0  0
    8.4101  -14.4122   22.1775 C   0  0  0  0  0  0  0  0  0  0  0  0
    9.4351  -13.6879   22.3837 O   0  0  0  0  0  0  0  0  0  0  0  0
    7.0789  -15.3243   14.3653 N   0  0  0  0  0  0  0  0  0  0  0  0
    7.8162  -14.9690   23.3380 C   0  0  1  0  0  0  0  0  0  0  0  0
    8.5067  -14.8760   24.6442 C   0  0  0  0  0  0  0  0  0  0  0  0
    7.5341  -14.1835   25.6098 S   0  0  0  0  0  0  0  0  0  0  0  0
    6.8149  -12.7242   24.8369 C   0  0  0  0  0  0  0  0  0  0  0  0
    8.6683  -16.2701   25.1344 O   0  0  0  0  0  0  0  0  0  0  0  0
    7.9710  -16.6685   26.1234 N   0  0  0  0  0  0  0  0  0  0  0  0
    9.5488  -17.2183   24.5826 C   0  0  2  0  0  0  0  0  0  0  0  0
   10.8125  -17.4894   25.2312 C   0  0  0  0  0  0  0  0  0  0  0  0
   11.8493  -16.4106   24.9854 C   0  0  0  0  0  0  0  0  0  0  0  0
   12.7799  -16.8687   23.9518 O   0  0  0  0  0  0  0  0  0  0  0  0
   12.5739  -17.9815   23.3714 C   0  0  0  0  0  0  0  0  0  0  0  0
   10.5640  -17.7027   26.6661 O   0  0  0  0  0  0  0  0  0  0  0  0
    9.7942  -16.9493   27.2972 O   0  0  0  0  0  0  0  0  0  0  0  0
   13.9037  -16.1373   23.5628 O   0  0  0  0  0  0  0  0  0  0  0  0
  2  1  1  0
  2  3  2  0
  4  2  1  0
  5  4  1  0
  6  5  1  0
  7  8  1  0
  7  6  1  0
  8 10  1  0
  8  9  1  6
 10 11  2  0
 12 13  1  0
 12 10  1  0
 13 16  1  0
 14 15  1  0
 13 14  1  6
 16 17  2  0
 18 19  1  0
 18 16  1  0
 19 23  1  0
 20 21  1  0
 19 20  1  6
 21 22  2  0
 23 24  2  0
 23 26  1  0
 25 21  1  0
M  END
$$$$
