RCD.pdb
     RDKit          3D

 26 25  0  0  1  0  0  0  0  0999 V2000
    9.1671  -15.0578   15.6510 N   0  0  0  0  0  0  0  0  0  0  0  0
    8.1449  -14.4275   14.8828 C   0  0  0  0  0  0  0  0  0  0  0  0
    8.2149  -14.3925   13.5985 N   0  0  0  0  0  0  0  0  0  0  0  0
    7.0341  -13.8301   15.5299 N   0  0  0  0  0  0  0  0  0  0  0  0
    7.0455  -13.6974   16.9714 C   0  0  0  0  0  0  0  0  0  0  0  0
    8.4476  -13.3649   17.5023 C   0  0  0  0  0  0  0  0  0  0  0  0
    8.3216  -13.3320   18.9991 C   0  0  0  0  0  0  0  0  0  0  0  0
    8.4609  -14.6843   19.6511 C   0  0  2  0  0  0  0  0  0  0  0  0
    7.1412  -15.2876   19.6250 N   0  0  0  0  0  0  0  0  0  0  0  0
    8.9419  -14.6503   21.0296 C   0  0  0  0  0  0  0  0  0  0  0  0
   10.1335  -14.3524   21.3600 O   0  0  0  0  0  0  0  0  0  0  0  0
    7.5357  -13.9101   12.9894 N   0  0  0  0  0  0  0  0  0  0  0  0
    8.0721  -14.9590   22.1057 C   0  0  1  0  0  0  0  0  0  0  0  0
    8.5895  -14.9980   23.4922 C   0  0  0  0  0  0  0  0  0  0  0  0
    7.3698  -14.9166   24.4213 S   0  0  0  0  0  0  0  0  0  0  0  0
    6.9644  -13.1979   24.7759 C   0  0  0  0  0  0  0  0  0  0  0  0
    9.1775  -16.3499   23.6835 O   0  0  0  0  0  0  0  0  0  0  0  0
    8.9535  -17.2561   22.8165 N   0  0  0  0  0  0  0  0  0  0  0  0
    9.9874  -16.7268   24.7702 C   0  0  1  0  0  0  0  0  0  0  0  0
   11.2167  -17.4508   24.5340 C   0  0  0  0  0  0  0  0  0  0  0  0
   12.1674  -16.7193   23.6064 C   0  0  0  0  0  0  0  0  0  0  0  0
   13.3706  -17.5321   23.4172 O   0  0  0  0  0  0  0  0  0  0  0  0
   13.8407  -18.1936   24.3967 C   0  0  0  0  0  0  0  0  0  0  0  0
   11.8357  -17.7556   25.8340 O   0  0  0  0  0  0  0  0  0  0  0  0
   12.9166  -18.3771   25.8937 O   0  0  0  0  0  0  0  0  0  0  0  0
   14.0440  -17.6205   22.1975 O   0  0  0  0  0  0  0  0  0  0  0  0
  2  1  1  0
  2  3  2  0
  4  2  1  0
  5  4  1  0
  6  5  1  0
  7  8  1  0
  7  6  1  0
  8 10  1  0
  8  9  1  1
 10 11  2  0
 12 13  1  0
 12 10  1  0
 13 16  1  0
 14 15  1  0
 13 14  1  1
 16 17  2  0
 18 19  1  0
 18 16  1  0
 19 23  1  0
 20 21  1  0
 19 20  1  1
 21 22  2  0
 23 24  2  0
 23 26  1  0
 25 21  1  0
M  END
$$$$
