RCD.pdb
     RDKit          3D

 26 25  0  0  1  0  0  0  0  0999 V2000
    9.3822  -12.4934   18.1774 N   0  0  0  0  0  0  0  0  0  0  0  0
    8.5002  -13.4910   17.6685 C   0  0  0  0  0  0  0  0  0  0  0  0
    8.5130  -13.8053   16.4208 N   0  0  0  0  0  0  0  0  0  0  0  0
    7.5952  -14.1514   18.5371 N   0  0  0  0  0  0  0  0  0  0  0  0
    7.7313  -13.9704   19.9668 C   0  0  0  0  0  0  0  0  0  0  0  0
    6.6686  -14.7597   20.7452 C   0  0  0  0  0  0  0  0  0  0  0  0
    6.8995  -14.4380   22.1946 C   0  0  0  0  0  0  0  0  0  0  0  0
    7.7927  -15.4254   22.9020 C   0  0  2  0  0  0  0  0  0  0  0  0
    6.9172  -16.4362   23.4660 N   0  0  0  0  0  0  0  0  0  0  0  0
    8.6095  -14.8537   23.9690 C   0  0  0  0  0  0  0  0  0  0  0  0
    9.6063  -14.0892   23.7698 O   0  0  0  0  0  0  0  0  0  0  0  0
    7.9288  -14.5437   15.9983 N   0  0  0  0  0  0  0  0  0  0  0  0
    8.3204  -15.1333   25.3284 C   0  0  1  0  0  0  0  0  0  0  0  0
    9.2324  -14.6614   26.3948 C   0  0  0  0  0  0  0  0  0  0  0  0
    8.3758  -13.8615   27.3868 S   0  0  0  0  0  0  0  0  0  0  0  0
    7.2479  -12.7696   26.5038 C   0  0  0  0  0  0  0  0  0  0  0  0
    9.6959  -15.8744   27.1186 O   0  0  0  0  0  0  0  0  0  0  0  0
    8.8551  -16.7858   27.4110 N   0  0  0  0  0  0  0  0  0  0  0  0
   11.0233  -16.1127   27.5184 C   0  0  1  0  0  0  0  0  0  0  0  0
   11.3602  -17.3451   28.1960 C   0  0  0  0  0  0  0  0  0  0  0  0
   12.7655  -17.8256   27.8901 C   0  0  0  0  0  0  0  0  0  0  0  0
   12.8680  -18.1238   26.4600 O   0  0  0  0  0  0  0  0  0  0  0  0
   11.8802  -18.6518   25.8574 C   0  0  0  0  0  0  0  0  0  0  0  0
   11.1399  -17.1591   29.6392 O   0  0  0  0  0  0  0  0  0  0  0  0
   10.8373  -16.0379   30.0972 O   0  0  0  0  0  0  0  0  0  0  0  0
   14.0137  -17.8568   25.7083 O   0  0  0  0  0  0  0  0  0  0  0  0
  2  1  1  0
  2  3  2  0
  4  2  1  0
  5  4  1  0
  6  5  1  0
  7  8  1  0
  7  6  1  0
  8 10  1  0
  8  9  1  1
 10 11  2  0
 12 13  1  0
 12 10  1  0
 13 16  1  0
 14 15  1  0
 13 14  1  6
 16 17  2  0
 18 19  1  0
 18 16  1  0
 19 23  1  0
 20 21  1  0
 19 20  1  1
 21 22  2  0
 23 24  2  0
 23 26  1  0
 25 21  1  0
M  END
$$$$
