RCD.pdb
     RDKit          3D

 26 25  0  0  1  0  0  0  0  0999 V2000
    7.6401  -14.1417   16.2342 N   0  0  0  0  0  0  0  0  0  0  0  0
    7.9115  -13.4065   17.4251 C   0  0  0  0  0  0  0  0  0  0  0  0
    8.5782  -12.3069   17.3812 N   0  0  0  0  0  0  0  0  0  0  0  0
    7.4463  -13.8819   18.6769 N   0  0  0  0  0  0  0  0  0  0  0  0
    8.0570  -15.0604   19.2546 C   0  0  0  0  0  0  0  0  0  0  0  0
    9.5640  -14.8693   19.4801 C   0  0  0  0  0  0  0  0  0  0  0  0
    9.9750  -15.9506   20.4389 C   0  0  0  0  0  0  0  0  0  0  0  0
    8.9239  -16.2832   21.4675 C   0  0  2  0  0  0  0  0  0  0  0  0
    7.7072  -15.6197   21.0367 N   0  0  0  0  0  0  0  0  0  0  0  0
    9.2438  -15.8559   22.8268 C   0  0  0  0  0  0  0  0  0  0  0  0
   10.4283  -15.7061   23.2651 O   0  0  0  0  0  0  0  0  0  0  0  0
    8.8047  -11.7278   18.2049 N   0  0  0  0  0  0  0  0  0  0  0  0
    8.2116  -15.5771   23.7578 C   0  0  1  0  0  0  0  0  0  0  0  0
    8.5450  -15.2639   25.1657 C   0  0  0  0  0  0  0  0  0  0  0  0
    7.3416  -14.5078   25.7470 S   0  0  0  0  0  0  0  0  0  0  0  0
    6.8334  -13.1863   24.6337 C   0  0  0  0  0  0  0  0  0  0  0  0
    8.6124  -16.5653   25.8812 O   0  0  0  0  0  0  0  0  0  0  0  0
    7.7662  -17.4756   25.6014 N   0  0  0  0  0  0  0  0  0  0  0  0
    9.5603  -16.8908   26.8683 C   0  0  1  0  0  0  0  0  0  0  0  0
    9.9856  -18.2631   27.0324 C   0  0  0  0  0  0  0  0  0  0  0  0
   10.5107  -18.8792   25.7502 C   0  0  0  0  0  0  0  0  0  0  0  0
   11.9596  -18.6780   25.6817 O   0  0  0  0  0  0  0  0  0  0  0  0
   12.5548  -18.0781   26.6323 C   0  0  0  0  0  0  0  0  0  0  0  0
   10.9760  -18.3177   28.1198 O   0  0  0  0  0  0  0  0  0  0  0  0
   11.4459  -19.4107   28.4979 O   0  0  0  0  0  0  0  0  0  0  0  0
   12.7376  -19.1152   24.6082 O   0  0  0  0  0  0  0  0  0  0  0  0
  2  1  1  0
  2  3  2  0
  4  2  1  0
  5  4  1  0
  6  5  1  0
  7  8  1  0
  7  6  1  0
  8 10  1  0
  8  9  1  6
 10 11  2  0
 12 13  1  0
 12 10  1  0
 13 16  1  0
 14 15  1  0
 13 14  1  1
 16 17  2  0
 18 19  1  0
 18 16  1  0
 19 23  1  0
 20 21  1  0
 19 20  1  1
 21 22  2  0
 23 24  2  0
 23 26  1  0
 25 21  1  0
M  END
$$$$
