RCD.pdb
     RDKit          3D

 26 25  0  0  1  0  0  0  0  0999 V2000
    8.5045  -12.7776   17.0157 N   0  0  0  0  0  0  0  0  0  0  0  0
    7.9667  -13.9077   16.3332 C   0  0  0  0  0  0  0  0  0  0  0  0
    7.6883  -13.8467   15.0784 N   0  0  0  0  0  0  0  0  0  0  0  0
    7.7324  -15.1175   17.0339 N   0  0  0  0  0  0  0  0  0  0  0  0
    8.2979  -15.2874   18.3557 C   0  0  0  0  0  0  0  0  0  0  0  0
    7.4568  -14.5833   19.4305 C   0  0  0  0  0  0  0  0  0  0  0  0
    8.0853  -14.9472   20.7458 C   0  0  0  0  0  0  0  0  0  0  0  0
    7.2028  -14.6751   21.9375 C   0  0  2  0  0  0  0  0  0  0  0  0
    6.3187  -13.5908   21.5514 N   0  0  0  0  0  0  0  0  0  0  0  0
    7.9184  -14.2963   23.1529 C   0  0  0  0  0  0  0  0  0  0  0  0
    8.8429  -13.4236   23.1912 O   0  0  0  0  0  0  0  0  0  0  0  0
    7.2843  -14.6229   14.5313 N   0  0  0  0  0  0  0  0  0  0  0  0
    7.6060  -14.9054   24.3943 C   0  0  1  0  0  0  0  0  0  0  0  0
    8.3593  -14.5361   25.6141 C   0  0  0  0  0  0  0  0  0  0  0  0
    7.3249  -14.0647   26.6463 S   0  0  0  0  0  0  0  0  0  0  0  0
    6.6499  -12.4635   26.1724 C   0  0  0  0  0  0  0  0  0  0  0  0
    8.9430  -15.7959   26.1453 O   0  0  0  0  0  0  0  0  0  0  0  0
    8.4193  -16.9112   25.8215 N   0  0  0  0  0  0  0  0  0  0  0  0
   10.0596  -15.8665   26.9979 C   0  0  1  0  0  0  0  0  0  0  0  0
   10.5971  -17.1553   27.3739 C   0  0  0  0  0  0  0  0  0  0  0  0
   11.8800  -17.4996   26.6426 C   0  0  0  0  0  0  0  0  0  0  0  0
   11.8507  -18.9145   26.2662 O   0  0  0  0  0  0  0  0  0  0  0  0
   10.8184  -19.6109   26.5256 C   0  0  0  0  0  0  0  0  0  0  0  0
   10.7682  -17.1809   28.8355 O   0  0  0  0  0  0  0  0  0  0  0  0
   10.9451  -16.1227   29.4738 O   0  0  0  0  0  0  0  0  0  0  0  0
   12.9153  -19.5533   25.6278 O   0  0  0  0  0  0  0  0  0  0  0  0
  2  1  1  0
  2  3  2  0
  4  2  1  0
  5  4  1  0
  6  5  1  0
  7  8  1  0
  7  6  1  0
  8 10  1  0
  8  9  1  6
 10 11  2  0
 12 13  1  0
 12 10  1  0
 13 16  1  0
 14 15  1  0
 13 14  1  6
 16 17  2  0
 18 19  1  0
 18 16  1  0
 19 23  1  0
 20 21  1  0
 19 20  1  1
 21 22  2  0
 23 24  2  0
 23 26  1  0
 25 21  1  0
M  END
$$$$
