RCD.pdb
     RDKit          3D

 26 25  0  0  1  0  0  0  0  0999 V2000
    8.7970  -15.1207   15.8456 N   0  0  0  0  0  0  0  0  0  0  0  0
    8.1463  -13.9424   15.3760 C   0  0  0  0  0  0  0  0  0  0  0  0
    7.7930  -13.8333   14.1436 N   0  0  0  0  0  0  0  0  0  0  0  0
    7.8797  -12.8730   16.2675 N   0  0  0  0  0  0  0  0  0  0  0  0
    8.2759  -12.9960   17.6544 C   0  0  0  0  0  0  0  0  0  0  0  0
    7.7492  -14.2933   18.2850 C   0  0  0  0  0  0  0  0  0  0  0  0
    8.2991  -14.3218   19.6830 C   0  0  0  0  0  0  0  0  0  0  0  0
    7.3972  -15.0080   20.6774 C   0  0  2  0  0  0  0  0  0  0  0  0
    6.0494  -14.5559   20.3856 N   0  0  0  0  0  0  0  0  0  0  0  0
    7.7029  -14.7225   22.0766 C   0  0  0  0  0  0  0  0  0  0  0  0
    7.3116  -13.6803   22.6918 O   0  0  0  0  0  0  0  0  0  0  0  0
    7.3615  -12.9910   13.7319 N   0  0  0  0  0  0  0  0  0  0  0  0
    8.4791  -15.6262   22.8451 C   0  0  1  0  0  0  0  0  0  0  0  0
    9.0939  -15.1829   24.1168 C   0  0  0  0  0  0  0  0  0  0  0  0
    7.9430  -14.9476   25.1056 S   0  0  0  0  0  0  0  0  0  0  0  0
    6.7049  -16.2463   24.9483 C   0  0  0  0  0  0  0  0  0  0  0  0
    9.8672  -16.3415   24.6360 O   0  0  0  0  0  0  0  0  0  0  0  0
    9.5765  -17.5155   24.2357 N   0  0  0  0  0  0  0  0  0  0  0  0
   10.9270  -16.2519   25.5567 C   0  0  1  0  0  0  0  0  0  0  0  0
   11.8055  -17.3834   25.7547 C   0  0  0  0  0  0  0  0  0  0  0  0
   13.2744  -17.0104   25.7037 C   0  0  0  0  0  0  0  0  0  0  0  0
   13.6803  -16.8570   24.3051 O   0  0  0  0  0  0  0  0  0  0  0  0
   14.8063  -16.3318   24.0331 C   0  0  0  0  0  0  0  0  0  0  0  0
   11.4437  -18.0387   27.0219 O   0  0  0  0  0  0  0  0  0  0  0  0
   10.5942  -17.5291   27.7816 O   0  0  0  0  0  0  0  0  0  0  0  0
   12.8822  -17.2617   23.2334 O   0  0  0  0  0  0  0  0  0  0  0  0
  2  1  1  0
  2  3  2  0
  4  2  1  0
  5  4  1  0
  6  5  1  0
  7  8  1  0
  7  6  1  0
  8 10  1  0
  8  9  1  6
 10 11  2  0
 12 13  1  0
 12 10  1  0
 13 16  1  0
 14 15  1  0
 13 14  1  1
 16 17  2  0
 18 19  1  0
 18 16  1  0
 19 23  1  0
 20 21  1  0
 19 20  1  1
 21 22  2  0
 23 24  2  0
 23 26  1  0
 25 21  1  0
M  END
$$$$
