RCD.pdb
     RDKit          3D

 26 25  0  0  1  0  0  0  0  0999 V2000
    8.1358  -12.0860   18.3885 N   0  0  0  0  0  0  0  0  0  0  0  0
    7.8419  -13.1661   17.5057 C   0  0  0  0  0  0  0  0  0  0  0  0
    8.3951  -13.2367   16.3462 N   0  0  0  0  0  0  0  0  0  0  0  0
    6.9323  -14.1798   17.8991 N   0  0  0  0  0  0  0  0  0  0  0  0
    6.6912  -14.4021   19.3090 C   0  0  0  0  0  0  0  0  0  0  0  0
    7.5860  -15.5160   19.8719 C   0  0  0  0  0  0  0  0  0  0  0  0
    8.2009  -14.9546   21.1225 C   0  0  0  0  0  0  0  0  0  0  0  0
    8.0745  -15.8598   22.3217 C   0  0  2  0  0  0  0  0  0  0  0  0
    6.6527  -16.0538   22.5383 N   0  0  0  0  0  0  0  0  0  0  0  0
    8.6760  -15.3381   23.5459 C   0  0  0  0  0  0  0  0  0  0  0  0
    9.8706  -14.9085   23.6244 O   0  0  0  0  0  0  0  0  0  0  0  0
    8.1677  -13.9466   15.6325 N   0  0  0  0  0  0  0  0  0  0  0  0
    7.9302  -15.2834   24.7503 C   0  0  1  0  0  0  0  0  0  0  0  0
    8.5696  -14.8131   26.0000 C   0  0  0  0  0  0  0  0  0  0  0  0
    7.4924  -14.0551   26.7892 S   0  0  0  0  0  0  0  0  0  0  0  0
    6.4839  -13.0595   25.6776 C   0  0  0  0  0  0  0  0  0  0  0  0
    8.8946  -16.0300   26.7896 O   0  0  0  0  0  0  0  0  0  0  0  0
    7.9659  -16.8531   27.0779 N   0  0  0  0  0  0  0  0  0  0  0  0
   10.1783  -16.3643   27.2579 C   0  0  1  0  0  0  0  0  0  0  0  0
   10.4042  -17.6490   27.8821 C   0  0  0  0  0  0  0  0  0  0  0  0
   11.3080  -18.5539   27.0676 C   0  0  0  0  0  0  0  0  0  0  0  0
   11.5660  -19.7798   27.8259 O   0  0  0  0  0  0  0  0  0  0  0  0
   10.6123  -20.3416   28.4526 C   0  0  0  0  0  0  0  0  0  0  0  0
   10.9247  -17.4226   29.2400 O   0  0  0  0  0  0  0  0  0  0  0  0
   11.3009  -16.2867   29.5959 O   0  0  0  0  0  0  0  0  0  0  0  0
   12.8263  -20.3756   27.9015 O   0  0  0  0  0  0  0  0  0  0  0  0
  2  1  1  0
  2  3  2  0
  4  2  1  0
  5  4  1  0
  6  5  1  0
  7  8  1  0
  7  6  1  0
  8 10  1  0
  8  9  1  1
 10 11  2  0
 12 13  1  0
 12 10  1  0
 13 16  1  0
 14 15  1  0
 13 14  1  1
 16 17  2  0
 18 19  1  0
 18 16  1  0
 19 23  1  0
 20 21  1  0
 19 20  1  1
 21 22  2  0
 23 24  2  0
 23 26  1  0
 25 21  1  0
M  END
$$$$
