RCD.pdb
     RDKit          3D

 26 25  0  0  1  0  0  0  0  0999 V2000
   10.0601  -14.2733   18.4173 N   0  0  0  0  0  0  0  0  0  0  0  0
    9.2007  -13.9355   17.3312 C   0  0  0  0  0  0  0  0  0  0  0  0
    9.5729  -14.1263   16.1144 N   0  0  0  0  0  0  0  0  0  0  0  0
    7.9194  -13.3834   17.5823 N   0  0  0  0  0  0  0  0  0  0  0  0
    7.3737  -13.4489   18.9215 C   0  0  0  0  0  0  0  0  0  0  0  0
    7.4658  -14.8660   19.5060 C   0  0  0  0  0  0  0  0  0  0  0  0
    8.0185  -14.7016   20.8934 C   0  0  0  0  0  0  0  0  0  0  0  0
    7.0562  -15.1017   21.9829 C   0  0  2  0  0  0  0  0  0  0  0  0
    5.7487  -14.6295   21.5660 N   0  0  0  0  0  0  0  0  0  0  0  0
    7.3634  -14.5517   23.3004 C   0  0  0  0  0  0  0  0  0  0  0  0
    7.1739  -13.3368   23.6259 O   0  0  0  0  0  0  0  0  0  0  0  0
    9.0357  -13.8276   15.2854 N   0  0  0  0  0  0  0  0  0  0  0  0
    7.9076  -15.3755   24.3178 C   0  0  1  0  0  0  0  0  0  0  0  0
    8.7746  -14.7892   25.3647 C   0  0  0  0  0  0  0  0  0  0  0  0
    7.8542  -14.0107   26.3158 S   0  0  0  0  0  0  0  0  0  0  0  0
    6.4273  -15.0124   26.7680 C   0  0  0  0  0  0  0  0  0  0  0  0
    9.3215  -15.9301   26.1452 O   0  0  0  0  0  0  0  0  0  0  0  0
    8.6296  -16.9933   26.2639 N   0  0  0  0  0  0  0  0  0  0  0  0
   10.5763  -15.9401   26.7809 C   0  0  1  0  0  0  0  0  0  0  0  0
   11.0921  -17.1723   27.3349 C   0  0  0  0  0  0  0  0  0  0  0  0
   12.5071  -17.4790   26.8844 C   0  0  0  0  0  0  0  0  0  0  0  0
   12.5155  -17.6715   25.4328 O   0  0  0  0  0  0  0  0  0  0  0  0
   11.5350  -18.2567   24.8724 C   0  0  0  0  0  0  0  0  0  0  0  0
   10.9788  -17.1080   28.8009 O   0  0  0  0  0  0  0  0  0  0  0  0
   10.6061  -16.0584   29.3646 O   0  0  0  0  0  0  0  0  0  0  0  0
   13.5621  -17.2413   24.6152 O   0  0  0  0  0  0  0  0  0  0  0  0
  2  1  1  0
  2  3  2  0
  4  2  1  0
  5  4  1  0
  6  5  1  0
  7  8  1  0
  7  6  1  0
  8 10  1  0
  8  9  1  6
 10 11  2  0
 12 13  1  0
 12 10  1  0
 13 16  1  0
 14 15  1  0
 13 14  1  1
 16 17  2  0
 18 19  1  0
 18 16  1  0
 19 23  1  0
 20 21  1  0
 19 20  1  1
 21 22  2  0
 23 24  2  0
 23 26  1  0
 25 21  1  0
M  END
$$$$
