RCD.pdb
     RDKit          3D

 26 25  0  0  1  0  0  0  0  0999 V2000
    8.3778  -15.0953   16.5688 N   0  0  0  0  0  0  0  0  0  0  0  0
    8.0068  -13.7276   16.7233 C   0  0  0  0  0  0  0  0  0  0  0  0
    8.1156  -12.9020   15.7424 N   0  0  0  0  0  0  0  0  0  0  0  0
    7.5105  -13.2606   17.9664 N   0  0  0  0  0  0  0  0  0  0  0  0
    8.1005  -13.7560   19.1919 C   0  0  0  0  0  0  0  0  0  0  0  0
    8.2325  -15.2860   19.1835 C   0  0  0  0  0  0  0  0  0  0  0  0
    8.9526  -15.6419   20.4532 C   0  0  0  0  0  0  0  0  0  0  0  0
    8.0431  -15.7948   21.6459 C   0  0  2  0  0  0  0  0  0  0  0  0
    6.8275  -15.0685   21.3278 N   0  0  0  0  0  0  0  0  0  0  0  0
    8.5897  -15.2826   22.8995 C   0  0  0  0  0  0  0  0  0  0  0  0
    9.8246  -15.3140   23.2025 O   0  0  0  0  0  0  0  0  0  0  0  0
    7.9607  -11.8843   15.8154 N   0  0  0  0  0  0  0  0  0  0  0  0
    7.7392  -14.7045   23.8753 C   0  0  1  0  0  0  0  0  0  0  0  0
    8.2772  -14.3305   25.2028 C   0  0  0  0  0  0  0  0  0  0  0  0
    7.3777  -13.2100   25.7444 S   0  0  0  0  0  0  0  0  0  0  0  0
    5.6605  -13.7513   25.7914 C   0  0  0  0  0  0  0  0  0  0  0  0
    8.0674  -15.5063   26.0879 O   0  0  0  0  0  0  0  0  0  0  0  0
    7.0107  -16.2056   25.9562 N   0  0  0  0  0  0  0  0  0  0  0  0
    8.9628  -15.9293   27.0870 C   0  0  1  0  0  0  0  0  0  0  0  0
    9.1533  -17.3418   27.3309 C   0  0  0  0  0  0  0  0  0  0  0  0
    9.4535  -18.1269   26.0688 C   0  0  0  0  0  0  0  0  0  0  0  0
    9.7073  -19.5246   26.4243 O   0  0  0  0  0  0  0  0  0  0  0  0
    9.4647  -19.9246   27.6071 C   0  0  0  0  0  0  0  0  0  0  0  0
   10.2062  -17.5019   28.3468 O   0  0  0  0  0  0  0  0  0  0  0  0
   10.5932  -18.6386   28.6881 O   0  0  0  0  0  0  0  0  0  0  0  0
   10.2129  -20.4592   25.5189 O   0  0  0  0  0  0  0  0  0  0  0  0
  2  1  1  0
  2  3  2  0
  4  2  1  0
  5  4  1  0
  6  5  1  0
  7  8  1  0
  7  6  1  0
  8 10  1  0
  8  9  1  6
 10 11  2  0
 12 13  1  0
 12 10  1  0
 13 16  1  0
 14 15  1  0
 13 14  1  1
 16 17  2  0
 18 19  1  0
 18 16  1  0
 19 23  1  0
 20 21  1  0
 19 20  1  1
 21 22  2  0
 23 24  2  0
 23 26  1  0
 25 21  1  0
M  END
$$$$
