RCD.pdb
     RDKit          3D

 26 25  0  0  1  0  0  0  0  0999 V2000
    7.4521  -12.1891   15.8463 N   0  0  0  0  0  0  0  0  0  0  0  0
    7.7055  -13.5240   15.4148 C   0  0  0  0  0  0  0  0  0  0  0  0
    7.2357  -13.9538   14.2968 N   0  0  0  0  0  0  0  0  0  0  0  0
    8.4827  -14.3963   16.2176 N   0  0  0  0  0  0  0  0  0  0  0  0
    8.6167  -14.1205   17.6324 C   0  0  0  0  0  0  0  0  0  0  0  0
    7.2497  -13.9944   18.3207 C   0  0  0  0  0  0  0  0  0  0  0  0
    7.5438  -13.7552   19.7746 C   0  0  0  0  0  0  0  0  0  0  0  0
    7.9581  -14.9964   20.5235 C   0  0  2  0  0  0  0  0  0  0  0  0
    6.7480  -15.7703   20.7314 N   0  0  0  0  0  0  0  0  0  0  0  0
    8.5914  -14.7465   21.8155 C   0  0  0  0  0  0  0  0  0  0  0  0
    8.9931  -13.6031   22.2014 O   0  0  0  0  0  0  0  0  0  0  0  0
    7.4372  -14.8837   13.8972 N   0  0  0  0  0  0  0  0  0  0  0  0
    8.7969  -15.8052   22.7357 C   0  0  1  0  0  0  0  0  0  0  0  0
    9.5245  -15.5594   24.0013 C   0  0  0  0  0  0  0  0  0  0  0  0
    8.6491  -14.6151   24.8379 S   0  0  0  0  0  0  0  0  0  0  0  0
    6.9533  -15.2192   24.8973 C   0  0  0  0  0  0  0  0  0  0  0  0
    9.5584  -16.8572   24.7255 O   0  0  0  0  0  0  0  0  0  0  0  0
    8.9076  -17.8485   24.2600 N   0  0  0  0  0  0  0  0  0  0  0  0
   10.2710  -17.0947   25.9149 C   0  0  1  0  0  0  0  0  0  0  0  0
   11.1271  -18.2553   26.0210 C   0  0  0  0  0  0  0  0  0  0  0  0
   12.1428  -18.3481   24.8989 C   0  0  0  0  0  0  0  0  0  0  0  0
   12.9703  -19.5393   25.1006 O   0  0  0  0  0  0  0  0  0  0  0  0
   12.7259  -20.3140   26.0793 C   0  0  0  0  0  0  0  0  0  0  0  0
   11.7655  -18.2443   27.3471 O   0  0  0  0  0  0  0  0  0  0  0  0
   12.0085  -17.1660   27.9271 O   0  0  0  0  0  0  0  0  0  0  0  0
   14.0346  -19.8760   24.2623 O   0  0  0  0  0  0  0  0  0  0  0  0
  2  1  1  0
  2  3  2  0
  4  2  1  0
  5  4  1  0
  6  5  1  0
  7  8  1  0
  7  6  1  0
  8 10  1  0
  8  9  1  1
 10 11  2  0
 12 13  1  0
 12 10  1  0
 13 16  1  0
 14 15  1  0
 13 14  1  1
 16 17  2  0
 18 19  1  0
 18 16  1  0
 19 23  1  0
 20 21  1  0
 19 20  1  1
 21 22  2  0
 23 24  2  0
 23 26  1  0
 25 21  1  0
M  END
$$$$
