RCD.pdb
     RDKit          3D

 26 25  0  0  1  0  0  0  0  0999 V2000
    9.5650  -21.7134   20.3466 N   0  0  0  0  0  0  0  0  0  0  0  0
    8.1939  -21.4491   20.0594 C   0  0  0  0  0  0  0  0  0  0  0  0
    7.6606  -21.8612   18.9634 N   0  0  0  0  0  0  0  0  0  0  0  0
    7.3993  -20.7260   20.9843 N   0  0  0  0  0  0  0  0  0  0  0  0
    8.0218  -19.7075   21.8031 C   0  0  0  0  0  0  0  0  0  0  0  0
    8.7958  -18.6880   20.9547 C   0  0  0  0  0  0  0  0  0  0  0  0
    9.3302  -17.6710   21.9230 C   0  0  0  0  0  0  0  0  0  0  0  0
    8.6097  -16.3475   21.8744 C   0  0  2  0  0  0  0  0  0  0  0  0
    8.9389  -15.7506   20.5931 N   0  0  0  0  0  0  0  0  0  0  0  0
    8.9709  -15.4168   22.9402 C   0  0  0  0  0  0  0  0  0  0  0  0
   10.1677  -15.1043   23.2364 O   0  0  0  0  0  0  0  0  0  0  0  0
    6.6839  -21.6789   18.6843 N   0  0  0  0  0  0  0  0  0  0  0  0
    7.9683  -14.7937   23.7252 C   0  0  2  0  0  0  0  0  0  0  0  0
    8.3469  -13.9418   24.8752 C   0  0  0  0  0  0  0  0  0  0  0  0
    7.1640  -12.9974   25.1338 S   0  0  0  0  0  0  0  0  0  0  0  0
    5.7647  -13.9129   25.8031 C   0  0  0  0  0  0  0  0  0  0  0  0
    8.4345  -14.8425   26.0547 O   0  0  0  0  0  0  0  0  0  0  0  0
    8.1029  -16.0663   25.9311 N   0  0  0  0  0  0  0  0  0  0  0  0
    8.8682  -14.4502   27.3341 C   0  0  1  0  0  0  0  0  0  0  0  0
    9.8317  -15.2597   28.0465 C   0  0  0  0  0  0  0  0  0  0  0  0
   11.0546  -15.5957   27.2154 C   0  0  0  0  0  0  0  0  0  0  0  0
   11.9399  -16.4622   27.9963 O   0  0  0  0  0  0  0  0  0  0  0  0
   11.5812  -16.8432   29.1556 C   0  0  0  0  0  0  0  0  0  0  0  0
   10.1846  -14.5710   29.2985 O   0  0  0  0  0  0  0  0  0  0  0  0
   10.5421  -15.2206   30.3028 O   0  0  0  0  0  0  0  0  0  0  0  0
   13.1809  -16.8994   27.5295 O   0  0  0  0  0  0  0  0  0  0  0  0
  2  1  1  0
  2  3  2  0
  4  2  1  0
  5  4  1  0
  6  5  1  0
  7  8  1  0
  7  6  1  0
  8 10  1  0
  8  9  1  6
 10 11  2  0
 12 13  1  0
 12 10  1  0
 13 16  1  0
 14 15  1  0
 13 14  1  6
 16 17  2  0
 18 19  1  0
 18 16  1  0
 19 23  1  0
 20 21  1  0
 19 20  1  1
 21 22  2  0
 23 24  2  0
 23 26  1  0
 25 21  1  0
M  END
$$$$
