RCD.pdb
     RDKit          3D

 26 25  0  0  1  0  0  0  0  0999 V2000
    7.3215  -14.3686   14.2017 N   0  0  0  0  0  0  0  0  0  0  0  0
    8.1134  -13.2852   14.6828 C   0  0  0  0  0  0  0  0  0  0  0  0
    8.5448  -12.3783   13.8785 N   0  0  0  0  0  0  0  0  0  0  0  0
    8.4349  -13.1952   16.0605 N   0  0  0  0  0  0  0  0  0  0  0  0
    7.7848  -14.0884   16.9959 C   0  0  0  0  0  0  0  0  0  0  0  0
    8.0133  -15.5622   16.6299 C   0  0  0  0  0  0  0  0  0  0  0  0
    9.3755  -15.9094   17.1602 C   0  0  0  0  0  0  0  0  0  0  0  0
    9.3452  -16.7017   18.4426 C   0  0  2  0  0  0  0  0  0  0  0  0
    8.0500  -17.3550   18.4879 N   0  0  0  0  0  0  0  0  0  0  0  0
    9.5204  -15.9069   19.6551 C   0  0  0  0  0  0  0  0  0  0  0  0
   10.5351  -15.1755   19.8857 O   0  0  0  0  0  0  0  0  0  0  0  0
    9.0597  -11.5337   14.1724 N   0  0  0  0  0  0  0  0  0  0  0  0
    8.5318  -15.9123   20.6712 C   0  0  1  0  0  0  0  0  0  0  0  0
    8.7995  -15.2593   21.9725 C   0  0  0  0  0  0  0  0  0  0  0  0
    7.4332  -14.9311   22.5915 S   0  0  0  0  0  0  0  0  0  0  0  0
    7.6428  -14.2103   24.2288 C   0  0  0  0  0  0  0  0  0  0  0  0
    9.4202  -16.2933   22.8418 O   0  0  0  0  0  0  0  0  0  0  0  0
    9.7335  -17.4224   22.3419 N   0  0  0  0  0  0  0  0  0  0  0  0
    9.7037  -16.1276   24.2097 C   0  0  1  0  0  0  0  0  0  0  0  0
   10.5434  -17.0873   24.8915 C   0  0  0  0  0  0  0  0  0  0  0  0
   11.8722  -17.3126   24.1967 C   0  0  0  0  0  0  0  0  0  0  0  0
   12.6623  -18.2690   24.9748 O   0  0  0  0  0  0  0  0  0  0  0  0
   12.0714  -19.0883   25.7477 C   0  0  0  0  0  0  0  0  0  0  0  0
   10.7145  -16.6494   26.2863 O   0  0  0  0  0  0  0  0  0  0  0  0
   10.2754  -15.5437   26.6642 O   0  0  0  0  0  0  0  0  0  0  0  0
   14.0558  -18.3302   24.9148 O   0  0  0  0  0  0  0  0  0  0  0  0
  2  1  1  0
  2  3  2  0
  4  2  1  0
  5  4  1  0
  6  5  1  0
  7  8  1  0
  7  6  1  0
  8 10  1  0
  8  9  1  1
 10 11  2  0
 12 13  1  0
 12 10  1  0
 13 16  1  0
 14 15  1  0
 13 14  1  1
 16 17  2  0
 18 19  1  0
 18 16  1  0
 19 23  1  0
 20 21  1  0
 19 20  1  1
 21 22  2  0
 23 24  2  0
 23 26  1  0
 25 21  1  0
M  END
$$$$
