RCD.pdb
     RDKit          3D

 26 25  0  0  1  0  0  0  0  0999 V2000
    9.0595  -15.1290   15.5434 N   0  0  0  0  0  0  0  0  0  0  0  0
    8.1479  -14.0511   15.3447 C   0  0  0  0  0  0  0  0  0  0  0  0
    8.2957  -13.2386   14.3581 N   0  0  0  0  0  0  0  0  0  0  0  0
    7.0626  -13.8629   16.2370 N   0  0  0  0  0  0  0  0  0  0  0  0
    7.3327  -13.4553   17.5995 C   0  0  0  0  0  0  0  0  0  0  0  0
    8.5906  -14.1353   18.1594 C   0  0  0  0  0  0  0  0  0  0  0  0
    8.7514  -13.6110   19.5582 C   0  0  0  0  0  0  0  0  0  0  0  0
    8.3310  -14.5887   20.6262 C   0  0  2  0  0  0  0  0  0  0  0  0
    6.8802  -14.6178   20.6045 N   0  0  0  0  0  0  0  0  0  0  0  0
    8.7805  -14.2505   21.9740 C   0  0  0  0  0  0  0  0  0  0  0  0
    9.9794  -13.9441   22.2680 O   0  0  0  0  0  0  0  0  0  0  0  0
    7.6562  -12.4574   14.1437 N   0  0  0  0  0  0  0  0  0  0  0  0
    7.8688  -14.2473   23.0596 C   0  0  1  0  0  0  0  0  0  0  0  0
    8.3542  -14.0067   24.4373 C   0  0  0  0  0  0  0  0  0  0  0  0
    7.3902  -12.9959   25.0752 S   0  0  0  0  0  0  0  0  0  0  0  0
    5.9448  -13.8405   25.7398 C   0  0  0  0  0  0  0  0  0  0  0  0
    8.1757  -15.2849   25.1751 O   0  0  0  0  0  0  0  0  0  0  0  0
    7.1714  -16.0228   24.9106 N   0  0  0  0  0  0  0  0  0  0  0  0
    9.0475  -15.7675   26.1681 C   0  0  1  0  0  0  0  0  0  0  0  0
    9.7600  -17.0082   25.9585 C   0  0  0  0  0  0  0  0  0  0  0  0
   10.7101  -16.9550   24.7779 C   0  0  0  0  0  0  0  0  0  0  0  0
   11.4966  -18.1896   24.7412 O   0  0  0  0  0  0  0  0  0  0  0  0
   11.2942  -19.0881   25.6185 C   0  0  0  0  0  0  0  0  0  0  0  0
   10.4489  -17.3673   27.2085 O   0  0  0  0  0  0  0  0  0  0  0  0
   11.1405  -18.4042   27.2784 O   0  0  0  0  0  0  0  0  0  0  0  0
   12.4768  -18.4379   23.7786 O   0  0  0  0  0  0  0  0  0  0  0  0
  2  1  1  0
  2  3  2  0
  4  2  1  0
  5  4  1  0
  6  5  1  0
  7  8  1  0
  7  6  1  0
  8 10  1  0
  8  9  1  1
 10 11  2  0
 12 13  1  0
 12 10  1  0
 13 16  1  0
 14 15  1  0
 13 14  1  1
 16 17  2  0
 18 19  1  0
 18 16  1  0
 19 23  1  0
 20 21  1  0
 19 20  1  1
 21 22  2  0
 23 24  2  0
 23 26  1  0
 25 21  1  0
M  END
$$$$
