RCD.pdb
     RDKit          3D

 26 25  0  0  1  0  0  0  0  0999 V2000
    8.2822  -12.7048   16.9510 N   0  0  0  0  0  0  0  0  0  0  0  0
    8.0410  -14.0197   16.4557 C   0  0  0  0  0  0  0  0  0  0  0  0
    7.2332  -14.2143   15.4733 N   0  0  0  0  0  0  0  0  0  0  0  0
    8.6933  -15.1327   17.0436 N   0  0  0  0  0  0  0  0  0  0  0  0
    8.5946  -15.3329   18.4738 C   0  0  0  0  0  0  0  0  0  0  0  0
    7.4097  -14.5643   19.0768 C   0  0  0  0  0  0  0  0  0  0  0  0
    7.8940  -14.0351   20.3970 C   0  0  0  0  0  0  0  0  0  0  0  0
    8.0639  -15.0979   21.4529 C   0  0  2  0  0  0  0  0  0  0  0  0
    6.7699  -15.7385   21.5989 N   0  0  0  0  0  0  0  0  0  0  0  0
    8.4986  -14.6000   22.7551 C   0  0  0  0  0  0  0  0  0  0  0  0
    9.6644  -14.1497   22.9915 O   0  0  0  0  0  0  0  0  0  0  0  0
    7.1267  -15.1107   14.9733 N   0  0  0  0  0  0  0  0  0  0  0  0
    7.6096  -14.5943   23.8594 C   0  0  1  0  0  0  0  0  0  0  0  0
    8.0614  -14.0879   25.1750 C   0  0  0  0  0  0  0  0  0  0  0  0
    6.9071  -13.2523   25.7470 S   0  0  0  0  0  0  0  0  0  0  0  0
    7.3170  -12.6635   27.3991 C   0  0  0  0  0  0  0  0  0  0  0  0
    8.2010  -15.2761   26.0575 O   0  0  0  0  0  0  0  0  0  0  0  0
    7.4203  -16.2695   25.8943 N   0  0  0  0  0  0  0  0  0  0  0  0
    9.1514  -15.4048   27.0866 C   0  0  1  0  0  0  0  0  0  0  0  0
    9.6949  -16.7065   27.4050 C   0  0  0  0  0  0  0  0  0  0  0  0
   10.2635  -17.4241   26.1963 C   0  0  0  0  0  0  0  0  0  0  0  0
   10.8260  -18.7070   26.6230 O   0  0  0  0  0  0  0  0  0  0  0  0
   10.2446  -19.3735   27.5371 C   0  0  0  0  0  0  0  0  0  0  0  0
   10.6930  -16.5462   28.4747 O   0  0  0  0  0  0  0  0  0  0  0  0
   11.0065  -15.4104   28.8871 O   0  0  0  0  0  0  0  0  0  0  0  0
   11.9893  -19.2476   26.0721 O   0  0  0  0  0  0  0  0  0  0  0  0
  2  1  1  0
  2  3  2  0
  4  2  1  0
  5  4  1  0
  6  5  1  0
  7  8  1  0
  7  6  1  0
  8 10  1  0
  8  9  1  1
 10 11  2  0
 12 13  1  0
 12 10  1  0
 13 16  1  0
 14 15  1  0
 13 14  1  6
 16 17  2  0
 18 19  1  0
 18 16  1  0
 19 23  1  0
 20 21  1  0
 19 20  1  1
 21 22  2  0
 23 24  2  0
 23 26  1  0
 25 21  1  0
M  END
$$$$
