RCD.pdb
     RDKit          3D

 26 25  0  0  1  0  0  0  0  0999 V2000
    9.3334  -15.3008   14.8803 N   0  0  0  0  0  0  0  0  0  0  0  0
    7.9298  -15.5235   14.9927 C   0  0  0  0  0  0  0  0  0  0  0  0
    7.1448  -15.2848   14.0016 N   0  0  0  0  0  0  0  0  0  0  0  0
    7.3816  -16.0138   16.2046 N   0  0  0  0  0  0  0  0  0  0  0  0
    8.2730  -16.3735   17.2869 C   0  0  0  0  0  0  0  0  0  0  0  0
    8.6605  -15.1539   18.1358 C   0  0  0  0  0  0  0  0  0  0  0  0
    7.3977  -14.7137   18.8207 C   0  0  0  0  0  0  0  0  0  0  0  0
    7.5822  -13.5275   19.7328 C   0  0  2  0  0  0  0  0  0  0  0  0
    8.4074  -12.5794   19.0073 N   0  0  0  0  0  0  0  0  0  0  0  0
    8.2197  -13.8337   21.0105 C   0  0  0  0  0  0  0  0  0  0  0  0
    9.4785  -13.8451   21.1927 O   0  0  0  0  0  0  0  0  0  0  0  0
    6.1270  -15.4554   14.0082 N   0  0  0  0  0  0  0  0  0  0  0  0
    7.4378  -14.1446   22.1514 C   0  0  2  0  0  0  0  0  0  0  0  0
    8.0937  -14.4170   23.4504 C   0  0  0  0  0  0  0  0  0  0  0  0
    6.9732  -14.5489   24.4920 S   0  0  0  0  0  0  0  0  0  0  0  0
    6.6118  -12.9468   25.2313 C   0  0  0  0  0  0  0  0  0  0  0  0
    8.7205  -15.7597   23.3313 O   0  0  0  0  0  0  0  0  0  0  0  0
    8.6379  -16.3912   22.2279 N   0  0  0  0  0  0  0  0  0  0  0  0
    9.4215  -16.4129   24.3613 C   0  0  1  0  0  0  0  0  0  0  0  0
   10.5441  -17.2656   24.0389 C   0  0  0  0  0  0  0  0  0  0  0  0
   11.6120  -16.5591   23.2267 C   0  0  0  0  0  0  0  0  0  0  0  0
   12.7521  -17.4607   23.0493 O   0  0  0  0  0  0  0  0  0  0  0  0
   12.5488  -18.7085   22.9101 C   0  0  0  0  0  0  0  0  0  0  0  0
   11.0792  -17.8252   25.2906 O   0  0  0  0  0  0  0  0  0  0  0  0
   10.9898  -17.1893   26.3611 O   0  0  0  0  0  0  0  0  0  0  0  0
   14.0756  -17.0168   23.0263 O   0  0  0  0  0  0  0  0  0  0  0  0
  2  1  1  0
  2  3  2  0
  4  2  1  0
  5  4  1  0
  6  5  1  0
  7  8  1  0
  7  6  1  0
  8 10  1  0
  8  9  1  6
 10 11  2  0
 12 13  1  0
 12 10  1  0
 13 16  1  0
 14 15  1  0
 13 14  1  6
 16 17  2  0
 18 19  1  0
 18 16  1  0
 19 23  1  0
 20 21  1  0
 19 20  1  1
 21 22  2  0
 23 24  2  0
 23 26  1  0
 25 21  1  0
M  END
$$$$
