VPM.pdb
     RDKit          3D

 23 23  0  0  1  0  0  0  0  0999 V2000
    7.4663  -12.7732   18.5048 C   0  0  0  0  0  0  0  0  0  0  0  0
    7.5369  -13.4662   19.8455 C   0  0  2  0  0  0  0  0  0  0  0  0
    8.5669  -12.7933   20.7046 C   0  0  0  0  0  0  0  0  0  0  0  0
    7.8517  -14.9339   19.6114 C   0  0  2  0  0  0  0  0  0  0  0  0
    6.8904  -15.4293   18.6800 N   0  0  0  0  0  0  0  0  0  0  0  0
    7.9069  -15.6971   20.8611 C   0  0  0  0  0  0  0  0  0  0  0  0
    6.9516  -15.5565   21.7113 O   0  0  0  0  0  0  0  0  0  0  0  0
    8.9898  -16.5823   21.1483 N   0  0  0  0  0  0  0  0  0  0  0  0
    9.8982  -17.0658   20.1349 C   0  0  0  0  0  0  0  0  0  0  0  0
   10.7177  -18.1567   20.8098 C   0  0  0  0  0  0  0  0  0  0  0  0
   10.7655  -17.6272   22.2160 C   0  0  0  0  0  0  0  0  0  0  0  0
    9.3556  -17.1216   22.4090 C   0  0  1  0  0  0  0  0  0  0  0  0
    9.3094  -16.1558   23.5456 C   0  0  0  0  0  0  0  0  0  0  0  0
    9.3651  -14.9376   23.2857 O   0  0  0  0  0  0  0  0  0  0  0  0
    6.3672  -11.4053   27.7159 C   0  0  0  0  0  0  0  0  0  0  0  0
    6.6454  -12.4301   26.2653 S   0  0  0  0  0  0  0  0  0  0  0  0
    7.1481  -14.0842   26.8251 C   0  0  0  0  0  0  0  0  0  0  0  0
    7.5557  -14.9622   25.6781 C   0  0  0  0  0  0  0  0  0  0  0  0
    8.8265  -15.6696   25.9764 C   0  0  2  0  0  0  0  0  0  0  0  0
    9.2050  -16.5817   24.8946 N   0  0  0  0  0  0  0  0  0  0  0  0
    8.8518  -16.3588   27.2764 C   0  0  0  0  0  0  0  0  0  0  0  0
    9.4881  -15.9475   28.4225 O   0  0  0  0  0  0  0  0  0  0  0  0
    8.2189  -17.4637   27.3661 O   0  0  0  0  0  0  0  0  0  0  0  0
  2  1  1  6
  2  3  1  0
  4  2  1  0
  4  5  1  6
  6  8  1  0
  6  4  1  0
  7  6  2  0
  8  9  1  0
 10  9  1  0
 11 10  1  0
 11 12  1  0
 12  8  1  0
 12 13  1  1
 13 20  1  0
 14 13  2  0
 16 15  1  0
 17 16  1  0
 18 17  1  0
 19 18  1  6
 19 20  1  0
 19 21  1  0
 21 22  1  0
 23 21  2  0
M  END
$$$$
