VPM.pdb
     RDKit          3D

 23 23  0  0  1  0  0  0  0  0999 V2000
    4.4747  -18.1731   22.6798 C   0  0  0  0  0  0  0  0  0  0  0  0
    4.2390  -17.5973   21.3030 C   0  0  2  0  0  0  0  0  0  0  0  0
    3.0275  -18.2379   20.6918 C   0  0  0  0  0  0  0  0  0  0  0  0
    5.4898  -17.8183   20.4695 C   0  0  2  0  0  0  0  0  0  0  0  0
    5.6385  -19.2271   20.2953 N   0  0  0  0  0  0  0  0  0  0  0  0
    6.6680  -17.1703   21.0520 C   0  0  0  0  0  0  0  0  0  0  0  0
    7.2822  -17.7610   22.0158 O   0  0  0  0  0  0  0  0  0  0  0  0
    7.1395  -15.9099   20.5749 N   0  0  0  0  0  0  0  0  0  0  0  0
    6.7071  -15.3328   19.3234 C   0  0  0  0  0  0  0  0  0  0  0  0
    7.6259  -14.1427   19.0850 C   0  0  0  0  0  0  0  0  0  0  0  0
    7.8844  -13.7133   20.5024 C   0  0  0  0  0  0  0  0  0  0  0  0
    8.0667  -15.0385   21.2034 C   0  0  1  0  0  0  0  0  0  0  0  0
    7.8768  -14.8699   22.6739 C   0  0  0  0  0  0  0  0  0  0  0  0
    6.8933  -14.2132   23.0691 O   0  0  0  0  0  0  0  0  0  0  0  0
    6.7977  -11.1961   26.8398 C   0  0  0  0  0  0  0  0  0  0  0  0
    6.7244  -12.8209   27.6057 S   0  0  0  0  0  0  0  0  0  0  0  0
    8.0970  -13.8188   26.9557 C   0  0  0  0  0  0  0  0  0  0  0  0
    7.8077  -14.3359   25.5767 C   0  0  0  0  0  0  0  0  0  0  0  0
    9.0530  -14.7890   24.9073 C   0  0  2  0  0  0  0  0  0  0  0  0
    8.7733  -15.4294   23.6201 N   0  0  0  0  0  0  0  0  0  0  0  0
    9.9191  -15.6398   25.7391 C   0  0  0  0  0  0  0  0  0  0  0  0
   10.6839  -15.2495   26.8117 O   0  0  0  0  0  0  0  0  0  0  0  0
    9.9796  -16.8802   25.4440 O   0  0  0  0  0  0  0  0  0  0  0  0
  2  1  1  1
  2  3  1  0
  4  2  1  0
  4  5  1  1
  6  8  1  0
  6  4  1  0
  7  6  2  0
  8  9  1  0
 10  9  1  0
 11 10  1  0
 11 12  1  0
 12  8  1  0
 12 13  1  1
 13 20  1  0
 14 13  2  0
 16 15  1  0
 17 16  1  0
 18 17  1  0
 19 18  1  1
 19 20  1  0
 19 21  1  0
 21 22  1  0
 23 21  2  0
M  END
$$$$
