VPM.pdb
     RDKit          3D

 23 23  0  0  1  0  0  0  0  0999 V2000
    9.1810  -19.3095   20.7646 C   0  0  0  0  0  0  0  0  0  0  0  0
    8.3027  -18.7272   19.6820 C   0  0  2  0  0  0  0  0  0  0  0  0
    7.9667  -19.7933   18.6808 C   0  0  0  0  0  0  0  0  0  0  0  0
    9.0326  -17.5538   19.0508 C   0  0  2  0  0  0  0  0  0  0  0  0
   10.1808  -18.0787   18.3849 N   0  0  0  0  0  0  0  0  0  0  0  0
    9.3464  -16.5050   20.0248 C   0  0  0  0  0  0  0  0  0  0  0  0
   10.4413  -16.5938   20.6944 O   0  0  0  0  0  0  0  0  0  0  0  0
    8.4681  -15.4002   20.2416 N   0  0  0  0  0  0  0  0  0  0  0  0
    7.4233  -15.0344   19.3139 C   0  0  0  0  0  0  0  0  0  0  0  0
    6.9102  -13.6830   19.7909 C   0  0  0  0  0  0  0  0  0  0  0  0
    7.1105  -13.8266   21.2739 C   0  0  0  0  0  0  0  0  0  0  0  0
    8.4571  -14.5069   21.3442 C   0  0  1  0  0  0  0  0  0  0  0  0
    8.6364  -15.1499   22.6789 C   0  0  0  0  0  0  0  0  0  0  0  0
    8.1008  -16.2587   22.8750 O   0  0  0  0  0  0  0  0  0  0  0  0
    6.6411  -10.8741   26.9301 C   0  0  0  0  0  0  0  0  0  0  0  0
    5.8343  -12.4797   26.8774 S   0  0  0  0  0  0  0  0  0  0  0  0
    7.1073  -13.7474   26.6042 C   0  0  0  0  0  0  0  0  0  0  0  0
    7.6449  -13.7065   25.2035 C   0  0  0  0  0  0  0  0  0  0  0  0
    8.9099  -14.4765   25.0975 C   0  0  2  0  0  0  0  0  0  0  0  0
    9.3898  -14.5413   23.7152 N   0  0  0  0  0  0  0  0  0  0  0  0
    8.8605  -15.8188   25.6989 C   0  0  0  0  0  0  0  0  0  0  0  0
    9.1079  -17.0179   25.0757 O   0  0  0  0  0  0  0  0  0  0  0  0
    8.5534  -15.8958   26.9355 O   0  0  0  0  0  0  0  0  0  0  0  0
  2  1  1  1
  2  3  1  0
  4  2  1  0
  4  5  1  1
  6  8  1  0
  6  4  1  0
  7  6  2  0
  8  9  1  0
 10  9  1  0
 11 10  1  0
 11 12  1  0
 12  8  1  0
 12 13  1  1
 13 20  1  0
 14 13  2  0
 16 15  1  0
 17 16  1  0
 18 17  1  0
 19 18  1  6
 19 20  1  0
 19 21  1  0
 21 22  1  0
 23 21  2  0
M  END
$$$$
