VPM.pdb
     RDKit          3D

 23 23  0  0  1  0  0  0  0  0999 V2000
    7.7066  -12.7155   26.6379 C   0  0  0  0  0  0  0  0  0  0  0  0
    6.7960  -12.5696   25.4411 C   0  0  2  0  0  0  0  0  0  0  0  0
    5.7254  -11.5630   25.7448 C   0  0  0  0  0  0  0  0  0  0  0  0
    6.2233  -13.9358   25.1041 C   0  0  2  0  0  0  0  0  0  0  0  0
    5.5118  -14.3915   26.2544 N   0  0  0  0  0  0  0  0  0  0  0  0
    7.2517  -14.8710   24.6404 C   0  0  0  0  0  0  0  0  0  0  0  0
    7.7659  -15.6909   25.4880 O   0  0  0  0  0  0  0  0  0  0  0  0
    7.6881  -14.8871   23.2809 N   0  0  0  0  0  0  0  0  0  0  0  0
    6.9919  -14.1900   22.2248 C   0  0  0  0  0  0  0  0  0  0  0  0
    7.6296  -14.6723   20.9294 C   0  0  0  0  0  0  0  0  0  0  0  0
    9.0395  -14.9087   21.3946 C   0  0  0  0  0  0  0  0  0  0  0  0
    8.8212  -15.5515   22.7436 C   0  0  1  0  0  0  0  0  0  0  0  0
   10.0619  -15.4482   23.5664 C   0  0  0  0  0  0  0  0  0  0  0  0
   10.5130  -14.3119   23.8114 O   0  0  0  0  0  0  0  0  0  0  0  0
   10.2020  -13.6489   28.2684 C   0  0  0  0  0  0  0  0  0  0  0  0
   11.3075  -14.8952   28.9442 S   0  0  0  0  0  0  0  0  0  0  0  0
   11.9374  -15.9027   27.5693 C   0  0  0  0  0  0  0  0  0  0  0  0
   11.0404  -15.8318   26.3680 C   0  0  0  0  0  0  0  0  0  0  0  0
   11.6530  -16.5240   25.2062 C   0  0  2  0  0  0  0  0  0  0  0  0
   10.7316  -16.5929   24.0698 N   0  0  0  0  0  0  0  0  0  0  0  0
   12.2107  -17.8516   25.5103 C   0  0  0  0  0  0  0  0  0  0  0  0
   13.4446  -18.1314   26.0458 O   0  0  0  0  0  0  0  0  0  0  0  0
   11.4811  -18.8667   25.2523 O   0  0  0  0  0  0  0  0  0  0  0  0
  2  1  1  1
  2  3  1  0
  4  2  1  0
  4  5  1  1
  6  8  1  0
  6  4  1  0
  7  6  2  0
  8  9  1  0
 10  9  1  0
 11 10  1  0
 11 12  1  0
 12  8  1  0
 12 13  1  1
 13 20  1  0
 14 13  2  0
 16 15  1  0
 17 16  1  0
 18 17  1  0
 19 18  1  1
 19 20  1  0
 19 21  1  0
 21 22  1  0
 23 21  2  0
M  END
$$$$
