VPM.pdb
     RDKit          3D

 23 23  0  0  1  0  0  0  0  0999 V2000
    7.1163  -18.8571   20.7819 C   0  0  0  0  0  0  0  0  0  0  0  0
    6.7001  -18.1520   19.5123 C   0  0  2  0  0  0  0  0  0  0  0  0
    6.1300  -19.1502   18.5477 C   0  0  0  0  0  0  0  0  0  0  0  0
    7.9102  -17.4294   18.9454 C   0  0  2  0  0  0  0  0  0  0  0  0
    8.8135  -18.4266   18.4692 N   0  0  0  0  0  0  0  0  0  0  0  0
    8.5102  -16.5063   19.9125 C   0  0  0  0  0  0  0  0  0  0  0  0
    9.2939  -16.9830   20.8145 O   0  0  0  0  0  0  0  0  0  0  0  0
    8.2425  -15.1044   19.8719 N   0  0  0  0  0  0  0  0  0  0  0  0
    7.6375  -14.4534   18.7333 C   0  0  0  0  0  0  0  0  0  0  0  0
    7.7682  -12.9606   19.0009 C   0  0  0  0  0  0  0  0  0  0  0  0
    7.6683  -12.9457   20.5009 C   0  0  0  0  0  0  0  0  0  0  0  0
    8.5048  -14.1437   20.8830 C   0  0  1  0  0  0  0  0  0  0  0  0
    8.1698  -14.5802   22.2701 C   0  0  0  0  0  0  0  0  0  0  0  0
    7.0625  -15.1188   22.4666 O   0  0  0  0  0  0  0  0  0  0  0  0
    7.0172  -11.5834   27.7278 C   0  0  0  0  0  0  0  0  0  0  0  0
    5.8917  -12.5135   26.6789 S   0  0  0  0  0  0  0  0  0  0  0  0
    6.6821  -14.0946   26.2575 C   0  0  0  0  0  0  0  0  0  0  0  0
    7.1390  -14.1273   24.8282 C   0  0  0  0  0  0  0  0  0  0  0  0
    8.6076  -14.3282   24.7445 C   0  0  2  0  0  0  0  0  0  0  0  0
    9.0656  -14.4012   23.3552 N   0  0  0  0  0  0  0  0  0  0  0  0
    9.1137  -15.4692   25.5242 C   0  0  0  0  0  0  0  0  0  0  0  0
    9.9016  -16.5000   25.0722 O   0  0  0  0  0  0  0  0  0  0  0  0
    8.7929  -15.5237   26.7584 O   0  0  0  0  0  0  0  0  0  0  0  0
  2  1  1  1
  2  3  1  0
  4  2  1  0
  4  5  1  1
  6  8  1  0
  6  4  1  0
  7  6  2  0
  8  9  1  0
 10  9  1  0
 11 10  1  0
 11 12  1  0
 12  8  1  0
 12 13  1  1
 13 20  1  0
 14 13  2  0
 16 15  1  0
 17 16  1  0
 18 17  1  0
 19 18  1  6
 19 20  1  0
 19 21  1  0
 21 22  1  0
 23 21  2  0
M  END
$$$$
