VPM.pdb
     RDKit          3D

 23 23  0  0  1  0  0  0  0  0999 V2000
    4.7752  -18.0124   22.2460 C   0  0  0  0  0  0  0  0  0  0  0  0
    4.5194  -17.5132   20.8432 C   0  0  2  0  0  0  0  0  0  0  0  0
    3.3917  -18.2915   20.2313 C   0  0  0  0  0  0  0  0  0  0  0  0
    5.8063  -17.6406   20.0459 C   0  0  2  0  0  0  0  0  0  0  0  0
    6.0730  -19.0344   19.8933 N   0  0  0  0  0  0  0  0  0  0  0  0
    6.9120  -16.8935   20.6515 C   0  0  0  0  0  0  0  0  0  0  0  0
    7.5508  -17.4263   21.6328 O   0  0  0  0  0  0  0  0  0  0  0  0
    7.2871  -15.5999   20.1775 N   0  0  0  0  0  0  0  0  0  0  0  0
    6.8194  -15.0574   18.9233 C   0  0  0  0  0  0  0  0  0  0  0  0
    7.6443  -13.7993   18.6911 C   0  0  0  0  0  0  0  0  0  0  0  0
    7.8594  -13.3520   20.1101 C   0  0  0  0  0  0  0  0  0  0  0  0
    8.1396  -14.6594   20.8123 C   0  0  1  0  0  0  0  0  0  0  0  0
    7.9276  -14.5069   22.2815 C   0  0  0  0  0  0  0  0  0  0  0  0
    6.9800  -13.7950   22.6689 O   0  0  0  0  0  0  0  0  0  0  0  0
    7.4397  -11.4253   27.5364 C   0  0  0  0  0  0  0  0  0  0  0  0
    6.3981  -12.7842   26.9884 S   0  0  0  0  0  0  0  0  0  0  0  0
    7.4635  -14.2166   26.6486 C   0  0  0  0  0  0  0  0  0  0  0  0
    7.4189  -14.6154   25.2023 C   0  0  0  0  0  0  0  0  0  0  0  0
    8.7887  -14.7423   24.6439 C   0  0  2  0  0  0  0  0  0  0  0  0
    8.7639  -15.1420   23.2350 N   0  0  0  0  0  0  0  0  0  0  0  0
    9.6869  -15.6122   25.4201 C   0  0  0  0  0  0  0  0  0  0  0  0
   10.1721  -15.3874   26.6856 O   0  0  0  0  0  0  0  0  0  0  0  0
   10.0686  -16.6993   24.8708 O   0  0  0  0  0  0  0  0  0  0  0  0
  2  1  1  1
  2  3  1  0
  4  2  1  0
  4  5  1  1
  6  8  1  0
  6  4  1  0
  7  6  2  0
  8  9  1  0
 10  9  1  0
 11 10  1  0
 11 12  1  0
 12  8  1  0
 12 13  1  1
 13 20  1  0
 14 13  2  0
 16 15  1  0
 17 16  1  0
 18 17  1  0
 19 18  1  1
 19 20  1  0
 19 21  1  0
 21 22  1  0
 23 21  2  0
M  END
$$$$
