VPM.pdb
     RDKit          3D

 23 23  0  0  1  0  0  0  0  0999 V2000
    7.9889  -12.7814   26.3649 C   0  0  0  0  0  0  0  0  0  0  0  0
    6.8568  -12.7809   25.3645 C   0  0  2  0  0  0  0  0  0  0  0  0
    5.7884  -11.8288   25.8162 C   0  0  0  0  0  0  0  0  0  0  0  0
    6.3396  -14.2024   25.2238 C   0  0  2  0  0  0  0  0  0  0  0  0
    5.8554  -14.6050   26.5047 N   0  0  0  0  0  0  0  0  0  0  0  0
    7.3470  -15.1080   24.6650 C   0  0  0  0  0  0  0  0  0  0  0  0
    8.0138  -15.8590   25.4691 O   0  0  0  0  0  0  0  0  0  0  0  0
    7.5989  -15.1697   23.2609 N   0  0  0  0  0  0  0  0  0  0  0  0
    6.6993  -14.6141   22.2769 C   0  0  0  0  0  0  0  0  0  0  0  0
    7.2073  -15.1150   20.9322 C   0  0  0  0  0  0  0  0  0  0  0  0
    8.6833  -15.1819   21.2094 C   0  0  0  0  0  0  0  0  0  0  0  0
    8.7147  -15.7539   22.6068 C   0  0  1  0  0  0  0  0  0  0  0  0
   10.0355  -15.4767   23.2436 C   0  0  0  0  0  0  0  0  0  0  0  0
   10.4552  -14.3026   23.2417 O   0  0  0  0  0  0  0  0  0  0  0  0
   11.5618  -14.7329   30.2192 C   0  0  0  0  0  0  0  0  0  0  0  0
   10.4802  -15.0519   28.8191 S   0  0  0  0  0  0  0  0  0  0  0  0
   11.4845  -15.7379   27.4689 C   0  0  0  0  0  0  0  0  0  0  0  0
   10.7131  -15.8181   26.1839 C   0  0  0  0  0  0  0  0  0  0  0  0
   11.5805  -16.2819   25.0718 C   0  0  2  0  0  0  0  0  0  0  0  0
   10.8144  -16.4997   23.8426 N   0  0  0  0  0  0  0  0  0  0  0  0
   12.4061  -17.4578   25.3904 C   0  0  0  0  0  0  0  0  0  0  0  0
   12.0402  -18.7790   25.2998 O   0  0  0  0  0  0  0  0  0  0  0  0
   13.5962  -17.2446   25.7996 O   0  0  0  0  0  0  0  0  0  0  0  0
  2  1  1  1
  2  3  1  0
  4  2  1  0
  4  5  1  1
  6  8  1  0
  6  4  1  0
  7  6  2  0
  8  9  1  0
 10  9  1  0
 11 10  1  0
 11 12  1  0
 12  8  1  0
 12 13  1  1
 13 20  1  0
 14 13  2  0
 16 15  1  0
 17 16  1  0
 18 17  1  0
 19 18  1  1
 19 20  1  0
 19 21  1  0
 21 22  1  0
 23 21  2  0
M  END
$$$$
