VPM.pdb
     RDKit          3D

 23 23  0  0  1  0  0  0  0  0999 V2000
    7.7072  -12.4221   26.4821 C   0  0  0  0  0  0  0  0  0  0  0  0
    6.6537  -12.4573   25.3997 C   0  0  2  0  0  0  0  0  0  0  0  0
    5.5553  -11.4922   25.7369 C   0  0  0  0  0  0  0  0  0  0  0  0
    6.1473  -13.8835   25.2685 C   0  0  2  0  0  0  0  0  0  0  0  0
    5.6233  -14.2648   26.5402 N   0  0  0  0  0  0  0  0  0  0  0  0
    7.1761  -14.7945   24.7596 C   0  0  0  0  0  0  0  0  0  0  0  0
    7.8086  -15.5387   25.5970 O   0  0  0  0  0  0  0  0  0  0  0  0
    7.4856  -14.8685   23.3677 N   0  0  0  0  0  0  0  0  0  0  0  0
    6.6917  -14.2182   22.3514 C   0  0  0  0  0  0  0  0  0  0  0  0
    7.2097  -14.7551   21.0246 C   0  0  0  0  0  0  0  0  0  0  0  0
    8.6576  -14.9701   21.3674 C   0  0  0  0  0  0  0  0  0  0  0  0
    8.5676  -15.5545   22.7570 C   0  0  1  0  0  0  0  0  0  0  0  0
    9.8783  -15.4149   23.4567 C   0  0  0  0  0  0  0  0  0  0  0  0
   10.3058  -14.2655   23.6823 O   0  0  0  0  0  0  0  0  0  0  0  0
   12.1859  -14.3988   29.0835 C   0  0  0  0  0  0  0  0  0  0  0  0
   10.5808  -15.0676   28.6269 S   0  0  0  0  0  0  0  0  0  0  0  0
   10.8502  -16.5618   27.6283 C   0  0  0  0  0  0  0  0  0  0  0  0
   10.2240  -16.4457   26.2692 C   0  0  0  0  0  0  0  0  0  0  0  0
   11.2361  -16.6376   25.2001 C   0  0  2  0  0  0  0  0  0  0  0  0
   10.6392  -16.5398   23.8661 N   0  0  0  0  0  0  0  0  0  0  0  0
   12.0349  -17.8670   25.3283 C   0  0  0  0  0  0  0  0  0  0  0  0
   13.3343  -17.9719   25.7620 O   0  0  0  0  0  0  0  0  0  0  0  0
   11.4743  -18.9666   25.0028 O   0  0  0  0  0  0  0  0  0  0  0  0
  2  1  1  1
  2  3  1  0
  4  2  1  0
  4  5  1  1
  6  8  1  0
  6  4  1  0
  7  6  2  0
  8  9  1  0
 10  9  1  0
 11 10  1  0
 11 12  1  0
 12  8  1  0
 12 13  1  1
 13 20  1  0
 14 13  2  0
 16 15  1  0
 17 16  1  0
 18 17  1  0
 19 18  1  1
 19 20  1  0
 19 21  1  0
 21 22  1  0
 23 21  2  0
M  END
$$$$
