VPM.pdb
     RDKit          3D

 23 23  0  0  1  0  0  0  0  0999 V2000
    4.5330  -18.4214   22.1521 C   0  0  0  0  0  0  0  0  0  0  0  0
    4.2088  -17.7065   20.8613 C   0  0  2  0  0  0  0  0  0  0  0  0
    2.9245  -18.2424   20.2997 C   0  0  0  0  0  0  0  0  0  0  0  0
    5.3756  -17.8881   19.9055 C   0  0  2  0  0  0  0  0  0  0  0  0
    5.4341  -19.2738   19.5681 N   0  0  0  0  0  0  0  0  0  0  0  0
    6.6295  -17.3629   20.4525 C   0  0  0  0  0  0  0  0  0  0  0  0
    7.3477  -18.1309   21.1937 O   0  0  0  0  0  0  0  0  0  0  0  0
    7.0620  -16.0294   20.1811 N   0  0  0  0  0  0  0  0  0  0  0  0
    6.6564  -15.2970   19.0042 C   0  0  0  0  0  0  0  0  0  0  0  0
    7.5285  -14.0495   18.9805 C   0  0  0  0  0  0  0  0  0  0  0  0
    7.7071  -13.8172   20.4551 C   0  0  0  0  0  0  0  0  0  0  0  0
    7.9207  -15.2207   20.9702 C   0  0  1  0  0  0  0  0  0  0  0  0
    7.6616  -15.2717   22.4389 C   0  0  0  0  0  0  0  0  0  0  0  0
    6.4861  -15.1422   22.8343 O   0  0  0  0  0  0  0  0  0  0  0  0
    6.9025  -11.6587   28.5455 C   0  0  0  0  0  0  0  0  0  0  0  0
    6.4603  -12.5429   27.0440 S   0  0  0  0  0  0  0  0  0  0  0  0
    7.9894  -13.1373   26.2625 C   0  0  0  0  0  0  0  0  0  0  0  0
    7.7099  -14.1281   25.1703 C   0  0  0  0  0  0  0  0  0  0  0  0
    8.9602  -14.5092   24.4663 C   0  0  2  0  0  0  0  0  0  0  0  0
    8.7029  -15.4612   23.3833 N   0  0  0  0  0  0  0  0  0  0  0  0
   10.0340  -14.9952   25.3476 C   0  0  0  0  0  0  0  0  0  0  0  0
   10.6831  -14.2907   26.3324 O   0  0  0  0  0  0  0  0  0  0  0  0
   10.4182  -16.2025   25.1920 O   0  0  0  0  0  0  0  0  0  0  0  0
  2  1  1  1
  2  3  1  0
  4  2  1  0
  4  5  1  1
  6  8  1  0
  6  4  1  0
  7  6  2  0
  8  9  1  0
 10  9  1  0
 11 10  1  0
 11 12  1  0
 12  8  1  0
 12 13  1  1
 13 20  1  0
 14 13  2  0
 16 15  1  0
 17 16  1  0
 18 17  1  0
 19 18  1  1
 19 20  1  0
 19 21  1  0
 21 22  1  0
 23 21  2  0
M  END
$$$$
