VPM.pdb
     RDKit          3D

 23 23  0  0  1  0  0  0  0  0999 V2000
    8.1214  -12.5584   18.0571 C   0  0  0  0  0  0  0  0  0  0  0  0
    7.6825  -13.4562   19.1902 C   0  0  2  0  0  0  0  0  0  0  0  0
    7.3363  -12.6205   20.3875 C   0  0  0  0  0  0  0  0  0  0  0  0
    8.7996  -14.4439   19.4806 C   0  0  2  0  0  0  0  0  0  0  0  0
    8.7773  -15.4245   18.4437 N   0  0  0  0  0  0  0  0  0  0  0  0
    8.7039  -15.0113   20.8283 C   0  0  0  0  0  0  0  0  0  0  0  0
    8.9302  -14.2451   21.8366 O   0  0  0  0  0  0  0  0  0  0  0  0
    8.3689  -16.3833   21.0388 N   0  0  0  0  0  0  0  0  0  0  0  0
    8.0776  -17.2950   19.9572 C   0  0  0  0  0  0  0  0  0  0  0  0
    7.5325  -18.5522   20.6202 C   0  0  0  0  0  0  0  0  0  0  0  0
    8.3040  -18.5330   21.9103 C   0  0  0  0  0  0  0  0  0  0  0  0
    8.2653  -17.0685   22.2773 C   0  0  1  0  0  0  0  0  0  0  0  0
    9.3435  -16.7591   23.2615 C   0  0  0  0  0  0  0  0  0  0  0  0
   10.4654  -16.4360   22.8237 O   0  0  0  0  0  0  0  0  0  0  0  0
   10.5772  -13.7856   30.2870 C   0  0  0  0  0  0  0  0  0  0  0  0
   10.0857  -13.6106   28.5666 S   0  0  0  0  0  0  0  0  0  0  0  0
   10.2465  -15.2316   27.7612 C   0  0  0  0  0  0  0  0  0  0  0  0
    9.8530  -15.1777   26.3138 C   0  0  0  0  0  0  0  0  0  0  0  0
   10.1650  -16.4584   25.6306 C   0  0  2  0  0  0  0  0  0  0  0  0
    9.1281  -16.8218   24.6621 N   0  0  0  0  0  0  0  0  0  0  0  0
   10.4517  -17.5810   26.5380 C   0  0  0  0  0  0  0  0  0  0  0  0
   11.6640  -17.9114   27.0935 O   0  0  0  0  0  0  0  0  0  0  0  0
    9.4776  -18.3435   26.8526 O   0  0  0  0  0  0  0  0  0  0  0  0
  2  1  1  6
  2  3  1  0
  4  2  1  0
  4  5  1  6
  6  8  1  0
  6  4  1  0
  7  6  2  0
  8  9  1  0
 10  9  1  0
 11 10  1  0
 11 12  1  0
 12  8  1  0
 12 13  1  1
 13 20  1  0
 14 13  2  0
 16 15  1  0
 17 16  1  0
 18 17  1  0
 19 18  1  1
 19 20  1  0
 19 21  1  0
 21 22  1  0
 23 21  2  0
M  END
$$$$
