VPM.pdb
     RDKit          3D

 23 23  0  0  1  0  0  0  0  0999 V2000
    9.5156  -19.7300   18.1035 C   0  0  0  0  0  0  0  0  0  0  0  0
    9.7290  -18.9856   19.4008 C   0  0  2  0  0  0  0  0  0  0  0  0
    8.7538  -19.4793   20.4289 C   0  0  0  0  0  0  0  0  0  0  0  0
    9.5782  -17.4981   19.1312 C   0  0  2  0  0  0  0  0  0  0  0  0
   10.4760  -17.1671   18.0722 N   0  0  0  0  0  0  0  0  0  0  0  0
    9.7714  -16.6916   20.3393 C   0  0  0  0  0  0  0  0  0  0  0  0
   10.9427  -16.6474   20.8696 O   0  0  0  0  0  0  0  0  0  0  0  0
    8.6950  -15.9638   20.9313 N   0  0  0  0  0  0  0  0  0  0  0  0
    7.4294  -15.7555   20.2673 C   0  0  0  0  0  0  0  0  0  0  0  0
    6.6847  -14.7381   21.1202 C   0  0  0  0  0  0  0  0  0  0  0  0
    7.2037  -15.0984   22.4844 C   0  0  0  0  0  0  0  0  0  0  0  0
    8.6678  -15.3449   22.2082 C   0  0  1  0  0  0  0  0  0  0  0  0
    9.2684  -16.1495   23.3121 C   0  0  0  0  0  0  0  0  0  0  0  0
    9.2489  -17.3923   23.2128 O   0  0  0  0  0  0  0  0  0  0  0  0
    9.6146  -13.1906   29.8476 C   0  0  0  0  0  0  0  0  0  0  0  0
   10.8949  -13.8503   28.7717 S   0  0  0  0  0  0  0  0  0  0  0  0
   10.0962  -14.8632   27.4916 C   0  0  0  0  0  0  0  0  0  0  0  0
   11.0982  -15.4686   26.5524 C   0  0  0  0  0  0  0  0  0  0  0  0
   10.4294  -16.3328   25.5474 C   0  0  2  0  0  0  0  0  0  0  0  0
    9.8528  -15.5458   24.4549 N   0  0  0  0  0  0  0  0  0  0  0  0
    9.4346  -17.2624   26.1059 C   0  0  0  0  0  0  0  0  0  0  0  0
    9.6789  -18.4426   26.7655 O   0  0  0  0  0  0  0  0  0  0  0  0
    8.2035  -16.9542   25.9697 O   0  0  0  0  0  0  0  0  0  0  0  0
  2  1  1  6
  2  3  1  0
  4  2  1  0
  4  5  1  6
  6  8  1  0
  6  4  1  0
  7  6  2  0
  8  9  1  0
 10  9  1  0
 11 10  1  0
 11 12  1  0
 12  8  1  0
 12 13  1  1
 13 20  1  0
 14 13  2  0
 16 15  1  0
 17 16  1  0
 18 17  1  0
 19 18  1  1
 19 20  1  0
 19 21  1  0
 21 22  1  0
 23 21  2  0
M  END
$$$$
