PAE.pdb
     RDKit          3D

 22 22  0  0  1  0  0  0  0  0999 V2000
   21.3796  -14.6377  -19.1700 N   0  0  0  0  0  0  0  0  0  0  0  0
   20.9113  -15.9287  -19.5993 C   0  0  0  0  0  0  0  0  0  0  0  0
   19.9041  -16.4114  -18.5794 C   0  0  0  0  0  0  0  0  0  0  0  0
   20.2079  -15.5027  -17.4093 C   0  0  0  0  0  0  0  0  0  0  0  0
   20.4699  -14.1882  -18.1340 C   0  0  1  0  0  0  0  0  0  0  0  0
   21.0619  -13.1784  -17.2561 C   0  0  0  0  0  0  0  0  0  0  0  0
   20.3927  -12.7127  -16.3003 O   0  0  0  0  0  0  0  0  0  0  0  0
   24.5428  -11.8972  -16.6823 C   0  0  0  0  0  0  0  0  0  0  0  0
   23.0414  -11.7558  -16.6336 C   0  0  2  0  0  0  0  0  0  0  0  0
   22.3717  -12.7227  -17.4694 N   0  0  0  0  0  0  0  0  0  0  0  0
   22.5949  -10.4006  -17.0222 C   0  0  0  0  0  0  0  0  0  0  0  0
   22.2204  -10.1659  -18.1912 O   0  0  0  0  0  0  0  0  0  0  0  0
   22.6007   -9.3935  -16.0564 N   0  0  0  0  0  0  0  0  0  0  0  0
   22.0288   -8.0372  -16.2763 C   0  0  1  0  0  0  0  0  0  0  0  0
   22.1701   -7.3769  -14.9643 C   0  0  0  0  0  0  0  0  0  0  0  0
   21.7664   -5.9887  -14.7564 C   0  0  0  0  0  0  0  0  0  0  0  0
   22.1109   -5.5003  -13.4116 C   0  0  0  0  0  0  0  0  0  0  0  0
   23.1945   -4.9453  -13.1035 O   0  0  0  0  0  0  0  0  0  0  0  0
   22.7112   -7.4986  -17.4304 C   0  0  0  0  0  0  0  0  0  0  0  0
   22.0230   -6.9177  -18.3416 O   0  0  0  0  0  0  0  0  0  0  0  0
   21.1290   -5.6824  -12.4207 O   0  0  0  0  0  0  0  0  0  0  0  0
   24.0680   -7.5140  -17.7115 O   0  0  0  0  0  0  0  0  0  0  0  0
  1  2  1  0
  1  5  1  0
  2  3  1  0
  3  4  1  0
  5  4  1  0
  6 10  1  0
  5  6  1  1
  7  6  2  0
  9  8  1  6
  9 11  1  0
  9 10  1  0
 11 13  1  0
 12 11  2  0
 13 14  1  0
 14 15  1  1
 15 16  1  0
 17 21  1  0
 17 16  1  0
 18 17  2  0
 19 14  1  0
 20 19  2  0
 22 19  1  0
M  END
$$$$
