PAE.pdb
     RDKit          3D

 22 22  0  0  1  0  0  0  0  0999 V2000
   15.9222  -12.8795  -16.2099 N   0  0  0  0  0  0  0  0  0  0  0  0
   15.5359  -14.2498  -16.0024 C   0  0  0  0  0  0  0  0  0  0  0  0
   16.6893  -14.9511  -15.3199 C   0  0  0  0  0  0  0  0  0  0  0  0
   17.8217  -13.9835  -15.5821 C   0  0  0  0  0  0  0  0  0  0  0  0
   17.1031  -12.6524  -15.3993 C   0  0  1  0  0  0  0  0  0  0  0  0
   17.9040  -11.5202  -15.8656 C   0  0  0  0  0  0  0  0  0  0  0  0
   18.9524  -11.2022  -15.2509 O   0  0  0  0  0  0  0  0  0  0  0  0
   17.8621   -9.3340  -18.9418 C   0  0  0  0  0  0  0  0  0  0  0  0
   18.2417   -9.6521  -17.5165 C   0  0  2  0  0  0  0  0  0  0  0  0
   17.5142  -10.7835  -16.9944 N   0  0  0  0  0  0  0  0  0  0  0  0
   18.0393   -8.4984  -16.6137 C   0  0  0  0  0  0  0  0  0  0  0  0
   16.9606   -8.3539  -15.9994 O   0  0  0  0  0  0  0  0  0  0  0  0
   19.0775   -7.5783  -16.4635 N   0  0  0  0  0  0  0  0  0  0  0  0
   18.9826   -6.3596  -15.6147 C   0  0  1  0  0  0  0  0  0  0  0  0
   20.2870   -6.3050  -14.9271 C   0  0  0  0  0  0  0  0  0  0  0  0
   20.6395   -5.2022  -14.0367 C   0  0  0  0  0  0  0  0  0  0  0  0
   22.0133   -5.3154  -13.5212 C   0  0  0  0  0  0  0  0  0  0  0  0
   22.6693   -6.3839  -13.4500 O   0  0  0  0  0  0  0  0  0  0  0  0
   18.5895   -5.2868  -16.4992 C   0  0  0  0  0  0  0  0  0  0  0  0
   17.9627   -4.2810  -16.0126 O   0  0  0  0  0  0  0  0  0  0  0  0
   22.6077   -4.1169  -13.0857 O   0  0  0  0  0  0  0  0  0  0  0  0
   18.8034   -5.1759  -17.8638 O   0  0  0  0  0  0  0  0  0  0  0  0
  1  2  1  0
  1  5  1  0
  2  3  1  0
  3  4  1  0
  5  4  1  0
  6 10  1  0
  5  6  1  6
  7  6  2  0
  9  8  1  6
  9 11  1  0
  9 10  1  0
 11 13  1  0
 12 11  2  0
 13 14  1  0
 14 15  1  6
 15 16  1  0
 17 21  1  0
 17 16  1  0
 18 17  2  0
 19 14  1  0
 20 19  2  0
 22 19  1  0
M  END
$$$$
