PAE.pdb
     RDKit          3D

 22 22  0  0  1  0  0  0  0  0999 V2000
   18.6893  -12.5461  -17.3514 N   0  0  0  0  0  0  0  0  0  0  0  0
   17.9585  -12.9373  -18.5274 C   0  0  0  0  0  0  0  0  0  0  0  0
   18.2271  -11.9025  -19.5973 C   0  0  0  0  0  0  0  0  0  0  0  0
   18.7766  -10.7596  -18.7733 C   0  0  0  0  0  0  0  0  0  0  0  0
   19.6287  -11.5223  -17.7663 C   0  0  1  0  0  0  0  0  0  0  0  0
   20.0721  -10.6747  -16.6592 C   0  0  0  0  0  0  0  0  0  0  0  0
   19.2232  -10.0753  -15.9532 O   0  0  0  0  0  0  0  0  0  0  0  0
   23.3742  -10.0632  -14.9423 C   0  0  0  0  0  0  0  0  0  0  0  0
   21.9601   -9.6933  -15.3168 C   0  0  2  0  0  0  0  0  0  0  0  0
   21.4379  -10.5230  -16.3755 N   0  0  0  0  0  0  0  0  0  0  0  0
   21.8417   -8.2756  -15.7209 C   0  0  0  0  0  0  0  0  0  0  0  0
   21.9433   -7.9469  -16.9223 O   0  0  0  0  0  0  0  0  0  0  0  0
   21.6139   -7.3169  -14.7330 N   0  0  0  0  0  0  0  0  0  0  0  0
   21.5372   -5.8557  -15.0045 C   0  0  1  0  0  0  0  0  0  0  0  0
   20.1146   -5.6297  -15.3249 C   0  0  0  0  0  0  0  0  0  0  0  0
   19.5602   -4.2841  -15.4481 C   0  0  0  0  0  0  0  0  0  0  0  0
   18.1126   -4.2965  -15.7130 C   0  0  0  0  0  0  0  0  0  0  0  0
   17.5022   -5.2028  -16.3321 O   0  0  0  0  0  0  0  0  0  0  0  0
   22.1292   -5.2051  -13.8583 C   0  0  0  0  0  0  0  0  0  0  0  0
   22.5462   -3.9996  -13.9771 O   0  0  0  0  0  0  0  0  0  0  0  0
   17.3874   -3.1966  -15.2197 O   0  0  0  0  0  0  0  0  0  0  0  0
   22.3195   -5.7147  -12.5838 O   0  0  0  0  0  0  0  0  0  0  0  0
  1  2  1  0
  1  5  1  0
  2  3  1  0
  3  4  1  0
  5  4  1  0
  6 10  1  0
  5  6  1  1
  7  6  2  0
  9  8  1  6
  9 11  1  0
  9 10  1  0
 11 13  1  0
 12 11  2  0
 13 14  1  0
 14 15  1  1
 15 16  1  0
 17 21  1  0
 17 16  1  0
 18 17  2  0
 19 14  1  0
 20 19  2  0
 22 19  1  0
M  END
$$$$
