PAE.pdb
     RDKit          3D

 22 22  0  0  1  0  0  0  0  0999 V2000
   22.3068  -11.5833  -15.3020 N   0  0  0  0  0  0  0  0  0  0  0  0
   23.1040  -12.7598  -15.0774 C   0  0  0  0  0  0  0  0  0  0  0  0
   24.5163  -12.3052  -14.7834 C   0  0  0  0  0  0  0  0  0  0  0  0
   24.4811  -10.8808  -15.2905 C   0  0  0  0  0  0  0  0  0  0  0  0
   23.0901  -10.4547  -14.8375 C   0  0  1  0  0  0  0  0  0  0  0  0
   22.6739   -9.1875  -15.4391 C   0  0  0  0  0  0  0  0  0  0  0  0
   23.3083   -8.1349  -15.1785 O   0  0  0  0  0  0  0  0  0  0  0  0
   20.4838   -8.2645  -18.3247 C   0  0  0  0  0  0  0  0  0  0  0  0
   21.1484   -7.9463  -17.0080 C   0  0  2  0  0  0  0  0  0  0  0  0
   21.5720   -9.1336  -16.3060 N   0  0  0  0  0  0  0  0  0  0  0  0
   20.2730   -7.1539  -16.1175 C   0  0  0  0  0  0  0  0  0  0  0  0
   19.6694   -7.7004  -15.1694 O   0  0  0  0  0  0  0  0  0  0  0  0
   20.1377   -5.7863  -16.3591 N   0  0  0  0  0  0  0  0  0  0  0  0
   19.2907   -4.8832  -15.5335 C   0  0  1  0  0  0  0  0  0  0  0  0
   19.8258   -3.5379  -15.8186 C   0  0  0  0  0  0  0  0  0  0  0  0
   19.2505   -2.3393  -15.2141 C   0  0  0  0  0  0  0  0  0  0  0  0
   19.9187   -1.1081  -15.6653 C   0  0  0  0  0  0  0  0  0  0  0  0
   19.3293   -0.0838  -16.0901 O   0  0  0  0  0  0  0  0  0  0  0  0
   17.9221   -5.2001  -15.8714 C   0  0  0  0  0  0  0  0  0  0  0  0
   17.6437   -5.5383  -17.0753 O   0  0  0  0  0  0  0  0  0  0  0  0
   21.3241   -1.1117  -15.6005 O   0  0  0  0  0  0  0  0  0  0  0  0
   16.8098   -5.1964  -15.0450 O   0  0  0  0  0  0  0  0  0  0  0  0
  1  2  1  0
  1  5  1  0
  2  3  1  0
  3  4  1  0
  5  4  1  0
  6 10  1  0
  5  6  1  6
  7  6  2  0
  9  8  1  6
  9 11  1  0
  9 10  1  0
 11 13  1  0
 12 11  2  0
 13 14  1  0
 14 15  1  6
 15 16  1  0
 17 21  1  0
 17 16  1  0
 18 17  2  0
 19 14  1  0
 20 19  2  0
 22 19  1  0
M  END
$$$$
