PAE.pdb
     RDKit          3D

 22 22  0  0  1  0  0  0  0  0999 V2000
   19.0234  -11.0940  -16.7793 N   0  0  0  0  0  0  0  0  0  0  0  0
   19.3004  -12.3167  -16.0732 C   0  0  0  0  0  0  0  0  0  0  0  0
   18.6203  -12.2296  -14.7250 C   0  0  0  0  0  0  0  0  0  0  0  0
   18.3529  -10.7446  -14.6230 C   0  0  0  0  0  0  0  0  0  0  0  0
   17.9533  -10.4309  -16.0595 C   0  0  1  0  0  0  0  0  0  0  0  0
   17.8994   -8.9919  -16.3194 C   0  0  0  0  0  0  0  0  0  0  0  0
   18.9457   -8.3767  -16.6435 O   0  0  0  0  0  0  0  0  0  0  0  0
   15.1238   -6.4345  -16.5607 C   0  0  0  0  0  0  0  0  0  0  0  0
   16.5603   -6.8633  -16.3898 C   0  0  2  0  0  0  0  0  0  0  0  0
   16.6899   -8.2891  -16.2108 N   0  0  0  0  0  0  0  0  0  0  0  0
   17.2161   -6.1796  -15.2541 C   0  0  0  0  0  0  0  0  0  0  0  0
   17.2828   -6.7299  -14.1340 O   0  0  0  0  0  0  0  0  0  0  0  0
   17.7575   -4.9104  -15.4616 N   0  0  0  0  0  0  0  0  0  0  0  0
   18.4692   -4.1356  -14.4091 C   0  0  1  0  0  0  0  0  0  0  0  0
   19.8323   -4.7006  -14.4148 C   0  0  0  0  0  0  0  0  0  0  0  0
   20.8878   -4.1670  -13.5578 C   0  0  0  0  0  0  0  0  0  0  0  0
   22.1537   -4.9032  -13.7034 C   0  0  0  0  0  0  0  0  0  0  0  0
   22.4191   -5.9957  -13.1438 O   0  0  0  0  0  0  0  0  0  0  0  0
   18.2660   -2.7423  -14.7330 C   0  0  0  0  0  0  0  0  0  0  0  0
   18.0276   -2.4175  -15.9492 O   0  0  0  0  0  0  0  0  0  0  0  0
   23.1165   -4.3119  -14.5416 O   0  0  0  0  0  0  0  0  0  0  0  0
   18.2879   -1.6496  -13.8810 O   0  0  0  0  0  0  0  0  0  0  0  0
  1  2  1  0
  1  5  1  0
  2  3  1  0
  3  4  1  0
  5  4  1  0
  6 10  1  0
  5  6  1  1
  7  6  2  0
  9  8  1  1
  9 11  1  0
  9 10  1  0
 11 13  1  0
 12 11  2  0
 13 14  1  0
 14 15  1  6
 15 16  1  0
 17 21  1  0
 17 16  1  0
 18 17  2  0
 19 14  1  0
 20 19  2  0
 22 19  1  0
M  END
$$$$
