PAE.pdb
     RDKit          3D

 22 22  0  0  1  0  0  0  0  0999 V2000
   20.8535  -12.8542  -17.5115 N   0  0  0  0  0  0  0  0  0  0  0  0
   20.8327  -14.0115  -18.3661 C   0  0  0  0  0  0  0  0  0  0  0  0
   21.2748  -13.5699  -19.7436 C   0  0  0  0  0  0  0  0  0  0  0  0
   21.1054  -12.0705  -19.6430 C   0  0  0  0  0  0  0  0  0  0  0  0
   21.5920  -11.8267  -18.2199 C   0  0  1  0  0  0  0  0  0  0  0  0
   21.2808  -10.4764  -17.7501 C   0  0  0  0  0  0  0  0  0  0  0  0
   21.9161   -9.4942  -18.2085 O   0  0  0  0  0  0  0  0  0  0  0  0
   18.6092   -9.0285  -15.4874 C   0  0  0  0  0  0  0  0  0  0  0  0
   19.8624   -8.9640  -16.3253 C   0  0  2  0  0  0  0  0  0  0  0  0
   20.2786  -10.2646  -16.7913 N   0  0  0  0  0  0  0  0  0  0  0  0
   20.9877   -8.3358  -15.6000 C   0  0  0  0  0  0  0  0  0  0  0  0
   21.7646   -9.0294  -14.9091 O   0  0  0  0  0  0  0  0  0  0  0  0
   21.1620   -6.9553  -15.7052 N   0  0  0  0  0  0  0  0  0  0  0  0
   22.2813   -6.2144  -15.0626 C   0  0  1  0  0  0  0  0  0  0  0  0
   23.0060   -5.6135  -16.1988 C   0  0  0  0  0  0  0  0  0  0  0  0
   24.1889   -4.7801  -16.0000 C   0  0  0  0  0  0  0  0  0  0  0  0
   24.6753   -4.1887  -17.2568 C   0  0  0  0  0  0  0  0  0  0  0  0
   24.5334   -4.7001  -18.3950 O   0  0  0  0  0  0  0  0  0  0  0  0
   21.6755   -5.3637  -14.0641 C   0  0  0  0  0  0  0  0  0  0  0  0
   20.4700   -4.9663  -14.2377 O   0  0  0  0  0  0  0  0  0  0  0  0
   25.3432   -2.9561  -17.1386 O   0  0  0  0  0  0  0  0  0  0  0  0
   22.2306   -4.8925  -12.8850 O   0  0  0  0  0  0  0  0  0  0  0  0
  1  2  1  0
  1  5  1  0
  2  3  1  0
  3  4  1  0
  5  4  1  0
  6 10  1  0
  5  6  1  1
  7  6  2  0
  9  8  1  1
  9 11  1  0
  9 10  1  0
 11 13  1  0
 12 11  2  0
 13 14  1  0
 14 15  1  6
 15 16  1  0
 17 21  1  0
 17 16  1  0
 18 17  2  0
 19 14  1  0
 20 19  2  0
 22 19  1  0
M  END
$$$$
