PAE.pdb
     RDKit          3D

 22 22  0  0  1  0  0  0  0  0999 V2000
   24.0785  -13.3337  -16.2368 N   0  0  0  0  0  0  0  0  0  0  0  0
   25.1188  -14.2922  -16.4999 C   0  0  0  0  0  0  0  0  0  0  0  0
   26.3010  -13.5386  -17.0677 C   0  0  0  0  0  0  0  0  0  0  0  0
   25.6538  -12.2333  -17.4732 C   0  0  0  0  0  0  0  0  0  0  0  0
   24.6925  -12.0221  -16.3100 C   0  0  1  0  0  0  0  0  0  0  0  0
   23.7263  -10.9556  -16.5746 C   0  0  0  0  0  0  0  0  0  0  0  0
   24.1239   -9.7707  -16.7017 O   0  0  0  0  0  0  0  0  0  0  0  0
   20.0271  -10.8592  -17.3511 C   0  0  0  0  0  0  0  0  0  0  0  0
   21.3368  -10.2475  -16.9186 C   0  0  2  0  0  0  0  0  0  0  0  0
   22.3573  -11.2413  -16.6886 N   0  0  0  0  0  0  0  0  0  0  0  0
   21.1926   -9.4226  -15.6996 C   0  0  0  0  0  0  0  0  0  0  0  0
   21.3906   -9.9186  -14.5697 O   0  0  0  0  0  0  0  0  0  0  0  0
   20.8323   -8.0819  -15.8399 N   0  0  0  0  0  0  0  0  0  0  0  0
   20.6490   -7.1531  -14.6916 C   0  0  1  0  0  0  0  0  0  0  0  0
   21.4366   -5.9639  -15.0694 C   0  0  0  0  0  0  0  0  0  0  0  0
   21.5167   -4.7899  -14.2042 C   0  0  0  0  0  0  0  0  0  0  0  0
   22.1838   -3.6543  -14.8608 C   0  0  0  0  0  0  0  0  0  0  0  0
   23.0424   -3.7531  -15.7720 O   0  0  0  0  0  0  0  0  0  0  0  0
   19.2222   -7.0387  -14.4945 C   0  0  0  0  0  0  0  0  0  0  0  0
   18.4412   -7.2421  -15.4895 O   0  0  0  0  0  0  0  0  0  0  0  0
   21.8064   -2.3756  -14.4117 O   0  0  0  0  0  0  0  0  0  0  0  0
   18.5373   -6.7300  -13.3301 O   0  0  0  0  0  0  0  0  0  0  0  0
  1  2  1  0
  1  5  1  0
  2  3  1  0
  3  4  1  0
  5  4  1  0
  6 10  1  0
  5  6  1  6
  7  6  2  0
  9  8  1  1
  9 11  1  0
  9 10  1  0
 11 13  1  0
 12 11  2  0
 13 14  1  0
 14 15  1  6
 15 16  1  0
 17 21  1  0
 17 16  1  0
 18 17  2  0
 19 14  1  0
 20 19  2  0
 22 19  1  0
M  END
$$$$
