PAE.pdb
     RDKit          3D

 22 22  0  0  1  0  0  0  0  0999 V2000
   17.4227  -11.6446  -16.8905 N   0  0  0  0  0  0  0  0  0  0  0  0
   17.7669  -12.7438  -17.7528 C   0  0  0  0  0  0  0  0  0  0  0  0
   19.2630  -12.9458  -17.6602 C   0  0  0  0  0  0  0  0  0  0  0  0
   19.7021  -11.6340  -17.0490 C   0  0  0  0  0  0  0  0  0  0  0  0
   18.5774  -11.3987  -16.0484 C   0  0  1  0  0  0  0  0  0  0  0  0
   18.6000  -10.0442  -15.4956 C   0  0  0  0  0  0  0  0  0  0  0  0
   18.3646   -9.0614  -16.2420 O   0  0  0  0  0  0  0  0  0  0  0  0
   18.8055   -8.6309  -11.9995 C   0  0  0  0  0  0  0  0  0  0  0  0
   18.8789   -8.5332  -13.5035 C   0  0  2  0  0  0  0  0  0  0  0  0
   18.8821   -9.8290  -14.1381 N   0  0  0  0  0  0  0  0  0  0  0  0
   20.0669   -7.7783  -13.9571 C   0  0  0  0  0  0  0  0  0  0  0  0
   21.1114   -8.3779  -14.2908 O   0  0  0  0  0  0  0  0  0  0  0  0
   19.9947   -6.3856  -14.0043 N   0  0  0  0  0  0  0  0  0  0  0  0
   21.0616   -5.5239  -14.5822 C   0  0  1  0  0  0  0  0  0  0  0  0
   20.3164   -4.4728  -15.3014 C   0  0  0  0  0  0  0  0  0  0  0  0
   19.6676   -3.3717  -14.5943 C   0  0  0  0  0  0  0  0  0  0  0  0
   19.0355   -2.4111  -15.5127 C   0  0  0  0  0  0  0  0  0  0  0  0
   17.8360   -2.0434  -15.4554 O   0  0  0  0  0  0  0  0  0  0  0  0
   21.9270   -5.1678  -13.4813 C   0  0  0  0  0  0  0  0  0  0  0  0
   21.5274   -5.3855  -12.2838 O   0  0  0  0  0  0  0  0  0  0  0  0
   19.8663   -1.8822  -16.5173 O   0  0  0  0  0  0  0  0  0  0  0  0
   23.1905   -4.6007  -13.5299 O   0  0  0  0  0  0  0  0  0  0  0  0
  1  2  1  0
  1  5  1  0
  2  3  1  0
  3  4  1  0
  5  4  1  0
  6 10  1  0
  5  6  1  6
  7  6  2  0
  9  8  1  1
  9 11  1  0
  9 10  1  0
 11 13  1  0
 12 11  2  0
 13 14  1  0
 14 15  1  1
 15 16  1  0
 17 21  1  0
 17 16  1  0
 18 17  2  0
 19 14  1  0
 20 19  2  0
 22 19  1  0
M  END
$$$$
