PAE.pdb
     RDKit          3D

 22 22  0  0  1  0  0  0  0  0999 V2000
   29.3623  -20.1889  -11.2088 N   0  0  0  0  0  0  0  0  0  0  0  0
   30.7837  -20.4070  -11.1616 C   0  0  0  0  0  0  0  0  0  0  0  0
   31.1064  -21.5255  -12.1274 C   0  0  0  0  0  0  0  0  0  0  0  0
   29.7404  -22.1394  -12.3374 C   0  0  0  0  0  0  0  0  0  0  0  0
   28.8725  -20.8878  -12.3813 C   0  0  1  0  0  0  0  0  0  0  0  0
   27.4449  -21.1987  -12.3031 C   0  0  0  0  0  0  0  0  0  0  0  0
   26.9051  -21.8844  -13.2069 O   0  0  0  0  0  0  0  0  0  0  0  0
   24.8384  -20.8547   -9.6004 C   0  0  0  0  0  0  0  0  0  0  0  0
   25.2809  -21.0756  -11.0259 C   0  0  2  0  0  0  0  0  0  0  0  0
   26.6694  -20.7392  -11.2279 N   0  0  0  0  0  0  0  0  0  0  0  0
   24.4609  -20.3110  -11.9903 C   0  0  0  0  0  0  0  0  0  0  0  0
   24.6213  -19.0789  -12.1241 O   0  0  0  0  0  0  0  0  0  0  0  0
   23.5076  -20.9951  -12.7455 N   0  0  0  0  0  0  0  0  0  0  0  0
   22.6054  -20.3349  -13.7278 C   0  0  1  0  0  0  0  0  0  0  0  0
   22.6885  -21.1992  -14.9208 C   0  0  0  0  0  0  0  0  0  0  0  0
   21.9265  -20.9095  -16.1328 C   0  0  0  0  0  0  0  0  0  0  0  0
   22.1805  -21.8886  -17.2018 C   0  0  0  0  0  0  0  0  0  0  0  0
   22.9699  -22.8614  -17.1138 O   0  0  0  0  0  0  0  0  0  0  0  0
   21.3401  -20.1596  -13.0525 C   0  0  0  0  0  0  0  0  0  0  0  0
   21.0604  -20.9138  -12.0555 O   0  0  0  0  0  0  0  0  0  0  0  0
   21.4672  -21.6920  -18.3984 O   0  0  0  0  0  0  0  0  0  0  0  0
   20.3345  -19.2487  -13.3341 O   0  0  0  0  0  0  0  0  0  0  0  0
  1  2  1  0
  1  5  1  0
  2  3  1  0
  3  4  1  0
  5  4  1  0
  6 10  1  0
  5  6  1  1
  7  6  2  0
  9  8  1  1
  9 11  1  0
  9 10  1  0
 11 13  1  0
 12 11  2  0
 13 14  1  0
 14 15  1  6
 15 16  1  0
 17 21  1  0
 17 16  1  0
 18 17  2  0
 19 14  1  0
 20 19  2  0
 22 19  1  0
M  END
$$$$
