PAE.pdb
     RDKit          3D

 22 22  0  0  1  0  0  0  0  0999 V2000
   17.6999  -12.4854  -17.4143 N   0  0  0  0  0  0  0  0  0  0  0  0
   17.1688  -13.7975  -17.1565 C   0  0  0  0  0  0  0  0  0  0  0  0
   17.4317  -14.1188  -15.7020 C   0  0  0  0  0  0  0  0  0  0  0  0
   18.4895  -13.0941  -15.3583 C   0  0  0  0  0  0  0  0  0  0  0  0
   17.9679  -11.8834  -16.1225 C   0  0  1  0  0  0  0  0  0  0  0  0
   18.9528  -10.8036  -16.1915 C   0  0  0  0  0  0  0  0  0  0  0  0
   19.3352  -10.2392  -15.1362 O   0  0  0  0  0  0  0  0  0  0  0  0
   21.1262   -9.4082  -18.9524 C   0  0  0  0  0  0  0  0  0  0  0  0
   20.5078   -9.3914  -17.5762 C   0  0  2  0  0  0  0  0  0  0  0  0
   19.4770  -10.3898  -17.4255 N   0  0  0  0  0  0  0  0  0  0  0  0
   19.9425   -8.0684  -17.2338 C   0  0  0  0  0  0  0  0  0  0  0  0
   18.7571   -7.7914  -17.5168 O   0  0  0  0  0  0  0  0  0  0  0  0
   20.7603   -7.1398  -16.5889 N   0  0  0  0  0  0  0  0  0  0  0  0
   20.3129   -5.7733  -16.2054 C   0  0  1  0  0  0  0  0  0  0  0  0
   21.1507   -5.4417  -15.0369 C   0  0  0  0  0  0  0  0  0  0  0  0
   21.0837   -4.1333  -14.3912 C   0  0  0  0  0  0  0  0  0  0  0  0
   22.0617   -3.9961  -13.3001 C   0  0  0  0  0  0  0  0  0  0  0  0
   22.7794   -4.9262  -12.8560 O   0  0  0  0  0  0  0  0  0  0  0  0
   20.4014   -4.9730  -17.4052 C   0  0  0  0  0  0  0  0  0  0  0  0
   19.5528   -4.0303  -17.5849 O   0  0  0  0  0  0  0  0  0  0  0  0
   22.1780   -2.7127  -12.7358 O   0  0  0  0  0  0  0  0  0  0  0  0
   21.3159   -5.0755  -18.4413 O   0  0  0  0  0  0  0  0  0  0  0  0
  1  2  1  0
  1  5  1  0
  2  3  1  0
  3  4  1  0
  5  4  1  0
  6 10  1  0
  5  6  1  6
  7  6  2  0
  9  8  1  6
  9 11  1  0
  9 10  1  0
 11 13  1  0
 12 11  2  0
 13 14  1  0
 14 15  1  1
 15 16  1  0
 17 21  1  0
 17 16  1  0
 18 17  2  0
 19 14  1  0
 20 19  2  0
 22 19  1  0
M  END
$$$$
