PAE.pdb
     RDKit          3D

 22 22  0  0  1  0  0  0  0  0999 V2000
   19.2804  -12.1757  -17.6489 N   0  0  0  0  0  0  0  0  0  0  0  0
   18.6447  -13.4570  -17.8046 C   0  0  0  0  0  0  0  0  0  0  0  0
   18.0699  -13.8478  -16.4611 C   0  0  0  0  0  0  0  0  0  0  0  0
   18.8139  -12.9106  -15.5363 C   0  0  0  0  0  0  0  0  0  0  0  0
   18.8328  -11.6404  -16.3777 C   0  0  1  0  0  0  0  0  0  0  0  0
   19.7398  -10.6284  -15.8355 C   0  0  0  0  0  0  0  0  0  0  0  0
   19.4382  -10.0229  -14.7769 O   0  0  0  0  0  0  0  0  0  0  0  0
   23.2622   -9.5375  -16.6542 C   0  0  0  0  0  0  0  0  0  0  0  0
   21.9133   -9.3720  -15.9986 C   0  0  2  0  0  0  0  0  0  0  0  0
   20.9459  -10.3254  -16.4853 N   0  0  0  0  0  0  0  0  0  0  0  0
   21.3690   -8.0085  -16.1768 C   0  0  0  0  0  0  0  0  0  0  0  0
   20.6618   -7.7315  -17.1693 O   0  0  0  0  0  0  0  0  0  0  0  0
   21.6618   -7.0419  -15.2141 N   0  0  0  0  0  0  0  0  0  0  0  0
   21.1502   -5.6454  -15.2659 C   0  0  1  0  0  0  0  0  0  0  0  0
   19.6893   -5.7985  -15.1257 C   0  0  0  0  0  0  0  0  0  0  0  0
   18.8068   -4.6434  -14.9834 C   0  0  0  0  0  0  0  0  0  0  0  0
   17.3992   -5.0325  -14.8019 C   0  0  0  0  0  0  0  0  0  0  0  0
   16.5428   -4.3627  -14.1733 O   0  0  0  0  0  0  0  0  0  0  0  0
   21.8958   -4.9099  -14.2705 C   0  0  0  0  0  0  0  0  0  0  0  0
   22.4609   -5.5546  -13.3184 O   0  0  0  0  0  0  0  0  0  0  0  0
   17.0168   -6.2511  -15.3919 O   0  0  0  0  0  0  0  0  0  0  0  0
   22.1047   -3.5424  -14.1897 O   0  0  0  0  0  0  0  0  0  0  0  0
  1  2  1  0
  1  5  1  0
  2  3  1  0
  3  4  1  0
  5  4  1  0
  6 10  1  0
  5  6  1  1
  7  6  2  0
  9  8  1  6
  9 11  1  0
  9 10  1  0
 11 13  1  0
 12 11  2  0
 13 14  1  0
 14 15  1  1
 15 16  1  0
 17 21  1  0
 17 16  1  0
 18 17  2  0
 19 14  1  0
 20 19  2  0
 22 19  1  0
M  END
$$$$
