PAE.pdb
     RDKit          3D

 22 22  0  0  1  0  0  0  0  0999 V2000
   16.3576  -11.2702  -10.3261 N   0  0  0  0  0  0  0  0  0  0  0  0
   15.8511  -12.5631  -10.7026 C   0  0  0  0  0  0  0  0  0  0  0  0
   15.2592  -12.4357  -12.0887 C   0  0  0  0  0  0  0  0  0  0  0  0
   15.1097  -10.9358  -12.2107 C   0  0  0  0  0  0  0  0  0  0  0  0
   16.3926  -10.4687  -11.5341 C   0  0  1  0  0  0  0  0  0  0  0  0
   16.3859   -9.0308  -11.2632 C   0  0  0  0  0  0  0  0  0  0  0  0
   16.3792   -8.2157  -12.2191 O   0  0  0  0  0  0  0  0  0  0  0  0
   16.0193   -6.9768   -8.1000 C   0  0  0  0  0  0  0  0  0  0  0  0
   16.2032   -7.1648   -9.5858 C   0  0  2  0  0  0  0  0  0  0  0  0
   16.3867   -8.5501   -9.9450 N   0  0  0  0  0  0  0  0  0  0  0  0
   17.3426   -6.3820  -10.1112 C   0  0  0  0  0  0  0  0  0  0  0  0
   18.5175   -6.7615   -9.9171 O   0  0  0  0  0  0  0  0  0  0  0  0
   17.0765   -5.2142  -10.8270 N   0  0  0  0  0  0  0  0  0  0  0  0
   18.1263   -4.4038  -11.5022 C   0  0  1  0  0  0  0  0  0  0  0  0
   18.7694   -5.3576  -12.4263 C   0  0  0  0  0  0  0  0  0  0  0  0
   19.8038   -4.9355  -13.3672 C   0  0  0  0  0  0  0  0  0  0  0  0
   21.1585   -5.0698  -12.8081 C   0  0  0  0  0  0  0  0  0  0  0  0
   21.4295   -5.5820  -11.6939 O   0  0  0  0  0  0  0  0  0  0  0  0
   17.4547   -3.2363  -12.0250 C   0  0  0  0  0  0  0  0  0  0  0  0
   18.0364   -2.0979  -11.9418 O   0  0  0  0  0  0  0  0  0  0  0  0
   22.2060   -4.5795  -13.6091 O   0  0  0  0  0  0  0  0  0  0  0  0
   16.2139   -3.1606  -12.6375 O   0  0  0  0  0  0  0  0  0  0  0  0
  1  2  1  0
  1  5  1  0
  2  3  1  0
  3  4  1  0
  5  4  1  0
  6 10  1  0
  5  6  1  1
  7  6  2  0
  9  8  1  1
  9 11  1  0
  9 10  1  0
 11 13  1  0
 12 11  2  0
 13 14  1  0
 14 15  1  6
 15 16  1  0
 17 21  1  0
 17 16  1  0
 18 17  2  0
 19 14  1  0
 20 19  2  0
 22 19  1  0
M  END
$$$$
