PAE.pdb
     RDKit          3D

 22 22  0  0  1  0  0  0  0  0999 V2000
   20.9274  -12.1292  -18.3994 N   0  0  0  0  0  0  0  0  0  0  0  0
   20.3930  -13.2502  -19.1260 C   0  0  0  0  0  0  0  0  0  0  0  0
   19.0555  -13.5974  -18.5109 C   0  0  0  0  0  0  0  0  0  0  0  0
   19.1440  -12.8786  -17.1833 C   0  0  0  0  0  0  0  0  0  0  0  0
   19.8396  -11.5905  -17.6060 C   0  0  1  0  0  0  0  0  0  0  0  0
   20.3044  -10.8085  -16.4600 C   0  0  0  0  0  0  0  0  0  0  0  0
   19.4694  -10.2500  -15.7056 O   0  0  0  0  0  0  0  0  0  0  0  0
   23.6242  -10.3038  -14.7508 C   0  0  0  0  0  0  0  0  0  0  0  0
   22.2188   -9.8893  -15.1111 C   0  0  2  0  0  0  0  0  0  0  0  0
   21.6753  -10.6745  -16.1927 N   0  0  0  0  0  0  0  0  0  0  0  0
   22.1338   -8.4578  -15.4727 C   0  0  0  0  0  0  0  0  0  0  0  0
   22.1989   -8.0996  -16.6683 O   0  0  0  0  0  0  0  0  0  0  0  0
   21.9791   -7.5195  -14.4516 N   0  0  0  0  0  0  0  0  0  0  0  0
   21.7835   -6.0640  -14.6923 C   0  0  1  0  0  0  0  0  0  0  0  0
   20.3674   -5.9591  -15.0937 C   0  0  0  0  0  0  0  0  0  0  0  0
   19.7212   -4.6651  -15.2969 C   0  0  0  0  0  0  0  0  0  0  0  0
   18.2876   -4.7965  -15.6024 C   0  0  0  0  0  0  0  0  0  0  0  0
   17.6784   -5.8859  -15.7411 O   0  0  0  0  0  0  0  0  0  0  0  0
   22.2442   -5.3963  -13.4966 C   0  0  0  0  0  0  0  0  0  0  0  0
   22.2410   -6.0386  -12.3882 O   0  0  0  0  0  0  0  0  0  0  0  0
   17.5751   -3.5913  -15.7407 O   0  0  0  0  0  0  0  0  0  0  0  0
   22.7165   -4.1003  -13.3637 O   0  0  0  0  0  0  0  0  0  0  0  0
  1  2  1  0
  1  5  1  0
  2  3  1  0
  3  4  1  0
  5  4  1  0
  6 10  1  0
  5  6  1  1
  7  6  2  0
  9  8  1  6
  9 11  1  0
  9 10  1  0
 11 13  1  0
 12 11  2  0
 13 14  1  0
 14 15  1  1
 15 16  1  0
 17 21  1  0
 17 16  1  0
 18 17  2  0
 19 14  1  0
 20 19  2  0
 22 19  1  0
M  END
$$$$
