PAE.pdb
     RDKit          3D

 22 22  0  0  1  0  0  0  0  0999 V2000
   22.1584  -12.2136  -19.1139 N   0  0  0  0  0  0  0  0  0  0  0  0
   21.8942  -13.2858  -20.0363 C   0  0  0  0  0  0  0  0  0  0  0  0
   20.5663  -13.9007  -19.6535 C   0  0  0  0  0  0  0  0  0  0  0  0
   20.3875  -13.3697  -18.2487 C   0  0  0  0  0  0  0  0  0  0  0  0
   20.9156  -11.9501  -18.4147 C   0  0  1  0  0  0  0  0  0  0  0  0
   21.1168  -11.2786  -17.1304 C   0  0  0  0  0  0  0  0  0  0  0  0
   20.1254  -10.9911  -16.4143 O   0  0  0  0  0  0  0  0  0  0  0  0
   24.0626  -10.5573  -14.9213 C   0  0  0  0  0  0  0  0  0  0  0  0
   22.6901  -10.2420  -15.4632 C   0  0  2  0  0  0  0  0  0  0  0  0
   22.4073  -10.9511  -16.6876 N   0  0  0  0  0  0  0  0  0  0  0  0
   22.5010   -8.7941  -15.6974 C   0  0  0  0  0  0  0  0  0  0  0  0
   22.7004   -8.3021  -16.8288 O   0  0  0  0  0  0  0  0  0  0  0  0
   22.0953   -7.9927  -14.6295 N   0  0  0  0  0  0  0  0  0  0  0  0
   21.8177   -6.5357  -14.7512 C   0  0  1  0  0  0  0  0  0  0  0  0
   20.4835   -6.4811  -15.3790 C   0  0  0  0  0  0  0  0  0  0  0  0
   19.7583   -5.2225  -15.5319 C   0  0  0  0  0  0  0  0  0  0  0  0
   18.4567   -5.4027  -16.1945 C   0  0  0  0  0  0  0  0  0  0  0  0
   18.0389   -6.4839  -16.6779 O   0  0  0  0  0  0  0  0  0  0  0  0
   22.0161   -5.9801  -13.4323 C   0  0  0  0  0  0  0  0  0  0  0  0
   22.3155   -4.7394  -13.3215 O   0  0  0  0  0  0  0  0  0  0  0  0
   17.6427   -4.2579  -16.2732 O   0  0  0  0  0  0  0  0  0  0  0  0
   21.9224   -6.6203  -12.2068 O   0  0  0  0  0  0  0  0  0  0  0  0
  1  2  1  0
  1  5  1  0
  2  3  1  0
  3  4  1  0
  5  4  1  0
  6 10  1  0
  5  6  1  1
  7  6  2  0
  9  8  1  6
  9 11  1  0
  9 10  1  0
 11 13  1  0
 12 11  2  0
 13 14  1  0
 14 15  1  1
 15 16  1  0
 17 21  1  0
 17 16  1  0
 18 17  2  0
 19 14  1  0
 20 19  2  0
 22 19  1  0
M  END
$$$$
