PAE.pdb
     RDKit          3D

 22 22  0  0  1  0  0  0  0  0999 V2000
   17.3650  -12.9988  -15.9471 N   0  0  0  0  0  0  0  0  0  0  0  0
   17.4672  -14.4160  -16.1734 C   0  0  0  0  0  0  0  0  0  0  0  0
   18.9227  -14.7325  -16.4370 C   0  0  0  0  0  0  0  0  0  0  0  0
   19.4721  -13.3596  -16.7538 C   0  0  0  0  0  0  0  0  0  0  0  0
   18.7150  -12.5119  -15.7390 C   0  0  1  0  0  0  0  0  0  0  0  0
   18.8497  -11.0788  -16.0018 C   0  0  0  0  0  0  0  0  0  0  0  0
   19.9611  -10.5162  -15.8390 O   0  0  0  0  0  0  0  0  0  0  0  0
   16.6388   -8.5270  -17.6813 C   0  0  0  0  0  0  0  0  0  0  0  0
   17.8237   -8.9418  -16.8444 C   0  0  2  0  0  0  0  0  0  0  0  0
   17.7495  -10.3233  -16.4346 N   0  0  0  0  0  0  0  0  0  0  0  0
   17.9814   -8.0964  -15.6413 C   0  0  0  0  0  0  0  0  0  0  0  0
   17.4795   -8.4435  -14.5507 O   0  0  0  0  0  0  0  0  0  0  0  0
   18.7018   -6.9065  -15.7515 N   0  0  0  0  0  0  0  0  0  0  0  0
   19.0018   -6.0147  -14.5985 C   0  0  1  0  0  0  0  0  0  0  0  0
   20.4257   -5.6717  -14.7778 C   0  0  0  0  0  0  0  0  0  0  0  0
   21.1340   -4.8154  -13.8300 C   0  0  0  0  0  0  0  0  0  0  0  0
   22.5291   -4.5711  -14.2297 C   0  0  0  0  0  0  0  0  0  0  0  0
   23.3694   -5.4664  -14.4934 O   0  0  0  0  0  0  0  0  0  0  0  0
   18.0011   -4.9730  -14.6286 C   0  0  0  0  0  0  0  0  0  0  0  0
   17.4913   -4.6362  -15.7547 O   0  0  0  0  0  0  0  0  0  0  0  0
   22.9172   -3.2215  -14.3156 O   0  0  0  0  0  0  0  0  0  0  0  0
   17.4811   -4.2496  -13.5672 O   0  0  0  0  0  0  0  0  0  0  0  0
  1  2  1  0
  1  5  1  0
  2  3  1  0
  3  4  1  0
  5  4  1  0
  6 10  1  0
  5  6  1  6
  7  6  2  0
  9  8  1  1
  9 11  1  0
  9 10  1  0
 11 13  1  0
 12 11  2  0
 13 14  1  0
 14 15  1  6
 15 16  1  0
 17 21  1  0
 17 16  1  0
 18 17  2  0
 19 14  1  0
 20 19  2  0
 22 19  1  0
M  END
$$$$
