PAE.pdb
     RDKit          3D

 22 22  0  0  1  0  0  0  0  0999 V2000
   24.5753  -14.2508  -17.2030 N   0  0  0  0  0  0  0  0  0  0  0  0
   24.4168  -15.6737  -17.3468 C   0  0  0  0  0  0  0  0  0  0  0  0
   23.2717  -16.0981  -16.4543 C   0  0  0  0  0  0  0  0  0  0  0  0
   23.1470  -14.8988  -15.5415 C   0  0  0  0  0  0  0  0  0  0  0  0
   23.3856  -13.7651  -16.5312 C   0  0  1  0  0  0  0  0  0  0  0  0
   23.5939  -12.4798  -15.8638 C   0  0  0  0  0  0  0  0  0  0  0  0
   22.6572  -11.9572  -15.2097 O   0  0  0  0  0  0  0  0  0  0  0  0
   26.5719  -10.1835  -15.4003 C   0  0  0  0  0  0  0  0  0  0  0  0
   25.1042  -10.5315  -15.3614 C   0  0  2  0  0  0  0  0  0  0  0  0
   24.8306  -11.8221  -15.9457 N   0  0  0  0  0  0  0  0  0  0  0  0
   24.2710   -9.5156  -16.0403 C   0  0  0  0  0  0  0  0  0  0  0  0
   24.0855   -9.5679  -17.2751 O   0  0  0  0  0  0  0  0  0  0  0  0
   23.6980   -8.5010  -15.2725 N   0  0  0  0  0  0  0  0  0  0  0  0
   22.8182   -7.4398  -15.8333 C   0  0  1  0  0  0  0  0  0  0  0  0
   21.4557   -7.8964  -15.4981 C   0  0  0  0  0  0  0  0  0  0  0  0
   20.2781   -7.0900  -15.8087 C   0  0  0  0  0  0  0  0  0  0  0  0
   19.0235   -7.7654  -15.4403 C   0  0  0  0  0  0  0  0  0  0  0  0
   18.9200   -8.9829  -15.1505 O   0  0  0  0  0  0  0  0  0  0  0  0
   23.3103   -6.1903  -15.3002 C   0  0  0  0  0  0  0  0  0  0  0  0
   23.9162   -6.1943  -14.1714 O   0  0  0  0  0  0  0  0  0  0  0  0
   17.8727   -6.9564  -15.4187 O   0  0  0  0  0  0  0  0  0  0  0  0
   23.2238   -4.9245  -15.8574 O   0  0  0  0  0  0  0  0  0  0  0  0
  1  2  1  0
  1  5  1  0
  2  3  1  0
  3  4  1  0
  5  4  1  0
  6 10  1  0
  5  6  1  1
  7  6  2  0
  9  8  1  6
  9 11  1  0
  9 10  1  0
 11 13  1  0
 12 11  2  0
 13 14  1  0
 14 15  1  1
 15 16  1  0
 17 21  1  0
 17 16  1  0
 18 17  2  0
 19 14  1  0
 20 19  2  0
 22 19  1  0
M  END
$$$$
