TFQ.pdb
     RDKit          3D

 28 28  0  0  1  0  0  0  0  0999 V2000
    7.7700  -14.6669   17.3635 C   0  0  0  0  0  0  0  0  0  0  0  0
    8.0553  -14.8082   18.8394 C   0  0  1  0  0  0  0  0  0  0  0  0
    9.2360  -15.5125   19.0541 O   0  0  0  0  0  0  0  0  0  0  0  0
    8.1194  -13.4232   19.4536 C   0  0  2  0  0  0  0  0  0  0  0  0
    9.2081  -12.7289   18.7998 N   0  0  0  0  0  0  0  0  0  0  0  0
    8.4371  -13.5189   20.8945 C   0  0  0  0  0  0  0  0  0  0  0  0
    9.6025  -13.2695   21.2789 O   0  0  0  0  0  0  0  0  0  0  0  0
    7.4921  -13.8805   21.8838 N   0  0  0  0  0  0  0  0  0  0  0  0
    7.7593  -13.9141   23.3034 C   0  0  1  0  0  0  0  0  0  0  0  0
    6.9024  -12.8710   23.9748 C   0  0  0  0  0  0  0  0  0  0  0  0
    7.1165  -12.7675   25.4184 C   0  0  0  0  0  0  0  0  0  0  0  0
    6.1060  -13.0243   26.3122 C   0  0  0  0  0  0  0  0  0  0  0  0
    6.2962  -12.9297   27.6876 C   0  0  0  0  0  0  0  0  0  0  0  0
    7.5234  -12.5702   28.1925 C   0  0  0  0  0  0  0  0  0  0  0  0
    8.5431  -12.3105   27.3084 C   0  0  0  0  0  0  0  0  0  0  0  0
    8.3360  -12.4095   25.9469 C   0  0  0  0  0  0  0  0  0  0  0  0
    7.5713  -15.2642   23.8779 C   0  0  0  0  0  0  0  0  0  0  0  0
    6.9212  -15.3664   24.9423 O   0  0  0  0  0  0  0  0  0  0  0  0
   12.3441  -15.5782   20.6903 N   0  0  0  0  0  0  0  0  0  0  0  0
   12.8024  -16.1547   21.8932 C   0  0  0  0  0  0  0  0  0  0  0  0
   14.0426  -16.2508   22.0885 O   0  0  0  0  0  0  0  0  0  0  0  0
   11.8696  -16.6303   22.9068 C   0  0  0  0  0  0  0  0  0  0  0  0
   10.4201  -16.4115   22.6428 C   0  0  0  0  0  0  0  0  0  0  0  0
    9.4380  -16.9564   23.6041 C   0  0  2  0  0  0  0  0  0  0  0  0
    8.0838  -16.4447   23.2935 N   0  0  0  0  0  0  0  0  0  0  0  0
    9.6642  -16.8267   25.0300 C   0  0  0  0  0  0  0  0  0  0  0  0
   10.2588  -15.8092   25.5438 O   0  0  0  0  0  0  0  0  0  0  0  0
    9.2615  -17.7693   25.9774 O   0  0  0  0  0  0  0  0  0  0  0  0
  2  1  1  6
  2  3  1  0
  4  2  1  0
  4  5  1  6
  6  7  2  0
  6  4  1  0
  8  6  1  0
  9  8  1  0
  9 10  1  1
 10 11  1  0
 11 16  2  0
 11 12  1  0
 12 13  2  0
 13 14  1  0
 15 14  2  0
 16 15  1  0
 17 18  2  0
 17  9  1  0
 20 19  1  0
 21 20  2  0
 22 20  1  0
 24 23  1  6
 23 22  1  0
 24 25  1  0
 25 17  1  0
 26 24  1  0
 27 26  2  0
 28 26  1  0
M  END
$$$$
