TFQ.pdb
     RDKit          3D

 28 28  0  0  1  0  0  0  0  0999 V2000
   10.5535  -16.1246   18.9514 C   0  0  0  0  0  0  0  0  0  0  0  0
    9.0458  -16.2025   18.9344 C   0  0  1  0  0  0  0  0  0  0  0  0
    8.5915  -16.8277   17.7773 O   0  0  0  0  0  0  0  0  0  0  0  0
    8.5864  -16.9403   20.1771 C   0  0  2  0  0  0  0  0  0  0  0  0
    7.1504  -17.0843   20.0675 N   0  0  0  0  0  0  0  0  0  0  0  0
    8.8750  -16.1356   21.3836 C   0  0  0  0  0  0  0  0  0  0  0  0
   10.0652  -15.9747   21.7377 O   0  0  0  0  0  0  0  0  0  0  0  0
    7.8747  -15.5254   22.1770 N   0  0  0  0  0  0  0  0  0  0  0  0
    8.1206  -14.8325   23.4209 C   0  0  1  0  0  0  0  0  0  0  0  0
    7.0165  -13.8280   23.6336 C   0  0  0  0  0  0  0  0  0  0  0  0
    7.0717  -13.1522   24.9300 C   0  0  0  0  0  0  0  0  0  0  0  0
    8.1911  -12.4657   25.3324 C   0  0  0  0  0  0  0  0  0  0  0  0
    8.2568  -11.8185   26.5627 C   0  0  0  0  0  0  0  0  0  0  0  0
    7.1822  -11.8522   27.4197 C   0  0  0  0  0  0  0  0  0  0  0  0
    6.0559  -12.5359   27.0287 C   0  0  0  0  0  0  0  0  0  0  0  0
    6.0087  -13.1722   25.8042 C   0  0  0  0  0  0  0  0  0  0  0  0
    8.2738  -15.7630   24.5606 C   0  0  0  0  0  0  0  0  0  0  0  0
    7.2865  -16.4570   24.8917 O   0  0  0  0  0  0  0  0  0  0  0  0
   10.7874  -20.7337   24.4640 N   0  0  0  0  0  0  0  0  0  0  0  0
   11.6305  -19.6126   24.3177 C   0  0  0  0  0  0  0  0  0  0  0  0
   12.6712  -19.7208   23.6173 O   0  0  0  0  0  0  0  0  0  0  0  0
   11.3137  -18.3405   24.9544 C   0  0  0  0  0  0  0  0  0  0  0  0
   10.0068  -18.2499   25.6630 C   0  0  0  0  0  0  0  0  0  0  0  0
    9.6449  -16.9734   26.3150 C   0  0  2  0  0  0  0  0  0  0  0  0
    9.4712  -15.9129   25.2965 N   0  0  0  0  0  0  0  0  0  0  0  0
   10.4596  -16.4487   27.3930 C   0  0  0  0  0  0  0  0  0  0  0  0
   11.0153  -15.2907   27.3362 O   0  0  0  0  0  0  0  0  0  0  0  0
   10.7152  -17.1274   28.5855 O   0  0  0  0  0  0  0  0  0  0  0  0
  2  1  1  6
  2  3  1  0
  4  2  1  0
  4  5  1  6
  6  7  2  0
  6  4  1  0
  8  6  1  0
  9  8  1  0
  9 10  1  1
 10 11  1  0
 11 16  2  0
 11 12  1  0
 12 13  2  0
 13 14  1  0
 15 14  2  0
 16 15  1  0
 17 18  2  0
 17  9  1  0
 20 19  1  0
 21 20  2  0
 22 20  1  0
 24 23  1  6
 23 22  1  0
 24 25  1  0
 25 17  1  0
 26 24  1  0
 27 26  2  0
 28 26  1  0
M  END
$$$$
