TFQ.pdb
     RDKit          3D

 28 28  0  0  1  0  0  0  0  0999 V2000
    8.4394  -18.6710   21.0853 C   0  0  0  0  0  0  0  0  0  0  0  0
    9.6343  -18.2133   20.2838 C   0  0  1  0  0  0  0  0  0  0  0  0
    9.6998  -18.8767   19.0625 O   0  0  0  0  0  0  0  0  0  0  0  0
    9.5406  -16.7119   20.0919 C   0  0  2  0  0  0  0  0  0  0  0  0
   10.6931  -16.3206   19.3087 N   0  0  0  0  0  0  0  0  0  0  0  0
    9.6208  -16.0250   21.3989 C   0  0  0  0  0  0  0  0  0  0  0  0
   10.7042  -16.0354   22.0267 O   0  0  0  0  0  0  0  0  0  0  0  0
    8.5327  -15.3450   21.9957 N   0  0  0  0  0  0  0  0  0  0  0  0
    8.5520  -14.7629   23.3180 C   0  0  1  0  0  0  0  0  0  0  0  0
    7.3915  -13.8076   23.4356 C   0  0  0  0  0  0  0  0  0  0  0  0
    7.2189  -13.2467   24.7758 C   0  0  0  0  0  0  0  0  0  0  0  0
    6.2491  -13.7146   25.6283 C   0  0  0  0  0  0  0  0  0  0  0  0
    6.0744  -13.1901   26.9054 C   0  0  0  0  0  0  0  0  0  0  0  0
    6.8839  -12.1723   27.3514 C   0  0  0  0  0  0  0  0  0  0  0  0
    7.8584  -11.6952   26.5078 C   0  0  0  0  0  0  0  0  0  0  0  0
    8.0172  -12.2278   25.2438 C   0  0  0  0  0  0  0  0  0  0  0  0
    8.5570  -15.7897   24.3829 C   0  0  0  0  0  0  0  0  0  0  0  0
    7.6033  -16.5988   24.4260 O   0  0  0  0  0  0  0  0  0  0  0  0
   12.9633  -18.5189   23.1007 N   0  0  0  0  0  0  0  0  0  0  0  0
   12.2604  -18.8888   24.2662 C   0  0  0  0  0  0  0  0  0  0  0  0
   12.1022  -20.1121   24.5192 O   0  0  0  0  0  0  0  0  0  0  0  0
   11.7252  -17.8847   25.1767 C   0  0  0  0  0  0  0  0  0  0  0  0
   10.3855  -18.1581   25.7675 C   0  0  0  0  0  0  0  0  0  0  0  0
    9.6162  -17.0256   26.3254 C   0  0  2  0  0  0  0  0  0  0  0  0
    9.5771  -15.9090   25.3540 N   0  0  0  0  0  0  0  0  0  0  0  0
    9.9498  -16.4901   27.6305 C   0  0  0  0  0  0  0  0  0  0  0  0
   10.1022  -17.2391   28.6643 O   0  0  0  0  0  0  0  0  0  0  0  0
   10.1449  -15.1338   27.8958 O   0  0  0  0  0  0  0  0  0  0  0  0
  2  1  1  6
  2  3  1  0
  4  2  1  0
  4  5  1  6
  6  7  2  0
  6  4  1  0
  8  6  1  0
  9  8  1  0
  9 10  1  1
 10 11  1  0
 11 16  2  0
 11 12  1  0
 12 13  2  0
 13 14  1  0
 15 14  2  0
 16 15  1  0
 17 18  2  0
 17  9  1  0
 20 19  1  0
 21 20  2  0
 22 20  1  0
 24 23  1  6
 23 22  1  0
 24 25  1  0
 25 17  1  0
 26 24  1  0
 27 26  2  0
 28 26  1  0
M  END
$$$$
