TFQ.pdb
     RDKit          3D

 28 28  0  0  1  0  0  0  0  0999 V2000
    8.3717  -18.7313   20.9472 C   0  0  0  0  0  0  0  0  0  0  0  0
    9.0450  -18.0536   19.7780 C   0  0  1  0  0  0  0  0  0  0  0  0
    8.9540  -18.8335   18.6293 O   0  0  0  0  0  0  0  0  0  0  0  0
    8.4051  -16.6939   19.5741 C   0  0  2  0  0  0  0  0  0  0  0  0
    9.0410  -16.1054   18.4147 N   0  0  0  0  0  0  0  0  0  0  0  0
    8.6778  -15.8227   20.7373 C   0  0  0  0  0  0  0  0  0  0  0  0
    9.8322  -15.3648   20.8977 O   0  0  0  0  0  0  0  0  0  0  0  0
    7.7006  -15.4672   21.6971 N   0  0  0  0  0  0  0  0  0  0  0  0
    7.9762  -14.7692   22.9319 C   0  0  1  0  0  0  0  0  0  0  0  0
    6.6818  -14.2045   23.4598 C   0  0  0  0  0  0  0  0  0  0  0  0
    6.8099  -13.5415   24.7576 C   0  0  0  0  0  0  0  0  0  0  0  0
    7.2768  -12.2541   24.8608 C   0  0  0  0  0  0  0  0  0  0  0  0
    7.4035  -11.6118   26.0889 C   0  0  0  0  0  0  0  0  0  0  0  0
    7.0576  -12.2637   27.2488 C   0  0  0  0  0  0  0  0  0  0  0  0
    6.5889  -13.5526   27.1591 C   0  0  0  0  0  0  0  0  0  0  0  0
    6.4699  -14.1740   25.9319 C   0  0  0  0  0  0  0  0  0  0  0  0
    8.6700  -15.6263   23.9179 C   0  0  0  0  0  0  0  0  0  0  0  0
    8.2038  -16.7664   24.1391 O   0  0  0  0  0  0  0  0  0  0  0  0
   15.4976  -17.6710   25.3149 N   0  0  0  0  0  0  0  0  0  0  0  0
   14.4922  -16.7689   24.9090 C   0  0  0  0  0  0  0  0  0  0  0  0
   14.7143  -16.0105   23.9288 O   0  0  0  0  0  0  0  0  0  0  0  0
   13.2093  -16.7073   25.5977 C   0  0  0  0  0  0  0  0  0  0  0  0
   12.1372  -15.9000   24.9518 C   0  0  0  0  0  0  0  0  0  0  0  0
   10.7285  -16.2098   25.2762 C   0  0  2  0  0  0  0  0  0  0  0  0
    9.8288  -15.2312   24.6242 N   0  0  0  0  0  0  0  0  0  0  0  0
   10.3159  -16.3671   26.6569 C   0  0  0  0  0  0  0  0  0  0  0  0
   10.8198  -17.2631   27.4289 O   0  0  0  0  0  0  0  0  0  0  0  0
    9.3537  -15.5738   27.2837 O   0  0  0  0  0  0  0  0  0  0  0  0
  2  1  1  1
  2  3  1  0
  4  2  1  0
  4  5  1  6
  6  7  2  0
  6  4  1  0
  8  6  1  0
  9  8  1  0
  9 10  1  1
 10 11  1  0
 11 16  2  0
 11 12  1  0
 12 13  2  0
 13 14  1  0
 15 14  2  0
 16 15  1  0
 17 18  2  0
 17  9  1  0
 20 19  1  0
 21 20  2  0
 22 20  1  0
 24 23  1  1
 23 22  1  0
 24 25  1  0
 25 17  1  0
 26 24  1  0
 27 26  2  0
 28 26  1  0
M  END
$$$$
