TFQ.pdb
     RDKit          3D

 28 28  0  0  1  0  0  0  0  0999 V2000
    7.2905  -16.0686   19.1698 C   0  0  0  0  0  0  0  0  0  0  0  0
    8.1324  -15.0170   18.4879 C   0  0  1  0  0  0  0  0  0  0  0  0
    7.9007  -15.0047   17.1159 O   0  0  0  0  0  0  0  0  0  0  0  0
    7.8216  -13.6703   19.1120 C   0  0  2  0  0  0  0  0  0  0  0  0
    8.5912  -12.6863   18.3811 N   0  0  0  0  0  0  0  0  0  0  0  0
    8.2687  -13.6463   20.5213 C   0  0  0  0  0  0  0  0  0  0  0  0
    9.4939  -13.7058   20.7725 O   0  0  0  0  0  0  0  0  0  0  0  0
    7.3849  -13.5589   21.6231 N   0  0  0  0  0  0  0  0  0  0  0  0
    7.7932  -13.5834   23.0090 C   0  0  1  0  0  0  0  0  0  0  0  0
    6.7136  -12.9322   23.8358 C   0  0  0  0  0  0  0  0  0  0  0  0
    7.0192  -12.8679   25.2650 C   0  0  0  0  0  0  0  0  0  0  0  0
    8.0504  -12.0968   25.7427 C   0  0  0  0  0  0  0  0  0  0  0  0
    8.3517  -12.0267   27.0995 C   0  0  0  0  0  0  0  0  0  0  0  0
    7.6099  -12.7413   28.0101 C   0  0  0  0  0  0  0  0  0  0  0  0
    6.5751  -13.5170   27.5449 C   0  0  0  0  0  0  0  0  0  0  0  0
    6.2907  -13.5744   26.1950 C   0  0  0  0  0  0  0  0  0  0  0  0
    8.1226  -14.9489   23.4727 C   0  0  0  0  0  0  0  0  0  0  0  0
    7.3110  -15.8681   23.2227 O   0  0  0  0  0  0  0  0  0  0  0  0
   11.4480  -19.7851   21.6869 N   0  0  0  0  0  0  0  0  0  0  0  0
   12.0097  -19.1634   22.8214 C   0  0  0  0  0  0  0  0  0  0  0  0
   13.2631  -19.1101   22.9285 O   0  0  0  0  0  0  0  0  0  0  0  0
   11.1677  -18.5814   23.8588 C   0  0  0  0  0  0  0  0  0  0  0  0
   10.5524  -17.2578   23.5620 C   0  0  0  0  0  0  0  0  0  0  0  0
    9.6364  -16.6661   24.5602 C   0  0  2  0  0  0  0  0  0  0  0  0
    9.3013  -15.2745   24.1816 N   0  0  0  0  0  0  0  0  0  0  0  0
    9.9781  -16.6914   25.9687 C   0  0  0  0  0  0  0  0  0  0  0  0
    9.8669  -17.7526   26.6858 O   0  0  0  0  0  0  0  0  0  0  0  0
   10.4616  -15.5915   26.6789 O   0  0  0  0  0  0  0  0  0  0  0  0
  2  1  1  1
  2  3  1  0
  4  2  1  0
  4  5  1  6
  6  7  2  0
  6  4  1  0
  8  6  1  0
  9  8  1  0
  9 10  1  1
 10 11  1  0
 11 16  2  0
 11 12  1  0
 12 13  2  0
 13 14  1  0
 15 14  2  0
 16 15  1  0
 17 18  2  0
 17  9  1  0
 20 19  1  0
 21 20  2  0
 22 20  1  0
 24 23  1  6
 23 22  1  0
 24 25  1  0
 25 17  1  0
 26 24  1  0
 27 26  2  0
 28 26  1  0
M  END
$$$$
