TFQ.pdb
     RDKit          3D

 28 28  0  0  1  0  0  0  0  0999 V2000
    8.4572  -19.0397   19.0183 C   0  0  0  0  0  0  0  0  0  0  0  0
    8.7399  -18.2787   20.2913 C   0  0  1  0  0  0  0  0  0  0  0  0
    9.9057  -18.7362   20.8978 O   0  0  0  0  0  0  0  0  0  0  0  0
    8.8332  -16.8017   19.9603 C   0  0  2  0  0  0  0  0  0  0  0  0
    9.9943  -16.6388   19.1117 N   0  0  0  0  0  0  0  0  0  0  0  0
    9.0536  -16.0159   21.1933 C   0  0  0  0  0  0  0  0  0  0  0  0
   10.2133  -15.9217   21.6561 O   0  0  0  0  0  0  0  0  0  0  0  0
    8.0198  -15.3523   21.8958 N   0  0  0  0  0  0  0  0  0  0  0  0
    8.1764  -14.7193   23.1852 C   0  0  1  0  0  0  0  0  0  0  0  0
    6.9651  -13.8599   23.4448 C   0  0  0  0  0  0  0  0  0  0  0  0
    6.9739  -13.2024   24.7517 C   0  0  0  0  0  0  0  0  0  0  0  0
    7.7231  -12.0744   24.9807 C   0  0  0  0  0  0  0  0  0  0  0  0
    7.7404  -11.4393   26.2189 C   0  0  0  0  0  0  0  0  0  0  0  0
    6.9937  -11.9360   27.2610 C   0  0  0  0  0  0  0  0  0  0  0  0
    6.2396  -13.0644   27.0447 C   0  0  0  0  0  0  0  0  0  0  0  0
    6.2347  -13.6813   25.8095 C   0  0  0  0  0  0  0  0  0  0  0  0
    8.4236  -15.6995   24.2651 C   0  0  0  0  0  0  0  0  0  0  0  0
    7.6289  -16.6589   24.3834 O   0  0  0  0  0  0  0  0  0  0  0  0
   12.8763  -19.3556   24.5357 N   0  0  0  0  0  0  0  0  0  0  0  0
   13.0859  -17.9613   24.5021 C   0  0  0  0  0  0  0  0  0  0  0  0
   14.1139  -17.5138   23.9291 O   0  0  0  0  0  0  0  0  0  0  0  0
   12.1350  -17.0392   25.1099 C   0  0  0  0  0  0  0  0  0  0  0  0
   10.8313  -17.6099   25.5492 C   0  0  0  0  0  0  0  0  0  0  0  0
    9.8215  -16.6984   26.1281 C   0  0  2  0  0  0  0  0  0  0  0  0
    9.5057  -15.6144   25.1704 N   0  0  0  0  0  0  0  0  0  0  0  0
   10.0342  -16.1110   27.4361 C   0  0  0  0  0  0  0  0  0  0  0  0
   10.3078  -16.8194   28.4735 O   0  0  0  0  0  0  0  0  0  0  0  0
    9.9739  -14.7419   27.7007 O   0  0  0  0  0  0  0  0  0  0  0  0
  2  1  1  6
  2  3  1  0
  4  2  1  0
  4  5  1  6
  6  7  2  0
  6  4  1  0
  8  6  1  0
  9  8  1  0
  9 10  1  1
 10 11  1  0
 11 16  2  0
 11 12  1  0
 12 13  2  0
 13 14  1  0
 15 14  2  0
 16 15  1  0
 17 18  2  0
 17  9  1  0
 20 19  1  0
 21 20  2  0
 22 20  1  0
 24 23  1  6
 23 22  1  0
 24 25  1  0
 25 17  1  0
 26 24  1  0
 27 26  2  0
 28 26  1  0
M  END
$$$$
