TFQ.pdb
     RDKit          3D

 28 28  0  0  1  0  0  0  0  0999 V2000
    8.5833  -19.1329   21.1506 C   0  0  0  0  0  0  0  0  0  0  0  0
    9.5705  -18.5830   20.1493 C   0  0  1  0  0  0  0  0  0  0  0  0
    9.5458  -19.3187   18.9685 O   0  0  0  0  0  0  0  0  0  0  0  0
    9.2410  -17.1243   19.8976 C   0  0  2  0  0  0  0  0  0  0  0  0
   10.1884  -16.6485   18.9123 N   0  0  0  0  0  0  0  0  0  0  0  0
    9.4332  -16.3375   21.1347 C   0  0  0  0  0  0  0  0  0  0  0  0
   10.5905  -16.1923   21.5903 O   0  0  0  0  0  0  0  0  0  0  0  0
    8.3746  -15.7277   21.8489 N   0  0  0  0  0  0  0  0  0  0  0  0
    8.5177  -15.0646   23.1247 C   0  0  1  0  0  0  0  0  0  0  0  0
    7.3113  -14.1874   23.3443 C   0  0  0  0  0  0  0  0  0  0  0  0
    7.3077  -13.4965   24.6338 C   0  0  0  0  0  0  0  0  0  0  0  0
    8.2331  -12.5253   24.9283 C   0  0  0  0  0  0  0  0  0  0  0  0
    8.2408  -11.8604   26.1508 C   0  0  0  0  0  0  0  0  0  0  0  0
    7.3045  -12.1663   27.1100 C   0  0  0  0  0  0  0  0  0  0  0  0
    6.3729  -13.1365   26.8276 C   0  0  0  0  0  0  0  0  0  0  0  0
    6.3805  -13.7858   25.6091 C   0  0  0  0  0  0  0  0  0  0  0  0
    8.7384  -16.0204   24.2320 C   0  0  0  0  0  0  0  0  0  0  0  0
    7.8528  -16.8753   24.4579 O   0  0  0  0  0  0  0  0  0  0  0  0
   10.9298  -20.8967   24.0124 N   0  0  0  0  0  0  0  0  0  0  0  0
   11.7948  -19.9028   24.5153 C   0  0  0  0  0  0  0  0  0  0  0  0
   12.9205  -20.2453   24.9634 O   0  0  0  0  0  0  0  0  0  0  0  0
   11.4104  -18.4970   24.5176 C   0  0  0  0  0  0  0  0  0  0  0  0
   11.2960  -17.8331   25.8459 C   0  0  0  0  0  0  0  0  0  0  0  0
   10.0945  -17.0184   26.1261 C   0  0  2  0  0  0  0  0  0  0  0  0
    9.8918  -16.0231   25.0490 N   0  0  0  0  0  0  0  0  0  0  0  0
    9.9480  -16.3510   27.4045 C   0  0  0  0  0  0  0  0  0  0  0  0
    9.1608  -16.7864   28.3230 O   0  0  0  0  0  0  0  0  0  0  0  0
   10.6377  -15.1938   27.7693 O   0  0  0  0  0  0  0  0  0  0  0  0
  2  1  1  1
  2  3  1  0
  4  2  1  0
  4  5  1  6
  6  7  2  0
  6  4  1  0
  8  6  1  0
  9  8  1  0
  9 10  1  1
 10 11  1  0
 11 16  2  0
 11 12  1  0
 12 13  2  0
 13 14  1  0
 15 14  2  0
 16 15  1  0
 17 18  2  0
 17  9  1  0
 20 19  1  0
 21 20  2  0
 22 20  1  0
 24 23  1  1
 23 22  1  0
 24 25  1  0
 25 17  1  0
 26 24  1  0
 27 26  2  0
 28 26  1  0
M  END
$$$$
