TFQ.pdb
     RDKit          3D

 28 28  0  0  1  0  0  0  0  0999 V2000
    6.9331  -16.5455   20.2396 C   0  0  0  0  0  0  0  0  0  0  0  0
    7.8066  -15.4512   19.6748 C   0  0  1  0  0  0  0  0  0  0  0  0
    7.5128  -15.2201   18.3345 O   0  0  0  0  0  0  0  0  0  0  0  0
    7.6100  -14.1986   20.5067 C   0  0  2  0  0  0  0  0  0  0  0  0
    8.2579  -13.1195   19.7922 N   0  0  0  0  0  0  0  0  0  0  0  0
    8.2793  -14.3468   21.8169 C   0  0  0  0  0  0  0  0  0  0  0  0
    9.4357  -13.8900   21.9650 O   0  0  0  0  0  0  0  0  0  0  0  0
    7.6861  -14.9828   22.9332 N   0  0  0  0  0  0  0  0  0  0  0  0
    8.2201  -14.9551   24.2756 C   0  0  1  0  0  0  0  0  0  0  0  0
    7.0739  -14.7934   25.2416 C   0  0  0  0  0  0  0  0  0  0  0  0
    6.9239  -13.4339   25.7611 C   0  0  0  0  0  0  0  0  0  0  0  0
    7.8445  -12.4544   25.4798 C   0  0  0  0  0  0  0  0  0  0  0  0
    7.7137  -11.1575   25.9674 C   0  0  0  0  0  0  0  0  0  0  0  0
    6.6396  -10.8208   26.7567 C   0  0  0  0  0  0  0  0  0  0  0  0
    5.7112  -11.7921   27.0456 C   0  0  0  0  0  0  0  0  0  0  0  0
    5.8573  -13.0737   26.5530 C   0  0  0  0  0  0  0  0  0  0  0  0
    9.0544  -16.1401   24.5720 C   0  0  0  0  0  0  0  0  0  0  0  0
    9.4837  -16.2816   25.7390 O   0  0  0  0  0  0  0  0  0  0  0  0
   10.7221  -17.1034   19.6974 N   0  0  0  0  0  0  0  0  0  0  0  0
   11.2922  -18.1157   20.4972 C   0  0  0  0  0  0  0  0  0  0  0  0
   10.9894  -19.3160   20.2674 O   0  0  0  0  0  0  0  0  0  0  0  0
   12.2232  -17.7954   21.5716 C   0  0  0  0  0  0  0  0  0  0  0  0
   11.6640  -17.0906   22.7586 C   0  0  0  0  0  0  0  0  0  0  0  0
   10.7034  -17.8125   23.6198 C   0  0  2  0  0  0  0  0  0  0  0  0
    9.3941  -17.1211   23.6129 N   0  0  0  0  0  0  0  0  0  0  0  0
   11.0496  -18.1309   24.9909 C   0  0  0  0  0  0  0  0  0  0  0  0
   11.9270  -19.0214   25.2911 O   0  0  0  0  0  0  0  0  0  0  0  0
   10.4849  -17.5117   26.1070 O   0  0  0  0  0  0  0  0  0  0  0  0
  2  1  1  1
  2  3  1  0
  4  2  1  0
  4  5  1  6
  6  7  2  0
  6  4  1  0
  8  6  1  0
  9  8  1  0
  9 10  1  1
 10 11  1  0
 11 16  2  0
 11 12  1  0
 12 13  2  0
 13 14  1  0
 15 14  2  0
 16 15  1  0
 17 18  2  0
 17  9  1  0
 20 19  1  0
 21 20  2  0
 22 20  1  0
 24 23  1  1
 23 22  1  0
 24 25  1  0
 25 17  1  0
 26 24  1  0
 27 26  2  0
 28 26  1  0
M  END
$$$$
