TFQ.pdb
     RDKit          3D

 28 28  0  0  1  0  0  0  0  0999 V2000
    7.5749  -16.1257   18.8935 C   0  0  0  0  0  0  0  0  0  0  0  0
    8.2786  -14.9186   18.3213 C   0  0  1  0  0  0  0  0  0  0  0  0
    8.1049  -14.8468   16.9426 O   0  0  0  0  0  0  0  0  0  0  0  0
    7.7452  -13.6773   19.0100 C   0  0  2  0  0  0  0  0  0  0  0  0
    8.3350  -12.5415   18.3340 N   0  0  0  0  0  0  0  0  0  0  0  0
    8.1850  -13.6488   20.4215 C   0  0  0  0  0  0  0  0  0  0  0  0
    9.3964  -13.4627   20.6781 O   0  0  0  0  0  0  0  0  0  0  0  0
    7.3092  -13.8214   21.5195 N   0  0  0  0  0  0  0  0  0  0  0  0
    7.7139  -13.7966   22.9064 C   0  0  1  0  0  0  0  0  0  0  0  0
    6.6141  -13.1538   23.7128 C   0  0  0  0  0  0  0  0  0  0  0  0
    6.8795  -13.1138   25.1510 C   0  0  0  0  0  0  0  0  0  0  0  0
    6.1476  -13.8677   26.0353 C   0  0  0  0  0  0  0  0  0  0  0  0
    6.3897  -13.8390   27.4054 C   0  0  0  0  0  0  0  0  0  0  0  0
    7.3860  -13.0402   27.9147 C   0  0  0  0  0  0  0  0  0  0  0  0
    8.1258  -12.2808   27.0401 C   0  0  0  0  0  0  0  0  0  0  0  0
    7.8714  -12.3219   25.6837 C   0  0  0  0  0  0  0  0  0  0  0  0
    8.0804  -15.1391   23.4079 C   0  0  0  0  0  0  0  0  0  0  0  0
    7.2346  -16.0561   23.3093 O   0  0  0  0  0  0  0  0  0  0  0  0
   11.5983  -19.1636   20.9275 N   0  0  0  0  0  0  0  0  0  0  0  0
   11.7733  -17.9502   21.6248 C   0  0  0  0  0  0  0  0  0  0  0  0
   12.9063  -17.4012   21.6164 O   0  0  0  0  0  0  0  0  0  0  0  0
   10.6697  -17.3252   22.3427 C   0  0  0  0  0  0  0  0  0  0  0  0
   10.6694  -17.4608   23.8259 C   0  0  0  0  0  0  0  0  0  0  0  0
    9.6177  -16.7651   24.5976 C   0  0  2  0  0  0  0  0  0  0  0  0
    9.3307  -15.4450   23.9917 N   0  0  0  0  0  0  0  0  0  0  0  0
    9.7569  -16.5946   26.0304 C   0  0  0  0  0  0  0  0  0  0  0  0
    9.2438  -17.4166   26.8753 O   0  0  0  0  0  0  0  0  0  0  0  0
   10.4551  -15.5463   26.6318 O   0  0  0  0  0  0  0  0  0  0  0  0
  2  1  1  1
  2  3  1  0
  4  2  1  0
  4  5  1  6
  6  7  2  0
  6  4  1  0
  8  6  1  0
  9  8  1  0
  9 10  1  1
 10 11  1  0
 11 16  2  0
 11 12  1  0
 12 13  2  0
 13 14  1  0
 15 14  2  0
 16 15  1  0
 17 18  2  0
 17  9  1  0
 20 19  1  0
 21 20  2  0
 22 20  1  0
 24 23  1  6
 23 22  1  0
 24 25  1  0
 25 17  1  0
 26 24  1  0
 27 26  2  0
 28 26  1  0
M  END
$$$$
