TFQ.pdb
     RDKit          3D

 28 28  0  0  1  0  0  0  0  0999 V2000
   11.5319  -16.5232   19.8699 C   0  0  0  0  0  0  0  0  0  0  0  0
   10.0464  -16.6768   19.6481 C   0  0  1  0  0  0  0  0  0  0  0  0
    9.7868  -17.3723   18.4713 O   0  0  0  0  0  0  0  0  0  0  0  0
    9.4493  -17.3833   20.8498 C   0  0  2  0  0  0  0  0  0  0  0  0
    8.0623  -17.6460   20.5303 N   0  0  0  0  0  0  0  0  0  0  0  0
    9.4865  -16.4968   22.0327 C   0  0  0  0  0  0  0  0  0  0  0  0
   10.5714  -16.3313   22.6356 O   0  0  0  0  0  0  0  0  0  0  0  0
    8.3548  -15.8119   22.5354 N   0  0  0  0  0  0  0  0  0  0  0  0
    8.3431  -15.0179   23.7427 C   0  0  1  0  0  0  0  0  0  0  0  0
    7.1731  -14.0692   23.6782 C   0  0  0  0  0  0  0  0  0  0  0  0
    6.9969  -13.2626   24.8860 C   0  0  0  0  0  0  0  0  0  0  0  0
    7.8256  -12.2042   25.1673 C   0  0  0  0  0  0  0  0  0  0  0  0
    7.6690  -11.4288   26.3123 C   0  0  0  0  0  0  0  0  0  0  0  0
    6.6620  -11.7101   27.2051 C   0  0  0  0  0  0  0  0  0  0  0  0
    5.8257  -12.7668   26.9351 C   0  0  0  0  0  0  0  0  0  0  0  0
    5.9962  -13.5251   25.7939 C   0  0  0  0  0  0  0  0  0  0  0  0
    8.3348  -15.8533   24.9634 C   0  0  0  0  0  0  0  0  0  0  0  0
    7.4314  -16.7108   25.0846 O   0  0  0  0  0  0  0  0  0  0  0  0
    9.8235  -20.7319   25.4903 N   0  0  0  0  0  0  0  0  0  0  0  0
   10.9183  -19.8448   25.4304 C   0  0  0  0  0  0  0  0  0  0  0  0
   11.9959  -20.2417   24.9140 O   0  0  0  0  0  0  0  0  0  0  0  0
   10.8190  -18.4858   25.9471 C   0  0  0  0  0  0  0  0  0  0  0  0
    9.5167  -18.0893   26.5516 C   0  0  0  0  0  0  0  0  0  0  0  0
    9.3809  -16.7238   27.1014 C   0  0  2  0  0  0  0  0  0  0  0  0
    9.2886  -15.7384   26.0002 N   0  0  0  0  0  0  0  0  0  0  0  0
   10.3313  -16.2340   28.0802 C   0  0  0  0  0  0  0  0  0  0  0  0
   10.6224  -16.8904   29.1466 O   0  0  0  0  0  0  0  0  0  0  0  0
   11.0227  -15.0269   27.9670 O   0  0  0  0  0  0  0  0  0  0  0  0
  2  1  1  1
  2  3  1  0
  4  2  1  0
  4  5  1  6
  6  7  2  0
  6  4  1  0
  8  6  1  0
  9  8  1  0
  9 10  1  6
 10 11  1  0
 11 16  2  0
 11 12  1  0
 12 13  2  0
 13 14  1  0
 15 14  2  0
 16 15  1  0
 17 18  2  0
 17  9  1  0
 20 19  1  0
 21 20  2  0
 22 20  1  0
 24 23  1  6
 23 22  1  0
 24 25  1  0
 25 17  1  0
 26 24  1  0
 27 26  2  0
 28 26  1  0
M  END
$$$$
