TFQ.pdb
     RDKit          3D

 28 28  0  0  1  0  0  0  0  0999 V2000
    6.7618  -14.7650   18.1725 C   0  0  0  0  0  0  0  0  0  0  0  0
    7.5679  -14.9664   19.4332 C   0  0  1  0  0  0  0  0  0  0  0  0
    8.9176  -15.1359   19.1408 O   0  0  0  0  0  0  0  0  0  0  0  0
    7.3460  -13.7742   20.3437 C   0  0  2  0  0  0  0  0  0  0  0  0
    7.8834  -12.6200   19.6552 N   0  0  0  0  0  0  0  0  0  0  0  0
    8.1004  -13.9477   21.6036 C   0  0  0  0  0  0  0  0  0  0  0  0
    9.2727  -13.5137   21.6761 O   0  0  0  0  0  0  0  0  0  0  0  0
    7.5729  -14.5839   22.7523 N   0  0  0  0  0  0  0  0  0  0  0  0
    8.2822  -14.7481   24.0005 C   0  0  1  0  0  0  0  0  0  0  0  0
    7.2707  -14.9324   25.1032 C   0  0  0  0  0  0  0  0  0  0  0  0
    6.8716  -13.6853   25.7559 C   0  0  0  0  0  0  0  0  0  0  0  0
    5.5566  -13.4203   26.0501 C   0  0  0  0  0  0  0  0  0  0  0  0
    5.1634  -12.2383   26.6707 C   0  0  0  0  0  0  0  0  0  0  0  0
    6.1003  -11.2910   27.0098 C   0  0  0  0  0  0  0  0  0  0  0  0
    7.4198  -11.5442   26.7208 C   0  0  0  0  0  0  0  0  0  0  0  0
    7.7914  -12.7226   26.1046 C   0  0  0  0  0  0  0  0  0  0  0  0
    9.2716  -15.8463   23.9431 C   0  0  0  0  0  0  0  0  0  0  0  0
    8.8873  -16.9650   23.5346 O   0  0  0  0  0  0  0  0  0  0  0  0
   16.4667  -17.6632   23.3246 N   0  0  0  0  0  0  0  0  0  0  0  0
   15.3430  -16.8159   23.4176 C   0  0  0  0  0  0  0  0  0  0  0  0
   15.4866  -15.5866   23.1863 O   0  0  0  0  0  0  0  0  0  0  0  0
   14.0288  -17.3394   23.7681 C   0  0  0  0  0  0  0  0  0  0  0  0
   12.9118  -16.3571   23.8441 C   0  0  0  0  0  0  0  0  0  0  0  0
   11.5814  -16.8340   24.2779 C   0  0  2  0  0  0  0  0  0  0  0  0
   10.6255  -15.7042   24.3233 N   0  0  0  0  0  0  0  0  0  0  0  0
   11.4450  -17.6030   25.4990 C   0  0  0  0  0  0  0  0  0  0  0  0
   10.9886  -17.0929   26.5873 O   0  0  0  0  0  0  0  0  0  0  0  0
   11.7800  -18.9527   25.6181 O   0  0  0  0  0  0  0  0  0  0  0  0
  2  1  1  6
  2  3  1  0
  4  2  1  0
  4  5  1  6
  6  7  2  0
  6  4  1  0
  8  6  1  0
  9  8  1  0
  9 10  1  1
 10 11  1  0
 11 16  2  0
 11 12  1  0
 12 13  2  0
 13 14  1  0
 15 14  2  0
 16 15  1  0
 17 18  2  0
 17  9  1  0
 20 19  1  0
 21 20  2  0
 22 20  1  0
 24 23  1  1
 23 22  1  0
 24 25  1  0
 25 17  1  0
 26 24  1  0
 27 26  2  0
 28 26  1  0
M  END
$$$$
