PEL.pdb
     RDKit          3D

 25 25  0  0  1  0  0  0  0  0999 V2000
   20.6813  -12.9282  -19.1122 N   0  0  0  0  0  0  0  0  0  0  0  0
   21.0169  -14.1646  -19.8095 C   0  0  0  0  0  0  0  0  0  0  0  0
   22.2439  -13.8770  -20.6123 C   0  0  0  0  0  0  0  0  0  0  0  0
   22.6930  -12.5211  -20.1100 C   0  0  0  0  0  0  0  0  0  0  0  0
   21.9512  -12.3169  -18.8044 C   0  0  1  0  0  0  0  0  0  0  0  0
   21.8222  -10.9061  -18.4261 C   0  0  0  0  0  0  0  0  0  0  0  0
   22.8261  -10.2434  -18.0634 O   0  0  0  0  0  0  0  0  0  0  0  0
   20.5730  -10.2476  -18.4579 N   0  0  0  0  0  0  0  0  0  0  0  0
   20.3507   -8.8490  -18.1847 C   0  0  1  0  0  0  0  0  0  0  0  0
   19.0930   -8.4057  -18.8428 C   0  0  0  0  0  0  0  0  0  0  0  0
   19.1003   -8.1494  -20.2961 C   0  0  0  0  0  0  0  0  0  0  0  0
   17.7633   -8.0435  -20.8877 C   0  0  0  0  0  0  0  0  0  0  0  0
   17.0765   -6.9987  -20.8014 O   0  0  0  0  0  0  0  0  0  0  0  0
   20.2196   -8.5944  -16.6994 C   0  0  0  0  0  0  0  0  0  0  0  0
   19.6277   -9.4874  -16.0227 O   0  0  0  0  0  0  0  0  0  0  0  0
   17.1758   -9.1165  -21.5840 O   0  0  0  0  0  0  0  0  0  0  0  0
   23.1231   -9.5947  -12.2296 C   0  0  0  0  0  0  0  0  0  0  0  0
   22.1068   -8.5614  -12.6219 C   0  0  2  0  0  0  0  0  0  0  0  0
   20.8124   -8.9377  -11.8741 C   0  0  0  0  0  0  0  0  0  0  0  0
   21.7647   -8.5377  -14.0576 C   0  0  0  0  0  0  0  0  0  0  0  0
   20.9722   -7.4372  -14.6188 C   0  0  2  0  0  0  0  0  0  0  0  0
   20.6940   -7.4643  -16.0291 N   0  0  0  0  0  0  0  0  0  0  0  0
   21.3864   -6.0824  -14.1550 C   0  0  0  0  0  0  0  0  0  0  0  0
   22.4729   -5.4401  -14.7707 O   0  0  0  0  0  0  0  0  0  0  0  0
   20.8302   -5.4462  -13.2325 O   0  0  0  0  0  0  0  0  0  0  0  0
  1  2  1  0
  3  2  1  0
  4  3  1  0
  5  4  1  0
  5  1  1  0
  6  7  2  0
  5  6  1  6
  8  6  1  0
  9  8  1  0
  9 10  1  6
 11 10  1  0
 12 11  1  0
 13 12  2  0
 14  9  1  0
 14 22  1  0
 15 14  2  0
 16 12  1  0
 18 17  1  6
 19 18  1  0
 20 18  1  0
 21 20  1  6
 21 22  1  0
 21 23  1  0
 23 24  1  0
 25 23  2  0
M  END
$$$$
