PEL.pdb
     RDKit          3D

 25 25  0  0  1  0  0  0  0  0999 V2000
   27.9015  -18.1813  -17.9152 N   0  0  0  0  0  0  0  0  0  0  0  0
   29.0459  -18.8982  -18.4665 C   0  0  0  0  0  0  0  0  0  0  0  0
   29.1963  -20.1428  -17.6534 C   0  0  0  0  0  0  0  0  0  0  0  0
   27.9318  -20.1842  -16.8216 C   0  0  0  0  0  0  0  0  0  0  0  0
   26.9837  -19.2114  -17.4936 C   0  0  1  0  0  0  0  0  0  0  0  0
   25.9405  -18.7057  -16.5957 C   0  0  0  0  0  0  0  0  0  0  0  0
   26.2052  -17.8370  -15.7276 O   0  0  0  0  0  0  0  0  0  0  0  0
   24.6103  -19.1739  -16.6768 N   0  0  0  0  0  0  0  0  0  0  0  0
   23.5363  -18.8191  -15.7820 C   0  0  1  0  0  0  0  0  0  0  0  0
   22.2745  -18.6643  -16.5534 C   0  0  0  0  0  0  0  0  0  0  0  0
   21.0498  -18.2493  -15.8422 C   0  0  0  0  0  0  0  0  0  0  0  0
   19.8507  -18.2300  -16.6850 C   0  0  0  0  0  0  0  0  0  0  0  0
   19.1840  -19.2649  -16.9202 O   0  0  0  0  0  0  0  0  0  0  0  0
   23.3192  -19.8886  -14.7344 C   0  0  0  0  0  0  0  0  0  0  0  0
   23.4355  -21.0899  -15.1202 O   0  0  0  0  0  0  0  0  0  0  0  0
   19.3847  -17.0430  -17.2809 O   0  0  0  0  0  0  0  0  0  0  0  0
   25.9819  -21.3873  -11.5695 C   0  0  0  0  0  0  0  0  0  0  0  0
   25.1141  -20.2252  -11.1811 C   0  0  2  0  0  0  0  0  0  0  0  0
   25.5110  -19.8671   -9.7352 C   0  0  0  0  0  0  0  0  0  0  0  0
   23.6660  -20.5102  -11.1554 C   0  0  0  0  0  0  0  0  0  0  0  0
   22.9183  -20.6933  -12.4050 C   0  0  2  0  0  0  0  0  0  0  0  0
   23.0031  -19.6534  -13.3941 N   0  0  0  0  0  0  0  0  0  0  0  0
   21.5209  -21.1785  -12.2200 C   0  0  0  0  0  0  0  0  0  0  0  0
   20.4577  -20.4720  -12.8053 O   0  0  0  0  0  0  0  0  0  0  0  0
   21.2027  -22.1961  -11.5655 O   0  0  0  0  0  0  0  0  0  0  0  0
  1  2  1  0
  3  2  1  0
  4  3  1  0
  5  4  1  0
  5  1  1  0
  6  7  2  0
  5  6  1  1
  8  6  1  0
  9  8  1  0
  9 10  1  6
 11 10  1  0
 12 11  1  0
 13 12  2  0
 14  9  1  0
 14 22  1  0
 15 14  2  0
 16 12  1  0
 18 17  1  1
 19 18  1  0
 20 18  1  0
 21 20  1  1
 21 22  1  0
 21 23  1  0
 23 24  1  0
 25 23  2  0
M  END
$$$$
