PEL.pdb
     RDKit          3D

 25 25  0  0  1  0  0  0  0  0999 V2000
   29.8503  -21.9806  -12.1483 N   0  0  0  0  0  0  0  0  0  0  0  0
   31.0711  -22.3247  -11.4281 C   0  0  0  0  0  0  0  0  0  0  0  0
   31.2935  -21.2357  -10.4294 C   0  0  0  0  0  0  0  0  0  0  0  0
   30.0057  -20.4404  -10.4714 C   0  0  0  0  0  0  0  0  0  0  0  0
   29.0063  -21.3416  -11.1683 C   0  0  1  0  0  0  0  0  0  0  0  0
   27.8905  -20.6089  -11.7752 C   0  0  0  0  0  0  0  0  0  0  0  0
   27.1533  -19.8678  -11.0782 O   0  0  0  0  0  0  0  0  0  0  0  0
   27.6092  -20.7094  -13.1557 N   0  0  0  0  0  0  0  0  0  0  0  0
   26.5548  -20.0152  -13.8533 C   0  0  1  0  0  0  0  0  0  0  0  0
   26.9947  -19.7028  -15.2390 C   0  0  0  0  0  0  0  0  0  0  0  0
   27.9753  -18.6201  -15.4492 C   0  0  0  0  0  0  0  0  0  0  0  0
   28.3583  -18.4290  -16.8512 C   0  0  0  0  0  0  0  0  0  0  0  0
   27.9976  -19.2190  -17.7548 O   0  0  0  0  0  0  0  0  0  0  0  0
   25.3030  -20.8604  -13.9362 C   0  0  0  0  0  0  0  0  0  0  0  0
   25.4678  -22.1168  -13.9335 O   0  0  0  0  0  0  0  0  0  0  0  0
   29.1586  -17.3449  -17.2579 O   0  0  0  0  0  0  0  0  0  0  0  0
   22.2084  -21.4110  -10.0907 C   0  0  0  0  0  0  0  0  0  0  0  0
   22.6499  -20.0166  -10.4303 C   0  0  2  0  0  0  0  0  0  0  0  0
   21.3631  -19.2363  -10.7638 C   0  0  0  0  0  0  0  0  0  0  0  0
   23.5193  -19.9105  -11.6185 C   0  0  0  0  0  0  0  0  0  0  0  0
   23.0663  -20.4085  -12.9227 C   0  0  2  0  0  0  0  0  0  0  0  0
   23.9989  -20.3659  -14.0160 N   0  0  0  0  0  0  0  0  0  0  0  0
   21.7102  -19.9368  -13.3238 C   0  0  0  0  0  0  0  0  0  0  0  0
   20.5850  -20.7204  -13.0207 O   0  0  0  0  0  0  0  0  0  0  0  0
   21.4803  -18.8657  -13.9280 O   0  0  0  0  0  0  0  0  0  0  0  0
  1  2  1  0
  3  2  1  0
  4  3  1  0
  5  4  1  0
  5  1  1  0
  6  7  2  0
  5  6  1  6
  8  6  1  0
  9  8  1  0
  9 10  1  6
 11 10  1  0
 12 11  1  0
 13 12  2  0
 14  9  1  0
 14 22  1  0
 15 14  2  0
 16 12  1  0
 18 17  1  6
 19 18  1  0
 20 18  1  0
 21 20  1  1
 21 22  1  0
 21 23  1  0
 23 24  1  0
 25 23  2  0
M  END
$$$$
