PEL.pdb
     RDKit          3D

 25 25  0  0  1  0  0  0  0  0999 V2000
   18.2603  -14.2436  -18.3798 N   0  0  0  0  0  0  0  0  0  0  0  0
   17.5586  -15.3558  -19.0107 C   0  0  0  0  0  0  0  0  0  0  0  0
   17.3925  -14.9886  -20.4496 C   0  0  0  0  0  0  0  0  0  0  0  0
   18.2619  -13.7595  -20.6100 C   0  0  0  0  0  0  0  0  0  0  0  0
   19.1626  -13.7496  -19.3913 C   0  0  1  0  0  0  0  0  0  0  0  0
   19.6936  -12.4201  -19.0743 C   0  0  0  0  0  0  0  0  0  0  0  0
   20.8715  -12.1085  -19.3808 O   0  0  0  0  0  0  0  0  0  0  0  0
   18.9034  -11.4499  -18.4190 N   0  0  0  0  0  0  0  0  0  0  0  0
   19.2939  -10.0881  -18.1486 C   0  0  1  0  0  0  0  0  0  0  0  0
   18.0842   -9.2661  -17.8794 C   0  0  0  0  0  0  0  0  0  0  0  0
   17.4667   -8.5196  -18.9927 C   0  0  0  0  0  0  0  0  0  0  0  0
   16.2585   -7.7805  -18.6148 C   0  0  0  0  0  0  0  0  0  0  0  0
   15.7877   -7.8207  -17.4540 O   0  0  0  0  0  0  0  0  0  0  0  0
   20.1972  -10.0065  -16.9381 C   0  0  0  0  0  0  0  0  0  0  0  0
   19.9552  -10.8189  -15.9962 O   0  0  0  0  0  0  0  0  0  0  0  0
   15.5576   -6.9860  -19.5414 O   0  0  0  0  0  0  0  0  0  0  0  0
   25.6559  -10.4594  -14.8711 C   0  0  0  0  0  0  0  0  0  0  0  0
   24.2839   -9.9410  -14.5499 C   0  0  2  0  0  0  0  0  0  0  0  0
   23.6926  -10.9230  -13.5192 C   0  0  0  0  0  0  0  0  0  0  0  0
   23.3442   -9.9183  -15.6880 C   0  0  0  0  0  0  0  0  0  0  0  0
   22.1253   -9.1024  -15.6344 C   0  0  2  0  0  0  0  0  0  0  0  0
   21.2610   -9.1144  -16.7832 N   0  0  0  0  0  0  0  0  0  0  0  0
   22.3300   -7.7255  -15.1011 C   0  0  0  0  0  0  0  0  0  0  0  0
   22.5812   -7.5418  -13.7317 O   0  0  0  0  0  0  0  0  0  0  0  0
   22.2962   -6.6833  -15.7924 O   0  0  0  0  0  0  0  0  0  0  0  0
  1  2  1  0
  3  2  1  0
  4  3  1  0
  5  4  1  0
  5  1  1  0
  6  7  2  0
  5  6  1  1
  8  6  1  0
  9  8  1  0
  9 10  1  1
 11 10  1  0
 12 11  1  0
 13 12  2  0
 14  9  1  0
 14 22  1  0
 15 14  2  0
 16 12  1  0
 18 17  1  6
 19 18  1  0
 20 18  1  0
 21 20  1  6
 21 22  1  0
 21 23  1  0
 23 24  1  0
 25 23  2  0
M  END
$$$$
