PEL.pdb
     RDKit          3D

 25 25  0  0  1  0  0  0  0  0999 V2000
   19.3283  -10.5502  -15.5794 N   0  0  0  0  0  0  0  0  0  0  0  0
   19.5017  -11.9413  -15.1765 C   0  0  0  0  0  0  0  0  0  0  0  0
   18.3274  -12.6880  -15.7207 C   0  0  0  0  0  0  0  0  0  0  0  0
   17.6638  -11.6902  -16.6462 C   0  0  0  0  0  0  0  0  0  0  0  0
   18.7041  -10.6129  -16.8785 C   0  0  1  0  0  0  0  0  0  0  0  0
   18.1268   -9.3295  -17.2905 C   0  0  0  0  0  0  0  0  0  0  0  0
   17.5312   -9.2163  -18.3909 O   0  0  0  0  0  0  0  0  0  0  0  0
   18.2185   -8.1844  -16.4687 N   0  0  0  0  0  0  0  0  0  0  0  0
   17.6548   -6.8896  -16.7621 C   0  0  1  0  0  0  0  0  0  0  0  0
   16.8569   -6.4177  -15.5993 C   0  0  0  0  0  0  0  0  0  0  0  0
   16.1723   -5.1132  -15.6862 C   0  0  0  0  0  0  0  0  0  0  0  0
   15.4414   -4.7433  -14.4705 C   0  0  0  0  0  0  0  0  0  0  0  0
   15.9647   -4.0598  -13.5596 O   0  0  0  0  0  0  0  0  0  0  0  0
   18.7375   -5.8691  -17.0351 C   0  0  0  0  0  0  0  0  0  0  0  0
   19.6769   -5.8008  -16.1875 O   0  0  0  0  0  0  0  0  0  0  0  0
   14.1081   -5.1418  -14.2593 O   0  0  0  0  0  0  0  0  0  0  0  0
   21.0738   -1.9397  -21.3375 C   0  0  0  0  0  0  0  0  0  0  0  0
   21.0892   -2.5376  -19.9603 C   0  0  2  0  0  0  0  0  0  0  0  0
   22.3772   -3.3808  -19.8810 C   0  0  0  0  0  0  0  0  0  0  0  0
   19.9723   -3.4575  -19.6680 C   0  0  0  0  0  0  0  0  0  0  0  0
   19.7855   -4.0003  -18.3172 C   0  0  2  0  0  0  0  0  0  0  0  0
   18.7768   -5.0084  -18.1348 N   0  0  0  0  0  0  0  0  0  0  0  0
   19.7500   -2.9703  -17.2401 C   0  0  0  0  0  0  0  0  0  0  0  0
   20.9083   -2.2327  -16.9467 O   0  0  0  0  0  0  0  0  0  0  0  0
   18.7421   -2.6970  -16.5512 O   0  0  0  0  0  0  0  0  0  0  0  0
  1  2  1  0
  3  2  1  0
  4  3  1  0
  5  4  1  0
  5  1  1  0
  6  7  2  0
  5  6  1  1
  8  6  1  0
  9  8  1  0
  9 10  1  1
 11 10  1  0
 12 11  1  0
 13 12  2  0
 14  9  1  0
 14 22  1  0
 15 14  2  0
 16 12  1  0
 18 17  1  6
 19 18  1  0
 20 18  1  0
 21 20  1  6
 21 22  1  0
 21 23  1  0
 23 24  1  0
 25 23  2  0
M  END
$$$$
