PEL.pdb
     RDKit          3D

 25 25  0  0  1  0  0  0  0  0999 V2000
   27.6594  -19.7586  -16.0140 N   0  0  0  0  0  0  0  0  0  0  0  0
   28.7468  -20.3878  -16.7551 C   0  0  0  0  0  0  0  0  0  0  0  0
   29.6401  -21.0207  -15.7381 C   0  0  0  0  0  0  0  0  0  0  0  0
   28.8458  -20.9261  -14.4526 C   0  0  0  0  0  0  0  0  0  0  0  0
   27.4247  -20.6272  -14.8863 C   0  0  1  0  0  0  0  0  0  0  0  0
   26.6217  -19.9886  -13.8387 C   0  0  0  0  0  0  0  0  0  0  0  0
   26.5604  -18.7369  -13.7490 O   0  0  0  0  0  0  0  0  0  0  0  0
   25.8930  -20.7540  -12.9016 N   0  0  0  0  0  0  0  0  0  0  0  0
   25.0392  -20.2272  -11.8654 C   0  0  1  0  0  0  0  0  0  0  0  0
   23.6218  -20.5574  -12.1708 C   0  0  0  0  0  0  0  0  0  0  0  0
   22.5645  -20.0709  -11.2634 C   0  0  0  0  0  0  0  0  0  0  0  0
   21.2152  -20.5070  -11.6351 C   0  0  0  0  0  0  0  0  0  0  0  0
   20.1869  -19.9905  -11.1385 O   0  0  0  0  0  0  0  0  0  0  0  0
   25.3811  -20.8225  -10.5175 C   0  0  0  0  0  0  0  0  0  0  0  0
   25.4595  -22.0859  -10.4608 O   0  0  0  0  0  0  0  0  0  0  0  0
   21.0024  -21.5365  -12.5709 O   0  0  0  0  0  0  0  0  0  0  0  0
   28.9728  -20.4558   -7.3380 C   0  0  0  0  0  0  0  0  0  0  0  0
   27.8768  -19.4295   -7.3427 C   0  0  2  0  0  0  0  0  0  0  0  0
   28.2199  -18.4408   -6.2109 C   0  0  0  0  0  0  0  0  0  0  0  0
   26.5305  -19.9544   -7.0413 C   0  0  0  0  0  0  0  0  0  0  0  0
   25.7751  -20.7002   -8.0549 C   0  0  2  0  0  0  0  0  0  0  0  0
   25.6116  -20.0937   -9.3482 N   0  0  0  0  0  0  0  0  0  0  0  0
   24.5077  -21.3055   -7.5554 C   0  0  0  0  0  0  0  0  0  0  0  0
   24.5583  -22.3229   -6.5887 O   0  0  0  0  0  0  0  0  0  0  0  0
   23.3632  -20.9738   -7.9363 O   0  0  0  0  0  0  0  0  0  0  0  0
  1  2  1  0
  3  2  1  0
  4  3  1  0
  5  4  1  0
  5  1  1  0
  6  7  2  0
  5  6  1  1
  8  6  1  0
  9  8  1  0
  9 10  1  6
 11 10  1  0
 12 11  1  0
 13 12  2  0
 14  9  1  0
 14 22  1  0
 15 14  2  0
 16 12  1  0
 18 17  1  1
 19 18  1  0
 20 18  1  0
 21 20  1  1
 21 22  1  0
 21 23  1  0
 23 24  1  0
 25 23  2  0
M  END
$$$$
