PEL.pdb
     RDKit          3D

 25 25  0  0  1  0  0  0  0  0999 V2000
   19.4106  -11.6025  -18.6165 N   0  0  0  0  0  0  0  0  0  0  0  0
   18.5258  -12.5722  -19.2525 C   0  0  0  0  0  0  0  0  0  0  0  0
   17.9846  -13.4322  -18.1569 C   0  0  0  0  0  0  0  0  0  0  0  0
   18.4116  -12.7161  -16.8930 C   0  0  0  0  0  0  0  0  0  0  0  0
   18.7999  -11.3211  -17.3401 C   0  0  1  0  0  0  0  0  0  0  0  0
   19.7148  -10.6491  -16.4119 C   0  0  0  0  0  0  0  0  0  0  0  0
   19.3327  -10.3130  -15.2632 O   0  0  0  0  0  0  0  0  0  0  0  0
   21.0489  -10.3599  -16.7747 N   0  0  0  0  0  0  0  0  0  0  0  0
   22.0577   -9.8075  -15.9046 C   0  0  1  0  0  0  0  0  0  0  0  0
   23.3663  -10.4570  -16.1823 C   0  0  0  0  0  0  0  0  0  0  0  0
   24.5483  -10.0427  -15.4017 C   0  0  0  0  0  0  0  0  0  0  0  0
   25.8008  -10.6608  -15.8464 C   0  0  0  0  0  0  0  0  0  0  0  0
   25.8565  -11.4051  -16.8533 O   0  0  0  0  0  0  0  0  0  0  0  0
   22.2153   -8.3191  -16.1231 C   0  0  0  0  0  0  0  0  0  0  0  0
   22.2433   -7.9241  -17.3267 O   0  0  0  0  0  0  0  0  0  0  0  0
   27.0122  -10.4533  -15.1604 O   0  0  0  0  0  0  0  0  0  0  0  0
   19.3066   -3.8156  -16.8258 C   0  0  0  0  0  0  0  0  0  0  0  0
   20.7195   -4.1234  -16.4217 C   0  0  2  0  0  0  0  0  0  0  0  0
   21.5999   -3.7093  -17.6175 C   0  0  0  0  0  0  0  0  0  0  0  0
   20.9999   -5.5514  -16.1749 C   0  0  0  0  0  0  0  0  0  0  0  0
   22.1245   -5.9557  -15.3227 C   0  0  2  0  0  0  0  0  0  0  0  0
   22.3321   -7.3625  -15.1116 N   0  0  0  0  0  0  0  0  0  0  0  0
   22.2503   -5.1746  -14.0593 C   0  0  0  0  0  0  0  0  0  0  0  0
   22.3637   -5.8506  -12.8337 O   0  0  0  0  0  0  0  0  0  0  0  0
   22.2642   -3.9252  -13.9945 O   0  0  0  0  0  0  0  0  0  0  0  0
  1  2  1  0
  3  2  1  0
  4  3  1  0
  5  4  1  0
  5  1  1  0
  6  7  2  0
  5  6  1  1
  8  6  1  0
  9  8  1  0
  9 10  1  6
 11 10  1  0
 12 11  1  0
 13 12  2  0
 14  9  1  0
 14 22  1  0
 15 14  2  0
 16 12  1  0
 18 17  1  6
 19 18  1  0
 20 18  1  0
 21 20  1  1
 21 22  1  0
 21 23  1  0
 23 24  1  0
 25 23  2  0
M  END
$$$$
