PEL.pdb
     RDKit          3D

 25 25  0  0  1  0  0  0  0  0999 V2000
   20.0491  -15.4488  -16.8407 N   0  0  0  0  0  0  0  0  0  0  0  0
   19.8727  -16.8767  -17.0803 C   0  0  0  0  0  0  0  0  0  0  0  0
   19.9930  -17.0753  -18.5564 C   0  0  0  0  0  0  0  0  0  0  0  0
   20.4987  -15.7396  -19.0591 C   0  0  0  0  0  0  0  0  0  0  0  0
   21.0108  -15.0208  -17.8271 C   0  0  1  0  0  0  0  0  0  0  0  0
   21.0511  -13.5632  -17.9818 C   0  0  0  0  0  0  0  0  0  0  0  0
   21.9615  -13.0126  -18.6499 O   0  0  0  0  0  0  0  0  0  0  0  0
   20.0729  -12.7337  -17.3901 N   0  0  0  0  0  0  0  0  0  0  0  0
   20.0165  -11.2959  -17.4879 C   0  0  1  0  0  0  0  0  0  0  0  0
   18.6011  -10.8458  -17.4138 C   0  0  0  0  0  0  0  0  0  0  0  0
   18.2984   -9.4119  -17.5880 C   0  0  0  0  0  0  0  0  0  0  0  0
   16.8678   -9.0961  -17.5380 C   0  0  0  0  0  0  0  0  0  0  0  0
   16.1012   -9.3200  -18.5038 O   0  0  0  0  0  0  0  0  0  0  0  0
   20.7789  -10.6390  -16.3586 C   0  0  0  0  0  0  0  0  0  0  0  0
   20.4750  -11.0037  -15.1838 O   0  0  0  0  0  0  0  0  0  0  0  0
   16.2777   -8.5180  -16.3984 O   0  0  0  0  0  0  0  0  0  0  0  0
   24.4086  -11.2825  -14.1274 C   0  0  0  0  0  0  0  0  0  0  0  0
   24.5866  -10.4723  -15.3790 C   0  0  2  0  0  0  0  0  0  0  0  0
   26.0989  -10.1946  -15.4901 C   0  0  0  0  0  0  0  0  0  0  0  0
   23.9225   -9.1541  -15.3675 C   0  0  0  0  0  0  0  0  0  0  0  0
   22.4587   -9.0546  -15.4086 C   0  0  2  0  0  0  0  0  0  0  0  0
   21.7767   -9.6734  -16.5127 N   0  0  0  0  0  0  0  0  0  0  0  0
   21.9263   -7.6941  -15.1123 C   0  0  0  0  0  0  0  0  0  0  0  0
   21.9136   -7.2270  -13.7880 O   0  0  0  0  0  0  0  0  0  0  0  0
   21.4741   -6.9052  -15.9716 O   0  0  0  0  0  0  0  0  0  0  0  0
  1  2  1  0
  3  2  1  0
  4  3  1  0
  5  4  1  0
  5  1  1  0
  6  7  2  0
  5  6  1  6
  8  6  1  0
  9  8  1  0
  9 10  1  1
 11 10  1  0
 12 11  1  0
 13 12  2  0
 14  9  1  0
 14 22  1  0
 15 14  2  0
 16 12  1  0
 18 17  1  1
 19 18  1  0
 20 18  1  0
 21 20  1  6
 21 22  1  0
 21 23  1  0
 23 24  1  0
 25 23  2  0
M  END
$$$$
