PEL.pdb
     RDKit          3D

 25 25  0  0  1  0  0  0  0  0999 V2000
   16.7709  -10.4045  -15.7339 N   0  0  0  0  0  0  0  0  0  0  0  0
   16.5181  -11.3350  -16.8284 C   0  0  0  0  0  0  0  0  0  0  0  0
   17.1289  -12.6376  -16.4248 C   0  0  0  0  0  0  0  0  0  0  0  0
   17.4844  -12.4322  -14.9674 C   0  0  0  0  0  0  0  0  0  0  0  0
   16.7017  -11.2077  -14.5376 C   0  0  1  0  0  0  0  0  0  0  0  0
   17.2772  -10.5329  -13.3699 C   0  0  0  0  0  0  0  0  0  0  0  0
   17.3329  -11.1113  -12.2560 O   0  0  0  0  0  0  0  0  0  0  0  0
   17.7868   -9.2185  -13.4574 N   0  0  0  0  0  0  0  0  0  0  0  0
   18.3681   -8.4664  -12.3727 C   0  0  1  0  0  0  0  0  0  0  0  0
   19.4583   -7.5999  -12.8942 C   0  0  0  0  0  0  0  0  0  0  0  0
   20.2037   -6.7451  -11.9499 C   0  0  0  0  0  0  0  0  0  0  0  0
   21.2691   -5.9565  -12.5758 C   0  0  0  0  0  0  0  0  0  0  0  0
   21.1550   -4.7253  -12.7808 O   0  0  0  0  0  0  0  0  0  0  0  0
   17.3394   -7.5793  -11.7072 C   0  0  0  0  0  0  0  0  0  0  0  0
   16.6053   -6.8896  -12.4760 O   0  0  0  0  0  0  0  0  0  0  0  0
   22.4808   -6.5440  -12.9853 O   0  0  0  0  0  0  0  0  0  0  0  0
   13.1216   -7.7203  -10.3904 C   0  0  0  0  0  0  0  0  0  0  0  0
   14.1800   -8.3010   -9.4977 C   0  0  2  0  0  0  0  0  0  0  0  0
   13.4280   -8.9485   -8.3180 C   0  0  0  0  0  0  0  0  0  0  0  0
   15.1072   -7.3154   -8.9080 C   0  0  0  0  0  0  0  0  0  0  0  0
   16.1165   -6.6487   -9.7392 C   0  0  2  0  0  0  0  0  0  0  0  0
   17.1430   -7.4646  -10.3288 N   0  0  0  0  0  0  0  0  0  0  0  0
   16.6664   -5.3941   -9.1509 C   0  0  0  0  0  0  0  0  0  0  0  0
   15.7918   -4.3599   -8.7801 O   0  0  0  0  0  0  0  0  0  0  0  0
   17.8821   -5.1757   -8.9522 O   0  0  0  0  0  0  0  0  0  0  0  0
  1  2  1  0
  3  2  1  0
  4  3  1  0
  5  4  1  0
  5  1  1  0
  6  7  2  0
  5  6  1  1
  8  6  1  0
  9  8  1  0
  9 10  1  6
 11 10  1  0
 12 11  1  0
 13 12  2  0
 14  9  1  0
 14 22  1  0
 15 14  2  0
 16 12  1  0
 18 17  1  6
 19 18  1  0
 20 18  1  0
 21 20  1  1
 21 22  1  0
 21 23  1  0
 23 24  1  0
 25 23  2  0
M  END
$$$$
