PEL.pdb
     RDKit          3D

 25 25  0  0  1  0  0  0  0  0999 V2000
   27.7396  -22.3754  -15.9815 N   0  0  0  0  0  0  0  0  0  0  0  0
   28.2379  -22.6550  -17.3235 C   0  0  0  0  0  0  0  0  0  0  0  0
   28.4350  -21.3299  -17.9854 C   0  0  0  0  0  0  0  0  0  0  0  0
   28.2710  -20.3354  -16.8555 C   0  0  0  0  0  0  0  0  0  0  0  0
   28.3971  -21.1537  -15.5862 C   0  0  1  0  0  0  0  0  0  0  0  0
   27.7640  -20.5217  -14.4244 C   0  0  0  0  0  0  0  0  0  0  0  0
   28.1913  -19.4293  -13.9745 O   0  0  0  0  0  0  0  0  0  0  0  0
   26.6579  -21.1149  -13.7765 N   0  0  0  0  0  0  0  0  0  0  0  0
   25.7088  -20.4304  -12.9335 C   0  0  1  0  0  0  0  0  0  0  0  0
   24.3291  -20.6847  -13.4266 C   0  0  0  0  0  0  0  0  0  0  0  0
   23.2002  -19.9902  -12.7775 C   0  0  0  0  0  0  0  0  0  0  0  0
   21.8911  -20.3226  -13.3474 C   0  0  0  0  0  0  0  0  0  0  0  0
   21.7482  -20.6350  -14.5527 O   0  0  0  0  0  0  0  0  0  0  0  0
   25.7945  -20.9167  -11.5037 C   0  0  0  0  0  0  0  0  0  0  0  0
   25.8547  -22.1712  -11.3357 O   0  0  0  0  0  0  0  0  0  0  0  0
   20.7192  -20.3043  -12.5680 O   0  0  0  0  0  0  0  0  0  0  0  0
   28.3428  -20.8604   -6.9747 C   0  0  0  0  0  0  0  0  0  0  0  0
   27.7992  -19.6152   -7.6136 C   0  0  2  0  0  0  0  0  0  0  0  0
   27.9208  -18.5072   -6.5488 C   0  0  0  0  0  0  0  0  0  0  0  0
   26.3722  -19.6780   -7.9859 C   0  0  0  0  0  0  0  0  0  0  0  0
   25.9123  -20.6020   -9.0295 C   0  0  2  0  0  0  0  0  0  0  0  0
   25.8103  -20.0977  -10.3720 N   0  0  0  0  0  0  0  0  0  0  0  0
   24.7271  -21.4211   -8.6468 C   0  0  0  0  0  0  0  0  0  0  0  0
   24.8747  -22.4635   -7.7174 O   0  0  0  0  0  0  0  0  0  0  0  0
   23.5722  -21.2542   -9.0978 O   0  0  0  0  0  0  0  0  0  0  0  0
  1  2  1  0
  3  2  1  0
  4  3  1  0
  5  4  1  0
  5  1  1  0
  6  7  2  0
  5  6  1  1
  8  6  1  0
  9  8  1  0
  9 10  1  6
 11 10  1  0
 12 11  1  0
 13 12  2  0
 14  9  1  0
 14 22  1  0
 15 14  2  0
 16 12  1  0
 18 17  1  1
 19 18  1  0
 20 18  1  0
 21 20  1  1
 21 22  1  0
 21 23  1  0
 23 24  1  0
 25 23  2  0
M  END
$$$$
