PEL.pdb
     RDKit          3D

 25 25  0  0  1  0  0  0  0  0999 V2000
   17.2839  -12.8121  -15.9460 N   0  0  0  0  0  0  0  0  0  0  0  0
   17.1968  -14.2680  -15.9615 C   0  0  0  0  0  0  0  0  0  0  0  0
   18.1577  -14.7374  -17.0052 C   0  0  0  0  0  0  0  0  0  0  0  0
   18.9441  -13.4922  -17.3565 C   0  0  0  0  0  0  0  0  0  0  0  0
   18.6675  -12.5179  -16.2291 C   0  0  1  0  0  0  0  0  0  0  0  0
   18.8814  -11.1177  -16.6081 C   0  0  0  0  0  0  0  0  0  0  0  0
   20.0210  -10.7097  -16.9448 O   0  0  0  0  0  0  0  0  0  0  0  0
   17.8198  -10.1859  -16.6091 N   0  0  0  0  0  0  0  0  0  0  0  0
   17.9256   -8.7888  -16.9511 C   0  0  1  0  0  0  0  0  0  0  0  0
   16.5883   -8.2676  -17.3401 C   0  0  0  0  0  0  0  0  0  0  0  0
   16.1340   -8.4380  -18.7339 C   0  0  0  0  0  0  0  0  0  0  0  0
   14.7853   -7.9225  -18.9868 C   0  0  0  0  0  0  0  0  0  0  0  0
   14.0983   -7.3826  -18.0882 O   0  0  0  0  0  0  0  0  0  0  0  0
   18.4256   -7.9735  -15.7791 C   0  0  0  0  0  0  0  0  0  0  0  0
   18.0682   -8.3614  -14.6270 O   0  0  0  0  0  0  0  0  0  0  0  0
   14.1862   -8.0106  -20.2574 O   0  0  0  0  0  0  0  0  0  0  0  0
   22.8895   -4.5917  -13.5975 C   0  0  0  0  0  0  0  0  0  0  0  0
   21.7486   -5.5129  -13.2749 C   0  0  2  0  0  0  0  0  0  0  0  0
   22.3329   -6.6008  -12.3523 C   0  0  0  0  0  0  0  0  0  0  0  0
   21.1710   -6.2192  -14.4352 C   0  0  0  0  0  0  0  0  0  0  0  0
   19.7357   -6.1261  -14.7278 C   0  0  2  0  0  0  0  0  0  0  0  0
   19.2383   -6.8410  -15.8717 N   0  0  0  0  0  0  0  0  0  0  0  0
   19.1793   -4.7457  -14.6438 C   0  0  0  0  0  0  0  0  0  0  0  0
   18.5532   -4.1803  -15.7665 O   0  0  0  0  0  0  0  0  0  0  0  0
   19.2235   -4.0225  -13.6239 O   0  0  0  0  0  0  0  0  0  0  0  0
  1  2  1  0
  3  2  1  0
  4  3  1  0
  5  4  1  0
  5  1  1  0
  6  7  2  0
  5  6  1  6
  8  6  1  0
  9  8  1  0
  9 10  1  1
 11 10  1  0
 12 11  1  0
 13 12  2  0
 14  9  1  0
 14 22  1  0
 15 14  2  0
 16 12  1  0
 18 17  1  6
 19 18  1  0
 20 18  1  0
 21 20  1  6
 21 22  1  0
 21 23  1  0
 23 24  1  0
 25 23  2  0
M  END
$$$$
