RAC.pdb
     RDKit          3D

 23 22  0  0  1  0  0  0  0  0999 V2000
   22.6729  -21.4369  -11.2127 N   0  0  0  0  0  0  0  0  0  0  0  0
   23.5394  -21.0676  -10.1347 C   0  0  0  0  0  0  0  0  0  0  0  0
   23.0215  -20.6978   -9.0061 N   0  0  0  0  0  0  0  0  0  0  0  0
   24.9470  -21.0986  -10.2778 N   0  0  0  0  0  0  0  0  0  0  0  0
   25.5871  -21.6616  -11.4691 C   0  0  0  0  0  0  0  0  0  0  0  0
   25.8900  -20.5819  -12.4567 C   0  0  0  0  0  0  0  0  0  0  0  0
   26.4822  -21.0641  -13.7388 C   0  0  0  0  0  0  0  0  0  0  0  0
   25.4700  -21.8332  -14.5355 C   0  0  2  0  0  0  0  0  0  0  0  0
   26.1343  -22.8527  -15.3034 N   0  0  0  0  0  0  0  0  0  0  0  0
   24.6290  -20.9484  -15.3802 C   0  0  0  0  0  0  0  0  0  0  0  0
   25.2101  -20.1286  -16.1359 O   0  0  0  0  0  0  0  0  0  0  0  0
   23.6266  -20.5491   -8.1708 C   0  0  0  0  0  0  0  0  0  0  0  0
   21.1694  -20.9798  -16.7434 C   0  0  1  0  0  0  0  0  0  0  0  0
   22.3893  -20.2083  -16.2650 N   0  0  0  0  0  0  0  0  0  0  0  0
   23.2144  -20.9695  -15.3885 C   0  0  0  0  0  0  0  0  0  0  0  0
   21.8965  -18.9469  -15.6670 O   0  0  0  0  0  0  0  0  0  0  0  0
   21.6634  -18.9685  -14.4202 N   0  0  0  0  0  0  0  0  0  0  0  0
   21.6777  -17.7537  -16.3893 C   0  0  2  0  0  0  0  0  0  0  0  0
   21.1708  -16.6014  -15.7077 C   0  0  0  0  0  0  0  0  0  0  0  0
   21.5268  -15.3051  -16.3909 S   0  0  0  0  0  0  0  0  0  0  0  0
   20.9973  -15.4362  -18.1227 C   0  0  0  0  0  0  0  0  0  0  0  0
   19.6946  -16.7053  -15.6097 O   0  0  0  0  0  0  0  0  0  0  0  0
   19.1078  -17.4773  -16.3982 O   0  0  0  0  0  0  0  0  0  0  0  0
  1  2  1  0
  2  3  2  0
  4  2  1  0
  5  4  1  0
  6  5  1  0
  7  6  1  0
  8  9  1  6
  8  7  1  0
  8 10  1  0
 10 11  2  0
 10 14  1  0
 13 12  1  6
 14 13  1  0
 15 13  1  0
 15 17  1  0
 16 15  2  0
 18 17  1  0
 18 21  1  0
 18 19  1  6
 20 19  1  0
 21 23  1  0
 22 21  2  0
M  END
$$$$
