RAC.pdb
     RDKit          3D

 23 22  0  0  1  0  0  0  0  0999 V2000
   25.1138  -19.9572   -8.8958 N   0  0  0  0  0  0  0  0  0  0  0  0
   24.2062  -20.5216   -9.8481 C   0  0  0  0  0  0  0  0  0  0  0  0
   22.9337  -20.3287   -9.6994 N   0  0  0  0  0  0  0  0  0  0  0  0
   24.6711  -21.2840  -10.9460 N   0  0  0  0  0  0  0  0  0  0  0  0
   26.1010  -21.4862  -11.1920 C   0  0  0  0  0  0  0  0  0  0  0  0
   26.4311  -21.1874  -12.6184 C   0  0  0  0  0  0  0  0  0  0  0  0
   25.6284  -21.9568  -13.6137 C   0  0  0  0  0  0  0  0  0  0  0  0
   26.0883  -21.6600  -15.0106 C   0  0  2  0  0  0  0  0  0  0  0  0
   27.3833  -21.0342  -14.9692 N   0  0  0  0  0  0  0  0  0  0  0  0
   25.0975  -20.8569  -15.7703 C   0  0  0  0  0  0  0  0  0  0  0  0
   25.2685  -19.6127  -15.8299 O   0  0  0  0  0  0  0  0  0  0  0  0
   22.2587  -20.6883  -10.4072 C   0  0  0  0  0  0  0  0  0  0  0  0
   22.2703  -21.4864  -18.1960 C   0  0  1  0  0  0  0  0  0  0  0  0
   23.0053  -20.6523  -17.1585 N   0  0  0  0  0  0  0  0  0  0  0  0
   23.9726  -21.4034  -16.4316 C   0  0  0  0  0  0  0  0  0  0  0  0
   21.9758  -20.0247  -16.2994 O   0  0  0  0  0  0  0  0  0  0  0  0
   21.7291  -20.6071  -15.1997 N   0  0  0  0  0  0  0  0  0  0  0  0
   21.2728  -18.8455  -16.6286 C   0  0  1  0  0  0  0  0  0  0  0  0
   20.2934  -18.3329  -15.7190 C   0  0  0  0  0  0  0  0  0  0  0  0
   19.9622  -16.8819  -15.9612 S   0  0  0  0  0  0  0  0  0  0  0  0
   21.3062  -15.8884  -15.2516 C   0  0  0  0  0  0  0  0  0  0  0  0
   19.0528  -19.1369  -15.8374 O   0  0  0  0  0  0  0  0  0  0  0  0
   18.7331  -19.5579  -16.9700 O   0  0  0  0  0  0  0  0  0  0  0  0
  1  2  1  0
  2  3  2  0
  4  2  1  0
  5  4  1  0
  6  5  1  0
  7  6  1  0
  8  9  1  1
  8  7  1  0
  8 10  1  0
 10 11  2  0
 10 14  1  0
 13 12  1  6
 14 13  1  0
 15 13  1  0
 15 17  1  0
 16 15  2  0
 18 17  1  0
 18 21  1  0
 18 19  1  1
 20 19  1  0
 21 23  1  0
 22 21  2  0
M  END
$$$$
