RAC.pdb
     RDKit          3D

 23 22  0  0  1  0  0  0  0  0999 V2000
   25.7894  -22.5935  -11.4293 N   0  0  0  0  0  0  0  0  0  0  0  0
   25.0654  -22.3958  -12.6483 C   0  0  0  0  0  0  0  0  0  0  0  0
   25.1674  -23.2760  -13.5936 N   0  0  0  0  0  0  0  0  0  0  0  0
   24.2426  -21.2605  -12.8401 N   0  0  0  0  0  0  0  0  0  0  0  0
   24.0195  -20.2826  -11.7724 C   0  0  0  0  0  0  0  0  0  0  0  0
   22.7458  -20.5816  -11.0505 C   0  0  0  0  0  0  0  0  0  0  0  0
   21.8096  -19.4245  -10.9419 C   0  0  0  0  0  0  0  0  0  0  0  0
   20.4637  -19.7755  -11.5042 C   0  0  2  0  0  0  0  0  0  0  0  0
   20.0571  -21.0652  -11.0127 N   0  0  0  0  0  0  0  0  0  0  0  0
   20.4372  -19.7025  -12.9867 C   0  0  0  0  0  0  0  0  0  0  0  0
   20.6401  -20.7619  -13.6328 O   0  0  0  0  0  0  0  0  0  0  0  0
   24.6734  -23.1367  -14.5005 C   0  0  0  0  0  0  0  0  0  0  0  0
   19.6177  -17.1024  -15.6379 C   0  0  1  0  0  0  0  0  0  0  0  0
   20.2005  -18.4154  -15.1394 N   0  0  0  0  0  0  0  0  0  0  0  0
   20.1980  -18.5157  -13.7187 C   0  0  0  0  0  0  0  0  0  0  0  0
   21.5474  -18.5466  -15.7395 O   0  0  0  0  0  0  0  0  0  0  0  0
   22.4995  -17.9897  -15.1127 N   0  0  0  0  0  0  0  0  0  0  0  0
   21.8225  -19.2388  -16.9388 C   0  0  1  0  0  0  0  0  0  0  0  0
   23.1686  -19.3025  -17.4218 C   0  0  0  0  0  0  0  0  0  0  0  0
   23.7229  -20.7045  -17.4474 S   0  0  0  0  0  0  0  0  0  0  0  0
   22.5183  -21.7533  -18.3111 C   0  0  0  0  0  0  0  0  0  0  0  0
   23.2199  -18.7385  -18.7925 O   0  0  0  0  0  0  0  0  0  0  0  0
   22.1480  -18.3570  -19.3098 O   0  0  0  0  0  0  0  0  0  0  0  0
  1  2  1  0
  2  3  2  0
  4  2  1  0
  5  4  1  0
  6  5  1  0
  7  6  1  0
  8  9  1  6
  8  7  1  0
  8 10  1  0
 10 11  2  0
 10 14  1  0
 13 12  1  6
 14 13  1  0
 15 13  1  0
 15 17  1  0
 16 15  2  0
 18 17  1  0
 18 21  1  0
 18 19  1  6
 20 19  1  0
 21 23  1  0
 22 21  2  0
M  END
$$$$
