RAC.pdb
     RDKit          3D

 23 22  0  0  1  0  0  0  0  0999 V2000
   19.3639  -21.5214  -11.0516 N   0  0  0  0  0  0  0  0  0  0  0  0
   19.7624  -22.0505  -12.3206 C   0  0  0  0  0  0  0  0  0  0  0  0
   18.8822  -22.1567  -13.2654 N   0  0  0  0  0  0  0  0  0  0  0  0
   21.0957  -22.4586  -12.5622 N   0  0  0  0  0  0  0  0  0  0  0  0
   22.1934  -22.0660  -11.6751 C   0  0  0  0  0  0  0  0  0  0  0  0
   22.5249  -20.6214  -11.8651 C   0  0  0  0  0  0  0  0  0  0  0  0
   23.7058  -20.1494  -11.0843 C   0  0  0  0  0  0  0  0  0  0  0  0
   24.8923  -21.0347  -11.3283 C   0  0  2  0  0  0  0  0  0  0  0  0
   25.4225  -21.4882  -10.0700 N   0  0  0  0  0  0  0  0  0  0  0  0
   25.9222  -20.3756  -12.1700 C   0  0  0  0  0  0  0  0  0  0  0  0
   26.6052  -19.4550  -11.6531 O   0  0  0  0  0  0  0  0  0  0  0  0
   19.1406  -22.5774  -14.1832 C   0  0  0  0  0  0  0  0  0  0  0  0
   27.5962  -20.8948  -15.5156 C   0  0  1  0  0  0  0  0  0  0  0  0
   27.0827  -20.0255  -14.3785 N   0  0  0  0  0  0  0  0  0  0  0  0
   26.1839  -20.7179  -13.5175 C   0  0  0  0  0  0  0  0  0  0  0  0
   26.4977  -18.8117  -14.9919 O   0  0  0  0  0  0  0  0  0  0  0  0
   25.2711  -18.8768  -15.3092 N   0  0  0  0  0  0  0  0  0  0  0  0
   27.2112  -17.6183  -15.2362 C   0  0  1  0  0  0  0  0  0  0  0  0
   26.5336  -16.4999  -15.8188 C   0  0  0  0  0  0  0  0  0  0  0  0
   27.1253  -15.1731  -15.4150 S   0  0  0  0  0  0  0  0  0  0  0  0
   26.1997  -13.8745  -16.2834 C   0  0  0  0  0  0  0  0  0  0  0  0
   26.5808  -16.6193  -17.2963 O   0  0  0  0  0  0  0  0  0  0  0  0
   27.6532  -16.9900  -17.8204 O   0  0  0  0  0  0  0  0  0  0  0  0
  1  2  1  0
  2  3  2  0
  4  2  1  0
  5  4  1  0
  6  5  1  0
  7  6  1  0
  8  9  1  1
  8  7  1  0
  8 10  1  0
 10 11  2  0
 10 14  1  0
 13 12  1  1
 14 13  1  0
 15 13  1  0
 15 17  1  0
 16 15  2  0
 18 17  1  0
 18 21  1  0
 18 19  1  6
 20 19  1  0
 21 23  1  0
 22 21  2  0
M  END
$$$$
