RAC.pdb
     RDKit          3D

 23 22  0  0  1  0  0  0  0  0999 V2000
   21.1534  -28.9736  -11.7218 N   0  0  0  0  0  0  0  0  0  0  0  0
   20.4950  -27.8583  -11.1121 C   0  0  0  0  0  0  0  0  0  0  0  0
   19.9400  -28.0096   -9.9512 N   0  0  0  0  0  0  0  0  0  0  0  0
   20.4391  -26.5970  -11.7514 N   0  0  0  0  0  0  0  0  0  0  0  0
   20.4900  -26.4706  -13.2100 C   0  0  0  0  0  0  0  0  0  0  0  0
   20.4581  -25.0309  -13.6090 C   0  0  0  0  0  0  0  0  0  0  0  0
   19.1174  -24.5379  -14.0408 C   0  0  0  0  0  0  0  0  0  0  0  0
   18.9153  -23.1118  -13.6210 C   0  0  2  0  0  0  0  0  0  0  0  0
   20.0603  -22.3293  -14.0044 N   0  0  0  0  0  0  0  0  0  0  0  0
   18.6075  -22.9897  -12.1739 C   0  0  0  0  0  0  0  0  0  0  0  0
   19.5455  -22.6806  -11.3957 O   0  0  0  0  0  0  0  0  0  0  0  0
   19.3799  -27.2388   -9.5291 C   0  0  0  0  0  0  0  0  0  0  0  0
   15.6708  -22.3460  -10.0169 C   0  0  1  0  0  0  0  0  0  0  0  0
   16.9987  -23.0538  -10.2363 N   0  0  0  0  0  0  0  0  0  0  0  0
   17.3249  -23.1994  -11.6150 C   0  0  0  0  0  0  0  0  0  0  0  0
   16.9297  -24.3395   -9.5056 O   0  0  0  0  0  0  0  0  0  0  0  0
   16.3719  -25.3031  -10.1136 N   0  0  0  0  0  0  0  0  0  0  0  0
   17.4370  -24.5458   -8.2044 C   0  0  1  0  0  0  0  0  0  0  0  0
   17.3293  -25.8410   -7.6042 C   0  0  0  0  0  0  0  0  0  0  0  0
   18.3360  -26.0700   -6.5052 S   0  0  0  0  0  0  0  0  0  0  0  0
   18.9297  -24.4431   -5.9596 C   0  0  0  0  0  0  0  0  0  0  0  0
   15.9638  -26.0073   -7.0497 O   0  0  0  0  0  0  0  0  0  0  0  0
   15.2359  -24.9944   -6.9709 O   0  0  0  0  0  0  0  0  0  0  0  0
  1  2  1  0
  2  3  2  0
  4  2  1  0
  5  4  1  0
  6  5  1  0
  7  6  1  0
  8  9  1  1
  8  7  1  0
  8 10  1  0
 10 11  2  0
 10 14  1  0
 13 12  1  1
 14 13  1  0
 15 13  1  0
 15 17  1  0
 16 15  2  0
 18 17  1  0
 18 21  1  0
 18 19  1  1
 20 19  1  0
 21 23  1  0
 22 21  2  0
M  END
$$$$
