RAC.pdb
     RDKit          3D

 23 22  0  0  1  0  0  0  0  0999 V2000
   26.0760  -20.1927   -9.4704 N   0  0  0  0  0  0  0  0  0  0  0  0
   24.8682  -20.9605   -9.4403 C   0  0  0  0  0  0  0  0  0  0  0  0
   24.2054  -21.0523   -8.3308 N   0  0  0  0  0  0  0  0  0  0  0  0
   24.3856  -21.6192  -10.5961 N   0  0  0  0  0  0  0  0  0  0  0  0
   24.4467  -20.9947  -11.9198 C   0  0  0  0  0  0  0  0  0  0  0  0
   25.8512  -20.6020  -12.2456 C   0  0  0  0  0  0  0  0  0  0  0  0
   26.2697  -20.9049  -13.6457 C   0  0  0  0  0  0  0  0  0  0  0  0
   25.0841  -21.2794  -14.4853 C   0  0  2  0  0  0  0  0  0  0  0  0
   25.3322  -22.5386  -15.1357 N   0  0  0  0  0  0  0  0  0  0  0  0
   24.7159  -20.2103  -15.4472 C   0  0  0  0  0  0  0  0  0  0  0  0
   25.3980  -20.1024  -16.4980 O   0  0  0  0  0  0  0  0  0  0  0  0
   23.3407  -21.6315   -8.2786 C   0  0  0  0  0  0  0  0  0  0  0  0
   21.9777  -17.5844  -15.7807 C   0  0  1  0  0  0  0  0  0  0  0  0
   23.2898  -18.2570  -16.1526 N   0  0  0  0  0  0  0  0  0  0  0  0
   23.6458  -19.3049  -15.2561 C   0  0  0  0  0  0  0  0  0  0  0  0
   24.3109  -17.1895  -16.2503 O   0  0  0  0  0  0  0  0  0  0  0  0
   24.6058  -16.5922  -15.1707 N   0  0  0  0  0  0  0  0  0  0  0  0
   24.9567  -16.8105  -17.4472 C   0  0  1  0  0  0  0  0  0  0  0  0
   26.2011  -16.1059  -17.3827 C   0  0  0  0  0  0  0  0  0  0  0  0
   27.3007  -16.9043  -16.7291 S   0  0  0  0  0  0  0  0  0  0  0  0
   28.8620  -16.0235  -17.0180 C   0  0  0  0  0  0  0  0  0  0  0  0
   26.6230  -15.7385  -18.7563 O   0  0  0  0  0  0  0  0  0  0  0  0
   25.9955  -16.2373  -19.7152 O   0  0  0  0  0  0  0  0  0  0  0  0
  1  2  1  0
  2  3  2  0
  4  2  1  0
  5  4  1  0
  6  5  1  0
  7  6  1  0
  8  9  1  6
  8  7  1  0
  8 10  1  0
 10 11  2  0
 10 14  1  0
 13 12  1  6
 14 13  1  0
 15 13  1  0
 15 17  1  0
 16 15  2  0
 18 17  1  0
 18 21  1  0
 18 19  1  6
 20 19  1  0
 21 23  1  0
 22 21  2  0
M  END
$$$$
