RAC.pdb
     RDKit          3D

 23 22  0  0  1  0  0  0  0  0999 V2000
   22.0436  -26.6233  -14.2149 N   0  0  0  0  0  0  0  0  0  0  0  0
   21.1075  -25.8879  -13.4200 C   0  0  0  0  0  0  0  0  0  0  0  0
   20.0237  -26.4728  -13.0173 N   0  0  0  0  0  0  0  0  0  0  0  0
   21.3424  -24.5379  -13.0665 N   0  0  0  0  0  0  0  0  0  0  0  0
   22.4962  -23.7969  -13.5822 C   0  0  0  0  0  0  0  0  0  0  0  0
   22.2100  -23.2769  -14.9535 C   0  0  0  0  0  0  0  0  0  0  0  0
   22.4970  -21.8239  -15.1368 C   0  0  0  0  0  0  0  0  0  0  0  0
   22.6689  -21.1448  -13.8101 C   0  0  2  0  0  0  0  0  0  0  0  0
   21.3966  -20.6540  -13.3512 N   0  0  0  0  0  0  0  0  0  0  0  0
   23.7024  -20.0799  -13.8531 C   0  0  0  0  0  0  0  0  0  0  0  0
   23.3156  -18.8838  -13.8775 O   0  0  0  0  0  0  0  0  0  0  0  0
   19.3448  -25.9667  -12.4101 C   0  0  0  0  0  0  0  0  0  0  0  0
   27.5033  -19.8891  -13.6989 C   0  0  2  0  0  0  0  0  0  0  0  0
   26.1045  -19.3211  -13.8805 N   0  0  0  0  0  0  0  0  0  0  0  0
   25.0954  -20.3262  -13.8683 C   0  0  0  0  0  0  0  0  0  0  0  0
   26.1223  -18.5156  -15.1225 O   0  0  0  0  0  0  0  0  0  0  0  0
   25.7569  -19.1082  -16.1830 N   0  0  0  0  0  0  0  0  0  0  0  0
   26.5132  -17.1606  -15.1889 C   0  0  1  0  0  0  0  0  0  0  0  0
   26.4289  -16.4642  -16.4368 C   0  0  0  0  0  0  0  0  0  0  0  0
   26.1128  -14.9985  -16.2768 S   0  0  0  0  0  0  0  0  0  0  0  0
   24.5585  -14.8725  -15.3466 C   0  0  0  0  0  0  0  0  0  0  0  0
   27.7167  -16.6038  -17.1589 O   0  0  0  0  0  0  0  0  0  0  0  0
   28.6745  -17.1304  -16.5527 O   0  0  0  0  0  0  0  0  0  0  0  0
  1  2  1  0
  2  3  2  0
  4  2  1  0
  5  4  1  0
  6  5  1  0
  7  6  1  0
  8  9  1  6
  8  7  1  0
  8 10  1  0
 10 11  2  0
 10 14  1  0
 13 12  1  1
 14 13  1  0
 15 13  1  0
 15 17  1  0
 16 15  2  0
 18 17  1  0
 18 21  1  0
 18 19  1  6
 20 19  1  0
 21 23  1  0
 22 21  2  0
M  END
$$$$
