RAC.pdb
     RDKit          3D

 23 22  0  0  1  0  0  0  0  0999 V2000
   21.8935  -20.2975  -17.4096 N   0  0  0  0  0  0  0  0  0  0  0  0
   21.7238  -18.8840  -17.5595 C   0  0  0  0  0  0  0  0  0  0  0  0
   21.3938  -18.4066  -18.7178 N   0  0  0  0  0  0  0  0  0  0  0  0
   21.9091  -18.0007  -16.4695 N   0  0  0  0  0  0  0  0  0  0  0  0
   21.9339  -18.4806  -15.0856 C   0  0  0  0  0  0  0  0  0  0  0  0
   20.5542  -18.8317  -14.6317 C   0  0  0  0  0  0  0  0  0  0  0  0
   20.4787  -20.0384  -13.7569 C   0  0  0  0  0  0  0  0  0  0  0  0
   21.8075  -20.3151  -13.1177 C   0  0  2  0  0  0  0  0  0  0  0  0
   22.7007  -20.8869  -14.0901 N   0  0  0  0  0  0  0  0  0  0  0  0
   21.6822  -21.1580  -11.9021 C   0  0  0  0  0  0  0  0  0  0  0  0
   21.5562  -22.3995  -12.0561 O   0  0  0  0  0  0  0  0  0  0  0  0
   21.3024  -17.3781  -18.8586 C   0  0  0  0  0  0  0  0  0  0  0  0
   21.9349  -20.6516   -8.1395 C   0  0  1  0  0  0  0  0  0  0  0  0
   21.6290  -21.4455   -9.3999 N   0  0  0  0  0  0  0  0  0  0  0  0
   21.6956  -20.6523  -10.5809 C   0  0  0  0  0  0  0  0  0  0  0  0
   20.3133  -22.0926   -9.1951 O   0  0  0  0  0  0  0  0  0  0  0  0
   19.4044  -21.7960  -10.0289 N   0  0  0  0  0  0  0  0  0  0  0  0
   20.0232  -22.9972   -8.1508 C   0  0  1  0  0  0  0  0  0  0  0  0
   18.7071  -23.5502   -8.0440 C   0  0  0  0  0  0  0  0  0  0  0  0
   18.3176  -24.3866   -9.2367 S   0  0  0  0  0  0  0  0  0  0  0  0
   17.7973  -26.0125   -8.6180 C   0  0  0  0  0  0  0  0  0  0  0  0
   18.6296  -24.3871   -6.8221 O   0  0  0  0  0  0  0  0  0  0  0  0
   19.6951  -24.6535   -6.2256 O   0  0  0  0  0  0  0  0  0  0  0  0
  1  2  1  0
  2  3  2  0
  4  2  1  0
  5  4  1  0
  6  5  1  0
  7  6  1  0
  8  9  1  6
  8  7  1  0
  8 10  1  0
 10 11  2  0
 10 14  1  0
 13 12  1  6
 14 13  1  0
 15 13  1  0
 15 17  1  0
 16 15  2  0
 18 17  1  0
 18 21  1  0
 18 19  1  1
 20 19  1  0
 21 23  1  0
 22 21  2  0
M  END
$$$$
