RAC.pdb
     RDKit          3D

 23 22  0  0  1  0  0  0  0  0999 V2000
   18.7630  -19.9726  -12.6296 N   0  0  0  0  0  0  0  0  0  0  0  0
   19.1079  -18.5925  -12.7892 C   0  0  0  0  0  0  0  0  0  0  0  0
   19.1401  -17.8246  -11.7461 N   0  0  0  0  0  0  0  0  0  0  0  0
   19.4134  -18.0523  -14.0610 N   0  0  0  0  0  0  0  0  0  0  0  0
   19.4674  -18.8913  -15.2607 C   0  0  0  0  0  0  0  0  0  0  0  0
   20.8028  -18.7711  -15.9202 C   0  0  0  0  0  0  0  0  0  0  0  0
   21.3940  -20.0682  -16.3619 C   0  0  0  0  0  0  0  0  0  0  0  0
   22.7863  -19.8673  -16.8834 C   0  0  2  0  0  0  0  0  0  0  0  0
   22.9187  -20.5089  -18.1644 N   0  0  0  0  0  0  0  0  0  0  0  0
   23.8193  -20.3177  -15.9171 C   0  0  0  0  0  0  0  0  0  0  0  0
   23.7414  -21.4926  -15.4759 O   0  0  0  0  0  0  0  0  0  0  0  0
   19.3387  -16.8064  -11.8457 C   0  0  0  0  0  0  0  0  0  0  0  0
   27.0871  -19.0113  -14.4984 C   0  0  1  0  0  0  0  0  0  0  0  0
   25.8512  -19.8970  -14.4884 N   0  0  0  0  0  0  0  0  0  0  0  0
   24.8863  -19.5083  -15.4612 C   0  0  0  0  0  0  0  0  0  0  0  0
   25.3287  -19.8952  -13.1032 O   0  0  0  0  0  0  0  0  0  0  0  0
   24.5015  -18.9776  -12.8149 N   0  0  0  0  0  0  0  0  0  0  0  0
   25.6912  -20.8337  -12.1127 C   0  0  1  0  0  0  0  0  0  0  0  0
   25.2500  -20.6400  -10.7647 C   0  0  0  0  0  0  0  0  0  0  0  0
   24.5160  -21.8322  -10.2048 S   0  0  0  0  0  0  0  0  0  0  0  0
   24.0275  -21.4245   -8.5041 C   0  0  0  0  0  0  0  0  0  0  0  0
   26.4242  -20.3499   -9.9063 O   0  0  0  0  0  0  0  0  0  0  0  0
   27.5351  -20.7990  -10.2616 O   0  0  0  0  0  0  0  0  0  0  0  0
  1  2  1  0
  2  3  2  0
  4  2  1  0
  5  4  1  0
  6  5  1  0
  7  6  1  0
  8  9  1  6
  8  7  1  0
  8 10  1  0
 10 11  2  0
 10 14  1  0
 13 12  1  6
 14 13  1  0
 15 13  1  0
 15 17  1  0
 16 15  2  0
 18 17  1  0
 18 21  1  0
 18 19  1  1
 20 19  1  0
 21 23  1  0
 22 21  2  0
M  END
$$$$
