RAC.pdb
     RDKit          3D

 23 22  0  0  1  0  0  0  0  0999 V2000
   26.0732  -19.6263   -9.3008 N   0  0  0  0  0  0  0  0  0  0  0  0
   25.3215  -20.7147   -9.8481 C   0  0  0  0  0  0  0  0  0  0  0  0
   24.0417  -20.7606   -9.6514 N   0  0  0  0  0  0  0  0  0  0  0  0
   25.9478  -21.7385  -10.5979 N   0  0  0  0  0  0  0  0  0  0  0  0
   26.7939  -21.4371  -11.7552 C   0  0  0  0  0  0  0  0  0  0  0  0
   26.5853  -20.0256  -12.1990 C   0  0  0  0  0  0  0  0  0  0  0  0
   27.2353  -19.6826  -13.4977 C   0  0  0  0  0  0  0  0  0  0  0  0
   27.1680  -20.8416  -14.4480 C   0  0  2  0  0  0  0  0  0  0  0  0
   28.2516  -20.7560  -15.3907 N   0  0  0  0  0  0  0  0  0  0  0  0
   25.8461  -20.9455  -15.1156 C   0  0  0  0  0  0  0  0  0  0  0  0
   25.5408  -20.0642  -15.9589 O   0  0  0  0  0  0  0  0  0  0  0  0
   23.4803  -21.5609  -10.0124 C   0  0  0  0  0  0  0  0  0  0  0  0
   23.1040  -23.5435  -15.4098 C   0  0  1  0  0  0  0  0  0  0  0  0
   23.6696  -22.1387  -15.5467 N   0  0  0  0  0  0  0  0  0  0  0  0
   24.9079  -21.9737  -14.8627 C   0  0  0  0  0  0  0  0  0  0  0  0
   22.6155  -21.2019  -15.0962 O   0  0  0  0  0  0  0  0  0  0  0  0
   22.4753  -21.0734  -13.8419 N   0  0  0  0  0  0  0  0  0  0  0  0
   21.7805  -20.4640  -15.9631 C   0  0  1  0  0  0  0  0  0  0  0  0
   20.8484  -19.5267  -15.4135 C   0  0  0  0  0  0  0  0  0  0  0  0
   20.7018  -18.2790  -16.2474 S   0  0  0  0  0  0  0  0  0  0  0  0
   22.2737  -17.3744  -16.1593 C   0  0  0  0  0  0  0  0  0  0  0  0
   19.5227  -20.1790  -15.2845 O   0  0  0  0  0  0  0  0  0  0  0  0
   19.3373  -21.2551  -15.8925 O   0  0  0  0  0  0  0  0  0  0  0  0
  1  2  1  0
  2  3  2  0
  4  2  1  0
  5  4  1  0
  6  5  1  0
  7  6  1  0
  8  9  1  6
  8  7  1  0
  8 10  1  0
 10 11  2  0
 10 14  1  0
 13 12  1  6
 14 13  1  0
 15 13  1  0
 15 17  1  0
 16 15  2  0
 18 17  1  0
 18 21  1  0
 18 19  1  1
 20 19  1  0
 21 23  1  0
 22 21  2  0
M  END
$$$$
