RAC.pdb
     RDKit          3D

 23 22  0  0  1  0  0  0  0  0999 V2000
   32.1055  -21.6254  -10.9432 N   0  0  0  0  0  0  0  0  0  0  0  0
   31.3953  -22.3727   -9.9501 C   0  0  0  0  0  0  0  0  0  0  0  0
   32.0556  -22.9193   -8.9785 N   0  0  0  0  0  0  0  0  0  0  0  0
   29.9896  -22.5256  -10.0091 N   0  0  0  0  0  0  0  0  0  0  0  0
   29.2232  -22.1430  -11.1975 C   0  0  0  0  0  0  0  0  0  0  0  0
   28.9671  -20.6708  -11.2000 C   0  0  0  0  0  0  0  0  0  0  0  0
   27.6303  -20.2760  -11.7332 C   0  0  0  0  0  0  0  0  0  0  0  0
   27.5061  -20.6453  -13.1820 C   0  0  2  0  0  0  0  0  0  0  0  0
   28.4256  -19.8589  -13.9607 N   0  0  0  0  0  0  0  0  0  0  0  0
   26.1099  -20.5319  -13.6736 C   0  0  0  0  0  0  0  0  0  0  0  0
   25.4917  -19.4600  -13.4505 O   0  0  0  0  0  0  0  0  0  0  0  0
   31.5559  -23.4464   -8.2312 C   0  0  0  0  0  0  0  0  0  0  0  0
   23.6614  -22.6111  -15.7076 C   0  0  1  0  0  0  0  0  0  0  0  0
   24.0400  -21.5526  -14.6835 N   0  0  0  0  0  0  0  0  0  0  0  0
   25.4309  -21.5542  -14.3773 C   0  0  0  0  0  0  0  0  0  0  0  0
   23.1737  -21.7643  -13.5018 O   0  0  0  0  0  0  0  0  0  0  0  0
   23.6825  -22.4179  -12.5409 N   0  0  0  0  0  0  0  0  0  0  0  0
   21.8483  -21.2913  -13.3893 C   0  0  1  0  0  0  0  0  0  0  0  0
   21.3599  -20.8628  -12.1138 C   0  0  0  0  0  0  0  0  0  0  0  0
   22.1966  -19.7714  -11.4954 S   0  0  0  0  0  0  0  0  0  0  0  0
   22.8890  -20.4231   -9.9485 C   0  0  0  0  0  0  0  0  0  0  0  0
   19.9674  -20.3754  -12.2656 O   0  0  0  0  0  0  0  0  0  0  0  0
   19.2738  -20.2521  -11.2332 O   0  0  0  0  0  0  0  0  0  0  0  0
  1  2  1  0
  2  3  2  0
  4  2  1  0
  5  4  1  0
  6  5  1  0
  7  6  1  0
  8  9  1  6
  8  7  1  0
  8 10  1  0
 10 11  2  0
 10 14  1  0
 13 12  1  6
 14 13  1  0
 15 13  1  0
 15 17  1  0
 16 15  2  0
 18 17  1  0
 18 21  1  0
 18 19  1  1
 20 19  1  0
 21 23  1  0
 22 21  2  0
M  END
$$$$
