AWE.pdb
     RDKit          3D

 29 30  0  0  1  0  0  0  0  0999 V2000
   27.6036  -19.4540  -14.9936 C   0  0  0  0  0  0  0  0  0  0  0  0
   28.3743  -20.3070  -13.9751 C   0  0  2  0  0  0  0  0  0  0  0  0
   28.9326  -21.3994  -14.7471 N   0  0  0  0  0  0  0  0  0  0  0  0
   27.4085  -20.8229  -13.0087 C   0  0  0  0  0  0  0  0  0  0  0  0
   26.7521  -21.8607  -13.2745 O   0  0  0  0  0  0  0  0  0  0  0  0
   27.1433  -20.2102  -11.7292 N   0  0  0  0  0  0  0  0  0  0  0  0
   26.1443  -20.6878  -10.8341 C   0  0  1  0  0  0  0  0  0  0  0  0
   26.3238  -20.3242   -9.4132 C   0  0  0  0  0  0  0  0  0  0  0  0
   27.5923  -20.7547   -8.7896 C   0  0  0  0  0  0  0  0  0  0  0  0
   28.5639  -21.6033   -9.2599 C   0  0  0  0  0  0  0  0  0  0  0  0
   29.5700  -21.7094   -8.3539 N   0  0  0  0  0  0  0  0  0  0  0  0
   29.2712  -20.9375   -7.2891 C   0  0  0  0  0  0  0  0  0  0  0  0
   29.9459  -20.6908   -6.1104 C   0  0  0  0  0  0  0  0  0  0  0  0
   29.4356  -19.8487   -5.1513 C   0  0  0  0  0  0  0  0  0  0  0  0
   28.2209  -19.2550   -5.4056 C   0  0  0  0  0  0  0  0  0  0  0  0
   27.5433  -19.4988   -6.5817 C   0  0  0  0  0  0  0  0  0  0  0  0
   28.0579  -20.3485   -7.5504 C   0  0  0  0  0  0  0  0  0  0  0  0
   24.7596  -20.3833  -11.2826 C   0  0  0  0  0  0  0  0  0  0  0  0
   24.4050  -19.1874  -11.5527 O   0  0  0  0  0  0  0  0  0  0  0  0
   23.7729  -21.3748  -11.4338 N   0  0  0  0  0  0  0  0  0  0  0  0
   22.4387  -21.1057  -12.0276 C   0  0  1  0  0  0  0  0  0  0  0  0
   21.9573  -22.3510  -12.6894 C   0  0  0  0  0  0  0  0  0  0  0  0
   20.6294  -22.2465  -13.3391 C   0  0  0  0  0  0  0  0  0  0  0  0
   20.1298  -23.4518  -14.0124 C   0  0  0  0  0  0  0  0  0  0  0  0
   20.8236  -24.1756  -14.7946 O   0  0  0  0  0  0  0  0  0  0  0  0
   21.6533  -20.4812  -10.9906 C   0  0  0  0  0  0  0  0  0  0  0  0
   21.8782  -20.7459   -9.7677 O   0  0  0  0  0  0  0  0  0  0  0  0
   18.8065  -23.8797  -13.8084 O   0  0  0  0  0  0  0  0  0  0  0  0
   20.6388  -19.5744  -11.2133 O   0  0  0  0  0  0  0  0  0  0  0  0
  2  1  1  6
  2  3  1  0
  4  2  1  0
  4  5  2  0
  6  4  1  0
  7  6  1  0
  7  8  1  1
  9  8  1  0
  9 10  2  0
 11 10  1  0
 12 11  1  0
 13 12  2  0
 14 13  1  0
 15 14  2  0
 15 16  1  0
 16 17  2  0
 17 12  1  0
 17  9  1  0
 18  7  1  0
 19 18  2  0
 20 18  1  0
 21 20  1  0
 21 22  1  1
 22 23  1  0
 24 23  1  0
 24 28  1  0
 25 24  2  0
 26 21  1  0
 26 29  1  0
 27 26  2  0
M  END
$$$$
