AWE.pdb
     RDKit          3D

 29 30  0  0  1  0  0  0  0  0999 V2000
   29.0375  -21.8289  -14.9277 C   0  0  0  0  0  0  0  0  0  0  0  0
   27.6827  -21.1501  -15.1777 C   0  0  2  0  0  0  0  0  0  0  0  0
   27.9759  -19.7311  -15.2173 N   0  0  0  0  0  0  0  0  0  0  0  0
   26.8208  -21.4487  -14.0372 C   0  0  0  0  0  0  0  0  0  0  0  0
   26.4063  -22.6210  -13.8572 O   0  0  0  0  0  0  0  0  0  0  0  0
   26.3961  -20.4660  -13.0693 N   0  0  0  0  0  0  0  0  0  0  0  0
   25.5057  -20.7669  -11.9998 C   0  0  1  0  0  0  0  0  0  0  0  0
   25.8555  -20.1875  -10.6862 C   0  0  0  0  0  0  0  0  0  0  0  0
   27.1287  -20.6471  -10.0939 C   0  0  0  0  0  0  0  0  0  0  0  0
   28.1738  -21.3288  -10.6669 C   0  0  0  0  0  0  0  0  0  0  0  0
   29.1526  -21.5402   -9.7496 N   0  0  0  0  0  0  0  0  0  0  0  0
   28.7629  -21.0034   -8.5753 C   0  0  0  0  0  0  0  0  0  0  0  0
   29.3768  -20.9413   -7.3406 C   0  0  0  0  0  0  0  0  0  0  0  0
   28.7750  -20.3291   -6.2671 C   0  0  0  0  0  0  0  0  0  0  0  0
   27.5309  -19.7760   -6.4642 C   0  0  0  0  0  0  0  0  0  0  0  0
   26.9138  -19.8357   -7.6960 C   0  0  0  0  0  0  0  0  0  0  0  0
   27.5208  -20.4534   -8.7801 C   0  0  0  0  0  0  0  0  0  0  0  0
   24.0805  -20.4986  -12.3287 C   0  0  0  0  0  0  0  0  0  0  0  0
   23.6454  -19.3036  -12.4364 O   0  0  0  0  0  0  0  0  0  0  0  0
   23.1408  -21.5247  -12.5371 N   0  0  0  0  0  0  0  0  0  0  0  0
   21.7596  -21.2722  -13.0205 C   0  0  1  0  0  0  0  0  0  0  0  0
   21.5056  -22.1467  -14.2000 C   0  0  0  0  0  0  0  0  0  0  0  0
   21.7189  -21.5043  -15.5184 C   0  0  0  0  0  0  0  0  0  0  0  0
   22.4394  -22.2929  -16.5256 C   0  0  0  0  0  0  0  0  0  0  0  0
   23.3561  -21.8312  -17.2763 O   0  0  0  0  0  0  0  0  0  0  0  0
   20.9053  -21.3476  -11.8600 C   0  0  0  0  0  0  0  0  0  0  0  0
   21.2194  -22.0923  -10.8789 O   0  0  0  0  0  0  0  0  0  0  0  0
   22.1376  -23.6536  -16.7080 O   0  0  0  0  0  0  0  0  0  0  0  0
   19.7279  -20.6467  -11.7059 O   0  0  0  0  0  0  0  0  0  0  0  0
  2  1  1  1
  2  3  1  0
  4  2  1  0
  4  5  2  0
  6  4  1  0
  7  6  1  0
  7  8  1  1
  9  8  1  0
  9 10  2  0
 11 10  1  0
 12 11  1  0
 13 12  2  0
 14 13  1  0
 15 14  2  0
 15 16  1  0
 16 17  2  0
 17 12  1  0
 17  9  1  0
 18  7  1  0
 19 18  2  0
 20 18  1  0
 21 20  1  0
 21 22  1  6
 22 23  1  0
 24 23  1  0
 24 28  1  0
 25 24  2  0
 26 21  1  0
 26 29  1  0
 27 26  2  0
M  END
$$$$
