AWE.pdb
     RDKit          3D

 29 30  0  0  1  0  0  0  0  0999 V2000
   24.6536  -35.1493   -7.1033 C   0  0  0  0  0  0  0  0  0  0  0  0
   25.8680  -34.2819   -6.7406 C   0  0  2  0  0  0  0  0  0  0  0  0
   26.9944  -34.9239   -7.3887 N   0  0  0  0  0  0  0  0  0  0  0  0
   26.0320  -34.3341   -5.2903 C   0  0  0  0  0  0  0  0  0  0  0  0
   26.6096  -35.3168   -4.7618 O   0  0  0  0  0  0  0  0  0  0  0  0
   25.5656  -33.3077   -4.3893 N   0  0  0  0  0  0  0  0  0  0  0  0
   25.8340  -33.3242   -2.9911 C   0  0  1  0  0  0  0  0  0  0  0  0
   25.5878  -32.0572   -2.2716 C   0  0  0  0  0  0  0  0  0  0  0  0
   25.9377  -32.0489   -0.8362 C   0  0  0  0  0  0  0  0  0  0  0  0
   26.9486  -32.6969   -0.1700 C   0  0  0  0  0  0  0  0  0  0  0  0
   26.9034  -32.3965    1.1536 N   0  0  0  0  0  0  0  0  0  0  0  0
   25.8713  -31.5551    1.3674 C   0  0  0  0  0  0  0  0  0  0  0  0
   25.3934  -30.9543    2.5145 C   0  0  0  0  0  0  0  0  0  0  0  0
   24.3044  -30.1161    2.4884 C   0  0  0  0  0  0  0  0  0  0  0  0
   23.7008  -29.8934    1.2723 C   0  0  0  0  0  0  0  0  0  0  0  0
   24.1748  -30.4916    0.1237 C   0  0  0  0  0  0  0  0  0  0  0  0
   25.2742  -31.3377    0.1494 C   0  0  0  0  0  0  0  0  0  0  0  0
   25.1916  -34.4631   -2.2829 C   0  0  0  0  0  0  0  0  0  0  0  0
   24.0051  -34.8321   -2.5743 O   0  0  0  0  0  0  0  0  0  0  0  0
   25.8384  -35.1904   -1.2670 N   0  0  0  0  0  0  0  0  0  0  0  0
   25.1704  -36.2645   -0.4890 C   0  0  1  0  0  0  0  0  0  0  0  0
   26.1479  -37.3684   -0.2738 C   0  0  0  0  0  0  0  0  0  0  0  0
   26.4812  -38.1596   -1.4819 C   0  0  0  0  0  0  0  0  0  0  0  0
   27.4072  -39.2838   -1.2971 C   0  0  0  0  0  0  0  0  0  0  0  0
   27.1792  -40.4720   -1.6887 O   0  0  0  0  0  0  0  0  0  0  0  0
   24.5428  -35.6169    0.6375 C   0  0  0  0  0  0  0  0  0  0  0  0
   24.3776  -34.3565    0.6431 O   0  0  0  0  0  0  0  0  0  0  0  0
   28.6423  -39.0858   -0.6560 O   0  0  0  0  0  0  0  0  0  0  0  0
   24.0759  -36.2707    1.7581 O   0  0  0  0  0  0  0  0  0  0  0  0
  2  1  1  1
  2  3  1  0
  4  2  1  0
  4  5  2  0
  6  4  1  0
  7  6  1  0
  7  8  1  1
  9  8  1  0
  9 10  2  0
 11 10  1  0
 12 11  1  0
 13 12  2  0
 14 13  1  0
 15 14  2  0
 15 16  1  0
 16 17  2  0
 17 12  1  0
 17  9  1  0
 18  7  1  0
 19 18  2  0
 20 18  1  0
 21 20  1  0
 21 22  1  1
 22 23  1  0
 24 23  1  0
 24 28  1  0
 25 24  2  0
 26 21  1  0
 26 29  1  0
 27 26  2  0
M  END
$$$$
