AWE.pdb
     RDKit          3D

 29 30  0  0  1  0  0  0  0  0999 V2000
   27.8078  -22.5415  -17.2536 C   0  0  0  0  0  0  0  0  0  0  0  0
   27.4660  -21.4075  -18.2314 C   0  0  2  0  0  0  0  0  0  0  0  0
   28.6489  -20.5702  -18.2627 N   0  0  0  0  0  0  0  0  0  0  0  0
   26.3430  -20.6618  -17.6694 C   0  0  0  0  0  0  0  0  0  0  0  0
   26.4167  -20.2083  -16.5001 O   0  0  0  0  0  0  0  0  0  0  0  0
   25.1150  -20.3978  -18.3802 N   0  0  0  0  0  0  0  0  0  0  0  0
   24.1007  -19.5335  -17.8789 C   0  0  1  0  0  0  0  0  0  0  0  0
   24.0194  -18.1997  -18.5097 C   0  0  0  0  0  0  0  0  0  0  0  0
   25.1219  -17.2671  -18.1972 C   0  0  0  0  0  0  0  0  0  0  0  0
   26.3259  -17.0795  -18.8301 C   0  0  0  0  0  0  0  0  0  0  0  0
   27.0358  -16.1055  -18.2044 N   0  0  0  0  0  0  0  0  0  0  0  0
   26.3106  -15.6477  -17.1635 C   0  0  0  0  0  0  0  0  0  0  0  0
   26.5657  -14.6742  -16.2188 C   0  0  0  0  0  0  0  0  0  0  0  0
   25.6579  -14.3733  -15.2316 C   0  0  0  0  0  0  0  0  0  0  0  0
   24.4772  -15.0794  -15.2149 C   0  0  0  0  0  0  0  0  0  0  0  0
   24.2182  -16.0529  -16.1567 C   0  0  0  0  0  0  0  0  0  0  0  0
   25.1341  -16.3570  -17.1536 C   0  0  0  0  0  0  0  0  0  0  0  0
   22.7584  -20.1715  -17.8261 C   0  0  0  0  0  0  0  0  0  0  0  0
   22.4047  -21.0297  -18.7020 O   0  0  0  0  0  0  0  0  0  0  0  0
   21.8129  -19.8746  -16.8275 N   0  0  0  0  0  0  0  0  0  0  0  0
   20.5471  -20.6326  -16.6596 C   0  0  1  0  0  0  0  0  0  0  0  0
   20.2265  -20.6989  -15.2059 C   0  0  0  0  0  0  0  0  0  0  0  0
   18.9862  -21.4359  -14.8670 C   0  0  0  0  0  0  0  0  0  0  0  0
   18.5883  -21.4394  -13.4538 C   0  0  0  0  0  0  0  0  0  0  0  0
   19.2574  -21.9883  -12.5221 O   0  0  0  0  0  0  0  0  0  0  0  0
   19.6048  -20.0562  -17.5881 C   0  0  0  0  0  0  0  0  0  0  0  0
   19.5757  -18.7993  -17.7759 O   0  0  0  0  0  0  0  0  0  0  0  0
   17.4012  -20.8036  -13.0509 O   0  0  0  0  0  0  0  0  0  0  0  0
   18.6954  -20.7776  -18.3322 O   0  0  0  0  0  0  0  0  0  0  0  0
  2  1  1  1
  2  3  1  0
  4  2  1  0
  4  5  2  0
  6  4  1  0
  7  6  1  0
  7  8  1  6
  9  8  1  0
  9 10  2  0
 11 10  1  0
 12 11  1  0
 13 12  2  0
 14 13  1  0
 15 14  2  0
 15 16  1  0
 16 17  2  0
 17 12  1  0
 17  9  1  0
 18  7  1  0
 19 18  2  0
 20 18  1  0
 21 20  1  0
 21 22  1  1
 22 23  1  0
 24 23  1  0
 24 28  1  0
 25 24  2  0
 26 21  1  0
 26 29  1  0
 27 26  2  0
M  END
$$$$
