AWE.pdb
     RDKit          3D

 29 30  0  0  1  0  0  0  0  0999 V2000
   19.2675  -10.0334  -22.1791 C   0  0  0  0  0  0  0  0  0  0  0  0
   20.3671  -10.4799  -21.2042 C   0  0  2  0  0  0  0  0  0  0  0  0
   20.2311  -11.9206  -21.1198 N   0  0  0  0  0  0  0  0  0  0  0  0
   20.0797   -9.8758  -19.9060 C   0  0  0  0  0  0  0  0  0  0  0  0
   18.8889   -9.7485  -19.5260 O   0  0  0  0  0  0  0  0  0  0  0  0
   21.0941   -9.3991  -18.9969 N   0  0  0  0  0  0  0  0  0  0  0  0
   20.7903   -8.8189  -17.7327 C   0  0  1  0  0  0  0  0  0  0  0  0
   21.8028   -9.0118  -16.6739 C   0  0  0  0  0  0  0  0  0  0  0  0
   21.5271   -8.3447  -15.3847 C   0  0  0  0  0  0  0  0  0  0  0  0
   20.8735   -8.8114  -14.2709 C   0  0  0  0  0  0  0  0  0  0  0  0
   20.8570   -7.8573  -13.3048 N   0  0  0  0  0  0  0  0  0  0  0  0
   21.4945   -6.7640  -13.7709 C   0  0  0  0  0  0  0  0  0  0  0  0
   21.7552   -5.5347  -13.1998 C   0  0  0  0  0  0  0  0  0  0  0  0
   22.4373   -4.5545  -13.8805 C   0  0  0  0  0  0  0  0  0  0  0  0
   22.8551   -4.8402  -15.1598 C   0  0  0  0  0  0  0  0  0  0  0  0
   22.5968   -6.0669  -15.7343 C   0  0  0  0  0  0  0  0  0  0  0  0
   21.9085   -7.0568  -15.0476 C   0  0  0  0  0  0  0  0  0  0  0  0
   20.3916   -7.3891  -17.8230 C   0  0  0  0  0  0  0  0  0  0  0  0
   20.9866   -6.5909  -18.6215 O   0  0  0  0  0  0  0  0  0  0  0  0
   19.3544   -6.8375  -17.0489 N   0  0  0  0  0  0  0  0  0  0  0  0
   18.9860   -5.3997  -17.0950 C   0  0  1  0  0  0  0  0  0  0  0  0
   18.0689   -5.1847  -18.2495 C   0  0  0  0  0  0  0  0  0  0  0  0
   16.9074   -6.1032  -18.3113 C   0  0  0  0  0  0  0  0  0  0  0  0
   16.0502   -6.0007  -19.4988 C   0  0  0  0  0  0  0  0  0  0  0  0
   16.2197   -6.6722  -20.5653 O   0  0  0  0  0  0  0  0  0  0  0  0
   18.5712   -5.0458  -15.7590 C   0  0  0  0  0  0  0  0  0  0  0  0
   18.4653   -3.8247  -15.4219 O   0  0  0  0  0  0  0  0  0  0  0  0
   14.9537   -5.1212  -19.5068 O   0  0  0  0  0  0  0  0  0  0  0  0
   18.2559   -5.9527  -14.7693 O   0  0  0  0  0  0  0  0  0  0  0  0
  2  1  1  6
  2  3  1  0
  4  2  1  0
  4  5  2  0
  6  4  1  0
  7  6  1  0
  7  8  1  1
  9  8  1  0
  9 10  2  0
 11 10  1  0
 12 11  1  0
 13 12  2  0
 14 13  1  0
 15 14  2  0
 15 16  1  0
 16 17  2  0
 17 12  1  0
 17  9  1  0
 18  7  1  0
 19 18  2  0
 20 18  1  0
 21 20  1  0
 21 22  1  6
 22 23  1  0
 24 23  1  0
 24 28  1  0
 25 24  2  0
 26 21  1  0
 26 29  1  0
 27 26  2  0
M  END
$$$$
