AWE.pdb
     RDKit          3D

 29 30  0  0  1  0  0  0  0  0999 V2000
   28.2820  -19.1264  -13.8586 C   0  0  0  0  0  0  0  0  0  0  0  0
   28.7826  -20.3202  -13.0320 C   0  0  2  0  0  0  0  0  0  0  0  0
   29.0864  -21.3497  -14.0061 N   0  0  0  0  0  0  0  0  0  0  0  0
   27.6845  -20.7557  -12.1733 C   0  0  0  0  0  0  0  0  0  0  0  0
   27.0489  -21.8024  -12.4544 O   0  0  0  0  0  0  0  0  0  0  0  0
   27.2612  -20.0512  -10.9870 N   0  0  0  0  0  0  0  0  0  0  0  0
   26.1787  -20.4879  -10.1718 C   0  0  1  0  0  0  0  0  0  0  0  0
   26.1852  -20.0028   -8.7760 C   0  0  0  0  0  0  0  0  0  0  0  0
   27.4917  -20.0309   -8.0866 C   0  0  0  0  0  0  0  0  0  0  0  0
   28.7603  -19.8887   -8.5925 C   0  0  0  0  0  0  0  0  0  0  0  0
   29.6745  -19.9751   -7.5921 N   0  0  0  0  0  0  0  0  0  0  0  0
   29.0205  -20.1728   -6.4293 C   0  0  0  0  0  0  0  0  0  0  0  0
   29.4693  -20.3258   -5.1330 C   0  0  0  0  0  0  0  0  0  0  0  0
   28.5983  -20.5189   -4.0874 C   0  0  0  0  0  0  0  0  0  0  0  0
   27.2537  -20.5555   -4.3766 C   0  0  0  0  0  0  0  0  0  0  0  0
   26.8009  -20.4032   -5.6702 C   0  0  0  0  0  0  0  0  0  0  0  0
   27.6796  -20.2081   -6.7261 C   0  0  0  0  0  0  0  0  0  0  0  0
   24.8471  -20.2695  -10.7968 C   0  0  0  0  0  0  0  0  0  0  0  0
   24.5101  -19.1208  -11.2393 O   0  0  0  0  0  0  0  0  0  0  0  0
   23.8940  -21.2950  -10.9364 N   0  0  0  0  0  0  0  0  0  0  0  0
   22.6657  -21.1527  -11.7586 C   0  0  1  0  0  0  0  0  0  0  0  0
   22.4866  -22.3973  -12.5580 C   0  0  0  0  0  0  0  0  0  0  0  0
   21.2749  -22.4297  -13.4109 C   0  0  0  0  0  0  0  0  0  0  0  0
   21.1693  -23.5435  -14.3617 C   0  0  0  0  0  0  0  0  0  0  0  0
   22.0395  -24.4619  -14.4893 O   0  0  0  0  0  0  0  0  0  0  0  0
   21.6277  -20.7076  -10.8605 C   0  0  0  0  0  0  0  0  0  0  0  0
   21.7414  -20.8895   -9.6076 O   0  0  0  0  0  0  0  0  0  0  0  0
   20.0501  -23.6504  -15.2053 O   0  0  0  0  0  0  0  0  0  0  0  0
   20.4725  -20.0653  -11.2534 O   0  0  0  0  0  0  0  0  0  0  0  0
  2  1  1  6
  2  3  1  0
  4  2  1  0
  4  5  2  0
  6  4  1  0
  7  6  1  0
  7  8  1  1
  9  8  1  0
  9 10  2  0
 11 10  1  0
 12 11  1  0
 13 12  2  0
 14 13  1  0
 15 14  2  0
 15 16  1  0
 16 17  2  0
 17 12  1  0
 17  9  1  0
 18  7  1  0
 19 18  2  0
 20 18  1  0
 21 20  1  0
 21 22  1  1
 22 23  1  0
 24 23  1  0
 24 28  1  0
 25 24  2  0
 26 21  1  0
 26 29  1  0
 27 26  2  0
M  END
$$$$
