AWE.pdb
     RDKit          3D

 29 30  0  0  1  0  0  0  0  0999 V2000
   27.3114  -22.6251  -17.2322 C   0  0  0  0  0  0  0  0  0  0  0  0
   27.9726  -21.6568  -16.2402 C   0  0  2  0  0  0  0  0  0  0  0  0
   29.2968  -22.2004  -16.0117 N   0  0  0  0  0  0  0  0  0  0  0  0
   27.1986  -21.6943  -15.0023 C   0  0  0  0  0  0  0  0  0  0  0  0
   25.9980  -22.0635  -15.0270 O   0  0  0  0  0  0  0  0  0  0  0  0
   27.7271  -21.3275  -13.7104 N   0  0  0  0  0  0  0  0  0  0  0  0
   26.9536  -21.3736  -12.5158 C   0  0  1  0  0  0  0  0  0  0  0  0
   27.7052  -21.2135  -11.2537 C   0  0  0  0  0  0  0  0  0  0  0  0
   26.8919  -21.0183  -10.0357 C   0  0  0  0  0  0  0  0  0  0  0  0
   25.5544  -21.2438   -9.8216 C   0  0  0  0  0  0  0  0  0  0  0  0
   25.2273  -20.9322   -8.5410 N   0  0  0  0  0  0  0  0  0  0  0  0
   26.3377  -20.5031   -7.9070 C   0  0  0  0  0  0  0  0  0  0  0  0
   26.5528  -20.0714   -6.6138 C   0  0  0  0  0  0  0  0  0  0  0  0
   27.7969  -19.6752   -6.1844 C   0  0  0  0  0  0  0  0  0  0  0  0
   28.8294  -19.7228   -7.0924 C   0  0  0  0  0  0  0  0  0  0  0  0
   28.6190  -20.1534   -8.3855 C   0  0  0  0  0  0  0  0  0  0  0  0
   27.3634  -20.5536   -8.8195 C   0  0  0  0  0  0  0  0  0  0  0  0
   25.7754  -20.4667  -12.5434 C   0  0  0  0  0  0  0  0  0  0  0  0
   25.9077  -19.2267  -12.8149 O   0  0  0  0  0  0  0  0  0  0  0  0
   24.4670  -20.9098  -12.2767 N   0  0  0  0  0  0  0  0  0  0  0  0
   23.2579  -20.2299  -12.8064 C   0  0  1  0  0  0  0  0  0  0  0  0
   23.1845  -20.4742  -14.2745 C   0  0  0  0  0  0  0  0  0  0  0  0
   21.9544  -19.9779  -14.9354 C   0  0  0  0  0  0  0  0  0  0  0  0
   21.9289  -18.5544  -15.2942 C   0  0  0  0  0  0  0  0  0  0  0  0
   22.7971  -17.9845  -16.0279 O   0  0  0  0  0  0  0  0  0  0  0  0
   22.1660  -20.6198  -11.9473 C   0  0  0  0  0  0  0  0  0  0  0  0
   22.1447  -21.7769  -11.4214 O   0  0  0  0  0  0  0  0  0  0  0  0
   20.8954  -17.7247  -14.8259 O   0  0  0  0  0  0  0  0  0  0  0  0
   21.0969  -19.8122  -11.6218 O   0  0  0  0  0  0  0  0  0  0  0  0
  2  1  1  6
  2  3  1  0
  4  2  1  0
  4  5  2  0
  6  4  1  0
  7  6  1  0
  7  8  1  1
  9  8  1  0
  9 10  2  0
 11 10  1  0
 12 11  1  0
 13 12  2  0
 14 13  1  0
 15 14  2  0
 15 16  1  0
 16 17  2  0
 17 12  1  0
 17  9  1  0
 18  7  1  0
 19 18  2  0
 20 18  1  0
 21 20  1  0
 21 22  1  6
 22 23  1  0
 24 23  1  0
 24 28  1  0
 25 24  2  0
 26 21  1  0
 26 29  1  0
 27 26  2  0
M  END
$$$$
