AWE.pdb
     RDKit          3D

 29 30  0  0  1  0  0  0  0  0999 V2000
   27.2190  -19.9314  -14.9193 C   0  0  0  0  0  0  0  0  0  0  0  0
   27.6638  -21.2332  -14.2364 C   0  0  2  0  0  0  0  0  0  0  0  0
   27.1620  -22.2936  -15.0876 N   0  0  0  0  0  0  0  0  0  0  0  0
   27.0128  -21.2928  -12.9304 C   0  0  0  0  0  0  0  0  0  0  0  0
   25.8214  -21.6823  -12.8435 O   0  0  0  0  0  0  0  0  0  0  0  0
   27.6565  -20.9265  -11.6918 N   0  0  0  0  0  0  0  0  0  0  0  0
   26.9895  -20.9555  -10.4343 C   0  0  1  0  0  0  0  0  0  0  0  0
   27.8275  -20.6652   -9.2523 C   0  0  0  0  0  0  0  0  0  0  0  0
   27.1238  -20.6233   -7.9538 C   0  0  0  0  0  0  0  0  0  0  0  0
   25.8706  -21.0699   -7.6139 C   0  0  0  0  0  0  0  0  0  0  0  0
   25.6313  -20.8335   -6.2982 N   0  0  0  0  0  0  0  0  0  0  0  0
   26.7163  -20.2347   -5.7659 C   0  0  0  0  0  0  0  0  0  0  0  0
   26.9908  -19.7902   -4.4883 C   0  0  0  0  0  0  0  0  0  0  0  0
   28.1912  -19.1991   -4.1738 C   0  0  0  0  0  0  0  0  0  0  0  0
   29.1179  -19.0633   -5.1816 C   0  0  0  0  0  0  0  0  0  0  0  0
   28.8479  -19.5059   -6.4595 C   0  0  0  0  0  0  0  0  0  0  0  0
   27.6364  -20.1028   -6.7775 C   0  0  0  0  0  0  0  0  0  0  0  0
   25.7467  -20.1394  -10.4094 C   0  0  0  0  0  0  0  0  0  0  0  0
   25.7890  -18.8740  -10.5702 O   0  0  0  0  0  0  0  0  0  0  0  0
   24.4716  -20.6997  -10.2104 N   0  0  0  0  0  0  0  0  0  0  0  0
   23.2424  -20.1625  -10.8474 C   0  0  1  0  0  0  0  0  0  0  0  0
   23.3688  -20.3204  -12.3236 C   0  0  0  0  0  0  0  0  0  0  0  0
   22.1897  -19.8827  -13.1076 C   0  0  0  0  0  0  0  0  0  0  0  0
   22.2543  -20.0837  -14.5605 C   0  0  0  0  0  0  0  0  0  0  0  0
   23.3111  -20.3969  -15.1946 O   0  0  0  0  0  0  0  0  0  0  0  0
   22.1307  -20.7550  -10.1436 C   0  0  0  0  0  0  0  0  0  0  0  0
   20.9876  -20.1993  -10.1654 O   0  0  0  0  0  0  0  0  0  0  0  0
   21.0988  -19.9376  -15.3475 O   0  0  0  0  0  0  0  0  0  0  0  0
   22.1944  -21.9283   -9.4222 O   0  0  0  0  0  0  0  0  0  0  0  0
  2  1  1  6
  2  3  1  0
  4  2  1  0
  4  5  2  0
  6  4  1  0
  7  6  1  0
  7  8  1  1
  9  8  1  0
  9 10  2  0
 11 10  1  0
 12 11  1  0
 13 12  2  0
 14 13  1  0
 15 14  2  0
 15 16  1  0
 16 17  2  0
 17 12  1  0
 17  9  1  0
 18  7  1  0
 19 18  2  0
 20 18  1  0
 21 20  1  0
 21 22  1  6
 22 23  1  0
 24 23  1  0
 24 28  1  0
 25 24  2  0
 26 21  1  0
 26 29  1  0
 27 26  2  0
M  END
$$$$
