AWE.pdb
     RDKit          3D

 29 30  0  0  1  0  0  0  0  0999 V2000
   12.2156  -28.1839    3.0078 C   0  0  0  0  0  0  0  0  0  0  0  0
   12.8995  -26.8664    2.6135 C   0  0  2  0  0  0  0  0  0  0  0  0
   12.6182  -26.7063    1.2005 N   0  0  0  0  0  0  0  0  0  0  0  0
   14.3356  -27.0341    2.8193 C   0  0  0  0  0  0  0  0  0  0  0  0
   14.8635  -28.1616    2.6506 O   0  0  0  0  0  0  0  0  0  0  0  0
   15.2228  -25.9666    3.2144 N   0  0  0  0  0  0  0  0  0  0  0  0
   16.6354  -26.1245    3.2973 C   0  0  1  0  0  0  0  0  0  0  0  0
   17.4400  -25.1427    2.5408 C   0  0  0  0  0  0  0  0  0  0  0  0
   17.4144  -25.2800    1.0699 C   0  0  0  0  0  0  0  0  0  0  0  0
   16.4384  -24.9349    0.1677 C   0  0  0  0  0  0  0  0  0  0  0  0
   16.8416  -25.2342   -1.0940 N   0  0  0  0  0  0  0  0  0  0  0  0
   18.0761  -25.7738   -1.0330 C   0  0  0  0  0  0  0  0  0  0  0  0
   18.9271  -26.2431   -2.0132 C   0  0  0  0  0  0  0  0  0  0  0  0
   20.1636  -26.7593   -1.7067 C   0  0  0  0  0  0  0  0  0  0  0  0
   20.5288  -26.7938   -0.3807 C   0  0  0  0  0  0  0  0  0  0  0  0
   19.6818  -26.3261    0.6019 C   0  0  0  0  0  0  0  0  0  0  0  0
   18.4336  -25.8048    0.2931 C   0  0  0  0  0  0  0  0  0  0  0  0
   17.1323  -26.2452    4.6937 C   0  0  0  0  0  0  0  0  0  0  0  0
   16.7112  -25.4632    5.6102 O   0  0  0  0  0  0  0  0  0  0  0  0
   18.0793  -27.2096    5.0842 N   0  0  0  0  0  0  0  0  0  0  0  0
   18.6116  -27.3086    6.4669 C   0  0  1  0  0  0  0  0  0  0  0  0
   18.4506  -28.7141    6.9347 C   0  0  0  0  0  0  0  0  0  0  0  0
   18.9947  -28.9955    8.2843 C   0  0  0  0  0  0  0  0  0  0  0  0
   18.7742  -30.3470    8.8138 C   0  0  0  0  0  0  0  0  0  0  0  0
   18.1833  -31.2776    8.1799 O   0  0  0  0  0  0  0  0  0  0  0  0
   19.9167  -26.6936    6.4424 C   0  0  0  0  0  0  0  0  0  0  0  0
   20.3717  -26.1116    7.4770 O   0  0  0  0  0  0  0  0  0  0  0  0
   19.2317  -30.6873   10.0986 O   0  0  0  0  0  0  0  0  0  0  0  0
   20.7598  -26.6855    5.3514 O   0  0  0  0  0  0  0  0  0  0  0  0
  2  1  1  6
  2  3  1  0
  4  2  1  0
  4  5  2  0
  6  4  1  0
  7  6  1  0
  7  8  1  1
  9  8  1  0
  9 10  2  0
 11 10  1  0
 12 11  1  0
 13 12  2  0
 14 13  1  0
 15 14  2  0
 15 16  1  0
 16 17  2  0
 17 12  1  0
 17  9  1  0
 18  7  1  0
 19 18  2  0
 20 18  1  0
 21 20  1  0
 21 22  1  6
 22 23  1  0
 24 23  1  0
 24 28  1  0
 25 24  2  0
 26 21  1  0
 26 29  1  0
 27 26  2  0
M  END
$$$$
