AWE.pdb
     RDKit          3D

 29 30  0  0  1  0  0  0  0  0999 V2000
   29.3697  -21.1472  -13.1292 C   0  0  0  0  0  0  0  0  0  0  0  0
   28.2951  -20.3694  -12.3552 C   0  0  2  0  0  0  0  0  0  0  0  0
   28.7295  -18.9871  -12.3969 N   0  0  0  0  0  0  0  0  0  0  0  0
   28.3049  -20.8530  -10.9772 C   0  0  0  0  0  0  0  0  0  0  0  0
   29.3691  -20.8180  -10.3103 O   0  0  0  0  0  0  0  0  0  0  0  0
   27.1456  -21.3849  -10.3019 N   0  0  0  0  0  0  0  0  0  0  0  0
   26.1193  -20.5605   -9.7595 C   0  0  1  0  0  0  0  0  0  0  0  0
   26.5612  -19.2711   -9.1889 C   0  0  0  0  0  0  0  0  0  0  0  0
   27.4567  -19.3544   -8.0167 C   0  0  0  0  0  0  0  0  0  0  0  0
   28.7137  -18.8353   -7.8271 C   0  0  0  0  0  0  0  0  0  0  0  0
   29.1673  -19.1507   -6.5866 N   0  0  0  0  0  0  0  0  0  0  0  0
   28.2201  -19.8736   -5.9547 C   0  0  0  0  0  0  0  0  0  0  0  0
   28.1756  -20.4344   -4.6943 C   0  0  0  0  0  0  0  0  0  0  0  0
   27.0808  -21.1426   -4.2593 C   0  0  0  0  0  0  0  0  0  0  0  0
   26.0221  -21.2758   -5.1278 C   0  0  0  0  0  0  0  0  0  0  0  0
   26.0623  -20.7173   -6.3880 C   0  0  0  0  0  0  0  0  0  0  0  0
   27.1671  -20.0022   -6.8276 C   0  0  0  0  0  0  0  0  0  0  0  0
   24.9755  -20.3587  -10.6882 C   0  0  0  0  0  0  0  0  0  0  0  0
   24.8332  -19.2623  -11.3258 O   0  0  0  0  0  0  0  0  0  0  0  0
   23.9977  -21.3440  -10.9174 N   0  0  0  0  0  0  0  0  0  0  0  0
   22.8412  -21.1412  -11.8265 C   0  0  1  0  0  0  0  0  0  0  0  0
   22.7050  -22.3464  -12.6922 C   0  0  0  0  0  0  0  0  0  0  0  0
   21.5040  -22.3663  -13.5603 C   0  0  0  0  0  0  0  0  0  0  0  0
   21.7399  -22.4133  -15.0087 C   0  0  0  0  0  0  0  0  0  0  0  0
   22.5377  -23.2226  -15.5791 O   0  0  0  0  0  0  0  0  0  0  0  0
   21.7427  -20.7143  -10.9938 C   0  0  0  0  0  0  0  0  0  0  0  0
   20.7268  -20.1512  -11.5102 O   0  0  0  0  0  0  0  0  0  0  0  0
   21.0602  -21.5305  -15.8656 O   0  0  0  0  0  0  0  0  0  0  0  0
   21.6866  -20.8757   -9.6255 O   0  0  0  0  0  0  0  0  0  0  0  0
  2  1  1  6
  2  3  1  0
  4  2  1  0
  4  5  2  0
  6  4  1  0
  7  6  1  0
  7  8  1  6
  9  8  1  0
  9 10  2  0
 11 10  1  0
 12 11  1  0
 13 12  2  0
 14 13  1  0
 15 14  2  0
 15 16  1  0
 16 17  2  0
 17 12  1  0
 17  9  1  0
 18  7  1  0
 19 18  2  0
 20 18  1  0
 21 20  1  0
 21 22  1  1
 22 23  1  0
 24 23  1  0
 24 28  1  0
 25 24  2  0
 26 21  1  0
 26 29  1  0
 27 26  2  0
M  END
$$$$
