AWE.pdb
     RDKit          3D

 29 30  0  0  1  0  0  0  0  0999 V2000
   28.4574  -23.3127  -15.7848 C   0  0  0  0  0  0  0  0  0  0  0  0
   27.2447  -22.4080  -16.0486 C   0  0  2  0  0  0  0  0  0  0  0  0
   27.8060  -21.1034  -16.3381 N   0  0  0  0  0  0  0  0  0  0  0  0
   26.4595  -22.3504  -14.8186 C   0  0  0  0  0  0  0  0  0  0  0  0
   25.9240  -23.3945  -14.3696 O   0  0  0  0  0  0  0  0  0  0  0  0
   26.2461  -21.1446  -14.0549 N   0  0  0  0  0  0  0  0  0  0  0  0
   25.4646  -21.1096  -12.8652 C   0  0  1  0  0  0  0  0  0  0  0  0
   25.9291  -20.1796  -11.8150 C   0  0  0  0  0  0  0  0  0  0  0  0
   27.1271  -20.6014  -11.0600 C   0  0  0  0  0  0  0  0  0  0  0  0
   28.3230  -21.1039  -11.5103 C   0  0  0  0  0  0  0  0  0  0  0  0
   29.1503  -21.3509  -10.4621 N   0  0  0  0  0  0  0  0  0  0  0  0
   28.5110  -21.0154   -9.3229 C   0  0  0  0  0  0  0  0  0  0  0  0
   28.8971  -21.0680   -7.9988 C   0  0  0  0  0  0  0  0  0  0  0  0
   28.0588  -20.6630   -6.9876 C   0  0  0  0  0  0  0  0  0  0  0  0
   26.8122  -20.2001   -7.3404 C   0  0  0  0  0  0  0  0  0  0  0  0
   26.4222  -20.1459   -8.6620 C   0  0  0  0  0  0  0  0  0  0  0  0
   27.2681  -20.5544   -9.6832 C   0  0  0  0  0  0  0  0  0  0  0  0
   24.0113  -20.9271  -13.1220 C   0  0  0  0  0  0  0  0  0  0  0  0
   23.5984  -20.0871  -13.9896 O   0  0  0  0  0  0  0  0  0  0  0  0
   23.0199  -21.6542  -12.4379 N   0  0  0  0  0  0  0  0  0  0  0  0
   21.5667  -21.4667  -12.6788 C   0  0  1  0  0  0  0  0  0  0  0  0
   20.8491  -22.6829  -12.2032 C   0  0  0  0  0  0  0  0  0  0  0  0
   19.3737  -22.6364  -12.3357 C   0  0  0  0  0  0  0  0  0  0  0  0
   18.8216  -22.9576  -13.6576 C   0  0  0  0  0  0  0  0  0  0  0  0
   19.0448  -24.0418  -14.2835 O   0  0  0  0  0  0  0  0  0  0  0  0
   21.2330  -20.1682  -12.1451 C   0  0  0  0  0  0  0  0  0  0  0  0
   21.7963  -19.7449  -11.0871 O   0  0  0  0  0  0  0  0  0  0  0  0
   17.9811  -22.0427  -14.3152 O   0  0  0  0  0  0  0  0  0  0  0  0
   20.3223  -19.2991  -12.7078 O   0  0  0  0  0  0  0  0  0  0  0  0
  2  1  1  1
  2  3  1  0
  4  2  1  0
  4  5  2  0
  6  4  1  0
  7  6  1  0
  7  8  1  1
  9  8  1  0
  9 10  2  0
 11 10  1  0
 12 11  1  0
 13 12  2  0
 14 13  1  0
 15 14  2  0
 15 16  1  0
 16 17  2  0
 17 12  1  0
 17  9  1  0
 18  7  1  0
 19 18  2  0
 20 18  1  0
 21 20  1  0
 21 22  1  1
 22 23  1  0
 24 23  1  0
 24 28  1  0
 25 24  2  0
 26 21  1  0
 26 29  1  0
 27 26  2  0
M  END
$$$$
