AWE.pdb
     RDKit          3D

 29 30  0  0  1  0  0  0  0  0999 V2000
   20.5166   -7.8480  -22.9980 C   0  0  0  0  0  0  0  0  0  0  0  0
   21.0408   -6.8448  -21.9599 C   0  0  2  0  0  0  0  0  0  0  0  0
   22.4345   -6.6432  -22.3036 N   0  0  0  0  0  0  0  0  0  0  0  0
   20.9381   -7.4734  -20.6456 C   0  0  0  0  0  0  0  0  0  0  0  0
   20.2105   -8.4862  -20.4926 O   0  0  0  0  0  0  0  0  0  0  0  0
   21.6329   -7.0033  -19.4713 N   0  0  0  0  0  0  0  0  0  0  0  0
   21.4681   -7.5932  -18.1860 C   0  0  1  0  0  0  0  0  0  0  0  0
   22.6284   -7.4934  -17.2764 C   0  0  0  0  0  0  0  0  0  0  0  0
   22.5254   -8.2474  -16.0100 C   0  0  0  0  0  0  0  0  0  0  0  0
   22.7073   -9.5856  -15.7618 C   0  0  0  0  0  0  0  0  0  0  0  0
   22.5190   -9.8459  -14.4423 N   0  0  0  0  0  0  0  0  0  0  0  0
   22.2145   -8.6906  -13.8166 C   0  0  0  0  0  0  0  0  0  0  0  0
   21.9346   -8.4029  -12.4959 C   0  0  0  0  0  0  0  0  0  0  0  0
   21.6474   -7.1238  -12.0828 C   0  0  0  0  0  0  0  0  0  0  0  0
   21.6477   -6.1313  -13.0355 C   0  0  0  0  0  0  0  0  0  0  0  0
   21.9267   -6.4142  -14.3561 C   0  0  0  0  0  0  0  0  0  0  0  0
   22.2169   -7.7052  -14.7737 C   0  0  0  0  0  0  0  0  0  0  0  0
   20.2228   -7.1620  -17.4969 C   0  0  0  0  0  0  0  0  0  0  0  0
   19.8137   -5.9556  -17.5746 O   0  0  0  0  0  0  0  0  0  0  0  0
   19.4336   -8.0394  -16.7309 N   0  0  0  0  0  0  0  0  0  0  0  0
   18.1961   -7.6127  -16.0297 C   0  0  1  0  0  0  0  0  0  0  0  0
   17.1272   -8.6125  -16.3092 C   0  0  0  0  0  0  0  0  0  0  0  0
   15.8244   -8.3414  -15.6567 C   0  0  0  0  0  0  0  0  0  0  0  0
   14.7559   -9.3213  -15.8887 C   0  0  0  0  0  0  0  0  0  0  0  0
   14.8715  -10.3447  -16.6346 O   0  0  0  0  0  0  0  0  0  0  0  0
   18.5824   -7.3197  -14.6706 C   0  0  0  0  0  0  0  0  0  0  0  0
   18.2947   -6.1965  -14.1494 O   0  0  0  0  0  0  0  0  0  0  0  0
   13.5059   -9.1668  -15.2648 O   0  0  0  0  0  0  0  0  0  0  0  0
   19.2597   -8.1897  -13.8426 O   0  0  0  0  0  0  0  0  0  0  0  0
  2  1  1  6
  2  3  1  0
  4  2  1  0
  4  5  2  0
  6  4  1  0
  7  6  1  0
  7  8  1  1
  9  8  1  0
  9 10  2  0
 11 10  1  0
 12 11  1  0
 13 12  2  0
 14 13  1  0
 15 14  2  0
 15 16  1  0
 16 17  2  0
 17 12  1  0
 17  9  1  0
 18  7  1  0
 19 18  2  0
 20 18  1  0
 21 20  1  0
 21 22  1  1
 22 23  1  0
 24 23  1  0
 24 28  1  0
 25 24  2  0
 26 21  1  0
 26 29  1  0
 27 26  2  0
M  END
$$$$
