AWE.pdb
     RDKit          3D

 29 30  0  0  1  0  0  0  0  0999 V2000
   28.5460  -22.3660  -15.1223 C   0  0  0  0  0  0  0  0  0  0  0  0
   27.6357  -21.1435  -14.9330 C   0  0  2  0  0  0  0  0  0  0  0  0
   28.5350  -20.0520  -14.6149 N   0  0  0  0  0  0  0  0  0  0  0  0
   26.7606  -21.4151  -13.7958 C   0  0  0  0  0  0  0  0  0  0  0  0
   25.9572  -22.3800  -13.8420 O   0  0  0  0  0  0  0  0  0  0  0  0
   26.7495  -20.6330  -12.5829 N   0  0  0  0  0  0  0  0  0  0  0  0
   25.7095  -20.7206  -11.6145 C   0  0  1  0  0  0  0  0  0  0  0  0
   26.0325  -20.1962  -10.2713 C   0  0  0  0  0  0  0  0  0  0  0  0
   27.3077  -20.6579   -9.6851 C   0  0  0  0  0  0  0  0  0  0  0  0
   28.3011  -21.4330  -10.2310 C   0  0  0  0  0  0  0  0  0  0  0  0
   29.3051  -21.6061   -9.3332 N   0  0  0  0  0  0  0  0  0  0  0  0
   28.9835  -20.9515   -8.1987 C   0  0  0  0  0  0  0  0  0  0  0  0
   29.6468  -20.8085   -6.9967 C   0  0  0  0  0  0  0  0  0  0  0  0
   29.1127  -20.0783   -5.9618 C   0  0  0  0  0  0  0  0  0  0  0  0
   27.8856  -19.4900   -6.1641 C   0  0  0  0  0  0  0  0  0  0  0  0
   27.2193  -19.6303   -7.3633 C   0  0  0  0  0  0  0  0  0  0  0  0
   27.7581  -20.3671   -8.4083 C   0  0  0  0  0  0  0  0  0  0  0  0
   24.4127  -20.1726  -12.0936 C   0  0  0  0  0  0  0  0  0  0  0  0
   24.3703  -19.1145  -12.8060 O   0  0  0  0  0  0  0  0  0  0  0  0
   23.1758  -20.7740  -11.7972 N   0  0  0  0  0  0  0  0  0  0  0  0
   21.9728  -20.6163  -12.6532 C   0  0  1  0  0  0  0  0  0  0  0  0
   22.1544  -21.4441  -13.8789 C   0  0  0  0  0  0  0  0  0  0  0  0
   21.0990  -21.2871  -14.9075 C   0  0  0  0  0  0  0  0  0  0  0  0
   20.4819  -22.5208  -15.4104 C   0  0  0  0  0  0  0  0  0  0  0  0
   20.8169  -23.6912  -15.0431 O   0  0  0  0  0  0  0  0  0  0  0  0
   20.8340  -20.8284  -11.7927 C   0  0  0  0  0  0  0  0  0  0  0  0
   19.7169  -20.2841  -12.0605 O   0  0  0  0  0  0  0  0  0  0  0  0
   19.4447  -22.4586  -16.3571 O   0  0  0  0  0  0  0  0  0  0  0  0
   20.8435  -21.6109  -10.6574 O   0  0  0  0  0  0  0  0  0  0  0  0
  2  1  1  1
  2  3  1  0
  4  2  1  0
  4  5  2  0
  6  4  1  0
  7  6  1  0
  7  8  1  1
  9  8  1  0
  9 10  2  0
 11 10  1  0
 12 11  1  0
 13 12  2  0
 14 13  1  0
 15 14  2  0
 15 16  1  0
 16 17  2  0
 17 12  1  0
 17  9  1  0
 18  7  1  0
 19 18  2  0
 20 18  1  0
 21 20  1  0
 21 22  1  6
 22 23  1  0
 24 23  1  0
 24 28  1  0
 25 24  2  0
 26 21  1  0
 26 29  1  0
 27 26  2  0
M  END
$$$$
