QWQ.pdb
     RDKit          3D

 33 34  0  0  1  0  0  0  0  0999 V2000
   29.3344  -21.5676  -19.5300 N   0  0  0  0  0  0  0  0  0  0  0  0
   28.3041  -20.8557  -18.8238 C   0  0  0  0  0  0  0  0  0  0  0  0
   27.1425  -20.8409  -19.2939 O   0  0  0  0  0  0  0  0  0  0  0  0
   28.6590  -20.1742  -17.5709 C   0  0  0  0  0  0  0  0  0  0  0  0
   27.8443  -20.4966  -16.3734 C   0  0  0  0  0  0  0  0  0  0  0  0
   28.2862  -21.6502  -15.5435 C   0  0  2  0  0  0  0  0  0  0  0  0
   28.2648  -22.9159  -16.1975 N   0  0  0  0  0  0  0  0  0  0  0  0
   27.4566  -21.7440  -14.3014 C   0  0  0  0  0  0  0  0  0  0  0  0
   26.3127  -22.2751  -14.3152 O   0  0  0  0  0  0  0  0  0  0  0  0
   27.9284  -21.2440  -13.0805 N   0  0  0  0  0  0  0  0  0  0  0  0
   27.0947  -21.1741  -11.8628 C   0  0  1  0  0  0  0  0  0  0  0  0
   27.8910  -20.7020  -10.7097 C   0  0  0  0  0  0  0  0  0  0  0  0
   27.0948  -20.5669   -9.4829 C   0  0  0  0  0  0  0  0  0  0  0  0
   25.6972  -20.5255   -9.3691 C   0  0  0  0  0  0  0  0  0  0  0  0
   25.3131  -20.3553   -8.1162 N   0  0  0  0  0  0  0  0  0  0  0  0
   26.4173  -20.2774   -7.3498 C   0  0  0  0  0  0  0  0  0  0  0  0
   26.6092  -20.1254   -6.0003 C   0  0  0  0  0  0  0  0  0  0  0  0
   27.8763  -20.0985   -5.4397 C   0  0  0  0  0  0  0  0  0  0  0  0
   28.9933  -20.2264   -6.2396 C   0  0  0  0  0  0  0  0  0  0  0  0
   28.7799  -20.3765   -7.5865 C   0  0  0  0  0  0  0  0  0  0  0  0
   27.5235  -20.4063   -8.1776 C   0  0  0  0  0  0  0  0  0  0  0  0
   25.8491  -20.4473  -12.1043 C   0  0  0  0  0  0  0  0  0  0  0  0
   25.8148  -19.2393  -12.4970 O   0  0  0  0  0  0  0  0  0  0  0  0
   23.0751  -22.9113  -15.4227 N   0  0  0  0  0  0  0  0  0  0  0  0
   21.8233  -22.4030  -14.8975 C   0  0  0  0  0  0  0  0  0  0  0  0
   20.8023  -23.0545  -15.1621 O   0  0  0  0  0  0  0  0  0  0  0  0
   21.8110  -21.1881  -14.1114 C   0  0  0  0  0  0  0  0  0  0  0  0
   23.0923  -20.5527  -13.7338 C   0  0  0  0  0  0  0  0  0  0  0  0
   23.3189  -20.2791  -12.2832 C   0  0  2  0  0  0  0  0  0  0  0  0
   24.5543  -21.0274  -11.9218 N   0  0  0  0  0  0  0  0  0  0  0  0
   22.2977  -20.7635  -11.3598 C   0  0  0  0  0  0  0  0  0  0  0  0
   21.1513  -20.0576  -11.0807 O   0  0  0  0  0  0  0  0  0  0  0  0
   22.4626  -21.8851  -10.7815 O   0  0  0  0  0  0  0  0  0  0  0  0
  1  2  1  0
  2  4  1  0
  2  3  2  0
  4  5  1  0
  5  6  1  0
  6  7  1  6
  6  8  1  0
  8 10  1  0
  8  9  2  0
 10 11  1  0
 11 22  1  0
 11 12  1  1
 12 13  1  0
 13 14  2  0
 13 21  1  0
 14 15  1  0
 15 16  1  0
 16 17  2  0
 17 18  1  0
 19 18  2  0
 20 19  1  0
 21 20  2  0
 21 16  1  0
 22 23  2  0
 24 25  1  0
 25 27  1  0
 26 25  2  0
 27 28  1  0
 29 31  1  0
 29 28  1  6
 30 22  1  0
 30 29  1  0
 31 32  1  0
 33 31  2  0
M  END
$$$$
