QWQ.pdb
     RDKit          3D

 33 34  0  0  1  0  0  0  0  0999 V2000
   28.8085  -17.3483  -15.5358 N   0  0  0  0  0  0  0  0  0  0  0  0
   28.9321  -17.7811  -16.9012 C   0  0  0  0  0  0  0  0  0  0  0  0
   29.7147  -17.1694  -17.6655 O   0  0  0  0  0  0  0  0  0  0  0  0
   28.1326  -18.9321  -17.3443 C   0  0  0  0  0  0  0  0  0  0  0  0
   27.3891  -19.6793  -16.3000 C   0  0  0  0  0  0  0  0  0  0  0  0
   28.1469  -20.7026  -15.5296 C   0  0  2  0  0  0  0  0  0  0  0  0
   28.6189  -21.8120  -16.2891 N   0  0  0  0  0  0  0  0  0  0  0  0
   27.3156  -21.2216  -14.3985 C   0  0  0  0  0  0  0  0  0  0  0  0
   26.3015  -21.9421  -14.6065 O   0  0  0  0  0  0  0  0  0  0  0  0
   27.6411  -20.9226  -13.0690 N   0  0  0  0  0  0  0  0  0  0  0  0
   26.8200  -21.3595  -11.9210 C   0  0  1  0  0  0  0  0  0  0  0  0
   27.6499  -21.4920  -10.7043 C   0  0  0  0  0  0  0  0  0  0  0  0
   27.0223  -20.8965   -9.5174 C   0  0  0  0  0  0  0  0  0  0  0  0
   25.6644  -20.6029   -9.3228 C   0  0  0  0  0  0  0  0  0  0  0  0
   25.4502  -20.0326   -8.1502 N   0  0  0  0  0  0  0  0  0  0  0  0
   26.6343  -19.9219   -7.5192 C   0  0  0  0  0  0  0  0  0  0  0  0
   26.9959  -19.4338   -6.2895 C   0  0  0  0  0  0  0  0  0  0  0  0
   28.3105  -19.4545   -5.8514 C   0  0  0  0  0  0  0  0  0  0  0  0
   29.3031  -19.9758   -6.6557 C   0  0  0  0  0  0  0  0  0  0  0  0
   28.9210  -20.4581   -7.8819 C   0  0  0  0  0  0  0  0  0  0  0  0
   27.6131  -20.4502   -8.3490 C   0  0  0  0  0  0  0  0  0  0  0  0
   25.6192  -20.5382  -11.7747 C   0  0  0  0  0  0  0  0  0  0  0  0
   25.6481  -19.2689  -11.7211 O   0  0  0  0  0  0  0  0  0  0  0  0
   24.2261  -18.4095  -15.9005 N   0  0  0  0  0  0  0  0  0  0  0  0
   22.8544  -18.8577  -15.7638 C   0  0  0  0  0  0  0  0  0  0  0  0
   22.0366  -18.4061  -16.5788 O   0  0  0  0  0  0  0  0  0  0  0  0
   22.4996  -19.7843  -14.7104 C   0  0  0  0  0  0  0  0  0  0  0  0
   23.5415  -20.2489  -13.7687 C   0  0  0  0  0  0  0  0  0  0  0  0
   23.1434  -20.4231  -12.3397 C   0  0  2  0  0  0  0  0  0  0  0  0
   24.3011  -21.0858  -11.6785 N   0  0  0  0  0  0  0  0  0  0  0  0
   22.0054  -21.2996  -12.0809 C   0  0  0  0  0  0  0  0  0  0  0  0
   22.0505  -22.6583  -12.2864 O   0  0  0  0  0  0  0  0  0  0  0  0
   20.9194  -20.7982  -11.6465 O   0  0  0  0  0  0  0  0  0  0  0  0
  1  2  1  0
  2  4  1  0
  2  3  2  0
  4  5  1  0
  5  6  1  0
  6  7  1  6
  6  8  1  0
  8 10  1  0
  8  9  2  0
 10 11  1  0
 11 22  1  0
 11 12  1  1
 12 13  1  0
 13 14  2  0
 13 21  1  0
 14 15  1  0
 15 16  1  0
 16 17  2  0
 17 18  1  0
 19 18  2  0
 20 19  1  0
 21 20  2  0
 21 16  1  0
 22 23  2  0
 24 25  1  0
 25 27  1  0
 26 25  2  0
 27 28  1  0
 29 31  1  0
 29 28  1  6
 30 22  1  0
 30 29  1  0
 31 32  1  0
 33 31  2  0
M  END
$$$$
