QWQ.pdb
     RDKit          3D

 33 34  0  0  1  0  0  0  0  0999 V2000
   27.9318  -24.3812  -17.2018 N   0  0  0  0  0  0  0  0  0  0  0  0
   29.3209  -24.0397  -17.0587 C   0  0  0  0  0  0  0  0  0  0  0  0
   30.1899  -24.8223  -17.5095 O   0  0  0  0  0  0  0  0  0  0  0  0
   29.6647  -22.7775  -16.3886 C   0  0  0  0  0  0  0  0  0  0  0  0
   28.5380  -21.9101  -15.9647 C   0  0  0  0  0  0  0  0  0  0  0  0
   27.6573  -21.3707  -17.0363 C   0  0  2  0  0  0  0  0  0  0  0  0
   28.3238  -20.6468  -18.0668 N   0  0  0  0  0  0  0  0  0  0  0  0
   26.6006  -20.4907  -16.4458 C   0  0  0  0  0  0  0  0  0  0  0  0
   26.6315  -20.1532  -15.2309 O   0  0  0  0  0  0  0  0  0  0  0  0
   25.5416  -20.0120  -17.2284 N   0  0  0  0  0  0  0  0  0  0  0  0
   24.4440  -19.1883  -16.6812 C   0  0  1  0  0  0  0  0  0  0  0  0
   23.8141  -18.3804  -17.7477 C   0  0  0  0  0  0  0  0  0  0  0  0
   22.7254  -17.5287  -17.2512 C   0  0  0  0  0  0  0  0  0  0  0  0
   22.7951  -16.5431  -16.2554 C   0  0  0  0  0  0  0  0  0  0  0  0
   21.6151  -15.9939  -16.0270 N   0  0  0  0  0  0  0  0  0  0  0  0
   20.7197  -16.5770  -16.8460 C   0  0  0  0  0  0  0  0  0  0  0  0
   19.3761  -16.3886  -17.0472 C   0  0  0  0  0  0  0  0  0  0  0  0
   18.6680  -17.1168  -17.9900 C   0  0  0  0  0  0  0  0  0  0  0  0
   19.3091  -18.0644  -18.7613 C   0  0  0  0  0  0  0  0  0  0  0  0
   20.6525  -18.2382  -18.5441 C   0  0  0  0  0  0  0  0  0  0  0  0
   21.3887  -17.5250  -17.6069 C   0  0  0  0  0  0  0  0  0  0  0  0
   23.5237  -19.9864  -15.8726 C   0  0  0  0  0  0  0  0  0  0  0  0
   23.1125  -21.1373  -16.2207 O   0  0  0  0  0  0  0  0  0  0  0  0
   23.2678  -21.5585   -9.7878 N   0  0  0  0  0  0  0  0  0  0  0  0
   22.1823  -20.6149   -9.9682 C   0  0  0  0  0  0  0  0  0  0  0  0
   21.4962  -20.3568   -8.9684 O   0  0  0  0  0  0  0  0  0  0  0  0
   21.9434  -20.0301  -11.2701 C   0  0  0  0  0  0  0  0  0  0  0  0
   22.8171  -20.3997  -12.4052 C   0  0  0  0  0  0  0  0  0  0  0  0
   22.1908  -20.4574  -13.7599 C   0  0  2  0  0  0  0  0  0  0  0  0
   23.0008  -19.5473  -14.6156 N   0  0  0  0  0  0  0  0  0  0  0  0
   20.8221  -19.9625  -13.8683 C   0  0  0  0  0  0  0  0  0  0  0  0
   19.7262  -20.7925  -13.8426 O   0  0  0  0  0  0  0  0  0  0  0  0
   20.6201  -18.7122  -13.9927 O   0  0  0  0  0  0  0  0  0  0  0  0
  1  2  1  0
  2  4  1  0
  2  3  2  0
  4  5  1  0
  5  6  1  0
  6  7  1  6
  6  8  1  0
  8 10  1  0
  8  9  2  0
 10 11  1  0
 11 22  1  0
 11 12  1  6
 12 13  1  0
 13 14  2  0
 13 21  1  0
 14 15  1  0
 15 16  1  0
 16 17  2  0
 17 18  1  0
 19 18  2  0
 20 19  1  0
 21 20  2  0
 21 16  1  0
 22 23  2  0
 24 25  1  0
 25 27  1  0
 26 25  2  0
 27 28  1  0
 29 31  1  0
 29 28  1  1
 30 22  1  0
 30 29  1  0
 31 32  1  0
 33 31  2  0
M  END
$$$$
