QWQ.pdb
     RDKit          3D

 33 34  0  0  1  0  0  0  0  0999 V2000
   30.4117  -23.2487  -15.9888 N   0  0  0  0  0  0  0  0  0  0  0  0
   29.7970  -22.4027  -16.9754 C   0  0  0  0  0  0  0  0  0  0  0  0
   30.3570  -22.2577  -18.0872 O   0  0  0  0  0  0  0  0  0  0  0  0
   28.5282  -21.7426  -16.6369 C   0  0  0  0  0  0  0  0  0  0  0  0
   28.0542  -21.8696  -15.2366 C   0  0  0  0  0  0  0  0  0  0  0  0
   27.2939  -20.7217  -14.6716 C   0  0  2  0  0  0  0  0  0  0  0  0
   28.0880  -19.6885  -14.0952 N   0  0  0  0  0  0  0  0  0  0  0  0
   26.3193  -21.2010  -13.6421 C   0  0  0  0  0  0  0  0  0  0  0  0
   25.6737  -22.2731  -13.7989 O   0  0  0  0  0  0  0  0  0  0  0  0
   26.0948  -20.4709  -12.4675 N   0  0  0  0  0  0  0  0  0  0  0  0
   25.0386  -20.8165  -11.4939 C   0  0  1  0  0  0  0  0  0  0  0  0
   25.4233  -20.3904  -10.1311 C   0  0  0  0  0  0  0  0  0  0  0  0
   26.8282  -20.6817   -9.8170 C   0  0  0  0  0  0  0  0  0  0  0  0
   27.7241  -21.4720  -10.5524 C   0  0  0  0  0  0  0  0  0  0  0  0
   28.9026  -21.5554   -9.9603 N   0  0  0  0  0  0  0  0  0  0  0  0
   28.8484  -20.8368   -8.8232 C   0  0  0  0  0  0  0  0  0  0  0  0
   29.7710  -20.5629   -7.8460 C   0  0  0  0  0  0  0  0  0  0  0  0
   29.4695  -19.7562   -6.7602 C   0  0  0  0  0  0  0  0  0  0  0  0
   28.2130  -19.2002   -6.6348 C   0  0  0  0  0  0  0  0  0  0  0  0
   27.3046  -19.4869   -7.6221 C   0  0  0  0  0  0  0  0  0  0  0  0
   27.5763  -20.2918   -8.7209 C   0  0  0  0  0  0  0  0  0  0  0  0
   23.7229  -20.3648  -11.9441 C   0  0  0  0  0  0  0  0  0  0  0  0
   23.4944  -19.1805  -12.3441 O   0  0  0  0  0  0  0  0  0  0  0  0
   22.1712  -19.8468  -16.8110 N   0  0  0  0  0  0  0  0  0  0  0  0
   20.8096  -19.7865  -16.3177 C   0  0  0  0  0  0  0  0  0  0  0  0
   19.9329  -19.4763  -17.1376 O   0  0  0  0  0  0  0  0  0  0  0  0
   20.5322  -20.0771  -14.9275 C   0  0  0  0  0  0  0  0  0  0  0  0
   21.6468  -20.4325  -14.0221 C   0  0  0  0  0  0  0  0  0  0  0  0
   21.3005  -20.7592  -12.6065 C   0  0  2  0  0  0  0  0  0  0  0  0
   22.5712  -21.2127  -11.9769 N   0  0  0  0  0  0  0  0  0  0  0  0
   20.3615  -21.8574  -12.4005 C   0  0  0  0  0  0  0  0  0  0  0  0
   20.7499  -23.1762  -12.3868 O   0  0  0  0  0  0  0  0  0  0  0  0
   19.1281  -21.5974  -12.2252 O   0  0  0  0  0  0  0  0  0  0  0  0
  1  2  1  0
  2  4  1  0
  2  3  2  0
  4  5  1  0
  5  6  1  0
  6  7  1  1
  6  8  1  0
  8 10  1  0
  8  9  2  0
 10 11  1  0
 11 22  1  0
 11 12  1  1
 12 13  1  0
 13 14  2  0
 13 21  1  0
 14 15  1  0
 15 16  1  0
 16 17  2  0
 17 18  1  0
 19 18  2  0
 20 19  1  0
 21 20  2  0
 21 16  1  0
 22 23  2  0
 24 25  1  0
 25 27  1  0
 26 25  2  0
 27 28  1  0
 29 31  1  0
 29 28  1  6
 30 22  1  0
 30 29  1  0
 31 32  1  0
 33 31  2  0
M  END
$$$$
