QWQ.pdb
     RDKit          3D

 33 34  0  0  1  0  0  0  0  0999 V2000
   21.4094  -29.0875  -15.8594 N   0  0  0  0  0  0  0  0  0  0  0  0
   20.8775  -28.4117  -17.0114 C   0  0  0  0  0  0  0  0  0  0  0  0
   20.1601  -29.0516  -17.8154 O   0  0  0  0  0  0  0  0  0  0  0  0
   21.1971  -26.9890  -17.1962 C   0  0  0  0  0  0  0  0  0  0  0  0
   21.9745  -26.3268  -16.1198 C   0  0  0  0  0  0  0  0  0  0  0  0
   22.0474  -24.8407  -16.1524 C   0  0  2  0  0  0  0  0  0  0  0  0
   23.3185  -24.2999  -16.5020 N   0  0  0  0  0  0  0  0  0  0  0  0
   21.6373  -24.2717  -14.8304 C   0  0  0  0  0  0  0  0  0  0  0  0
   22.4861  -24.0251  -13.9306 O   0  0  0  0  0  0  0  0  0  0  0  0
   20.2927  -23.9934  -14.5517 N   0  0  0  0  0  0  0  0  0  0  0  0
   19.8392  -23.4116  -13.2716 C   0  0  1  0  0  0  0  0  0  0  0  0
   19.3146  -22.0440  -13.4749 C   0  0  0  0  0  0  0  0  0  0  0  0
   20.3576  -21.0835  -13.8580 C   0  0  0  0  0  0  0  0  0  0  0  0
   21.3160  -20.4834  -13.0278 C   0  0  0  0  0  0  0  0  0  0  0  0
   22.0780  -19.6342  -13.6944 N   0  0  0  0  0  0  0  0  0  0  0  0
   21.6708  -19.6293  -14.9776 C   0  0  0  0  0  0  0  0  0  0  0  0
   22.1077  -18.9631  -16.0941 C   0  0  0  0  0  0  0  0  0  0  0  0
   21.5222  -19.1530  -17.3357 C   0  0  0  0  0  0  0  0  0  0  0  0
   20.4683  -20.0318  -17.4802 C   0  0  0  0  0  0  0  0  0  0  0  0
   20.0458  -20.6874  -16.3516 C   0  0  0  0  0  0  0  0  0  0  0  0
   20.6112  -20.5176  -15.0944 C   0  0  0  0  0  0  0  0  0  0  0  0
   18.9518  -24.3229  -12.5507 C   0  0  0  0  0  0  0  0  0  0  0  0
   18.1847  -25.1515  -13.1336 O   0  0  0  0  0  0  0  0  0  0  0  0
   18.9163  -29.3625   -9.8630 N   0  0  0  0  0  0  0  0  0  0  0  0
   20.0359  -28.4796  -10.1239 C   0  0  0  0  0  0  0  0  0  0  0  0
   21.1698  -28.9579   -9.9738 O   0  0  0  0  0  0  0  0  0  0  0  0
   19.7965  -27.1123  -10.5330 C   0  0  0  0  0  0  0  0  0  0  0  0
   18.4269  -26.6924  -10.9017 C   0  0  0  0  0  0  0  0  0  0  0  0
   17.9760  -25.3461  -10.4380 C   0  0  2  0  0  0  0  0  0  0  0  0
   18.8642  -24.3674  -11.1235 N   0  0  0  0  0  0  0  0  0  0  0  0
   18.1250  -25.0619   -9.0142 C   0  0  0  0  0  0  0  0  0  0  0  0
   17.3324  -25.6424   -8.0524 O   0  0  0  0  0  0  0  0  0  0  0  0
   19.0224  -24.2440   -8.6331 O   0  0  0  0  0  0  0  0  0  0  0  0
  1  2  1  0
  2  4  1  0
  2  3  2  0
  4  5  1  0
  5  6  1  0
  6  7  1  1
  6  8  1  0
  8 10  1  0
  8  9  2  0
 10 11  1  0
 11 22  1  0
 11 12  1  6
 12 13  1  0
 13 14  2  0
 13 21  1  0
 14 15  1  0
 15 16  1  0
 16 17  2  0
 17 18  1  0
 19 18  2  0
 20 19  1  0
 21 20  2  0
 21 16  1  0
 22 23  2  0
 24 25  1  0
 25 27  1  0
 26 25  2  0
 27 28  1  0
 29 31  1  0
 29 28  1  1
 30 22  1  0
 30 29  1  0
 31 32  1  0
 33 31  2  0
M  END
$$$$
