QWQ.pdb
     RDKit          3D

 33 34  0  0  1  0  0  0  0  0999 V2000
   27.5728  -15.4861  -14.8277 N   0  0  0  0  0  0  0  0  0  0  0  0
   27.6025  -16.2970  -16.0145 C   0  0  0  0  0  0  0  0  0  0  0  0
   27.8261  -15.7504  -17.1199 O   0  0  0  0  0  0  0  0  0  0  0  0
   27.3712  -17.7421  -15.8792 C   0  0  0  0  0  0  0  0  0  0  0  0
   27.2826  -18.2851  -14.5012 C   0  0  0  0  0  0  0  0  0  0  0  0
   27.9622  -19.5829  -14.2390 C   0  0  2  0  0  0  0  0  0  0  0  0
   28.7444  -20.0905  -15.3164 N   0  0  0  0  0  0  0  0  0  0  0  0
   26.9605  -20.6239  -13.8486 C   0  0  0  0  0  0  0  0  0  0  0  0
   26.3624  -21.3168  -14.7163 O   0  0  0  0  0  0  0  0  0  0  0  0
   26.6567  -20.8621  -12.5017 N   0  0  0  0  0  0  0  0  0  0  0  0
   25.4902  -21.6582  -12.0678 C   0  0  1  0  0  0  0  0  0  0  0  0
   25.7032  -22.2012  -10.7090 C   0  0  0  0  0  0  0  0  0  0  0  0
   26.2320  -21.2021   -9.7712 C   0  0  0  0  0  0  0  0  0  0  0  0
   25.5277  -20.1723   -9.1298 C   0  0  0  0  0  0  0  0  0  0  0  0
   26.3227  -19.4283   -8.3811 N   0  0  0  0  0  0  0  0  0  0  0  0
   27.5719  -19.9192   -8.4862 C   0  0  0  0  0  0  0  0  0  0  0  0
   28.7683  -19.5584   -7.9207 C   0  0  0  0  0  0  0  0  0  0  0  0
   29.9383  -20.2559   -8.1757 C   0  0  0  0  0  0  0  0  0  0  0  0
   29.9267  -21.3482   -9.0188 C   0  0  0  0  0  0  0  0  0  0  0  0
   28.7206  -21.6921   -9.5748 C   0  0  0  0  0  0  0  0  0  0  0  0
   27.5323  -21.0128   -9.3393 C   0  0  0  0  0  0  0  0  0  0  0  0
   24.2382  -20.9284  -12.2623 C   0  0  0  0  0  0  0  0  0  0  0  0
   24.1241  -19.6789  -12.0610 O   0  0  0  0  0  0  0  0  0  0  0  0
   22.0866  -20.1015  -17.4083 N   0  0  0  0  0  0  0  0  0  0  0  0
   20.8344  -19.8526  -16.7217 C   0  0  0  0  0  0  0  0  0  0  0  0
   19.9320  -19.3196  -17.3839 O   0  0  0  0  0  0  0  0  0  0  0  0
   20.6895  -20.2199  -15.3295 C   0  0  0  0  0  0  0  0  0  0  0  0
   21.8201  -20.8632  -14.6252 C   0  0  0  0  0  0  0  0  0  0  0  0
   21.8590  -20.7389  -13.1374 C   0  0  2  0  0  0  0  0  0  0  0  0
   23.0262  -21.5516  -12.6971 N   0  0  0  0  0  0  0  0  0  0  0  0
   20.7193  -21.2838  -12.4064 C   0  0  0  0  0  0  0  0  0  0  0  0
   19.6825  -20.5023  -11.9541 O   0  0  0  0  0  0  0  0  0  0  0  0
   20.6706  -22.5335  -12.1707 O   0  0  0  0  0  0  0  0  0  0  0  0
  1  2  1  0
  2  4  1  0
  2  3  2  0
  4  5  1  0
  5  6  1  0
  6  7  1  6
  6  8  1  0
  8 10  1  0
  8  9  2  0
 10 11  1  0
 11 22  1  0
 11 12  1  1
 12 13  1  0
 13 14  2  0
 13 21  1  0
 14 15  1  0
 15 16  1  0
 16 17  2  0
 17 18  1  0
 19 18  2  0
 20 19  1  0
 21 20  2  0
 21 16  1  0
 22 23  2  0
 24 25  1  0
 25 27  1  0
 26 25  2  0
 27 28  1  0
 29 31  1  0
 29 28  1  6
 30 22  1  0
 30 29  1  0
 31 32  1  0
 33 31  2  0
M  END
$$$$
