QWQ.pdb
     RDKit          3D

 33 34  0  0  1  0  0  0  0  0999 V2000
   30.1673  -20.4312  -17.8690 N   0  0  0  0  0  0  0  0  0  0  0  0
   28.9287  -19.7478  -17.6127 C   0  0  0  0  0  0  0  0  0  0  0  0
   28.9537  -18.5268  -17.3313 O   0  0  0  0  0  0  0  0  0  0  0  0
   27.6775  -20.5148  -17.6955 C   0  0  0  0  0  0  0  0  0  0  0  0
   26.9856  -20.8168  -16.4181 C   0  0  0  0  0  0  0  0  0  0  0  0
   27.6126  -21.8346  -15.5317 C   0  0  2  0  0  0  0  0  0  0  0  0
   27.6845  -23.1517  -16.0707 N   0  0  0  0  0  0  0  0  0  0  0  0
   26.8916  -21.8970  -14.2218 C   0  0  0  0  0  0  0  0  0  0  0  0
   25.7427  -22.4091  -14.1291 O   0  0  0  0  0  0  0  0  0  0  0  0
   27.4742  -21.3876  -13.0538 N   0  0  0  0  0  0  0  0  0  0  0  0
   26.7829  -21.3756  -11.7481 C   0  0  1  0  0  0  0  0  0  0  0  0
   27.7530  -21.2144  -10.6438 C   0  0  0  0  0  0  0  0  0  0  0  0
   27.1162  -20.8392   -9.3745 C   0  0  0  0  0  0  0  0  0  0  0  0
   25.7438  -20.7410   -9.1010 C   0  0  0  0  0  0  0  0  0  0  0  0
   25.5192  -20.3374   -7.8629 N   0  0  0  0  0  0  0  0  0  0  0  0
   26.7104  -20.1517   -7.2638 C   0  0  0  0  0  0  0  0  0  0  0  0
   27.0694  -19.7637   -5.9981 C   0  0  0  0  0  0  0  0  0  0  0  0
   28.3965  -19.6696   -5.6102 C   0  0  0  0  0  0  0  0  0  0  0  0
   29.4048  -19.9691   -6.5032 C   0  0  0  0  0  0  0  0  0  0  0  0
   29.0249  -20.3542   -7.7640 C   0  0  0  0  0  0  0  0  0  0  0  0
   27.7046  -20.4570   -8.1824 C   0  0  0  0  0  0  0  0  0  0  0  0
   25.6626  -20.4361  -11.7408 C   0  0  0  0  0  0  0  0  0  0  0  0
   25.7876  -19.2039  -12.0250 O   0  0  0  0  0  0  0  0  0  0  0  0
   23.8232  -18.3820  -15.7070 N   0  0  0  0  0  0  0  0  0  0  0  0
   22.4683  -18.8105  -15.4209 C   0  0  0  0  0  0  0  0  0  0  0  0
   21.5736  -18.3506  -16.1453 O   0  0  0  0  0  0  0  0  0  0  0  0
   22.2168  -19.7278  -14.3303 C   0  0  0  0  0  0  0  0  0  0  0  0
   23.3428  -20.1759  -13.4820 C   0  0  0  0  0  0  0  0  0  0  0  0
   23.1562  -20.1011  -12.0020 C   0  0  2  0  0  0  0  0  0  0  0  0
   24.3226  -20.8156  -11.4139 N   0  0  0  0  0  0  0  0  0  0  0  0
   21.9828  -20.7764  -11.4567 C   0  0  0  0  0  0  0  0  0  0  0  0
   20.8285  -20.1088  -11.1218 O   0  0  0  0  0  0  0  0  0  0  0  0
   22.0161  -22.0360  -11.2783 O   0  0  0  0  0  0  0  0  0  0  0  0
  1  2  1  0
  2  4  1  0
  2  3  2  0
  4  5  1  0
  5  6  1  0
  6  7  1  6
  6  8  1  0
  8 10  1  0
  8  9  2  0
 10 11  1  0
 11 22  1  0
 11 12  1  1
 12 13  1  0
 13 14  2  0
 13 21  1  0
 14 15  1  0
 15 16  1  0
 16 17  2  0
 17 18  1  0
 19 18  2  0
 20 19  1  0
 21 20  2  0
 21 16  1  0
 22 23  2  0
 24 25  1  0
 25 27  1  0
 26 25  2  0
 27 28  1  0
 29 31  1  0
 29 28  1  6
 30 22  1  0
 30 29  1  0
 31 32  1  0
 33 31  2  0
M  END
$$$$
