QWQ.pdb
     RDKit          3D

 33 34  0  0  1  0  0  0  0  0999 V2000
   27.6042  -23.2320  -18.2421 N   0  0  0  0  0  0  0  0  0  0  0  0
   28.6934  -22.4525  -17.7198 C   0  0  0  0  0  0  0  0  0  0  0  0
   29.1624  -21.5200  -18.4135 O   0  0  0  0  0  0  0  0  0  0  0  0
   29.2115  -22.7826  -16.3845 C   0  0  0  0  0  0  0  0  0  0  0  0
   28.2385  -22.7823  -15.2643 C   0  0  0  0  0  0  0  0  0  0  0  0
   27.4578  -21.5345  -15.0449 C   0  0  2  0  0  0  0  0  0  0  0  0
   28.2303  -20.3416  -14.9425 N   0  0  0  0  0  0  0  0  0  0  0  0
   26.6135  -21.6598  -13.8156 C   0  0  0  0  0  0  0  0  0  0  0  0
   25.8964  -22.6775  -13.6132 O   0  0  0  0  0  0  0  0  0  0  0  0
   26.5955  -20.6469  -12.8477 N   0  0  0  0  0  0  0  0  0  0  0  0
   25.6588  -20.6413  -11.7051 C   0  0  1  0  0  0  0  0  0  0  0  0
   26.1854  -19.8108  -10.6007 C   0  0  0  0  0  0  0  0  0  0  0  0
   27.3649  -20.4011   -9.9546 C   0  0  0  0  0  0  0  0  0  0  0  0
   28.3579  -21.1957  -10.5466 C   0  0  0  0  0  0  0  0  0  0  0  0
   29.2570  -21.5938   -9.6637 N   0  0  0  0  0  0  0  0  0  0  0  0
   28.9116  -21.0914   -8.4634 C   0  0  0  0  0  0  0  0  0  0  0  0
   29.4841  -21.1664   -7.2192 C   0  0  0  0  0  0  0  0  0  0  0  0
   28.9341  -20.5252   -6.1206 C   0  0  0  0  0  0  0  0  0  0  0  0
   27.7782  -19.7837   -6.2551 C   0  0  0  0  0  0  0  0  0  0  0  0
   27.2210  -19.7219   -7.5072 C   0  0  0  0  0  0  0  0  0  0  0  0
   27.7476  -20.3538   -8.6263 C   0  0  0  0  0  0  0  0  0  0  0  0
   24.2947  -20.3294  -12.1290 C   0  0  0  0  0  0  0  0  0  0  0  0
   23.9847  -19.2588  -12.7394 O   0  0  0  0  0  0  0  0  0  0  0  0
   20.7239  -24.1729  -15.1384 N   0  0  0  0  0  0  0  0  0  0  0  0
   19.7929  -23.0915  -14.8834 C   0  0  0  0  0  0  0  0  0  0  0  0
   18.6932  -23.1570  -15.4520 O   0  0  0  0  0  0  0  0  0  0  0  0
   20.1713  -22.0057  -14.0048 C   0  0  0  0  0  0  0  0  0  0  0  0
   21.5119  -22.0093  -13.3793 C   0  0  0  0  0  0  0  0  0  0  0  0
   21.8352  -20.8874  -12.4480 C   0  0  2  0  0  0  0  0  0  0  0  0
   23.1828  -21.1989  -11.8969 N   0  0  0  0  0  0  0  0  0  0  0  0
   20.9724  -20.7386  -11.2802 C   0  0  0  0  0  0  0  0  0  0  0  0
   19.7438  -20.1241  -11.3360 O   0  0  0  0  0  0  0  0  0  0  0  0
   21.3616  -21.1921  -10.1567 O   0  0  0  0  0  0  0  0  0  0  0  0
  1  2  1  0
  2  4  1  0
  2  3  2  0
  4  5  1  0
  5  6  1  0
  6  7  1  1
  6  8  1  0
  8 10  1  0
  8  9  2  0
 10 11  1  0
 11 22  1  0
 11 12  1  1
 12 13  1  0
 13 14  2  0
 13 21  1  0
 14 15  1  0
 15 16  1  0
 16 17  2  0
 17 18  1  0
 19 18  2  0
 20 19  1  0
 21 20  2  0
 21 16  1  0
 22 23  2  0
 24 25  1  0
 25 27  1  0
 26 25  2  0
 27 28  1  0
 29 31  1  0
 29 28  1  6
 30 22  1  0
 30 29  1  0
 31 32  1  0
 33 31  2  0
M  END
$$$$
