QWQ.pdb
     RDKit          3D

 33 34  0  0  1  0  0  0  0  0999 V2000
   25.7665  -19.6331  -17.0094 N   0  0  0  0  0  0  0  0  0  0  0  0
   27.0800  -19.6094  -17.5935 C   0  0  0  0  0  0  0  0  0  0  0  0
   27.1908  -19.5489  -18.8404 O   0  0  0  0  0  0  0  0  0  0  0  0
   28.2441  -19.6541  -16.6973 C   0  0  0  0  0  0  0  0  0  0  0  0
   27.9724  -19.6678  -15.2387 C   0  0  0  0  0  0  0  0  0  0  0  0
   28.6393  -20.7280  -14.4349 C   0  0  2  0  0  0  0  0  0  0  0  0
   28.8839  -21.9518  -15.1226 N   0  0  0  0  0  0  0  0  0  0  0  0
   27.8406  -21.0267  -13.2051 C   0  0  0  0  0  0  0  0  0  0  0  0
   26.7103  -21.5819  -13.2757 O   0  0  0  0  0  0  0  0  0  0  0  0
   28.3272  -20.6985  -11.9328 N   0  0  0  0  0  0  0  0  0  0  0  0
   27.5414  -20.8888  -10.6962 C   0  0  1  0  0  0  0  0  0  0  0  0
   28.3261  -20.4844   -9.5099 C   0  0  0  0  0  0  0  0  0  0  0  0
   27.5466  -20.5324   -8.2661 C   0  0  0  0  0  0  0  0  0  0  0  0
   26.2242  -20.9706   -8.1004 C   0  0  0  0  0  0  0  0  0  0  0  0
   25.8186  -20.8402   -6.8496 N   0  0  0  0  0  0  0  0  0  0  0  0
   26.8339  -20.3189   -6.1355 C   0  0  0  0  0  0  0  0  0  0  0  0
   26.9753  -19.9969   -4.8098 C   0  0  0  0  0  0  0  0  0  0  0  0
   28.1588  -19.4837   -4.3034 C   0  0  0  0  0  0  0  0  0  0  0  0
   29.2410  -19.2815   -5.1351 C   0  0  0  0  0  0  0  0  0  0  0  0
   29.0790  -19.6090   -6.4575 C   0  0  0  0  0  0  0  0  0  0  0  0
   27.9061  -20.1237   -6.9945 C   0  0  0  0  0  0  0  0  0  0  0  0
   26.2133  -20.2868  -10.8046 C   0  0  0  0  0  0  0  0  0  0  0  0
   26.0264  -19.0655  -11.1020 O   0  0  0  0  0  0  0  0  0  0  0  0
   22.9617  -24.2743  -14.3187 N   0  0  0  0  0  0  0  0  0  0  0  0
   22.8328  -22.8517  -14.5652 C   0  0  0  0  0  0  0  0  0  0  0  0
   22.7970  -22.4925  -15.7512 O   0  0  0  0  0  0  0  0  0  0  0  0
   22.7575  -21.9304  -13.4518 C   0  0  0  0  0  0  0  0  0  0  0  0
   23.9426  -21.7338  -12.5887 C   0  0  0  0  0  0  0  0  0  0  0  0
   23.8038  -20.7880  -11.4411 C   0  0  2  0  0  0  0  0  0  0  0  0
   25.0016  -21.0152  -10.5865 N   0  0  0  0  0  0  0  0  0  0  0  0
   22.6614  -20.9968  -10.5571 C   0  0  0  0  0  0  0  0  0  0  0  0
   21.4061  -20.5098  -10.8353 O   0  0  0  0  0  0  0  0  0  0  0  0
   22.8199  -21.6556   -9.4799 O   0  0  0  0  0  0  0  0  0  0  0  0
  1  2  1  0
  2  4  1  0
  2  3  2  0
  4  5  1  0
  5  6  1  0
  6  7  1  6
  6  8  1  0
  8 10  1  0
  8  9  2  0
 10 11  1  0
 11 22  1  0
 11 12  1  1
 12 13  1  0
 13 14  2  0
 13 21  1  0
 14 15  1  0
 15 16  1  0
 16 17  2  0
 17 18  1  0
 19 18  2  0
 20 19  1  0
 21 20  2  0
 21 16  1  0
 22 23  2  0
 24 25  1  0
 25 27  1  0
 26 25  2  0
 27 28  1  0
 29 31  1  0
 29 28  1  6
 30 22  1  0
 30 29  1  0
 31 32  1  0
 33 31  2  0
M  END
$$$$
