QWQ.pdb
     RDKit          3D

 33 34  0  0  1  0  0  0  0  0999 V2000
   15.6451   -8.5055  -18.7738 N   0  0  0  0  0  0  0  0  0  0  0  0
   15.0690   -9.8223  -18.7423 C   0  0  0  0  0  0  0  0  0  0  0  0
   14.0514  -10.0585  -19.4347 O   0  0  0  0  0  0  0  0  0  0  0  0
   15.7044  -10.8428  -17.8966 C   0  0  0  0  0  0  0  0  0  0  0  0
   16.9379  -10.4470  -17.1732 C   0  0  0  0  0  0  0  0  0  0  0  0
   18.1732  -11.2244  -17.4639 C   0  0  2  0  0  0  0  0  0  0  0  0
   18.0541  -12.6366  -17.3163 N   0  0  0  0  0  0  0  0  0  0  0  0
   19.2999  -10.7507  -16.6004 C   0  0  0  0  0  0  0  0  0  0  0  0
   19.4078  -11.1230  -15.4001 O   0  0  0  0  0  0  0  0  0  0  0  0
   20.2737   -9.8770  -17.1018 N   0  0  0  0  0  0  0  0  0  0  0  0
   21.3274   -9.2758  -16.2584 C   0  0  1  0  0  0  0  0  0  0  0  0
   22.6433   -9.3562  -16.9281 C   0  0  0  0  0  0  0  0  0  0  0  0
   23.5978  -10.2117  -16.2110 C   0  0  0  0  0  0  0  0  0  0  0  0
   23.3366  -11.4244  -15.5560 C   0  0  0  0  0  0  0  0  0  0  0  0
   24.4203  -11.9115  -14.9776 N   0  0  0  0  0  0  0  0  0  0  0  0
   25.4367  -11.0615  -15.2165 C   0  0  0  0  0  0  0  0  0  0  0  0
   26.7660  -11.0760  -14.8788 C   0  0  0  0  0  0  0  0  0  0  0  0
   27.6329  -10.0702  -15.2754 C   0  0  0  0  0  0  0  0  0  0  0  0
   27.1713   -9.0129  -16.0323 C   0  0  0  0  0  0  0  0  0  0  0  0
   25.8388   -9.0166  -16.3588 C   0  0  0  0  0  0  0  0  0  0  0  0
   24.9457  -10.0089  -15.9757 C   0  0  0  0  0  0  0  0  0  0  0  0
   20.9447   -7.9464  -15.7852 C   0  0  0  0  0  0  0  0  0  0  0  0
   20.5436   -7.0222  -16.5597 O   0  0  0  0  0  0  0  0  0  0  0  0
   17.4309   -6.7374  -10.9097 N   0  0  0  0  0  0  0  0  0  0  0  0
   18.0716   -5.4487  -11.0828 C   0  0  0  0  0  0  0  0  0  0  0  0
   17.6871   -4.5312  -10.3431 O   0  0  0  0  0  0  0  0  0  0  0  0
   19.1021   -5.2842  -12.0854 C   0  0  0  0  0  0  0  0  0  0  0  0
   19.5719   -6.4627  -12.8461 C   0  0  0  0  0  0  0  0  0  0  0  0
   20.5225   -6.2160  -13.9714 C   0  0  2  0  0  0  0  0  0  0  0  0
   20.9857   -7.5620  -14.4079 N   0  0  0  0  0  0  0  0  0  0  0  0
   21.7414   -5.4813  -13.6477 C   0  0  0  0  0  0  0  0  0  0  0  0
   21.7972   -4.1079  -13.6188 O   0  0  0  0  0  0  0  0  0  0  0  0
   22.8047   -6.1269  -13.3790 O   0  0  0  0  0  0  0  0  0  0  0  0
  1  2  1  0
  2  4  1  0
  2  3  2  0
  4  5  1  0
  5  6  1  0
  6  7  1  1
  6  8  1  0
  8 10  1  0
  8  9  2  0
 10 11  1  0
 11 22  1  0
 11 12  1  6
 12 13  1  0
 13 14  2  0
 13 21  1  0
 14 15  1  0
 15 16  1  0
 16 17  2  0
 17 18  1  0
 19 18  2  0
 20 19  1  0
 21 20  2  0
 21 16  1  0
 22 23  2  0
 24 25  1  0
 25 27  1  0
 26 25  2  0
 27 28  1  0
 29 31  1  0
 29 28  1  1
 30 22  1  0
 30 29  1  0
 31 32  1  0
 33 31  2  0
M  END
$$$$
