QWQ.pdb
     RDKit          3D

 33 34  0  0  1  0  0  0  0  0999 V2000
   27.8296  -26.8832  -16.8566 N   0  0  0  0  0  0  0  0  0  0  0  0
   28.4224  -26.2905  -18.0245 C   0  0  0  0  0  0  0  0  0  0  0  0
   29.0248  -27.0257  -18.8414 O   0  0  0  0  0  0  0  0  0  0  0  0
   28.2929  -24.8386  -18.2134 C   0  0  0  0  0  0  0  0  0  0  0  0
   27.6165  -24.0756  -17.1355 C   0  0  0  0  0  0  0  0  0  0  0  0
   28.2344  -22.7843  -16.7289 C   0  0  2  0  0  0  0  0  0  0  0  0
   29.5864  -22.8673  -16.2867 N   0  0  0  0  0  0  0  0  0  0  0  0
   27.4221  -22.1367  -15.6516 C   0  0  0  0  0  0  0  0  0  0  0  0
   27.6207  -22.3976  -14.4337 O   0  0  0  0  0  0  0  0  0  0  0  0
   26.4134  -21.2161  -15.9648 N   0  0  0  0  0  0  0  0  0  0  0  0
   25.6131  -20.5178  -14.9377 C   0  0  1  0  0  0  0  0  0  0  0  0
   26.2159  -19.2091  -14.6050 C   0  0  0  0  0  0  0  0  0  0  0  0
   26.4585  -18.3745  -15.7890 C   0  0  0  0  0  0  0  0  0  0  0  0
   25.5122  -17.6728  -16.5507 C   0  0  0  0  0  0  0  0  0  0  0  0
   26.0710  -17.0541  -17.5760 N   0  0  0  0  0  0  0  0  0  0  0  0
   27.3925  -17.3093  -17.5456 C   0  0  0  0  0  0  0  0  0  0  0  0
   28.4389  -16.9149  -18.3398 C   0  0  0  0  0  0  0  0  0  0  0  0
   29.7432  -17.3032  -18.0782 C   0  0  0  0  0  0  0  0  0  0  0  0
   30.0244  -18.1093  -16.9942 C   0  0  0  0  0  0  0  0  0  0  0  0
   28.9641  -18.4935  -16.2130 C   0  0  0  0  0  0  0  0  0  0  0  0
   27.6470  -18.1218  -16.4499 C   0  0  0  0  0  0  0  0  0  0  0  0
   24.1950  -20.4831  -15.2920 C   0  0  0  0  0  0  0  0  0  0  0  0
   23.7801  -20.4142  -16.4912 O   0  0  0  0  0  0  0  0  0  0  0  0
   19.6348  -24.1455  -13.7467 N   0  0  0  0  0  0  0  0  0  0  0  0
   19.3709  -22.9395  -12.9870 C   0  0  0  0  0  0  0  0  0  0  0  0
   18.5640  -23.0358  -12.0508 O   0  0  0  0  0  0  0  0  0  0  0  0
   20.0354  -21.7037  -13.3413 C   0  0  0  0  0  0  0  0  0  0  0  0
   21.0883  -21.7156  -14.3803 C   0  0  0  0  0  0  0  0  0  0  0  0
   21.7164  -20.4072  -14.7327 C   0  0  2  0  0  0  0  0  0  0  0  0
   23.1431  -20.5237  -14.3234 N   0  0  0  0  0  0  0  0  0  0  0  0
   21.2143  -19.2311  -14.0292 C   0  0  0  0  0  0  0  0  0  0  0  0
   20.1008  -18.5370  -14.4399 O   0  0  0  0  0  0  0  0  0  0  0  0
   21.8235  -18.8197  -12.9903 O   0  0  0  0  0  0  0  0  0  0  0  0
  1  2  1  0
  2  4  1  0
  2  3  2  0
  4  5  1  0
  5  6  1  0
  6  7  1  1
  6  8  1  0
  8 10  1  0
  8  9  2  0
 10 11  1  0
 11 22  1  0
 11 12  1  6
 12 13  1  0
 13 14  2  0
 13 21  1  0
 14 15  1  0
 15 16  1  0
 16 17  2  0
 17 18  1  0
 19 18  2  0
 20 19  1  0
 21 20  2  0
 21 16  1  0
 22 23  2  0
 24 25  1  0
 25 27  1  0
 26 25  2  0
 27 28  1  0
 29 31  1  0
 29 28  1  1
 30 22  1  0
 30 29  1  0
 31 32  1  0
 33 31  2  0
M  END
$$$$
