QWQ.pdb
     RDKit          3D

 33 34  0  0  1  0  0  0  0  0999 V2000
   30.0022  -24.3280  -15.5449 N   0  0  0  0  0  0  0  0  0  0  0  0
   29.5941  -23.5934  -16.7114 C   0  0  0  0  0  0  0  0  0  0  0  0
   29.4814  -24.1981  -17.8033 O   0  0  0  0  0  0  0  0  0  0  0  0
   29.3215  -22.1559  -16.5717 C   0  0  0  0  0  0  0  0  0  0  0  0
   29.5525  -21.5519  -15.2362 C   0  0  0  0  0  0  0  0  0  0  0  0
   28.5519  -20.5590  -14.7591 C   0  0  2  0  0  0  0  0  0  0  0  0
   29.0481  -19.2372  -14.5666 N   0  0  0  0  0  0  0  0  0  0  0  0
   27.9295  -21.0229  -13.4797 C   0  0  0  0  0  0  0  0  0  0  0  0
   27.2068  -22.0558  -13.4385 O   0  0  0  0  0  0  0  0  0  0  0  0
   28.1330  -20.3218  -12.2838 N   0  0  0  0  0  0  0  0  0  0  0  0
   27.4307  -20.6527  -11.0267 C   0  0  1  0  0  0  0  0  0  0  0  0
   28.2045  -20.1855   -9.8563 C   0  0  0  0  0  0  0  0  0  0  0  0
   27.5004  -20.3973   -8.5849 C   0  0  0  0  0  0  0  0  0  0  0  0
   26.2097  -20.9135   -8.3962 C   0  0  0  0  0  0  0  0  0  0  0  0
   25.8714  -20.9306   -7.1190 N   0  0  0  0  0  0  0  0  0  0  0  0
   26.9028  -20.4359   -6.4091 C   0  0  0  0  0  0  0  0  0  0  0  0
   27.1062  -20.2438   -5.0663 C   0  0  0  0  0  0  0  0  0  0  0  0
   28.2939  -19.7281   -4.5724 C   0  0  0  0  0  0  0  0  0  0  0  0
   29.3169  -19.3903   -5.4345 C   0  0  0  0  0  0  0  0  0  0  0  0
   29.0933  -19.5892   -6.7734 C   0  0  0  0  0  0  0  0  0  0  0  0
   27.9146  -20.1029   -7.2984 C   0  0  0  0  0  0  0  0  0  0  0  0
   26.0321  -20.2281  -11.0638 C   0  0  0  0  0  0  0  0  0  0  0  0
   25.6769  -19.0224  -11.2510 O   0  0  0  0  0  0  0  0  0  0  0  0
   22.8112  -24.4047  -14.0787 N   0  0  0  0  0  0  0  0  0  0  0  0
   21.8205  -23.3550  -13.9450 C   0  0  0  0  0  0  0  0  0  0  0  0
   20.7439  -23.5263  -14.5353 O   0  0  0  0  0  0  0  0  0  0  0  0
   22.1172  -22.1792  -13.1553 C   0  0  0  0  0  0  0  0  0  0  0  0
   23.4141  -22.0846  -12.4501 C   0  0  0  0  0  0  0  0  0  0  0  0
   23.6327  -20.8925  -11.5772 C   0  0  2  0  0  0  0  0  0  0  0  0
   24.9339  -21.1290  -10.8935 N   0  0  0  0  0  0  0  0  0  0  0  0
   22.6696  -20.6864  -10.5001 C   0  0  0  0  0  0  0  0  0  0  0  0
   21.5579  -19.8893  -10.6380 O   0  0  0  0  0  0  0  0  0  0  0  0
   22.8547  -21.2626   -9.3806 O   0  0  0  0  0  0  0  0  0  0  0  0
  1  2  1  0
  2  4  1  0
  2  3  2  0
  4  5  1  0
  5  6  1  0
  6  7  1  1
  6  8  1  0
  8 10  1  0
  8  9  2  0
 10 11  1  0
 11 22  1  0
 11 12  1  1
 12 13  1  0
 13 14  2  0
 13 21  1  0
 14 15  1  0
 15 16  1  0
 16 17  2  0
 17 18  1  0
 19 18  2  0
 20 19  1  0
 21 20  2  0
 21 16  1  0
 22 23  2  0
 24 25  1  0
 25 27  1  0
 26 25  2  0
 27 28  1  0
 29 31  1  0
 29 28  1  1
 30 22  1  0
 30 29  1  0
 31 32  1  0
 33 31  2  0
M  END
$$$$
