QWQ.pdb
     RDKit          3D

 33 34  0  0  1  0  0  0  0  0999 V2000
   28.2673  -25.7924  -16.2101 N   0  0  0  0  0  0  0  0  0  0  0  0
   28.7452  -24.7829  -17.1153 C   0  0  0  0  0  0  0  0  0  0  0  0
   29.2527  -25.1341  -18.2061 O   0  0  0  0  0  0  0  0  0  0  0  0
   28.6141  -23.3729  -16.7217 C   0  0  0  0  0  0  0  0  0  0  0  0
   27.9785  -23.0949  -15.4101 C   0  0  0  0  0  0  0  0  0  0  0  0
   26.9233  -22.0460  -15.3769 C   0  0  2  0  0  0  0  0  0  0  0  0
   27.3696  -20.7225  -15.6587 N   0  0  0  0  0  0  0  0  0  0  0  0
   26.2371  -22.0419  -14.0470 C   0  0  0  0  0  0  0  0  0  0  0  0
   25.7545  -23.0981  -13.5546 O   0  0  0  0  0  0  0  0  0  0  0  0
   26.1109  -20.8601  -13.3050 N   0  0  0  0  0  0  0  0  0  0  0  0
   25.2748  -20.7566  -12.0913 C   0  0  1  0  0  0  0  0  0  0  0  0
   25.8906  -19.8396  -11.1081 C   0  0  0  0  0  0  0  0  0  0  0  0
   27.1126  -20.3867  -10.5044 C   0  0  0  0  0  0  0  0  0  0  0  0
   28.0961  -21.1725  -11.1236 C   0  0  0  0  0  0  0  0  0  0  0  0
   29.0443  -21.5282  -10.2747 N   0  0  0  0  0  0  0  0  0  0  0  0
   28.7428  -21.0048   -9.0715 C   0  0  0  0  0  0  0  0  0  0  0  0
   29.3738  -21.0364   -7.8541 C   0  0  0  0  0  0  0  0  0  0  0  0
   28.8599  -20.3815   -6.7461 C   0  0  0  0  0  0  0  0  0  0  0  0
   27.6815  -19.6703   -6.8435 C   0  0  0  0  0  0  0  0  0  0  0  0
   27.0657  -19.6517   -8.0693 C   0  0  0  0  0  0  0  0  0  0  0  0
   27.5551  -20.2983   -9.1969 C   0  0  0  0  0  0  0  0  0  0  0  0
   23.8785  -20.4756  -12.4219 C   0  0  0  0  0  0  0  0  0  0  0  0
   23.5310  -19.7012  -13.3676 O   0  0  0  0  0  0  0  0  0  0  0  0
   20.1500  -24.1410  -15.0804 N   0  0  0  0  0  0  0  0  0  0  0  0
   19.7260  -22.7564  -15.1461 C   0  0  0  0  0  0  0  0  0  0  0  0
   19.2196  -22.3785  -16.2126 O   0  0  0  0  0  0  0  0  0  0  0  0
   19.9081  -21.8910  -14.0006 C   0  0  0  0  0  0  0  0  0  0  0  0
   21.2425  -21.7893  -13.3703 C   0  0  0  0  0  0  0  0  0  0  0  0
   21.3776  -20.8729  -12.1987 C   0  0  2  0  0  0  0  0  0  0  0  0
   22.7744  -21.0456  -11.7131 N   0  0  0  0  0  0  0  0  0  0  0  0
   20.5350  -21.1623  -11.0426 C   0  0  0  0  0  0  0  0  0  0  0  0
   19.1696  -21.0024  -11.0580 O   0  0  0  0  0  0  0  0  0  0  0  0
   21.0741  -21.5808   -9.9684 O   0  0  0  0  0  0  0  0  0  0  0  0
  1  2  1  0
  2  4  1  0
  2  3  2  0
  4  5  1  0
  5  6  1  0
  6  7  1  1
  6  8  1  0
  8 10  1  0
  8  9  2  0
 10 11  1  0
 11 22  1  0
 11 12  1  1
 12 13  1  0
 13 14  2  0
 13 21  1  0
 14 15  1  0
 15 16  1  0
 16 17  2  0
 17 18  1  0
 19 18  2  0
 20 19  1  0
 21 20  2  0
 21 16  1  0
 22 23  2  0
 24 25  1  0
 25 27  1  0
 26 25  2  0
 27 28  1  0
 29 31  1  0
 29 28  1  6
 30 22  1  0
 30 29  1  0
 31 32  1  0
 33 31  2  0
M  END
$$$$
