TIC.pdb
     RDKit          3D

 22 21  0  0  1  0  0  0  0  0999 V2000
   28.7654  -18.2134  -15.7880 C   0  0  0  0  0  0  0  0  0  0  0  0
   27.6230  -19.0153  -15.2428 C   0  0  1  0  0  0  0  0  0  0  0  0
   26.6426  -19.2929  -16.1894 O   0  0  0  0  0  0  0  0  0  0  0  0
   28.0638  -20.3044  -14.5865 C   0  0  2  0  0  0  0  0  0  0  0  0
   28.5345  -21.2189  -15.6152 N   0  0  0  0  0  0  0  0  0  0  0  0
   27.0087  -20.9733  -13.8193 C   0  0  0  0  0  0  0  0  0  0  0  0
   26.3520  -21.9263  -14.3327 O   0  0  0  0  0  0  0  0  0  0  0  0
   26.6022  -20.2746   -8.3401 C   0  0  0  0  0  0  0  0  0  0  0  0
   26.5368  -21.0757   -9.6339 C   0  0  0  0  0  0  0  0  0  0  0  0
   25.3985  -20.4836  -10.4575 C   0  0  2  0  0  0  0  0  0  0  0  0
   24.1130  -20.8957   -9.7355 C   0  0  0  0  0  0  0  0  0  0  0  0
   25.4012  -21.0450  -11.8671 C   0  0  2  0  0  0  0  0  0  0  0  0
   26.6335  -20.6389  -12.4890 N   0  0  0  0  0  0  0  0  0  0  0  0
   24.2078  -20.5530  -12.5587 C   0  0  0  0  0  0  0  0  0  0  0  0
   24.0082  -19.3194  -12.6241 O   0  0  0  0  0  0  0  0  0  0  0  0
   23.2732  -21.4286  -13.1551 N   0  0  0  0  0  0  0  0  0  0  0  0
   22.1601  -20.8872  -13.8928 C   0  0  1  0  0  0  0  0  0  0  0  0
   21.8261  -21.7251  -15.1113 C   0  0  0  0  0  0  0  0  0  0  0  0
   21.6555  -23.4521  -14.5940 S   0  0  0  0  0  0  0  0  0  0  0  0
   20.9589  -20.7647  -13.0270 C   0  0  0  0  0  0  0  0  0  0  0  0
   20.9455  -21.3119  -11.8890 O   0  0  0  0  0  0  0  0  0  0  0  0
   19.8472  -20.0543  -13.4540 O   0  0  0  0  0  0  0  0  0  0  0  0
  2  1  1  6
  2  4  1  0
  2  3  1  0
  4  6  1  0
  4  5  1  6
  6  7  2  0
  8  9  1  0
  9 10  1  0
 10 11  1  1
 10 12  1  0
 12 14  1  0
 12 13  1  6
 13  6  1  0
 14 15  2  0
 16 17  1  0
 16 14  1  0
 17 20  1  0
 17 18  1  6
 19 18  1  0
 20 21  2  0
 20 22  1  0
M  END
$$$$
