TIC.pdb
     RDKit          3D

 22 21  0  0  1  0  0  0  0  0999 V2000
   26.6128  -18.7260  -16.0341 C   0  0  0  0  0  0  0  0  0  0  0  0
   27.4601  -19.8967  -16.4303 C   0  0  1  0  0  0  0  0  0  0  0  0
   28.5897  -19.5387  -17.1583 O   0  0  0  0  0  0  0  0  0  0  0  0
   27.8735  -20.7537  -15.2550 C   0  0  2  0  0  0  0  0  0  0  0  0
   28.5933  -21.9166  -15.7509 N   0  0  0  0  0  0  0  0  0  0  0  0
   26.7520  -21.2187  -14.4331 C   0  0  0  0  0  0  0  0  0  0  0  0
   25.9999  -22.1496  -14.8465 O   0  0  0  0  0  0  0  0  0  0  0  0
   26.7866  -20.6699   -8.9601 C   0  0  0  0  0  0  0  0  0  0  0  0
   26.6180  -21.2885  -10.3416 C   0  0  0  0  0  0  0  0  0  0  0  0
   25.4236  -20.5956  -10.9880 C   0  0  2  0  0  0  0  0  0  0  0  0
   24.2117  -20.9925  -10.1409 C   0  0  0  0  0  0  0  0  0  0  0  0
   25.2314  -21.0684  -12.4169 C   0  0  2  0  0  0  0  0  0  0  0  0
   26.4109  -20.6998  -13.1538 N   0  0  0  0  0  0  0  0  0  0  0  0
   24.0038  -20.4638  -12.9385 C   0  0  0  0  0  0  0  0  0  0  0  0
   23.9103  -19.2166  -12.9799 O   0  0  0  0  0  0  0  0  0  0  0  0
   22.9201  -21.2455  -13.3972 N   0  0  0  0  0  0  0  0  0  0  0  0
   21.7458  -20.5964  -13.9225 C   0  0  1  0  0  0  0  0  0  0  0  0
   21.5127  -20.9396  -15.3807 C   0  0  0  0  0  0  0  0  0  0  0  0
   19.9736  -20.1520  -15.9192 S   0  0  0  0  0  0  0  0  0  0  0  0
   20.5421  -20.9526  -13.1276 C   0  0  0  0  0  0  0  0  0  0  0  0
   19.4463  -20.3651  -13.3483 O   0  0  0  0  0  0  0  0  0  0  0  0
   20.6064  -21.9260  -12.1421 O   0  0  0  0  0  0  0  0  0  0  0  0
  2  1  1  1
  2  4  1  0
  2  3  1  0
  4  6  1  0
  4  5  1  6
  6  7  2  0
  8  9  1  0
  9 10  1  0
 10 11  1  1
 10 12  1  0
 12 14  1  0
 12 13  1  6
 13  6  1  0
 14 15  2  0
 16 17  1  0
 16 14  1  0
 17 20  1  0
 17 18  1  6
 19 18  1  0
 20 21  2  0
 20 22  1  0
M  END
$$$$
