TIC.pdb
     RDKit          3D

 22 21  0  0  1  0  0  0  0  0999 V2000
   30.3951   -9.1144  -17.7034 C   0  0  0  0  0  0  0  0  0  0  0  0
   29.1314   -9.1960  -18.5044 C   0  0  1  0  0  0  0  0  0  0  0  0
   29.3416   -9.1098  -19.8766 O   0  0  0  0  0  0  0  0  0  0  0  0
   28.3157  -10.4324  -18.2002 C   0  0  2  0  0  0  0  0  0  0  0  0
   28.5285  -11.4084  -19.2577 N   0  0  0  0  0  0  0  0  0  0  0  0
   26.8759  -10.1822  -18.0834 C   0  0  0  0  0  0  0  0  0  0  0  0
   26.1521  -10.1200  -19.1204 O   0  0  0  0  0  0  0  0  0  0  0  0
   22.0385  -11.0906  -16.1361 C   0  0  0  0  0  0  0  0  0  0  0  0
   22.7777  -10.0609  -15.2915 C   0  0  0  0  0  0  0  0  0  0  0  0
   24.2667  -10.3303  -15.4780 C   0  0  2  0  0  0  0  0  0  0  0  0
   24.9541   -9.6861  -14.2712 C   0  0  0  0  0  0  0  0  0  0  0  0
   24.7751   -9.6974  -16.7599 C   0  0  2  0  0  0  0  0  0  0  0  0
   26.1796   -9.9937  -16.8579 N   0  0  0  0  0  0  0  0  0  0  0  0
   24.4826   -8.2633  -16.7103 C   0  0  0  0  0  0  0  0  0  0  0  0
   25.4125   -7.4610  -16.4703 O   0  0  0  0  0  0  0  0  0  0  0  0
   23.1816   -7.7562  -16.9251 N   0  0  0  0  0  0  0  0  0  0  0  0
   22.9791   -6.3330  -17.0238 C   0  0  1  0  0  0  0  0  0  0  0  0
   23.7305   -5.7333  -18.1961 C   0  0  0  0  0  0  0  0  0  0  0  0
   23.3658   -3.9610  -18.2685 S   0  0  0  0  0  0  0  0  0  0  0  0
   21.5337   -6.0094  -17.1395 C   0  0  0  0  0  0  0  0  0  0  0  0
   20.7594   -6.7985  -17.7499 O   0  0  0  0  0  0  0  0  0  0  0  0
   21.0211   -4.8469  -16.5838 O   0  0  0  0  0  0  0  0  0  0  0  0
  2  1  1  1
  2  4  1  0
  2  3  1  0
  4  6  1  0
  4  5  1  6
  6  7  2  0
  8  9  1  0
  9 10  1  0
 10 11  1  1
 10 12  1  0
 12 14  1  0
 12 13  1  1
 13  6  1  0
 14 15  2  0
 16 17  1  0
 16 14  1  0
 17 20  1  0
 17 18  1  6
 19 18  1  0
 20 21  2  0
 20 22  1  0
M  END
$$$$
