TIC.pdb
     RDKit          3D

 22 21  0  0  1  0  0  0  0  0999 V2000
   28.9213  -19.1232  -17.3672 C   0  0  0  0  0  0  0  0  0  0  0  0
   27.7908  -19.7066  -16.5754 C   0  0  1  0  0  0  0  0  0  0  0  0
   26.6987  -20.0680  -17.3570 O   0  0  0  0  0  0  0  0  0  0  0  0
   28.2091  -20.8851  -15.7251 C   0  0  2  0  0  0  0  0  0  0  0  0
   28.6124  -21.9760  -16.5989 N   0  0  0  0  0  0  0  0  0  0  0  0
   27.1585  -21.3746  -14.8274 C   0  0  0  0  0  0  0  0  0  0  0  0
   26.4827  -22.4003  -15.1344 O   0  0  0  0  0  0  0  0  0  0  0  0
   25.4141  -20.6840   -8.9654 C   0  0  0  0  0  0  0  0  0  0  0  0
   25.0314  -21.2605  -10.3223 C   0  0  0  0  0  0  0  0  0  0  0  0
   26.0647  -20.7509  -11.3209 C   0  0  2  0  0  0  0  0  0  0  0  0
   25.9459  -19.2249  -11.2909 C   0  0  0  0  0  0  0  0  0  0  0  0
   25.7672  -21.2643  -12.7174 C   0  0  2  0  0  0  0  0  0  0  0  0
   26.8082  -20.7795  -13.5842 N   0  0  0  0  0  0  0  0  0  0  0  0
   24.4292  -20.8067  -13.0984 C   0  0  0  0  0  0  0  0  0  0  0  0
   24.2636  -19.6069  -13.4130 O   0  0  0  0  0  0  0  0  0  0  0  0
   23.3179  -21.6787  -13.1221 N   0  0  0  0  0  0  0  0  0  0  0  0
   22.0350  -21.1857  -13.5549 C   0  0  1  0  0  0  0  0  0  0  0  0
   21.2564  -22.2325  -14.3273 C   0  0  0  0  0  0  0  0  0  0  0  0
   22.2695  -22.7933  -15.7195 S   0  0  0  0  0  0  0  0  0  0  0  0
   21.2288  -20.7171  -12.3982 C   0  0  0  0  0  0  0  0  0  0  0  0
   21.5479  -21.0650  -11.2270 O   0  0  0  0  0  0  0  0  0  0  0  0
   20.1255  -19.8989  -12.5885 O   0  0  0  0  0  0  0  0  0  0  0  0
  2  1  1  6
  2  4  1  0
  2  3  1  0
  4  6  1  0
  4  5  1  6
  6  7  2  0
  8  9  1  0
  9 10  1  0
 10 11  1  6
 10 12  1  0
 12 14  1  0
 12 13  1  6
 13  6  1  0
 14 15  2  0
 16 17  1  0
 16 14  1  0
 17 20  1  0
 17 18  1  1
 19 18  1  0
 20 21  2  0
 20 22  1  0
M  END
$$$$
