TIC.pdb
     RDKit          3D

 22 21  0  0  1  0  0  0  0  0999 V2000
   18.7013  -15.4263  -13.9914 C   0  0  0  0  0  0  0  0  0  0  0  0
   18.4745  -13.9751  -14.2879 C   0  0  1  0  0  0  0  0  0  0  0  0
   18.9729  -13.5804  -15.5249 O   0  0  0  0  0  0  0  0  0  0  0  0
   17.0220  -13.5684  -14.1812 C   0  0  2  0  0  0  0  0  0  0  0  0
   16.2725  -14.2165  -15.2463 N   0  0  0  0  0  0  0  0  0  0  0  0
   16.8001  -12.1221  -14.2722 C   0  0  0  0  0  0  0  0  0  0  0  0
   16.3761  -11.6073  -15.3485 O   0  0  0  0  0  0  0  0  0  0  0  0
   14.6780   -7.6368  -13.5290 C   0  0  0  0  0  0  0  0  0  0  0  0
   15.5726   -7.8633  -12.3173 C   0  0  0  0  0  0  0  0  0  0  0  0
   15.8513   -9.3609  -12.2536 C   0  0  2  0  0  0  0  0  0  0  0  0
   16.4584   -9.6063  -10.8697 C   0  0  0  0  0  0  0  0  0  0  0  0
   16.8372   -9.7745  -13.3302 C   0  0  2  0  0  0  0  0  0  0  0  0
   17.0261  -11.1963  -13.2167 N   0  0  0  0  0  0  0  0  0  0  0  0
   18.0690   -9.0046  -13.1437 C   0  0  0  0  0  0  0  0  0  0  0  0
   18.5989   -8.9703  -12.0106 O   0  0  0  0  0  0  0  0  0  0  0  0
   18.6789   -8.2985  -14.2045 N   0  0  0  0  0  0  0  0  0  0  0  0
   19.9010   -7.5729  -13.9674 C   0  0  1  0  0  0  0  0  0  0  0  0
   21.0060   -7.9985  -14.9142 C   0  0  0  0  0  0  0  0  0  0  0  0
   21.4851   -9.6983  -14.5137 S   0  0  0  0  0  0  0  0  0  0  0  0
   19.6800   -6.1084  -14.0849 C   0  0  0  0  0  0  0  0  0  0  0  0
   18.6029   -5.6726  -14.5794 O   0  0  0  0  0  0  0  0  0  0  0  0
   20.6452   -5.2095  -13.6568 O   0  0  0  0  0  0  0  0  0  0  0  0
  2  1  1  6
  2  4  1  0
  2  3  1  0
  4  6  1  0
  4  5  1  6
  6  7  2  0
  8  9  1  0
  9 10  1  0
 10 11  1  1
 10 12  1  0
 12 14  1  0
 12 13  1  1
 13  6  1  0
 14 15  2  0
 16 17  1  0
 16 14  1  0
 17 20  1  0
 17 18  1  6
 19 18  1  0
 20 21  2  0
 20 22  1  0
M  END
$$$$
