TIC.pdb
     RDKit          3D

 22 21  0  0  1  0  0  0  0  0999 V2000
   25.5185  -23.8306  -13.9949 C   0  0  0  0  0  0  0  0  0  0  0  0
   24.8616  -22.4919  -14.1418 C   0  0  1  0  0  0  0  0  0  0  0  0
   23.5047  -22.5070  -13.8370 O   0  0  0  0  0  0  0  0  0  0  0  0
   25.5425  -21.4064  -13.3390 C   0  0  2  0  0  0  0  0  0  0  0  0
   25.4083  -21.7138  -11.9235 N   0  0  0  0  0  0  0  0  0  0  0  0
   25.0029  -20.0638  -13.5748 C   0  0  0  0  0  0  0  0  0  0  0  0
   24.2915  -19.4974  -12.6938 O   0  0  0  0  0  0  0  0  0  0  0  0
   28.1307  -16.8694  -16.0960 C   0  0  0  0  0  0  0  0  0  0  0  0
   27.0787  -17.2037  -15.0465 C   0  0  0  0  0  0  0  0  0  0  0  0
   25.7322  -17.2028  -15.7615 C   0  0  2  0  0  0  0  0  0  0  0  0
   25.3233  -15.7311  -15.8635 C   0  0  0  0  0  0  0  0  0  0  0  0
   24.6954  -17.9723  -14.9645 C   0  0  2  0  0  0  0  0  0  0  0  0
   25.2118  -19.2988  -14.7553 N   0  0  0  0  0  0  0  0  0  0  0  0
   23.4341  -17.9469  -15.7082 C   0  0  0  0  0  0  0  0  0  0  0  0
   23.4067  -18.3997  -16.8745 O   0  0  0  0  0  0  0  0  0  0  0  0
   22.2454  -17.4264  -15.1496 N   0  0  0  0  0  0  0  0  0  0  0  0
   21.0136  -17.5091  -15.8926 C   0  0  1  0  0  0  0  0  0  0  0  0
   19.8637  -17.9941  -15.0318 C   0  0  0  0  0  0  0  0  0  0  0  0
   20.3959  -19.4791  -14.1426 S   0  0  0  0  0  0  0  0  0  0  0  0
   20.6672  -16.1953  -16.4937 C   0  0  0  0  0  0  0  0  0  0  0  0
   21.3007  -15.1590  -16.1481 O   0  0  0  0  0  0  0  0  0  0  0  0
   19.6528  -16.0914  -17.4334 O   0  0  0  0  0  0  0  0  0  0  0  0
  2  1  1  1
  2  4  1  0
  2  3  1  0
  4  6  1  0
  4  5  1  1
  6  7  2  0
  8  9  1  0
  9 10  1  0
 10 11  1  1
 10 12  1  0
 12 14  1  0
 12 13  1  6
 13  6  1  0
 14 15  2  0
 16 17  1  0
 16 14  1  0
 17 20  1  0
 17 18  1  1
 19 18  1  0
 20 21  2  0
 20 22  1  0
M  END
$$$$
