TIC.pdb
     RDKit          3D

 22 21  0  0  1  0  0  0  0  0999 V2000
   15.9893   -8.1960  -16.1663 C   0  0  0  0  0  0  0  0  0  0  0  0
   16.4963   -9.6060  -16.1838 C   0  0  1  0  0  0  0  0  0  0  0  0
   16.2043  -10.2825  -17.3633 O   0  0  0  0  0  0  0  0  0  0  0  0
   17.9790   -9.7061  -15.9038 C   0  0  2  0  0  0  0  0  0  0  0  0
   18.3614  -11.1096  -15.8900 N   0  0  0  0  0  0  0  0  0  0  0  0
   18.3871   -9.1020  -14.6319 C   0  0  0  0  0  0  0  0  0  0  0  0
   18.0074   -9.6061  -13.5343 O   0  0  0  0  0  0  0  0  0  0  0  0
   21.8044   -6.6870  -11.2882 C   0  0  0  0  0  0  0  0  0  0  0  0
   21.1388   -5.6888  -12.2265 C   0  0  0  0  0  0  0  0  0  0  0  0
   20.7646   -6.4578  -13.4888 C   0  0  2  0  0  0  0  0  0  0  0  0
   20.4581   -5.3909  -14.5430 C   0  0  0  0  0  0  0  0  0  0  0  0
   19.5376   -7.3190  -13.2544 C   0  0  2  0  0  0  0  0  0  0  0  0
   19.2088   -7.9481  -14.5059 N   0  0  0  0  0  0  0  0  0  0  0  0
   18.4700   -6.4633  -12.7322 C   0  0  0  0  0  0  0  0  0  0  0  0
   18.0386   -5.5276  -13.4424 O   0  0  0  0  0  0  0  0  0  0  0  0
   17.9111   -6.6612  -11.4499 N   0  0  0  0  0  0  0  0  0  0  0  0
   16.9351   -5.7282  -10.9467 C   0  0  1  0  0  0  0  0  0  0  0  0
   15.5692   -6.3668  -10.7880 C   0  0  0  0  0  0  0  0  0  0  0  0
   14.9840   -6.8888  -12.4203 S   0  0  0  0  0  0  0  0  0  0  0  0
   17.3709   -5.1533   -9.6478 C   0  0  0  0  0  0  0  0  0  0  0  0
   18.3739   -5.6360   -9.0513 O   0  0  0  0  0  0  0  0  0  0  0  0
   16.6879   -4.0889   -9.0792 O   0  0  0  0  0  0  0  0  0  0  0  0
  2  1  1  6
  2  4  1  0
  2  3  1  0
  4  6  1  0
  4  5  1  1
  6  7  2  0
  8  9  1  0
  9 10  1  0
 10 11  1  6
 10 12  1  0
 12 14  1  0
 12 13  1  6
 13  6  1  0
 14 15  2  0
 16 17  1  0
 16 14  1  0
 17 20  1  0
 17 18  1  1
 19 18  1  0
 20 21  2  0
 20 22  1  0
M  END
$$$$
