TIC.pdb
     RDKit          3D

 22 21  0  0  1  0  0  0  0  0999 V2000
   17.6123  -10.9367  -18.4999 C   0  0  0  0  0  0  0  0  0  0  0  0
   17.4292  -12.0904  -17.5615 C   0  0  1  0  0  0  0  0  0  0  0  0
   16.8305  -13.1958  -18.1565 O   0  0  0  0  0  0  0  0  0  0  0  0
   18.7151  -12.5187  -16.8909 C   0  0  2  0  0  0  0  0  0  0  0  0
   18.4386  -13.6548  -16.0253 N   0  0  0  0  0  0  0  0  0  0  0  0
   19.3471  -11.4674  -16.0880 C   0  0  0  0  0  0  0  0  0  0  0  0
   18.7002  -10.8945  -15.1626 O   0  0  0  0  0  0  0  0  0  0  0  0
   24.3691  -11.8506  -15.3406 C   0  0  0  0  0  0  0  0  0  0  0  0
   23.1995  -11.1537  -14.6578 C   0  0  0  0  0  0  0  0  0  0  0  0
   22.7525  -10.0340  -15.5912 C   0  0  2  0  0  0  0  0  0  0  0  0
   23.4176   -8.7636  -15.0551 C   0  0  0  0  0  0  0  0  0  0  0  0
   21.2436   -9.8770  -15.5647 C   0  0  2  0  0  0  0  0  0  0  0  0
   20.6819  -11.0066  -16.2564 N   0  0  0  0  0  0  0  0  0  0  0  0
   20.9060   -8.5901  -16.1766 C   0  0  0  0  0  0  0  0  0  0  0  0
   21.1692   -8.4041  -17.3858 O   0  0  0  0  0  0  0  0  0  0  0  0
   20.2915   -7.5504  -15.4437 N   0  0  0  0  0  0  0  0  0  0  0  0
   19.9624   -6.3122  -16.1032 C   0  0  1  0  0  0  0  0  0  0  0  0
   18.4708   -6.1725  -16.3357 C   0  0  0  0  0  0  0  0  0  0  0  0
   18.1404   -4.5112  -16.9759 S   0  0  0  0  0  0  0  0  0  0  0  0
   20.4570   -5.1480  -15.3237 C   0  0  0  0  0  0  0  0  0  0  0  0
   20.3241   -5.1297  -14.0680 O   0  0  0  0  0  0  0  0  0  0  0  0
   21.0654   -4.0764  -15.9596 O   0  0  0  0  0  0  0  0  0  0  0  0
  2  1  1  6
  2  4  1  0
  2  3  1  0
  4  6  1  0
  4  5  1  1
  6  7  2  0
  8  9  1  0
  9 10  1  0
 10 11  1  1
 10 12  1  0
 12 14  1  0
 12 13  1  6
 13  6  1  0
 14 15  2  0
 16 17  1  0
 16 14  1  0
 17 20  1  0
 17 18  1  1
 19 18  1  0
 20 21  2  0
 20 22  1  0
M  END
$$$$
