TIC.pdb
     RDKit          3D

 22 21  0  0  1  0  0  0  0  0999 V2000
   17.9774  -12.0813  -18.9575 C   0  0  0  0  0  0  0  0  0  0  0  0
   18.8140  -11.2492  -18.0339 C   0  0  1  0  0  0  0  0  0  0  0  0
   18.1201  -10.1837  -17.4704 O   0  0  0  0  0  0  0  0  0  0  0  0
   19.4669  -12.0577  -16.9354 C   0  0  2  0  0  0  0  0  0  0  0  0
   18.4283  -12.6703  -16.1215 N   0  0  0  0  0  0  0  0  0  0  0  0
   20.3412  -11.2736  -16.0580 C   0  0  0  0  0  0  0  0  0  0  0  0
   19.9390  -10.9116  -14.9133 O   0  0  0  0  0  0  0  0  0  0  0  0
   26.2436  -10.2808  -14.9922 C   0  0  0  0  0  0  0  0  0  0  0  0
   24.8524   -9.6878  -14.8114 C   0  0  0  0  0  0  0  0  0  0  0  0
   23.9182  -10.4799  -15.7193 C   0  0  2  0  0  0  0  0  0  0  0  0
   24.3891  -10.1883  -17.1465 C   0  0  0  0  0  0  0  0  0  0  0  0
   22.4811  -10.0246  -15.5470 C   0  0  2  0  0  0  0  0  0  0  0  0
   21.6623  -10.8604  -16.3843 N   0  0  0  0  0  0  0  0  0  0  0  0
   22.4067   -8.6027  -15.8895 C   0  0  0  0  0  0  0  0  0  0  0  0
   22.4719   -8.2628  -17.0921 O   0  0  0  0  0  0  0  0  0  0  0  0
   22.2633   -7.6012  -14.9035 N   0  0  0  0  0  0  0  0  0  0  0  0
   22.1326   -6.2227  -15.3023 C   0  0  1  0  0  0  0  0  0  0  0  0
   20.6863   -5.8365  -15.5421 C   0  0  0  0  0  0  0  0  0  0  0  0
   20.6017   -4.0446  -15.7896 S   0  0  0  0  0  0  0  0  0  0  0  0
   22.7287   -5.3175  -14.2860 C   0  0  0  0  0  0  0  0  0  0  0  0
   23.0472   -4.1377  -14.6043 O   0  0  0  0  0  0  0  0  0  0  0  0
   22.9409   -5.7530  -12.9867 O   0  0  0  0  0  0  0  0  0  0  0  0
  2  1  1  1
  2  4  1  0
  2  3  1  0
  4  6  1  0
  4  5  1  1
  6  7  2  0
  8  9  1  0
  9 10  1  0
 10 11  1  6
 10 12  1  0
 12 14  1  0
 12 13  1  6
 13  6  1  0
 14 15  2  0
 16 17  1  0
 16 14  1  0
 17 20  1  0
 17 18  1  1
 19 18  1  0
 20 21  2  0
 20 22  1  0
M  END
$$$$
