TIC.pdb
     RDKit          3D

 22 21  0  0  1  0  0  0  0  0999 V2000
   18.4712  -13.5615  -13.8992 C   0  0  0  0  0  0  0  0  0  0  0  0
   17.2787  -14.3990  -14.2482 C   0  0  1  0  0  0  0  0  0  0  0  0
   17.5447  -15.7641  -14.2496 O   0  0  0  0  0  0  0  0  0  0  0  0
   16.0822  -14.1236  -13.3654 C   0  0  2  0  0  0  0  0  0  0  0  0
   14.9676  -14.9435  -13.8145 N   0  0  0  0  0  0  0  0  0  0  0  0
   15.6544  -12.7214  -13.3622 C   0  0  0  0  0  0  0  0  0  0  0  0
   15.2213  -12.1832  -14.4233 O   0  0  0  0  0  0  0  0  0  0  0  0
   13.1108   -8.5470  -11.2763 C   0  0  0  0  0  0  0  0  0  0  0  0
   14.5530   -8.5960  -10.7888 C   0  0  0  0  0  0  0  0  0  0  0  0
   14.9823  -10.0581  -10.8403 C   0  0  2  0  0  0  0  0  0  0  0  0
   16.2184  -10.1540   -9.9421 C   0  0  0  0  0  0  0  0  0  0  0  0
   15.3406  -10.4677  -12.2566 C   0  0  2  0  0  0  0  0  0  0  0  0
   15.6800  -11.8655  -12.2268 N   0  0  0  0  0  0  0  0  0  0  0  0
   16.4344   -9.6105  -12.7187 C   0  0  0  0  0  0  0  0  0  0  0  0
   17.6072   -9.8857  -12.3799 O   0  0  0  0  0  0  0  0  0  0  0  0
   16.2069   -8.4811  -13.5363 N   0  0  0  0  0  0  0  0  0  0  0  0
   17.3262   -7.7045  -14.0056 C   0  0  1  0  0  0  0  0  0  0  0  0
   18.1374   -8.4506  -15.0467 C   0  0  0  0  0  0  0  0  0  0  0  0
   19.4397   -7.3514  -15.6589 S   0  0  0  0  0  0  0  0  0  0  0  0
   16.8731   -6.4043  -14.5640 C   0  0  0  0  0  0  0  0  0  0  0  0
   17.7136   -5.4887  -14.7876 O   0  0  0  0  0  0  0  0  0  0  0  0
   15.5334   -6.1818  -14.8441 O   0  0  0  0  0  0  0  0  0  0  0  0
  2  1  1  1
  2  4  1  0
  2  3  1  0
  4  6  1  0
  4  5  1  6
  6  7  2  0
  8  9  1  0
  9 10  1  0
 10 11  1  1
 10 12  1  0
 12 14  1  0
 12 13  1  1
 13  6  1  0
 14 15  2  0
 16 17  1  0
 16 14  1  0
 17 20  1  0
 17 18  1  6
 19 18  1  0
 20 21  2  0
 20 22  1  0
M  END
$$$$
