TIC.pdb
     RDKit          3D

 22 21  0  0  1  0  0  0  0  0999 V2000
   17.4014  -12.0859  -19.2018 C   0  0  0  0  0  0  0  0  0  0  0  0
   18.7720  -12.1134  -19.8067 C   0  0  1  0  0  0  0  0  0  0  0  0
   19.1299  -10.9157  -20.4164 O   0  0  0  0  0  0  0  0  0  0  0  0
   19.8468  -12.5135  -18.8211 C   0  0  2  0  0  0  0  0  0  0  0  0
   19.5350  -13.8336  -18.2952 N   0  0  0  0  0  0  0  0  0  0  0  0
   19.9951  -11.5886  -17.6933 C   0  0  0  0  0  0  0  0  0  0  0  0
   19.0544  -11.4431  -16.8586 O   0  0  0  0  0  0  0  0  0  0  0  0
   24.0702  -11.5163  -14.5386 C   0  0  0  0  0  0  0  0  0  0  0  0
   22.6478  -11.3652  -15.0618 C   0  0  0  0  0  0  0  0  0  0  0  0
   22.5602   -9.9818  -15.6967 C   0  0  2  0  0  0  0  0  0  0  0  0
   22.6725   -8.9902  -14.5357 C   0  0  0  0  0  0  0  0  0  0  0  0
   21.2329   -9.7955  -16.4078 C   0  0  2  0  0  0  0  0  0  0  0  0
   21.1502  -10.8007  -17.4338 N   0  0  0  0  0  0  0  0  0  0  0  0
   21.1784   -8.4265  -16.9252 C   0  0  0  0  0  0  0  0  0  0  0  0
   21.7695   -8.1569  -17.9948 O   0  0  0  0  0  0  0  0  0  0  0  0
   20.4785   -7.3993  -16.2540 N   0  0  0  0  0  0  0  0  0  0  0  0
   20.2636   -6.1358  -16.9126 C   0  0  1  0  0  0  0  0  0  0  0  0
   19.4001   -6.2811  -18.1502 C   0  0  0  0  0  0  0  0  0  0  0  0
   19.1563   -4.6413  -18.8787 S   0  0  0  0  0  0  0  0  0  0  0  0
   19.6457   -5.1526  -15.9858 C   0  0  0  0  0  0  0  0  0  0  0  0
   18.6252   -5.4752  -15.3157 O   0  0  0  0  0  0  0  0  0  0  0  0
   20.1772   -3.8794  -15.8463 O   0  0  0  0  0  0  0  0  0  0  0  0
  2  1  1  1
  2  4  1  0
  2  3  1  0
  4  6  1  0
  4  5  1  1
  6  7  2  0
  8  9  1  0
  9 10  1  0
 10 11  1  1
 10 12  1  0
 12 14  1  0
 12 13  1  6
 13  6  1  0
 14 15  2  0
 16 17  1  0
 16 14  1  0
 17 20  1  0
 17 18  1  6
 19 18  1  0
 20 21  2  0
 20 22  1  0
M  END
$$$$
