TIC.pdb
     RDKit          3D

 22 21  0  0  1  0  0  0  0  0999 V2000
   27.5411  -17.4611  -15.0726 C   0  0  0  0  0  0  0  0  0  0  0  0
   26.2756  -17.0565  -15.7653 C   0  0  1  0  0  0  0  0  0  0  0  0
   26.4922  -16.4245  -16.9852 O   0  0  0  0  0  0  0  0  0  0  0  0
   25.3138  -18.2067  -15.9619 C   0  0  2  0  0  0  0  0  0  0  0  0
   24.1090  -17.7076  -16.6065 N   0  0  0  0  0  0  0  0  0  0  0  0
   24.9287  -18.8805  -14.7181 C   0  0  0  0  0  0  0  0  0  0  0  0
   24.0788  -18.3525  -13.9423 O   0  0  0  0  0  0  0  0  0  0  0  0
   24.2523  -24.1804  -14.5752 C   0  0  0  0  0  0  0  0  0  0  0  0
   24.0405  -22.6959  -14.3081 C   0  0  0  0  0  0  0  0  0  0  0  0
   25.1043  -22.2770  -13.2994 C   0  0  2  0  0  0  0  0  0  0  0  0
   24.7642  -23.0281  -12.0095 C   0  0  0  0  0  0  0  0  0  0  0  0
   25.0574  -20.7807  -13.0529 C   0  0  2  0  0  0  0  0  0  0  0  0
   25.4427  -20.1311  -14.2775 N   0  0  0  0  0  0  0  0  0  0  0  0
   25.9407  -20.4740  -11.9257 C   0  0  0  0  0  0  0  0  0  0  0  0
   27.1487  -20.7930  -11.9957 O   0  0  0  0  0  0  0  0  0  0  0  0
   25.4712  -19.8283  -10.7602 N   0  0  0  0  0  0  0  0  0  0  0  0
   26.2501  -19.8892   -9.5495 C   0  0  1  0  0  0  0  0  0  0  0  0
   26.3706  -18.5323   -8.8839 C   0  0  0  0  0  0  0  0  0  0  0  0
   27.2295  -18.7399   -7.3034 S   0  0  0  0  0  0  0  0  0  0  0  0
   25.6673  -20.8644   -8.5920 C   0  0  0  0  0  0  0  0  0  0  0  0
   24.4322  -21.1243   -8.6326 O   0  0  0  0  0  0  0  0  0  0  0  0
   26.4653  -21.4960   -7.6501 O   0  0  0  0  0  0  0  0  0  0  0  0
  2  1  1  6
  2  4  1  0
  2  3  1  0
  4  6  1  0
  4  5  1  1
  6  7  2  0
  8  9  1  0
  9 10  1  0
 10 11  1  1
 10 12  1  0
 12 14  1  0
 12 13  1  6
 13  6  1  0
 14 15  2  0
 16 17  1  0
 16 14  1  0
 17 20  1  0
 17 18  1  1
 19 18  1  0
 20 21  2  0
 20 22  1  0
M  END
$$$$
