TIC.pdb
     RDKit          3D

 22 21  0  0  1  0  0  0  0  0999 V2000
   22.9912   -8.1859  -19.2136 C   0  0  0  0  0  0  0  0  0  0  0  0
   22.1802   -9.3850  -19.6003 C   0  0  1  0  0  0  0  0  0  0  0  0
   22.6879  -10.0616  -20.7043 O   0  0  0  0  0  0  0  0  0  0  0  0
   21.9855  -10.3610  -18.4618 C   0  0  2  0  0  0  0  0  0  0  0  0
   21.1854  -11.4806  -18.9336 N   0  0  0  0  0  0  0  0  0  0  0  0
   21.3258   -9.7824  -17.2874 C   0  0  0  0  0  0  0  0  0  0  0  0
   20.1191   -9.4049  -17.3537 O   0  0  0  0  0  0  0  0  0  0  0  0
   19.9949   -9.0640  -12.2247 C   0  0  0  0  0  0  0  0  0  0  0  0
   21.4330   -8.6114  -12.4408 C   0  0  0  0  0  0  0  0  0  0  0  0
   21.9581   -9.3841  -13.6457 C   0  0  2  0  0  0  0  0  0  0  0  0
   23.4718   -9.1554  -13.6513 C   0  0  0  0  0  0  0  0  0  0  0  0
   21.3519   -8.8571  -14.9329 C   0  0  2  0  0  0  0  0  0  0  0  0
   21.9405   -9.5951  -16.0187 N   0  0  0  0  0  0  0  0  0  0  0  0
   21.6036   -7.4160  -15.0017 C   0  0  0  0  0  0  0  0  0  0  0  0
   22.7718   -6.9948  -14.8479 O   0  0  0  0  0  0  0  0  0  0  0  0
   20.5673   -6.4850  -15.2366 N   0  0  0  0  0  0  0  0  0  0  0  0
   20.8771   -5.0802  -15.3186 C   0  0  1  0  0  0  0  0  0  0  0  0
   21.3079   -4.6751  -16.7146 C   0  0  0  0  0  0  0  0  0  0  0  0
   21.5578   -2.8818  -16.7429 S   0  0  0  0  0  0  0  0  0  0  0  0
   19.7160   -4.2552  -14.8957 C   0  0  0  0  0  0  0  0  0  0  0  0
   18.5519   -4.7434  -14.9296 O   0  0  0  0  0  0  0  0  0  0  0  0
   19.8945   -2.9501  -14.4623 O   0  0  0  0  0  0  0  0  0  0  0  0
  2  1  1  1
  2  4  1  0
  2  3  1  0
  4  6  1  0
  4  5  1  6
  6  7  2  0
  8  9  1  0
  9 10  1  0
 10 11  1  6
 10 12  1  0
 12 14  1  0
 12 13  1  6
 13  6  1  0
 14 15  2  0
 16 17  1  0
 16 14  1  0
 17 20  1  0
 17 18  1  6
 19 18  1  0
 20 21  2  0
 20 22  1  0
M  END
$$$$
