TIC.pdb
     RDKit          3D

 22 21  0  0  1  0  0  0  0  0999 V2000
   22.5074  -14.5251  -21.4042 C   0  0  0  0  0  0  0  0  0  0  0  0
   22.4444  -13.9117  -20.0385 C   0  0  1  0  0  0  0  0  0  0  0  0
   23.2266  -14.5753  -19.0993 O   0  0  0  0  0  0  0  0  0  0  0  0
   22.7960  -12.4410  -20.0326 C   0  0  2  0  0  0  0  0  0  0  0  0
   24.1521  -12.2794  -20.5337 N   0  0  0  0  0  0  0  0  0  0  0  0
   22.7128  -11.8140  -18.7100 C   0  0  0  0  0  0  0  0  0  0  0  0
   21.6804  -11.9684  -17.9936 O   0  0  0  0  0  0  0  0  0  0  0  0
   27.1122  -11.4520  -15.8437 C   0  0  0  0  0  0  0  0  0  0  0  0
   25.6037  -11.6285  -15.9573 C   0  0  0  0  0  0  0  0  0  0  0  0
   25.0254  -10.2539  -16.2746 C   0  0  2  0  0  0  0  0  0  0  0  0
   24.9867   -9.5072  -14.9387 C   0  0  0  0  0  0  0  0  0  0  0  0
   23.6223  -10.3739  -16.8394 C   0  0  2  0  0  0  0  0  0  0  0  0
   23.7298  -11.0099  -18.1255 N   0  0  0  0  0  0  0  0  0  0  0  0
   23.0354   -9.0335  -16.8975 C   0  0  0  0  0  0  0  0  0  0  0  0
   23.5907   -8.1564  -17.5964 O   0  0  0  0  0  0  0  0  0  0  0  0
   21.8603   -8.6988  -16.1884 N   0  0  0  0  0  0  0  0  0  0  0  0
   21.3250   -7.3646  -16.2861 C   0  0  1  0  0  0  0  0  0  0  0  0
   19.8937   -7.3630  -16.7860 C   0  0  0  0  0  0  0  0  0  0  0  0
   19.2434   -5.6772  -16.6663 S   0  0  0  0  0  0  0  0  0  0  0  0
   21.3968   -6.6668  -14.9763 C   0  0  0  0  0  0  0  0  0  0  0  0
   21.0632   -7.2746  -13.9209 O   0  0  0  0  0  0  0  0  0  0  0  0
   21.8272   -5.3509  -14.8972 O   0  0  0  0  0  0  0  0  0  0  0  0
  2  1  1  6
  2  4  1  0
  2  3  1  0
  4  6  1  0
  4  5  1  1
  6  7  2  0
  8  9  1  0
  9 10  1  0
 10 11  1  1
 10 12  1  0
 12 14  1  0
 12 13  1  6
 13  6  1  0
 14 15  2  0
 16 17  1  0
 16 14  1  0
 17 20  1  0
 17 18  1  1
 19 18  1  0
 20 21  2  0
 20 22  1  0
M  END
$$$$
