TIC.pdb
     RDKit          3D

 22 21  0  0  1  0  0  0  0  0999 V2000
   26.4899  -18.3541  -15.3803 C   0  0  0  0  0  0  0  0  0  0  0  0
   27.3567  -19.4752  -15.8671 C   0  0  1  0  0  0  0  0  0  0  0  0
   28.4334  -19.0461  -16.6358 O   0  0  0  0  0  0  0  0  0  0  0  0
   27.8611  -20.3620  -14.7509 C   0  0  2  0  0  0  0  0  0  0  0  0
   28.6863  -21.4147  -15.3229 N   0  0  0  0  0  0  0  0  0  0  0  0
   26.7970  -20.9861  -13.9589 C   0  0  0  0  0  0  0  0  0  0  0  0
   26.1203  -21.9425  -14.4391 O   0  0  0  0  0  0  0  0  0  0  0  0
   26.6205  -20.3709   -8.4632 C   0  0  0  0  0  0  0  0  0  0  0  0
   26.5492  -21.0926   -9.8025 C   0  0  0  0  0  0  0  0  0  0  0  0
   25.3265  -20.5445  -10.5299 C   0  0  2  0  0  0  0  0  0  0  0  0
   24.1180  -21.0427   -9.7330 C   0  0  0  0  0  0  0  0  0  0  0  0
   25.2603  -21.0718  -11.9510 C   0  0  2  0  0  0  0  0  0  0  0  0
   26.4338  -20.6024  -12.6386 N   0  0  0  0  0  0  0  0  0  0  0  0
   24.0071  -20.6114  -12.5528 C   0  0  0  0  0  0  0  0  0  0  0  0
   23.7873  -19.3821  -12.6343 O   0  0  0  0  0  0  0  0  0  0  0  0
   23.0369  -21.5127  -13.0450 N   0  0  0  0  0  0  0  0  0  0  0  0
   21.8409  -21.0026  -13.6659 C   0  0  1  0  0  0  0  0  0  0  0  0
   21.2955  -21.9540  -14.7127 C   0  0  0  0  0  0  0  0  0  0  0  0
   22.5451  -22.1656  -16.0061 S   0  0  0  0  0  0  0  0  0  0  0  0
   20.7928  -20.7245  -12.6502 C   0  0  0  0  0  0  0  0  0  0  0  0
   20.8468  -21.2866  -11.5207 O   0  0  0  0  0  0  0  0  0  0  0  0
   19.7514  -19.8517  -12.9272 O   0  0  0  0  0  0  0  0  0  0  0  0
  2  1  1  1
  2  4  1  0
  2  3  1  0
  4  6  1  0
  4  5  1  6
  6  7  2  0
  8  9  1  0
  9 10  1  0
 10 11  1  1
 10 12  1  0
 12 14  1  0
 12 13  1  6
 13  6  1  0
 14 15  2  0
 16 17  1  0
 16 14  1  0
 17 20  1  0
 17 18  1  6
 19 18  1  0
 20 21  2  0
 20 22  1  0
M  END
$$$$
