KPH.pdb
     RDKit          3D

 27 28  0  0  1  0  0  0  0  0999 V2000
    8.2279  -14.4797   19.5794 N   0  0  0  0  0  0  0  0  0  0  0  0
    7.4757  -14.5998   20.7656 C   0  0  1  0  0  0  0  0  0  0  0  0
    6.5762  -15.7893   20.8866 C   0  0  0  0  0  0  0  0  0  0  0  0
    6.8523  -16.9190   19.9671 C   0  0  0  0  0  0  0  0  0  0  0  0
    6.5969  -18.2891   20.4848 C   0  0  0  0  0  0  0  0  0  0  0  0
    6.8050  -19.3743   19.4431 C   0  0  0  0  0  0  0  0  0  0  0  0
    6.4531  -20.6480   20.0174 N   0  0  0  0  0  0  0  0  0  0  0  0
    8.3741  -14.5078   21.9661 C   0  0  0  0  0  0  0  0  0  0  0  0
    9.6090  -14.7741   21.7785 O   0  0  0  0  0  0  0  0  0  0  0  0
    7.9150  -14.1514   23.2424 N   0  0  0  0  0  0  0  0  0  0  0  0
    6.5974  -13.7190   23.5991 C   0  0  0  0  0  0  0  0  0  0  0  0
    6.6195  -13.6494   25.1060 C   0  0  0  0  0  0  0  0  0  0  0  0
    8.0324  -13.2653   25.4183 C   0  0  0  0  0  0  0  0  0  0  0  0
    8.7809  -14.1737   24.4292 C   0  0  1  0  0  0  0  0  0  0  0  0
    8.7737  -15.5210   25.0548 C   0  0  0  0  0  0  0  0  0  0  0  0
    7.6600  -16.0653   25.2632 O   0  0  0  0  0  0  0  0  0  0  0  0
    9.9299  -16.2188   25.4252 N   0  0  0  0  0  0  0  0  0  0  0  0
    9.9442  -17.5548   26.0144 C   0  0  1  0  0  0  0  0  0  0  0  0
    9.9791  -18.6204   24.9832 C   0  0  0  0  0  0  0  0  0  0  0  0
   11.0902  -18.3934   24.0418 C   0  0  0  0  0  0  0  0  0  0  0  0
   11.9834  -17.3322   23.9926 C   0  0  0  0  0  0  0  0  0  0  0  0
   12.8239  -17.5458   22.9685 N   0  0  0  0  0  0  0  0  0  0  0  0
   12.5021  -18.6959   22.3671 C   0  0  0  0  0  0  0  0  0  0  0  0
   11.4502  -19.1929   23.0322 N   0  0  0  0  0  0  0  0  0  0  0  0
   11.0434  -17.6866   26.9906 C   0  0  0  0  0  0  0  0  0  0  0  0
   11.1974  -18.8543   27.7475 O   0  0  0  0  0  0  0  0  0  0  0  0
   11.8895  -16.7892   27.2028 O   0  0  0  0  0  0  0  0  0  0  0  0
  2  1  1  6
  3  4  1  0
  3  2  1  0
  4  5  1  0
  6  5  1  0
  7  6  1  0
  8  9  2  0
  8  2  1  0
 10  8  1  0
 11 10  1  0
 12 11  1  0
 13 12  1  0
 13 14  1  0
 14 10  1  0
 14 15  1  1
 16 15  2  0
 17 15  1  0
 18 17  1  0
 18 19  1  6
 20 19  1  0
 20 21  2  0
 22 21  1  0
 23 22  1  0
 24 23  2  0
 24 20  1  0
 25 18  1  0
 26 25  1  0
 27 25  2  0
M  END
$$$$
