KPH.pdb
     RDKit          3D

 27 28  0  0  1  0  0  0  0  0999 V2000
    8.2732  -14.3121   19.3194 N   0  0  0  0  0  0  0  0  0  0  0  0
    7.5601  -14.6820   20.4779 C   0  0  1  0  0  0  0  0  0  0  0  0
    6.7417  -15.9323   20.4061 C   0  0  0  0  0  0  0  0  0  0  0  0
    7.4924  -17.2027   20.2625 C   0  0  0  0  0  0  0  0  0  0  0  0
    6.6932  -18.4534   20.1763 C   0  0  0  0  0  0  0  0  0  0  0  0
    7.5450  -19.7041   20.0485 C   0  0  0  0  0  0  0  0  0  0  0  0
    6.6849  -20.8598   20.0637 N   0  0  0  0  0  0  0  0  0  0  0  0
    8.4806  -14.7351   21.6639 C   0  0  0  0  0  0  0  0  0  0  0  0
    9.7062  -15.0037   21.4256 O   0  0  0  0  0  0  0  0  0  0  0  0
    8.0510  -14.5072   22.9793 N   0  0  0  0  0  0  0  0  0  0  0  0
    6.7098  -14.2762   23.4243 C   0  0  0  0  0  0  0  0  0  0  0  0
    6.8076  -14.2778   24.9298 C   0  0  0  0  0  0  0  0  0  0  0  0
    8.1720  -13.7205   25.1928 C   0  0  0  0  0  0  0  0  0  0  0  0
    8.9779  -14.4690   24.1187 C   0  0  1  0  0  0  0  0  0  0  0  0
    9.1860  -15.8337   24.6675 C   0  0  0  0  0  0  0  0  0  0  0  0
    8.2060  -16.6209   24.6701 O   0  0  0  0  0  0  0  0  0  0  0  0
   10.4048  -16.2941   25.1808 N   0  0  0  0  0  0  0  0  0  0  0  0
   10.6504  -17.6546   25.6509 C   0  0  1  0  0  0  0  0  0  0  0  0
   12.0484  -18.0864   25.4080 C   0  0  0  0  0  0  0  0  0  0  0  0
   12.3732  -18.0055   23.9727 C   0  0  0  0  0  0  0  0  0  0  0  0
   11.5158  -17.8148   22.8979 C   0  0  0  0  0  0  0  0  0  0  0  0
   12.2528  -17.8097   21.7764 N   0  0  0  0  0  0  0  0  0  0  0  0
   13.5393  -17.9889   22.0939 C   0  0  0  0  0  0  0  0  0  0  0  0
   13.5903  -18.1052   23.4280 N   0  0  0  0  0  0  0  0  0  0  0  0
   10.2595  -17.7996   27.0668 C   0  0  0  0  0  0  0  0  0  0  0  0
   10.2747  -19.0518   27.6929 O   0  0  0  0  0  0  0  0  0  0  0  0
    9.8980  -16.8404   27.7848 O   0  0  0  0  0  0  0  0  0  0  0  0
  2  1  1  6
  3  4  1  0
  3  2  1  0
  4  5  1  0
  6  5  1  0
  7  6  1  0
  8  9  2  0
  8  2  1  0
 10  8  1  0
 11 10  1  0
 12 11  1  0
 13 12  1  0
 13 14  1  0
 14 10  1  0
 14 15  1  1
 16 15  2  0
 17 15  1  0
 18 17  1  0
 18 19  1  1
 20 19  1  0
 20 21  2  0
 22 21  1  0
 23 22  1  0
 24 23  2  0
 24 20  1  0
 25 18  1  0
 26 25  1  0
 27 25  2  0
M  END
$$$$
