KPH.pdb
     RDKit          3D

 27 28  0  0  1  0  0  0  0  0999 V2000
    8.3315  -18.0544   17.7878 N   0  0  0  0  0  0  0  0  0  0  0  0
    7.7339  -17.7045   19.0157 C   0  0  1  0  0  0  0  0  0  0  0  0
    7.3496  -18.8233   19.9317 C   0  0  0  0  0  0  0  0  0  0  0  0
    6.7937  -18.4331   21.2495 C   0  0  0  0  0  0  0  0  0  0  0  0
    6.4108  -19.5331   22.1735 C   0  0  0  0  0  0  0  0  0  0  0  0
    5.9246  -19.0414   23.5255 C   0  0  0  0  0  0  0  0  0  0  0  0
    4.9253  -19.9523   24.0232 N   0  0  0  0  0  0  0  0  0  0  0  0
    8.5875  -16.7083   19.7476 C   0  0  0  0  0  0  0  0  0  0  0  0
    9.7699  -17.0825   20.0526 O   0  0  0  0  0  0  0  0  0  0  0  0
    8.1419  -15.4247   20.0948 N   0  0  0  0  0  0  0  0  0  0  0  0
    6.8131  -14.9062   19.9699 C   0  0  0  0  0  0  0  0  0  0  0  0
    6.8681  -13.5621   20.6529 C   0  0  0  0  0  0  0  0  0  0  0  0
    8.2669  -13.0949   20.3946 C   0  0  0  0  0  0  0  0  0  0  0  0
    9.0364  -14.4007   20.6518 C   0  0  1  0  0  0  0  0  0  0  0  0
    9.1129  -14.5235   22.1303 C   0  0  0  0  0  0  0  0  0  0  0  0
    8.1004  -14.1964   22.7995 O   0  0  0  0  0  0  0  0  0  0  0  0
   10.2421  -14.9805   22.8209 N   0  0  0  0  0  0  0  0  0  0  0  0
   10.3180  -15.1595   24.2681 C   0  0  1  0  0  0  0  0  0  0  0  0
    9.1789  -15.9503   24.7944 C   0  0  0  0  0  0  0  0  0  0  0  0
    8.0391  -15.0702   25.1085 C   0  0  0  0  0  0  0  0  0  0  0  0
    7.9764  -13.6841   25.0714 C   0  0  0  0  0  0  0  0  0  0  0  0
    6.7390  -13.3158   25.4373 N   0  0  0  0  0  0  0  0  0  0  0  0
    6.0153  -14.4080   25.7045 C   0  0  0  0  0  0  0  0  0  0  0  0
    6.8209  -15.4590   25.4993 N   0  0  0  0  0  0  0  0  0  0  0  0
   11.6217  -15.7307   24.6590 C   0  0  0  0  0  0  0  0  0  0  0  0
   11.9844  -15.8401   26.0070 O   0  0  0  0  0  0  0  0  0  0  0  0
   12.4686  -16.1449   23.8360 O   0  0  0  0  0  0  0  0  0  0  0  0
  2  1  1  6
  3  4  1  0
  3  2  1  0
  4  5  1  0
  6  5  1  0
  7  6  1  0
  8  9  2  0
  8  2  1  0
 10  8  1  0
 11 10  1  0
 12 11  1  0
 13 12  1  0
 13 14  1  0
 14 10  1  0
 14 15  1  1
 16 15  2  0
 17 15  1  0
 18 17  1  0
 18 19  1  6
 20 19  1  0
 20 21  2  0
 22 21  1  0
 23 22  1  0
 24 23  2  0
 24 20  1  0
 25 18  1  0
 26 25  1  0
 27 25  2  0
M  END
$$$$
