KPH.pdb
     RDKit          3D

 27 28  0  0  1  0  0  0  0  0999 V2000
    9.5466  -15.2886   15.9468 N   0  0  0  0  0  0  0  0  0  0  0  0
    8.5787  -15.2782   16.9717 C   0  0  1  0  0  0  0  0  0  0  0  0
    7.6043  -16.4131   17.0025 C   0  0  0  0  0  0  0  0  0  0  0  0
    8.1816  -17.7725   17.1315 C   0  0  0  0  0  0  0  0  0  0  0  0
    7.2318  -18.9157   17.0968 C   0  0  0  0  0  0  0  0  0  0  0  0
    7.9068  -20.2644   17.2747 C   0  0  0  0  0  0  0  0  0  0  0  0
    6.9006  -21.2957   17.2702 N   0  0  0  0  0  0  0  0  0  0  0  0
    9.2388  -15.1280   18.3128 C   0  0  0  0  0  0  0  0  0  0  0  0
   10.4341  -15.5662   18.4146 O   0  0  0  0  0  0  0  0  0  0  0  0
    8.6052  -14.5424   19.4184 N   0  0  0  0  0  0  0  0  0  0  0  0
    7.2863  -13.9870   19.4667 C   0  0  0  0  0  0  0  0  0  0  0  0
    7.0642  -13.6718   20.9253 C   0  0  0  0  0  0  0  0  0  0  0  0
    8.4325  -13.3181   21.4196 C   0  0  0  0  0  0  0  0  0  0  0  0
    9.2580  -14.4156   20.7286 C   0  0  1  0  0  0  0  0  0  0  0  0
    9.0379  -15.6393   21.5415 C   0  0  0  0  0  0  0  0  0  0  0  0
    8.3924  -16.5828   21.0187 O   0  0  0  0  0  0  0  0  0  0  0  0
    9.5049  -15.8041   22.8514 N   0  0  0  0  0  0  0  0  0  0  0  0
   10.6021  -16.6858   23.2402 C   0  0  1  0  0  0  0  0  0  0  0  0
   11.8380  -16.4154   22.4661 C   0  0  0  0  0  0  0  0  0  0  0  0
   12.0049  -17.4116   21.3928 C   0  0  0  0  0  0  0  0  0  0  0  0
   11.1529  -18.4443   21.0266 C   0  0  0  0  0  0  0  0  0  0  0  0
   11.7129  -19.0973   19.9965 N   0  0  0  0  0  0  0  0  0  0  0  0
   12.8822  -18.5233   19.6945 C   0  0  0  0  0  0  0  0  0  0  0  0
   13.0400  -17.5051   20.5514 N   0  0  0  0  0  0  0  0  0  0  0  0
   10.8319  -16.6271   24.6970 C   0  0  0  0  0  0  0  0  0  0  0  0
   11.0438  -17.7949   25.4398 O   0  0  0  0  0  0  0  0  0  0  0  0
   10.8529  -15.5597   25.3501 O   0  0  0  0  0  0  0  0  0  0  0  0
  2  1  1  6
  3  4  1  0
  3  2  1  0
  4  5  1  0
  6  5  1  0
  7  6  1  0
  8  9  2  0
  8  2  1  0
 10  8  1  0
 11 10  1  0
 12 11  1  0
 13 12  1  0
 13 14  1  0
 14 10  1  0
 14 15  1  1
 16 15  2  0
 17 15  1  0
 18 17  1  0
 18 19  1  6
 20 19  1  0
 20 21  2  0
 22 21  1  0
 23 22  1  0
 24 23  2  0
 24 20  1  0
 25 18  1  0
 26 25  1  0
 27 25  2  0
M  END
$$$$
