KPH.pdb
     RDKit          3D

 27 28  0  0  1  0  0  0  0  0999 V2000
    8.4195  -14.6709   20.2467 N   0  0  0  0  0  0  0  0  0  0  0  0
    7.6721  -14.8160   21.4332 C   0  0  1  0  0  0  0  0  0  0  0  0
    6.7576  -15.9966   21.5242 C   0  0  0  0  0  0  0  0  0  0  0  0
    6.6243  -16.8215   20.2996 C   0  0  0  0  0  0  0  0  0  0  0  0
    6.9908  -18.2581   20.4097 C   0  0  0  0  0  0  0  0  0  0  0  0
    6.9353  -18.9966   19.0840 C   0  0  0  0  0  0  0  0  0  0  0  0
    7.3996  -20.3463   19.2801 N   0  0  0  0  0  0  0  0  0  0  0  0
    8.5780  -14.7713   22.6307 C   0  0  0  0  0  0  0  0  0  0  0  0
    9.7814  -15.1601   22.4527 O   0  0  0  0  0  0  0  0  0  0  0  0
    8.1580  -14.3315   23.8943 N   0  0  0  0  0  0  0  0  0  0  0  0
    6.8530  -13.8703   24.2610 C   0  0  0  0  0  0  0  0  0  0  0  0
    6.9199  -13.7044   25.7590 C   0  0  0  0  0  0  0  0  0  0  0  0
    8.3427  -13.3084   26.0045 C   0  0  0  0  0  0  0  0  0  0  0  0
    9.0586  -14.2821   25.0543 C   0  0  1  0  0  0  0  0  0  0  0  0
    9.0655  -15.5866   25.7650 C   0  0  0  0  0  0  0  0  0  0  0  0
    7.9599  -16.1474   25.9729 O   0  0  0  0  0  0  0  0  0  0  0  0
   10.2264  -16.2268   26.2159 N   0  0  0  0  0  0  0  0  0  0  0  0
   10.2627  -17.5510   26.8304 C   0  0  1  0  0  0  0  0  0  0  0  0
   11.4407  -18.3386   26.3923 C   0  0  0  0  0  0  0  0  0  0  0  0
   11.5969  -18.2655   24.9286 C   0  0  0  0  0  0  0  0  0  0  0  0
   10.6188  -18.3362   23.9464 C   0  0  0  0  0  0  0  0  0  0  0  0
   11.2220  -18.2249   22.7528 N   0  0  0  0  0  0  0  0  0  0  0  0
   12.5392  -18.0868   22.9362 C   0  0  0  0  0  0  0  0  0  0  0  0
   12.7450  -18.1140   24.2600 N   0  0  0  0  0  0  0  0  0  0  0  0
   10.1738  -17.4505   28.3003 C   0  0  0  0  0  0  0  0  0  0  0  0
   10.0939  -18.5994   29.0965 O   0  0  0  0  0  0  0  0  0  0  0  0
   10.1642  -16.3624   28.9185 O   0  0  0  0  0  0  0  0  0  0  0  0
  2  1  1  6
  3  4  1  0
  3  2  1  0
  4  5  1  0
  6  5  1  0
  7  6  1  0
  8  9  2  0
  8  2  1  0
 10  8  1  0
 11 10  1  0
 12 11  1  0
 13 12  1  0
 13 14  1  0
 14 10  1  0
 14 15  1  1
 16 15  2  0
 17 15  1  0
 18 17  1  0
 18 19  1  1
 20 19  1  0
 20 21  2  0
 22 21  1  0
 23 22  1  0
 24 23  2  0
 24 20  1  0
 25 18  1  0
 26 25  1  0
 27 25  2  0
M  END
$$$$
