KPH.pdb
     RDKit          3D

 27 28  0  0  1  0  0  0  0  0999 V2000
    8.7231  -17.2895   17.1873 N   0  0  0  0  0  0  0  0  0  0  0  0
    8.1651  -17.5113   18.4628 C   0  0  1  0  0  0  0  0  0  0  0  0
    7.9425  -18.9327   18.8733 C   0  0  0  0  0  0  0  0  0  0  0  0
    7.4097  -19.1470   20.2401 C   0  0  0  0  0  0  0  0  0  0  0  0
    7.2815  -20.5543   20.7020 C   0  0  0  0  0  0  0  0  0  0  0  0
    6.9074  -21.5203   19.5916 C   0  0  0  0  0  0  0  0  0  0  0  0
    6.9541  -22.8654   20.1058 N   0  0  0  0  0  0  0  0  0  0  0  0
    8.9591  -16.7889   19.5137 C   0  0  0  0  0  0  0  0  0  0  0  0
   10.2165  -17.0118   19.5351 O   0  0  0  0  0  0  0  0  0  0  0  0
    8.3827  -15.9081   20.4404 N   0  0  0  0  0  0  0  0  0  0  0  0
    6.9971  -15.5704   20.5680 C   0  0  0  0  0  0  0  0  0  0  0  0
    6.9272  -14.7371   21.8237 C   0  0  0  0  0  0  0  0  0  0  0  0
    8.2455  -14.0279   21.8474 C   0  0  0  0  0  0  0  0  0  0  0  0
    9.1767  -15.1816   21.4408 C   0  0  1  0  0  0  0  0  0  0  0  0
    9.3429  -16.0002   22.6692 C   0  0  0  0  0  0  0  0  0  0  0  0
    8.3578  -16.6745   23.0628 O   0  0  0  0  0  0  0  0  0  0  0  0
   10.5278  -16.0653   23.4128 N   0  0  0  0  0  0  0  0  0  0  0  0
   10.7245  -16.8982   24.5959 C   0  0  1  0  0  0  0  0  0  0  0  0
   12.1079  -17.4256   24.6848 C   0  0  0  0  0  0  0  0  0  0  0  0
   12.5377  -17.9727   23.3856 C   0  0  0  0  0  0  0  0  0  0  0  0
   12.7156  -17.3085   22.1799 C   0  0  0  0  0  0  0  0  0  0  0  0
   13.1139  -18.2078   21.2668 N   0  0  0  0  0  0  0  0  0  0  0  0
   13.1959  -19.4123   21.8415 C   0  0  0  0  0  0  0  0  0  0  0  0
   12.8431  -19.2480   23.1238 N   0  0  0  0  0  0  0  0  0  0  0  0
   10.3228  -16.1762   25.8191 C   0  0  0  0  0  0  0  0  0  0  0  0
    9.8336  -14.8660   25.7534 O   0  0  0  0  0  0  0  0  0  0  0  0
   10.3897  -16.6715   26.9664 O   0  0  0  0  0  0  0  0  0  0  0  0
  2  1  1  6
  3  4  1  0
  3  2  1  0
  4  5  1  0
  6  5  1  0
  7  6  1  0
  8  9  2  0
  8  2  1  0
 10  8  1  0
 11 10  1  0
 12 11  1  0
 13 12  1  0
 13 14  1  0
 14 10  1  0
 14 15  1  1
 16 15  2  0
 17 15  1  0
 18 17  1  0
 18 19  1  1
 20 19  1  0
 20 21  2  0
 22 21  1  0
 23 22  1  0
 24 23  2  0
 24 20  1  0
 25 18  1  0
 26 25  1  0
 27 25  2  0
M  END
$$$$
