KPH.pdb
     RDKit          3D

 27 28  0  0  1  0  0  0  0  0999 V2000
    7.6292  -17.9177   17.5511 N   0  0  0  0  0  0  0  0  0  0  0  0
    7.0335  -17.1138   18.5442 C   0  0  1  0  0  0  0  0  0  0  0  0
    6.0098  -17.7603   19.4231 C   0  0  0  0  0  0  0  0  0  0  0  0
    6.3707  -19.0810   19.9919 C   0  0  0  0  0  0  0  0  0  0  0  0
    5.3358  -19.7714   20.8059 C   0  0  0  0  0  0  0  0  0  0  0  0
    5.8304  -21.0585   21.4420 C   0  0  0  0  0  0  0  0  0  0  0  0
    4.7916  -21.5935   22.2849 N   0  0  0  0  0  0  0  0  0  0  0  0
    8.0889  -16.4507   19.3827 C   0  0  0  0  0  0  0  0  0  0  0  0
    9.2146  -17.0484   19.4639 O   0  0  0  0  0  0  0  0  0  0  0  0
    7.8836  -15.2379   20.0563 N   0  0  0  0  0  0  0  0  0  0  0  0
    6.6629  -14.4955   20.1504 C   0  0  0  0  0  0  0  0  0  0  0  0
    6.9699  -13.3893   21.1293 C   0  0  0  0  0  0  0  0  0  0  0  0
    8.4214  -13.1069   20.8948 C   0  0  0  0  0  0  0  0  0  0  0  0
    8.9577  -14.5430   20.7793 C   0  0  1  0  0  0  0  0  0  0  0  0
    9.0509  -15.0383   22.1767 C   0  0  0  0  0  0  0  0  0  0  0  0
    8.0855  -14.8055   22.9474 O   0  0  0  0  0  0  0  0  0  0  0  0
   10.1465  -15.7467   22.6852 N   0  0  0  0  0  0  0  0  0  0  0  0
   10.3493  -16.0683   24.0951 C   0  0  1  0  0  0  0  0  0  0  0  0
   10.0648  -17.4937   24.3901 C   0  0  0  0  0  0  0  0  0  0  0  0
    8.6289  -17.7804   24.2225 C   0  0  0  0  0  0  0  0  0  0  0  0
    7.5950  -16.8992   23.9380 C   0  0  0  0  0  0  0  0  0  0  0  0
    6.4548  -17.6043   23.8778 N   0  0  0  0  0  0  0  0  0  0  0  0
    6.7214  -18.8935   24.1118 C   0  0  0  0  0  0  0  0  0  0  0  0
    8.0428  -18.9785   24.3180 N   0  0  0  0  0  0  0  0  0  0  0  0
   11.6989  -15.6655   24.5368 C   0  0  0  0  0  0  0  0  0  0  0  0
   12.0766  -15.7680   25.8811 O   0  0  0  0  0  0  0  0  0  0  0  0
   12.5737  -15.2175   23.7620 O   0  0  0  0  0  0  0  0  0  0  0  0
  2  1  1  6
  3  4  1  0
  3  2  1  0
  4  5  1  0
  6  5  1  0
  7  6  1  0
  8  9  2  0
  8  2  1  0
 10  8  1  0
 11 10  1  0
 12 11  1  0
 13 12  1  0
 13 14  1  0
 14 10  1  0
 14 15  1  1
 16 15  2  0
 17 15  1  0
 18 17  1  0
 18 19  1  6
 20 19  1  0
 20 21  2  0
 22 21  1  0
 23 22  1  0
 24 23  2  0
 24 20  1  0
 25 18  1  0
 26 25  1  0
 27 25  2  0
M  END
$$$$
