KPH.pdb
     RDKit          3D

 27 28  0  0  1  0  0  0  0  0999 V2000
    6.9118  -17.4455   21.5705 N   0  0  0  0  0  0  0  0  0  0  0  0
    7.7900  -16.6655   20.7909 C   0  0  1  0  0  0  0  0  0  0  0  0
    7.1917  -15.8826   19.6651 C   0  0  0  0  0  0  0  0  0  0  0  0
    8.1450  -15.1827   18.7710 C   0  0  0  0  0  0  0  0  0  0  0  0
    7.5666  -14.2781   17.7426 C   0  0  0  0  0  0  0  0  0  0  0  0
    8.6168  -13.5776   16.8984 C   0  0  0  0  0  0  0  0  0  0  0  0
    7.9632  -12.6391   16.0221 N   0  0  0  0  0  0  0  0  0  0  0  0
    8.6080  -15.7628   21.6699 C   0  0  0  0  0  0  0  0  0  0  0  0
    9.8601  -15.7062   21.4246 O   0  0  0  0  0  0  0  0  0  0  0  0
    8.0588  -15.0067   22.7155 N   0  0  0  0  0  0  0  0  0  0  0  0
    6.6769  -14.9019   23.0752 C   0  0  0  0  0  0  0  0  0  0  0  0
    6.6821  -14.1168   24.3635 C   0  0  0  0  0  0  0  0  0  0  0  0
    7.8583  -13.2030   24.2122 C   0  0  0  0  0  0  0  0  0  0  0  0
    8.8808  -14.1811   23.6110 C   0  0  1  0  0  0  0  0  0  0  0  0
    9.3716  -14.9865   24.7587 C   0  0  0  0  0  0  0  0  0  0  0  0
    8.6111  -15.8746   25.2203 O   0  0  0  0  0  0  0  0  0  0  0  0
   10.6270  -14.8160   25.3553 N   0  0  0  0  0  0  0  0  0  0  0  0
   11.0065  -15.3427   26.6633 C   0  0  1  0  0  0  0  0  0  0  0  0
   10.3579  -14.6033   27.7735 C   0  0  0  0  0  0  0  0  0  0  0  0
   10.6801  -15.2277   29.0691 C   0  0  0  0  0  0  0  0  0  0  0  0
   11.5045  -16.3138   29.3283 C   0  0  0  0  0  0  0  0  0  0  0  0
   11.4995  -16.5305   30.6527 N   0  0  0  0  0  0  0  0  0  0  0  0
   10.7080  -15.6291   31.2434 C   0  0  0  0  0  0  0  0  0  0  0  0
   10.2221  -14.8501   30.2673 N   0  0  0  0  0  0  0  0  0  0  0  0
   10.7546  -16.7952   26.7378 C   0  0  0  0  0  0  0  0  0  0  0  0
    9.4532  -17.3049   26.6554 O   0  0  0  0  0  0  0  0  0  0  0  0
   11.6611  -17.6468   26.8758 O   0  0  0  0  0  0  0  0  0  0  0  0
  2  1  1  1
  3  4  1  0
  3  2  1  0
  4  5  1  0
  6  5  1  0
  7  6  1  0
  8  9  2  0
  8  2  1  0
 10  8  1  0
 11 10  1  0
 12 11  1  0
 13 12  1  0
 13 14  1  0
 14 10  1  0
 14 15  1  1
 16 15  2  0
 17 15  1  0
 18 17  1  0
 18 19  1  1
 20 19  1  0
 20 21  2  0
 22 21  1  0
 23 22  1  0
 24 23  2  0
 24 20  1  0
 25 18  1  0
 26 25  1  0
 27 25  2  0
M  END
$$$$
