KPH.pdb
     RDKit          3D

 27 28  0  0  1  0  0  0  0  0999 V2000
    8.9447  -16.4684   19.7783 N   0  0  0  0  0  0  0  0  0  0  0  0
    8.0889  -16.1620   20.8559 C   0  0  1  0  0  0  0  0  0  0  0  0
    7.1871  -17.2517   21.3432 C   0  0  0  0  0  0  0  0  0  0  0  0
    7.8297  -18.5548   21.6382 C   0  0  0  0  0  0  0  0  0  0  0  0
    6.9311  -19.6892   21.9788 C   0  0  0  0  0  0  0  0  0  0  0  0
    7.6631  -21.0105   22.1349 C   0  0  0  0  0  0  0  0  0  0  0  0
    6.7133  -22.0320   22.4962 N   0  0  0  0  0  0  0  0  0  0  0  0
    8.8749  -15.5912   22.0018 C   0  0  0  0  0  0  0  0  0  0  0  0
   10.1251  -15.8511   22.0240 O   0  0  0  0  0  0  0  0  0  0  0  0
    8.2986  -14.8093   23.0134 N   0  0  0  0  0  0  0  0  0  0  0  0
    6.9198  -14.4475   23.1486 C   0  0  0  0  0  0  0  0  0  0  0  0
    6.8397  -13.7670   24.4927 C   0  0  0  0  0  0  0  0  0  0  0  0
    8.1758  -13.1057   24.6307 C   0  0  0  0  0  0  0  0  0  0  0  0
    9.0855  -14.2307   24.1110 C   0  0  1  0  0  0  0  0  0  0  0  0
    9.1971  -15.1936   25.2367 C   0  0  0  0  0  0  0  0  0  0  0  0
    8.1889  -15.8911   25.5143 O   0  0  0  0  0  0  0  0  0  0  0  0
   10.3546  -15.3700   26.0048 N   0  0  0  0  0  0  0  0  0  0  0  0
   10.4783  -16.2994   27.1242 C   0  0  1  0  0  0  0  0  0  0  0  0
   11.7393  -17.0783   27.0677 C   0  0  0  0  0  0  0  0  0  0  0  0
   11.8755  -17.7487   25.7623 C   0  0  0  0  0  0  0  0  0  0  0  0
   10.9873  -17.7612   24.6958 C   0  0  0  0  0  0  0  0  0  0  0  0
   11.5281  -18.5008   23.7154 N   0  0  0  0  0  0  0  0  0  0  0  0
   12.7200  -18.9572   24.1143 C   0  0  0  0  0  0  0  0  0  0  0  0
   12.9111  -18.4906   25.3558 N   0  0  0  0  0  0  0  0  0  0  0  0
   10.3140  -15.5959   28.4115 C   0  0  0  0  0  0  0  0  0  0  0  0
   10.1345  -14.2081   28.4553 O   0  0  0  0  0  0  0  0  0  0  0  0
   10.3235  -16.1752   29.5208 O   0  0  0  0  0  0  0  0  0  0  0  0
  2  1  1  6
  3  4  1  0
  3  2  1  0
  4  5  1  0
  6  5  1  0
  7  6  1  0
  8  9  2  0
  8  2  1  0
 10  8  1  0
 11 10  1  0
 12 11  1  0
 13 12  1  0
 13 14  1  0
 14 10  1  0
 14 15  1  1
 16 15  2  0
 17 15  1  0
 18 17  1  0
 18 19  1  1
 20 19  1  0
 20 21  2  0
 22 21  1  0
 23 22  1  0
 24 23  2  0
 24 20  1  0
 25 18  1  0
 26 25  1  0
 27 25  2  0
M  END
$$$$
