KPH.pdb
     RDKit          3D

 27 28  0  0  1  0  0  0  0  0999 V2000
   12.8669  -13.9372   17.1233 N   0  0  0  0  0  0  0  0  0  0  0  0
   11.5685  -14.3951   17.4261 C   0  0  1  0  0  0  0  0  0  0  0  0
   11.2660  -15.8315   17.1370 C   0  0  0  0  0  0  0  0  0  0  0  0
   12.0044  -16.8341   17.9416 C   0  0  0  0  0  0  0  0  0  0  0  0
   11.6777  -18.2648   17.7030 C   0  0  0  0  0  0  0  0  0  0  0  0
   12.5295  -19.2207   18.5197 C   0  0  0  0  0  0  0  0  0  0  0  0
   12.0604  -20.5659   18.3048 N   0  0  0  0  0  0  0  0  0  0  0  0
   11.2185  -14.0704   18.8505 C   0  0  0  0  0  0  0  0  0  0  0  0
   12.1940  -13.9446   19.6651 O   0  0  0  0  0  0  0  0  0  0  0  0
    9.8995  -13.9073   19.2983 N   0  0  0  0  0  0  0  0  0  0  0  0
    8.7010  -14.0297   18.5245 C   0  0  0  0  0  0  0  0  0  0  0  0
    7.5876  -13.9347   19.5382 C   0  0  0  0  0  0  0  0  0  0  0  0
    8.1416  -13.0155   20.5820 C   0  0  0  0  0  0  0  0  0  0  0  0
    9.5732  -13.5655   20.6896 C   0  0  1  0  0  0  0  0  0  0  0  0
    9.4577  -14.7950   21.5153 C   0  0  0  0  0  0  0  0  0  0  0  0
    8.9165  -15.8029   20.9945 O   0  0  0  0  0  0  0  0  0  0  0  0
    9.9142  -14.8979   22.8351 N   0  0  0  0  0  0  0  0  0  0  0  0
    9.8720  -16.1163   23.6389 C   0  0  1  0  0  0  0  0  0  0  0  0
   11.1388  -16.3440   24.3760 C   0  0  0  0  0  0  0  0  0  0  0  0
   12.2797  -16.3858   23.4440 C   0  0  0  0  0  0  0  0  0  0  0  0
   12.2824  -16.2139   22.0667 C   0  0  0  0  0  0  0  0  0  0  0  0
   13.5477  -16.3367   21.6368 N   0  0  0  0  0  0  0  0  0  0  0  0
   14.3463  -16.5789   22.6815 C   0  0  0  0  0  0  0  0  0  0  0  0
   13.5591  -16.6046   23.7656 N   0  0  0  0  0  0  0  0  0  0  0  0
    8.6981  -16.1148   24.5337 C   0  0  0  0  0  0  0  0  0  0  0  0
    8.3646  -17.2482   25.2850 O   0  0  0  0  0  0  0  0  0  0  0  0
    7.9417  -15.1284   24.6784 O   0  0  0  0  0  0  0  0  0  0  0  0
  2  1  1  1
  3  4  1  0
  3  2  1  0
  4  5  1  0
  6  5  1  0
  7  6  1  0
  8  9  2  0
  8  2  1  0
 10  8  1  0
 11 10  1  0
 12 11  1  0
 13 12  1  0
 13 14  1  0
 14 10  1  0
 14 15  1  1
 16 15  2  0
 17 15  1  0
 18 17  1  0
 18 19  1  1
 20 19  1  0
 20 21  2  0
 22 21  1  0
 23 22  1  0
 24 23  2  0
 24 20  1  0
 25 18  1  0
 26 25  1  0
 27 25  2  0
M  END
$$$$
