KPH.pdb
     RDKit          3D

 27 28  0  0  1  0  0  0  0  0999 V2000
    8.5043  -14.6369   21.2325 N   0  0  0  0  0  0  0  0  0  0  0  0
    7.7761  -14.8044   22.4279 C   0  0  1  0  0  0  0  0  0  0  0  0
    7.0887  -16.1176   22.6308 C   0  0  0  0  0  0  0  0  0  0  0  0
    6.4631  -16.7248   21.4316 C   0  0  0  0  0  0  0  0  0  0  0  0
    5.7812  -18.0332   21.6149 C   0  0  0  0  0  0  0  0  0  0  0  0
    5.0912  -18.5333   20.3579 C   0  0  0  0  0  0  0  0  0  0  0  0
    4.4777  -19.8069   20.6359 N   0  0  0  0  0  0  0  0  0  0  0  0
    8.6393  -14.4848   23.6151 C   0  0  0  0  0  0  0  0  0  0  0  0
    9.8866  -14.7336   23.4994 O   0  0  0  0  0  0  0  0  0  0  0  0
    8.1357  -13.9408   24.8056 N   0  0  0  0  0  0  0  0  0  0  0  0
    6.7799  -13.5745   25.0846 C   0  0  0  0  0  0  0  0  0  0  0  0
    6.7797  -13.2230   26.5518 C   0  0  0  0  0  0  0  0  0  0  0  0
    8.1474  -12.6570   26.7767 C   0  0  0  0  0  0  0  0  0  0  0  0
    8.9875  -13.6600   25.9694 C   0  0  1  0  0  0  0  0  0  0  0  0
    9.0993  -14.8615   26.8358 C   0  0  0  0  0  0  0  0  0  0  0  0
    8.0422  -15.4776   27.1240 O   0  0  0  0  0  0  0  0  0  0  0  0
   10.3082  -15.3473   27.3492 N   0  0  0  0  0  0  0  0  0  0  0  0
   10.4389  -16.5299   28.1957 C   0  0  1  0  0  0  0  0  0  0  0  0
   11.7241  -17.2366   27.9747 C   0  0  0  0  0  0  0  0  0  0  0  0
   11.8948  -17.5664   26.5484 C   0  0  0  0  0  0  0  0  0  0  0  0
   11.0269  -17.3272   25.4920 C   0  0  0  0  0  0  0  0  0  0  0  0
   11.5973  -17.7992   24.3727 N   0  0  0  0  0  0  0  0  0  0  0  0
   12.7883  -18.3270   24.6741 C   0  0  0  0  0  0  0  0  0  0  0  0
   12.9491  -18.1758   25.9958 N   0  0  0  0  0  0  0  0  0  0  0  0
   10.2284  -16.1855   29.6154 C   0  0  0  0  0  0  0  0  0  0  0  0
   10.1742  -17.1821   30.5973 O   0  0  0  0  0  0  0  0  0  0  0  0
   10.0879  -15.0122   30.0275 O   0  0  0  0  0  0  0  0  0  0  0  0
  2  1  1  6
  3  4  1  0
  3  2  1  0
  4  5  1  0
  6  5  1  0
  7  6  1  0
  8  9  2  0
  8  2  1  0
 10  8  1  0
 11 10  1  0
 12 11  1  0
 13 12  1  0
 13 14  1  0
 14 10  1  0
 14 15  1  1
 16 15  2  0
 17 15  1  0
 18 17  1  0
 18 19  1  1
 20 19  1  0
 20 21  2  0
 22 21  1  0
 23 22  1  0
 24 23  2  0
 24 20  1  0
 25 18  1  0
 26 25  1  0
 27 25  2  0
M  END
$$$$
