KPH.pdb
     RDKit          3D

 27 28  0  0  1  0  0  0  0  0999 V2000
    8.8640  -18.2061   18.1162 N   0  0  0  0  0  0  0  0  0  0  0  0
    7.8993  -17.3369   18.6651 C   0  0  1  0  0  0  0  0  0  0  0  0
    6.6156  -17.9479   19.1310 C   0  0  0  0  0  0  0  0  0  0  0  0
    6.7052  -18.8560   20.2994 C   0  0  0  0  0  0  0  0  0  0  0  0
    5.4502  -19.5251   20.7326 C   0  0  0  0  0  0  0  0  0  0  0  0
    5.6282  -20.4011   21.9602 C   0  0  0  0  0  0  0  0  0  0  0  0
    4.3445  -20.9257   22.3511 N   0  0  0  0  0  0  0  0  0  0  0  0
    8.5053  -16.5093   19.7626 C   0  0  0  0  0  0  0  0  0  0  0  0
    9.4361  -17.0565   20.4447 O   0  0  0  0  0  0  0  0  0  0  0  0
    8.0948  -15.1999   20.0520 N   0  0  0  0  0  0  0  0  0  0  0  0
    6.9719  -14.5029   19.5012 C   0  0  0  0  0  0  0  0  0  0  0  0
    6.9014  -13.2196   20.2913 C   0  0  0  0  0  0  0  0  0  0  0  0
    8.3338  -12.9286   20.6155 C   0  0  0  0  0  0  0  0  0  0  0  0
    8.8118  -14.3379   21.0016 C   0  0  1  0  0  0  0  0  0  0  0  0
    8.3111  -14.5546   22.3833 C   0  0  0  0  0  0  0  0  0  0  0  0
    7.0673  -14.5443   22.5651 O   0  0  0  0  0  0  0  0  0  0  0  0
    9.1392  -14.7690   23.4920 N   0  0  0  0  0  0  0  0  0  0  0  0
    8.8578  -15.7094   24.5730 C   0  0  1  0  0  0  0  0  0  0  0  0
    8.4945  -17.0543   24.0640 C   0  0  0  0  0  0  0  0  0  0  0  0
    8.2816  -17.9908   25.1819 C   0  0  0  0  0  0  0  0  0  0  0  0
    7.4836  -17.8333   26.3066 C   0  0  0  0  0  0  0  0  0  0  0  0
    7.5985  -18.9418   27.0542 N   0  0  0  0  0  0  0  0  0  0  0  0
    8.4344  -19.7944   26.4521 C   0  0  0  0  0  0  0  0  0  0  0  0
    8.8365  -19.1995   25.3207 N   0  0  0  0  0  0  0  0  0  0  0  0
    9.9797  -15.7595   25.5309 C   0  0  0  0  0  0  0  0  0  0  0  0
    9.7462  -15.8186   26.9101 O   0  0  0  0  0  0  0  0  0  0  0  0
   11.1827  -15.7530   25.1859 O   0  0  0  0  0  0  0  0  0  0  0  0
  2  1  1  1
  3  4  1  0
  3  2  1  0
  4  5  1  0
  6  5  1  0
  7  6  1  0
  8  9  2  0
  8  2  1  0
 10  8  1  0
 11 10  1  0
 12 11  1  0
 13 12  1  0
 13 14  1  0
 14 10  1  0
 14 15  1  1
 16 15  2  0
 17 15  1  0
 18 17  1  0
 18 19  1  6
 20 19  1  0
 20 21  2  0
 22 21  1  0
 23 22  1  0
 24 23  2  0
 24 20  1  0
 25 18  1  0
 26 25  1  0
 27 25  2  0
M  END
$$$$
