KPH.pdb
     RDKit          3D

 27 28  0  0  1  0  0  0  0  0999 V2000
    8.4918  -14.4889   21.2037 N   0  0  0  0  0  0  0  0  0  0  0  0
    7.6285  -14.4607   22.3179 C   0  0  1  0  0  0  0  0  0  0  0  0
    6.7505  -15.6530   22.5320 C   0  0  0  0  0  0  0  0  0  0  0  0
    6.5889  -16.5670   21.3760 C   0  0  0  0  0  0  0  0  0  0  0  0
    7.0434  -17.9710   21.5564 C   0  0  0  0  0  0  0  0  0  0  0  0
    6.9030  -18.8148   20.3016 C   0  0  0  0  0  0  0  0  0  0  0  0
    7.5038  -20.1035   20.5344 N   0  0  0  0  0  0  0  0  0  0  0  0
    8.4007  -14.1567   23.5701 C   0  0  0  0  0  0  0  0  0  0  0  0
    9.6409  -14.4617   23.5660 O   0  0  0  0  0  0  0  0  0  0  0  0
    7.8222  -13.5692   24.7045 N   0  0  0  0  0  0  0  0  0  0  0  0
    6.4839  -13.0777   24.8380 C   0  0  0  0  0  0  0  0  0  0  0  0
    6.3553  -12.7293   26.3002 C   0  0  0  0  0  0  0  0  0  0  0  0
    7.7368  -12.2941   26.6795 C   0  0  0  0  0  0  0  0  0  0  0  0
    8.5635  -13.3706   25.9575 C   0  0  1  0  0  0  0  0  0  0  0  0
    8.4673  -14.5782   26.8173 C   0  0  0  0  0  0  0  0  0  0  0  0
    7.3206  -14.9749   27.1456 O   0  0  0  0  0  0  0  0  0  0  0  0
    9.5742  -15.2987   27.2826 N   0  0  0  0  0  0  0  0  0  0  0  0
    9.5109  -16.3918   28.2486 C   0  0  1  0  0  0  0  0  0  0  0  0
    9.7970  -17.7067   27.6247 C   0  0  0  0  0  0  0  0  0  0  0  0
   10.6966  -17.5462   26.4684 C   0  0  0  0  0  0  0  0  0  0  0  0
   11.2840  -16.3876   25.9797 C   0  0  0  0  0  0  0  0  0  0  0  0
   12.0241  -16.7181   24.9101 N   0  0  0  0  0  0  0  0  0  0  0  0
   11.9309  -18.0354   24.7002 C   0  0  0  0  0  0  0  0  0  0  0  0
   11.1229  -18.5176   25.6543 N   0  0  0  0  0  0  0  0  0  0  0  0
   10.3859  -16.1212   29.4061 C   0  0  0  0  0  0  0  0  0  0  0  0
   10.4730  -17.0275   30.4698 O   0  0  0  0  0  0  0  0  0  0  0  0
   11.0902  -15.0923   29.5134 O   0  0  0  0  0  0  0  0  0  0  0  0
  2  1  1  6
  3  4  1  0
  3  2  1  0
  4  5  1  0
  6  5  1  0
  7  6  1  0
  8  9  2  0
  8  2  1  0
 10  8  1  0
 11 10  1  0
 12 11  1  0
 13 12  1  0
 13 14  1  0
 14 10  1  0
 14 15  1  1
 16 15  2  0
 17 15  1  0
 18 17  1  0
 18 19  1  6
 20 19  1  0
 20 21  2  0
 22 21  1  0
 23 22  1  0
 24 23  2  0
 24 20  1  0
 25 18  1  0
 26 25  1  0
 27 25  2  0
M  END
$$$$
