KPH.pdb
     RDKit          3D

 27 28  0  0  1  0  0  0  0  0999 V2000
    8.1899  -17.5452   18.8842 N   0  0  0  0  0  0  0  0  0  0  0  0
    7.5298  -16.6586   19.7593 C   0  0  1  0  0  0  0  0  0  0  0  0
    6.1339  -17.0122   20.1650 C   0  0  0  0  0  0  0  0  0  0  0  0
    5.8980  -18.4249   20.5482 C   0  0  0  0  0  0  0  0  0  0  0  0
    4.4907  -18.8286   20.8068 C   0  0  0  0  0  0  0  0  0  0  0  0
    4.3526  -20.2704   21.2630 C   0  0  0  0  0  0  0  0  0  0  0  0
    2.9623  -20.5496   21.5177 N   0  0  0  0  0  0  0  0  0  0  0  0
    8.3718  -16.4018   20.9766 C   0  0  0  0  0  0  0  0  0  0  0  0
    9.3134  -17.2333   21.2071 O   0  0  0  0  0  0  0  0  0  0  0  0
    8.1632  -15.3153   21.8384 N   0  0  0  0  0  0  0  0  0  0  0  0
    7.1028  -14.3549   21.7800 C   0  0  0  0  0  0  0  0  0  0  0  0
    7.2663  -13.5371   23.0372 C   0  0  0  0  0  0  0  0  0  0  0  0
    8.7458  -13.5391   23.2664 C   0  0  0  0  0  0  0  0  0  0  0  0
    9.0614  -15.0124   22.9611 C   0  0  1  0  0  0  0  0  0  0  0  0
    8.6475  -15.7598   24.1764 C   0  0  0  0  0  0  0  0  0  0  0  0
    7.4206  -15.9767   24.3424 O   0  0  0  0  0  0  0  0  0  0  0  0
    9.5398  -16.2357   25.1451 N   0  0  0  0  0  0  0  0  0  0  0  0
    9.6770  -17.6361   25.5355 C   0  0  1  0  0  0  0  0  0  0  0  0
    9.8511  -18.5288   24.3639 C   0  0  0  0  0  0  0  0  0  0  0  0
   10.0647  -19.9202   24.8006 C   0  0  0  0  0  0  0  0  0  0  0  0
   10.1068  -20.4282   26.0916 C   0  0  0  0  0  0  0  0  0  0  0  0
   10.3264  -21.7496   26.0094 N   0  0  0  0  0  0  0  0  0  0  0  0
   10.4252  -22.1005   24.7229 C   0  0  0  0  0  0  0  0  0  0  0  0
   10.2639  -20.9786   24.0080 N   0  0  0  0  0  0  0  0  0  0  0  0
   10.7567  -17.8011   26.5283 C   0  0  0  0  0  0  0  0  0  0  0  0
   10.5130  -18.4200   27.7604 O   0  0  0  0  0  0  0  0  0  0  0  0
   11.9310  -17.4105   26.3423 O   0  0  0  0  0  0  0  0  0  0  0  0
  2  1  1  1
  3  4  1  0
  3  2  1  0
  4  5  1  0
  6  5  1  0
  7  6  1  0
  8  9  2  0
  8  2  1  0
 10  8  1  0
 11 10  1  0
 12 11  1  0
 13 12  1  0
 13 14  1  0
 14 10  1  0
 14 15  1  1
 16 15  2  0
 17 15  1  0
 18 17  1  0
 18 19  1  6
 20 19  1  0
 20 21  2  0
 22 21  1  0
 23 22  1  0
 24 23  2  0
 24 20  1  0
 25 18  1  0
 26 25  1  0
 27 25  2  0
M  END
$$$$
