KPH.pdb
     RDKit          3D

 27 28  0  0  1  0  0  0  0  0999 V2000
    8.4422  -13.0166   19.8701 N   0  0  0  0  0  0  0  0  0  0  0  0
    7.5807  -13.5900   20.8274 C   0  0  1  0  0  0  0  0  0  0  0  0
    6.8168  -14.8088   20.4158 C   0  0  0  0  0  0  0  0  0  0  0  0
    7.6204  -15.9553   19.9282 C   0  0  0  0  0  0  0  0  0  0  0  0
    6.8833  -17.2014   19.5901 C   0  0  0  0  0  0  0  0  0  0  0  0
    7.7802  -18.3056   19.0586 C   0  0  0  0  0  0  0  0  0  0  0  0
    6.9911  -19.4945   18.8594 N   0  0  0  0  0  0  0  0  0  0  0  0
    8.3222  -13.8533   22.1071 C   0  0  0  0  0  0  0  0  0  0  0  0
    9.5657  -14.1254   22.0024 O   0  0  0  0  0  0  0  0  0  0  0  0
    7.7127  -13.8116   23.3694 N   0  0  0  0  0  0  0  0  0  0  0  0
    6.3210  -13.6307   23.6534 C   0  0  0  0  0  0  0  0  0  0  0  0
    6.2093  -13.8498   25.1419 C   0  0  0  0  0  0  0  0  0  0  0  0
    7.5198  -13.3528   25.6685 C   0  0  0  0  0  0  0  0  0  0  0  0
    8.4725  -13.9490   24.6195 C   0  0  1  0  0  0  0  0  0  0  0  0
    8.6134  -15.3808   24.9895 C   0  0  0  0  0  0  0  0  0  0  0  0
    7.6204  -16.1319   24.8166 O   0  0  0  0  0  0  0  0  0  0  0  0
    9.7825  -15.9419   25.5178 N   0  0  0  0  0  0  0  0  0  0  0  0
    9.9406  -17.3463   25.8853 C   0  0  1  0  0  0  0  0  0  0  0  0
   11.2496  -17.8935   25.4530 C   0  0  0  0  0  0  0  0  0  0  0  0
   11.4484  -17.6798   24.0084 C   0  0  0  0  0  0  0  0  0  0  0  0
   10.5266  -17.8010   22.9778 C   0  0  0  0  0  0  0  0  0  0  0  0
   11.1524  -17.5112   21.8266 N   0  0  0  0  0  0  0  0  0  0  0  0
   12.4301  -17.2119   22.0831 C   0  0  0  0  0  0  0  0  0  0  0  0
   12.5884  -17.3199   23.4093 N   0  0  0  0  0  0  0  0  0  0  0  0
    9.7035  -17.5413   27.3291 C   0  0  0  0  0  0  0  0  0  0  0  0
    9.4333  -16.4529   28.1674 O   0  0  0  0  0  0  0  0  0  0  0  0
    9.7268  -18.6611   27.8874 O   0  0  0  0  0  0  0  0  0  0  0  0
  2  1  1  6
  3  4  1  0
  3  2  1  0
  4  5  1  0
  6  5  1  0
  7  6  1  0
  8  9  2  0
  8  2  1  0
 10  8  1  0
 11 10  1  0
 12 11  1  0
 13 12  1  0
 13 14  1  0
 14 10  1  0
 14 15  1  1
 16 15  2  0
 17 15  1  0
 18 17  1  0
 18 19  1  1
 20 19  1  0
 20 21  2  0
 22 21  1  0
 23 22  1  0
 24 23  2  0
 24 20  1  0
 25 18  1  0
 26 25  1  0
 27 25  2  0
M  END
$$$$
