VNI.pdb
     RDKit          3D

 24 23  0  0  1  0  0  0  0  0999 V2000
   14.0054  -12.4031  -16.5693 C   0  0  0  0  0  0  0  0  0  0  0  0
   15.1660  -13.2636  -17.0537 C   0  0  2  0  0  0  0  0  0  0  0  0
   14.8527  -14.6883  -16.6514 C   0  0  0  0  0  0  0  0  0  0  0  0
   16.4455  -12.8615  -16.3596 C   0  0  2  0  0  0  0  0  0  0  0  0
   16.2894  -13.1625  -14.9477 N   0  0  0  0  0  0  0  0  0  0  0  0
   16.6715  -11.3931  -16.4667 C   0  0  0  0  0  0  0  0  0  0  0  0
   16.8189  -10.8012  -17.5609 O   0  0  0  0  0  0  0  0  0  0  0  0
   14.4970   -8.5474  -16.6557 N   0  0  0  0  0  0  0  0  0  0  0  0
   14.8189   -8.0779  -15.3887 C   0  0  0  0  0  0  0  0  0  0  0  0
   13.9381   -7.3729  -14.7850 O   0  0  0  0  0  0  0  0  0  0  0  0
   16.0666   -8.2963  -14.6477 C   0  0  0  0  0  0  0  0  0  0  0  0
   17.0545   -9.1803  -15.3131 C   0  0  2  0  0  0  0  0  0  0  0  0
   16.7323  -10.5677  -15.2896 N   0  0  0  0  0  0  0  0  0  0  0  0
   18.3981   -8.9025  -14.6900 C   0  0  0  0  0  0  0  0  0  0  0  0
   18.6691   -9.2610  -13.5150 O   0  0  0  0  0  0  0  0  0  0  0  0
   22.5412  -10.6095  -16.9042 C   0  0  0  0  0  0  0  0  0  0  0  0
   21.5141  -10.1039  -15.9137 C   0  0  0  0  0  0  0  0  0  0  0  0
   21.7396   -8.6403  -15.7237 C   0  0  2  0  0  0  0  0  0  0  0  0
   23.1536   -8.4007  -15.2485 C   0  0  0  0  0  0  0  0  0  0  0  0
   20.7351   -7.9647  -14.8277 C   0  0  2  0  0  0  0  0  0  0  0  0
   19.4148   -8.2212  -15.4105 N   0  0  0  0  0  0  0  0  0  0  0  0
   20.9694   -6.5058  -14.7286 C   0  0  0  0  0  0  0  0  0  0  0  0
   20.5135   -5.6582  -15.5321 O   0  0  0  0  0  0  0  0  0  0  0  0
   21.7435   -6.0392  -13.6802 O   0  0  0  0  0  0  0  0  0  0  0  0
  2  1  1  1
  2  3  1  0
  2  4  1  0
  4  6  1  0
  4  5  1  1
  6 13  1  0
  6  7  2  0
  9 10  2  0
  9  8  1  0
 11  9  1  0
 12 11  1  1
 12 14  1  0
 13 12  1  0
 14 15  2  0
 17 16  1  0
 18 17  1  0
 18 20  1  0
 18 19  1  1
 20 21  1  6
 21 14  1  0
 22 24  1  0
 22 20  1  0
 23 22  2  0
M  END
$$$$
