VNI.pdb
     RDKit          3D

 24 23  0  0  1  0  0  0  0  0999 V2000
   27.7704  -16.7983  -15.9234 C   0  0  0  0  0  0  0  0  0  0  0  0
   26.8117  -15.9748  -16.7749 C   0  0  2  0  0  0  0  0  0  0  0  0
   26.4976  -14.7192  -15.9909 C   0  0  0  0  0  0  0  0  0  0  0  0
   25.5162  -16.7226  -16.9822 C   0  0  2  0  0  0  0  0  0  0  0  0
   24.5701  -15.7988  -17.5824 N   0  0  0  0  0  0  0  0  0  0  0  0
   24.9344  -17.1527  -15.6803 C   0  0  0  0  0  0  0  0  0  0  0  0
   24.5339  -16.3459  -14.8096 O   0  0  0  0  0  0  0  0  0  0  0  0
   22.9152  -20.0470  -11.7025 N   0  0  0  0  0  0  0  0  0  0  0  0
   22.4298  -20.2691  -12.9848 C   0  0  0  0  0  0  0  0  0  0  0  0
   21.3540  -20.9532  -13.0925 O   0  0  0  0  0  0  0  0  0  0  0  0
   23.0112  -19.8065  -14.2503 C   0  0  0  0  0  0  0  0  0  0  0  0
   24.2665  -19.0262  -14.1254 C   0  0  2  0  0  0  0  0  0  0  0  0
   24.8028  -18.5483  -15.3555 N   0  0  0  0  0  0  0  0  0  0  0  0
   25.2541  -19.8805  -13.3733 C   0  0  0  0  0  0  0  0  0  0  0  0
   26.0659  -20.6338  -13.9699 O   0  0  0  0  0  0  0  0  0  0  0  0
   26.6079  -18.3143   -8.2457 C   0  0  0  0  0  0  0  0  0  0  0  0
   26.7851  -18.7539   -9.6835 C   0  0  0  0  0  0  0  0  0  0  0  0
   26.2847  -20.1557   -9.8010 C   0  0  2  0  0  0  0  0  0  0  0  0
   27.0732  -21.0564   -8.8793 C   0  0  0  0  0  0  0  0  0  0  0  0
   26.2582  -20.6935  -11.2074 C   0  0  2  0  0  0  0  0  0  0  0  0
   25.3054  -19.8669  -11.9541 N   0  0  0  0  0  0  0  0  0  0  0  0
   25.8402  -22.1135  -11.2531 C   0  0  0  0  0  0  0  0  0  0  0  0
   24.6504  -22.5046  -11.1957 O   0  0  0  0  0  0  0  0  0  0  0  0
   26.8246  -23.0799  -11.3669 O   0  0  0  0  0  0  0  0  0  0  0  0
  2  1  1  1
  2  3  1  0
  2  4  1  0
  4  6  1  0
  4  5  1  1
  6 13  1  0
  6  7  2  0
  9 10  2  0
  9  8  1  0
 11  9  1  0
 12 11  1  6
 12 14  1  0
 13 12  1  0
 14 15  2  0
 17 16  1  0
 18 17  1  0
 18 20  1  0
 18 19  1  1
 20 21  1  6
 21 14  1  0
 22 24  1  0
 22 20  1  0
 23 22  2  0
M  END
$$$$
