VNI.pdb
     RDKit          3D

 24 23  0  0  1  0  0  0  0  0999 V2000
   27.7254  -23.4147  -17.4603 C   0  0  0  0  0  0  0  0  0  0  0  0
   28.4423  -22.2037  -16.8756 C   0  0  2  0  0  0  0  0  0  0  0  0
   28.9835  -22.6242  -15.5265 C   0  0  0  0  0  0  0  0  0  0  0  0
   27.4668  -21.0738  -16.6469 C   0  0  2  0  0  0  0  0  0  0  0  0
   28.2302  -19.9211  -16.2029 N   0  0  0  0  0  0  0  0  0  0  0  0
   26.5113  -21.4071  -15.5541 C   0  0  0  0  0  0  0  0  0  0  0  0
   25.6334  -22.2947  -15.6593 O   0  0  0  0  0  0  0  0  0  0  0  0
   25.4310  -21.7940   -9.8508 N   0  0  0  0  0  0  0  0  0  0  0  0
   25.2422  -20.7646  -10.7640 C   0  0  0  0  0  0  0  0  0  0  0  0
   24.2100  -20.0251  -10.6065 O   0  0  0  0  0  0  0  0  0  0  0  0
   26.0971  -20.4176  -11.9052 C   0  0  0  0  0  0  0  0  0  0  0  0
   25.6744  -20.9813  -13.2105 C   0  0  2  0  0  0  0  0  0  0  0  0
   26.5540  -20.7079  -14.2971 N   0  0  0  0  0  0  0  0  0  0  0  0
   24.2752  -20.4912  -13.4801 C   0  0  0  0  0  0  0  0  0  0  0  0
   24.0448  -19.3013  -13.8173 O   0  0  0  0  0  0  0  0  0  0  0  0
   20.1866  -21.3466  -17.1376 C   0  0  0  0  0  0  0  0  0  0  0  0
   20.2050  -21.0200  -15.6595 C   0  0  0  0  0  0  0  0  0  0  0  0
   21.5592  -21.3595  -15.1303 C   0  0  2  0  0  0  0  0  0  0  0  0
   21.8195  -22.8370  -15.3083 C   0  0  0  0  0  0  0  0  0  0  0  0
   21.8013  -20.9245  -13.7089 C   0  0  2  0  0  0  0  0  0  0  0  0
   23.1576  -21.3597  -13.3629 N   0  0  0  0  0  0  0  0  0  0  0  0
   20.8238  -21.5206  -12.7696 C   0  0  0  0  0  0  0  0  0  0  0  0
   19.6060  -21.2250  -12.7314 O   0  0  0  0  0  0  0  0  0  0  0  0
   21.2786  -22.4693  -11.8700 O   0  0  0  0  0  0  0  0  0  0  0  0
  2  1  1  1
  2  3  1  0
  2  4  1  0
  4  6  1  0
  4  5  1  1
  6 13  1  0
  6  7  2  0
  9 10  2  0
  9  8  1  0
 11  9  1  0
 12 11  1  1
 12 14  1  0
 13 12  1  0
 14 15  2  0
 17 16  1  0
 18 17  1  0
 18 20  1  0
 18 19  1  1
 20 21  1  1
 21 14  1  0
 22 24  1  0
 22 20  1  0
 23 22  2  0
M  END
$$$$
