VNI.pdb
     RDKit          3D

 24 23  0  0  1  0  0  0  0  0999 V2000
   26.3353  -27.9161  -15.8566 C   0  0  0  0  0  0  0  0  0  0  0  0
   26.5115  -27.0310  -17.0845 C   0  0  2  0  0  0  0  0  0  0  0  0
   27.8682  -26.3726  -16.9587 C   0  0  0  0  0  0  0  0  0  0  0  0
   25.4702  -25.9374  -17.0994 C   0  0  2  0  0  0  0  0  0  0  0  0
   25.4707  -25.3522  -18.4283 N   0  0  0  0  0  0  0  0  0  0  0  0
   25.8262  -24.8490  -16.1470 C   0  0  0  0  0  0  0  0  0  0  0  0
   25.9788  -25.0376  -14.9180 O   0  0  0  0  0  0  0  0  0  0  0  0
   27.2865  -20.1012  -14.1741 N   0  0  0  0  0  0  0  0  0  0  0  0
   27.1647  -20.0747  -15.5575 C   0  0  0  0  0  0  0  0  0  0  0  0
   27.5539  -19.0144  -16.1587 O   0  0  0  0  0  0  0  0  0  0  0  0
   26.6355  -21.1326  -16.4259 C   0  0  0  0  0  0  0  0  0  0  0  0
   26.2791  -22.3988  -15.7403 C   0  0  2  0  0  0  0  0  0  0  0  0
   26.0156  -23.4986  -16.6065 N   0  0  0  0  0  0  0  0  0  0  0  0
   25.1141  -22.1052  -14.8308 C   0  0  0  0  0  0  0  0  0  0  0  0
   23.9244  -22.2639  -15.2077 O   0  0  0  0  0  0  0  0  0  0  0  0
   26.3930  -20.9601   -9.5213 C   0  0  0  0  0  0  0  0  0  0  0  0
   25.7164  -21.7238  -10.6397 C   0  0  0  0  0  0  0  0  0  0  0  0
   24.7907  -20.7865  -11.3425 C   0  0  2  0  0  0  0  0  0  0  0  0
   23.7193  -20.3171  -10.3863 C   0  0  0  0  0  0  0  0  0  0  0  0
   24.1946  -21.3329  -12.6130 C   0  0  2  0  0  0  0  0  0  0  0  0
   25.3170  -21.6355  -13.5059 N   0  0  0  0  0  0  0  0  0  0  0  0
   23.2799  -20.3649  -13.2606 C   0  0  0  0  0  0  0  0  0  0  0  0
   23.6497  -19.4402  -14.0222 O   0  0  0  0  0  0  0  0  0  0  0  0
   21.9232  -20.4830  -13.0126 O   0  0  0  0  0  0  0  0  0  0  0  0
  2  1  1  1
  2  3  1  0
  2  4  1  0
  4  6  1  0
  4  5  1  6
  6 13  1  0
  6  7  2  0
  9 10  2  0
  9  8  1  0
 11  9  1  0
 12 11  1  6
 12 14  1  0
 13 12  1  0
 14 15  2  0
 17 16  1  0
 18 17  1  0
 18 20  1  0
 18 19  1  1
 20 21  1  6
 21 14  1  0
 22 24  1  0
 22 20  1  0
 23 22  2  0
M  END
$$$$
