VNI.pdb
     RDKit          3D

 24 23  0  0  1  0  0  0  0  0999 V2000
   15.6722  -13.7784  -14.1308 C   0  0  0  0  0  0  0  0  0  0  0  0
   14.2903  -13.6165  -13.5092 C   0  0  2  0  0  0  0  0  0  0  0  0
   13.3330  -14.4318  -14.3511 C   0  0  0  0  0  0  0  0  0  0  0  0
   13.8476  -12.1743  -13.5776 C   0  0  2  0  0  0  0  0  0  0  0  0
   13.8041  -11.7969  -14.9791 N   0  0  0  0  0  0  0  0  0  0  0  0
   14.8403  -11.2800  -12.9192 C   0  0  0  0  0  0  0  0  0  0  0  0
   15.1419  -11.3675  -11.7064 O   0  0  0  0  0  0  0  0  0  0  0  0
   18.5187   -7.5427  -12.0129 N   0  0  0  0  0  0  0  0  0  0  0  0
   18.3521   -7.7916  -13.3692 C   0  0  0  0  0  0  0  0  0  0  0  0
   19.1550   -7.2048  -14.1744 O   0  0  0  0  0  0  0  0  0  0  0  0
   17.3509   -8.6597  -13.9996 C   0  0  0  0  0  0  0  0  0  0  0  0
   16.3733   -9.2799  -13.0723 C   0  0  2  0  0  0  0  0  0  0  0  0
   15.5142  -10.2499  -13.6643 N   0  0  0  0  0  0  0  0  0  0  0  0
   15.5991   -8.1627  -12.4218 C   0  0  0  0  0  0  0  0  0  0  0  0
   14.5982   -7.6408  -12.9772 O   0  0  0  0  0  0  0  0  0  0  0  0
   13.1139   -6.8069   -7.3858 C   0  0  0  0  0  0  0  0  0  0  0  0
   13.8198   -6.0757   -8.5077 C   0  0  0  0  0  0  0  0  0  0  0  0
   14.6263   -7.0735   -9.2714 C   0  0  2  0  0  0  0  0  0  0  0  0
   15.6520   -7.7043   -8.3590 C   0  0  0  0  0  0  0  0  0  0  0  0
   15.2619   -6.5343  -10.5258 C   0  0  2  0  0  0  0  0  0  0  0  0
   15.9731   -7.6540  -11.1496 N   0  0  0  0  0  0  0  0  0  0  0  0
   16.2071   -5.4304  -10.2412 C   0  0  0  0  0  0  0  0  0  0  0  0
   17.4553   -5.5477  -10.2421 O   0  0  0  0  0  0  0  0  0  0  0  0
   15.6840   -4.1814   -9.9538 O   0  0  0  0  0  0  0  0  0  0  0  0
  2  1  1  6
  2  3  1  0
  2  4  1  0
  4  6  1  0
  4  5  1  6
  6 13  1  0
  6  7  2  0
  9 10  2  0
  9  8  1  0
 11  9  1  0
 12 11  1  6
 12 14  1  0
 13 12  1  0
 14 15  2  0
 17 16  1  0
 18 17  1  0
 18 20  1  0
 18 19  1  1
 20 21  1  1
 21 14  1  0
 22 24  1  0
 22 20  1  0
 23 22  2  0
M  END
$$$$
