VNI.pdb
     RDKit          3D

 24 23  0  0  1  0  0  0  0  0999 V2000
   28.6912  -18.5441  -14.9963 C   0  0  0  0  0  0  0  0  0  0  0  0
   28.7494  -19.4753  -16.2012 C   0  0  2  0  0  0  0  0  0  0  0  0
   28.6208  -18.6061  -17.4331 C   0  0  0  0  0  0  0  0  0  0  0  0
   27.5782  -20.4284  -16.1874 C   0  0  2  0  0  0  0  0  0  0  0  0
   26.4351  -19.7233  -16.7395 N   0  0  0  0  0  0  0  0  0  0  0  0
   27.2185  -20.8113  -14.7937 C   0  0  0  0  0  0  0  0  0  0  0  0
   27.9092  -21.5917  -14.0983 O   0  0  0  0  0  0  0  0  0  0  0  0
   24.7613  -21.6747  -10.2042 N   0  0  0  0  0  0  0  0  0  0  0  0
   25.6704  -20.6496  -10.4322 C   0  0  0  0  0  0  0  0  0  0  0  0
   26.0921  -20.0040   -9.4111 O   0  0  0  0  0  0  0  0  0  0  0  0
   26.2139  -20.2109  -11.7228 C   0  0  0  0  0  0  0  0  0  0  0  0
   25.5277  -20.7561  -12.9196 C   0  0  2  0  0  0  0  0  0  0  0  0
   26.0327  -20.2897  -14.1673 N   0  0  0  0  0  0  0  0  0  0  0  0
   24.0565  -20.4699  -12.7640 C   0  0  0  0  0  0  0  0  0  0  0  0
   23.6342  -19.3254  -12.4569 O   0  0  0  0  0  0  0  0  0  0  0  0
   20.2645  -22.0601  -16.8069 C   0  0  0  0  0  0  0  0  0  0  0  0
   20.2186  -21.5420  -15.3852 C   0  0  0  0  0  0  0  0  0  0  0  0
   21.5668  -21.7466  -14.7772 C   0  0  2  0  0  0  0  0  0  0  0  0
   21.9260  -23.2135  -14.8176 C   0  0  0  0  0  0  0  0  0  0  0  0
   21.7189  -21.1798  -13.3901 C   0  0  2  0  0  0  0  0  0  0  0  0
   23.0858  -21.4880  -12.9594 N   0  0  0  0  0  0  0  0  0  0  0  0
   20.7452  -21.7642  -12.4396 C   0  0  0  0  0  0  0  0  0  0  0  0
   19.5173  -21.5114  -12.4374 O   0  0  0  0  0  0  0  0  0  0  0  0
   21.2158  -22.6506  -11.4862 O   0  0  0  0  0  0  0  0  0  0  0  0
  2  1  1  1
  2  3  1  0
  2  4  1  0
  4  6  1  0
  4  5  1  1
  6 13  1  0
  6  7  2  0
  9 10  2  0
  9  8  1  0
 11  9  1  0
 12 11  1  1
 12 14  1  0
 13 12  1  0
 14 15  2  0
 17 16  1  0
 18 17  1  0
 18 20  1  0
 18 19  1  1
 20 21  1  1
 21 14  1  0
 22 24  1  0
 22 20  1  0
 23 22  2  0
M  END
$$$$
