VNI.pdb
     RDKit          3D

 24 23  0  0  1  0  0  0  0  0999 V2000
   26.3620  -18.5841  -18.0082 C   0  0  0  0  0  0  0  0  0  0  0  0
   27.6831  -18.0220  -17.4974 C   0  0  2  0  0  0  0  0  0  0  0  0
   28.7146  -18.2806  -18.5740 C   0  0  0  0  0  0  0  0  0  0  0  0
   28.1230  -18.7576  -16.2541 C   0  0  2  0  0  0  0  0  0  0  0  0
   28.2869  -20.1560  -16.6091 N   0  0  0  0  0  0  0  0  0  0  0  0
   27.0723  -18.6990  -15.2000 C   0  0  0  0  0  0  0  0  0  0  0  0
   26.6628  -17.6256  -14.7004 O   0  0  0  0  0  0  0  0  0  0  0  0
   22.2998  -18.7072  -14.2520 N   0  0  0  0  0  0  0  0  0  0  0  0
   23.2724  -19.5286  -14.8075 C   0  0  0  0  0  0  0  0  0  0  0  0
   23.4314  -19.4716  -16.0758 O   0  0  0  0  0  0  0  0  0  0  0  0
   24.1532  -20.4684  -14.1042 C   0  0  0  0  0  0  0  0  0  0  0  0
   25.4637  -19.9165  -13.6820 C   0  0  2  0  0  0  0  0  0  0  0  0
   26.4650  -19.9019  -14.6952 N   0  0  0  0  0  0  0  0  0  0  0  0
   25.9047  -20.6866  -12.4641 C   0  0  0  0  0  0  0  0  0  0  0  0
   26.4624  -21.8102  -12.5582 O   0  0  0  0  0  0  0  0  0  0  0  0
   28.2780  -19.7355   -7.1280 C   0  0  0  0  0  0  0  0  0  0  0  0
   27.3722  -20.7191   -7.8378 C   0  0  0  0  0  0  0  0  0  0  0  0
   26.8447  -20.0549   -9.0665 C   0  0  2  0  0  0  0  0  0  0  0  0
   26.0797  -18.8097   -8.6833 C   0  0  0  0  0  0  0  0  0  0  0  0
   26.0274  -20.9511   -9.9591 C   0  0  2  0  0  0  0  0  0  0  0  0
   25.7058  -20.1692  -11.1565 N   0  0  0  0  0  0  0  0  0  0  0  0
   24.7805  -21.4050   -9.3015 C   0  0  0  0  0  0  0  0  0  0  0  0
   23.6398  -20.9500   -9.5535 O   0  0  0  0  0  0  0  0  0  0  0  0
   24.8733  -22.3989   -8.3425 O   0  0  0  0  0  0  0  0  0  0  0  0
  2  1  1  6
  2  3  1  0
  2  4  1  0
  4  6  1  0
  4  5  1  6
  6 13  1  0
  6  7  2  0
  9 10  2  0
  9  8  1  0
 11  9  1  0
 12 11  1  6
 12 14  1  0
 13 12  1  0
 14 15  2  0
 17 16  1  0
 18 17  1  0
 18 20  1  0
 18 19  1  1
 20 21  1  6
 21 14  1  0
 22 24  1  0
 22 20  1  0
 23 22  2  0
M  END
$$$$
