VNI.pdb
     RDKit          3D

 24 23  0  0  1  0  0  0  0  0999 V2000
   21.0814  -22.7578  -17.2257 C   0  0  0  0  0  0  0  0  0  0  0  0
   20.1260  -21.6786  -16.7309 C   0  0  2  0  0  0  0  0  0  0  0  0
   19.3777  -21.1670  -17.9426 C   0  0  0  0  0  0  0  0  0  0  0  0
   20.8977  -20.5202  -16.1452 C   0  0  2  0  0  0  0  0  0  0  0  0
   19.9388  -19.4839  -15.8058 N   0  0  0  0  0  0  0  0  0  0  0  0
   21.8282  -19.9362  -17.1509 C   0  0  0  0  0  0  0  0  0  0  0  0
   22.8562  -20.5264  -17.5563 O   0  0  0  0  0  0  0  0  0  0  0  0
   23.6469  -17.3578  -21.7986 N   0  0  0  0  0  0  0  0  0  0  0  0
   22.8227  -16.8566  -20.7992 C   0  0  0  0  0  0  0  0  0  0  0  0
   22.8350  -15.5911  -20.6108 O   0  0  0  0  0  0  0  0  0  0  0  0
   21.9256  -17.6153  -19.9199 C   0  0  0  0  0  0  0  0  0  0  0  0
   22.4874  -17.9725  -18.5943 C   0  0  2  0  0  0  0  0  0  0  0  0
   21.5827  -18.6360  -17.7164 N   0  0  0  0  0  0  0  0  0  0  0  0
   23.0408  -16.7101  -17.9854 C   0  0  0  0  0  0  0  0  0  0  0  0
   22.3560  -15.9945  -17.2098 O   0  0  0  0  0  0  0  0  0  0  0  0
   26.3432  -16.6714  -14.4431 C   0  0  0  0  0  0  0  0  0  0  0  0
   25.2534  -16.1507  -15.3557 C   0  0  0  0  0  0  0  0  0  0  0  0
   25.9042  -15.5970  -16.5801 C   0  0  2  0  0  0  0  0  0  0  0  0
   26.9023  -14.5325  -16.1888 C   0  0  0  0  0  0  0  0  0  0  0  0
   24.9433  -15.0942  -17.6251 C   0  0  2  0  0  0  0  0  0  0  0  0
   24.3644  -16.2784  -18.2663 N   0  0  0  0  0  0  0  0  0  0  0  0
   25.6145  -14.2478  -18.6380 C   0  0  0  0  0  0  0  0  0  0  0  0
   25.6248  -12.9942  -18.6204 O   0  0  0  0  0  0  0  0  0  0  0  0
   26.2776  -14.8766  -19.6778 O   0  0  0  0  0  0  0  0  0  0  0  0
  2  1  1  6
  2  3  1  0
  2  4  1  0
  4  6  1  0
  4  5  1  6
  6 13  1  0
  6  7  2  0
  9 10  2  0
  9  8  1  0
 11  9  1  0
 12 11  1  6
 12 14  1  0
 13 12  1  0
 14 15  2  0
 17 16  1  0
 18 17  1  0
 18 20  1  0
 18 19  1  1
 20 21  1  6
 21 14  1  0
 22 24  1  0
 22 20  1  0
 23 22  2  0
M  END
$$$$
