VNI.pdb
     RDKit          3D

 24 23  0  0  1  0  0  0  0  0999 V2000
   25.5251  -22.9382  -13.0333 C   0  0  0  0  0  0  0  0  0  0  0  0
   26.4077  -21.7134  -12.8257 C   0  0  2  0  0  0  0  0  0  0  0  0
   27.2640  -21.9916  -11.6095 C   0  0  0  0  0  0  0  0  0  0  0  0
   25.5617  -20.4996  -12.5236 C   0  0  2  0  0  0  0  0  0  0  0  0
   24.7325  -20.8202  -11.3753 N   0  0  0  0  0  0  0  0  0  0  0  0
   24.6388  -20.1982  -13.6531 C   0  0  0  0  0  0  0  0  0  0  0  0
   25.0377  -19.9250  -14.8088 O   0  0  0  0  0  0  0  0  0  0  0  0
   18.6898  -20.4430  -15.4235 N   0  0  0  0  0  0  0  0  0  0  0  0
   20.0693  -20.5789  -15.5117 C   0  0  0  0  0  0  0  0  0  0  0  0
   20.5873  -20.5399  -16.6810 O   0  0  0  0  0  0  0  0  0  0  0  0
   21.0189  -20.7647  -14.4084 C   0  0  0  0  0  0  0  0  0  0  0  0
   22.2745  -19.9818  -14.5120 C   0  0  2  0  0  0  0  0  0  0  0  0
   23.2124  -20.2072  -13.4637 N   0  0  0  0  0  0  0  0  0  0  0  0
   21.8908  -18.5288  -14.6229 C   0  0  0  0  0  0  0  0  0  0  0  0
   21.4051  -17.8969  -13.6495 O   0  0  0  0  0  0  0  0  0  0  0  0
   25.2216  -14.9806  -15.6225 C   0  0  0  0  0  0  0  0  0  0  0  0
   23.9899  -15.7299  -15.1606 C   0  0  0  0  0  0  0  0  0  0  0  0
   22.9674  -15.6471  -16.2453 C   0  0  2  0  0  0  0  0  0  0  0  0
   22.6905  -14.1988  -16.5743 C   0  0  0  0  0  0  0  0  0  0  0  0
   21.6947  -16.4012  -15.9628 C   0  0  2  0  0  0  0  0  0  0  0  0
   22.0641  -17.8143  -15.8380 N   0  0  0  0  0  0  0  0  0  0  0  0
   20.6959  -16.2331  -17.0431 C   0  0  0  0  0  0  0  0  0  0  0  0
   20.7961  -16.7379  -18.1863 O   0  0  0  0  0  0  0  0  0  0  0  0
   19.5729  -15.4678  -16.7799 O   0  0  0  0  0  0  0  0  0  0  0  0
  2  1  1  1
  2  3  1  0
  2  4  1  0
  4  6  1  0
  4  5  1  1
  6 13  1  0
  6  7  2  0
  9 10  2  0
  9  8  1  0
 11  9  1  0
 12 11  1  1
 12 14  1  0
 13 12  1  0
 14 15  2  0
 17 16  1  0
 18 17  1  0
 18 20  1  0
 18 19  1  1
 20 21  1  6
 21 14  1  0
 22 24  1  0
 22 20  1  0
 23 22  2  0
M  END
$$$$
