VNI.pdb
     RDKit          3D

 24 23  0  0  1  0  0  0  0  0999 V2000
   17.5758  -12.2495  -17.5178 C   0  0  0  0  0  0  0  0  0  0  0  0
   18.3893  -11.9466  -18.7703 C   0  0  2  0  0  0  0  0  0  0  0  0
   18.9403  -13.2665  -19.2644 C   0  0  0  0  0  0  0  0  0  0  0  0
   19.5620  -11.0565  -18.4343 C   0  0  2  0  0  0  0  0  0  0  0  0
   20.5311  -11.8640  -17.7149 N   0  0  0  0  0  0  0  0  0  0  0  0
   19.1511   -9.9559  -17.5187 C   0  0  0  0  0  0  0  0  0  0  0  0
   18.3215   -9.0733  -17.8384 O   0  0  0  0  0  0  0  0  0  0  0  0
   18.6823   -6.7237  -13.3069 N   0  0  0  0  0  0  0  0  0  0  0  0
   18.5225   -8.0848  -13.0808 C   0  0  0  0  0  0  0  0  0  0  0  0
   17.9884   -8.4348  -11.9720 O   0  0  0  0  0  0  0  0  0  0  0  0
   18.8982   -9.1868  -13.9742 C   0  0  0  0  0  0  0  0  0  0  0  0
   19.4204   -8.7791  -15.3013 C   0  0  2  0  0  0  0  0  0  0  0  0
   19.7017   -9.8537  -16.1932 N   0  0  0  0  0  0  0  0  0  0  0  0
   20.6302   -7.9133  -15.0620 C   0  0  0  0  0  0  0  0  0  0  0  0
   21.7157   -8.3940  -14.6457 O   0  0  0  0  0  0  0  0  0  0  0  0
   22.1924   -4.8705  -18.8916 C   0  0  0  0  0  0  0  0  0  0  0  0
   22.1580   -5.7709  -17.6751 C   0  0  0  0  0  0  0  0  0  0  0  0
   21.9082   -4.9158  -16.4768 C   0  0  2  0  0  0  0  0  0  0  0  0
   22.9655   -3.8402  -16.3898 C   0  0  0  0  0  0  0  0  0  0  0  0
   21.7866   -5.6753  -15.1820 C   0  0  2  0  0  0  0  0  0  0  0  0
   20.5898   -6.5135  -15.2989 N   0  0  0  0  0  0  0  0  0  0  0  0
   21.6592   -4.7715  -14.0159 C   0  0  0  0  0  0  0  0  0  0  0  0
   22.5902   -4.5063  -13.2191 O   0  0  0  0  0  0  0  0  0  0  0  0
   20.4316   -4.1754  -13.7836 O   0  0  0  0  0  0  0  0  0  0  0  0
  2  1  1  1
  2  3  1  0
  2  4  1  0
  4  6  1  0
  4  5  1  1
  6 13  1  0
  6  7  2  0
  9 10  2  0
  9  8  1  0
 11  9  1  0
 12 11  1  1
 12 14  1  0
 13 12  1  0
 14 15  2  0
 17 16  1  0
 18 17  1  0
 18 20  1  0
 18 19  1  1
 20 21  1  6
 21 14  1  0
 22 24  1  0
 22 20  1  0
 23 22  2  0
M  END
$$$$
