VNI.pdb
     RDKit          3D

 24 23  0  0  1  0  0  0  0  0999 V2000
   12.3543  -11.1514  -12.2300 C   0  0  0  0  0  0  0  0  0  0  0  0
   12.7274  -11.1947  -13.7068 C   0  0  2  0  0  0  0  0  0  0  0  0
   11.7622  -12.1498  -14.3747 C   0  0  0  0  0  0  0  0  0  0  0  0
   14.1199  -11.7520  -13.8822 C   0  0  2  0  0  0  0  0  0  0  0  0
   14.0934  -13.1377  -13.4489 N   0  0  0  0  0  0  0  0  0  0  0  0
   15.0926  -11.0429  -13.0050 C   0  0  0  0  0  0  0  0  0  0  0  0
   15.4119  -11.4529  -11.8651 O   0  0  0  0  0  0  0  0  0  0  0  0
   19.0090   -6.2666  -12.7222 N   0  0  0  0  0  0  0  0  0  0  0  0
   18.5684   -7.5552  -12.4488 C   0  0  0  0  0  0  0  0  0  0  0  0
   18.9359   -8.0759  -11.3394 O   0  0  0  0  0  0  0  0  0  0  0  0
   17.7190   -8.4043  -13.2921 C   0  0  0  0  0  0  0  0  0  0  0  0
   16.5642   -9.0310  -12.6037 C   0  0  2  0  0  0  0  0  0  0  0  0
   15.7252   -9.8250  -13.4375 N   0  0  0  0  0  0  0  0  0  0  0  0
   15.7980   -7.9298  -11.9174 C   0  0  0  0  0  0  0  0  0  0  0  0
   15.0461   -7.1496  -12.5565 O   0  0  0  0  0  0  0  0  0  0  0  0
   12.2325   -6.9907   -7.4960 C   0  0  0  0  0  0  0  0  0  0  0  0
   13.3926   -6.2577   -8.1353 C   0  0  0  0  0  0  0  0  0  0  0  0
   14.1521   -7.2364   -8.9687 C   0  0  2  0  0  0  0  0  0  0  0  0
   14.7222   -8.3220   -8.0860 C   0  0  0  0  0  0  0  0  0  0  0  0
   15.2140   -6.6216   -9.8419 C   0  0  2  0  0  0  0  0  0  0  0  0
   15.8968   -7.7306  -10.5147 N   0  0  0  0  0  0  0  0  0  0  0  0
   16.1887   -5.8281   -9.0587 C   0  0  0  0  0  0  0  0  0  0  0  0
   15.9319   -4.7299   -8.5111 O   0  0  0  0  0  0  0  0  0  0  0  0
   17.4723   -6.3267   -8.9175 O   0  0  0  0  0  0  0  0  0  0  0  0
  2  1  1  1
  2  3  1  0
  2  4  1  0
  4  6  1  0
  4  5  1  1
  6 13  1  0
  6  7  2  0
  9 10  2  0
  9  8  1  0
 11  9  1  0
 12 11  1  6
 12 14  1  0
 13 12  1  0
 14 15  2  0
 17 16  1  0
 18 17  1  0
 18 20  1  0
 18 19  1  1
 20 21  1  1
 21 14  1  0
 22 24  1  0
 22 20  1  0
 23 22  2  0
M  END
$$$$
