VNI.pdb
     RDKit          3D

 24 23  0  0  1  0  0  0  0  0999 V2000
   13.3453  -12.4357  -13.9060 C   0  0  0  0  0  0  0  0  0  0  0  0
   13.5191  -13.4637  -12.7946 C   0  0  2  0  0  0  0  0  0  0  0  0
   12.2521  -14.2903  -12.7604 C   0  0  0  0  0  0  0  0  0  0  0  0
   13.6546  -12.7758  -11.4571 C   0  0  2  0  0  0  0  0  0  0  0  0
   12.4596  -11.9762  -11.2544 N   0  0  0  0  0  0  0  0  0  0  0  0
   14.8098  -11.8355  -11.4556 C   0  0  0  0  0  0  0  0  0  0  0  0
   15.9926  -12.2040  -11.6417 O   0  0  0  0  0  0  0  0  0  0  0  0
   18.9144   -8.6620  -12.1630 N   0  0  0  0  0  0  0  0  0  0  0  0
   17.5845   -8.4975  -12.5284 C   0  0  0  0  0  0  0  0  0  0  0  0
   17.2348   -7.3448  -12.9598 O   0  0  0  0  0  0  0  0  0  0  0  0
   16.5157   -9.5020  -12.4785 C   0  0  0  0  0  0  0  0  0  0  0  0
   15.6698   -9.4699  -11.2605 C   0  0  2  0  0  0  0  0  0  0  0  0
   14.6150  -10.4270  -11.2350 N   0  0  0  0  0  0  0  0  0  0  0  0
   15.1573   -8.0613  -11.1058 C   0  0  0  0  0  0  0  0  0  0  0  0
   14.2454   -7.6047  -11.8423 O   0  0  0  0  0  0  0  0  0  0  0  0
   13.8495   -6.1932   -6.3311 C   0  0  0  0  0  0  0  0  0  0  0  0
   13.8053   -6.3704   -7.8339 C   0  0  0  0  0  0  0  0  0  0  0  0
   14.9927   -5.6757   -8.4143 C   0  0  2  0  0  0  0  0  0  0  0  0
   14.9702   -4.2167   -8.0229 C   0  0  0  0  0  0  0  0  0  0  0  0
   15.1496   -5.8449   -9.9025 C   0  0  2  0  0  0  0  0  0  0  0  0
   15.6880   -7.1913  -10.1166 N   0  0  0  0  0  0  0  0  0  0  0  0
   16.0641   -4.8360  -10.4845 C   0  0  0  0  0  0  0  0  0  0  0  0
   17.3125   -4.9465  -10.5187 O   0  0  0  0  0  0  0  0  0  0  0  0
   15.5100   -3.6906  -11.0297 O   0  0  0  0  0  0  0  0  0  0  0  0
  2  1  1  6
  2  3  1  0
  2  4  1  0
  4  6  1  0
  4  5  1  6
  6 13  1  0
  6  7  2  0
  9 10  2  0
  9  8  1  0
 11  9  1  0
 12 11  1  6
 12 14  1  0
 13 12  1  0
 14 15  2  0
 17 16  1  0
 18 17  1  0
 18 20  1  0
 18 19  1  6
 20 21  1  1
 21 14  1  0
 22 24  1  0
 22 20  1  0
 23 22  2  0
M  END
$$$$
