VNI.pdb
     RDKit          3D

 24 23  0  0  1  0  0  0  0  0999 V2000
   15.8053  -15.6144  -17.0960 C   0  0  0  0  0  0  0  0  0  0  0  0
   16.3393  -14.2388  -17.4766 C   0  0  2  0  0  0  0  0  0  0  0  0
   17.2694  -14.4402  -18.6532 C   0  0  0  0  0  0  0  0  0  0  0  0
   17.1513  -13.6571  -16.3439 C   0  0  2  0  0  0  0  0  0  0  0  0
   16.3539  -13.7645  -15.1351 N   0  0  0  0  0  0  0  0  0  0  0  0
   17.4109  -12.2071  -16.5637 C   0  0  0  0  0  0  0  0  0  0  0  0
   18.1269  -11.7734  -17.4959 O   0  0  0  0  0  0  0  0  0  0  0  0
   15.0516   -9.3861  -17.9073 N   0  0  0  0  0  0  0  0  0  0  0  0
   14.9541   -8.8369  -16.6352 C   0  0  0  0  0  0  0  0  0  0  0  0
   13.9017   -8.1593  -16.3697 O   0  0  0  0  0  0  0  0  0  0  0  0
   15.9277   -8.9418  -15.5422 C   0  0  0  0  0  0  0  0  0  0  0  0
   17.0939   -9.8179  -15.8119 C   0  0  2  0  0  0  0  0  0  0  0  0
   16.8375  -11.2142  -15.6943 N   0  0  0  0  0  0  0  0  0  0  0  0
   18.2112   -9.3712  -14.9049 C   0  0  0  0  0  0  0  0  0  0  0  0
   18.0658   -9.3104  -13.6568 O   0  0  0  0  0  0  0  0  0  0  0  0
   23.7052  -10.7487  -13.9757 C   0  0  0  0  0  0  0  0  0  0  0  0
   22.8375   -9.5166  -13.8319 C   0  0  0  0  0  0  0  0  0  0  0  0
   21.6427   -9.6903  -14.7103 C   0  0  2  0  0  0  0  0  0  0  0  0
   22.0842   -9.8289  -16.1485 C   0  0  0  0  0  0  0  0  0  0  0  0
   20.5936   -8.6207  -14.5565 C   0  0  2  0  0  0  0  0  0  0  0  0
   19.4781   -8.9997  -15.4286 N   0  0  0  0  0  0  0  0  0  0  0  0
   21.1017   -7.2830  -14.9378 C   0  0  0  0  0  0  0  0  0  0  0  0
   20.9504   -6.7628  -16.0684 O   0  0  0  0  0  0  0  0  0  0  0  0
   21.7915   -6.5516  -13.9862 O   0  0  0  0  0  0  0  0  0  0  0  0
  2  1  1  1
  2  3  1  0
  2  4  1  0
  4  6  1  0
  4  5  1  1
  6 13  1  0
  6  7  2  0
  9 10  2  0
  9  8  1  0
 11  9  1  0
 12 11  1  1
 12 14  1  0
 13 12  1  0
 14 15  2  0
 17 16  1  0
 18 17  1  0
 18 20  1  0
 18 19  1  6
 20 21  1  6
 21 14  1  0
 22 24  1  0
 22 20  1  0
 23 22  2  0
M  END
$$$$
