VNI.pdb
     RDKit          3D

 24 23  0  0  1  0  0  0  0  0999 V2000
   24.2542  -14.4096  -16.1273 C   0  0  0  0  0  0  0  0  0  0  0  0
   24.5210  -15.6763  -15.3233 C   0  0  2  0  0  0  0  0  0  0  0  0
   26.0175  -15.7547  -15.1132 C   0  0  0  0  0  0  0  0  0  0  0  0
   24.1031  -16.8966  -16.1086 C   0  0  2  0  0  0  0  0  0  0  0  0
   22.7615  -16.6554  -16.6091 N   0  0  0  0  0  0  0  0  0  0  0  0
   24.0278  -18.0966  -15.2295 C   0  0  0  0  0  0  0  0  0  0  0  0
   23.2007  -18.2101  -14.2955 O   0  0  0  0  0  0  0  0  0  0  0  0
   23.8328  -22.9702  -13.9674 N   0  0  0  0  0  0  0  0  0  0  0  0
   24.9694  -22.7989  -14.7472 C   0  0  0  0  0  0  0  0  0  0  0  0
   25.5185  -23.8533  -15.2203 O   0  0  0  0  0  0  0  0  0  0  0  0
   25.6266  -21.5348  -15.0991 C   0  0  0  0  0  0  0  0  0  0  0  0
   25.0064  -20.3151  -14.5263 C   0  0  2  0  0  0  0  0  0  0  0  0
   24.9234  -19.2070  -15.4177 N   0  0  0  0  0  0  0  0  0  0  0  0
   25.7643  -19.9729  -13.2697 C   0  0  0  0  0  0  0  0  0  0  0  0
   26.8280  -19.3021  -13.3009 O   0  0  0  0  0  0  0  0  0  0  0  0
   27.0077  -18.9577   -7.7420 C   0  0  0  0  0  0  0  0  0  0  0  0
   27.1213  -20.1052   -8.7229 C   0  0  0  0  0  0  0  0  0  0  0  0
   26.1758  -19.8435   -9.8485 C   0  0  2  0  0  0  0  0  0  0  0  0
   24.7742  -19.6812   -9.3085 C   0  0  0  0  0  0  0  0  0  0  0  0
   26.2254  -20.8632  -10.9556 C   0  0  2  0  0  0  0  0  0  0  0  0
   25.3030  -20.3977  -11.9954 N   0  0  0  0  0  0  0  0  0  0  0  0
   25.8245  -22.2107  -10.4903 C   0  0  0  0  0  0  0  0  0  0  0  0
   24.6957  -22.7209  -10.6835 O   0  0  0  0  0  0  0  0  0  0  0  0
   26.7542  -22.9638   -9.7940 O   0  0  0  0  0  0  0  0  0  0  0  0
  2  1  1  6
  2  3  1  0
  2  4  1  0
  4  6  1  0
  4  5  1  1
  6 13  1  0
  6  7  2  0
  9 10  2  0
  9  8  1  0
 11  9  1  0
 12 11  1  6
 12 14  1  0
 13 12  1  0
 14 15  2  0
 17 16  1  0
 18 17  1  0
 18 20  1  0
 18 19  1  1
 20 21  1  6
 21 14  1  0
 22 24  1  0
 22 20  1  0
 23 22  2  0
M  END
$$$$
