VNI.pdb
     RDKit          3D

 24 23  0  0  1  0  0  0  0  0999 V2000
   25.2993  -20.5895  -19.3329 C   0  0  0  0  0  0  0  0  0  0  0  0
   24.7321  -19.1795  -19.4437 C   0  0  2  0  0  0  0  0  0  0  0  0
   25.8551  -18.2932  -19.9369 C   0  0  0  0  0  0  0  0  0  0  0  0
   24.3105  -18.6730  -18.0850 C   0  0  2  0  0  0  0  0  0  0  0  0
   25.3770  -17.8233  -17.5856 N   0  0  0  0  0  0  0  0  0  0  0  0
   24.1642  -19.7969  -17.1187 C   0  0  0  0  0  0  0  0  0  0  0  0
   23.3308  -20.7209  -17.2643 O   0  0  0  0  0  0  0  0  0  0  0  0
   28.2045  -21.6435  -15.7281 N   0  0  0  0  0  0  0  0  0  0  0  0
   26.9687  -22.0681  -15.2573 C   0  0  0  0  0  0  0  0  0  0  0  0
   26.5423  -23.2007  -15.6725 O   0  0  0  0  0  0  0  0  0  0  0  0
   26.0793  -21.3632  -14.3268 C   0  0  0  0  0  0  0  0  0  0  0  0
   24.8210  -20.8467  -14.9185 C   0  0  2  0  0  0  0  0  0  0  0  0
   24.9936  -19.8746  -15.9454 N   0  0  0  0  0  0  0  0  0  0  0  0
   23.9719  -20.3275  -13.7871 C   0  0  0  0  0  0  0  0  0  0  0  0
   24.2481  -19.2545  -13.1913 O   0  0  0  0  0  0  0  0  0  0  0  0
   20.0927  -17.1376  -12.6815 C   0  0  0  0  0  0  0  0  0  0  0  0
   20.4945  -18.4210  -11.9864 C   0  0  0  0  0  0  0  0  0  0  0  0
   21.3765  -19.1899  -12.9139 C   0  0  2  0  0  0  0  0  0  0  0  0
   20.6607  -19.4180  -14.2247 C   0  0  0  0  0  0  0  0  0  0  0  0
   21.9086  -20.4788  -12.3448 C   0  0  2  0  0  0  0  0  0  0  0  0
   22.8210  -21.0346  -13.3484 N   0  0  0  0  0  0  0  0  0  0  0  0
   20.8271  -21.4474  -12.0529 C   0  0  0  0  0  0  0  0  0  0  0  0
   20.0922  -21.4051  -11.0380 O   0  0  0  0  0  0  0  0  0  0  0  0
   20.6068  -22.4716  -12.9577 O   0  0  0  0  0  0  0  0  0  0  0  0
  2  1  1  1
  2  3  1  0
  2  4  1  0
  4  6  1  0
  4  5  1  1
  6 13  1  0
  6  7  2  0
  9 10  2  0
  9  8  1  0
 11  9  1  0
 12 11  1  1
 12 14  1  0
 13 12  1  0
 14 15  2  0
 17 16  1  0
 18 17  1  0
 18 20  1  0
 18 19  1  6
 20 21  1  6
 21 14  1  0
 22 24  1  0
 22 20  1  0
 23 22  2  0
M  END
$$$$
