VNI.pdb
     RDKit          3D

 24 23  0  0  1  0  0  0  0  0999 V2000
   25.4817  -18.2840  -18.1342 C   0  0  0  0  0  0  0  0  0  0  0  0
   24.9223  -18.8659  -19.4268 C   0  0  2  0  0  0  0  0  0  0  0  0
   25.2922  -17.9051  -20.5358 C   0  0  0  0  0  0  0  0  0  0  0  0
   23.4151  -18.9360  -19.3640 C   0  0  2  0  0  0  0  0  0  0  0  0
   22.9180  -17.5746  -19.2740 N   0  0  0  0  0  0  0  0  0  0  0  0
   22.9649  -19.6433  -18.1329 C   0  0  0  0  0  0  0  0  0  0  0  0
   23.2093  -20.8515  -17.9094 O   0  0  0  0  0  0  0  0  0  0  0  0
   21.6952  -21.0562  -13.1233 N   0  0  0  0  0  0  0  0  0  0  0  0
   21.4621  -19.7427  -13.5100 C   0  0  0  0  0  0  0  0  0  0  0  0
   20.6775  -19.0475  -12.7764 O   0  0  0  0  0  0  0  0  0  0  0  0
   22.0157  -19.0454  -14.6766 C   0  0  0  0  0  0  0  0  0  0  0  0
   21.6233  -19.6014  -15.9946 C   0  0  2  0  0  0  0  0  0  0  0  0
   22.2106  -18.9543  -17.1196 N   0  0  0  0  0  0  0  0  0  0  0  0
   20.1178  -19.5877  -16.0582 C   0  0  0  0  0  0  0  0  0  0  0  0
   19.4728  -18.5215  -16.2302 O   0  0  0  0  0  0  0  0  0  0  0  0
   15.9005  -23.5421  -17.7741 C   0  0  0  0  0  0  0  0  0  0  0  0
   16.0800  -22.2731  -16.9684 C   0  0  0  0  0  0  0  0  0  0  0  0
   17.5370  -22.1097  -16.6860 C   0  0  2  0  0  0  0  0  0  0  0  0
   18.0323  -23.2823  -15.8722 C   0  0  0  0  0  0  0  0  0  0  0  0
   17.9054  -20.7982  -16.0438 C   0  0  2  0  0  0  0  0  0  0  0  0
   19.3664  -20.7856  -15.9256 N   0  0  0  0  0  0  0  0  0  0  0  0
   17.2884  -20.6397  -14.7069 C   0  0  0  0  0  0  0  0  0  0  0  0
   16.0752  -20.3919  -14.5108 O   0  0  0  0  0  0  0  0  0  0  0  0
   18.1004  -20.7730  -13.5938 O   0  0  0  0  0  0  0  0  0  0  0  0
  2  1  1  1
  2  3  1  0
  2  4  1  0
  4  6  1  0
  4  5  1  1
  6 13  1  0
  6  7  2  0
  9 10  2  0
  9  8  1  0
 11  9  1  0
 12 11  1  1
 12 14  1  0
 13 12  1  0
 14 15  2  0
 17 16  1  0
 18 17  1  0
 18 20  1  0
 18 19  1  1
 20 21  1  1
 21 14  1  0
 22 24  1  0
 22 20  1  0
 23 22  2  0
M  END
$$$$
