KPM.pdb
     RDKit          3D

 25 25  0  0  1  0  0  0  0  0999 V2000
   11.8656  -17.2023   19.5786 N   0  0  0  0  0  0  0  0  0  0  0  0
   10.5375  -17.4994   19.9516 C   0  0  1  0  0  0  0  0  0  0  0  0
   10.2602  -18.8981   20.4094 C   0  0  0  0  0  0  0  0  0  0  0  0
   10.4956  -19.9515   19.3984 C   0  0  0  0  0  0  0  0  0  0  0  0
   10.2627  -21.3240   19.9140 C   0  0  0  0  0  0  0  0  0  0  0  0
   10.5033  -22.3695   18.8033 C   0  0  0  0  0  0  0  0  0  0  0  0
   10.2922  -23.6981   19.3208 N   0  0  0  0  0  0  0  0  0  0  0  0
    9.9939  -16.5367   20.9508 C   0  0  0  0  0  0  0  0  0  0  0  0
   10.8569  -16.1138   21.7825 O   0  0  0  0  0  0  0  0  0  0  0  0
    8.6802  -16.0742   21.0559 N   0  0  0  0  0  0  0  0  0  0  0  0
    7.5876  -16.4708   20.2172 C   0  0  0  0  0  0  0  0  0  0  0  0
    6.3281  -15.7980   20.6816 C   0  0  0  0  0  0  0  0  0  0  0  0
    6.8524  -14.6403   21.5035 C   0  0  0  0  0  0  0  0  0  0  0  0
    8.1910  -15.1309   22.0067 C   0  0  1  0  0  0  0  0  0  0  0  0
    8.0437  -15.6624   23.3661 C   0  0  0  0  0  0  0  0  0  0  0  0
    8.0889  -16.9074   23.5382 O   0  0  0  0  0  0  0  0  0  0  0  0
    5.9961  -11.1493   27.9511 C   0  0  0  0  0  0  0  0  0  0  0  0
    6.0849  -11.9736   26.3623 S   0  0  0  0  0  0  0  0  0  0  0  0
    7.6837  -12.7066   26.0245 C   0  0  0  0  0  0  0  0  0  0  0  0
    7.9019  -14.0094   26.7664 C   0  0  0  0  0  0  0  0  0  0  0  0
    8.4651  -15.0150   25.7658 C   0  0  2  0  0  0  0  0  0  0  0  0
    7.8535  -14.7952   24.4720 N   0  0  0  0  0  0  0  0  0  0  0  0
    8.0636  -16.3680   26.2260 C   0  0  0  0  0  0  0  0  0  0  0  0
    7.1324  -17.0161   25.6560 O   0  0  0  0  0  0  0  0  0  0  0  0
    8.6949  -16.9791   27.3033 O   0  0  0  0  0  0  0  0  0  0  0  0
  2  1  1  1
  2  3  1  0
  3  4  1  0
  4  5  1  0
  6  7  1  0
  6  5  1  0
  8  2  1  0
  8 10  1  0
  9  8  2  0
 10 14  1  0
 11 10  1  0
 12 13  1  0
 12 11  1  0
 13 14  1  0
 14 15  1  1
 15 16  2  0
 15 22  1  0
 17 18  1  0
 18 19  1  0
 19 20  1  0
 21 20  1  1
 21 23  1  0
 22 21  1  0
 23 24  2  0
 23 25  1  0
M  END
$$$$
