KPM.pdb
     RDKit          3D

 25 25  0  0  1  0  0  0  0  0999 V2000
   11.6708  -17.2059   19.1533 N   0  0  0  0  0  0  0  0  0  0  0  0
   10.2864  -17.2551   19.4219 C   0  0  1  0  0  0  0  0  0  0  0  0
    9.6653  -18.6138   19.5264 C   0  0  0  0  0  0  0  0  0  0  0  0
   10.3214  -19.5362   20.4782 C   0  0  0  0  0  0  0  0  0  0  0  0
    9.3743  -20.4644   21.1455 C   0  0  0  0  0  0  0  0  0  0  0  0
   10.0913  -21.2704   22.2504 C   0  0  0  0  0  0  0  0  0  0  0  0
   11.1993  -22.0015   21.6889 N   0  0  0  0  0  0  0  0  0  0  0  0
    9.9047  -16.4455   20.6134 C   0  0  0  0  0  0  0  0  0  0  0  0
   10.8511  -16.2711   21.4435 O   0  0  0  0  0  0  0  0  0  0  0  0
    8.6569  -15.8835   20.8930 N   0  0  0  0  0  0  0  0  0  0  0  0
    7.4620  -16.0849   20.1275 C   0  0  0  0  0  0  0  0  0  0  0  0
    6.3199  -15.3600   20.7795 C   0  0  0  0  0  0  0  0  0  0  0  0
    7.0250  -14.3533   21.6626 C   0  0  0  0  0  0  0  0  0  0  0  0
    8.3474  -15.0138   21.9797 C   0  0  1  0  0  0  0  0  0  0  0  0
    8.2671  -15.6800   23.2843 C   0  0  0  0  0  0  0  0  0  0  0  0
    8.1166  -16.9282   23.3191 O   0  0  0  0  0  0  0  0  0  0  0  0
    5.3228  -11.3161   26.8936 C   0  0  0  0  0  0  0  0  0  0  0  0
    6.9477  -12.0698   26.9530 S   0  0  0  0  0  0  0  0  0  0  0  0
    6.9245  -13.8422   26.6966 C   0  0  0  0  0  0  0  0  0  0  0  0
    8.2879  -14.4795   26.8705 C   0  0  0  0  0  0  0  0  0  0  0  0
    8.4285  -15.5554   25.7970 C   0  0  2  0  0  0  0  0  0  0  0  0
    8.3567  -14.9378   24.4894 N   0  0  0  0  0  0  0  0  0  0  0  0
    7.2617  -16.4638   25.9269 C   0  0  0  0  0  0  0  0  0  0  0  0
    7.2275  -17.3829   26.8021 O   0  0  0  0  0  0  0  0  0  0  0  0
    6.1574  -16.3418   25.0913 O   0  0  0  0  0  0  0  0  0  0  0  0
  2  1  1  1
  2  3  1  0
  3  4  1  0
  4  5  1  0
  6  7  1  0
  6  5  1  0
  8  2  1  0
  8 10  1  0
  9  8  2  0
 10 14  1  0
 11 10  1  0
 12 13  1  0
 12 11  1  0
 13 14  1  0
 14 15  1  1
 15 16  2  0
 15 22  1  0
 17 18  1  0
 18 19  1  0
 19 20  1  0
 21 20  1  1
 21 23  1  0
 22 21  1  0
 23 24  2  0
 23 25  1  0
M  END
$$$$
