KPM.pdb
     RDKit          3D

 25 25  0  0  1  0  0  0  0  0999 V2000
    7.7497  -13.1675   17.8917 N   0  0  0  0  0  0  0  0  0  0  0  0
    8.2502  -14.3730   18.4278 C   0  0  1  0  0  0  0  0  0  0  0  0
    9.7310  -14.5836   18.3526 C   0  0  0  0  0  0  0  0  0  0  0  0
   10.2024  -15.3350   17.1692 C   0  0  0  0  0  0  0  0  0  0  0  0
   11.6819  -15.4063   17.0689 C   0  0  0  0  0  0  0  0  0  0  0  0
   12.1050  -16.0536   15.7322 C   0  0  0  0  0  0  0  0  0  0  0  0
   13.5144  -15.8507   15.5090 N   0  0  0  0  0  0  0  0  0  0  0  0
    7.7881  -14.6149   19.8238 C   0  0  0  0  0  0  0  0  0  0  0  0
    7.6835  -13.5588   20.5230 O   0  0  0  0  0  0  0  0  0  0  0  0
    7.4722  -15.8415   20.4124 N   0  0  0  0  0  0  0  0  0  0  0  0
    7.5622  -17.1207   19.7722 C   0  0  0  0  0  0  0  0  0  0  0  0
    7.1919  -18.1987   20.7498 C   0  0  0  0  0  0  0  0  0  0  0  0
    6.4259  -17.4378   21.8104 C   0  0  0  0  0  0  0  0  0  0  0  0
    7.0056  -16.0431   21.7447 C   0  0  1  0  0  0  0  0  0  0  0  0
    8.0360  -15.8867   22.7772 C   0  0  0  0  0  0  0  0  0  0  0  0
    9.2083  -16.2666   22.5259 O   0  0  0  0  0  0  0  0  0  0  0  0
    7.5545  -10.9365   27.4554 C   0  0  0  0  0  0  0  0  0  0  0  0
    6.4774  -11.8087   26.3192 S   0  0  0  0  0  0  0  0  0  0  0  0
    7.3414  -12.9643   25.2582 C   0  0  0  0  0  0  0  0  0  0  0  0
    8.1285  -14.0002   26.0345 C   0  0  0  0  0  0  0  0  0  0  0  0
    8.7299  -14.9698   25.0207 C   0  0  2  0  0  0  0  0  0  0  0  0
    7.7246  -15.3184   24.0386 N   0  0  0  0  0  0  0  0  0  0  0  0
    9.0873  -16.2100   25.7540 C   0  0  0  0  0  0  0  0  0  0  0  0
   10.0762  -16.2518   26.5492 O   0  0  0  0  0  0  0  0  0  0  0  0
    8.3494  -17.3776   25.5968 O   0  0  0  0  0  0  0  0  0  0  0  0
  2  1  1  1
  2  3  1  0
  3  4  1  0
  4  5  1  0
  6  7  1  0
  6  5  1  0
  8  2  1  0
  8 10  1  0
  9  8  2  0
 10 14  1  0
 11 10  1  0
 12 13  1  0
 12 11  1  0
 13 14  1  0
 14 15  1  1
 15 16  2  0
 15 22  1  0
 17 18  1  0
 18 19  1  0
 19 20  1  0
 21 20  1  1
 21 23  1  0
 22 21  1  0
 23 24  2  0
 23 25  1  0
M  END
$$$$
