KPM.pdb
     RDKit          3D

 25 25  0  0  1  0  0  0  0  0999 V2000
    8.9893  -15.0382   19.7486 N   0  0  0  0  0  0  0  0  0  0  0  0
    8.0845  -15.2853   20.8029 C   0  0  1  0  0  0  0  0  0  0  0  0
    7.3846  -16.6093   20.7973 C   0  0  0  0  0  0  0  0  0  0  0  0
    8.2510  -17.7823   21.0432 C   0  0  0  0  0  0  0  0  0  0  0  0
    7.5141  -19.0710   21.0290 C   0  0  0  0  0  0  0  0  0  0  0  0
    8.4849  -20.2541   21.2349 C   0  0  0  0  0  0  0  0  0  0  0  0
    7.7613  -21.5000   21.1949 N   0  0  0  0  0  0  0  0  0  0  0  0
    8.6906  -15.0537   22.1444 C   0  0  0  0  0  0  0  0  0  0  0  0
    9.9454  -15.2516   22.1850 O   0  0  0  0  0  0  0  0  0  0  0  0
    8.0376  -14.6561   23.3133 N   0  0  0  0  0  0  0  0  0  0  0  0
    6.6191  -14.5244   23.4717 C   0  0  0  0  0  0  0  0  0  0  0  0
    6.3062  -14.1316   24.8868 C   0  0  0  0  0  0  0  0  0  0  0  0
    7.6260  -13.5776   25.3784 C   0  0  0  0  0  0  0  0  0  0  0  0
    8.6569  -14.3104   24.5503 C   0  0  1  0  0  0  0  0  0  0  0  0
    9.1770  -15.4544   25.3073 C   0  0  0  0  0  0  0  0  0  0  0  0
    8.8520  -16.6157   24.9502 O   0  0  0  0  0  0  0  0  0  0  0  0
   10.1136  -13.9222   31.7522 C   0  0  0  0  0  0  0  0  0  0  0  0
   11.3324  -14.5780   30.6138 S   0  0  0  0  0  0  0  0  0  0  0  0
   10.6258  -15.2090   29.0939 C   0  0  0  0  0  0  0  0  0  0  0  0
   11.6702  -15.7559   28.1423 C   0  0  0  0  0  0  0  0  0  0  0  0
   10.9353  -16.2830   26.9128 C   0  0  2  0  0  0  0  0  0  0  0  0
   10.0314  -15.2634   26.4231 N   0  0  0  0  0  0  0  0  0  0  0  0
   10.1115  -17.4372   27.3517 C   0  0  0  0  0  0  0  0  0  0  0  0
   10.6274  -18.5741   27.5823 O   0  0  0  0  0  0  0  0  0  0  0  0
    8.7378  -17.3161   27.5276 O   0  0  0  0  0  0  0  0  0  0  0  0
  2  1  1  6
  2  3  1  0
  3  4  1  0
  4  5  1  0
  6  7  1  0
  6  5  1  0
  8  2  1  0
  8 10  1  0
  9  8  2  0
 10 14  1  0
 11 10  1  0
 12 13  1  0
 12 11  1  0
 13 14  1  0
 14 15  1  1
 15 16  2  0
 15 22  1  0
 17 18  1  0
 18 19  1  0
 19 20  1  0
 21 20  1  1
 21 23  1  0
 22 21  1  0
 23 24  2  0
 23 25  1  0
M  END
$$$$
