KPM.pdb
     RDKit          3D

 25 25  0  0  1  0  0  0  0  0999 V2000
   10.1959  -17.9256   18.2482 N   0  0  0  0  0  0  0  0  0  0  0  0
    8.9901  -17.4456   18.8021 C   0  0  1  0  0  0  0  0  0  0  0  0
    8.0200  -18.4710   19.3023 C   0  0  0  0  0  0  0  0  0  0  0  0
    8.6251  -19.6209   20.0085 C   0  0  0  0  0  0  0  0  0  0  0  0
    7.6411  -20.6705   20.3744 C   0  0  0  0  0  0  0  0  0  0  0  0
    8.3445  -21.8553   21.0716 C   0  0  0  0  0  0  0  0  0  0  0  0
    8.1810  -23.0560   20.2913 N   0  0  0  0  0  0  0  0  0  0  0  0
    9.2136  -16.4207   19.8606 C   0  0  0  0  0  0  0  0  0  0  0  0
   10.2663  -16.6092   20.5474 O   0  0  0  0  0  0  0  0  0  0  0  0
    8.4092  -15.3181   20.1574 N   0  0  0  0  0  0  0  0  0  0  0  0
    7.1815  -14.9811   19.4990 C   0  0  0  0  0  0  0  0  0  0  0  0
    6.5865  -13.7605   20.1401 C   0  0  0  0  0  0  0  0  0  0  0  0
    7.7710  -13.1504   20.8580 C   0  0  0  0  0  0  0  0  0  0  0  0
    8.6609  -14.3349   21.1590 C   0  0  1  0  0  0  0  0  0  0  0  0
    8.4243  -14.7950   22.5318 C   0  0  0  0  0  0  0  0  0  0  0  0
    7.4557  -15.5659   22.7542 O   0  0  0  0  0  0  0  0  0  0  0  0
    5.9629  -10.4622   27.2409 C   0  0  0  0  0  0  0  0  0  0  0  0
    5.9983  -12.1539   26.6504 S   0  0  0  0  0  0  0  0  0  0  0  0
    7.4829  -12.5618   25.7355 C   0  0  0  0  0  0  0  0  0  0  0  0
    7.4332  -13.9456   25.1206 C   0  0  0  0  0  0  0  0  0  0  0  0
    8.8721  -14.4369   24.9868 C   0  0  2  0  0  0  0  0  0  0  0  0
    9.2677  -14.3831   23.5950 N   0  0  0  0  0  0  0  0  0  0  0  0
    8.8927  -15.8617   25.4025 C   0  0  0  0  0  0  0  0  0  0  0  0
    8.4653  -16.7837   24.6415 O   0  0  0  0  0  0  0  0  0  0  0  0
    9.3830  -16.2419   26.6466 O   0  0  0  0  0  0  0  0  0  0  0  0
  2  1  1  1
  2  3  1  0
  3  4  1  0
  4  5  1  0
  6  7  1  0
  6  5  1  0
  8  2  1  0
  8 10  1  0
  9  8  2  0
 10 14  1  0
 11 10  1  0
 12 13  1  0
 12 11  1  0
 13 14  1  0
 14 15  1  1
 15 16  2  0
 15 22  1  0
 17 18  1  0
 18 19  1  0
 19 20  1  0
 21 20  1  6
 21 23  1  0
 22 21  1  0
 23 24  2  0
 23 25  1  0
M  END
$$$$
