KPM.pdb
     RDKit          3D

 25 25  0  0  1  0  0  0  0  0999 V2000
    7.2692  -18.7382   18.8081 N   0  0  0  0  0  0  0  0  0  0  0  0
    6.7498  -17.4522   19.0681 C   0  0  1  0  0  0  0  0  0  0  0  0
    5.3646  -17.3836   19.6334 C   0  0  0  0  0  0  0  0  0  0  0  0
    4.7371  -18.6903   19.9266 C   0  0  0  0  0  0  0  0  0  0  0  0
    4.0379  -18.7264   21.2356 C   0  0  0  0  0  0  0  0  0  0  0  0
    3.4537  -20.1311   21.5007 C   0  0  0  0  0  0  0  0  0  0  0  0
    2.8857  -20.1885   22.8242 N   0  0  0  0  0  0  0  0  0  0  0  0
    7.6643  -16.6226   19.9025 C   0  0  0  0  0  0  0  0  0  0  0  0
    8.3896  -17.2965   20.6993 O   0  0  0  0  0  0  0  0  0  0  0  0
    7.7947  -15.2320   19.8923 N   0  0  0  0  0  0  0  0  0  0  0  0
    7.0939  -14.3357   19.0205 C   0  0  0  0  0  0  0  0  0  0  0  0
    7.4617  -12.9190   19.3557 C   0  0  0  0  0  0  0  0  0  0  0  0
    8.7581  -13.0832   20.1193 C   0  0  0  0  0  0  0  0  0  0  0  0
    8.6417  -14.4575   20.7384 C   0  0  1  0  0  0  0  0  0  0  0  0
    8.1694  -14.3381   22.1222 C   0  0  0  0  0  0  0  0  0  0  0  0
    7.1775  -13.6032   22.3627 O   0  0  0  0  0  0  0  0  0  0  0  0
    6.6650  -11.5043   28.2619 C   0  0  0  0  0  0  0  0  0  0  0  0
    6.3342  -12.9090   27.1993 S   0  0  0  0  0  0  0  0  0  0  0  0
    7.8101  -13.6296   26.4852 C   0  0  0  0  0  0  0  0  0  0  0  0
    7.6064  -14.0935   25.0573 C   0  0  0  0  0  0  0  0  0  0  0  0
    8.9742  -14.4877   24.5066 C   0  0  2  0  0  0  0  0  0  0  0  0
    8.8137  -15.0352   23.1758 N   0  0  0  0  0  0  0  0  0  0  0  0
    9.5045  -15.5693   25.3739 C   0  0  0  0  0  0  0  0  0  0  0  0
    9.6492  -16.7557   24.9456 O   0  0  0  0  0  0  0  0  0  0  0  0
    9.8643  -15.3228   26.6939 O   0  0  0  0  0  0  0  0  0  0  0  0
  2  1  1  1
  2  3  1  0
  3  4  1  0
  4  5  1  0
  6  7  1  0
  6  5  1  0
  8  2  1  0
  8 10  1  0
  9  8  2  0
 10 14  1  0
 11 10  1  0
 12 13  1  0
 12 11  1  0
 13 14  1  0
 14 15  1  1
 15 16  2  0
 15 22  1  0
 17 18  1  0
 18 19  1  0
 19 20  1  0
 21 20  1  1
 21 23  1  0
 22 21  1  0
 23 24  2  0
 23 25  1  0
M  END
$$$$
