KPM.pdb
     RDKit          3D

 25 25  0  0  1  0  0  0  0  0999 V2000
   10.0624  -18.4489   18.9507 N   0  0  0  0  0  0  0  0  0  0  0  0
    8.8703  -17.8608   19.4244 C   0  0  1  0  0  0  0  0  0  0  0  0
    7.8152  -18.7908   19.9387 C   0  0  0  0  0  0  0  0  0  0  0  0
    8.3052  -20.1069   20.4022 C   0  0  0  0  0  0  0  0  0  0  0  0
    8.9407  -20.0591   21.7429 C   0  0  0  0  0  0  0  0  0  0  0  0
    9.3197  -21.4796   22.2154 C   0  0  0  0  0  0  0  0  0  0  0  0
   10.7377  -21.6891   22.0640 N   0  0  0  0  0  0  0  0  0  0  0  0
    9.1197  -16.7922   20.4326 C   0  0  0  0  0  0  0  0  0  0  0  0
   10.2013  -16.9391   21.0836 O   0  0  0  0  0  0  0  0  0  0  0  0
    8.3108  -15.6899   20.7184 N   0  0  0  0  0  0  0  0  0  0  0  0
    7.0259  -15.4271   20.1403 C   0  0  0  0  0  0  0  0  0  0  0  0
    6.4498  -14.1785   20.7435 C   0  0  0  0  0  0  0  0  0  0  0  0
    7.6699  -13.4936   21.3204 C   0  0  0  0  0  0  0  0  0  0  0  0
    8.6135  -14.6341   21.6277 C   0  0  1  0  0  0  0  0  0  0  0  0
    8.4993  -15.0027   23.0430 C   0  0  0  0  0  0  0  0  0  0  0  0
    7.5455  -15.7395   23.4024 O   0  0  0  0  0  0  0  0  0  0  0  0
    5.9840  -10.9918   26.5891 C   0  0  0  0  0  0  0  0  0  0  0  0
    7.2168  -11.9197   27.5006 S   0  0  0  0  0  0  0  0  0  0  0  0
    7.3740  -13.6210   26.9635 C   0  0  0  0  0  0  0  0  0  0  0  0
    7.7069  -13.7444   25.4906 C   0  0  0  0  0  0  0  0  0  0  0  0
    9.1182  -14.3168   25.3887 C   0  0  2  0  0  0  0  0  0  0  0  0
    9.4431  -14.5412   23.9957 N   0  0  0  0  0  0  0  0  0  0  0  0
    9.1084  -15.6387   26.0640 C   0  0  0  0  0  0  0  0  0  0  0  0
    9.0659  -15.7400   27.3288 O   0  0  0  0  0  0  0  0  0  0  0  0
    9.1457  -16.8209   25.3334 O   0  0  0  0  0  0  0  0  0  0  0  0
  2  1  1  1
  2  3  1  0
  3  4  1  0
  4  5  1  0
  6  7  1  0
  6  5  1  0
  8  2  1  0
  8 10  1  0
  9  8  2  0
 10 14  1  0
 11 10  1  0
 12 13  1  0
 12 11  1  0
 13 14  1  0
 14 15  1  1
 15 16  2  0
 15 22  1  0
 17 18  1  0
 18 19  1  0
 19 20  1  0
 21 20  1  6
 21 23  1  0
 22 21  1  0
 23 24  2  0
 23 25  1  0
M  END
$$$$
