KPM.pdb
     RDKit          3D

 25 25  0  0  1  0  0  0  0  0999 V2000
    8.5079  -18.5199   18.7726 N   0  0  0  0  0  0  0  0  0  0  0  0
    7.5941  -17.6410   19.3921 C   0  0  1  0  0  0  0  0  0  0  0  0
    6.4559  -18.2648   20.1391 C   0  0  0  0  0  0  0  0  0  0  0  0
    6.8451  -19.1649   21.2460 C   0  0  0  0  0  0  0  0  0  0  0  0
    5.6874  -19.6834   22.0173 C   0  0  0  0  0  0  0  0  0  0  0  0
    6.1641  -20.6211   23.1478 C   0  0  0  0  0  0  0  0  0  0  0  0
    5.0445  -21.0229   23.9618 N   0  0  0  0  0  0  0  0  0  0  0  0
    8.2661  -16.6377   20.2654 C   0  0  0  0  0  0  0  0  0  0  0  0
    9.2501  -17.1020   20.9223 O   0  0  0  0  0  0  0  0  0  0  0  0
    7.9310  -15.2911   20.4241 N   0  0  0  0  0  0  0  0  0  0  0  0
    6.9023  -14.5982   19.7057 C   0  0  0  0  0  0  0  0  0  0  0  0
    6.8118  -13.1828   20.1987 C   0  0  0  0  0  0  0  0  0  0  0  0
    8.1509  -12.9789   20.8740 C   0  0  0  0  0  0  0  0  0  0  0  0
    8.5462  -14.3682   21.3202 C   0  0  1  0  0  0  0  0  0  0  0  0
    8.1820  -14.5576   22.7286 C   0  0  0  0  0  0  0  0  0  0  0  0
    6.9763  -14.7652   23.0202 O   0  0  0  0  0  0  0  0  0  0  0  0
    6.0734  -11.1905   27.1278 C   0  0  0  0  0  0  0  0  0  0  0  0
    6.9226  -12.7622   26.9855 S   0  0  0  0  0  0  0  0  0  0  0  0
    6.7144  -13.5464   25.3888 C   0  0  0  0  0  0  0  0  0  0  0  0
    7.3595  -14.9154   25.3173 C   0  0  0  0  0  0  0  0  0  0  0  0
    8.8619  -14.7034   25.1518 C   0  0  2  0  0  0  0  0  0  0  0  0
    9.1652  -14.5092   23.7495 N   0  0  0  0  0  0  0  0  0  0  0  0
    9.5347  -15.9534   25.5857 C   0  0  0  0  0  0  0  0  0  0  0  0
    8.9232  -17.0659   25.6072 O   0  0  0  0  0  0  0  0  0  0  0  0
   10.8658  -15.9530   25.9868 O   0  0  0  0  0  0  0  0  0  0  0  0
  2  1  1  1
  2  3  1  0
  3  4  1  0
  4  5  1  0
  6  7  1  0
  6  5  1  0
  8  2  1  0
  8 10  1  0
  9  8  2  0
 10 14  1  0
 11 10  1  0
 12 13  1  0
 12 11  1  0
 13 14  1  0
 14 15  1  1
 15 16  2  0
 15 22  1  0
 17 18  1  0
 18 19  1  0
 19 20  1  0
 21 20  1  6
 21 23  1  0
 22 21  1  0
 23 24  2  0
 23 25  1  0
M  END
$$$$
