KPM.pdb
     RDKit          3D

 25 25  0  0  1  0  0  0  0  0999 V2000
   10.2271  -18.0224   18.5581 N   0  0  0  0  0  0  0  0  0  0  0  0
    9.0167  -17.4127   18.9511 C   0  0  1  0  0  0  0  0  0  0  0  0
    7.8784  -18.3250   19.2898 C   0  0  0  0  0  0  0  0  0  0  0  0
    8.2435  -19.5274   20.0695 C   0  0  0  0  0  0  0  0  0  0  0  0
    7.0964  -20.4351   20.3226 C   0  0  0  0  0  0  0  0  0  0  0  0
    7.5800  -21.7584   20.9548 C   0  0  0  0  0  0  0  0  0  0  0  0
    6.4524  -22.6063   21.2500 N   0  0  0  0  0  0  0  0  0  0  0  0
    9.2030  -16.4268   20.0530 C   0  0  0  0  0  0  0  0  0  0  0  0
   10.1217  -16.7380   20.8741 O   0  0  0  0  0  0  0  0  0  0  0  0
    8.4929  -15.2420   20.2604 N   0  0  0  0  0  0  0  0  0  0  0  0
    7.3461  -14.8162   19.5135 C   0  0  0  0  0  0  0  0  0  0  0  0
    6.8346  -13.5204   20.0738 C   0  0  0  0  0  0  0  0  0  0  0  0
    8.0269  -12.9976   20.8458 C   0  0  0  0  0  0  0  0  0  0  0  0
    8.7775  -14.2484   21.2428 C   0  0  1  0  0  0  0  0  0  0  0  0
    8.4142  -14.6296   22.6121 C   0  0  0  0  0  0  0  0  0  0  0  0
    7.4545  -15.4237   22.7857 O   0  0  0  0  0  0  0  0  0  0  0  0
    6.1764  -10.9785   27.7764 C   0  0  0  0  0  0  0  0  0  0  0  0
    6.4569  -11.8870   26.2573 S   0  0  0  0  0  0  0  0  0  0  0  0
    6.9241  -13.5957   26.5209 C   0  0  0  0  0  0  0  0  0  0  0  0
    7.2360  -14.3260   25.2306 C   0  0  0  0  0  0  0  0  0  0  0  0
    8.7552  -14.3891   25.0983 C   0  0  2  0  0  0  0  0  0  0  0  0
    9.1269  -14.1166   23.7257 N   0  0  0  0  0  0  0  0  0  0  0  0
    9.1677  -15.7816   25.4051 C   0  0  0  0  0  0  0  0  0  0  0  0
    9.0129  -16.7221   24.5664 O   0  0  0  0  0  0  0  0  0  0  0  0
    9.7416  -16.1099   26.6280 O   0  0  0  0  0  0  0  0  0  0  0  0
  2  1  1  1
  2  3  1  0
  3  4  1  0
  4  5  1  0
  6  7  1  0
  6  5  1  0
  8  2  1  0
  8 10  1  0
  9  8  2  0
 10 14  1  0
 11 10  1  0
 12 13  1  0
 12 11  1  0
 13 14  1  0
 14 15  1  1
 15 16  2  0
 15 22  1  0
 17 18  1  0
 18 19  1  0
 19 20  1  0
 21 20  1  6
 21 23  1  0
 22 21  1  0
 23 24  2  0
 23 25  1  0
M  END
$$$$
