KPM.pdb
     RDKit          3D

 25 25  0  0  1  0  0  0  0  0999 V2000
    7.2684  -19.7925   20.6304 N   0  0  0  0  0  0  0  0  0  0  0  0
    6.7716  -18.6810   21.3438 C   0  0  1  0  0  0  0  0  0  0  0  0
    6.1779  -18.9526   22.6915 C   0  0  0  0  0  0  0  0  0  0  0  0
    7.0254  -19.7479   23.6060 C   0  0  0  0  0  0  0  0  0  0  0  0
    6.3266  -20.1547   24.8511 C   0  0  0  0  0  0  0  0  0  0  0  0
    7.2869  -20.9193   25.7879 C   0  0  0  0  0  0  0  0  0  0  0  0
    6.6020  -21.2930   26.9998 N   0  0  0  0  0  0  0  0  0  0  0  0
    7.7696  -17.5803   21.4574 C   0  0  0  0  0  0  0  0  0  0  0  0
    8.9630  -17.9816   21.6303 O   0  0  0  0  0  0  0  0  0  0  0  0
    7.5279  -16.2060   21.3946 N   0  0  0  0  0  0  0  0  0  0  0  0
    6.2357  -15.5859   21.4049 C   0  0  0  0  0  0  0  0  0  0  0  0
    6.3950  -14.0930   21.3809 C   0  0  0  0  0  0  0  0  0  0  0  0
    7.8075  -13.9169   20.8666 C   0  0  0  0  0  0  0  0  0  0  0  0
    8.5132  -15.1789   21.3081 C   0  0  1  0  0  0  0  0  0  0  0  0
    9.2379  -14.9284   22.5588 C   0  0  0  0  0  0  0  0  0  0  0  0
   10.2360  -14.1634   22.5381 O   0  0  0  0  0  0  0  0  0  0  0  0
    6.6785  -10.5793   26.7120 C   0  0  0  0  0  0  0  0  0  0  0  0
    6.7027  -12.3707   26.7540 S   0  0  0  0  0  0  0  0  0  0  0  0
    8.0802  -13.0891   25.8629 C   0  0  0  0  0  0  0  0  0  0  0  0
    8.0668  -14.6040   25.8812 C   0  0  0  0  0  0  0  0  0  0  0  0
    9.2721  -15.0803   25.0750 C   0  0  2  0  0  0  0  0  0  0  0  0
    8.8274  -15.5338   23.7738 N   0  0  0  0  0  0  0  0  0  0  0  0
    9.8434  -16.2518   25.7854 C   0  0  0  0  0  0  0  0  0  0  0  0
   10.4711  -16.1248   26.8816 O   0  0  0  0  0  0  0  0  0  0  0  0
    9.7121  -17.5381   25.2746 O   0  0  0  0  0  0  0  0  0  0  0  0
  2  1  1  1
  2  3  1  0
  3  4  1  0
  4  5  1  0
  6  7  1  0
  6  5  1  0
  8  2  1  0
  8 10  1  0
  9  8  2  0
 10 14  1  0
 11 10  1  0
 12 13  1  0
 12 11  1  0
 13 14  1  0
 14 15  1  1
 15 16  2  0
 15 22  1  0
 17 18  1  0
 18 19  1  0
 19 20  1  0
 21 20  1  1
 21 23  1  0
 22 21  1  0
 23 24  2  0
 23 25  1  0
M  END
$$$$
