KPM.pdb
     RDKit          3D

 25 25  0  0  1  0  0  0  0  0999 V2000
   11.6001  -17.3175   19.2541 N   0  0  0  0  0  0  0  0  0  0  0  0
   10.2074  -17.1329   19.3864 C   0  0  1  0  0  0  0  0  0  0  0  0
    9.3710  -18.3677   19.5212 C   0  0  0  0  0  0  0  0  0  0  0  0
   10.1257  -19.6383   19.5771 C   0  0  0  0  0  0  0  0  0  0  0  0
    9.8327  -20.4436   20.7894 C   0  0  0  0  0  0  0  0  0  0  0  0
   10.6487  -21.7547   20.7808 C   0  0  0  0  0  0  0  0  0  0  0  0
   12.0314  -21.4784   21.0798 N   0  0  0  0  0  0  0  0  0  0  0  0
    9.8568  -16.1785   20.4760 C   0  0  0  0  0  0  0  0  0  0  0  0
   10.7480  -16.0727   21.3759 O   0  0  0  0  0  0  0  0  0  0  0  0
    8.6899  -15.4207   20.5972 N   0  0  0  0  0  0  0  0  0  0  0  0
    7.5983  -15.4172   19.6683 C   0  0  0  0  0  0  0  0  0  0  0  0
    6.5083  -14.5188   20.1775 C   0  0  0  0  0  0  0  0  0  0  0  0
    7.2354  -13.6480   21.1795 C   0  0  0  0  0  0  0  0  0  0  0  0
    8.3750  -14.5194   21.6564 C   0  0  1  0  0  0  0  0  0  0  0  0
    8.0043  -15.1724   22.9167 C   0  0  0  0  0  0  0  0  0  0  0  0
    7.6309  -16.3731   22.8903 O   0  0  0  0  0  0  0  0  0  0  0  0
    5.4754  -11.3844   27.5646 C   0  0  0  0  0  0  0  0  0  0  0  0
    6.8844  -11.5110   26.4645 S   0  0  0  0  0  0  0  0  0  0  0  0
    7.8348  -13.0124   26.6883 C   0  0  0  0  0  0  0  0  0  0  0  0
    7.0510  -14.2618   26.3420 C   0  0  0  0  0  0  0  0  0  0  0  0
    7.9330  -15.1168   25.4361 C   0  0  2  0  0  0  0  0  0  0  0  0
    8.0630  -14.4699   24.1473 N   0  0  0  0  0  0  0  0  0  0  0  0
    7.2272  -16.4048   25.2206 C   0  0  0  0  0  0  0  0  0  0  0  0
    6.4633  -16.5867   24.2229 O   0  0  0  0  0  0  0  0  0  0  0  0
    7.3768  -17.4651   26.1071 O   0  0  0  0  0  0  0  0  0  0  0  0
  2  1  1  1
  2  3  1  0
  3  4  1  0
  4  5  1  0
  6  7  1  0
  6  5  1  0
  8  2  1  0
  8 10  1  0
  9  8  2  0
 10 14  1  0
 11 10  1  0
 12 13  1  0
 12 11  1  0
 13 14  1  0
 14 15  1  1
 15 16  2  0
 15 22  1  0
 17 18  1  0
 18 19  1  0
 19 20  1  0
 21 20  1  1
 21 23  1  0
 22 21  1  0
 23 24  2  0
 23 25  1  0
M  END
$$$$
