AMR.pdb
     RDKit          3D

 25 24  0  0  1  0  0  0  0  0999 V2000
   16.3511  -12.9457    5.0230 C   0  0  0  0  0  0  0  0  0  0  0  0
   17.8746  -12.9387    5.2033 C   0  0  2  0  0  0  0  0  0  0  0  0
   18.5166  -12.1704    4.1840 N   0  0  0  0  0  0  0  0  0  0  0  0
   18.3155  -14.3582    5.0806 C   0  0  0  0  0  0  0  0  0  0  0  0
   18.6116  -14.7986    3.9648 O   0  0  0  0  0  0  0  0  0  0  0  0
   21.5157  -16.6840   10.2335 C   0  0  0  0  0  0  0  0  0  0  0  0
   22.1335  -16.8266    8.5762 S   0  0  0  0  0  0  0  0  0  0  0  0
   20.9957  -16.4177    7.2555 C   0  0  0  0  0  0  0  0  0  0  0  0
   19.6686  -17.0693    7.2881 C   0  0  0  0  0  0  0  0  0  0  0  0
   18.7513  -16.5918    6.2225 C   0  0  2  0  0  0  0  0  0  0  0  0
   18.4054  -15.2167    6.2009 N   0  0  0  0  0  0  0  0  0  0  0  0
   17.6176  -17.4989    5.9208 C   0  0  0  0  0  0  0  0  0  0  0  0
   16.4765  -17.3572    6.4433 O   0  0  0  0  0  0  0  0  0  0  0  0
   15.5922  -22.2806   -1.1019 N   0  0  0  0  0  0  0  0  0  0  0  0
   14.5475  -22.5396   -0.1931 C   0  0  0  0  0  0  0  0  0  0  0  0
   13.4987  -23.2251   -0.5764 N   0  0  0  0  0  0  0  0  0  0  0  0
   14.6532  -22.0450    1.1418 N   0  0  0  0  0  0  0  0  0  0  0  0
   15.7082  -21.1308    1.4749 C   0  0  0  0  0  0  0  0  0  0  0  0
   15.6443  -20.8595    2.9871 C   0  0  0  0  0  0  0  0  0  0  0  0
   16.7405  -19.9004    3.2873 C   0  0  0  0  0  0  0  0  0  0  0  0
   16.8303  -19.6104    4.7596 C   0  0  2  0  0  0  0  0  0  0  0  0
   17.8320  -18.5625    5.0104 N   0  0  0  0  0  0  0  0  0  0  0  0
   17.1469  -20.8033    5.5722 C   0  0  0  0  0  0  0  0  0  0  0  0
   18.3646  -21.0529    5.8317 O   0  0  0  0  0  0  0  0  0  0  0  0
   16.2329  -21.6946    6.0918 O   0  0  0  0  0  0  0  0  0  0  0  0
  2  1  1  6
  2  3  1  0
  4  2  1  0
  4  5  2  0
  6  7  1  0
  7  8  1  0
  8  9  1  0
 10  9  1  1
 10 11  1  0
 11  4  1  0
 12 13  2  0
 12 10  1  0
 15 14  1  0
 16 15  2  0
 17 15  1  0
 18 17  1  0
 19 18  1  0
 20 19  1  0
 21 22  1  0
 21 20  1  6
 22 12  1  0
 23 21  1  0
 24 23  2  0
 25 23  1  0
M  END
$$$$
