AMR.pdb
     RDKit          3D

 25 24  0  0  1  0  0  0  0  0999 V2000
   29.1218  -21.0989  -14.2600 C   0  0  0  0  0  0  0  0  0  0  0  0
   28.3842  -19.9641  -13.5378 C   0  0  2  0  0  0  0  0  0  0  0  0
   29.2708  -18.8934  -13.2074 N   0  0  0  0  0  0  0  0  0  0  0  0
   27.8518  -20.5506  -12.2741 C   0  0  0  0  0  0  0  0  0  0  0  0
   27.1507  -21.5663  -12.3345 O   0  0  0  0  0  0  0  0  0  0  0  0
   30.1567  -20.2184   -5.7251 C   0  0  0  0  0  0  0  0  0  0  0  0
   28.3968  -19.9922   -5.7352 S   0  0  0  0  0  0  0  0  0  0  0  0
   27.5542  -20.3057   -7.2837 C   0  0  0  0  0  0  0  0  0  0  0  0
   28.3178  -20.0557   -8.5251 C   0  0  0  0  0  0  0  0  0  0  0  0
   27.5317  -20.3025   -9.7604 C   0  0  2  0  0  0  0  0  0  0  0  0
   28.1237  -19.9814  -11.0083 N   0  0  0  0  0  0  0  0  0  0  0  0
   26.0956  -19.9442   -9.6695 C   0  0  0  0  0  0  0  0  0  0  0  0
   25.6986  -18.7500   -9.5628 O   0  0  0  0  0  0  0  0  0  0  0  0
   19.5680  -23.3437  -13.5309 N   0  0  0  0  0  0  0  0  0  0  0  0
   19.1362  -22.0054  -13.4465 C   0  0  0  0  0  0  0  0  0  0  0  0
   17.8820  -21.7045  -13.6774 N   0  0  0  0  0  0  0  0  0  0  0  0
   20.0834  -20.9928  -13.1072 N   0  0  0  0  0  0  0  0  0  0  0  0
   21.4430  -21.3610  -12.8324 C   0  0  0  0  0  0  0  0  0  0  0  0
   21.7823  -20.9011  -11.4049 C   0  0  0  0  0  0  0  0  0  0  0  0
   23.2218  -21.2109  -11.1960 C   0  0  0  0  0  0  0  0  0  0  0  0
   23.6959  -20.7419   -9.8488 C   0  0  2  0  0  0  0  0  0  0  0  0
   25.1391  -20.9883   -9.7044 N   0  0  0  0  0  0  0  0  0  0  0  0
   22.9712  -21.3681   -8.7235 C   0  0  0  0  0  0  0  0  0  0  0  0
   23.5250  -22.3310   -8.1081 O   0  0  0  0  0  0  0  0  0  0  0  0
   21.7250  -21.0042   -8.2605 O   0  0  0  0  0  0  0  0  0  0  0  0
  2  1  1  1
  2  3  1  0
  4  2  1  0
  4  5  2  0
  6  7  1  0
  7  8  1  0
  8  9  1  0
 10  9  1  1
 10 11  1  0
 11  4  1  0
 12 13  2  0
 12 10  1  0
 15 14  1  0
 16 15  2  0
 17 15  1  0
 18 17  1  0
 19 18  1  0
 20 19  1  0
 21 22  1  0
 21 20  1  6
 22 12  1  0
 23 21  1  0
 24 23  2  0
 25 23  1  0
M  END
$$$$
