AMR.pdb
     RDKit          3D

 25 24  0  0  1  0  0  0  0  0999 V2000
   30.3468  -18.1585  -19.2560 C   0  0  0  0  0  0  0  0  0  0  0  0
   28.8716  -18.5219  -19.4682 C   0  0  2  0  0  0  0  0  0  0  0  0
   28.2619  -17.6766  -20.4456 N   0  0  0  0  0  0  0  0  0  0  0  0
   28.1951  -18.3014  -18.1574 C   0  0  0  0  0  0  0  0  0  0  0  0
   28.5342  -18.9861  -17.1863 O   0  0  0  0  0  0  0  0  0  0  0  0
   25.9009  -12.3011  -16.6915 C   0  0  0  0  0  0  0  0  0  0  0  0
   27.2954  -13.0994  -15.9387 S   0  0  0  0  0  0  0  0  0  0  0  0
   27.4494  -14.8642  -16.1991 C   0  0  0  0  0  0  0  0  0  0  0  0
   26.2039  -15.6126  -16.4736 C   0  0  0  0  0  0  0  0  0  0  0  0
   26.4367  -17.0383  -16.8177 C   0  0  2  0  0  0  0  0  0  0  0  0
   27.1775  -17.3336  -17.9902 N   0  0  0  0  0  0  0  0  0  0  0  0
   25.2717  -17.9308  -16.6051 C   0  0  0  0  0  0  0  0  0  0  0  0
   24.4285  -18.1755  -17.5131 O   0  0  0  0  0  0  0  0  0  0  0  0
   26.2029  -21.9486  -11.0051 N   0  0  0  0  0  0  0  0  0  0  0  0
   25.0523  -21.3232  -10.4860 C   0  0  0  0  0  0  0  0  0  0  0  0
   25.1079  -20.6962   -9.3368 N   0  0  0  0  0  0  0  0  0  0  0  0
   23.8356  -21.3854  -11.2301 N   0  0  0  0  0  0  0  0  0  0  0  0
   23.7760  -22.1839  -12.4210 C   0  0  0  0  0  0  0  0  0  0  0  0
   23.2625  -21.2951  -13.5659 C   0  0  0  0  0  0  0  0  0  0  0  0
   24.3755  -20.3705  -13.9099 C   0  0  0  0  0  0  0  0  0  0  0  0
   23.9854  -19.4258  -15.0121 C   0  0  2  0  0  0  0  0  0  0  0  0
   25.1062  -18.5278  -15.3314 N   0  0  0  0  0  0  0  0  0  0  0  0
   22.7833  -18.6258  -14.6984 C   0  0  0  0  0  0  0  0  0  0  0  0
   22.9180  -17.5877  -13.9794 O   0  0  0  0  0  0  0  0  0  0  0  0
   21.4986  -18.8966  -15.1178 O   0  0  0  0  0  0  0  0  0  0  0  0
  2  1  1  1
  2  3  1  0
  4  2  1  0
  4  5  2  0
  6  7  1  0
  7  8  1  0
  8  9  1  0
 10  9  1  6
 10 11  1  0
 11  4  1  0
 12 13  2  0
 12 10  1  0
 15 14  1  0
 16 15  2  0
 17 15  1  0
 18 17  1  0
 19 18  1  0
 20 19  1  0
 21 22  1  0
 21 20  1  1
 22 12  1  0
 23 21  1  0
 24 23  2  0
 25 23  1  0
M  END
$$$$
