AMR.pdb
     RDKit          3D

 25 24  0  0  1  0  0  0  0  0999 V2000
   28.5809  -22.6013  -15.2348 C   0  0  0  0  0  0  0  0  0  0  0  0
   27.4920  -21.5412  -15.4439 C   0  0  2  0  0  0  0  0  0  0  0  0
   27.9813  -20.2287  -15.1623 N   0  0  0  0  0  0  0  0  0  0  0  0
   26.4047  -21.8636  -14.4752 C   0  0  0  0  0  0  0  0  0  0  0  0
   25.8090  -22.9410  -14.5808 O   0  0  0  0  0  0  0  0  0  0  0  0
   25.8848  -19.8832   -7.9287 C   0  0  0  0  0  0  0  0  0  0  0  0
   26.8578  -21.1377   -8.7211 S   0  0  0  0  0  0  0  0  0  0  0  0
   26.3974  -21.5753  -10.3952 C   0  0  0  0  0  0  0  0  0  0  0  0
   25.3701  -20.7362  -11.0490 C   0  0  0  0  0  0  0  0  0  0  0  0
   25.0516  -21.1668  -12.4340 C   0  0  2  0  0  0  0  0  0  0  0  0
   26.0335  -20.9754  -13.4391 N   0  0  0  0  0  0  0  0  0  0  0  0
   23.6706  -20.8635  -12.8809 C   0  0  0  0  0  0  0  0  0  0  0  0
   23.3926  -19.8595  -13.5951 O   0  0  0  0  0  0  0  0  0  0  0  0
   18.7909  -26.3468  -11.6952 N   0  0  0  0  0  0  0  0  0  0  0  0
   18.1306  -25.9683  -12.8805 C   0  0  0  0  0  0  0  0  0  0  0  0
   17.8441  -26.8684  -13.7886 N   0  0  0  0  0  0  0  0  0  0  0  0
   17.7827  -24.5970  -13.0711 N   0  0  0  0  0  0  0  0  0  0  0  0
   18.1700  -23.6267  -12.0872 C   0  0  0  0  0  0  0  0  0  0  0  0
   18.9643  -22.5182  -12.7976 C   0  0  0  0  0  0  0  0  0  0  0  0
   20.3627  -22.6214  -12.3018 C   0  0  0  0  0  0  0  0  0  0  0  0
   21.2185  -21.5052  -12.8323 C   0  0  2  0  0  0  0  0  0  0  0  0
   22.6293  -21.7391  -12.4869 N   0  0  0  0  0  0  0  0  0  0  0  0
   20.8047  -20.1712  -12.3496 C   0  0  0  0  0  0  0  0  0  0  0  0
   21.2969  -19.7424  -11.2604 O   0  0  0  0  0  0  0  0  0  0  0  0
   19.9181  -19.3226  -12.9769 O   0  0  0  0  0  0  0  0  0  0  0  0
  2  1  1  1
  2  3  1  0
  4  2  1  0
  4  5  2  0
  6  7  1  0
  7  8  1  0
  8  9  1  0
 10  9  1  1
 10 11  1  0
 11  4  1  0
 12 13  2  0
 12 10  1  0
 15 14  1  0
 16 15  2  0
 17 15  1  0
 18 17  1  0
 19 18  1  0
 20 19  1  0
 21 22  1  0
 21 20  1  1
 22 12  1  0
 23 21  1  0
 24 23  2  0
 25 23  1  0
M  END
$$$$
