AMR.pdb
     RDKit          3D

 25 24  0  0  1  0  0  0  0  0999 V2000
   27.4671  -20.6305  -15.7675 C   0  0  0  0  0  0  0  0  0  0  0  0
   27.7996  -21.6536  -14.6739 C   0  0  2  0  0  0  0  0  0  0  0  0
   28.0915  -22.9364  -15.2314 N   0  0  0  0  0  0  0  0  0  0  0  0
   26.5785  -21.7684  -13.8251 C   0  0  0  0  0  0  0  0  0  0  0  0
   25.7043  -22.5825  -14.1412 O   0  0  0  0  0  0  0  0  0  0  0  0
   28.4128  -20.6603   -7.3817 C   0  0  0  0  0  0  0  0  0  0  0  0
   26.7778  -20.4136   -8.0256 S   0  0  0  0  0  0  0  0  0  0  0  0
   26.4563  -21.0475   -9.6690 C   0  0  0  0  0  0  0  0  0  0  0  0
   25.4137  -20.3598  -10.4608 C   0  0  0  0  0  0  0  0  0  0  0  0
   25.2495  -20.9155  -11.8280 C   0  0  2  0  0  0  0  0  0  0  0  0
   26.3891  -20.9751  -12.6697 N   0  0  0  0  0  0  0  0  0  0  0  0
   24.0100  -20.4989  -12.5273 C   0  0  0  0  0  0  0  0  0  0  0  0
   23.9979  -19.5930  -13.4073 O   0  0  0  0  0  0  0  0  0  0  0  0
   17.1378  -25.0176  -14.6903 N   0  0  0  0  0  0  0  0  0  0  0  0
   18.5212  -25.1318  -14.4501 C   0  0  0  0  0  0  0  0  0  0  0  0
   19.1897  -26.1497  -14.9337 N   0  0  0  0  0  0  0  0  0  0  0  0
   19.1745  -24.1256  -13.6764 N   0  0  0  0  0  0  0  0  0  0  0  0
   18.4216  -22.9999  -13.2014 C   0  0  0  0  0  0  0  0  0  0  0  0
   19.2792  -21.7379  -13.3923 C   0  0  0  0  0  0  0  0  0  0  0  0
   20.5960  -22.0274  -12.7645 C   0  0  0  0  0  0  0  0  0  0  0  0
   21.5196  -20.8447  -12.8527 C   0  0  2  0  0  0  0  0  0  0  0  0
   22.7972  -21.1477  -12.1890 N   0  0  0  0  0  0  0  0  0  0  0  0
   20.9445  -19.6097  -12.2804 C   0  0  0  0  0  0  0  0  0  0  0  0
   21.1467  -19.3610  -11.0516 O   0  0  0  0  0  0  0  0  0  0  0  0
   20.1932  -18.6757  -12.9608 O   0  0  0  0  0  0  0  0  0  0  0  0
  2  1  1  6
  2  3  1  0
  4  2  1  0
  4  5  2  0
  6  7  1  0
  7  8  1  0
  8  9  1  0
 10  9  1  1
 10 11  1  0
 11  4  1  0
 12 13  2  0
 12 10  1  0
 15 14  1  0
 16 15  2  0
 17 15  1  0
 18 17  1  0
 19 18  1  0
 20 19  1  0
 21 22  1  0
 21 20  1  1
 22 12  1  0
 23 21  1  0
 24 23  2  0
 25 23  1  0
M  END
$$$$
