AMR.pdb
     RDKit          3D

 25 24  0  0  1  0  0  0  0  0999 V2000
   28.9985  -20.2838  -12.4269 C   0  0  0  0  0  0  0  0  0  0  0  0
   27.9138  -21.1598  -13.0667 C   0  0  2  0  0  0  0  0  0  0  0  0
   28.2675  -21.5382  -14.3983 N   0  0  0  0  0  0  0  0  0  0  0  0
   26.6799  -20.3236  -13.1195 C   0  0  0  0  0  0  0  0  0  0  0  0
   26.2343  -19.8474  -12.0701 O   0  0  0  0  0  0  0  0  0  0  0  0
   26.1305  -15.4607  -17.2376 C   0  0  0  0  0  0  0  0  0  0  0  0
   26.2676  -15.3900  -15.4698 S   0  0  0  0  0  0  0  0  0  0  0  0
   25.7604  -16.8491  -14.5646 C   0  0  0  0  0  0  0  0  0  0  0  0
   25.1538  -17.9470  -15.3479 C   0  0  0  0  0  0  0  0  0  0  0  0
   24.9141  -19.1769  -14.5511 C   0  0  2  0  0  0  0  0  0  0  0  0
   26.0033  -20.0582  -14.3328 N   0  0  0  0  0  0  0  0  0  0  0  0
   23.6335  -19.8675  -14.8375 C   0  0  0  0  0  0  0  0  0  0  0  0
   23.5645  -20.8958  -15.5678 O   0  0  0  0  0  0  0  0  0  0  0  0
   19.5255  -23.1114   -9.4126 N   0  0  0  0  0  0  0  0  0  0  0  0
   18.6436  -23.4151  -10.4683 C   0  0  0  0  0  0  0  0  0  0  0  0
   17.9258  -24.5106  -10.4294 N   0  0  0  0  0  0  0  0  0  0  0  0
   18.5482  -22.5138  -11.5712 N   0  0  0  0  0  0  0  0  0  0  0  0
   19.5872  -21.5474  -11.7856 C   0  0  0  0  0  0  0  0  0  0  0  0
   19.1989  -20.6920  -13.0029 C   0  0  0  0  0  0  0  0  0  0  0  0
   20.2901  -19.6973  -13.1811 C   0  0  0  0  0  0  0  0  0  0  0  0
   21.1466  -20.0274  -14.3715 C   0  0  2  0  0  0  0  0  0  0  0  0
   22.4468  -19.3470  -14.2657 N   0  0  0  0  0  0  0  0  0  0  0  0
   20.5119  -19.6854  -15.6614 C   0  0  0  0  0  0  0  0  0  0  0  0
   20.7102  -18.5283  -16.1454 O   0  0  0  0  0  0  0  0  0  0  0  0
   19.7075  -20.5149  -16.4128 O   0  0  0  0  0  0  0  0  0  0  0  0
  2  1  1  6
  2  3  1  0
  4  2  1  0
  4  5  2  0
  6  7  1  0
  7  8  1  0
  8  9  1  0
 10  9  1  6
 10 11  1  0
 11  4  1  0
 12 13  2  0
 12 10  1  0
 15 14  1  0
 16 15  2  0
 17 15  1  0
 18 17  1  0
 19 18  1  0
 20 19  1  0
 21 22  1  0
 21 20  1  1
 22 12  1  0
 23 21  1  0
 24 23  2  0
 25 23  1  0
M  END
$$$$
