AMR.pdb
     RDKit          3D

 25 24  0  0  1  0  0  0  0  0999 V2000
   27.8673  -22.7831  -15.0297 C   0  0  0  0  0  0  0  0  0  0  0  0
   27.6054  -21.3492  -14.5512 C   0  0  2  0  0  0  0  0  0  0  0  0
   28.8270  -20.6544  -14.2932 N   0  0  0  0  0  0  0  0  0  0  0  0
   26.8448  -21.4684  -13.2738 C   0  0  0  0  0  0  0  0  0  0  0  0
   25.7505  -22.0423  -13.2801 O   0  0  0  0  0  0  0  0  0  0  0  0
   26.5171  -19.9644   -5.3773 C   0  0  0  0  0  0  0  0  0  0  0  0
   27.5099  -20.2030   -6.8286 S   0  0  0  0  0  0  0  0  0  0  0  0
   26.6344  -20.4263   -8.3744 C   0  0  0  0  0  0  0  0  0  0  0  0
   27.4553  -20.6552   -9.5829 C   0  0  0  0  0  0  0  0  0  0  0  0
   26.6504  -20.8156  -10.8205 C   0  0  2  0  0  0  0  0  0  0  0  0
   27.3359  -20.9453  -12.0550 N   0  0  0  0  0  0  0  0  0  0  0  0
   25.4407  -19.9612  -10.8945 C   0  0  0  0  0  0  0  0  0  0  0  0
   25.4958  -18.7001  -10.8510 O   0  0  0  0  0  0  0  0  0  0  0  0
   24.5663  -23.8136  -15.1592 N   0  0  0  0  0  0  0  0  0  0  0  0
   23.4524  -24.3213  -14.4622 C   0  0  0  0  0  0  0  0  0  0  0  0
   23.3554  -25.6066  -14.2266 N   0  0  0  0  0  0  0  0  0  0  0  0
   22.4406  -23.4159  -14.0212 N   0  0  0  0  0  0  0  0  0  0  0  0
   22.4348  -22.0683  -14.5148 C   0  0  0  0  0  0  0  0  0  0  0  0
   21.8673  -21.1592  -13.4121 C   0  0  0  0  0  0  0  0  0  0  0  0
   22.9400  -20.1840  -13.0800 C   0  0  0  0  0  0  0  0  0  0  0  0
   23.0064  -19.9213  -11.6014 C   0  0  2  0  0  0  0  0  0  0  0  0
   24.1789  -20.5924  -11.0188 N   0  0  0  0  0  0  0  0  0  0  0  0
   21.7869  -20.3377  -10.8782 C   0  0  0  0  0  0  0  0  0  0  0  0
   21.8379  -21.3815  -10.1567 O   0  0  0  0  0  0  0  0  0  0  0  0
   20.5693  -19.6923  -10.9060 O   0  0  0  0  0  0  0  0  0  0  0  0
  2  1  1  1
  2  3  1  0
  4  2  1  0
  4  5  2  0
  6  7  1  0
  7  8  1  0
  8  9  1  0
 10  9  1  1
 10 11  1  0
 11  4  1  0
 12 13  2  0
 12 10  1  0
 15 14  1  0
 16 15  2  0
 17 15  1  0
 18 17  1  0
 19 18  1  0
 20 19  1  0
 21 22  1  0
 21 20  1  6
 22 12  1  0
 23 21  1  0
 24 23  2  0
 25 23  1  0
M  END
$$$$
