AMR.pdb
     RDKit          3D

 25 24  0  0  1  0  0  0  0  0999 V2000
   38.3433  -12.5298  -16.8794 C   0  0  0  0  0  0  0  0  0  0  0  0
   37.9710  -11.3035  -17.7224 C   0  0  2  0  0  0  0  0  0  0  0  0
   39.0175  -10.3307  -17.7182 N   0  0  0  0  0  0  0  0  0  0  0  0
   36.7629  -10.7082  -17.0816 C   0  0  0  0  0  0  0  0  0  0  0  0
   35.7215  -11.3716  -17.0357 O   0  0  0  0  0  0  0  0  0  0  0  0
   36.9392   -6.1079  -12.0826 C   0  0  0  0  0  0  0  0  0  0  0  0
   37.2205   -7.8598  -12.1030 S   0  0  0  0  0  0  0  0  0  0  0  0
   36.6740   -8.7454  -13.5601 C   0  0  0  0  0  0  0  0  0  0  0  0
   36.0558   -7.9448  -14.6388 C   0  0  0  0  0  0  0  0  0  0  0  0
   35.7195   -8.7419  -15.8456 C   0  0  2  0  0  0  0  0  0  0  0  0
   36.7710   -9.4082  -16.5246 N   0  0  0  0  0  0  0  0  0  0  0  0
   34.7243   -8.1170  -16.7501 C   0  0  0  0  0  0  0  0  0  0  0  0
   35.0564   -7.3771  -17.7184 O   0  0  0  0  0  0  0  0  0  0  0  0
   26.7596  -10.9914  -18.3506 N   0  0  0  0  0  0  0  0  0  0  0  0
   27.9609  -11.1218  -19.0747 C   0  0  0  0  0  0  0  0  0  0  0  0
   28.0934  -12.0789  -19.9597 N   0  0  0  0  0  0  0  0  0  0  0  0
   29.0215  -10.1988  -18.8275 N   0  0  0  0  0  0  0  0  0  0  0  0
   28.7786   -9.0472  -18.0063 C   0  0  0  0  0  0  0  0  0  0  0  0
   29.9751   -8.0932  -18.1570 C   0  0  0  0  0  0  0  0  0  0  0  0
   31.0727   -8.6643  -17.3317 C   0  0  0  0  0  0  0  0  0  0  0  0
   32.2801   -7.7689  -17.3260 C   0  0  2  0  0  0  0  0  0  0  0  0
   33.3504   -8.3651  -16.5114 N   0  0  0  0  0  0  0  0  0  0  0  0
   31.9923   -6.4024  -16.8427 C   0  0  0  0  0  0  0  0  0  0  0  0
   32.2453   -6.1237  -15.6299 O   0  0  0  0  0  0  0  0  0  0  0  0
   31.4653   -5.3729  -17.5925 O   0  0  0  0  0  0  0  0  0  0  0  0
  2  1  1  1
  2  3  1  0
  4  2  1  0
  4  5  2  0
  6  7  1  0
  7  8  1  0
  8  9  1  0
 10  9  1  6
 10 11  1  0
 11  4  1  0
 12 13  2  0
 12 10  1  0
 15 14  1  0
 16 15  2  0
 17 15  1  0
 18 17  1  0
 19 18  1  0
 20 19  1  0
 21 22  1  0
 21 20  1  1
 22 12  1  0
 23 21  1  0
 24 23  2  0
 25 23  1  0
M  END
$$$$
