AMR.pdb
     RDKit          3D

 25 24  0  0  1  0  0  0  0  0999 V2000
   28.7142  -21.9320  -14.5042 C   0  0  0  0  0  0  0  0  0  0  0  0
   27.4670  -21.0721  -14.7455 C   0  0  2  0  0  0  0  0  0  0  0  0
   27.7586  -19.6802  -14.6073 N   0  0  0  0  0  0  0  0  0  0  0  0
   26.4829  -21.4606  -13.6942 C   0  0  0  0  0  0  0  0  0  0  0  0
   26.0743  -22.6261  -13.6583 O   0  0  0  0  0  0  0  0  0  0  0  0
   28.2830  -20.4114   -7.3004 C   0  0  0  0  0  0  0  0  0  0  0  0
   26.8208  -19.8386   -8.1265 S   0  0  0  0  0  0  0  0  0  0  0  0
   26.4194  -20.6208   -9.6863 C   0  0  0  0  0  0  0  0  0  0  0  0
   25.2317  -20.1120  -10.4054 C   0  0  0  0  0  0  0  0  0  0  0  0
   25.0264  -20.7507  -11.7302 C   0  0  2  0  0  0  0  0  0  0  0  0
   26.0022  -20.5373  -12.7367 N   0  0  0  0  0  0  0  0  0  0  0  0
   23.6314  -20.7150  -12.2319 C   0  0  0  0  0  0  0  0  0  0  0  0
   23.2696  -19.9643  -13.1810 O   0  0  0  0  0  0  0  0  0  0  0  0
   17.6273  -26.2974   -9.6900 N   0  0  0  0  0  0  0  0  0  0  0  0
   18.1144  -26.3068  -11.0118 C   0  0  0  0  0  0  0  0  0  0  0  0
   18.1709  -27.4309  -11.6827 N   0  0  0  0  0  0  0  0  0  0  0  0
   18.5411  -25.0784  -11.6007 N   0  0  0  0  0  0  0  0  0  0  0  0
   18.4705  -23.8662  -10.8357 C   0  0  0  0  0  0  0  0  0  0  0  0
   19.0996  -22.7384  -11.6703 C   0  0  0  0  0  0  0  0  0  0  0  0
   20.5311  -22.6715  -11.2727 C   0  0  0  0  0  0  0  0  0  0  0  0
   21.2687  -21.6153  -12.0473 C   0  0  2  0  0  0  0  0  0  0  0  0
   22.6745  -21.5590  -11.6170 N   0  0  0  0  0  0  0  0  0  0  0  0
   20.6608  -20.2735  -11.9311 C   0  0  0  0  0  0  0  0  0  0  0  0
   20.9839  -19.5464  -10.9414 O   0  0  0  0  0  0  0  0  0  0  0  0
   19.7574  -19.7153  -12.8098 O   0  0  0  0  0  0  0  0  0  0  0  0
  2  1  1  1
  2  3  1  0
  4  2  1  0
  4  5  2  0
  6  7  1  0
  7  8  1  0
  8  9  1  0
 10  9  1  1
 10 11  1  0
 11  4  1  0
 12 13  2  0
 12 10  1  0
 15 14  1  0
 16 15  2  0
 17 15  1  0
 18 17  1  0
 19 18  1  0
 20 19  1  0
 21 22  1  0
 21 20  1  1
 22 12  1  0
 23 21  1  0
 24 23  2  0
 25 23  1  0
M  END
$$$$
