RNP.pdb
     RDKit          3D

 27 27  0  0  1  0  0  0  0  0999 V2000
    8.5429  -11.4151   19.5319 N   0  0  0  0  0  0  0  0  0  0  0  0
    8.7325  -12.5321   18.6878 C   0  0  0  0  0  0  0  0  0  0  0  0
    8.8740  -12.3800   17.4183 N   0  0  0  0  0  0  0  0  0  0  0  0
    8.7724  -13.8650   19.2188 N   0  0  0  0  0  0  0  0  0  0  0  0
    7.6504  -14.7570   19.1642 C   0  0  0  0  0  0  0  0  0  0  0  0
    6.9641  -14.7707   20.5028 C   0  0  0  0  0  0  0  0  0  0  0  0
    7.7611  -15.4961   21.5154 C   0  0  0  0  0  0  0  0  0  0  0  0
    7.2075  -16.7882   22.0063 C   0  0  2  0  0  0  0  0  0  0  0  0
    5.9307  -17.1641   21.4898 N   0  0  0  0  0  0  0  0  0  0  0  0
    7.1365  -16.6952   23.4916 C   0  0  0  0  0  0  0  0  0  0  0  0
    6.3086  -15.9548   24.0551 O   0  0  0  0  0  0  0  0  0  0  0  0
    8.9305  -13.1556   16.7512 N   0  0  0  0  0  0  0  0  0  0  0  0
    6.9450  -17.7403   28.4668 C   0  0  0  0  0  0  0  0  0  0  0  0
    7.6957  -18.6963   27.7269 O   0  0  0  0  0  0  0  0  0  0  0  0
    8.3619  -19.5212   28.4032 C   0  0  0  0  0  0  0  0  0  0  0  0
    7.6776  -18.6995   26.2578 C   0  0  1  0  0  0  0  0  0  0  0  0
    7.9964  -17.3138   25.7174 N   0  0  0  0  0  0  0  0  0  0  0  0
    8.0310  -17.4666   24.2609 C   0  0  0  0  0  0  0  0  0  0  0  0
    9.3451  -16.9465   26.2280 O   0  0  0  0  0  0  0  0  0  0  0  0
   10.3982  -17.4285   25.7431 N   0  0  0  0  0  0  0  0  0  0  0  0
    9.4508  -16.0282   27.2900 C   0  0  0  0  0  0  0  0  0  0  0  0
    8.3525  -15.4362   28.0147 C   0  0  0  0  0  0  0  0  0  0  0  0
    8.8030  -13.9742   28.1177 C   0  0  0  0  0  0  0  0  0  0  0  0
   10.3101  -14.0408   28.0988 C   0  0  1  0  0  0  0  0  0  0  0  0
   10.6700  -15.4882   27.8935 C   0  0  0  0  0  0  0  0  0  0  0  0
   10.9061  -16.2290   29.1528 O   0  0  0  0  0  0  0  0  0  0  0  0
   12.0588  -16.0341   29.8922 O   0  0  0  0  0  0  0  0  0  0  0  0
  2  1  1  0
  3  2  2  0
  4  2  1  0
  5  6  1  0
  5  4  1  0
  7  6  1  0
  8  7  1  0
  8  9  1  6
 10  8  1  0
 10 17  1  0
 11 10  2  0
 13 12  1  0
 14 13  2  0
 16 15  1  6
 15 13  1  0
 17 16  1  0
 18 20  1  0
 18 16  1  0
 19 18  2  0
 20 21  1  0
 22 21  1  0
 23 22  1  0
 24 23  1  0
 24 20  1  0
 24 25  1  1
 26 25  1  0
 27 25  2  0
M  END
$$$$
