RNP.pdb
     RDKit          3D

 27 27  0  0  1  0  0  0  0  0999 V2000
    8.2452  -13.7399   14.3631 N   0  0  0  0  0  0  0  0  0  0  0  0
    8.6746  -14.2403   15.6126 C   0  0  0  0  0  0  0  0  0  0  0  0
    9.5397  -15.1902   15.6779 N   0  0  0  0  0  0  0  0  0  0  0  0
    8.1606  -13.7067   16.8418 N   0  0  0  0  0  0  0  0  0  0  0  0
    8.8213  -13.8849   18.1026 C   0  0  0  0  0  0  0  0  0  0  0  0
    8.0894  -13.1032   19.1591 C   0  0  0  0  0  0  0  0  0  0  0  0
    7.1529  -13.9594   19.9185 C   0  0  0  0  0  0  0  0  0  0  0  0
    7.7397  -15.1251   20.6355 C   0  0  2  0  0  0  0  0  0  0  0  0
    7.4828  -16.4093   20.0673 N   0  0  0  0  0  0  0  0  0  0  0  0
    7.2196  -15.0845   22.0311 C   0  0  0  0  0  0  0  0  0  0  0  0
    6.2891  -14.3220   22.3533 O   0  0  0  0  0  0  0  0  0  0  0  0
    9.8680  -15.6066   16.5546 N   0  0  0  0  0  0  0  0  0  0  0  0
    5.6895  -17.4240   23.0115 C   0  0  0  0  0  0  0  0  0  0  0  0
    6.3882  -17.9980   24.1102 O   0  0  0  0  0  0  0  0  0  0  0  0
    6.1875  -19.2224   24.3155 C   0  0  0  0  0  0  0  0  0  0  0  0
    7.2870  -17.1866   24.9423 C   0  0  2  0  0  0  0  0  0  0  0  0
    7.3919  -15.7724   24.3919 N   0  0  0  0  0  0  0  0  0  0  0  0
    7.8027  -15.9320   22.9948 C   0  0  0  0  0  0  0  0  0  0  0  0
    8.4589  -15.0816   25.1658 O   0  0  0  0  0  0  0  0  0  0  0  0
    9.6646  -15.1115   24.8168 N   0  0  0  0  0  0  0  0  0  0  0  0
    8.1114  -14.3685   26.3291 C   0  0  0  0  0  0  0  0  0  0  0  0
    6.7913  -14.2696   26.9033 C   0  0  0  0  0  0  0  0  0  0  0  0
    6.7198  -12.7797   27.2577 C   0  0  0  0  0  0  0  0  0  0  0  0
    8.1532  -12.3816   27.5091 C   0  0  1  0  0  0  0  0  0  0  0  0
    8.9916  -13.5948   27.2058 C   0  0  0  0  0  0  0  0  0  0  0  0
    9.2820  -14.4313   28.3916 O   0  0  0  0  0  0  0  0  0  0  0  0
   10.2676  -14.0751   29.2945 O   0  0  0  0  0  0  0  0  0  0  0  0
  2  1  1  0
  3  2  2  0
  4  2  1  0
  5  6  1  0
  5  4  1  0
  7  6  1  0
  8  7  1  0
  8  9  1  6
 10  8  1  0
 10 17  1  0
 11 10  2  0
 13 12  1  0
 14 13  2  0
 16 15  1  6
 15 13  1  0
 17 16  1  0
 18 20  1  0
 18 16  1  0
 19 18  2  0
 20 21  1  0
 22 21  1  0
 23 22  1  0
 24 23  1  0
 24 20  1  0
 24 25  1  1
 26 25  1  0
 27 25  2  0
M  END
$$$$
