RNP.pdb
     RDKit          3D

 27 27  0  0  1  0  0  0  0  0999 V2000
    8.8083  -11.6819   18.4880 N   0  0  0  0  0  0  0  0  0  0  0  0
    8.9345  -12.9389   19.1205 C   0  0  0  0  0  0  0  0  0  0  0  0
    9.7405  -13.0986   20.1103 N   0  0  0  0  0  0  0  0  0  0  0  0
    8.1707  -14.0712   18.6796 N   0  0  0  0  0  0  0  0  0  0  0  0
    8.2173  -15.3443   19.3391 C   0  0  0  0  0  0  0  0  0  0  0  0
    7.6874  -15.1956   20.7391 C   0  0  0  0  0  0  0  0  0  0  0  0
    7.7820  -16.4636   21.4942 C   0  0  0  0  0  0  0  0  0  0  0  0
    6.5356  -16.9510   22.1469 C   0  0  2  0  0  0  0  0  0  0  0  0
    5.3161  -16.3593   21.6989 N   0  0  0  0  0  0  0  0  0  0  0  0
    6.6925  -16.7216   23.6107 C   0  0  0  0  0  0  0  0  0  0  0  0
    6.1935  -15.7253   24.1670 O   0  0  0  0  0  0  0  0  0  0  0  0
    9.8590  -13.9819   20.6158 N   0  0  0  0  0  0  0  0  0  0  0  0
    6.8268  -18.5206   28.8624 C   0  0  0  0  0  0  0  0  0  0  0  0
    7.8487  -18.6859   27.8860 O   0  0  0  0  0  0  0  0  0  0  0  0
    9.0270  -18.7435   28.3217 C   0  0  0  0  0  0  0  0  0  0  0  0
    7.5212  -18.7813   26.4569 C   0  0  1  0  0  0  0  0  0  0  0  0
    7.5880  -17.4102   25.8017 N   0  0  0  0  0  0  0  0  0  0  0  0
    7.4233  -17.6598   24.3676 C   0  0  0  0  0  0  0  0  0  0  0  0
    8.9441  -16.8618   26.0757 O   0  0  0  0  0  0  0  0  0  0  0  0
    9.9596  -17.2409   25.4421 N   0  0  0  0  0  0  0  0  0  0  0  0
    9.1003  -15.8846   27.0772 C   0  0  0  0  0  0  0  0  0  0  0  0
    8.0406  -15.2786   27.8465 C   0  0  0  0  0  0  0  0  0  0  0  0
    8.4588  -13.8035   27.8394 C   0  0  0  0  0  0  0  0  0  0  0  0
    9.9621  -13.8373   27.7159 C   0  0  1  0  0  0  0  0  0  0  0  0
   10.3444  -15.2854   27.5623 C   0  0  0  0  0  0  0  0  0  0  0  0
   10.6880  -15.9508   28.8388 O   0  0  0  0  0  0  0  0  0  0  0  0
   11.8961  -15.7107   29.4682 O   0  0  0  0  0  0  0  0  0  0  0  0
  2  1  1  0
  3  2  2  0
  4  2  1  0
  5  6  1  0
  5  4  1  0
  7  6  1  0
  8  7  1  0
  8  9  1  6
 10  8  1  0
 10 17  1  0
 11 10  2  0
 13 12  1  0
 14 13  2  0
 16 15  1  1
 15 13  1  0
 17 16  1  0
 18 20  1  0
 18 16  1  0
 19 18  2  0
 20 21  1  0
 22 21  1  0
 23 22  1  0
 24 23  1  0
 24 20  1  0
 24 25  1  1
 26 25  1  0
 27 25  2  0
M  END
$$$$
