RNP.pdb
     RDKit          3D

 27 27  0  0  1  0  0  0  0  0999 V2000
   13.5547  -16.4293   20.7273 N   0  0  0  0  0  0  0  0  0  0  0  0
   12.9927  -15.1372   20.6235 C   0  0  0  0  0  0  0  0  0  0  0  0
   13.2223  -14.2466   21.5229 N   0  0  0  0  0  0  0  0  0  0  0  0
   12.1520  -14.7806   19.5162 N   0  0  0  0  0  0  0  0  0  0  0  0
   11.5367  -13.4907   19.3917 C   0  0  0  0  0  0  0  0  0  0  0  0
   10.0478  -13.6634   19.2636 C   0  0  0  0  0  0  0  0  0  0  0  0
    9.5481  -14.7440   20.1408 C   0  0  0  0  0  0  0  0  0  0  0  0
    8.0986  -15.0708   20.0443 C   0  0  2  0  0  0  0  0  0  0  0  0
    7.3855  -14.4639   18.9667 N   0  0  0  0  0  0  0  0  0  0  0  0
    7.4762  -14.6755   21.3390 C   0  0  0  0  0  0  0  0  0  0  0  0
    7.0040  -13.5357   21.5090 O   0  0  0  0  0  0  0  0  0  0  0  0
   12.8055  -13.3106   21.5217 N   0  0  0  0  0  0  0  0  0  0  0  0
    8.4959  -17.4075   23.9283 C   0  0  0  0  0  0  0  0  0  0  0  0
    7.1456  -17.5406   24.3571 O   0  0  0  0  0  0  0  0  0  0  0  0
    6.8196  -18.6636   24.8201 C   0  0  0  0  0  0  0  0  0  0  0  0
    6.2051  -16.4165   24.2549 C   0  0  1  0  0  0  0  0  0  0  0  0
    6.8988  -15.1913   23.6793 N   0  0  0  0  0  0  0  0  0  0  0  0
    7.4284  -15.6215   22.3830 C   0  0  0  0  0  0  0  0  0  0  0  0
    8.0147  -14.8484   24.6024 O   0  0  0  0  0  0  0  0  0  0  0  0
    9.2107  -15.1235   24.3373 N   0  0  0  0  0  0  0  0  0  0  0  0
    7.7265  -14.1933   25.8148 C   0  0  0  0  0  0  0  0  0  0  0  0
    6.4137  -13.9766   26.3730 C   0  0  0  0  0  0  0  0  0  0  0  0
    6.5167  -12.5227   26.8487 C   0  0  0  0  0  0  0  0  0  0  0  0
    7.9809  -12.3284   27.1563 C   0  0  1  0  0  0  0  0  0  0  0  0
    8.6713  -13.6085   26.7674 C   0  0  0  0  0  0  0  0  0  0  0  0
    8.8244  -14.5673   27.8844 O   0  0  0  0  0  0  0  0  0  0  0  0
    8.0421  -15.7054   27.9626 O   0  0  0  0  0  0  0  0  0  0  0  0
  2  1  1  0
  3  2  2  0
  4  2  1  0
  5  6  1  0
  5  4  1  0
  7  6  1  0
  8  7  1  0
  8  9  1  6
 10  8  1  0
 10 17  1  0
 11 10  2  0
 13 12  1  0
 14 13  2  0
 16 15  1  6
 15 13  1  0
 17 16  1  0
 18 20  1  0
 18 16  1  0
 19 18  2  0
 20 21  1  0
 22 21  1  0
 23 22  1  0
 24 23  1  0
 24 20  1  0
 24 25  1  1
 26 25  1  0
 27 25  2  0
M  END
$$$$
