RNP.pdb
     RDKit          3D

 27 27  0  0  1  0  0  0  0  0999 V2000
    9.6820  -11.9301   17.6599 N   0  0  0  0  0  0  0  0  0  0  0  0
   10.0833  -12.6842   18.7852 C   0  0  0  0  0  0  0  0  0  0  0  0
   11.0454  -12.2805   19.5377 N   0  0  0  0  0  0  0  0  0  0  0  0
    9.4327  -13.9185   19.1215 N   0  0  0  0  0  0  0  0  0  0  0  0
    8.4076  -14.5038   18.3063 C   0  0  0  0  0  0  0  0  0  0  0  0
    8.0521  -15.8583   18.8558 C   0  0  0  0  0  0  0  0  0  0  0  0
    7.4642  -15.7592   20.2090 C   0  0  0  0  0  0  0  0  0  0  0  0
    7.0551  -17.0351   20.8585 C   0  0  2  0  0  0  0  0  0  0  0  0
    5.9959  -17.7534   20.2261 N   0  0  0  0  0  0  0  0  0  0  0  0
    6.6673  -16.7058   22.2589 C   0  0  0  0  0  0  0  0  0  0  0  0
    5.5378  -16.2564   22.5293 O   0  0  0  0  0  0  0  0  0  0  0  0
   11.4087  -12.8097   20.3363 N   0  0  0  0  0  0  0  0  0  0  0  0
    6.3766  -19.8821   24.3732 C   0  0  0  0  0  0  0  0  0  0  0  0
    6.0522  -18.5769   24.8381 O   0  0  0  0  0  0  0  0  0  0  0  0
    4.8566  -18.2167   24.6880 C   0  0  0  0  0  0  0  0  0  0  0  0
    7.0725  -17.7182   25.4546 C   0  0  2  0  0  0  0  0  0  0  0  0
    7.2690  -16.4513   24.6358 N   0  0  0  0  0  0  0  0  0  0  0  0
    7.6088  -16.9125   23.2875 C   0  0  0  0  0  0  0  0  0  0  0  0
    8.4187  -15.7198   25.2340 O   0  0  0  0  0  0  0  0  0  0  0  0
    9.5791  -15.7955   24.7606 N   0  0  0  0  0  0  0  0  0  0  0  0
    8.2048  -14.9140   26.3686 C   0  0  0  0  0  0  0  0  0  0  0  0
    6.9532  -14.7420   27.0656 C   0  0  0  0  0  0  0  0  0  0  0  0
    6.9415  -13.2285   27.3102 C   0  0  0  0  0  0  0  0  0  0  0  0
    8.3992  -12.8459   27.3821 C   0  0  1  0  0  0  0  0  0  0  0  0
    9.1830  -14.0974   27.0886 C   0  0  0  0  0  0  0  0  0  0  0  0
    9.5822  -14.8495   28.2991 O   0  0  0  0  0  0  0  0  0  0  0  0
   10.6389  -14.4291   29.0864 O   0  0  0  0  0  0  0  0  0  0  0  0
  2  1  1  0
  3  2  2  0
  4  2  1  0
  5  6  1  0
  5  4  1  0
  7  6  1  0
  8  7  1  0
  8  9  1  6
 10  8  1  0
 10 17  1  0
 11 10  2  0
 13 12  1  0
 14 13  2  0
 16 15  1  6
 15 13  1  0
 17 16  1  0
 18 20  1  0
 18 16  1  0
 19 18  2  0
 20 21  1  0
 22 21  1  0
 23 22  1  0
 24 23  1  0
 24 20  1  0
 24 25  1  1
 26 25  1  0
 27 25  2  0
M  END
$$$$
