RNP.pdb
     RDKit          3D

 27 27  0  0  1  0  0  0  0  0999 V2000
    7.7819  -18.5121   17.9567 N   0  0  0  0  0  0  0  0  0  0  0  0
    7.9072  -19.9140   18.0796 C   0  0  0  0  0  0  0  0  0  0  0  0
    7.1280  -20.7031   17.4277 N   0  0  0  0  0  0  0  0  0  0  0  0
    8.9033  -20.4979   18.9321 N   0  0  0  0  0  0  0  0  0  0  0  0
    9.7464  -19.7165   19.7903 C   0  0  0  0  0  0  0  0  0  0  0  0
    8.9698  -19.3155   21.0146 C   0  0  0  0  0  0  0  0  0  0  0  0
    9.7921  -18.5061   21.9395 C   0  0  0  0  0  0  0  0  0  0  0  0
   10.5374  -17.3607   21.3482 C   0  0  2  0  0  0  0  0  0  0  0  0
   11.9514  -17.5203   21.2332 N   0  0  0  0  0  0  0  0  0  0  0  0
   10.2373  -16.1666   22.1871 C   0  0  0  0  0  0  0  0  0  0  0  0
   10.9873  -15.8268   23.1216 O   0  0  0  0  0  0  0  0  0  0  0  0
    7.1427  -21.7238   17.5154 N   0  0  0  0  0  0  0  0  0  0  0  0
    7.1554  -13.6974   19.7945 C   0  0  0  0  0  0  0  0  0  0  0  0
    7.6618  -13.1495   21.0062 O   0  0  0  0  0  0  0  0  0  0  0  0
    8.3427  -12.0978   20.8966 C   0  0  0  0  0  0  0  0  0  0  0  0
    7.3913  -13.7934   22.2987 C   0  0  2  0  0  0  0  0  0  0  0  0
    8.6653  -14.3956   22.8717 N   0  0  0  0  0  0  0  0  0  0  0  0
    9.0775  -15.4165   21.9053 C   0  0  0  0  0  0  0  0  0  0  0  0
    8.3024  -15.0310   24.1676 O   0  0  0  0  0  0  0  0  0  0  0  0
    8.5775  -16.2285   24.4257 N   0  0  0  0  0  0  0  0  0  0  0  0
    7.6285  -14.2692   25.1411 C   0  0  0  0  0  0  0  0  0  0  0  0
    7.0731  -12.9506   24.9546 C   0  0  0  0  0  0  0  0  0  0  0  0
    7.5081  -12.2470   26.2455 C   0  0  0  0  0  0  0  0  0  0  0  0
    7.6107  -13.3553   27.2640 C   0  0  1  0  0  0  0  0  0  0  0  0
    7.3344  -14.6384   26.5265 C   0  0  0  0  0  0  0  0  0  0  0  0
    5.9181  -15.0646   26.5800 O   0  0  0  0  0  0  0  0  0  0  0  0
    5.4335  -15.8056   27.6428 O   0  0  0  0  0  0  0  0  0  0  0  0
  2  1  1  0
  3  2  2  0
  4  2  1  0
  5  6  1  0
  5  4  1  0
  7  6  1  0
  8  7  1  0
  8  9  1  1
 10  8  1  0
 10 17  1  0
 11 10  2  0
 13 12  1  0
 14 13  2  0
 16 15  1  6
 15 13  1  0
 17 16  1  0
 18 20  1  0
 18 16  1  0
 19 18  2  0
 20 21  1  0
 22 21  1  0
 23 22  1  0
 24 23  1  0
 24 20  1  0
 24 25  1  6
 26 25  1  0
 27 25  2  0
M  END
$$$$
