RNP.pdb
     RDKit          3D

 27 27  0  0  1  0  0  0  0  0999 V2000
    9.3229  -12.9591   17.6801 N   0  0  0  0  0  0  0  0  0  0  0  0
    8.3910  -13.6429   16.8676 C   0  0  0  0  0  0  0  0  0  0  0  0
    8.2750  -13.3584   15.6184 N   0  0  0  0  0  0  0  0  0  0  0  0
    7.5487  -14.6712   17.4091 N   0  0  0  0  0  0  0  0  0  0  0  0
    7.6312  -15.1046   18.7740 C   0  0  0  0  0  0  0  0  0  0  0  0
    6.8259  -14.1731   19.6381 C   0  0  0  0  0  0  0  0  0  0  0  0
    6.8259  -14.6061   21.0521 C   0  0  0  0  0  0  0  0  0  0  0  0
    8.1218  -15.0848   21.6077 C   0  0  2  0  0  0  0  0  0  0  0  0
    8.6361  -16.2963   21.0548 N   0  0  0  0  0  0  0  0  0  0  0  0
    7.9316  -15.2486   23.0763 C   0  0  0  0  0  0  0  0  0  0  0  0
    7.6283  -14.2827   23.8017 O   0  0  0  0  0  0  0  0  0  0  0  0
    7.6069  -13.8114   14.9874 N   0  0  0  0  0  0  0  0  0  0  0  0
    6.7649  -17.1853   27.4744 C   0  0  0  0  0  0  0  0  0  0  0  0
    7.0415  -18.2985   26.6323 O   0  0  0  0  0  0  0  0  0  0  0  0
    6.6360  -19.4166   27.0410 C   0  0  0  0  0  0  0  0  0  0  0  0
    7.7611  -18.1265   25.3630 C   0  0  2  0  0  0  0  0  0  0  0  0
    8.0331  -16.6532   25.0995 N   0  0  0  0  0  0  0  0  0  0  0  0
    8.1021  -16.5287   23.6415 C   0  0  0  0  0  0  0  0  0  0  0  0
    9.3555  -16.3390   25.7055 O   0  0  0  0  0  0  0  0  0  0  0  0
   10.4373  -16.6331   25.1401 N   0  0  0  0  0  0  0  0  0  0  0  0
    9.4021  -15.6900   26.9541 C   0  0  0  0  0  0  0  0  0  0  0  0
    8.2651  -15.2801   27.7423 C   0  0  0  0  0  0  0  0  0  0  0  0
    8.6951  -13.8816   28.2003 C   0  0  0  0  0  0  0  0  0  0  0  0
   10.2021  -13.9430   28.2386 C   0  0  1  0  0  0  0  0  0  0  0  0
   10.5861  -15.3045   27.7232 C   0  0  0  0  0  0  0  0  0  0  0  0
   10.7710  -16.3156   28.7880 O   0  0  0  0  0  0  0  0  0  0  0  0
   11.9255  -16.3503   29.5490 O   0  0  0  0  0  0  0  0  0  0  0  0
  2  1  1  0
  3  2  2  0
  4  2  1  0
  5  6  1  0
  5  4  1  0
  7  6  1  0
  8  7  1  0
  8  9  1  6
 10  8  1  0
 10 17  1  0
 11 10  2  0
 13 12  1  0
 14 13  2  0
 16 15  1  6
 15 13  1  0
 17 16  1  0
 18 20  1  0
 18 16  1  0
 19 18  2  0
 20 21  1  0
 22 21  1  0
 23 22  1  0
 24 23  1  0
 24 20  1  0
 24 25  1  1
 26 25  1  0
 27 25  2  0
M  END
$$$$
