RNP.pdb
     RDKit          3D

 27 27  0  0  1  0  0  0  0  0999 V2000
    8.5596  -14.0606   14.5299 N   0  0  0  0  0  0  0  0  0  0  0  0
    8.9014  -14.5914   15.7937 C   0  0  0  0  0  0  0  0  0  0  0  0
    9.4617  -15.7453   15.8921 N   0  0  0  0  0  0  0  0  0  0  0  0
    8.6350  -13.8628   17.0012 N   0  0  0  0  0  0  0  0  0  0  0  0
    7.9079  -14.4241   18.1031 C   0  0  0  0  0  0  0  0  0  0  0  0
    7.7898  -13.3945   19.1934 C   0  0  0  0  0  0  0  0  0  0  0  0
    7.0800  -13.9315   20.3743 C   0  0  0  0  0  0  0  0  0  0  0  0
    7.3933  -15.3335   20.7659 C   0  0  2  0  0  0  0  0  0  0  0  0
    6.8664  -16.3570   19.9215 N   0  0  0  0  0  0  0  0  0  0  0  0
    6.8848  -15.5217   22.1537 C   0  0  0  0  0  0  0  0  0  0  0  0
    5.7327  -15.1738   22.4738 O   0  0  0  0  0  0  0  0  0  0  0  0
    9.7404  -16.1728   16.7806 N   0  0  0  0  0  0  0  0  0  0  0  0
    6.0274  -18.3509   23.2417 C   0  0  0  0  0  0  0  0  0  0  0  0
    7.1036  -18.1968   24.1598 O   0  0  0  0  0  0  0  0  0  0  0  0
    8.0421  -19.0278   24.0579 C   0  0  0  0  0  0  0  0  0  0  0  0
    7.0963  -17.1209   25.1602 C   0  0  1  0  0  0  0  0  0  0  0  0
    7.4993  -15.7989   24.5248 N   0  0  0  0  0  0  0  0  0  0  0  0
    7.7369  -16.1066   23.1124 C   0  0  0  0  0  0  0  0  0  0  0  0
    8.7659  -15.3697   25.1776 O   0  0  0  0  0  0  0  0  0  0  0  0
    9.8917  -15.6086   24.6755 N   0  0  0  0  0  0  0  0  0  0  0  0
    8.7069  -14.6718   26.3989 C   0  0  0  0  0  0  0  0  0  0  0  0
    7.5082  -14.3271   27.1243 C   0  0  0  0  0  0  0  0  0  0  0  0
    7.8040  -12.8813   27.5402 C   0  0  0  0  0  0  0  0  0  0  0  0
    9.3081  -12.8169   27.6399 C   0  0  1  0  0  0  0  0  0  0  0  0
    9.8223  -14.1608   27.1971 C   0  0  0  0  0  0  0  0  0  0  0  0
   10.0428  -15.1117   28.3095 O   0  0  0  0  0  0  0  0  0  0  0  0
   11.1373  -14.9917   29.1469 O   0  0  0  0  0  0  0  0  0  0  0  0
  2  1  1  0
  3  2  2  0
  4  2  1  0
  5  6  1  0
  5  4  1  0
  7  6  1  0
  8  7  1  0
  8  9  1  6
 10  8  1  0
 10 17  1  0
 11 10  2  0
 13 12  1  0
 14 13  2  0
 16 15  1  6
 15 13  1  0
 17 16  1  0
 18 20  1  0
 18 16  1  0
 19 18  2  0
 20 21  1  0
 22 21  1  0
 23 22  1  0
 24 23  1  0
 24 20  1  0
 24 25  1  1
 26 25  1  0
 27 25  2  0
M  END
$$$$
