RNP.pdb
     RDKit          3D

 27 27  0  0  1  0  0  0  0  0999 V2000
    9.2596  -14.0962    8.8536 N   0  0  0  0  0  0  0  0  0  0  0  0
    8.4463  -13.4407    9.8049 C   0  0  0  0  0  0  0  0  0  0  0  0
    7.5662  -12.5787    9.4343 N   0  0  0  0  0  0  0  0  0  0  0  0
    8.5769  -13.7151   11.2075 N   0  0  0  0  0  0  0  0  0  0  0  0
    9.4905  -14.6918   11.7264 C   0  0  0  0  0  0  0  0  0  0  0  0
    8.9595  -15.2219   13.0303 C   0  0  0  0  0  0  0  0  0  0  0  0
    9.8973  -16.1836   13.6488 C   0  0  0  0  0  0  0  0  0  0  0  0
    9.4513  -16.8409   14.9083 C   0  0  2  0  0  0  0  0  0  0  0  0
    8.0652  -17.1727   14.9899 N   0  0  0  0  0  0  0  0  0  0  0  0
    9.8116  -15.9263   16.0278 C   0  0  0  0  0  0  0  0  0  0  0  0
   10.9697  -15.4870   16.1578 O   0  0  0  0  0  0  0  0  0  0  0  0
    6.9204  -12.1076   10.0754 N   0  0  0  0  0  0  0  0  0  0  0  0
    9.4736  -13.1819   20.3419 C   0  0  0  0  0  0  0  0  0  0  0  0
    8.1608  -13.3116   19.8082 O   0  0  0  0  0  0  0  0  0  0  0  0
    7.2560  -12.6702   20.4010 C   0  0  0  0  0  0  0  0  0  0  0  0
    7.9023  -14.1524   18.6315 C   0  0  2  0  0  0  0  0  0  0  0  0
    9.2005  -14.7420   18.1015 N   0  0  0  0  0  0  0  0  0  0  0  0
    8.8108  -15.5601   16.9505 C   0  0  0  0  0  0  0  0  0  0  0  0
    9.7597  -15.6032   19.1787 O   0  0  0  0  0  0  0  0  0  0  0  0
    9.3022  -16.7458   19.4270 N   0  0  0  0  0  0  0  0  0  0  0  0
   10.8381  -15.1270   19.9485 C   0  0  0  0  0  0  0  0  0  0  0  0
   11.3943  -13.7964   19.9014 C   0  0  0  0  0  0  0  0  0  0  0  0
   12.8990  -14.0899   19.9230 C   0  0  0  0  0  0  0  0  0  0  0  0
   13.0185  -15.3976   20.6661 C   0  0  1  0  0  0  0  0  0  0  0  0
   11.6130  -15.8526   20.9561 C   0  0  0  0  0  0  0  0  0  0  0  0
   11.1125  -15.4350   22.2848 O   0  0  0  0  0  0  0  0  0  0  0  0
   11.5444  -16.0599   23.4408 O   0  0  0  0  0  0  0  0  0  0  0  0
  2  1  1  0
  3  2  2  0
  4  2  1  0
  5  6  1  0
  5  4  1  0
  7  6  1  0
  8  7  1  0
  8  9  1  6
 10  8  1  0
 10 17  1  0
 11 10  2  0
 13 12  1  0
 14 13  2  0
 16 15  1  6
 15 13  1  0
 17 16  1  0
 18 20  1  0
 18 16  1  0
 19 18  2  0
 20 21  1  0
 22 21  1  0
 23 22  1  0
 24 23  1  0
 24 20  1  0
 24 25  1  1
 26 25  1  0
 27 25  2  0
M  END
$$$$
