RNP.pdb
     RDKit          3D

 27 27  0  0  1  0  0  0  0  0999 V2000
    8.3328  -13.5984   16.5120 N   0  0  0  0  0  0  0  0  0  0  0  0
    9.0210  -13.4158   17.7323 C   0  0  0  0  0  0  0  0  0  0  0  0
    9.2200  -12.2357   18.2044 N   0  0  0  0  0  0  0  0  0  0  0  0
    9.5173  -14.5365   18.4791 N   0  0  0  0  0  0  0  0  0  0  0  0
    9.1091  -14.8149   19.8258 C   0  0  0  0  0  0  0  0  0  0  0  0
    7.6478  -14.4914   19.9764 C   0  0  0  0  0  0  0  0  0  0  0  0
    7.1613  -14.7936   21.3398 C   0  0  0  0  0  0  0  0  0  0  0  0
    7.0802  -16.2307   21.7207 C   0  0  2  0  0  0  0  0  0  0  0  0
    6.0322  -16.9861   21.1131 N   0  0  0  0  0  0  0  0  0  0  0  0
    6.9358  -16.2807   23.2027 C   0  0  0  0  0  0  0  0  0  0  0  0
    5.9816  -15.7257   23.7794 O   0  0  0  0  0  0  0  0  0  0  0  0
    9.7059  -12.0460   19.0863 N   0  0  0  0  0  0  0  0  0  0  0  0
    7.5216  -17.3273   28.1158 C   0  0  0  0  0  0  0  0  0  0  0  0
    7.3932  -18.4777   27.2882 O   0  0  0  0  0  0  0  0  0  0  0  0
    7.1796  -19.5658   27.8815 C   0  0  0  0  0  0  0  0  0  0  0  0
    7.5074  -18.3751   25.8271 C   0  0  1  0  0  0  0  0  0  0  0  0
    7.8013  -16.9408   25.4145 N   0  0  0  0  0  0  0  0  0  0  0  0
    7.9068  -16.9738   23.9537 C   0  0  0  0  0  0  0  0  0  0  0  0
    9.1120  -16.5740   26.0164 O   0  0  0  0  0  0  0  0  0  0  0  0
   10.1953  -17.0594   25.6074 N   0  0  0  0  0  0  0  0  0  0  0  0
    9.1454  -15.6522   27.0802 C   0  0  0  0  0  0  0  0  0  0  0  0
    8.0001  -15.0755   27.7417 C   0  0  0  0  0  0  0  0  0  0  0  0
    8.4224  -13.6068   27.8655 C   0  0  0  0  0  0  0  0  0  0  0  0
    9.9291  -13.6507   27.9298 C   0  0  1  0  0  0  0  0  0  0  0  0
   10.3213  -15.0930   27.7485 C   0  0  0  0  0  0  0  0  0  0  0  0
   10.4987  -15.8278   29.0208 O   0  0  0  0  0  0  0  0  0  0  0  0
   11.5844  -15.5840   29.8424 O   0  0  0  0  0  0  0  0  0  0  0  0
  2  1  1  0
  3  2  2  0
  4  2  1  0
  5  6  1  0
  5  4  1  0
  7  6  1  0
  8  7  1  0
  8  9  1  6
 10  8  1  0
 10 17  1  0
 11 10  2  0
 13 12  1  0
 14 13  2  0
 16 15  1  6
 15 13  1  0
 17 16  1  0
 18 20  1  0
 18 16  1  0
 19 18  2  0
 20 21  1  0
 22 21  1  0
 23 22  1  0
 24 23  1  0
 24 20  1  0
 24 25  1  1
 26 25  1  0
 27 25  2  0
M  END
$$$$
