RNP.pdb
     RDKit          3D

 27 27  0  0  1  0  0  0  0  0999 V2000
    9.3410  -11.5780   18.5959 N   0  0  0  0  0  0  0  0  0  0  0  0
    9.6818  -12.9486   18.6346 C   0  0  0  0  0  0  0  0  0  0  0  0
   10.8815  -13.3198   18.9136 N   0  0  0  0  0  0  0  0  0  0  0  0
    8.7042  -13.9641   18.3647 N   0  0  0  0  0  0  0  0  0  0  0  0
    7.2966  -13.7555   18.5465 C   0  0  0  0  0  0  0  0  0  0  0  0
    6.7321  -14.8816   19.3688 C   0  0  0  0  0  0  0  0  0  0  0  0
    6.8471  -14.6082   20.8176 C   0  0  0  0  0  0  0  0  0  0  0  0
    8.0623  -15.1267   21.5043 C   0  0  2  0  0  0  0  0  0  0  0  0
    8.5404  -16.3983   21.0657 N   0  0  0  0  0  0  0  0  0  0  0  0
    7.7474  -15.1875   22.9593 C   0  0  0  0  0  0  0  0  0  0  0  0
    7.2577  -14.2108   23.5572 O   0  0  0  0  0  0  0  0  0  0  0  0
   11.1982  -14.2941   18.8966 N   0  0  0  0  0  0  0  0  0  0  0  0
    7.6080  -19.0224   27.5807 C   0  0  0  0  0  0  0  0  0  0  0  0
    7.0562  -17.9129   26.8810 O   0  0  0  0  0  0  0  0  0  0  0  0
    6.4063  -17.0888   27.5737 C   0  0  0  0  0  0  0  0  0  0  0  0
    7.2484  -17.7607   25.4324 C   0  0  2  0  0  0  0  0  0  0  0  0
    7.8187  -16.3875   25.1113 N   0  0  0  0  0  0  0  0  0  0  0  0
    8.0148  -16.3813   23.6596 C   0  0  0  0  0  0  0  0  0  0  0  0
    9.1300  -16.2866   25.8077 O   0  0  0  0  0  0  0  0  0  0  0  0
   10.1647  -16.8473   25.3703 N   0  0  0  0  0  0  0  0  0  0  0  0
    9.2203  -15.5384   26.9970 C   0  0  0  0  0  0  0  0  0  0  0  0
    8.1273  -14.8850   27.6756 C   0  0  0  0  0  0  0  0  0  0  0  0
    8.7533  -13.5333   28.0386 C   0  0  0  0  0  0  0  0  0  0  0  0
   10.2275  -13.8238   28.1751 C   0  0  1  0  0  0  0  0  0  0  0  0
   10.4128  -15.2706   27.8023 C   0  0  0  0  0  0  0  0  0  0  0  0
   10.3825  -16.1937   28.9587 O   0  0  0  0  0  0  0  0  0  0  0  0
   11.4333  -16.2506   29.8564 O   0  0  0  0  0  0  0  0  0  0  0  0
  2  1  1  0
  3  2  2  0
  4  2  1  0
  5  6  1  0
  5  4  1  0
  7  6  1  0
  8  7  1  0
  8  9  1  6
 10  8  1  0
 10 17  1  0
 11 10  2  0
 13 12  1  0
 14 13  2  0
 16 15  1  6
 15 13  1  0
 17 16  1  0
 18 20  1  0
 18 16  1  0
 19 18  2  0
 20 21  1  0
 22 21  1  0
 23 22  1  0
 24 23  1  0
 24 20  1  0
 24 25  1  1
 26 25  1  0
 27 25  2  0
M  END
$$$$
