WRA.pdb
     RDKit          3D

 31 32  0  0  1  0  0  0  0  0999 V2000
    9.9792  -15.8322   25.7862 N   0  0  0  0  0  0  0  0  0  0  0  0
    9.0338  -16.8380   25.4365 C   0  0  1  0  0  0  0  0  0  0  0  0
    7.7596  -16.7489   26.2399 C   0  0  0  0  0  0  0  0  0  0  0  0
    7.0696  -15.4507   26.0315 C   0  0  0  0  0  0  0  0  0  0  0  0
    5.8894  -15.3098   25.2959 C   0  0  0  0  0  0  0  0  0  0  0  0
    5.5654  -14.0221   25.3236 N   0  0  0  0  0  0  0  0  0  0  0  0
    6.4601  -13.3171   26.0303 C   0  0  0  0  0  0  0  0  0  0  0  0
    6.5602  -11.9931   26.3383 C   0  0  0  0  0  0  0  0  0  0  0  0
    7.6204  -11.5472   27.1039 C   0  0  0  0  0  0  0  0  0  0  0  0
    8.5788  -12.4276   27.5601 C   0  0  0  0  0  0  0  0  0  0  0  0
    8.4710  -13.7721   27.2438 C   0  0  0  0  0  0  0  0  0  0  0  0
    7.4147  -14.2051   26.4831 C   0  0  0  0  0  0  0  0  0  0  0  0
    8.7197  -16.8414   23.9817 C   0  0  0  0  0  0  0  0  0  0  0  0
    8.0070  -17.7474   23.4657 O   0  0  0  0  0  0  0  0  0  0  0  0
    6.3521  -13.3220   16.8892 N   0  0  0  0  0  0  0  0  0  0  0  0
    7.6607  -13.7398   16.5094 C   0  0  0  0  0  0  0  0  0  0  0  0
    7.9111  -14.3285   15.4036 N   0  0  0  0  0  0  0  0  0  0  0  0
    8.7262  -13.4784   17.4232 N   0  0  0  0  0  0  0  0  0  0  0  0
    8.5151  -13.5125   18.8412 C   0  0  0  0  0  0  0  0  0  0  0  0
    8.9872  -14.8513   19.4257 C   0  0  0  0  0  0  0  0  0  0  0  0
    8.8118  -14.7366   20.9197 C   0  0  0  0  0  0  0  0  0  0  0  0
    9.2084  -16.0260   21.6447 C   0  0  2  0  0  0  0  0  0  0  0  0
    9.1913  -15.8414   23.0806 N   0  0  0  0  0  0  0  0  0  0  0  0
   10.6135  -16.2708   21.2396 C   0  0  0  0  0  0  0  0  0  0  0  0
   10.8046  -16.7217   20.0888 O   0  0  0  0  0  0  0  0  0  0  0  0
    8.8180  -14.7219   15.1380 C   0  0  0  0  0  0  0  0  0  0  0  0
   13.8571  -15.0725   21.5775 C   0  0  2  0  0  0  0  0  0  0  0  0
   13.0381  -16.3675   21.6035 N   0  0  0  0  0  0  0  0  0  0  0  0
   11.7354  -16.0237   22.0760 C   0  0  0  0  0  0  0  0  0  0  0  0
   13.7384  -17.3530   22.4231 O   0  0  0  0  0  0  0  0  0  0  0  0
   13.1231  -17.9112   23.5248 O   0  0  0  0  0  0  0  0  0  0  0  0
  2 13  1  0
  2  1  1  6
  3  2  1  0
  4  3  1  0
  4  5  2  0
  6  5  1  0
  7 12  2  0
  7  6  1  0
  8  7  1  0
  9 10  1  0
  9  8  2  0
 10 11  2  0
 11 12  1  0
 12  4  1  0
 13 14  2  0
 16 17  2  0
 16 15  1  0
 18 16  1  0
 19 20  1  0
 19 18  1  0
 20 21  1  0
 22 21  1  6
 23 22  1  0
 23 13  1  0
 24 25  2  0
 24 22  1  0
 27 26  1  6
 27 29  1  0
 27 28  1  0
 28 24  1  0
 29 30  1  0
 31 29  2  0
M  END
$$$$
