WRA.pdb
     RDKit          3D

 31 32  0  0  1  0  0  0  0  0999 V2000
    7.1466  -17.1353   25.7190 N   0  0  0  0  0  0  0  0  0  0  0  0
    7.4231  -16.1020   24.7790 C   0  0  1  0  0  0  0  0  0  0  0  0
    8.6086  -15.2549   25.1715 C   0  0  0  0  0  0  0  0  0  0  0  0
    8.3122  -14.4134   26.3585 C   0  0  0  0  0  0  0  0  0  0  0  0
    8.9321  -14.5795   27.6003 C   0  0  0  0  0  0  0  0  0  0  0  0
    8.4260  -13.6595   28.4136 N   0  0  0  0  0  0  0  0  0  0  0  0
    7.5165  -12.9062   27.7794 C   0  0  0  0  0  0  0  0  0  0  0  0
    6.7405  -11.8594   28.1794 C   0  0  0  0  0  0  0  0  0  0  0  0
    5.8735  -11.2681   27.2807 C   0  0  0  0  0  0  0  0  0  0  0  0
    5.7848  -11.7256   25.9828 C   0  0  0  0  0  0  0  0  0  0  0  0
    6.5765  -12.7898   25.5825 C   0  0  0  0  0  0  0  0  0  0  0  0
    7.4342  -13.3702   26.4822 C   0  0  0  0  0  0  0  0  0  0  0  0
    7.6053  -16.6246   23.3974 C   0  0  0  0  0  0  0  0  0  0  0  0
    7.7145  -17.8626   23.1725 O   0  0  0  0  0  0  0  0  0  0  0  0
    9.9247  -13.4885   17.4615 N   0  0  0  0  0  0  0  0  0  0  0  0
    8.6462  -13.7723   16.8993 C   0  0  0  0  0  0  0  0  0  0  0  0
    8.4910  -14.2396   15.7206 N   0  0  0  0  0  0  0  0  0  0  0  0
    7.4990  -13.5141   17.7094 N   0  0  0  0  0  0  0  0  0  0  0  0
    7.6281  -12.9698   19.0298 C   0  0  0  0  0  0  0  0  0  0  0  0
    8.2453  -14.0037   19.9823 C   0  0  0  0  0  0  0  0  0  0  0  0
    7.3841  -15.2373   19.8698 C   0  0  0  0  0  0  0  0  0  0  0  0
    7.7699  -16.3023   20.9005 C   0  0  2  0  0  0  0  0  0  0  0  0
    7.6688  -15.7824   22.2481 N   0  0  0  0  0  0  0  0  0  0  0  0
    9.2006  -16.5858   20.6341 C   0  0  0  0  0  0  0  0  0  0  0  0
    9.4651  -17.3000   19.6422 O   0  0  0  0  0  0  0  0  0  0  0  0
    7.5885  -14.4171   15.2714 C   0  0  0  0  0  0  0  0  0  0  0  0
   12.4900  -15.3032   21.1278 C   0  0  2  0  0  0  0  0  0  0  0  0
   11.5963  -16.5476   21.1628 N   0  0  0  0  0  0  0  0  0  0  0  0
   10.2690  -16.0963   21.4330 C   0  0  0  0  0  0  0  0  0  0  0  0
   12.1293  -17.4844   22.1487 O   0  0  0  0  0  0  0  0  0  0  0  0
   13.4035  -17.9958   22.0107 O   0  0  0  0  0  0  0  0  0  0  0  0
  2 13  1  0
  2  1  1  1
  3  2  1  0
  4  3  1  0
  4  5  2  0
  6  5  1  0
  7 12  2  0
  7  6  1  0
  8  7  1  0
  9 10  1  0
  9  8  2  0
 10 11  2  0
 11 12  1  0
 12  4  1  0
 13 14  2  0
 16 17  2  0
 16 15  1  0
 18 16  1  0
 19 20  1  0
 19 18  1  0
 20 21  1  0
 22 21  1  6
 23 22  1  0
 23 13  1  0
 24 25  2  0
 24 22  1  0
 27 26  1  6
 27 29  1  0
 27 28  1  0
 28 24  1  0
 29 30  1  0
 31 29  2  0
M  END
$$$$
