WRA.pdb
     RDKit          3D

 31 32  0  0  1  0  0  0  0  0999 V2000
    6.3299  -18.0271   25.0698 N   0  0  0  0  0  0  0  0  0  0  0  0
    6.9518  -16.8138   24.6587 C   0  0  1  0  0  0  0  0  0  0  0  0
    7.9988  -16.3328   25.6329 C   0  0  0  0  0  0  0  0  0  0  0  0
    7.4786  -15.2511   26.5072 C   0  0  0  0  0  0  0  0  0  0  0  0
    7.0529  -15.4554   27.8228 C   0  0  0  0  0  0  0  0  0  0  0  0
    6.6590  -14.2768   28.2914 N   0  0  0  0  0  0  0  0  0  0  0  0
    6.8014  -13.3195   27.3640 C   0  0  0  0  0  0  0  0  0  0  0  0
    6.5411  -11.9815   27.3674 C   0  0  0  0  0  0  0  0  0  0  0  0
    6.7961  -11.2323   26.2348 C   0  0  0  0  0  0  0  0  0  0  0  0
    7.3114  -11.8236   25.1006 C   0  0  0  0  0  0  0  0  0  0  0  0
    7.5740  -13.1840   25.1039 C   0  0  0  0  0  0  0  0  0  0  0  0
    7.3175  -13.9194   26.2332 C   0  0  0  0  0  0  0  0  0  0  0  0
    7.5326  -16.9079   23.2916 C   0  0  0  0  0  0  0  0  0  0  0  0
    7.9906  -17.9973   22.8460 O   0  0  0  0  0  0  0  0  0  0  0  0
    9.1938  -14.7518   16.0520 N   0  0  0  0  0  0  0  0  0  0  0  0
    7.9657  -14.0291   16.0730 C   0  0  0  0  0  0  0  0  0  0  0  0
    7.1611  -13.9925   15.0814 N   0  0  0  0  0  0  0  0  0  0  0  0
    7.6398  -13.3197   17.2686 N   0  0  0  0  0  0  0  0  0  0  0  0
    8.5697  -13.2290   18.3566 C   0  0  0  0  0  0  0  0  0  0  0  0
    8.7902  -14.6076   18.9951 C   0  0  0  0  0  0  0  0  0  0  0  0
    8.1333  -14.5461   20.3518 C   0  0  0  0  0  0  0  0  0  0  0  0
    8.1672  -15.8997   21.0676 C   0  0  2  0  0  0  0  0  0  0  0  0
    7.6134  -15.7964   22.4014 N   0  0  0  0  0  0  0  0  0  0  0  0
    9.6085  -16.2199   21.2028 C   0  0  0  0  0  0  0  0  0  0  0  0
   10.3178  -15.4025   21.8295 O   0  0  0  0  0  0  0  0  0  0  0  0
    6.2905  -13.4553   15.0488 C   0  0  0  0  0  0  0  0  0  0  0  0
   11.8709  -19.0912   20.7838 C   0  0  1  0  0  0  0  0  0  0  0  0
   11.6189  -17.5809   20.8473 N   0  0  0  0  0  0  0  0  0  0  0  0
   10.2158  -17.3876   20.6670 C   0  0  0  0  0  0  0  0  0  0  0  0
   12.4541  -16.9203   19.8475 O   0  0  0  0  0  0  0  0  0  0  0  0
   13.8051  -16.7467   20.0683 O   0  0  0  0  0  0  0  0  0  0  0  0
  2 13  1  0
  2  1  1  1
  3  2  1  0
  4  3  1  0
  4  5  2  0
  6  5  1  0
  7 12  2  0
  7  6  1  0
  8  7  1  0
  9 10  1  0
  9  8  2  0
 10 11  2  0
 11 12  1  0
 12  4  1  0
 13 14  2  0
 16 17  2  0
 16 15  1  0
 18 16  1  0
 19 20  1  0
 19 18  1  0
 20 21  1  0
 22 21  1  1
 23 22  1  0
 23 13  1  0
 24 25  2  0
 24 22  1  0
 27 26  1  1
 27 29  1  0
 27 28  1  0
 28 24  1  0
 29 30  1  0
 31 29  2  0
M  END
$$$$
