WRA.pdb
     RDKit          3D

 31 32  0  0  1  0  0  0  0  0999 V2000
    6.1140  -18.0780   24.6975 N   0  0  0  0  0  0  0  0  0  0  0  0
    6.8183  -16.8617   24.4688 C   0  0  1  0  0  0  0  0  0  0  0  0
    7.6161  -16.4124   25.6682 C   0  0  0  0  0  0  0  0  0  0  0  0
    7.0543  -15.1758   26.2684 C   0  0  0  0  0  0  0  0  0  0  0  0
    5.8301  -15.1282   26.9414 C   0  0  0  0  0  0  0  0  0  0  0  0
    5.6538  -13.8734   27.3394 N   0  0  0  0  0  0  0  0  0  0  0  0
    6.6855  -13.1024   26.9677 C   0  0  0  0  0  0  0  0  0  0  0  0
    6.9601  -11.7784   27.1388 C   0  0  0  0  0  0  0  0  0  0  0  0
    8.1327  -11.2520   26.6317 C   0  0  0  0  0  0  0  0  0  0  0  0
    9.0286  -12.0522   25.9542 C   0  0  0  0  0  0  0  0  0  0  0  0
    8.7435  -13.3972   25.7841 C   0  0  0  0  0  0  0  0  0  0  0  0
    7.5767  -13.9105   26.2912 C   0  0  0  0  0  0  0  0  0  0  0  0
    7.6967  -16.9307   23.2693 C   0  0  0  0  0  0  0  0  0  0  0  0
    8.3251  -17.9859   22.9751 O   0  0  0  0  0  0  0  0  0  0  0  0
    6.8796  -14.9701   17.1792 N   0  0  0  0  0  0  0  0  0  0  0  0
    8.0274  -14.1543   16.9596 C   0  0  0  0  0  0  0  0  0  0  0  0
    8.7890  -14.2817   15.9420 N   0  0  0  0  0  0  0  0  0  0  0  0
    8.3208  -13.1545   17.9359 N   0  0  0  0  0  0  0  0  0  0  0  0
    7.5151  -13.0051   19.1128 C   0  0  0  0  0  0  0  0  0  0  0  0
    7.4189  -14.3348   19.8740 C   0  0  0  0  0  0  0  0  0  0  0  0
    8.7838  -14.5701   20.4722 C   0  0  0  0  0  0  0  0  0  0  0  0
    8.8376  -15.8657   21.2870 C   0  0  2  0  0  0  0  0  0  0  0  0
    7.8898  -15.8316   22.3810 N   0  0  0  0  0  0  0  0  0  0  0  0
   10.1995  -15.8878   21.8726 C   0  0  0  0  0  0  0  0  0  0  0  0
   10.4722  -15.0048   22.7151 O   0  0  0  0  0  0  0  0  0  0  0  0
    9.5697  -13.6620   15.7092 C   0  0  0  0  0  0  0  0  0  0  0  0
   13.0105  -18.1837   22.2822 C   0  0  1  0  0  0  0  0  0  0  0  0
   12.4791  -16.7525   22.1488 N   0  0  0  0  0  0  0  0  0  0  0  0
   11.1943  -16.8440   21.5328 C   0  0  0  0  0  0  0  0  0  0  0  0
   13.4512  -15.9552   21.4053 O   0  0  0  0  0  0  0  0  0  0  0  0
   13.1191  -15.4082   20.1828 O   0  0  0  0  0  0  0  0  0  0  0  0
  2 13  1  0
  2  1  1  1
  3  2  1  0
  4  3  1  0
  4  5  2  0
  6  5  1  0
  7 12  2  0
  7  6  1  0
  8  7  1  0
  9 10  1  0
  9  8  2  0
 10 11  2  0
 11 12  1  0
 12  4  1  0
 13 14  2  0
 16 17  2  0
 16 15  1  0
 18 16  1  0
 19 20  1  0
 19 18  1  0
 20 21  1  0
 22 21  1  6
 23 22  1  0
 23 13  1  0
 24 25  2  0
 24 22  1  0
 27 26  1  1
 27 29  1  0
 27 28  1  0
 28 24  1  0
 29 30  1  0
 31 29  2  0
M  END
$$$$
