WRA.pdb
     RDKit          3D

 31 32  0  0  1  0  0  0  0  0999 V2000
    6.4114  -17.7930   24.7370 N   0  0  0  0  0  0  0  0  0  0  0  0
    7.3793  -16.8564   24.2745 C   0  0  1  0  0  0  0  0  0  0  0  0
    7.9164  -15.9767   25.3766 C   0  0  0  0  0  0  0  0  0  0  0  0
    6.9542  -14.9061   25.7416 C   0  0  0  0  0  0  0  0  0  0  0  0
    5.6230  -15.1476   26.0930 C   0  0  0  0  0  0  0  0  0  0  0  0
    5.0701  -13.9688   26.3546 N   0  0  0  0  0  0  0  0  0  0  0  0
    5.9572  -12.9764   26.1955 C   0  0  0  0  0  0  0  0  0  0  0  0
    5.8694  -11.6242   26.3424 C   0  0  0  0  0  0  0  0  0  0  0  0
    6.9790  -10.8367   26.1021 C   0  0  0  0  0  0  0  0  0  0  0  0
    8.1748  -11.4043   25.7153 C   0  0  0  0  0  0  0  0  0  0  0  0
    8.2574  -12.7794   25.5681 C   0  0  0  0  0  0  0  0  0  0  0  0
    7.1502  -13.5528   25.8089 C   0  0  0  0  0  0  0  0  0  0  0  0
    8.5035  -17.5112   23.5516 C   0  0  0  0  0  0  0  0  0  0  0  0
    9.0202  -18.5835   23.9739 O   0  0  0  0  0  0  0  0  0  0  0  0
    7.0688  -14.5579   19.1554 N   0  0  0  0  0  0  0  0  0  0  0  0
    8.0461  -13.6258   18.7002 C   0  0  0  0  0  0  0  0  0  0  0  0
    7.8556  -12.3627   18.6947 N   0  0  0  0  0  0  0  0  0  0  0  0
    9.2888  -14.1509   18.2324 N   0  0  0  0  0  0  0  0  0  0  0  0
    9.6718  -15.5066   18.5010 C   0  0  0  0  0  0  0  0  0  0  0  0
    9.6722  -15.7786   20.0119 C   0  0  0  0  0  0  0  0  0  0  0  0
   10.2007  -17.1815   20.1806 C   0  0  0  0  0  0  0  0  0  0  0  0
   10.1437  -17.6447   21.6392 C   0  0  2  0  0  0  0  0  0  0  0  0
    9.0692  -16.9862   22.3522 N   0  0  0  0  0  0  0  0  0  0  0  0
   11.4233  -17.1867   22.2317 C   0  0  0  0  0  0  0  0  0  0  0  0
   11.6865  -15.9670   22.1471 O   0  0  0  0  0  0  0  0  0  0  0  0
    8.5467  -11.6640   18.4085 C   0  0  0  0  0  0  0  0  0  0  0  0
   13.9769  -18.3758   24.5836 C   0  0  2  0  0  0  0  0  0  0  0  0
   13.5568  -17.4912   23.4048 N   0  0  0  0  0  0  0  0  0  0  0  0
   12.3506  -18.0464   22.8801 C   0  0  0  0  0  0  0  0  0  0  0  0
   14.6585  -17.4246   22.4481 O   0  0  0  0  0  0  0  0  0  0  0  0
   15.8670  -16.8657   22.8103 O   0  0  0  0  0  0  0  0  0  0  0  0
  2 13  1  0
  2  1  1  1
  3  2  1  0
  4  3  1  0
  4  5  2  0
  6  5  1  0
  7 12  2  0
  7  6  1  0
  8  7  1  0
  9 10  1  0
  9  8  2  0
 10 11  2  0
 11 12  1  0
 12  4  1  0
 13 14  2  0
 16 17  2  0
 16 15  1  0
 18 16  1  0
 19 20  1  0
 19 18  1  0
 20 21  1  0
 22 21  1  6
 23 22  1  0
 23 13  1  0
 24 25  2  0
 24 22  1  0
 27 26  1  1
 27 29  1  0
 27 28  1  0
 28 24  1  0
 29 30  1  0
 31 29  2  0
M  END
$$$$
