WRA.pdb
     RDKit          3D

 31 32  0  0  1  0  0  0  0  0999 V2000
    9.3703  -15.9944   22.9073 N   0  0  0  0  0  0  0  0  0  0  0  0
    9.9928  -16.8515   21.9557 C   0  0  1  0  0  0  0  0  0  0  0  0
    9.6180  -16.5171   20.5328 C   0  0  0  0  0  0  0  0  0  0  0  0
    8.3763  -15.7054   20.4692 C   0  0  0  0  0  0  0  0  0  0  0  0
    7.1225  -16.1744   20.8716 C   0  0  0  0  0  0  0  0  0  0  0  0
    6.2567  -15.1864   20.6761 N   0  0  0  0  0  0  0  0  0  0  0  0
    6.8681  -14.1051   20.1721 C   0  0  0  0  0  0  0  0  0  0  0  0
    6.4165  -12.8709   19.8107 C   0  0  0  0  0  0  0  0  0  0  0  0
    7.3035  -11.9380   19.3087 C   0  0  0  0  0  0  0  0  0  0  0  0
    8.6413  -12.2421   19.1694 C   0  0  0  0  0  0  0  0  0  0  0  0
    9.0939  -13.4984   19.5388 C   0  0  0  0  0  0  0  0  0  0  0  0
    8.2055  -14.4178   20.0362 C   0  0  0  0  0  0  0  0  0  0  0  0
   11.4739  -16.8794   22.0994 C   0  0  0  0  0  0  0  0  0  0  0  0
   12.1236  -15.8412   22.4079 O   0  0  0  0  0  0  0  0  0  0  0  0
   17.9061  -18.1287   23.5161 N   0  0  0  0  0  0  0  0  0  0  0  0
   18.3904  -19.4690   23.5272 C   0  0  0  0  0  0  0  0  0  0  0  0
   19.6330  -19.7610   23.5774 N   0  0  0  0  0  0  0  0  0  0  0  0
   17.4235  -20.5186   23.4789 N   0  0  0  0  0  0  0  0  0  0  0  0
   16.0248  -20.2355   23.3376 C   0  0  0  0  0  0  0  0  0  0  0  0
   15.7472  -19.5387   21.9981 C   0  0  0  0  0  0  0  0  0  0  0  0
   14.2459  -19.4937   21.8572 C   0  0  0  0  0  0  0  0  0  0  0  0
   13.6917  -18.0817   22.0684 C   0  0  2  0  0  0  0  0  0  0  0  0
   12.2535  -18.0575   21.9032 N   0  0  0  0  0  0  0  0  0  0  0  0
   14.2836  -17.2755   20.9739 C   0  0  0  0  0  0  0  0  0  0  0  0
   14.1442  -17.7071   19.8084 O   0  0  0  0  0  0  0  0  0  0  0  0
   20.0126  -20.7077   23.6634 C   0  0  0  0  0  0  0  0  0  0  0  0
   14.9401  -14.0522   19.9006 C   0  0  1  0  0  0  0  0  0  0  0  0
   15.6061  -15.4236   20.0563 N   0  0  0  0  0  0  0  0  0  0  0  0
   14.9888  -16.0585   21.1763 C   0  0  0  0  0  0  0  0  0  0  0  0
   17.0488  -15.2360   20.1864 O   0  0  0  0  0  0  0  0  0  0  0  0
   17.7729  -14.6499   19.1686 O   0  0  0  0  0  0  0  0  0  0  0  0
  2 13  1  0
  2  1  1  1
  3  2  1  0
  4  3  1  0
  4  5  2  0
  6  5  1  0
  7 12  2  0
  7  6  1  0
  8  7  1  0
  9 10  1  0
  9  8  2  0
 10 11  2  0
 11 12  1  0
 12  4  1  0
 13 14  2  0
 16 17  2  0
 16 15  1  0
 18 16  1  0
 19 20  1  0
 19 18  1  0
 20 21  1  0
 22 21  1  6
 23 22  1  0
 23 13  1  0
 24 25  2  0
 24 22  1  0
 27 26  1  6
 27 29  1  0
 27 28  1  0
 28 24  1  0
 29 30  1  0
 31 29  2  0
M  END
$$$$
