WRA.pdb
     RDKit          3D

 31 32  0  0  1  0  0  0  0  0999 V2000
    6.2587  -18.3160   24.5342 N   0  0  0  0  0  0  0  0  0  0  0  0
    6.8050  -17.0376   24.2260 C   0  0  1  0  0  0  0  0  0  0  0  0
    7.5525  -16.4251   25.3849 C   0  0  0  0  0  0  0  0  0  0  0  0
    6.8351  -15.2496   25.9403 C   0  0  0  0  0  0  0  0  0  0  0  0
    5.5800  -15.3252   26.5508 C   0  0  0  0  0  0  0  0  0  0  0  0
    5.2538  -14.0928   26.9232 N   0  0  0  0  0  0  0  0  0  0  0  0
    6.2171  -13.2209   26.5933 C   0  0  0  0  0  0  0  0  0  0  0  0
    6.3433  -11.8741   26.7606 C   0  0  0  0  0  0  0  0  0  0  0  0
    7.4788  -11.2318   26.3056 C   0  0  0  0  0  0  0  0  0  0  0  0
    8.4865  -11.9389   25.6841 C   0  0  0  0  0  0  0  0  0  0  0  0
    8.3522  -13.3077   25.5175 C   0  0  0  0  0  0  0  0  0  0  0  0
    7.2210  -13.9364   25.9726 C   0  0  0  0  0  0  0  0  0  0  0  0
    7.6737  -17.0672   23.0179 C   0  0  0  0  0  0  0  0  0  0  0  0
    8.1102  -18.1557   22.5492 O   0  0  0  0  0  0  0  0  0  0  0  0
    7.1779  -14.9348   17.0886 N   0  0  0  0  0  0  0  0  0  0  0  0
    8.0856  -13.8825   16.7728 C   0  0  0  0  0  0  0  0  0  0  0  0
    8.6593  -13.7741   15.6366 N   0  0  0  0  0  0  0  0  0  0  0  0
    8.3519  -12.9158   17.7893 N   0  0  0  0  0  0  0  0  0  0  0  0
    7.6748  -12.9591   19.0527 C   0  0  0  0  0  0  0  0  0  0  0  0
    7.6223  -14.3968   19.5885 C   0  0  0  0  0  0  0  0  0  0  0  0
    8.8806  -14.5834   20.3996 C   0  0  0  0  0  0  0  0  0  0  0  0
    8.8992  -15.9304   21.1281 C   0  0  2  0  0  0  0  0  0  0  0  0
    8.0696  -15.8915   22.3142 N   0  0  0  0  0  0  0  0  0  0  0  0
   10.3046  -16.1031   21.5679 C   0  0  0  0  0  0  0  0  0  0  0  0
   11.1836  -16.1084   20.6784 O   0  0  0  0  0  0  0  0  0  0  0  0
    9.2891  -13.0144   15.3648 C   0  0  0  0  0  0  0  0  0  0  0  0
   12.3686  -15.5881   24.4781 C   0  0  2  0  0  0  0  0  0  0  0  0
   12.0839  -16.4252   23.2264 N   0  0  0  0  0  0  0  0  0  0  0  0
   10.6983  -16.2598   22.9243 C   0  0  0  0  0  0  0  0  0  0  0  0
   12.4873  -17.8060   23.4797 O   0  0  0  0  0  0  0  0  0  0  0  0
   13.7987  -18.1069   23.7861 O   0  0  0  0  0  0  0  0  0  0  0  0
  2 13  1  0
  2  1  1  1
  3  2  1  0
  4  3  1  0
  4  5  2  0
  6  5  1  0
  7 12  2  0
  7  6  1  0
  8  7  1  0
  9 10  1  0
  9  8  2  0
 10 11  2  0
 11 12  1  0
 12  4  1  0
 13 14  2  0
 16 17  2  0
 16 15  1  0
 18 16  1  0
 19 20  1  0
 19 18  1  0
 20 21  1  0
 22 21  1  1
 23 22  1  0
 23 13  1  0
 24 25  2  0
 24 22  1  0
 27 26  1  6
 27 29  1  0
 27 28  1  0
 28 24  1  0
 29 30  1  0
 31 29  2  0
M  END
$$$$
