WRA.pdb
     RDKit          3D

 31 32  0  0  1  0  0  0  0  0999 V2000
    6.4674  -17.7337   24.9029 N   0  0  0  0  0  0  0  0  0  0  0  0
    7.3835  -16.8468   24.2688 C   0  0  1  0  0  0  0  0  0  0  0  0
    8.0819  -15.9308   25.2435 C   0  0  0  0  0  0  0  0  0  0  0  0
    7.1666  -14.8839   25.7643 C   0  0  0  0  0  0  0  0  0  0  0  0
    5.9186  -15.1579   26.3310 C   0  0  0  0  0  0  0  0  0  0  0  0
    5.3868  -13.9927   26.6822 N   0  0  0  0  0  0  0  0  0  0  0  0
    6.2098  -12.9787   26.3798 C   0  0  0  0  0  0  0  0  0  0  0  0
    6.1133  -11.6287   26.5410 C   0  0  0  0  0  0  0  0  0  0  0  0
    7.1474  -10.8141   26.1214 C   0  0  0  0  0  0  0  0  0  0  0  0
    8.2767  -11.3524   25.5411 C   0  0  0  0  0  0  0  0  0  0  0  0
    8.3686  -12.7254   25.3804 C   0  0  0  0  0  0  0  0  0  0  0  0
    7.3366  -13.5258   25.8002 C   0  0  0  0  0  0  0  0  0  0  0  0
    8.3865  -17.5655   23.4366 C   0  0  0  0  0  0  0  0  0  0  0  0
    8.9792  -18.5951   23.8654 O   0  0  0  0  0  0  0  0  0  0  0  0
    7.9401  -13.1455   19.1483 N   0  0  0  0  0  0  0  0  0  0  0  0
    8.1132  -13.7010   17.8472 C   0  0  0  0  0  0  0  0  0  0  0  0
    7.9040  -13.0408   16.7738 N   0  0  0  0  0  0  0  0  0  0  0  0
    8.5406  -15.0608   17.7637 N   0  0  0  0  0  0  0  0  0  0  0  0
    9.7979  -15.4803   18.3113 C   0  0  0  0  0  0  0  0  0  0  0  0
    9.6510  -15.8235   19.8004 C   0  0  0  0  0  0  0  0  0  0  0  0
    9.7711  -17.3244   19.8940 C   0  0  0  0  0  0  0  0  0  0  0  0
    9.7781  -17.8101   21.3464 C   0  0  2  0  0  0  0  0  0  0  0  0
    8.7455  -17.1525   22.1195 N   0  0  0  0  0  0  0  0  0  0  0  0
   11.0890  -17.3741   21.8846 C   0  0  0  0  0  0  0  0  0  0  0  0
   11.5535  -16.2970   21.4510 O   0  0  0  0  0  0  0  0  0  0  0  0
    8.0599  -13.3934   15.8256 C   0  0  0  0  0  0  0  0  0  0  0  0
   13.2249  -17.7212   24.7408 C   0  0  2  0  0  0  0  0  0  0  0  0
   13.1344  -17.6425   23.2130 N   0  0  0  0  0  0  0  0  0  0  0  0
   11.8325  -18.1035   22.8513 C   0  0  0  0  0  0  0  0  0  0  0  0
   14.2318  -18.4136   22.6345 O   0  0  0  0  0  0  0  0  0  0  0  0
   15.5418  -18.0972   22.9307 O   0  0  0  0  0  0  0  0  0  0  0  0
  2 13  1  0
  2  1  1  1
  3  2  1  0
  4  3  1  0
  4  5  2  0
  6  5  1  0
  7 12  2  0
  7  6  1  0
  8  7  1  0
  9 10  1  0
  9  8  2  0
 10 11  2  0
 11 12  1  0
 12  4  1  0
 13 14  2  0
 16 17  2  0
 16 15  1  0
 18 16  1  0
 19 20  1  0
 19 18  1  0
 20 21  1  0
 22 21  1  6
 23 22  1  0
 23 13  1  0
 24 25  2  0
 24 22  1  0
 27 26  1  1
 27 29  1  0
 27 28  1  0
 28 24  1  0
 29 30  1  0
 31 29  2  0
M  END
$$$$
