WRA.pdb
     RDKit          3D

 31 32  0  0  1  0  0  0  0  0999 V2000
    7.1218  -18.5242   25.6144 N   0  0  0  0  0  0  0  0  0  0  0  0
    7.1015  -17.1659   25.1872 C   0  0  1  0  0  0  0  0  0  0  0  0
    7.7294  -16.2275   26.1883 C   0  0  0  0  0  0  0  0  0  0  0  0
    6.8334  -15.0873   26.5077 C   0  0  0  0  0  0  0  0  0  0  0  0
    5.4709  -15.2270   26.7870 C   0  0  0  0  0  0  0  0  0  0  0  0
    4.9961  -14.0098   27.0254 N   0  0  0  0  0  0  0  0  0  0  0  0
    5.9634  -13.0878   26.9188 C   0  0  0  0  0  0  0  0  0  0  0  0
    5.9711  -11.7330   27.0683 C   0  0  0  0  0  0  0  0  0  0  0  0
    7.1485  -11.0321   26.8912 C   0  0  0  0  0  0  0  0  0  0  0  0
    8.3166  -11.6886   26.5650 C   0  0  0  0  0  0  0  0  0  0  0  0
    8.3019  -13.0659   26.4149 C   0  0  0  0  0  0  0  0  0  0  0  0
    7.1279  -13.7529   26.5927 C   0  0  0  0  0  0  0  0  0  0  0  0
    7.7307  -16.9811   23.8512 C   0  0  0  0  0  0  0  0  0  0  0  0
    8.6205  -17.7718   23.4291 O   0  0  0  0  0  0  0  0  0  0  0  0
   10.1200  -14.6310   17.5998 N   0  0  0  0  0  0  0  0  0  0  0  0
    9.0572  -13.9504   16.9377 C   0  0  0  0  0  0  0  0  0  0  0  0
    9.2316  -13.2311   15.8965 N   0  0  0  0  0  0  0  0  0  0  0  0
    7.7446  -14.0930   17.4813 N   0  0  0  0  0  0  0  0  0  0  0  0
    7.4234  -13.5994   18.7888 C   0  0  0  0  0  0  0  0  0  0  0  0
    8.4490  -14.0924   19.8194 C   0  0  0  0  0  0  0  0  0  0  0  0
    7.6691  -14.3703   21.0805 C   0  0  0  0  0  0  0  0  0  0  0  0
    7.9987  -15.7459   21.6676 C   0  0  2  0  0  0  0  0  0  0  0  0
    7.3822  -15.9180   22.9664 N   0  0  0  0  0  0  0  0  0  0  0  0
    9.4679  -15.7303   21.8658 C   0  0  0  0  0  0  0  0  0  0  0  0
    9.9460  -14.7715   22.5108 O   0  0  0  0  0  0  0  0  0  0  0  0
    8.5016  -12.6897   15.4255 C   0  0  0  0  0  0  0  0  0  0  0  0
   12.2729  -17.9659   22.0173 C   0  0  1  0  0  0  0  0  0  0  0  0
   11.7497  -16.5898   21.5918 N   0  0  0  0  0  0  0  0  0  0  0  0
   10.3464  -16.7312   21.3699 C   0  0  0  0  0  0  0  0  0  0  0  0
   12.5041  -16.1375   20.4257 O   0  0  0  0  0  0  0  0  0  0  0  0
   11.8841  -16.0023   19.2005 O   0  0  0  0  0  0  0  0  0  0  0  0
  2 13  1  0
  2  1  1  1
  3  2  1  0
  4  3  1  0
  4  5  2  0
  6  5  1  0
  7 12  2  0
  7  6  1  0
  8  7  1  0
  9 10  1  0
  9  8  2  0
 10 11  2  0
 11 12  1  0
 12  4  1  0
 13 14  2  0
 16 17  2  0
 16 15  1  0
 18 16  1  0
 19 20  1  0
 19 18  1  0
 20 21  1  0
 22 21  1  1
 23 22  1  0
 23 13  1  0
 24 25  2  0
 24 22  1  0
 27 26  1  1
 27 29  1  0
 27 28  1  0
 28 24  1  0
 29 30  1  0
 31 29  2  0
M  END
$$$$
