WRA.pdb
     RDKit          3D

 31 32  0  0  1  0  0  0  0  0999 V2000
    7.3262  -17.4694   25.4961 N   0  0  0  0  0  0  0  0  0  0  0  0
    7.7297  -16.2238   24.9360 C   0  0  1  0  0  0  0  0  0  0  0  0
    8.8075  -15.5410   25.7415 C   0  0  0  0  0  0  0  0  0  0  0  0
    8.2413  -14.5263   26.6661 C   0  0  0  0  0  0  0  0  0  0  0  0
    8.4027  -14.5669   28.0539 C   0  0  0  0  0  0  0  0  0  0  0  0
    7.7695  -13.5101   28.5500 N   0  0  0  0  0  0  0  0  0  0  0  0
    7.2066  -12.7853   27.5729 C   0  0  0  0  0  0  0  0  0  0  0  0
    6.4682  -11.6397   27.5783 C   0  0  0  0  0  0  0  0  0  0  0  0
    6.0124  -11.1141   26.3846 C   0  0  0  0  0  0  0  0  0  0  0  0
    6.2967  -11.7362   25.1871 C   0  0  0  0  0  0  0  0  0  0  0  0
    7.0480  -12.9003   25.1885 C   0  0  0  0  0  0  0  0  0  0  0  0
    7.4960  -13.4143   26.3789 C   0  0  0  0  0  0  0  0  0  0  0  0
    8.1579  -16.3513   23.5164 C   0  0  0  0  0  0  0  0  0  0  0  0
    8.5762  -17.4490   23.0525 O   0  0  0  0  0  0  0  0  0  0  0  0
    9.5464  -13.7071   15.9951 N   0  0  0  0  0  0  0  0  0  0  0  0
    8.1400  -13.9056   15.8781 C   0  0  0  0  0  0  0  0  0  0  0  0
    7.5854  -14.3585   14.8201 N   0  0  0  0  0  0  0  0  0  0  0  0
    7.3324  -13.5759   17.0085 N   0  0  0  0  0  0  0  0  0  0  0  0
    7.9175  -13.0890   18.2239 C   0  0  0  0  0  0  0  0  0  0  0  0
    8.6167  -14.2271   18.9807 C   0  0  0  0  0  0  0  0  0  0  0  0
    8.0319  -14.2212   20.3713 C   0  0  0  0  0  0  0  0  0  0  0  0
    8.5339  -15.4003   21.2099 C   0  0  2  0  0  0  0  0  0  0  0  0
    8.1283  -15.2644   22.5932 N   0  0  0  0  0  0  0  0  0  0  0  0
   10.0121  -15.2959   21.1625 C   0  0  0  0  0  0  0  0  0  0  0  0
   10.5539  -14.5061   21.9666 O   0  0  0  0  0  0  0  0  0  0  0  0
    6.5889  -14.5707   14.7220 C   0  0  0  0  0  0  0  0  0  0  0  0
   12.4769  -14.3234   20.4138 C   0  0  2  0  0  0  0  0  0  0  0  0
   12.2449  -15.8339   20.2991 N   0  0  0  0  0  0  0  0  0  0  0  0
   10.8317  -16.0341   20.2665 C   0  0  0  0  0  0  0  0  0  0  0  0
   12.9253  -16.5016   21.4057 O   0  0  0  0  0  0  0  0  0  0  0  0
   14.3034  -16.5130   21.4752 O   0  0  0  0  0  0  0  0  0  0  0  0
  2 13  1  0
  2  1  1  1
  3  2  1  0
  4  3  1  0
  4  5  2  0
  6  5  1  0
  7 12  2  0
  7  6  1  0
  8  7  1  0
  9 10  1  0
  9  8  2  0
 10 11  2  0
 11 12  1  0
 12  4  1  0
 13 14  2  0
 16 17  2  0
 16 15  1  0
 18 16  1  0
 19 20  1  0
 19 18  1  0
 20 21  1  0
 22 21  1  6
 23 22  1  0
 23 13  1  0
 24 25  2  0
 24 22  1  0
 27 26  1  6
 27 29  1  0
 27 28  1  0
 28 24  1  0
 29 30  1  0
 31 29  2  0
M  END
$$$$
