WRA.pdb
     RDKit          3D

 31 32  0  0  1  0  0  0  0  0999 V2000
    6.1663  -18.0347   24.3085 N   0  0  0  0  0  0  0  0  0  0  0  0
    7.1805  -17.0543   24.1138 C   0  0  1  0  0  0  0  0  0  0  0  0
    7.6461  -16.4286   25.4056 C   0  0  0  0  0  0  0  0  0  0  0  0
    6.8467  -15.2260   25.7516 C   0  0  0  0  0  0  0  0  0  0  0  0
    5.4711  -15.2546   25.9981 C   0  0  0  0  0  0  0  0  0  0  0  0
    5.0997  -14.0098   26.2746 N   0  0  0  0  0  0  0  0  0  0  0  0
    6.1465  -13.1739   26.2234 C   0  0  0  0  0  0  0  0  0  0  0  0
    6.2698  -11.8317   26.4259 C   0  0  0  0  0  0  0  0  0  0  0  0
    7.5081  -11.2319   26.2998 C   0  0  0  0  0  0  0  0  0  0  0  0
    8.6211  -11.9769   25.9714 C   0  0  0  0  0  0  0  0  0  0  0  0
    8.4890  -13.3408   25.7672 C   0  0  0  0  0  0  0  0  0  0  0  0
    7.2553  -13.9271   25.8947 C   0  0  0  0  0  0  0  0  0  0  0  0
    8.3460  -17.5853   23.3557 C   0  0  0  0  0  0  0  0  0  0  0  0
    8.6031  -18.8215   23.3273 O   0  0  0  0  0  0  0  0  0  0  0  0
    6.8033  -14.2759   19.3564 N   0  0  0  0  0  0  0  0  0  0  0  0
    7.8492  -13.3843   18.9790 C   0  0  0  0  0  0  0  0  0  0  0  0
    7.7010  -12.1164   18.9310 N   0  0  0  0  0  0  0  0  0  0  0  0
    9.1131  -13.9571   18.6427 N   0  0  0  0  0  0  0  0  0  0  0  0
    9.3250  -15.3745   18.6953 C   0  0  0  0  0  0  0  0  0  0  0  0
    9.1427  -15.8951   20.1280 C   0  0  0  0  0  0  0  0  0  0  0  0
   10.4100  -16.6423   20.4622 C   0  0  0  0  0  0  0  0  0  0  0  0
   10.3494  -17.2818   21.8525 C   0  0  2  0  0  0  0  0  0  0  0  0
    9.2411  -16.7536   22.6199 N   0  0  0  0  0  0  0  0  0  0  0  0
   11.6025  -16.8549   22.5201 C   0  0  0  0  0  0  0  0  0  0  0  0
   12.1152  -15.7805   22.1368 O   0  0  0  0  0  0  0  0  0  0  0  0
    8.4337  -11.4468   18.6809 C   0  0  0  0  0  0  0  0  0  0  0  0
   13.8018  -17.9361   25.3155 C   0  0  2  0  0  0  0  0  0  0  0  0
   13.5115  -17.1485   24.0334 N   0  0  0  0  0  0  0  0  0  0  0  0
   12.2405  -17.5898   23.5555 C   0  0  0  0  0  0  0  0  0  0  0  0
   14.6135  -17.3493   23.0959 O   0  0  0  0  0  0  0  0  0  0  0  0
   15.8694  -16.8507   23.3751 O   0  0  0  0  0  0  0  0  0  0  0  0
  2 13  1  0
  2  1  1  1
  3  2  1  0
  4  3  1  0
  4  5  2  0
  6  5  1  0
  7 12  2  0
  7  6  1  0
  8  7  1  0
  9 10  1  0
  9  8  2  0
 10 11  2  0
 11 12  1  0
 12  4  1  0
 13 14  2  0
 16 17  2  0
 16 15  1  0
 18 16  1  0
 19 20  1  0
 19 18  1  0
 20 21  1  0
 22 21  1  6
 23 22  1  0
 23 13  1  0
 24 25  2  0
 24 22  1  0
 27 26  1  1
 27 29  1  0
 27 28  1  0
 28 24  1  0
 29 30  1  0
 31 29  2  0
M  END
$$$$
