WCT.pdb
     RDKit          3D

 28 29  0  0  1  0  0  0  0  0999 V2000
   26.5514  -19.4063  -17.4232 N   0  0  0  0  0  0  0  0  0  0  0  0
   26.6575  -18.8927  -16.0451 C   0  0  1  0  0  0  0  0  0  0  0  0
   25.3482  -18.2271  -15.7722 C   0  0  0  0  0  0  0  0  0  0  0  0
   25.1671  -16.9249  -16.4632 C   0  0  0  0  0  0  0  0  0  0  0  0
   24.2079  -16.6570  -17.4490 C   0  0  0  0  0  0  0  0  0  0  0  0
   24.3075  -15.3793  -17.8255 N   0  0  0  0  0  0  0  0  0  0  0  0
   25.3008  -14.7909  -17.1231 C   0  0  0  0  0  0  0  0  0  0  0  0
   25.8272  -13.5297  -17.1056 C   0  0  0  0  0  0  0  0  0  0  0  0
   26.8597  -13.2404  -16.2651 C   0  0  0  0  0  0  0  0  0  0  0  0
   27.4118  -14.1754  -15.4144 C   0  0  0  0  0  0  0  0  0  0  0  0
   26.8871  -15.4476  -15.4261 C   0  0  0  0  0  0  0  0  0  0  0  0
   25.8350  -15.7657  -16.2721 C   0  0  0  0  0  0  0  0  0  0  0  0
   27.0566  -19.9773  -15.1686 C   0  0  0  0  0  0  0  0  0  0  0  0
   26.5452  -21.1261  -15.2341 O   0  0  0  0  0  0  0  0  0  0  0  0
   28.0764  -19.8338  -14.1518 N   0  0  0  0  0  0  0  0  0  0  0  0
   28.0129  -20.5467  -12.9036 C   0  0  1  0  0  0  0  0  0  0  0  0
   29.3129  -20.1580  -12.1576 C   0  0  0  0  0  0  0  0  0  0  0  0
   29.2932  -20.9314  -10.5181 S   0  0  0  0  0  0  0  0  0  0  0  0
   26.8390  -20.2053  -12.0592 C   0  0  0  0  0  0  0  0  0  0  0  0
   26.5609  -18.9874  -11.8795 O   0  0  0  0  0  0  0  0  0  0  0  0
   23.1849  -20.7320  -12.5120 C   0  0  0  0  0  0  0  0  0  0  0  0
   23.5451  -21.3871  -11.2017 C   0  0  1  0  0  0  0  0  0  0  0  0
   23.3978  -22.7782  -11.2325 O   0  0  0  0  0  0  0  0  0  0  0  0
   24.8527  -20.9583  -10.6424 C   0  0  2  0  0  0  0  0  0  0  0  0
   26.0048  -21.1749  -11.4399 N   0  0  0  0  0  0  0  0  0  0  0  0
   25.0029  -21.3422   -9.1931 C   0  0  0  0  0  0  0  0  0  0  0  0
   26.0065  -22.0550   -8.8407 O   0  0  0  0  0  0  0  0  0  0  0  0
   24.1447  -20.9974   -8.1825 O   0  0  0  0  0  0  0  0  0  0  0  0
  2  1  1  6
  3  2  1  0
  3  4  1  0
  4  5  2  0
  5  6  1  0
  7  6  1  0
  8  7  2  0
  9  8  1  0
 10 11  1  0
 10  9  2  0
 11 12  2  0
 12  4  1  0
 12  7  1  0
 13 14  2  0
 13  2  1  0
 15 13  1  0
 16 19  1  0
 16 15  1  0
 16 17  1  1
 18 17  1  0
 19 20  2  0
 22 21  1  6
 22 23  1  0
 24 22  1  0
 25 19  1  0
 24 25  1  6
 26 28  1  0
 26 24  1  0
 27 26  2  0
M  END
$$$$
