WCT.pdb
     RDKit          3D

 28 29  0  0  1  0  0  0  0  0999 V2000
   20.4988  -31.1868    1.5281 N   0  0  0  0  0  0  0  0  0  0  0  0
   20.8024  -30.2814    2.6516 C   0  0  1  0  0  0  0  0  0  0  0  0
   19.4765  -29.7723    3.1150 C   0  0  0  0  0  0  0  0  0  0  0  0
   18.9225  -28.6676    2.2913 C   0  0  0  0  0  0  0  0  0  0  0  0
   17.7602  -28.7419    1.5119 C   0  0  0  0  0  0  0  0  0  0  0  0
   17.5410  -27.5581    0.9333 N   0  0  0  0  0  0  0  0  0  0  0  0
   18.5188  -26.7015    1.3020 C   0  0  0  0  0  0  0  0  0  0  0  0
   18.7887  -25.3934    1.0114 C   0  0  0  0  0  0  0  0  0  0  0  0
   19.8876  -24.7948    1.5500 C   0  0  0  0  0  0  0  0  0  0  0  0
   20.7593  -25.4560    2.3901 C   0  0  0  0  0  0  0  0  0  0  0  0
   20.4943  -26.7732    2.6875 C   0  0  0  0  0  0  0  0  0  0  0  0
   19.3809  -27.4039    2.1524 C   0  0  0  0  0  0  0  0  0  0  0  0
   21.6263  -30.9869    3.6145 C   0  0  0  0  0  0  0  0  0  0  0  0
   21.4328  -32.1934    3.9184 O   0  0  0  0  0  0  0  0  0  0  0  0
   22.7399  -30.3684    4.3014 N   0  0  0  0  0  0  0  0  0  0  0  0
   23.5872  -31.1082    5.1985 C   0  0  1  0  0  0  0  0  0  0  0  0
   25.0145  -30.5712    4.9305 C   0  0  0  0  0  0  0  0  0  0  0  0
   25.4896  -31.0091    3.2367 S   0  0  0  0  0  0  0  0  0  0  0  0
   23.2580  -30.9368    6.6373 C   0  0  0  0  0  0  0  0  0  0  0  0
   23.0095  -29.7751    7.0634 O   0  0  0  0  0  0  0  0  0  0  0  0
   21.2800  -33.9310    8.8553 C   0  0  0  0  0  0  0  0  0  0  0  0
   22.4101  -33.2350    9.5722 C   0  0  1  0  0  0  0  0  0  0  0  0
   23.4777  -34.0920    9.8620 O   0  0  0  0  0  0  0  0  0  0  0  0
   22.8466  -31.9647    8.9382 C   0  0  2  0  0  0  0  0  0  0  0  0
   23.2044  -32.0103    7.5669 N   0  0  0  0  0  0  0  0  0  0  0  0
   23.7948  -31.1893    9.8157 C   0  0  0  0  0  0  0  0  0  0  0  0
   25.0067  -31.0322    9.4332 O   0  0  0  0  0  0  0  0  0  0  0  0
   23.4822  -30.6201   11.0220 O   0  0  0  0  0  0  0  0  0  0  0  0
  2  1  1  6
  3  2  1  0
  3  4  1  0
  4  5  2  0
  5  6  1  0
  7  6  1  0
  8  7  2  0
  9  8  1  0
 10 11  1  0
 10  9  2  0
 11 12  2  0
 12  4  1  0
 12  7  1  0
 13 14  2  0
 13  2  1  0
 15 13  1  0
 16 19  1  0
 16 15  1  0
 16 17  1  1
 18 17  1  0
 19 20  2  0
 22 21  1  6
 22 23  1  0
 24 22  1  0
 25 19  1  0
 24 25  1  6
 26 28  1  0
 26 24  1  0
 27 26  2  0
M  END
$$$$
