WCT.pdb
     RDKit          3D

 28 29  0  0  1  0  0  0  0  0999 V2000
   26.7126  -19.5695  -16.1492 N   0  0  0  0  0  0  0  0  0  0  0  0
   25.9746  -19.9278  -14.9240 C   0  0  1  0  0  0  0  0  0  0  0  0
   26.4493  -18.9660  -13.8841 C   0  0  0  0  0  0  0  0  0  0  0  0
   27.7472  -19.3294  -13.2602 C   0  0  0  0  0  0  0  0  0  0  0  0
   29.0112  -19.0160  -13.7777 C   0  0  0  0  0  0  0  0  0  0  0  0
   29.9529  -19.4662  -12.9442 N   0  0  0  0  0  0  0  0  0  0  0  0
   29.3562  -20.0681  -11.8917 C   0  0  0  0  0  0  0  0  0  0  0  0
   29.8246  -20.6940  -10.7705 C   0  0  0  0  0  0  0  0  0  0  0  0
   28.9446  -21.2203   -9.8735 C   0  0  0  0  0  0  0  0  0  0  0  0
   27.5775  -21.1524  -10.0437 C   0  0  0  0  0  0  0  0  0  0  0  0
   27.0981  -20.5237  -11.1700 C   0  0  0  0  0  0  0  0  0  0  0  0
   27.9743  -19.9789  -12.0970 C   0  0  0  0  0  0  0  0  0  0  0  0
   24.5550  -19.9520  -15.2204 C   0  0  0  0  0  0  0  0  0  0  0  0
   24.0350  -19.2287  -16.1102 O   0  0  0  0  0  0  0  0  0  0  0  0
   23.6196  -20.8102  -14.5252 N   0  0  0  0  0  0  0  0  0  0  0  0
   22.2061  -20.7690  -14.7908 C   0  0  1  0  0  0  0  0  0  0  0  0
   22.0426  -21.4398  -16.1766 C   0  0  0  0  0  0  0  0  0  0  0  0
   20.2735  -21.6437  -16.5163 S   0  0  0  0  0  0  0  0  0  0  0  0
   21.3717  -21.4879  -13.7934 C   0  0  0  0  0  0  0  0  0  0  0  0
   21.6827  -22.6730  -13.4911 O   0  0  0  0  0  0  0  0  0  0  0  0
   20.9230  -20.7929  -10.2203 C   0  0  0  0  0  0  0  0  0  0  0  0
   19.5239  -20.8617  -10.7803 C   0  0  1  0  0  0  0  0  0  0  0  0
   18.8445  -19.6416  -10.6930 O   0  0  0  0  0  0  0  0  0  0  0  0
   19.4346  -21.4757  -12.1298 C   0  0  2  0  0  0  0  0  0  0  0  0
   20.2384  -20.9156  -13.1549 N   0  0  0  0  0  0  0  0  0  0  0  0
   18.0107  -21.7663  -12.5276 C   0  0  0  0  0  0  0  0  0  0  0  0
   17.5423  -21.2315  -13.5926 O   0  0  0  0  0  0  0  0  0  0  0  0
   17.1372  -22.5679  -11.8410 O   0  0  0  0  0  0  0  0  0  0  0  0
  2  1  1  6
  3  2  1  0
  3  4  1  0
  4  5  2  0
  5  6  1  0
  7  6  1  0
  8  7  2  0
  9  8  1  0
 10 11  1  0
 10  9  2  0
 11 12  2  0
 12  4  1  0
 12  7  1  0
 13 14  2  0
 13  2  1  0
 15 13  1  0
 16 19  1  0
 16 15  1  0
 16 17  1  6
 18 17  1  0
 19 20  2  0
 22 21  1  6
 22 23  1  0
 24 22  1  0
 25 19  1  0
 24 25  1  6
 26 28  1  0
 26 24  1  0
 27 26  2  0
M  END
$$$$
