WCT.pdb
     RDKit          3D

 28 29  0  0  1  0  0  0  0  0999 V2000
   27.1605  -21.8749  -10.4062 N   0  0  0  0  0  0  0  0  0  0  0  0
   26.3752  -20.8106   -9.7545 C   0  0  1  0  0  0  0  0  0  0  0  0
   27.3790  -19.7956   -9.3138 C   0  0  0  0  0  0  0  0  0  0  0  0
   28.3453  -20.2897   -8.2999 C   0  0  0  0  0  0  0  0  0  0  0  0
   29.4581  -21.0984   -8.5672 C   0  0  0  0  0  0  0  0  0  0  0  0
   30.1228  -21.3235   -7.4307 N   0  0  0  0  0  0  0  0  0  0  0  0
   29.4882  -20.6919   -6.4186 C   0  0  0  0  0  0  0  0  0  0  0  0
   29.7204  -20.5883   -5.0757 C   0  0  0  0  0  0  0  0  0  0  0  0
   28.8694  -19.8632   -4.2971 C   0  0  0  0  0  0  0  0  0  0  0  0
   27.7628  -19.2159   -4.8062 C   0  0  0  0  0  0  0  0  0  0  0  0
   27.5223  -19.3154   -6.1575 C   0  0  0  0  0  0  0  0  0  0  0  0
   28.3752  -20.0468   -6.9709 C   0  0  0  0  0  0  0  0  0  0  0  0
   25.3309  -20.3743  -10.6616 C   0  0  0  0  0  0  0  0  0  0  0  0
   24.5898  -19.3859  -10.4184 O   0  0  0  0  0  0  0  0  0  0  0  0
   25.0561  -21.0320  -11.9212 N   0  0  0  0  0  0  0  0  0  0  0  0
   24.0283  -20.5676  -12.8146 C   0  0  1  0  0  0  0  0  0  0  0  0
   24.6531  -20.6720  -14.2274 C   0  0  0  0  0  0  0  0  0  0  0  0
   23.3879  -20.2441  -15.4533 S   0  0  0  0  0  0  0  0  0  0  0  0
   22.7718  -21.3595  -12.7713 C   0  0  0  0  0  0  0  0  0  0  0  0
   22.8514  -22.6177  -12.8273 O   0  0  0  0  0  0  0  0  0  0  0  0
   20.0802  -21.4915  -10.0535 C   0  0  0  0  0  0  0  0  0  0  0  0
   19.4048  -21.1583  -11.3606 C   0  0  1  0  0  0  0  0  0  0  0  0
   18.8499  -19.8738  -11.3721 O   0  0  0  0  0  0  0  0  0  0  0  0
   20.2282  -21.4411  -12.5641 C   0  0  2  0  0  0  0  0  0  0  0  0
   21.4783  -20.7801  -12.6682 N   0  0  0  0  0  0  0  0  0  0  0  0
   19.4052  -21.4444  -13.8263 C   0  0  0  0  0  0  0  0  0  0  0  0
   19.6552  -20.5750  -14.7325 O   0  0  0  0  0  0  0  0  0  0  0  0
   18.3812  -22.3092  -14.1099 O   0  0  0  0  0  0  0  0  0  0  0  0
  2  1  1  6
  3  2  1  0
  3  4  1  0
  4  5  2  0
  5  6  1  0
  7  6  1  0
  8  7  2  0
  9  8  1  0
 10 11  1  0
 10  9  2  0
 11 12  2  0
 12  4  1  0
 12  7  1  0
 13 14  2  0
 13  2  1  0
 15 13  1  0
 16 19  1  0
 16 15  1  0
 16 17  1  6
 18 17  1  0
 19 20  2  0
 22 21  1  1
 22 23  1  0
 24 22  1  0
 25 19  1  0
 24 25  1  6
 26 28  1  0
 26 24  1  0
 27 26  2  0
M  END
$$$$
