WCT.pdb
     RDKit          3D

 28 29  0  0  1  0  0  0  0  0999 V2000
   23.6140  -20.8415  -16.2407 N   0  0  0  0  0  0  0  0  0  0  0  0
   24.1294  -20.4543  -14.9146 C   0  0  1  0  0  0  0  0  0  0  0  0
   24.9564  -19.2338  -15.1556 C   0  0  0  0  0  0  0  0  0  0  0  0
   25.9939  -19.3942  -16.2062 C   0  0  0  0  0  0  0  0  0  0  0  0
   26.3104  -18.4426  -17.1850 C   0  0  0  0  0  0  0  0  0  0  0  0
   27.3105  -18.9034  -17.9410 N   0  0  0  0  0  0  0  0  0  0  0  0
   27.6676  -20.1288  -17.4971 C   0  0  0  0  0  0  0  0  0  0  0  0
   28.6064  -21.0405  -17.8917 C   0  0  0  0  0  0  0  0  0  0  0  0
   28.7204  -22.2237  -17.2260 C   0  0  0  0  0  0  0  0  0  0  0  0
   27.9197  -22.5544  -16.1526 C   0  0  0  0  0  0  0  0  0  0  0  0
   26.9722  -21.6416  -15.7492 C   0  0  0  0  0  0  0  0  0  0  0  0
   26.8380  -20.4297  -16.4104 C   0  0  0  0  0  0  0  0  0  0  0  0
   23.0159  -20.3413  -13.9921 C   0  0  0  0  0  0  0  0  0  0  0  0
   23.0183  -19.5410  -13.0200 O   0  0  0  0  0  0  0  0  0  0  0  0
   21.8094  -21.1315  -14.1130 N   0  0  0  0  0  0  0  0  0  0  0  0
   20.6966  -20.9645  -13.2164 C   0  0  1  0  0  0  0  0  0  0  0  0
   20.2163  -19.5105  -13.4459 C   0  0  0  0  0  0  0  0  0  0  0  0
   18.8104  -19.1850  -12.3487 S   0  0  0  0  0  0  0  0  0  0  0  0
   19.5676  -21.9004  -13.4563 C   0  0  0  0  0  0  0  0  0  0  0  0
   19.0193  -21.9029  -14.5929 O   0  0  0  0  0  0  0  0  0  0  0  0
   19.4513  -25.7994  -11.9620 C   0  0  0  0  0  0  0  0  0  0  0  0
   18.1832  -25.0058  -11.7677 C   0  0  1  0  0  0  0  0  0  0  0  0
   17.9146  -24.7341  -10.4216 O   0  0  0  0  0  0  0  0  0  0  0  0
   18.0766  -23.8018  -12.6310 C   0  0  2  0  0  0  0  0  0  0  0  0
   19.0672  -22.7993  -12.4760 N   0  0  0  0  0  0  0  0  0  0  0  0
   16.6625  -23.2886  -12.7165 C   0  0  0  0  0  0  0  0  0  0  0  0
   16.4263  -22.0670  -12.4143 O   0  0  0  0  0  0  0  0  0  0  0  0
   15.5683  -24.0216  -13.0938 O   0  0  0  0  0  0  0  0  0  0  0  0
  2  1  1  6
  3  2  1  0
  3  4  1  0
  4  5  2  0
  5  6  1  0
  7  6  1  0
  8  7  2  0
  9  8  1  0
 10 11  1  0
 10  9  2  0
 11 12  2  0
 12  4  1  0
 12  7  1  0
 13 14  2  0
 13  2  1  0
 15 13  1  0
 16 19  1  0
 16 15  1  0
 16 17  1  6
 18 17  1  0
 19 20  2  0
 22 21  1  1
 22 23  1  0
 24 22  1  0
 25 19  1  0
 24 25  1  1
 26 28  1  0
 26 24  1  0
 27 26  2  0
M  END
$$$$
