WCT.pdb
     RDKit          3D

 28 29  0  0  1  0  0  0  0  0999 V2000
   26.1652  -22.1633  -11.9258 N   0  0  0  0  0  0  0  0  0  0  0  0
   25.5750  -21.2063  -10.9719 C   0  0  1  0  0  0  0  0  0  0  0  0
   26.6207  -20.1591  -10.7682 C   0  0  0  0  0  0  0  0  0  0  0  0
   27.7949  -20.6111   -9.9789 C   0  0  0  0  0  0  0  0  0  0  0  0
   28.9268  -21.2495  -10.5031 C   0  0  0  0  0  0  0  0  0  0  0  0
   29.7973  -21.4834   -9.5174 N   0  0  0  0  0  0  0  0  0  0  0  0
   29.2807  -21.0223   -8.3570 C   0  0  0  0  0  0  0  0  0  0  0  0
   29.7272  -21.0025   -7.0653 C   0  0  0  0  0  0  0  0  0  0  0  0
   28.9485  -20.4565   -6.0898 C   0  0  0  0  0  0  0  0  0  0  0  0
   27.7070  -19.9125   -6.3454 C   0  0  0  0  0  0  0  0  0  0  0  0
   27.2504  -19.9286   -7.6435 C   0  0  0  0  0  0  0  0  0  0  0  0
   28.0257  -20.4777   -8.6540 C   0  0  0  0  0  0  0  0  0  0  0  0
   24.2831  -20.7785  -11.4738 C   0  0  0  0  0  0  0  0  0  0  0  0
   23.5749  -19.9218  -10.8822 O   0  0  0  0  0  0  0  0  0  0  0  0
   23.7027  -21.2936  -12.6954 N   0  0  0  0  0  0  0  0  0  0  0  0
   22.3877  -20.9091  -13.1350 C   0  0  1  0  0  0  0  0  0  0  0  0
   22.5451  -20.6125  -14.6465 C   0  0  0  0  0  0  0  0  0  0  0  0
   20.9681  -19.9820  -15.2803 S   0  0  0  0  0  0  0  0  0  0  0  0
   21.3458  -21.9509  -12.9428 C   0  0  0  0  0  0  0  0  0  0  0  0
   21.6714  -23.1615  -13.0879 O   0  0  0  0  0  0  0  0  0  0  0  0
   19.4699  -22.7095   -9.7783 C   0  0  0  0  0  0  0  0  0  0  0  0
   19.2196  -23.4508  -11.0681 C   0  0  1  0  0  0  0  0  0  0  0  0
   18.2620  -24.4623  -10.9350 O   0  0  0  0  0  0  0  0  0  0  0  0
   18.9711  -22.5726  -12.2400 C   0  0  2  0  0  0  0  0  0  0  0  0
   19.9968  -21.6627  -12.6015 N   0  0  0  0  0  0  0  0  0  0  0  0
   17.5816  -21.9900  -12.2276 C   0  0  0  0  0  0  0  0  0  0  0  0
   16.5978  -22.7383  -11.8933 O   0  0  0  0  0  0  0  0  0  0  0  0
   17.2535  -20.6999  -12.5516 O   0  0  0  0  0  0  0  0  0  0  0  0
  2  1  1  6
  3  2  1  0
  3  4  1  0
  4  5  2  0
  5  6  1  0
  7  6  1  0
  8  7  2  0
  9  8  1  0
 10 11  1  0
 10  9  2  0
 11 12  2  0
 12  4  1  0
 12  7  1  0
 13 14  2  0
 13  2  1  0
 15 13  1  0
 16 19  1  0
 16 15  1  0
 16 17  1  6
 18 17  1  0
 19 20  2  0
 22 21  1  1
 22 23  1  0
 24 22  1  0
 25 19  1  0
 24 25  1  1
 26 28  1  0
 26 24  1  0
 27 26  2  0
M  END
$$$$
