WCT.pdb
     RDKit          3D

 28 29  0  0  1  0  0  0  0  0999 V2000
   26.0468  -19.9131  -11.9828 N   0  0  0  0  0  0  0  0  0  0  0  0
   26.0235  -21.3872  -11.9582 C   0  0  1  0  0  0  0  0  0  0  0  0
   25.5455  -21.7498  -10.5901 C   0  0  0  0  0  0  0  0  0  0  0  0
   26.2287  -21.0230   -9.4897 C   0  0  0  0  0  0  0  0  0  0  0  0
   25.6014  -20.1785   -8.5639 C   0  0  0  0  0  0  0  0  0  0  0  0
   26.5098  -19.7216   -7.6977 N   0  0  0  0  0  0  0  0  0  0  0  0
   27.7184  -20.2338   -8.0182 C   0  0  0  0  0  0  0  0  0  0  0  0
   28.9713  -20.1029   -7.4878 C   0  0  0  0  0  0  0  0  0  0  0  0
   30.0184  -20.7621   -8.0580 C   0  0  0  0  0  0  0  0  0  0  0  0
   29.8747  -21.5708   -9.1662 C   0  0  0  0  0  0  0  0  0  0  0  0
   28.6163  -21.7079   -9.7060 C   0  0  0  0  0  0  0  0  0  0  0  0
   27.5345  -21.0478   -9.1423 C   0  0  0  0  0  0  0  0  0  0  0  0
   25.2509  -21.8641  -13.0893 C   0  0  0  0  0  0  0  0  0  0  0  0
   24.3627  -21.1672  -13.6469 O   0  0  0  0  0  0  0  0  0  0  0  0
   25.4379  -23.1744  -13.6748 N   0  0  0  0  0  0  0  0  0  0  0  0
   24.7357  -23.5856  -14.8614 C   0  0  1  0  0  0  0  0  0  0  0  0
   25.6428  -24.6615  -15.5071 C   0  0  0  0  0  0  0  0  0  0  0  0
   27.1989  -23.8802  -16.0117 S   0  0  0  0  0  0  0  0  0  0  0  0
   23.3892  -24.1617  -14.6108 C   0  0  0  0  0  0  0  0  0  0  0  0
   23.2805  -25.0911  -13.7639 O   0  0  0  0  0  0  0  0  0  0  0  0
   19.9697  -22.1049  -13.8560 C   0  0  0  0  0  0  0  0  0  0  0  0
   19.8305  -23.0752  -15.0027 C   0  0  1  0  0  0  0  0  0  0  0  0
   19.6635  -22.4362  -16.2363 O   0  0  0  0  0  0  0  0  0  0  0  0
   20.8720  -24.1337  -15.0382 C   0  0  2  0  0  0  0  0  0  0  0  0
   22.2094  -23.7242  -15.2711 N   0  0  0  0  0  0  0  0  0  0  0  0
   20.4302  -25.3376  -15.8293 C   0  0  0  0  0  0  0  0  0  0  0  0
   21.0925  -25.6716  -16.8730 O   0  0  0  0  0  0  0  0  0  0  0  0
   19.3549  -26.1345  -15.5373 O   0  0  0  0  0  0  0  0  0  0  0  0
  2  1  1  1
  3  2  1  0
  3  4  1  0
  4  5  2  0
  5  6  1  0
  7  6  1  0
  8  7  2  0
  9  8  1  0
 10 11  1  0
 10  9  2  0
 11 12  2  0
 12  4  1  0
 12  7  1  0
 13 14  2  0
 13  2  1  0
 15 13  1  0
 16 19  1  0
 16 15  1  0
 16 17  1  1
 18 17  1  0
 19 20  2  0
 22 21  1  1
 22 23  1  0
 24 22  1  0
 25 19  1  0
 24 25  1  6
 26 28  1  0
 26 24  1  0
 27 26  2  0
M  END
$$$$
