WCT.pdb
     RDKit          3D

 28 29  0  0  1  0  0  0  0  0999 V2000
   26.6290  -27.0431  -18.5926 N   0  0  0  0  0  0  0  0  0  0  0  0
   27.4243  -26.2885  -17.6066 C   0  0  1  0  0  0  0  0  0  0  0  0
   27.8033  -27.2862  -16.5613 C   0  0  0  0  0  0  0  0  0  0  0  0
   26.8739  -28.4393  -16.4493 C   0  0  0  0  0  0  0  0  0  0  0  0
   27.1943  -29.7706  -16.7472 C   0  0  0  0  0  0  0  0  0  0  0  0
   26.1337  -30.5448  -16.5024 N   0  0  0  0  0  0  0  0  0  0  0  0
   25.1205  -29.7719  -16.0529 C   0  0  0  0  0  0  0  0  0  0  0  0
   23.8357  -30.0296  -15.6644 C   0  0  0  0  0  0  0  0  0  0  0  0
   23.0352  -29.0056  -15.2562 C   0  0  0  0  0  0  0  0  0  0  0  0
   23.4649  -27.6954  -15.2151 C   0  0  0  0  0  0  0  0  0  0  0  0
   24.7573  -27.4278  -15.6046 C   0  0  0  0  0  0  0  0  0  0  0  0
   25.5916  -28.4539  -16.0228 C   0  0  0  0  0  0  0  0  0  0  0  0
   28.4964  -25.5974  -18.2973 C   0  0  0  0  0  0  0  0  0  0  0  0
   28.8415  -25.8840  -19.4738 O   0  0  0  0  0  0  0  0  0  0  0  0
   29.2542  -24.5201  -17.6975 N   0  0  0  0  0  0  0  0  0  0  0  0
   30.3267  -23.8627  -18.3957 C   0  0  1  0  0  0  0  0  0  0  0  0
   30.1172  -22.3543  -18.1160 C   0  0  0  0  0  0  0  0  0  0  0  0
   31.4868  -21.4310  -18.8629 S   0  0  0  0  0  0  0  0  0  0  0  0
   31.6868  -24.2625  -17.9504 C   0  0  0  0  0  0  0  0  0  0  0  0
   31.9342  -24.2786  -16.7130 O   0  0  0  0  0  0  0  0  0  0  0  0
   33.4048  -27.4498  -17.7875 C   0  0  0  0  0  0  0  0  0  0  0  0
   34.2547  -26.5822  -18.6824 C   0  0  1  0  0  0  0  0  0  0  0  0
   34.2268  -26.9921  -20.0200 O   0  0  0  0  0  0  0  0  0  0  0  0
   34.0216  -25.1241  -18.5215 C   0  0  2  0  0  0  0  0  0  0  0  0
   32.7309  -24.6316  -18.8410 N   0  0  0  0  0  0  0  0  0  0  0  0
   35.1649  -24.3041  -19.0606 C   0  0  0  0  0  0  0  0  0  0  0  0
   34.9321  -23.4429  -19.9792 O   0  0  0  0  0  0  0  0  0  0  0  0
   36.4711  -24.3921  -18.6568 O   0  0  0  0  0  0  0  0  0  0  0  0
  2  1  1  6
  3  2  1  0
  3  4  1  0
  4  5  2  0
  5  6  1  0
  7  6  1  0
  8  7  2  0
  9  8  1  0
 10 11  1  0
 10  9  2  0
 11 12  2  0
 12  4  1  0
 12  7  1  0
 13 14  2  0
 13  2  1  0
 15 13  1  0
 16 19  1  0
 16 15  1  0
 16 17  1  1
 18 17  1  0
 19 20  2  0
 22 21  1  1
 22 23  1  0
 24 22  1  0
 25 19  1  0
 24 25  1  6
 26 28  1  0
 26 24  1  0
 27 26  2  0
M  END
$$$$
