WCT.pdb
     RDKit          3D

 28 29  0  0  1  0  0  0  0  0999 V2000
   25.6408  -20.0018  -15.9671 N   0  0  0  0  0  0  0  0  0  0  0  0
   24.3892  -19.4278  -15.4398 C   0  0  1  0  0  0  0  0  0  0  0  0
   23.6104  -19.0105  -16.6444 C   0  0  0  0  0  0  0  0  0  0  0  0
   24.2101  -17.8818  -17.4010 C   0  0  0  0  0  0  0  0  0  0  0  0
   24.9677  -18.0037  -18.5735 C   0  0  0  0  0  0  0  0  0  0  0  0
   25.3186  -16.7875  -19.0002 N   0  0  0  0  0  0  0  0  0  0  0  0
   24.8199  -15.8633  -18.1499 C   0  0  0  0  0  0  0  0  0  0  0  0
   24.8743  -14.4985  -18.0994 C   0  0  0  0  0  0  0  0  0  0  0  0
   24.2576  -13.8352  -17.0817 C   0  0  0  0  0  0  0  0  0  0  0  0
   23.5676  -14.4849  -16.0795 C   0  0  0  0  0  0  0  0  0  0  0  0
   23.5081  -15.8591  -16.1234 C   0  0  0  0  0  0  0  0  0  0  0  0
   24.1271  -16.5564  -17.1502 C   0  0  0  0  0  0  0  0  0  0  0  0
   23.7751  -20.3855  -14.5401 C   0  0  0  0  0  0  0  0  0  0  0  0
   23.5189  -21.5700  -14.8816 O   0  0  0  0  0  0  0  0  0  0  0  0
   23.4109  -20.0643  -13.1767 N   0  0  0  0  0  0  0  0  0  0  0  0
   22.7544  -21.0153  -12.3196 C   0  0  1  0  0  0  0  0  0  0  0  0
   23.1796  -20.6169  -10.8850 C   0  0  0  0  0  0  0  0  0  0  0  0
   24.9439  -20.9808  -10.6817 S   0  0  0  0  0  0  0  0  0  0  0  0
   21.2716  -21.0076  -12.4143 C   0  0  0  0  0  0  0  0  0  0  0  0
   20.6700  -19.9002  -12.3469 O   0  0  0  0  0  0  0  0  0  0  0  0
   17.0642  -23.3784  -13.7606 C   0  0  0  0  0  0  0  0  0  0  0  0
   18.5628  -23.3787  -13.5876 C   0  0  1  0  0  0  0  0  0  0  0  0
   19.2487  -23.4919  -14.8020 O   0  0  0  0  0  0  0  0  0  0  0  0
   19.0803  -22.2788  -12.7338 C   0  0  2  0  0  0  0  0  0  0  0  0
   20.4863  -22.1805  -12.5793 N   0  0  0  0  0  0  0  0  0  0  0  0
   18.2900  -22.1303  -11.4595 C   0  0  0  0  0  0  0  0  0  0  0  0
   18.6396  -22.8066  -10.4300 O   0  0  0  0  0  0  0  0  0  0  0  0
   17.1980  -21.3213  -11.2867 O   0  0  0  0  0  0  0  0  0  0  0  0
  2  1  1  6
  3  2  1  0
  3  4  1  0
  4  5  2  0
  5  6  1  0
  7  6  1  0
  8  7  2  0
  9  8  1  0
 10 11  1  0
 10  9  2  0
 11 12  2  0
 12  4  1  0
 12  7  1  0
 13 14  2  0
 13  2  1  0
 15 13  1  0
 16 19  1  0
 16 15  1  0
 16 17  1  1
 18 17  1  0
 19 20  2  0
 22 21  1  6
 22 23  1  0
 24 22  1  0
 25 19  1  0
 24 25  1  1
 26 28  1  0
 26 24  1  0
 27 26  2  0
M  END
$$$$
