WCT.pdb
     RDKit          3D

 28 29  0  0  1  0  0  0  0  0999 V2000
   24.3314  -19.7184  -10.2105 N   0  0  0  0  0  0  0  0  0  0  0  0
   25.7659  -20.0538  -10.2730 C   0  0  1  0  0  0  0  0  0  0  0  0
   25.9189  -21.2822   -9.4368 C   0  0  0  0  0  0  0  0  0  0  0  0
   25.8075  -21.0460   -7.9747 C   0  0  0  0  0  0  0  0  0  0  0  0
   24.7577  -21.4900   -7.1595 C   0  0  0  0  0  0  0  0  0  0  0  0
   24.9978  -21.1296   -5.8959 N   0  0  0  0  0  0  0  0  0  0  0  0
   26.1710  -20.4608   -5.8457 C   0  0  0  0  0  0  0  0  0  0  0  0
   26.8826  -19.8751   -4.8363 C   0  0  0  0  0  0  0  0  0  0  0  0
   28.0631  -19.2544   -5.1143 C   0  0  0  0  0  0  0  0  0  0  0  0
   28.5863  -19.1856   -6.3887 C   0  0  0  0  0  0  0  0  0  0  0  0
   27.8758  -19.7731   -7.4104 C   0  0  0  0  0  0  0  0  0  0  0  0
   26.6721  -20.4120   -7.1520 C   0  0  0  0  0  0  0  0  0  0  0  0
   26.1702  -20.1318  -11.6637 C   0  0  0  0  0  0  0  0  0  0  0  0
   25.3480  -20.3089  -12.6008 O   0  0  0  0  0  0  0  0  0  0  0  0
   27.5472  -20.0078  -12.0919 N   0  0  0  0  0  0  0  0  0  0  0  0
   27.9018  -19.8355  -13.4756 C   0  0  1  0  0  0  0  0  0  0  0  0
   29.3595  -19.3139  -13.4501 C   0  0  0  0  0  0  0  0  0  0  0  0
   30.3303  -20.3622  -12.3343 S   0  0  0  0  0  0  0  0  0  0  0  0
   27.8372  -21.0789  -14.2866 C   0  0  0  0  0  0  0  0  0  0  0  0
   27.9917  -22.1869  -13.7025 O   0  0  0  0  0  0  0  0  0  0  0  0
   26.0965  -23.7202  -15.0108 C   0  0  0  0  0  0  0  0  0  0  0  0
   26.1809  -23.0147  -16.3416 C   0  0  1  0  0  0  0  0  0  0  0  0
   25.0199  -22.2969  -16.6493 O   0  0  0  0  0  0  0  0  0  0  0  0
   27.4193  -22.2172  -16.5337 C   0  0  2  0  0  0  0  0  0  0  0  0
   27.6085  -21.0941  -15.6891 N   0  0  0  0  0  0  0  0  0  0  0  0
   27.7160  -21.9726  -17.9906 C   0  0  0  0  0  0  0  0  0  0  0  0
   27.9301  -22.9755  -18.7573 O   0  0  0  0  0  0  0  0  0  0  0  0
   27.7855  -20.7458  -18.5965 O   0  0  0  0  0  0  0  0  0  0  0  0
  2  1  1  6
  3  2  1  0
  3  4  1  0
  4  5  2  0
  5  6  1  0
  7  6  1  0
  8  7  2  0
  9  8  1  0
 10 11  1  0
 10  9  2  0
 11 12  2  0
 12  4  1  0
 12  7  1  0
 13 14  2  0
 13  2  1  0
 15 13  1  0
 16 19  1  0
 16 15  1  0
 16 17  1  1
 18 17  1  0
 19 20  2  0
 22 21  1  1
 22 23  1  0
 24 22  1  0
 25 19  1  0
 24 25  1  1
 26 28  1  0
 26 24  1  0
 27 26  2  0
M  END
$$$$
