WCT.pdb
     RDKit          3D

 28 29  0  0  1  0  0  0  0  0999 V2000
   20.4676  -20.2645  -12.8795 N   0  0  0  0  0  0  0  0  0  0  0  0
   21.2959  -20.2760  -14.0993 C   0  0  1  0  0  0  0  0  0  0  0  0
   20.6473  -19.2981  -15.0238 C   0  0  0  0  0  0  0  0  0  0  0  0
   19.4208  -19.8055  -15.6902 C   0  0  0  0  0  0  0  0  0  0  0  0
   18.1070  -19.4864  -15.3217 C   0  0  0  0  0  0  0  0  0  0  0  0
   17.2560  -20.0910  -16.1551 N   0  0  0  0  0  0  0  0  0  0  0  0
   17.9610  -20.8009  -17.0634 C   0  0  0  0  0  0  0  0  0  0  0  0
   17.6121  -21.5955  -18.1193 C   0  0  0  0  0  0  0  0  0  0  0  0
   18.5833  -22.1958  -18.8627 C   0  0  0  0  0  0  0  0  0  0  0  0
   19.9279  -22.0390  -18.5975 C   0  0  0  0  0  0  0  0  0  0  0  0
   20.2872  -21.2403  -17.5360 C   0  0  0  0  0  0  0  0  0  0  0  0
   19.3166  -20.6176  -16.7654 C   0  0  0  0  0  0  0  0  0  0  0  0
   22.6785  -20.0386  -13.7309 C   0  0  0  0  0  0  0  0  0  0  0  0
   23.1831  -18.8856  -13.6952 O   0  0  0  0  0  0  0  0  0  0  0  0
   23.5910  -21.1021  -13.3690 N   0  0  0  0  0  0  0  0  0  0  0  0
   24.9987  -20.8680  -13.1849 C   0  0  1  0  0  0  0  0  0  0  0  0
   25.4075  -21.8017  -12.0193 C   0  0  0  0  0  0  0  0  0  0  0  0
   24.5201  -21.2855  -10.5251 S   0  0  0  0  0  0  0  0  0  0  0  0
   25.8337  -21.1716  -14.3759 C   0  0  0  0  0  0  0  0  0  0  0  0
   25.5393  -22.1795  -15.0760 O   0  0  0  0  0  0  0  0  0  0  0  0
   29.4006  -19.6287  -17.5976 C   0  0  0  0  0  0  0  0  0  0  0  0
   28.5089  -19.3628  -16.4102 C   0  0  1  0  0  0  0  0  0  0  0  0
   27.6799  -18.2506  -16.5931 O   0  0  0  0  0  0  0  0  0  0  0  0
   27.7728  -20.5557  -15.9187 C   0  0  2  0  0  0  0  0  0  0  0  0
   26.9497  -20.3883  -14.7764 N   0  0  0  0  0  0  0  0  0  0  0  0
   28.6381  -21.7890  -15.9019 C   0  0  0  0  0  0  0  0  0  0  0  0
   29.0779  -22.2234  -14.7806 O   0  0  0  0  0  0  0  0  0  0  0  0
   29.0170  -22.5139  -17.0009 O   0  0  0  0  0  0  0  0  0  0  0  0
  2  1  1  1
  3  2  1  0
  3  4  1  0
  4  5  2  0
  5  6  1  0
  7  6  1  0
  8  7  2  0
  9  8  1  0
 10 11  1  0
 10  9  2  0
 11 12  2  0
 12  4  1  0
 12  7  1  0
 13 14  2  0
 13  2  1  0
 15 13  1  0
 16 19  1  0
 16 15  1  0
 16 17  1  1
 18 17  1  0
 19 20  2  0
 22 21  1  6
 22 23  1  0
 24 22  1  0
 25 19  1  0
 24 25  1  1
 26 28  1  0
 26 24  1  0
 27 26  2  0
M  END
$$$$
