WCT.pdb
     RDKit          3D

 28 29  0  0  1  0  0  0  0  0999 V2000
   28.6657  -21.3405  -10.8466 N   0  0  0  0  0  0  0  0  0  0  0  0
   27.3004  -21.1547  -10.3214 C   0  0  1  0  0  0  0  0  0  0  0  0
   27.3946  -19.9953   -9.3841 C   0  0  0  0  0  0  0  0  0  0  0  0
   28.3757  -20.1751   -8.2836 C   0  0  0  0  0  0  0  0  0  0  0  0
   29.7209  -20.5318   -8.4473 C   0  0  0  0  0  0  0  0  0  0  0  0
   30.3153  -20.5710   -7.2517 N   0  0  0  0  0  0  0  0  0  0  0  0
   29.4096  -20.2530   -6.3006 C   0  0  0  0  0  0  0  0  0  0  0  0
   29.4667  -20.1455   -4.9392 C   0  0  0  0  0  0  0  0  0  0  0  0
   28.3479  -19.8029   -4.2413 C   0  0  0  0  0  0  0  0  0  0  0  0
   27.1362  -19.5547   -4.8519 C   0  0  0  0  0  0  0  0  0  0  0  0
   27.0707  -19.6607   -6.2224 C   0  0  0  0  0  0  0  0  0  0  0  0
   28.1966  -20.0068   -6.9547 C   0  0  0  0  0  0  0  0  0  0  0  0
   26.3788  -21.0457  -11.4361 C   0  0  0  0  0  0  0  0  0  0  0  0
   26.5590  -20.2439  -12.3899 O   0  0  0  0  0  0  0  0  0  0  0  0
   25.1809  -21.8501  -11.5493 N   0  0  0  0  0  0  0  0  0  0  0  0
   24.2820  -21.7246  -12.6657 C   0  0  1  0  0  0  0  0  0  0  0  0
   23.8292  -23.1724  -12.9759 C   0  0  0  0  0  0  0  0  0  0  0  0
   22.6523  -23.1286  -14.3541 S   0  0  0  0  0  0  0  0  0  0  0  0
   23.0881  -20.8803  -12.4022 C   0  0  0  0  0  0  0  0  0  0  0  0
   22.5371  -20.9542  -11.2693 O   0  0  0  0  0  0  0  0  0  0  0  0
   21.1759  -18.5291  -15.6492 C   0  0  0  0  0  0  0  0  0  0  0  0
   21.1845  -18.0848  -14.2075 C   0  0  1  0  0  0  0  0  0  0  0  0
   20.1079  -17.2487  -13.8915 O   0  0  0  0  0  0  0  0  0  0  0  0
   21.3645  -19.1874  -13.2286 C   0  0  2  0  0  0  0  0  0  0  0  0
   22.5278  -19.9880  -13.3558 N   0  0  0  0  0  0  0  0  0  0  0  0
   20.0884  -19.9547  -12.9977 C   0  0  0  0  0  0  0  0  0  0  0  0
   19.8702  -21.0159  -13.6802 O   0  0  0  0  0  0  0  0  0  0  0  0
   19.1049  -19.6188  -12.1051 O   0  0  0  0  0  0  0  0  0  0  0  0
  2  1  1  6
  3  2  1  0
  3  4  1  0
  4  5  2  0
  5  6  1  0
  7  6  1  0
  8  7  2  0
  9  8  1  0
 10 11  1  0
 10  9  2  0
 11 12  2  0
 12  4  1  0
 12  7  1  0
 13 14  2  0
 13  2  1  0
 15 13  1  0
 16 19  1  0
 16 15  1  0
 16 17  1  1
 18 17  1  0
 19 20  2  0
 22 21  1  6
 22 23  1  0
 24 22  1  0
 25 19  1  0
 24 25  1  6
 26 28  1  0
 26 24  1  0
 27 26  2  0
M  END
$$$$
