HLH.pdb
     RDKit          3D

 29 30  0  0  1  0  0  0  0  0999 V2000
   20.2632  -12.9863  -16.6901 N   0  0  0  0  0  0  0  0  0  0  0  0
   20.6386  -11.9216  -17.5774 C   0  0  1  0  0  0  0  0  0  0  0  0
   19.4170  -11.4063  -18.3090 C   0  0  0  0  0  0  0  0  0  0  0  0
   18.9234  -12.4452  -19.2750 C   0  0  0  0  0  0  0  0  0  0  0  0
   17.7864  -13.1794  -19.0785 C   0  0  0  0  0  0  0  0  0  0  0  0
   17.6464  -14.0029  -20.1255 N   0  0  0  0  0  0  0  0  0  0  0  0
   18.6722  -13.7895  -20.9587 C   0  0  0  0  0  0  0  0  0  0  0  0
   19.4477  -12.8331  -20.4270 N   0  0  0  0  0  0  0  0  0  0  0  0
   21.1411  -10.7613  -16.7525 C   0  0  0  0  0  0  0  0  0  0  0  0
   20.6883  -10.5821  -15.6069 O   0  0  0  0  0  0  0  0  0  0  0  0
   24.0555   -9.8653  -13.9233 C   0  0  0  0  0  0  0  0  0  0  0  0
   24.6531   -9.9060  -15.3388 C   0  0  2  0  0  0  0  0  0  0  0  0
   26.1050  -10.1000  -15.2833 C   0  0  0  0  0  0  0  0  0  0  0  0
   24.0559   -8.9084  -16.2216 C   0  0  0  0  0  0  0  0  0  0  0  0
   22.6088   -8.7570  -16.4108 C   0  0  2  0  0  0  0  0  0  0  0  0
   22.1124   -9.8796  -17.2576 N   0  0  0  0  0  0  0  0  0  0  0  0
   22.0157   -7.5165  -16.8842 C   0  0  0  0  0  0  0  0  0  0  0  0
   22.1595   -7.1631  -18.1336 O   0  0  0  0  0  0  0  0  0  0  0  0
   21.2615   -6.6197  -16.1271 N   0  0  0  0  0  0  0  0  0  0  0  0
   20.8508   -5.3078  -16.7214 C   0  0  1  0  0  0  0  0  0  0  0  0
   19.4769   -5.0921  -16.1462 C   0  0  0  0  0  0  0  0  0  0  0  0
   18.8727   -3.7879  -16.4170 C   0  0  0  0  0  0  0  0  0  0  0  0
   19.2636   -2.7456  -17.2022 C   0  0  0  0  0  0  0  0  0  0  0  0
   18.2984   -1.7870  -17.1556 N   0  0  0  0  0  0  0  0  0  0  0  0
   17.3248   -2.2296  -16.3554 C   0  0  0  0  0  0  0  0  0  0  0  0
   17.6544   -3.4211  -15.9089 N   0  0  0  0  0  0  0  0  0  0  0  0
   21.8032   -4.3060  -16.2279 C   0  0  0  0  0  0  0  0  0  0  0  0
   22.1042   -3.1150  -16.8644 O   0  0  0  0  0  0  0  0  0  0  0  0
   22.4221   -4.5011  -15.1391 O   0  0  0  0  0  0  0  0  0  0  0  0
  2  1  1  1
  2  9  1  0
  3  2  1  0
  4  3  1  0
  5  4  2  0
  6  5  1  0
  7  6  1  0
  7  8  2  0
  8  4  1  0
  9 16  1  0
  9 10  2  0
 12 11  1  1
 12 13  1  0
 15 14  1  6
 14 12  1  0
 15 17  1  0
 16 15  1  0
 17 18  2  0
 19 20  1  0
 19 17  1  0
 20 27  1  0
 20 21  1  1
 22 21  1  0
 23 22  2  0
 24 23  1  0
 25 24  1  0
 25 26  2  0
 26 22  1  0
 27 28  1  0
 29 27  2  0
M  END
$$$$
