HLH.pdb
     RDKit          3D

 29 30  0  0  1  0  0  0  0  0999 V2000
   23.7912  -26.1290  -13.0891 N   0  0  0  0  0  0  0  0  0  0  0  0
   22.5027  -25.6162  -13.4614 C   0  0  1  0  0  0  0  0  0  0  0  0
   22.4633  -25.3564  -14.9527 C   0  0  0  0  0  0  0  0  0  0  0  0
   23.5191  -24.3553  -15.3254 C   0  0  0  0  0  0  0  0  0  0  0  0
   23.6333  -23.1247  -14.7395 C   0  0  0  0  0  0  0  0  0  0  0  0
   24.6727  -22.4979  -15.3059 N   0  0  0  0  0  0  0  0  0  0  0  0
   25.1976  -23.3171  -16.2254 C   0  0  0  0  0  0  0  0  0  0  0  0
   24.4826  -24.4517  -16.2282 N   0  0  0  0  0  0  0  0  0  0  0  0
   21.4665  -26.6838  -13.2047 C   0  0  0  0  0  0  0  0  0  0  0  0
   20.3466  -26.5926  -13.7408 O   0  0  0  0  0  0  0  0  0  0  0  0
   20.8276  -30.5573  -14.6065 C   0  0  0  0  0  0  0  0  0  0  0  0
   21.8077  -30.6572  -13.4268 C   0  0  2  0  0  0  0  0  0  0  0  0
   22.5172  -31.9398  -13.4492 C   0  0  0  0  0  0  0  0  0  0  0  0
   21.2424  -30.1263  -12.1900 C   0  0  0  0  0  0  0  0  0  0  0  0
   20.6786  -28.7770  -12.0709 C   0  0  2  0  0  0  0  0  0  0  0  0
   21.7459  -27.7795  -12.3698 N   0  0  0  0  0  0  0  0  0  0  0  0
   19.9514  -28.3435  -10.8885 C   0  0  0  0  0  0  0  0  0  0  0  0
   20.5830  -27.7212   -9.9292 O   0  0  0  0  0  0  0  0  0  0  0  0
   18.5867  -28.5101  -10.6506 N   0  0  0  0  0  0  0  0  0  0  0  0
   18.0034  -28.0805   -9.3399 C   0  0  1  0  0  0  0  0  0  0  0  0
   17.8398  -26.5946   -9.5142 C   0  0  0  0  0  0  0  0  0  0  0  0
   18.2890  -25.7703   -8.3925 C   0  0  0  0  0  0  0  0  0  0  0  0
   18.8542  -26.0881   -7.1945 C   0  0  0  0  0  0  0  0  0  0  0  0
   19.1484  -24.9324   -6.5384 N   0  0  0  0  0  0  0  0  0  0  0  0
   18.7726  -23.9155   -7.3185 C   0  0  0  0  0  0  0  0  0  0  0  0
   18.2591  -24.4010   -8.4267 N   0  0  0  0  0  0  0  0  0  0  0  0
   16.7047  -28.7532   -9.2169 C   0  0  0  0  0  0  0  0  0  0  0  0
   16.1486  -29.5868  -10.1710 O   0  0  0  0  0  0  0  0  0  0  0  0
   16.0016  -28.5896   -8.1752 O   0  0  0  0  0  0  0  0  0  0  0  0
  2  1  1  6
  2  9  1  0
  3  2  1  0
  4  3  1  0
  5  4  2  0
  6  5  1  0
  7  6  1  0
  7  8  2  0
  8  4  1  0
  9 16  1  0
  9 10  2  0
 12 11  1  6
 12 13  1  0
 15 14  1  1
 14 12  1  0
 15 17  1  0
 16 15  1  0
 17 18  2  0
 19 20  1  0
 19 17  1  0
 20 27  1  0
 20 21  1  6
 22 21  1  0
 23 22  2  0
 24 23  1  0
 25 24  1  0
 25 26  2  0
 26 22  1  0
 27 28  1  0
 29 27  2  0
M  END
$$$$
