HLH.pdb
     RDKit          3D

 29 30  0  0  1  0  0  0  0  0999 V2000
   27.3667  -33.4203  -14.9191 N   0  0  0  0  0  0  0  0  0  0  0  0
   26.0888  -32.9355  -14.4790 C   0  0  1  0  0  0  0  0  0  0  0  0
   25.0052  -33.4078  -15.4255 C   0  0  0  0  0  0  0  0  0  0  0  0
   25.1288  -32.6940  -16.7412 C   0  0  0  0  0  0  0  0  0  0  0  0
   25.4082  -33.3276  -17.9206 C   0  0  0  0  0  0  0  0  0  0  0  0
   25.4445  -32.3983  -18.8844 N   0  0  0  0  0  0  0  0  0  0  0  0
   25.1935  -31.2098  -18.3217 C   0  0  0  0  0  0  0  0  0  0  0  0
   25.0018  -31.4037  -17.0086 N   0  0  0  0  0  0  0  0  0  0  0  0
   25.7686  -33.5642  -13.1442 C   0  0  0  0  0  0  0  0  0  0  0  0
   26.2913  -34.6516  -12.8376 O   0  0  0  0  0  0  0  0  0  0  0  0
   25.5262  -31.6333   -7.6051 C   0  0  0  0  0  0  0  0  0  0  0  0
   25.1146  -32.8549   -8.4421 C   0  0  2  0  0  0  0  0  0  0  0  0
   25.7233  -34.0774   -7.9095 C   0  0  0  0  0  0  0  0  0  0  0  0
   25.1146  -32.5711   -9.8742 C   0  0  0  0  0  0  0  0  0  0  0  0
   24.6703  -33.5318  -10.8902 C   0  0  2  0  0  0  0  0  0  0  0  0
   24.8892  -32.9412  -12.2418 N   0  0  0  0  0  0  0  0  0  0  0  0
   23.3505  -34.1414  -10.8544 C   0  0  0  0  0  0  0  0  0  0  0  0
   22.3027  -33.4428  -11.2016 O   0  0  0  0  0  0  0  0  0  0  0  0
   23.0567  -35.4549  -10.4872 N   0  0  0  0  0  0  0  0  0  0  0  0
   21.6301  -35.9049  -10.4160 C   0  0  1  0  0  0  0  0  0  0  0  0
   21.5091  -36.8308  -11.5963 C   0  0  0  0  0  0  0  0  0  0  0  0
   20.2639  -37.5936  -11.6800 C   0  0  0  0  0  0  0  0  0  0  0  0
   19.0933  -37.5097  -10.9885 C   0  0  0  0  0  0  0  0  0  0  0  0
   18.2205  -38.4146  -11.5100 N   0  0  0  0  0  0  0  0  0  0  0  0
   18.8406  -39.0476  -12.5094 C   0  0  0  0  0  0  0  0  0  0  0  0
   20.0590  -38.5676  -12.6216 N   0  0  0  0  0  0  0  0  0  0  0  0
   21.4802  -36.6287   -9.1479 C   0  0  0  0  0  0  0  0  0  0  0  0
   20.3323  -37.2836   -8.7383 O   0  0  0  0  0  0  0  0  0  0  0  0
   22.4486  -36.6870   -8.3324 O   0  0  0  0  0  0  0  0  0  0  0  0
  2  1  1  6
  2  9  1  0
  3  2  1  0
  4  3  1  0
  5  4  2  0
  6  5  1  0
  7  6  1  0
  7  8  2  0
  8  4  1  0
  9 16  1  0
  9 10  2  0
 12 11  1  1
 12 13  1  0
 15 14  1  1
 14 12  1  0
 15 17  1  0
 16 15  1  0
 17 18  2  0
 19 20  1  0
 19 17  1  0
 20 27  1  0
 20 21  1  6
 22 21  1  0
 23 22  2  0
 24 23  1  0
 25 24  1  0
 25 26  2  0
 26 22  1  0
 27 28  1  0
 29 27  2  0
M  END
$$$$
