HLH.pdb
     RDKit          3D

 29 30  0  0  1  0  0  0  0  0999 V2000
   19.2862  -15.8057  -16.0585 N   0  0  0  0  0  0  0  0  0  0  0  0
   19.2639  -14.6329  -16.8866 C   0  0  1  0  0  0  0  0  0  0  0  0
   17.8422  -14.1319  -17.0313 C   0  0  0  0  0  0  0  0  0  0  0  0
   17.0291  -15.1207  -17.8168 C   0  0  0  0  0  0  0  0  0  0  0  0
   17.0868  -15.2334  -19.1786 C   0  0  0  0  0  0  0  0  0  0  0  0
   16.2404  -16.2050  -19.5439 N   0  0  0  0  0  0  0  0  0  0  0  0
   15.6655  -16.6898  -18.4364 C   0  0  0  0  0  0  0  0  0  0  0  0
   16.1566  -16.0178  -17.3848 N   0  0  0  0  0  0  0  0  0  0  0  0
   20.0163  -13.5304  -16.1812 C   0  0  0  0  0  0  0  0  0  0  0  0
   19.6683  -13.1858  -15.0366 O   0  0  0  0  0  0  0  0  0  0  0  0
   23.7141  -12.9425  -13.9035 C   0  0  0  0  0  0  0  0  0  0  0  0
   23.9868  -13.0632  -15.4113 C   0  0  2  0  0  0  0  0  0  0  0  0
   25.4009  -13.3579  -15.6607 C   0  0  0  0  0  0  0  0  0  0  0  0
   23.2766  -12.0497  -16.1859 C   0  0  0  0  0  0  0  0  0  0  0  0
   21.8342  -11.8067  -16.0720 C   0  0  2  0  0  0  0  0  0  0  0  0
   21.1038  -12.8863  -16.7962 N   0  0  0  0  0  0  0  0  0  0  0  0
   21.2356  -10.5263  -16.4141 C   0  0  0  0  0  0  0  0  0  0  0  0
   21.0429  -10.2136  -17.6678 O   0  0  0  0  0  0  0  0  0  0  0  0
   20.8086   -9.5476  -15.5162 N   0  0  0  0  0  0  0  0  0  0  0  0
   20.2368   -8.2638  -16.0334 C   0  0  1  0  0  0  0  0  0  0  0  0
   19.0238   -8.0609  -15.1659 C   0  0  0  0  0  0  0  0  0  0  0  0
   18.3181   -6.7927  -15.3475 C   0  0  0  0  0  0  0  0  0  0  0  0
   18.4788   -5.7781  -16.2421 C   0  0  0  0  0  0  0  0  0  0  0  0
   17.5070   -4.8514  -16.0197 N   0  0  0  0  0  0  0  0  0  0  0  0
   16.7557   -5.2863  -15.0047 C   0  0  0  0  0  0  0  0  0  0  0  0
   17.2280   -6.4424  -14.5950 N   0  0  0  0  0  0  0  0  0  0  0  0
   21.2476   -7.2267  -15.7946 C   0  0  0  0  0  0  0  0  0  0  0  0
   21.3183   -6.0176  -16.4635 O   0  0  0  0  0  0  0  0  0  0  0  0
   22.1453   -7.4056  -14.9179 O   0  0  0  0  0  0  0  0  0  0  0  0
  2  1  1  1
  2  9  1  0
  3  2  1  0
  4  3  1  0
  5  4  2  0
  6  5  1  0
  7  6  1  0
  7  8  2  0
  8  4  1  0
  9 16  1  0
  9 10  2  0
 12 11  1  1
 12 13  1  0
 15 14  1  6
 14 12  1  0
 15 17  1  0
 16 15  1  0
 17 18  2  0
 19 20  1  0
 19 17  1  0
 20 27  1  0
 20 21  1  1
 22 21  1  0
 23 22  2  0
 24 23  1  0
 25 24  1  0
 25 26  2  0
 26 22  1  0
 27 28  1  0
 29 27  2  0
M  END
$$$$
