HLH.pdb
     RDKit          3D

 29 30  0  0  1  0  0  0  0  0999 V2000
   27.6790  -21.3895  -16.4175 N   0  0  0  0  0  0  0  0  0  0  0  0
   27.0661  -20.2166  -15.8603 C   0  0  1  0  0  0  0  0  0  0  0  0
   26.4847  -19.3638  -16.9684 C   0  0  0  0  0  0  0  0  0  0  0  0
   27.5572  -18.4955  -17.5615 C   0  0  0  0  0  0  0  0  0  0  0  0
   28.5621  -18.9736  -18.3566 C   0  0  0  0  0  0  0  0  0  0  0  0
   29.3335  -17.9364  -18.7074 N   0  0  0  0  0  0  0  0  0  0  0  0
   28.8235  -16.8338  -18.1449 C   0  0  0  0  0  0  0  0  0  0  0  0
   27.7357  -17.1889  -17.4455 N   0  0  0  0  0  0  0  0  0  0  0  0
   25.8914  -20.6429  -15.0131 C   0  0  0  0  0  0  0  0  0  0  0  0
   25.1895  -21.6042  -15.3777 O   0  0  0  0  0  0  0  0  0  0  0  0
   25.8547  -22.2535  -10.9016 C   0  0  0  0  0  0  0  0  0  0  0  0
   25.8372  -20.7210  -10.7864 C   0  0  2  0  0  0  0  0  0  0  0  0
   26.1098  -20.3013   -9.4087 C   0  0  0  0  0  0  0  0  0  0  0  0
   24.7560  -20.1192  -11.5612 C   0  0  0  0  0  0  0  0  0  0  0  0
   24.4674  -20.4693  -12.9564 C   0  0  2  0  0  0  0  0  0  0  0  0
   25.5773  -19.9714  -13.8189 N   0  0  0  0  0  0  0  0  0  0  0  0
   23.2000  -20.1423  -13.5902 C   0  0  0  0  0  0  0  0  0  0  0  0
   23.0109  -18.9489  -14.0869 O   0  0  0  0  0  0  0  0  0  0  0  0
   22.1112  -20.9996  -13.7510 N   0  0  0  0  0  0  0  0  0  0  0  0
   20.8499  -20.4891  -14.3765 C   0  0  1  0  0  0  0  0  0  0  0  0
   20.6833  -21.3815  -15.5769 C   0  0  0  0  0  0  0  0  0  0  0  0
   19.4855  -21.1454  -16.3824 C   0  0  0  0  0  0  0  0  0  0  0  0
   18.4539  -20.2659  -16.2488 C   0  0  0  0  0  0  0  0  0  0  0  0
   17.6239  -20.4119  -17.3177 N   0  0  0  0  0  0  0  0  0  0  0  0
   18.1345  -21.3655  -18.1012 C   0  0  0  0  0  0  0  0  0  0  0  0
   19.2442  -21.8108  -17.5555 N   0  0  0  0  0  0  0  0  0  0  0  0
   19.7783  -20.7018  -13.3962 C   0  0  0  0  0  0  0  0  0  0  0  0
   18.6724  -19.8854  -13.2389 O   0  0  0  0  0  0  0  0  0  0  0  0
   19.8244  -21.6960  -12.6115 O   0  0  0  0  0  0  0  0  0  0  0  0
  2  1  1  6
  2  9  1  0
  3  2  1  0
  4  3  1  0
  5  4  2  0
  6  5  1  0
  7  6  1  0
  7  8  2  0
  8  4  1  0
  9 16  1  0
  9 10  2  0
 12 11  1  1
 12 13  1  0
 15 14  1  1
 14 12  1  0
 15 17  1  0
 16 15  1  0
 17 18  2  0
 19 20  1  0
 19 17  1  0
 20 27  1  0
 20 21  1  6
 22 21  1  0
 23 22  2  0
 24 23  1  0
 25 24  1  0
 25 26  2  0
 26 22  1  0
 27 28  1  0
 29 27  2  0
M  END
$$$$
