HLH.pdb
     RDKit          3D

 29 30  0  0  1  0  0  0  0  0999 V2000
   20.2469  -13.3990  -16.8504 N   0  0  0  0  0  0  0  0  0  0  0  0
   20.6568  -12.3277  -17.7142 C   0  0  1  0  0  0  0  0  0  0  0  0
   19.4852  -11.8685  -18.5566 C   0  0  0  0  0  0  0  0  0  0  0  0
   19.1118  -12.9401  -19.5405 C   0  0  0  0  0  0  0  0  0  0  0  0
   18.0059  -13.7341  -19.4088 C   0  0  0  0  0  0  0  0  0  0  0  0
   17.9784  -14.5719  -20.4533 N   0  0  0  0  0  0  0  0  0  0  0  0
   19.0425  -14.3089  -21.2218 C   0  0  0  0  0  0  0  0  0  0  0  0
   19.7292  -13.3075  -20.6524 N   0  0  0  0  0  0  0  0  0  0  0  0
   21.0383  -11.1409  -16.8625 C   0  0  0  0  0  0  0  0  0  0  0  0
   20.3584  -10.8641  -15.8571 O   0  0  0  0  0  0  0  0  0  0  0  0
   24.0360  -10.3814  -13.7881 C   0  0  0  0  0  0  0  0  0  0  0  0
   24.6340  -10.3503  -15.2036 C   0  0  2  0  0  0  0  0  0  0  0  0
   26.0903  -10.5107  -15.1550 C   0  0  0  0  0  0  0  0  0  0  0  0
   24.0123   -9.3328  -16.0458 C   0  0  0  0  0  0  0  0  0  0  0  0
   22.5654   -9.2418  -16.2715 C   0  0  2  0  0  0  0  0  0  0  0  0
   22.1491  -10.3430  -17.1868 N   0  0  0  0  0  0  0  0  0  0  0  0
   21.9252   -8.0090  -16.7017 C   0  0  0  0  0  0  0  0  0  0  0  0
   22.0511   -7.6091  -17.9390 O   0  0  0  0  0  0  0  0  0  0  0  0
   21.1412   -7.1663  -15.9132 N   0  0  0  0  0  0  0  0  0  0  0  0
   20.4829   -5.9713  -16.5306 C   0  0  1  0  0  0  0  0  0  0  0  0
   19.2754   -5.7622  -15.6570 C   0  0  0  0  0  0  0  0  0  0  0  0
   18.5138   -4.5391  -15.9083 C   0  0  0  0  0  0  0  0  0  0  0  0
   18.6287   -3.5710  -16.8598 C   0  0  0  0  0  0  0  0  0  0  0  0
   17.6166   -2.6772  -16.6875 N   0  0  0  0  0  0  0  0  0  0  0  0
   16.8861   -3.0864  -15.6469 C   0  0  0  0  0  0  0  0  0  0  0  0
   17.4097   -4.1951  -15.1736 N   0  0  0  0  0  0  0  0  0  0  0  0
   21.4326   -4.8586  -16.4096 C   0  0  0  0  0  0  0  0  0  0  0  0
   21.5159   -3.7874  -17.2812 O   0  0  0  0  0  0  0  0  0  0  0  0
   22.2595   -4.8319  -15.4495 O   0  0  0  0  0  0  0  0  0  0  0  0
  2  1  1  1
  2  9  1  0
  3  2  1  0
  4  3  1  0
  5  4  2  0
  6  5  1  0
  7  6  1  0
  7  8  2  0
  8  4  1  0
  9 16  1  0
  9 10  2  0
 12 11  1  1
 12 13  1  0
 15 14  1  6
 14 12  1  0
 15 17  1  0
 16 15  1  0
 17 18  2  0
 19 20  1  0
 19 17  1  0
 20 27  1  0
 20 21  1  1
 22 21  1  0
 23 22  2  0
 24 23  1  0
 25 24  1  0
 25 26  2  0
 26 22  1  0
 27 28  1  0
 29 27  2  0
M  END
$$$$
