HLH.pdb
     RDKit          3D

 29 30  0  0  1  0  0  0  0  0999 V2000
   23.5655  -33.8024  -14.7724 N   0  0  0  0  0  0  0  0  0  0  0  0
   22.2164  -33.7197  -14.2874 C   0  0  1  0  0  0  0  0  0  0  0  0
   21.5306  -35.0609  -14.4425 C   0  0  0  0  0  0  0  0  0  0  0  0
   21.3038  -35.3540  -15.8980 C   0  0  0  0  0  0  0  0  0  0  0  0
   20.3595  -34.7201  -16.6577 C   0  0  0  0  0  0  0  0  0  0  0  0
   20.4302  -35.2207  -17.8979 N   0  0  0  0  0  0  0  0  0  0  0  0
   21.3965  -36.1470  -17.9149 C   0  0  0  0  0  0  0  0  0  0  0  0
   21.9244  -36.2197  -16.6841 N   0  0  0  0  0  0  0  0  0  0  0  0
   22.2538  -33.4486  -12.8027 C   0  0  0  0  0  0  0  0  0  0  0  0
   22.9987  -34.1293  -12.0738 O   0  0  0  0  0  0  0  0  0  0  0  0
   23.3915  -29.7048  -10.3289 C   0  0  0  0  0  0  0  0  0  0  0  0
   21.9534  -29.5758  -10.8557 C   0  0  2  0  0  0  0  0  0  0  0  0
   21.4415  -28.2194  -10.6392 C   0  0  0  0  0  0  0  0  0  0  0  0
   21.1422  -30.7494  -10.5459 C   0  0  0  0  0  0  0  0  0  0  0  0
   21.5898  -32.1274  -10.7775 C   0  0  2  0  0  0  0  0  0  0  0  0
   21.4604  -32.4395  -12.2299 N   0  0  0  0  0  0  0  0  0  0  0  0
   21.0717  -33.2488  -10.0103 C   0  0  0  0  0  0  0  0  0  0  0  0
   19.9976  -33.8722  -10.4155 O   0  0  0  0  0  0  0  0  0  0  0  0
   21.6212  -33.7734   -8.8401 N   0  0  0  0  0  0  0  0  0  0  0  0
   20.9629  -34.9385   -8.1678 C   0  0  1  0  0  0  0  0  0  0  0  0
   21.7404  -36.1150   -8.6937 C   0  0  0  0  0  0  0  0  0  0  0  0
   21.3674  -37.4188   -8.1457 C   0  0  0  0  0  0  0  0  0  0  0  0
   20.4180  -37.7924   -7.2431 C   0  0  0  0  0  0  0  0  0  0  0  0
   20.4401  -39.1489   -7.1330 N   0  0  0  0  0  0  0  0  0  0  0  0
   21.3871  -39.6077   -7.9556 C   0  0  0  0  0  0  0  0  0  0  0  0
   21.9472  -38.5870   -8.5655 N   0  0  0  0  0  0  0  0  0  0  0  0
   21.1666  -34.7617   -6.7250 C   0  0  0  0  0  0  0  0  0  0  0  0
   20.5235  -35.4866   -5.7374 O   0  0  0  0  0  0  0  0  0  0  0  0
   21.9845  -33.8909   -6.3017 O   0  0  0  0  0  0  0  0  0  0  0  0
  2  1  1  1
  2  9  1  0
  3  2  1  0
  4  3  1  0
  5  4  2  0
  6  5  1  0
  7  6  1  0
  7  8  2  0
  8  4  1  0
  9 16  1  0
  9 10  2  0
 12 11  1  1
 12 13  1  0
 15 14  1  6
 14 12  1  0
 15 17  1  0
 16 15  1  0
 17 18  2  0
 19 20  1  0
 19 17  1  0
 20 27  1  0
 20 21  1  6
 22 21  1  0
 23 22  2  0
 24 23  1  0
 25 24  1  0
 25 26  2  0
 26 22  1  0
 27 28  1  0
 29 27  2  0
M  END
$$$$
