HLH.pdb
     RDKit          3D

 29 30  0  0  1  0  0  0  0  0999 V2000
   27.9198  -19.5789  -14.5537 N   0  0  0  0  0  0  0  0  0  0  0  0
   26.7888  -20.1110  -15.2605 C   0  0  1  0  0  0  0  0  0  0  0  0
   27.2574  -21.0733  -16.3317 C   0  0  0  0  0  0  0  0  0  0  0  0
   28.0646  -20.3373  -17.3626 C   0  0  0  0  0  0  0  0  0  0  0  0
   28.3579  -19.0039  -17.2812 C   0  0  0  0  0  0  0  0  0  0  0  0
   29.0868  -18.6800  -18.3571 N   0  0  0  0  0  0  0  0  0  0  0  0
   29.2466  -19.7851  -19.0955 C   0  0  0  0  0  0  0  0  0  0  0  0
   28.6160  -20.7938  -18.4762 N   0  0  0  0  0  0  0  0  0  0  0  0
   25.9656  -20.9363  -14.3010 C   0  0  0  0  0  0  0  0  0  0  0  0
   25.1577  -21.7714  -14.7479 O   0  0  0  0  0  0  0  0  0  0  0  0
   27.0687  -20.9850   -8.6670 C   0  0  0  0  0  0  0  0  0  0  0  0
   26.1043  -20.5453   -9.7800 C   0  0  2  0  0  0  0  0  0  0  0  0
   25.0684  -19.6556   -9.2471 C   0  0  0  0  0  0  0  0  0  0  0  0
   25.7694  -21.6389  -10.6874 C   0  0  0  0  0  0  0  0  0  0  0  0
   25.1280  -21.4413  -11.9921 C   0  0  2  0  0  0  0  0  0  0  0  0
   26.0966  -20.7768  -12.9107 N   0  0  0  0  0  0  0  0  0  0  0  0
   23.8339  -20.7922  -12.1280 C   0  0  0  0  0  0  0  0  0  0  0  0
   23.7662  -19.4907  -12.2176 O   0  0  0  0  0  0  0  0  0  0  0  0
   22.5934  -21.4275  -12.1906 N   0  0  0  0  0  0  0  0  0  0  0  0
   21.4301  -20.7252  -12.8200 C   0  0  1  0  0  0  0  0  0  0  0  0
   21.6783  -20.9139  -14.2923 C   0  0  0  0  0  0  0  0  0  0  0  0
   20.6312  -20.4129  -15.1822 C   0  0  0  0  0  0  0  0  0  0  0  0
   19.4611  -19.7594  -14.9385 C   0  0  0  0  0  0  0  0  0  0  0  0
   18.8832  -19.4537  -16.1324 N   0  0  0  0  0  0  0  0  0  0  0  0
   19.6836  -19.9095  -17.0996 C   0  0  0  0  0  0  0  0  0  0  0  0
   20.7291  -20.4830  -16.5470 N   0  0  0  0  0  0  0  0  0  0  0  0
   20.2228  -21.4368  -12.3833 C   0  0  0  0  0  0  0  0  0  0  0  0
   20.2080  -22.6899  -11.7969 O   0  0  0  0  0  0  0  0  0  0  0  0
   19.0829  -20.9034  -12.5329 O   0  0  0  0  0  0  0  0  0  0  0  0
  2  1  1  1
  2  9  1  0
  3  2  1  0
  4  3  1  0
  5  4  2  0
  6  5  1  0
  7  6  1  0
  7  8  2  0
  8  4  1  0
  9 16  1  0
  9 10  2  0
 12 11  1  1
 12 13  1  0
 15 14  1  1
 14 12  1  0
 15 17  1  0
 16 15  1  0
 17 18  2  0
 19 20  1  0
 19 17  1  0
 20 27  1  0
 20 21  1  6
 22 21  1  0
 23 22  2  0
 24 23  1  0
 25 24  1  0
 25 26  2  0
 26 22  1  0
 27 28  1  0
 29 27  2  0
M  END
$$$$
