HLH.pdb
     RDKit          3D

 29 30  0  0  1  0  0  0  0  0999 V2000
   13.5469  -13.4641  -13.5873 N   0  0  0  0  0  0  0  0  0  0  0  0
   13.8574  -13.3958  -12.1871 C   0  0  1  0  0  0  0  0  0  0  0  0
   14.3223  -11.9995  -11.8304 C   0  0  0  0  0  0  0  0  0  0  0  0
   15.6546  -11.7258  -12.4676 C   0  0  0  0  0  0  0  0  0  0  0  0
   16.7402  -12.5463  -12.3300 C   0  0  0  0  0  0  0  0  0  0  0  0
   17.7507  -12.0059  -13.0233 N   0  0  0  0  0  0  0  0  0  0  0  0
   17.3083  -10.8728  -13.5824 C   0  0  0  0  0  0  0  0  0  0  0  0
   16.0230  -10.7119  -13.2349 N   0  0  0  0  0  0  0  0  0  0  0  0
   12.5879  -13.6176  -11.4005 C   0  0  0  0  0  0  0  0  0  0  0  0
   11.5567  -12.9938  -11.7124 O   0  0  0  0  0  0  0  0  0  0  0  0
   10.3764  -18.2513   -8.1158 C   0  0  0  0  0  0  0  0  0  0  0  0
   10.0712  -16.8146   -8.5685 C   0  0  2  0  0  0  0  0  0  0  0  0
    8.6976  -16.7093   -9.0693 C   0  0  0  0  0  0  0  0  0  0  0  0
   11.1882  -16.2116   -9.2898 C   0  0  0  0  0  0  0  0  0  0  0  0
   11.2633  -14.7838   -9.6192 C   0  0  2  0  0  0  0  0  0  0  0  0
   12.5516  -14.5173  -10.3212 N   0  0  0  0  0  0  0  0  0  0  0  0
   11.0511  -13.7471   -8.6217 C   0  0  0  0  0  0  0  0  0  0  0  0
   12.0157  -13.4290   -7.8002 O   0  0  0  0  0  0  0  0  0  0  0  0
    9.8845  -13.0046   -8.4371 N   0  0  0  0  0  0  0  0  0  0  0  0
    9.7903  -12.0411   -7.2945 C   0  0  1  0  0  0  0  0  0  0  0  0
    9.3999  -10.7540   -7.9697 C   0  0  0  0  0  0  0  0  0  0  0  0
   10.4917  -10.0082   -8.5949 C   0  0  0  0  0  0  0  0  0  0  0  0
   11.8276  -10.2560   -8.6941 C   0  0  0  0  0  0  0  0  0  0  0  0
   12.3924   -9.2714   -9.4453 N   0  0  0  0  0  0  0  0  0  0  0  0
   11.4214   -8.4285   -9.8065 C   0  0  0  0  0  0  0  0  0  0  0  0
   10.2836   -8.8561   -9.3066 N   0  0  0  0  0  0  0  0  0  0  0  0
    8.7217  -12.5329   -6.4166 C   0  0  0  0  0  0  0  0  0  0  0  0
    8.4690  -12.0705   -5.1373 O   0  0  0  0  0  0  0  0  0  0  0  0
    7.9441  -13.4505   -6.8164 O   0  0  0  0  0  0  0  0  0  0  0  0
  2  1  1  6
  2  9  1  0
  3  2  1  0
  4  3  1  0
  5  4  2  0
  6  5  1  0
  7  6  1  0
  7  8  2  0
  8  4  1  0
  9 16  1  0
  9 10  2  0
 12 11  1  6
 12 13  1  0
 15 14  1  1
 14 12  1  0
 15 17  1  0
 16 15  1  0
 17 18  2  0
 19 20  1  0
 19 17  1  0
 20 27  1  0
 20 21  1  6
 22 21  1  0
 23 22  2  0
 24 23  1  0
 25 24  1  0
 25 26  2  0
 26 22  1  0
 27 28  1  0
 29 27  2  0
M  END
$$$$
