HLH.pdb
     RDKit          3D

 29 30  0  0  1  0  0  0  0  0999 V2000
   20.4759  -13.0816  -19.3271 N   0  0  0  0  0  0  0  0  0  0  0  0
   19.6408  -12.0861  -18.7162 C   0  0  1  0  0  0  0  0  0  0  0  0
   19.5834  -12.3100  -17.2196 C   0  0  0  0  0  0  0  0  0  0  0  0
   18.9389  -13.6343  -16.9251 C   0  0  0  0  0  0  0  0  0  0  0  0
   18.3073  -14.3937  -17.8711 C   0  0  0  0  0  0  0  0  0  0  0  0
   17.8528  -15.5005  -17.2691 N   0  0  0  0  0  0  0  0  0  0  0  0
   18.1919  -15.4359  -15.9757 C   0  0  0  0  0  0  0  0  0  0  0  0
   18.8568  -14.2883  -15.7770 N   0  0  0  0  0  0  0  0  0  0  0  0
   20.2868  -10.7344  -18.9030 C   0  0  0  0  0  0  0  0  0  0  0  0
   21.5283  -10.6430  -18.9028 O   0  0  0  0  0  0  0  0  0  0  0  0
   19.3168   -5.7313  -22.0428 C   0  0  0  0  0  0  0  0  0  0  0  0
   20.1447   -6.2789  -20.8694 C   0  0  2  0  0  0  0  0  0  0  0  0
   21.5757   -6.0551  -21.0954 C   0  0  0  0  0  0  0  0  0  0  0  0
   19.6459   -7.5651  -20.3917 C   0  0  0  0  0  0  0  0  0  0  0  0
   20.1724   -8.2476  -19.2043 C   0  0  2  0  0  0  0  0  0  0  0  0
   19.5086   -9.5768  -19.0772 N   0  0  0  0  0  0  0  0  0  0  0  0
   20.2024   -7.6129  -17.8963 C   0  0  0  0  0  0  0  0  0  0  0  0
   19.2417   -7.8417  -17.0411 O   0  0  0  0  0  0  0  0  0  0  0  0
   21.1927   -6.7552  -17.4166 N   0  0  0  0  0  0  0  0  0  0  0  0
   21.0826   -6.1938  -16.0326 C   0  0  1  0  0  0  0  0  0  0  0  0
   22.2205   -6.8597  -15.3068 C   0  0  0  0  0  0  0  0  0  0  0  0
   22.0075   -8.2596  -14.9404 C   0  0  0  0  0  0  0  0  0  0  0  0
   20.9995   -9.1330  -15.2175 C   0  0  0  0  0  0  0  0  0  0  0  0
   21.3254  -10.3457  -14.6923 N   0  0  0  0  0  0  0  0  0  0  0  0
   22.5169  -10.2252  -14.1008 C   0  0  0  0  0  0  0  0  0  0  0  0
   22.9348   -8.9870  -14.2416 N   0  0  0  0  0  0  0  0  0  0  0  0
   21.2931   -4.7458  -16.1481 C   0  0  0  0  0  0  0  0  0  0  0  0
   21.1520   -3.8378  -15.1137 O   0  0  0  0  0  0  0  0  0  0  0  0
   21.6316   -4.2406  -17.2601 O   0  0  0  0  0  0  0  0  0  0  0  0
  2  1  1  6
  2  9  1  0
  3  2  1  0
  4  3  1  0
  5  4  2  0
  6  5  1  0
  7  6  1  0
  7  8  2  0
  8  4  1  0
  9 16  1  0
  9 10  2  0
 12 11  1  6
 12 13  1  0
 15 14  1  6
 14 12  1  0
 15 17  1  0
 16 15  1  0
 17 18  2  0
 19 20  1  0
 19 17  1  0
 20 27  1  0
 20 21  1  1
 22 21  1  0
 23 22  2  0
 24 23  1  0
 25 24  1  0
 25 26  2  0
 26 22  1  0
 27 28  1  0
 29 27  2  0
M  END
$$$$
