HLH.pdb
     RDKit          3D

 29 30  0  0  1  0  0  0  0  0999 V2000
   20.8573  -13.1304  -19.3768 N   0  0  0  0  0  0  0  0  0  0  0  0
   21.4668  -11.8524  -19.6159 C   0  0  1  0  0  0  0  0  0  0  0  0
   20.4256  -10.8698  -20.1092 C   0  0  0  0  0  0  0  0  0  0  0  0
   19.9433  -11.2770  -21.4721 C   0  0  0  0  0  0  0  0  0  0  0  0
   18.6809  -11.7420  -21.7186 C   0  0  0  0  0  0  0  0  0  0  0  0
   18.5925  -12.0080  -23.0283 N   0  0  0  0  0  0  0  0  0  0  0  0
   19.7725  -11.7163  -23.5894 C   0  0  0  0  0  0  0  0  0  0  0  0
   20.5917  -11.2695  -22.6262 N   0  0  0  0  0  0  0  0  0  0  0  0
   21.9598  -11.2999  -18.3003 C   0  0  0  0  0  0  0  0  0  0  0  0
   21.2723  -11.4549  -17.2740 O   0  0  0  0  0  0  0  0  0  0  0  0
   27.0624  -10.9428  -15.3175 C   0  0  0  0  0  0  0  0  0  0  0  0
   25.6721  -10.2885  -15.3521 C   0  0  2  0  0  0  0  0  0  0  0  0
   25.0551  -10.3111  -14.0226 C   0  0  0  0  0  0  0  0  0  0  0  0
   24.9150  -10.6581  -16.5444 C   0  0  0  0  0  0  0  0  0  0  0  0
   23.6302  -10.0504  -16.9087 C   0  0  2  0  0  0  0  0  0  0  0  0
   23.1831  -10.6128  -18.2153 N   0  0  0  0  0  0  0  0  0  0  0  0
   23.4331   -8.6097  -16.9277 C   0  0  0  0  0  0  0  0  0  0  0  0
   24.0286   -7.8845  -17.8365 O   0  0  0  0  0  0  0  0  0  0  0  0
   22.6320   -7.8738  -16.0540 N   0  0  0  0  0  0  0  0  0  0  0  0
   22.6265   -6.3783  -16.1327 C   0  0  1  0  0  0  0  0  0  0  0  0
   21.2523   -6.0735  -16.6656 C   0  0  0  0  0  0  0  0  0  0  0  0
   20.8953   -4.6565  -16.7277 C   0  0  0  0  0  0  0  0  0  0  0  0
   21.6168   -3.5223  -16.5072 C   0  0  0  0  0  0  0  0  0  0  0  0
   20.8215   -2.4494  -16.7698 N   0  0  0  0  0  0  0  0  0  0  0  0
   19.6271   -2.9121  -17.1484 C   0  0  0  0  0  0  0  0  0  0  0  0
   19.6576   -4.2259  -17.1279 N   0  0  0  0  0  0  0  0  0  0  0  0
   22.7923   -5.8844  -14.7605 C   0  0  0  0  0  0  0  0  0  0  0  0
   23.2650   -4.6295  -14.4199 O   0  0  0  0  0  0  0  0  0  0  0  0
   22.4925   -6.6272  -13.7782 O   0  0  0  0  0  0  0  0  0  0  0  0
  2  1  1  1
  2  9  1  0
  3  2  1  0
  4  3  1  0
  5  4  2  0
  6  5  1  0
  7  6  1  0
  7  8  2  0
  8  4  1  0
  9 16  1  0
  9 10  2  0
 12 11  1  1
 12 13  1  0
 15 14  1  6
 14 12  1  0
 15 17  1  0
 16 15  1  0
 17 18  2  0
 19 20  1  0
 19 17  1  0
 20 27  1  0
 20 21  1  1
 22 21  1  0
 23 22  2  0
 24 23  1  0
 25 24  1  0
 25 26  2  0
 26 22  1  0
 27 28  1  0
 29 27  2  0
M  END
$$$$
