WQY.pdb
     RDKit          3D

 36 38  0  0  1  0  0  0  0  0999 V2000
    9.0329  -17.5265   20.6010 N   0  0  0  0  0  0  0  0  0  0  0  0
    9.0554  -16.8203   21.8714 C   0  0  1  0  0  0  0  0  0  0  0  0
    7.6703  -16.2938   22.1238 C   0  0  0  0  0  0  0  0  0  0  0  0
    7.2114  -15.3517   21.0966 C   0  0  0  0  0  0  0  0  0  0  0  0
    6.3591  -15.6434   20.0566 C   0  0  0  0  0  0  0  0  0  0  0  0
    6.1715  -14.5210   19.3249 N   0  0  0  0  0  0  0  0  0  0  0  0
    6.8792  -13.4895   19.8541 C   0  0  0  0  0  0  0  0  0  0  0  0
    7.0180  -12.1720   19.4864 C   0  0  0  0  0  0  0  0  0  0  0  0
    7.8257  -11.3585   20.2453 C   0  0  0  0  0  0  0  0  0  0  0  0
    8.4744  -11.8911   21.3564 C   0  0  0  0  0  0  0  0  0  0  0  0
    8.3322  -13.2132   21.7215 C   0  0  0  0  0  0  0  0  0  0  0  0
    7.5262  -14.0216   20.9625 C   0  0  0  0  0  0  0  0  0  0  0  0
    9.5932  -17.6336   22.9609 C   0  0  0  0  0  0  0  0  0  0  0  0
    8.9548  -18.6311   23.3734 O   0  0  0  0  0  0  0  0  0  0  0  0
   13.8543  -20.2179   23.0515 N   0  0  0  0  0  0  0  0  0  0  0  0
   14.0855  -18.8320   22.8318 C   0  0  0  0  0  0  0  0  0  0  0  0
   14.8974  -18.5348   21.9084 O   0  0  0  0  0  0  0  0  0  0  0  0
   13.3969  -17.7998   23.6572 C   0  0  0  0  0  0  0  0  0  0  0  0
   12.5888  -18.5252   24.7030 C   0  0  0  0  0  0  0  0  0  0  0  0
   11.2085  -17.9329   24.8678 C   0  0  2  0  0  0  0  0  0  0  0  0
   10.8325  -17.3555   23.6017 N   0  0  0  0  0  0  0  0  0  0  0  0
   11.2728  -16.9280   25.9625 C   0  0  0  0  0  0  0  0  0  0  0  0
   11.9093  -15.8572   25.9050 O   0  0  0  0  0  0  0  0  0  0  0  0
    7.0047  -12.4663   24.7545 O   0  0  0  0  0  0  0  0  0  0  0  0
    7.5485  -13.3105   25.7157 C   0  0  0  0  0  0  0  0  0  0  0  0
    8.4787  -12.8450   26.6335 C   0  0  0  0  0  0  0  0  0  0  0  0
    9.0192  -13.6754   27.5851 C   0  0  0  0  0  0  0  0  0  0  0  0
    8.6610  -15.0151   27.6726 C   0  0  0  0  0  0  0  0  0  0  0  0
    9.2548  -15.8898   28.6869 C   0  0  0  0  0  0  0  0  0  0  0  0
   10.6492  -16.3636   28.3293 C   0  0  2  0  0  0  0  0  0  0  0  0
   10.5552  -17.2189   27.1513 N   0  0  0  0  0  0  0  0  0  0  0  0
   11.2387  -17.1444   29.4288 C   0  0  0  0  0  0  0  0  0  0  0  0
   11.5787  -16.5693   30.6379 O   0  0  0  0  0  0  0  0  0  0  0  0
    7.7347  -15.4627   26.7530 C   0  0  0  0  0  0  0  0  0  0  0  0
    7.1914  -14.6385   25.8003 C   0  0  0  0  0  0  0  0  0  0  0  0
   11.4476  -18.3683   29.2834 O   0  0  0  0  0  0  0  0  0  0  0  0
  2  3  1  0
  2  1  1  6
  4 12  1  0
  4  3  1  0
  5  4  2  0
  6  5  1  0
  6  7  1  0
  7  8  1  0
  7 12  2  0
  8  9  2  0
  9 10  1  0
 11 10  2  0
 12 11  1  0
 13  2  1  0
 14 13  2  0
 16 18  1  0
 16 15  1  0
 17 16  2  0
 20 19  1  6
 19 18  1  0
 20 21  1  0
 21 13  1  0
 22 20  1  0
 22 31  1  0
 23 22  2  0
 25 24  1  0
 25 26  2  0
 27 26  1  0
 28 27  2  0
 29 28  1  0
 30 31  1  0
 30 29  1  1
 32 30  1  0
 32 33  1  0
 34 35  2  0
 34 28  1  0
 35 25  1  0
 36 32  2  0
M  END
$$$$
