WQY.pdb
     RDKit          3D

 36 38  0  0  1  0  0  0  0  0999 V2000
    6.6892  -17.5923   24.6133 N   0  0  0  0  0  0  0  0  0  0  0  0
    7.6857  -16.6754   24.0847 C   0  0  1  0  0  0  0  0  0  0  0  0
    8.2223  -15.8731   25.2370 C   0  0  0  0  0  0  0  0  0  0  0  0
    7.2222  -14.9860   25.8422 C   0  0  0  0  0  0  0  0  0  0  0  0
    6.0688  -15.3846   26.4776 C   0  0  0  0  0  0  0  0  0  0  0  0
    5.4073  -14.2832   26.9017 N   0  0  0  0  0  0  0  0  0  0  0  0
    6.0940  -13.1614   26.5629 C   0  0  0  0  0  0  0  0  0  0  0  0
    5.8466  -11.8239   26.7636 C   0  0  0  0  0  0  0  0  0  0  0  0
    6.7562  -10.9081   26.2901 C   0  0  0  0  0  0  0  0  0  0  0  0
    7.8931  -11.3609   25.6257 C   0  0  0  0  0  0  0  0  0  0  0  0
    8.1371  -12.7035   25.4267 C   0  0  0  0  0  0  0  0  0  0  0  0
    7.2281  -13.6139   25.9001 C   0  0  0  0  0  0  0  0  0  0  0  0
    8.7150  -17.3519   23.2969 C   0  0  0  0  0  0  0  0  0  0  0  0
    9.1090  -18.4953   23.6291 O   0  0  0  0  0  0  0  0  0  0  0  0
   12.1015  -17.6955   18.0489 N   0  0  0  0  0  0  0  0  0  0  0  0
   12.5212  -17.5630   19.4012 C   0  0  0  0  0  0  0  0  0  0  0  0
   12.9850  -18.6028   19.9525 O   0  0  0  0  0  0  0  0  0  0  0  0
   12.4122  -16.2585   20.1134 C   0  0  0  0  0  0  0  0  0  0  0  0
   10.9853  -16.1178   20.5794 C   0  0  0  0  0  0  0  0  0  0  0  0
   10.7224  -16.8929   21.8495 C   0  0  2  0  0  0  0  0  0  0  0  0
    9.3159  -16.7767   22.1428 N   0  0  0  0  0  0  0  0  0  0  0  0
   11.5828  -16.3193   22.9185 C   0  0  0  0  0  0  0  0  0  0  0  0
   11.6527  -15.1057   23.1970 O   0  0  0  0  0  0  0  0  0  0  0  0
    9.5978  -13.9166   28.7833 O   0  0  0  0  0  0  0  0  0  0  0  0
   10.4903  -14.7187   28.0816 C   0  0  0  0  0  0  0  0  0  0  0  0
   10.1412  -16.0018   27.6864 C   0  0  0  0  0  0  0  0  0  0  0  0
   11.0198  -16.7985   26.9931 C   0  0  0  0  0  0  0  0  0  0  0  0
   12.2940  -16.3584   26.6566 C   0  0  0  0  0  0  0  0  0  0  0  0
   13.2227  -17.2246   25.9259 C   0  0  0  0  0  0  0  0  0  0  0  0
   13.4788  -16.7663   24.5042 C   0  0  2  0  0  0  0  0  0  0  0  0
   12.3755  -17.2262   23.6680 N   0  0  0  0  0  0  0  0  0  0  0  0
   14.7308  -17.3385   23.9835 C   0  0  0  0  0  0  0  0  0  0  0  0
   15.9648  -17.0023   24.5056 O   0  0  0  0  0  0  0  0  0  0  0  0
   12.6260  -15.0800   27.0565 C   0  0  0  0  0  0  0  0  0  0  0  0
   11.7531  -14.2797   27.7491 C   0  0  0  0  0  0  0  0  0  0  0  0
   14.6982  -18.1556   23.0380 O   0  0  0  0  0  0  0  0  0  0  0  0
  2  3  1  0
  2  1  1  1
  4 12  1  0
  4  3  1  0
  5  4  2  0
  6  5  1  0
  6  7  1  0
  7  8  1  0
  7 12  2  0
  8  9  2  0
  9 10  1  0
 11 10  2  0
 12 11  1  0
 13  2  1  0
 14 13  2  0
 16 18  1  0
 16 15  1  0
 17 16  2  0
 20 19  1  6
 19 18  1  0
 20 21  1  0
 21 13  1  0
 22 20  1  0
 22 31  1  0
 23 22  2  0
 25 24  1  0
 25 26  2  0
 27 26  1  0
 28 27  2  0
 29 28  1  0
 30 31  1  0
 30 29  1  1
 32 30  1  0
 32 33  1  0
 34 35  2  0
 34 28  1  0
 35 25  1  0
 36 32  2  0
M  END
$$$$
