WQY.pdb
     RDKit          3D

 36 38  0  0  1  0  0  0  0  0999 V2000
    5.8743  -17.0804   23.7369 N   0  0  0  0  0  0  0  0  0  0  0  0
    7.1794  -16.4588   23.5833 C   0  0  1  0  0  0  0  0  0  0  0  0
    7.6333  -16.0119   24.9448 C   0  0  0  0  0  0  0  0  0  0  0  0
    6.7972  -14.9497   25.5157 C   0  0  0  0  0  0  0  0  0  0  0  0
    5.6470  -15.1335   26.2479 C   0  0  0  0  0  0  0  0  0  0  0  0
    5.1613  -13.9207   26.5999 N   0  0  0  0  0  0  0  0  0  0  0  0
    5.9619  -12.9347   26.1187 C   0  0  0  0  0  0  0  0  0  0  0  0
    5.9015  -11.5637   26.2037 C   0  0  0  0  0  0  0  0  0  0  0  0
    6.8873  -10.8226   25.5961 C   0  0  0  0  0  0  0  0  0  0  0  0
    7.9104  -11.4796   24.9175 C   0  0  0  0  0  0  0  0  0  0  0  0
    7.9670  -12.8549   24.8349 C   0  0  0  0  0  0  0  0  0  0  0  0
    6.9824  -13.5909   25.4417 C   0  0  0  0  0  0  0  0  0  0  0  0
    8.1360  -17.3173   22.8865 C   0  0  0  0  0  0  0  0  0  0  0  0
    7.7255  -18.2479   22.1528 O   0  0  0  0  0  0  0  0  0  0  0  0
    8.0029  -13.2073   20.0864 N   0  0  0  0  0  0  0  0  0  0  0  0
    8.3164  -14.5299   19.6682 C   0  0  0  0  0  0  0  0  0  0  0  0
    7.4325  -15.1328   18.9935 O   0  0  0  0  0  0  0  0  0  0  0  0
    9.6238  -15.1544   20.0171 C   0  0  0  0  0  0  0  0  0  0  0  0
    9.6699  -15.2942   21.5176 C   0  0  0  0  0  0  0  0  0  0  0  0
   10.3502  -16.5724   21.9495 C   0  0  2  0  0  0  0  0  0  0  0  0
    9.5458  -17.1584   22.9923 N   0  0  0  0  0  0  0  0  0  0  0  0
   11.7221  -16.2250   22.4070 C   0  0  0  0  0  0  0  0  0  0  0  0
   12.5840  -15.6649   21.7009 O   0  0  0  0  0  0  0  0  0  0  0  0
    8.5447  -15.1404   28.3346 O   0  0  0  0  0  0  0  0  0  0  0  0
    9.7261  -15.4988   27.6957 C   0  0  0  0  0  0  0  0  0  0  0  0
   10.6654  -16.3020   28.3257 C   0  0  0  0  0  0  0  0  0  0  0  0
   11.8345  -16.6587   27.6986 C   0  0  0  0  0  0  0  0  0  0  0  0
   12.1298  -16.2335   26.4091 C   0  0  0  0  0  0  0  0  0  0  0  0
   13.3861  -16.6143   25.7585 C   0  0  0  0  0  0  0  0  0  0  0  0
   13.4030  -16.3264   24.2707 C   0  0  2  0  0  0  0  0  0  0  0  0
   12.0630  -16.5590   23.7430 N   0  0  0  0  0  0  0  0  0  0  0  0
   14.3424  -17.2182   23.5720 C   0  0  0  0  0  0  0  0  0  0  0  0
   13.9154  -18.1715   22.6679 O   0  0  0  0  0  0  0  0  0  0  0  0
   11.1855  -15.4355   25.7960 C   0  0  0  0  0  0  0  0  0  0  0  0
   10.0162  -15.0759   26.4170 C   0  0  0  0  0  0  0  0  0  0  0  0
   15.5699  -17.1271   23.7906 O   0  0  0  0  0  0  0  0  0  0  0  0
  2  3  1  0
  2  1  1  1
  4 12  1  0
  4  3  1  0
  5  4  2  0
  6  5  1  0
  6  7  1  0
  7  8  1  0
  7 12  2  0
  8  9  2  0
  9 10  1  0
 11 10  2  0
 12 11  1  0
 13  2  1  0
 14 13  2  0
 16 18  1  0
 16 15  1  0
 17 16  2  0
 20 19  1  1
 19 18  1  0
 20 21  1  0
 21 13  1  0
 22 20  1  0
 22 31  1  0
 23 22  2  0
 25 24  1  0
 25 26  2  0
 27 26  1  0
 28 27  2  0
 29 28  1  0
 30 31  1  0
 30 29  1  1
 32 30  1  0
 32 33  1  0
 34 35  2  0
 34 28  1  0
 35 25  1  0
 36 32  2  0
M  END
$$$$
