WQY.pdb
     RDKit          3D

 36 38  0  0  1  0  0  0  0  0999 V2000
    7.1620  -17.1528   24.6053 N   0  0  0  0  0  0  0  0  0  0  0  0
    7.7823  -16.4111   23.5198 C   0  0  1  0  0  0  0  0  0  0  0  0
    8.1750  -15.0630   24.0563 C   0  0  0  0  0  0  0  0  0  0  0  0
    7.1244  -14.4305   24.8621 C   0  0  0  0  0  0  0  0  0  0  0  0
    6.0415  -15.0689   25.4214 C   0  0  0  0  0  0  0  0  0  0  0  0
    5.3000  -14.1554   26.0894 N   0  0  0  0  0  0  0  0  0  0  0  0
    5.8646  -12.9243   25.9873 C   0  0  0  0  0  0  0  0  0  0  0  0
    5.5035  -11.6924   26.4794 C   0  0  0  0  0  0  0  0  0  0  0  0
    6.3029  -10.6103   26.1960 C   0  0  0  0  0  0  0  0  0  0  0  0
    7.4469  -10.7947   25.4238 C   0  0  0  0  0  0  0  0  0  0  0  0
    7.8052  -12.0323   24.9323 C   0  0  0  0  0  0  0  0  0  0  0  0
    7.0058  -13.1090   25.2168 C   0  0  0  0  0  0  0  0  0  0  0  0
    8.8775  -17.1447   22.8872 C   0  0  0  0  0  0  0  0  0  0  0  0
    9.2059  -18.2760   23.3175 O   0  0  0  0  0  0  0  0  0  0  0  0
   11.6569  -17.8981   17.9386 N   0  0  0  0  0  0  0  0  0  0  0  0
   12.7554  -17.1321   18.4171 C   0  0  0  0  0  0  0  0  0  0  0  0
   13.6688  -16.8726   17.5814 O   0  0  0  0  0  0  0  0  0  0  0  0
   12.8082  -16.6691   19.8326 C   0  0  0  0  0  0  0  0  0  0  0  0
   11.4020  -16.3115   20.2421 C   0  0  0  0  0  0  0  0  0  0  0  0
   10.9701  -17.0418   21.4924 C   0  0  2  0  0  0  0  0  0  0  0  0
    9.6163  -16.6399   21.7812 N   0  0  0  0  0  0  0  0  0  0  0  0
   11.9210  -16.6846   22.5788 C   0  0  0  0  0  0  0  0  0  0  0  0
   12.5847  -15.6298   22.6212 O   0  0  0  0  0  0  0  0  0  0  0  0
   11.4400  -15.4968   31.1564 O   0  0  0  0  0  0  0  0  0  0  0  0
   11.3404  -15.9338   29.8406 C   0  0  0  0  0  0  0  0  0  0  0  0
   11.1104  -15.0399   28.8050 C   0  0  0  0  0  0  0  0  0  0  0  0
   11.0109  -15.4669   27.5030 C   0  0  0  0  0  0  0  0  0  0  0  0
   11.1354  -16.8085   27.1637 C   0  0  0  0  0  0  0  0  0  0  0  0
   11.0161  -17.2486   25.7713 C   0  0  0  0  0  0  0  0  0  0  0  0
   12.3234  -17.1843   25.0073 C   0  0  2  0  0  0  0  0  0  0  0  0
   12.0755  -17.6174   23.6365 N   0  0  0  0  0  0  0  0  0  0  0  0
   13.3282  -18.0776   25.6059 C   0  0  0  0  0  0  0  0  0  0  0  0
   13.2376  -19.4528   25.5110 O   0  0  0  0  0  0  0  0  0  0  0  0
   11.3642  -17.6849   28.2048 C   0  0  0  0  0  0  0  0  0  0  0  0
   11.4645  -17.2648   29.5069 C   0  0  0  0  0  0  0  0  0  0  0  0
   14.3016  -17.5965   26.2253 O   0  0  0  0  0  0  0  0  0  0  0  0
  2  3  1  0
  2  1  1  1
  4 12  1  0
  4  3  1  0
  5  4  2  0
  6  5  1  0
  6  7  1  0
  7  8  1  0
  7 12  2  0
  8  9  2  0
  9 10  1  0
 11 10  2  0
 12 11  1  0
 13  2  1  0
 14 13  2  0
 16 18  1  0
 16 15  1  0
 17 16  2  0
 20 19  1  6
 19 18  1  0
 20 21  1  0
 21 13  1  0
 22 20  1  0
 22 31  1  0
 23 22  2  0
 25 24  1  0
 25 26  2  0
 27 26  1  0
 28 27  2  0
 29 28  1  0
 30 31  1  0
 30 29  1  1
 32 30  1  0
 32 33  1  0
 34 35  2  0
 34 28  1  0
 35 25  1  0
 36 32  2  0
M  END
$$$$
