WQY.pdb
     RDKit          3D

 36 38  0  0  1  0  0  0  0  0999 V2000
    8.1253  -16.0253   23.4794 N   0  0  0  0  0  0  0  0  0  0  0  0
    9.2122  -15.5409   24.3144 C   0  0  1  0  0  0  0  0  0  0  0  0
    8.7198  -15.5192   25.7345 C   0  0  0  0  0  0  0  0  0  0  0  0
    7.5014  -14.7215   25.9142 C   0  0  0  0  0  0  0  0  0  0  0  0
    6.2103  -15.1861   25.8139 C   0  0  0  0  0  0  0  0  0  0  0  0
    5.3625  -14.1573   26.0451 N   0  0  0  0  0  0  0  0  0  0  0  0
    6.0599  -13.0193   26.2968 C   0  0  0  0  0  0  0  0  0  0  0  0
    5.6679  -11.7334   26.5848 C   0  0  0  0  0  0  0  0  0  0  0  0
    6.6373  -10.7813   26.7950 C   0  0  0  0  0  0  0  0  0  0  0  0
    7.9782  -11.1469   26.7102 C   0  0  0  0  0  0  0  0  0  0  0  0
    8.3667  -12.4381   26.4211 C   0  0  0  0  0  0  0  0  0  0  0  0
    7.3977  -13.3849   26.2120 C   0  0  0  0  0  0  0  0  0  0  0  0
   10.4509  -16.2936   24.1229 C   0  0  0  0  0  0  0  0  0  0  0  0
   11.1623  -16.5934   25.1114 O   0  0  0  0  0  0  0  0  0  0  0  0
   11.9985  -20.5373   25.9015 N   0  0  0  0  0  0  0  0  0  0  0  0
   11.1335  -20.1780   24.8313 C   0  0  0  0  0  0  0  0  0  0  0  0
   10.4103  -21.1007   24.3563 O   0  0  0  0  0  0  0  0  0  0  0  0
   11.0962  -18.7817   24.3117 C   0  0  0  0  0  0  0  0  0  0  0  0
   12.2430  -18.6304   23.3448 C   0  0  0  0  0  0  0  0  0  0  0  0
   12.2185  -17.2955   22.6373 C   0  0  2  0  0  0  0  0  0  0  0  0
   10.9138  -16.7197   22.8469 N   0  0  0  0  0  0  0  0  0  0  0  0
   12.5172  -17.5370   21.2004 C   0  0  0  0  0  0  0  0  0  0  0  0
   13.2974  -18.4124   20.7762 O   0  0  0  0  0  0  0  0  0  0  0  0
    6.1871  -14.1637   19.2274 O   0  0  0  0  0  0  0  0  0  0  0  0
    7.5406  -14.1920   19.5428 C   0  0  0  0  0  0  0  0  0  0  0  0
    8.4357  -14.9374   18.7894 C   0  0  0  0  0  0  0  0  0  0  0  0
    9.7742  -14.9689   19.0972 C   0  0  0  0  0  0  0  0  0  0  0  0
   10.2921  -14.2586   20.1733 C   0  0  0  0  0  0  0  0  0  0  0  0
   11.7206  -14.3113   20.4944 C   0  0  0  0  0  0  0  0  0  0  0  0
   12.4490  -15.4485   19.8066 C   0  0  2  0  0  0  0  0  0  0  0  0
   11.8624  -16.7068   20.2546 N   0  0  0  0  0  0  0  0  0  0  0  0
   13.8783  -15.4475   20.1573 C   0  0  0  0  0  0  0  0  0  0  0  0
   14.3128  -15.4894   21.4680 O   0  0  0  0  0  0  0  0  0  0  0  0
    9.3892  -13.5221   20.9127 C   0  0  0  0  0  0  0  0  0  0  0  0
    8.0515  -13.4866   20.6104 C   0  0  0  0  0  0  0  0  0  0  0  0
   14.7427  -15.4064   19.2552 O   0  0  0  0  0  0  0  0  0  0  0  0
  2  3  1  0
  2  1  1  6
  4 12  1  0
  4  3  1  0
  5  4  2  0
  6  5  1  0
  6  7  1  0
  7  8  1  0
  7 12  2  0
  8  9  2  0
  9 10  1  0
 11 10  2  0
 12 11  1  0
 13  2  1  0
 14 13  2  0
 16 18  1  0
 16 15  1  0
 17 16  2  0
 20 19  1  1
 19 18  1  0
 20 21  1  0
 21 13  1  0
 22 20  1  0
 22 31  1  0
 23 22  2  0
 25 24  1  0
 25 26  2  0
 27 26  1  0
 28 27  2  0
 29 28  1  0
 30 31  1  0
 30 29  1  1
 32 30  1  0
 32 33  1  0
 34 35  2  0
 34 28  1  0
 35 25  1  0
 36 32  2  0
M  END
$$$$
