WQY.pdb
     RDKit          3D

 36 38  0  0  1  0  0  0  0  0999 V2000
    6.3923  -17.2170   22.8836 N   0  0  0  0  0  0  0  0  0  0  0  0
    7.4885  -16.2639   22.8288 C   0  0  1  0  0  0  0  0  0  0  0  0
    7.8380  -15.8909   24.2424 C   0  0  0  0  0  0  0  0  0  0  0  0
    6.8442  -15.0157   24.8744 C   0  0  0  0  0  0  0  0  0  0  0  0
    5.7009  -15.4268   25.5200 C   0  0  0  0  0  0  0  0  0  0  0  0
    5.0424  -14.3336   25.9693 N   0  0  0  0  0  0  0  0  0  0  0  0
    5.7212  -13.2050   25.6373 C   0  0  0  0  0  0  0  0  0  0  0  0
    5.4730  -11.8714   25.8609 C   0  0  0  0  0  0  0  0  0  0  0  0
    6.3733  -10.9461   25.3880 C   0  0  0  0  0  0  0  0  0  0  0  0
    7.5020  -11.3858   24.7013 C   0  0  0  0  0  0  0  0  0  0  0  0
    7.7468  -12.7247   24.4794 C   0  0  0  0  0  0  0  0  0  0  0  0
    6.8471  -13.6446   24.9522 C   0  0  0  0  0  0  0  0  0  0  0  0
    8.6209  -16.7494   22.0415 C   0  0  0  0  0  0  0  0  0  0  0  0
    8.7564  -17.9779   21.8286 O   0  0  0  0  0  0  0  0  0  0  0  0
   12.5964  -16.3864   18.0381 N   0  0  0  0  0  0  0  0  0  0  0  0
   13.3352  -16.4683   19.2505 C   0  0  0  0  0  0  0  0  0  0  0  0
   14.1542  -17.4274   19.3483 O   0  0  0  0  0  0  0  0  0  0  0  0
   13.1400  -15.4665   20.3363 C   0  0  0  0  0  0  0  0  0  0  0  0
   11.6570  -15.2296   20.4690 C   0  0  0  0  0  0  0  0  0  0  0  0
   10.9883  -16.2761   21.3297 C   0  0  2  0  0  0  0  0  0  0  0  0
    9.6084  -15.8894   21.4856 N   0  0  0  0  0  0  0  0  0  0  0  0
   11.7193  -16.3355   22.6236 C   0  0  0  0  0  0  0  0  0  0  0  0
   12.9225  -16.6405   22.7443 O   0  0  0  0  0  0  0  0  0  0  0  0
   12.2922  -16.5285   31.5079 O   0  0  0  0  0  0  0  0  0  0  0  0
   11.8575  -16.3783   30.1961 C   0  0  0  0  0  0  0  0  0  0  0  0
   11.7277  -15.1209   29.6247 C   0  0  0  0  0  0  0  0  0  0  0  0
   11.2982  -14.9673   28.3288 C   0  0  0  0  0  0  0  0  0  0  0  0
   10.9751  -16.0595   27.5330 C   0  0  0  0  0  0  0  0  0  0  0  0
   10.5085  -15.8777   26.1561 C   0  0  0  0  0  0  0  0  0  0  0  0
   11.5935  -16.0960   25.1208 C   0  0  2  0  0  0  0  0  0  0  0  0
   10.9860  -16.0209   23.7966 N   0  0  0  0  0  0  0  0  0  0  0  0
   12.2123  -17.4221   25.2772 C   0  0  0  0  0  0  0  0  0  0  0  0
   11.6559  -18.5614   24.7285 O   0  0  0  0  0  0  0  0  0  0  0  0
   11.1097  -17.3031   28.1158 C   0  0  0  0  0  0  0  0  0  0  0  0
   11.5379  -17.4631   29.4092 C   0  0  0  0  0  0  0  0  0  0  0  0
   13.2746  -17.5431   25.9249 O   0  0  0  0  0  0  0  0  0  0  0  0
  2  3  1  0
  2  1  1  1
  4 12  1  0
  4  3  1  0
  5  4  2  0
  6  5  1  0
  6  7  1  0
  7  8  1  0
  7 12  2  0
  8  9  2  0
  9 10  1  0
 11 10  2  0
 12 11  1  0
 13  2  1  0
 14 13  2  0
 16 18  1  0
 16 15  1  0
 17 16  2  0
 20 19  1  6
 19 18  1  0
 20 21  1  0
 21 13  1  0
 22 20  1  0
 22 31  1  0
 23 22  2  0
 25 24  1  0
 25 26  2  0
 27 26  1  0
 28 27  2  0
 29 28  1  0
 30 31  1  0
 30 29  1  1
 32 30  1  0
 32 33  1  0
 34 35  2  0
 34 28  1  0
 35 25  1  0
 36 32  2  0
M  END
$$$$
