WQY.pdb
     RDKit          3D

 36 38  0  0  1  0  0  0  0  0999 V2000
   12.0596  -13.3801   19.7157 N   0  0  0  0  0  0  0  0  0  0  0  0
   11.4888  -14.6678   20.0754 C   0  0  1  0  0  0  0  0  0  0  0  0
   10.9125  -15.2746   18.8267 C   0  0  0  0  0  0  0  0  0  0  0  0
    9.6916  -14.6038   18.3655 C   0  0  0  0  0  0  0  0  0  0  0  0
    9.2579  -14.5235   17.0622 C   0  0  0  0  0  0  0  0  0  0  0  0
    8.0968  -13.8295   17.0360 N   0  0  0  0  0  0  0  0  0  0  0  0
    7.7484  -13.4463   18.2917 C   0  0  0  0  0  0  0  0  0  0  0  0
    6.6788  -12.7361   18.7836 C   0  0  0  0  0  0  0  0  0  0  0  0
    6.6078  -12.5067   20.1373 C   0  0  0  0  0  0  0  0  0  0  0  0
    7.6155  -12.9977   20.9633 C   0  0  0  0  0  0  0  0  0  0  0  0
    8.6865  -13.7096   20.4654 C   0  0  0  0  0  0  0  0  0  0  0  0
    8.7542  -13.9365   19.1152 C   0  0  0  0  0  0  0  0  0  0  0  0
   12.4381  -15.5311   20.7761 C   0  0  0  0  0  0  0  0  0  0  0  0
   13.6324  -15.1724   20.9093 O   0  0  0  0  0  0  0  0  0  0  0  0
   12.0949  -21.2525   25.3650 N   0  0  0  0  0  0  0  0  0  0  0  0
   12.1138  -20.7503   24.0346 C   0  0  0  0  0  0  0  0  0  0  0  0
   11.3845  -21.3518   23.1941 O   0  0  0  0  0  0  0  0  0  0  0  0
   12.9554  -19.5755   23.6707 C   0  0  0  0  0  0  0  0  0  0  0  0
   12.1596  -18.7330   22.7063 C   0  0  0  0  0  0  0  0  0  0  0  0
   12.9170  -17.5014   22.2674 C   0  0  2  0  0  0  0  0  0  0  0  0
   12.0809  -16.7907   21.3327 N   0  0  0  0  0  0  0  0  0  0  0  0
   14.2019  -17.9482   21.6662 C   0  0  0  0  0  0  0  0  0  0  0  0
   14.3023  -18.5707   20.5903 O   0  0  0  0  0  0  0  0  0  0  0  0
   16.1947  -14.0265   16.8083 O   0  0  0  0  0  0  0  0  0  0  0  0
   16.5114  -14.6700   17.9991 C   0  0  0  0  0  0  0  0  0  0  0  0
   16.9823  -15.9748   18.0043 C   0  0  0  0  0  0  0  0  0  0  0  0
   17.2965  -16.6151   19.1784 C   0  0  0  0  0  0  0  0  0  0  0  0
   17.1577  -15.9885   20.4108 C   0  0  0  0  0  0  0  0  0  0  0  0
   17.4873  -16.6892   21.6546 C   0  0  0  0  0  0  0  0  0  0  0  0
   16.7073  -17.9747   21.8442 C   0  0  2  0  0  0  0  0  0  0  0  0
   15.3909  -17.6386   22.3755 N   0  0  0  0  0  0  0  0  0  0  0  0
   17.3842  -18.8658   22.8002 C   0  0  0  0  0  0  0  0  0  0  0  0
   16.7921  -19.2568   23.9855 O   0  0  0  0  0  0  0  0  0  0  0  0
   16.6885  -14.6910   20.3888 C   0  0  0  0  0  0  0  0  0  0  0  0
   16.3731  -14.0461   19.2197 C   0  0  0  0  0  0  0  0  0  0  0  0
   18.5325  -19.2923   22.5509 O   0  0  0  0  0  0  0  0  0  0  0  0
  2  3  1  0
  2  1  1  6
  4 12  1  0
  4  3  1  0
  5  4  2  0
  6  5  1  0
  6  7  1  0
  7  8  1  0
  7 12  2  0
  8  9  2  0
  9 10  1  0
 11 10  2  0
 12 11  1  0
 13  2  1  0
 14 13  2  0
 16 18  1  0
 16 15  1  0
 17 16  2  0
 20 19  1  6
 19 18  1  0
 20 21  1  0
 21 13  1  0
 22 20  1  0
 22 31  1  0
 23 22  2  0
 25 24  1  0
 25 26  2  0
 27 26  1  0
 28 27  2  0
 29 28  1  0
 30 31  1  0
 30 29  1  1
 32 30  1  0
 32 33  1  0
 34 35  2  0
 34 28  1  0
 35 25  1  0
 36 32  2  0
M  END
$$$$
