WQY.pdb
     RDKit          3D

 36 38  0  0  1  0  0  0  0  0999 V2000
    8.2619  -18.1529   21.4912 N   0  0  0  0  0  0  0  0  0  0  0  0
    8.7819  -17.0910   22.3369 C   0  0  1  0  0  0  0  0  0  0  0  0
    7.6071  -16.3346   22.8913 C   0  0  0  0  0  0  0  0  0  0  0  0
    6.9499  -15.4752   21.9000 C   0  0  0  0  0  0  0  0  0  0  0  0
    5.6990  -15.6735   21.3624 C   0  0  0  0  0  0  0  0  0  0  0  0
    5.4419  -14.6738   20.4878 N   0  0  0  0  0  0  0  0  0  0  0  0
    6.4929  -13.8153   20.4311 C   0  0  0  0  0  0  0  0  0  0  0  0
    6.7167  -12.6662   19.7101 C   0  0  0  0  0  0  0  0  0  0  0  0
    7.9109  -12.0060   19.8780 C   0  0  0  0  0  0  0  0  0  0  0  0
    8.8512  -12.5185   20.7679 C   0  0  0  0  0  0  0  0  0  0  0  0
    8.6224  -13.6714   21.4890 C   0  0  0  0  0  0  0  0  0  0  0  0
    7.4307  -14.3273   21.3192 C   0  0  0  0  0  0  0  0  0  0  0  0
    9.7105  -17.5817   23.3540 C   0  0  0  0  0  0  0  0  0  0  0  0
    9.3905  -18.5535   24.0793 O   0  0  0  0  0  0  0  0  0  0  0  0
   14.2507  -19.6386   24.4731 N   0  0  0  0  0  0  0  0  0  0  0  0
   14.1074  -19.1249   23.1547 C   0  0  0  0  0  0  0  0  0  0  0  0
   14.4659  -19.8864   22.2104 O   0  0  0  0  0  0  0  0  0  0  0  0
   13.5611  -17.7585   22.9198 C   0  0  0  0  0  0  0  0  0  0  0  0
   13.2663  -17.1534   24.2689 C   0  0  0  0  0  0  0  0  0  0  0  0
   11.8327  -17.3759   24.6915 C   0  0  2  0  0  0  0  0  0  0  0  0
   10.9928  -17.0082   23.5793 N   0  0  0  0  0  0  0  0  0  0  0  0
   11.5817  -16.5478   25.9012 C   0  0  0  0  0  0  0  0  0  0  0  0
   12.1685  -15.4790   26.1626 O   0  0  0  0  0  0  0  0  0  0  0  0
    7.6596  -11.7019   24.7516 O   0  0  0  0  0  0  0  0  0  0  0  0
    7.9990  -12.7354   25.6170 C   0  0  0  0  0  0  0  0  0  0  0  0
    7.4082  -13.9855   25.5055 C   0  0  0  0  0  0  0  0  0  0  0  0
    7.7401  -15.0100   26.3585 C   0  0  0  0  0  0  0  0  0  0  0  0
    8.6792  -14.8427   27.3689 C   0  0  0  0  0  0  0  0  0  0  0  0
    9.0141  -15.9427   28.2769 C   0  0  0  0  0  0  0  0  0  0  0  0
   10.4452  -16.4217   28.1376 C   0  0  2  0  0  0  0  0  0  0  0  0
   10.6032  -17.0168   26.8151 N   0  0  0  0  0  0  0  0  0  0  0  0
   10.7605  -17.4418   29.1506 C   0  0  0  0  0  0  0  0  0  0  0  0
   11.0474  -18.7497   28.8110 O   0  0  0  0  0  0  0  0  0  0  0  0
    9.2579  -13.5938   27.4666 C   0  0  0  0  0  0  0  0  0  0  0  0
    8.9307  -12.5668   26.6179 C   0  0  0  0  0  0  0  0  0  0  0  0
   10.7730  -17.1355   30.3625 O   0  0  0  0  0  0  0  0  0  0  0  0
  2  3  1  0
  2  1  1  1
  4 12  1  0
  4  3  1  0
  5  4  2  0
  6  5  1  0
  6  7  1  0
  7  8  1  0
  7 12  2  0
  8  9  2  0
  9 10  1  0
 11 10  2  0
 12 11  1  0
 13  2  1  0
 14 13  2  0
 16 18  1  0
 16 15  1  0
 17 16  2  0
 20 19  1  6
 19 18  1  0
 20 21  1  0
 21 13  1  0
 22 20  1  0
 22 31  1  0
 23 22  2  0
 25 24  1  0
 25 26  2  0
 27 26  1  0
 28 27  2  0
 29 28  1  0
 30 31  1  0
 30 29  1  1
 32 30  1  0
 32 33  1  0
 34 35  2  0
 34 28  1  0
 35 25  1  0
 36 32  2  0
M  END
$$$$
