WQY.pdb
     RDKit          3D

 36 38  0  0  1  0  0  0  0  0999 V2000
    6.7766  -17.3381   23.1296 N   0  0  0  0  0  0  0  0  0  0  0  0
    8.0458  -16.6883   23.4126 C   0  0  1  0  0  0  0  0  0  0  0  0
    8.0603  -16.3352   24.8736 C   0  0  0  0  0  0  0  0  0  0  0  0
    7.0297  -15.3588   25.2449 C   0  0  0  0  0  0  0  0  0  0  0  0
    5.8387  -15.6415   25.8729 C   0  0  0  0  0  0  0  0  0  0  0  0
    5.1578  -14.4854   26.0472 N   0  0  0  0  0  0  0  0  0  0  0  0
    5.8685  -13.4403   25.5497 C   0  0  0  0  0  0  0  0  0  0  0  0
    5.6155  -12.0904   25.4862 C   0  0  0  0  0  0  0  0  0  0  0  0
    6.5557  -11.2711   24.9074 C   0  0  0  0  0  0  0  0  0  0  0  0
    7.7283  -11.8306   24.4064 C   0  0  0  0  0  0  0  0  0  0  0  0
    7.9778  -13.1853   24.4724 C   0  0  0  0  0  0  0  0  0  0  0  0
    7.0382  -13.9993   25.0500 C   0  0  0  0  0  0  0  0  0  0  0  0
    9.1956  -17.4800   22.9778 C   0  0  0  0  0  0  0  0  0  0  0  0
    9.0784  -18.7175   22.8112 O   0  0  0  0  0  0  0  0  0  0  0  0
   12.0829  -16.2189   19.6043 N   0  0  0  0  0  0  0  0  0  0  0  0
   12.3711  -15.1860   20.5383 C   0  0  0  0  0  0  0  0  0  0  0  0
   12.4428  -14.0108   20.0756 O   0  0  0  0  0  0  0  0  0  0  0  0
   12.5744  -15.4931   21.9823 C   0  0  0  0  0  0  0  0  0  0  0  0
   12.7739  -16.9827   22.1020 C   0  0  0  0  0  0  0  0  0  0  0  0
   11.7078  -17.6332   22.9525 C   0  0  2  0  0  0  0  0  0  0  0  0
   10.4775  -16.9174   22.7248 N   0  0  0  0  0  0  0  0  0  0  0  0
   12.1561  -17.5714   24.3694 C   0  0  0  0  0  0  0  0  0  0  0  0
   13.3163  -17.2960   24.7341 O   0  0  0  0  0  0  0  0  0  0  0  0
   10.8318  -12.0396   28.1890 O   0  0  0  0  0  0  0  0  0  0  0  0
   10.7542  -13.4218   28.0635 C   0  0  0  0  0  0  0  0  0  0  0  0
   11.6620  -14.2510   28.7060 C   0  0  0  0  0  0  0  0  0  0  0  0
   11.5897  -15.6175   28.5848 C   0  0  0  0  0  0  0  0  0  0  0  0
   10.6079  -16.2308   27.8161 C   0  0  0  0  0  0  0  0  0  0  0  0
   10.5512  -17.6892   27.6888 C   0  0  0  0  0  0  0  0  0  0  0  0
   11.5713  -18.2472   26.7168 C   0  0  2  0  0  0  0  0  0  0  0  0
   11.1865  -17.8469   25.3678 N   0  0  0  0  0  0  0  0  0  0  0  0
   11.6070  -19.7173   26.7764 C   0  0  0  0  0  0  0  0  0  0  0  0
   11.6036  -20.4987   25.6372 O   0  0  0  0  0  0  0  0  0  0  0  0
    9.7126  -15.3925   27.1837 C   0  0  0  0  0  0  0  0  0  0  0  0
    9.7796  -14.0273   27.3008 C   0  0  0  0  0  0  0  0  0  0  0  0
   11.6402  -20.2968   27.8835 O   0  0  0  0  0  0  0  0  0  0  0  0
  2  3  1  0
  2  1  1  1
  4 12  1  0
  4  3  1  0
  5  4  2  0
  6  5  1  0
  6  7  1  0
  7  8  1  0
  7 12  2  0
  8  9  2  0
  9 10  1  0
 11 10  2  0
 12 11  1  0
 13  2  1  0
 14 13  2  0
 16 18  1  0
 16 15  1  0
 17 16  2  0
 20 19  1  6
 19 18  1  0
 20 21  1  0
 21 13  1  0
 22 20  1  0
 22 31  1  0
 23 22  2  0
 25 24  1  0
 25 26  2  0
 27 26  1  0
 28 27  2  0
 29 28  1  0
 30 31  1  0
 30 29  1  1
 32 30  1  0
 32 33  1  0
 34 35  2  0
 34 28  1  0
 35 25  1  0
 36 32  2  0
M  END
$$$$
