WQY.pdb
     RDKit          3D

 36 38  0  0  1  0  0  0  0  0999 V2000
    6.6395  -17.7628   24.8556 N   0  0  0  0  0  0  0  0  0  0  0  0
    7.5737  -16.9501   24.0940 C   0  0  1  0  0  0  0  0  0  0  0  0
    8.1466  -15.9205   25.0273 C   0  0  0  0  0  0  0  0  0  0  0  0
    7.1472  -14.9685   25.5253 C   0  0  0  0  0  0  0  0  0  0  0  0
    6.0253  -15.2844   26.2564 C   0  0  0  0  0  0  0  0  0  0  0  0
    5.3531  -14.1426   26.5301 N   0  0  0  0  0  0  0  0  0  0  0  0
    6.0020  -13.0746   25.9979 C   0  0  0  0  0  0  0  0  0  0  0  0
    5.7306  -11.7267   25.9996 C   0  0  0  0  0  0  0  0  0  0  0  0
    6.6023  -10.8791   25.3578 C   0  0  0  0  0  0  0  0  0  0  0  0
    7.7264  -11.4090   24.7297 C   0  0  0  0  0  0  0  0  0  0  0  0
    7.9946  -12.7616   24.7306 C   0  0  0  0  0  0  0  0  0  0  0  0
    7.1233  -13.6039   25.3714 C   0  0  0  0  0  0  0  0  0  0  0  0
    8.5795  -17.7493   23.3959 C   0  0  0  0  0  0  0  0  0  0  0  0
    9.0175  -18.8022   23.9180 O   0  0  0  0  0  0  0  0  0  0  0  0
   10.9229  -16.6712   17.6937 N   0  0  0  0  0  0  0  0  0  0  0  0
   12.0526  -17.2342   18.3489 C   0  0  0  0  0  0  0  0  0  0  0  0
   13.0372  -17.5377   17.6150 O   0  0  0  0  0  0  0  0  0  0  0  0
   12.0561  -17.4470   19.8238 C   0  0  0  0  0  0  0  0  0  0  0  0
   10.6447  -17.2398   20.3119 C   0  0  0  0  0  0  0  0  0  0  0  0
   10.5032  -17.5364   21.7867 C   0  0  2  0  0  0  0  0  0  0  0  0
    9.1086  -17.3963   22.1234 N   0  0  0  0  0  0  0  0  0  0  0  0
   11.3728  -16.5840   22.5275 C   0  0  0  0  0  0  0  0  0  0  0  0
   11.5425  -15.3889   22.2145 O   0  0  0  0  0  0  0  0  0  0  0  0
   10.0529  -17.1031   30.0100 O   0  0  0  0  0  0  0  0  0  0  0  0
   10.6086  -16.6477   28.8200 C   0  0  0  0  0  0  0  0  0  0  0  0
   11.6793  -15.7657   28.8214 C   0  0  0  0  0  0  0  0  0  0  0  0
   12.2318  -15.3126   27.6480 C   0  0  0  0  0  0  0  0  0  0  0  0
   11.7459  -15.7147   26.4099 C   0  0  0  0  0  0  0  0  0  0  0  0
   12.3398  -15.2137   25.1677 C   0  0  0  0  0  0  0  0  0  0  0  0
   13.0545  -16.2853   24.3692 C   0  0  2  0  0  0  0  0  0  0  0  0
   12.0522  -17.0813   23.6693 N   0  0  0  0  0  0  0  0  0  0  0  0
   13.8253  -17.1749   25.2526 C   0  0  0  0  0  0  0  0  0  0  0  0
   14.9042  -16.7243   25.9884 O   0  0  0  0  0  0  0  0  0  0  0  0
   10.6809  -16.5921   26.4254 C   0  0  0  0  0  0  0  0  0  0  0  0
   10.1249  -17.0482   27.5937 C   0  0  0  0  0  0  0  0  0  0  0  0
   13.5107  -18.3805   25.3535 O   0  0  0  0  0  0  0  0  0  0  0  0
  2  3  1  0
  2  1  1  1
  4 12  1  0
  4  3  1  0
  5  4  2  0
  6  5  1  0
  6  7  1  0
  7  8  1  0
  7 12  2  0
  8  9  2  0
  9 10  1  0
 11 10  2  0
 12 11  1  0
 13  2  1  0
 14 13  2  0
 16 18  1  0
 16 15  1  0
 17 16  2  0
 20 19  1  6
 19 18  1  0
 20 21  1  0
 21 13  1  0
 22 20  1  0
 22 31  1  0
 23 22  2  0
 25 24  1  0
 25 26  2  0
 27 26  1  0
 28 27  2  0
 29 28  1  0
 30 31  1  0
 30 29  1  1
 32 30  1  0
 32 33  1  0
 34 35  2  0
 34 28  1  0
 35 25  1  0
 36 32  2  0
M  END
$$$$
