WQY.pdb
     RDKit          3D

 36 38  0  0  1  0  0  0  0  0999 V2000
    8.2473  -18.1467   20.8346 N   0  0  0  0  0  0  0  0  0  0  0  0
    9.1017  -17.1986   21.5307 C   0  0  1  0  0  0  0  0  0  0  0  0
    8.2231  -16.1035   22.0675 C   0  0  0  0  0  0  0  0  0  0  0  0
    7.5670  -15.3178   21.0161 C   0  0  0  0  0  0  0  0  0  0  0  0
    6.2928  -15.5162   20.5363 C   0  0  0  0  0  0  0  0  0  0  0  0
    6.0454  -14.5959   19.5759 N   0  0  0  0  0  0  0  0  0  0  0  0
    7.1255  -13.7901   19.4058 C   0  0  0  0  0  0  0  0  0  0  0  0
    7.3689  -12.7260   18.5700 C   0  0  0  0  0  0  0  0  0  0  0  0
    8.5919  -12.1016   18.6386 C   0  0  0  0  0  0  0  0  0  0  0  0
    9.5405  -12.5636   19.5472 C   0  0  0  0  0  0  0  0  0  0  0  0
    9.2919  -13.6313   20.3836 C   0  0  0  0  0  0  0  0  0  0  0  0
    8.0716  -14.2517   20.3126 C   0  0  0  0  0  0  0  0  0  0  0  0
    9.9476  -17.8346   22.5394 C   0  0  0  0  0  0  0  0  0  0  0  0
    9.4771  -18.7337   23.2765 O   0  0  0  0  0  0  0  0  0  0  0  0
   16.1136  -17.1846   24.1516 N   0  0  0  0  0  0  0  0  0  0  0  0
   15.5782  -17.3089   22.8400 C   0  0  0  0  0  0  0  0  0  0  0  0
   16.4095  -17.5096   21.9079 O   0  0  0  0  0  0  0  0  0  0  0  0
   14.1114  -17.2053   22.5978 C   0  0  0  0  0  0  0  0  0  0  0  0
   13.4523  -18.3458   23.3313 C   0  0  0  0  0  0  0  0  0  0  0  0
   12.0870  -17.9701   23.8584 C   0  0  2  0  0  0  0  0  0  0  0  0
   11.3118  -17.4866   22.7435 N   0  0  0  0  0  0  0  0  0  0  0  0
   12.2754  -16.9429   24.9174 C   0  0  0  0  0  0  0  0  0  0  0  0
   12.9881  -15.9264   24.7998 O   0  0  0  0  0  0  0  0  0  0  0  0
    6.3022  -11.5128   27.3840 O   0  0  0  0  0  0  0  0  0  0  0  0
    7.1247  -12.5495   26.9587 C   0  0  0  0  0  0  0  0  0  0  0  0
    8.1114  -13.0657   27.7859 C   0  0  0  0  0  0  0  0  0  0  0  0
    8.9271  -14.0900   27.3700 C   0  0  0  0  0  0  0  0  0  0  0  0
    8.8025  -14.6546   26.1065 C   0  0  0  0  0  0  0  0  0  0  0  0
    9.6875  -15.7395   25.6747 C   0  0  0  0  0  0  0  0  0  0  0  0
   10.7249  -16.1173   26.7128 C   0  0  2  0  0  0  0  0  0  0  0  0
   11.5909  -17.1441   26.1437 N   0  0  0  0  0  0  0  0  0  0  0  0
   10.0865  -16.6613   27.9222 C   0  0  0  0  0  0  0  0  0  0  0  0
    9.6811  -17.9791   28.0091 O   0  0  0  0  0  0  0  0  0  0  0  0
    7.8165  -14.1304   25.2959 C   0  0  0  0  0  0  0  0  0  0  0  0
    6.9989  -13.1076   25.7053 C   0  0  0  0  0  0  0  0  0  0  0  0
    9.8946  -15.9234   28.9128 O   0  0  0  0  0  0  0  0  0  0  0  0
  2  3  1  0
  2  1  1  1
  4 12  1  0
  4  3  1  0
  5  4  2  0
  6  5  1  0
  6  7  1  0
  7  8  1  0
  7 12  2  0
  8  9  2  0
  9 10  1  0
 11 10  2  0
 12 11  1  0
 13  2  1  0
 14 13  2  0
 16 18  1  0
 16 15  1  0
 17 16  2  0
 20 19  1  6
 19 18  1  0
 20 21  1  0
 21 13  1  0
 22 20  1  0
 22 31  1  0
 23 22  2  0
 25 24  1  0
 25 26  2  0
 27 26  1  0
 28 27  2  0
 29 28  1  0
 30 31  1  0
 30 29  1  6
 32 30  1  0
 32 33  1  0
 34 35  2  0
 34 28  1  0
 35 25  1  0
 36 32  2  0
M  END
$$$$
