WQY.pdb
     RDKit          3D

 36 38  0  0  1  0  0  0  0  0999 V2000
    6.3662  -18.4952   25.3689 N   0  0  0  0  0  0  0  0  0  0  0  0
    7.0230  -17.7192   24.3297 C   0  0  1  0  0  0  0  0  0  0  0  0
    7.7745  -16.6040   25.0011 C   0  0  0  0  0  0  0  0  0  0  0  0
    6.9054  -15.6800   25.7387 C   0  0  0  0  0  0  0  0  0  0  0  0
    5.8016  -16.0297   26.4819 C   0  0  0  0  0  0  0  0  0  0  0  0
    5.2634  -14.9061   27.0098 N   0  0  0  0  0  0  0  0  0  0  0  0
    5.9838  -13.8174   26.6348 C   0  0  0  0  0  0  0  0  0  0  0  0
    5.8487  -12.4758   26.9036 C   0  0  0  0  0  0  0  0  0  0  0  0
    6.7620  -11.6013   26.3640 C   0  0  0  0  0  0  0  0  0  0  0  0
    7.7897  -12.0986   25.5667 C   0  0  0  0  0  0  0  0  0  0  0  0
    7.9213  -13.4451   25.2998 C   0  0  0  0  0  0  0  0  0  0  0  0
    7.0088  -14.3143   25.8394 C   0  0  0  0  0  0  0  0  0  0  0  0
    7.8427  -18.5426   23.4421 C   0  0  0  0  0  0  0  0  0  0  0  0
    8.5096  -19.4965   23.9092 O   0  0  0  0  0  0  0  0  0  0  0  0
    7.7744  -18.9267   17.2529 N   0  0  0  0  0  0  0  0  0  0  0  0
    7.9738  -17.6301   17.8018 C   0  0  0  0  0  0  0  0  0  0  0  0
    7.8008  -16.6527   17.0176 O   0  0  0  0  0  0  0  0  0  0  0  0
    8.3656  -17.4538   19.2288 C   0  0  0  0  0  0  0  0  0  0  0  0
    8.5884  -18.8279   19.8076 C   0  0  0  0  0  0  0  0  0  0  0  0
    9.0497  -18.7720   21.2453 C   0  0  2  0  0  0  0  0  0  0  0  0
    7.9339  -18.3224   22.0395 N   0  0  0  0  0  0  0  0  0  0  0  0
   10.2140  -17.8491   21.3136 C   0  0  0  0  0  0  0  0  0  0  0  0
   11.2940  -18.0254   20.7156 O   0  0  0  0  0  0  0  0  0  0  0  0
    7.0351  -13.1225   17.9836 O   0  0  0  0  0  0  0  0  0  0  0  0
    7.8736  -13.4155   19.0529 C   0  0  0  0  0  0  0  0  0  0  0  0
    9.2519  -13.3196   18.9288 C   0  0  0  0  0  0  0  0  0  0  0  0
   10.0848  -13.6084   19.9825 C   0  0  0  0  0  0  0  0  0  0  0  0
    9.5877  -14.0086   21.2169 C   0  0  0  0  0  0  0  0  0  0  0  0
   10.4902  -14.3231   22.3273 C   0  0  0  0  0  0  0  0  0  0  0  0
   11.1336  -15.6901   22.2094 C   0  0  2  0  0  0  0  0  0  0  0  0
   10.0746  -16.6894   22.1188 N   0  0  0  0  0  0  0  0  0  0  0  0
   11.9584  -15.9882   23.3913 C   0  0  0  0  0  0  0  0  0  0  0  0
   11.5907  -16.9404   24.3222 O   0  0  0  0  0  0  0  0  0  0  0  0
    8.2149  -14.0989   21.3242 C   0  0  0  0  0  0  0  0  0  0  0  0
    7.3780  -13.8119   20.2758 C   0  0  0  0  0  0  0  0  0  0  0  0
   13.0289  -15.3701   23.5778 O   0  0  0  0  0  0  0  0  0  0  0  0
  2  3  1  0
  2  1  1  1
  4 12  1  0
  4  3  1  0
  5  4  2  0
  6  5  1  0
  6  7  1  0
  7  8  1  0
  7 12  2  0
  8  9  2  0
  9 10  1  0
 11 10  2  0
 12 11  1  0
 13  2  1  0
 14 13  2  0
 16 18  1  0
 16 15  1  0
 17 16  2  0
 20 19  1  6
 19 18  1  0
 20 21  1  0
 21 13  1  0
 22 20  1  0
 22 31  1  0
 23 22  2  0
 25 24  1  0
 25 26  2  0
 27 26  1  0
 28 27  2  0
 29 28  1  0
 30 31  1  0
 30 29  1  1
 32 30  1  0
 32 33  1  0
 34 35  2  0
 34 28  1  0
 35 25  1  0
 36 32  2  0
M  END
$$$$
