TYK.pdb
     RDKit          3D

 29 29  0  0  1  0  0  0  0  0999 V2000
   17.3840  -23.9999   11.1183 C   0  0  0  0  0  0  0  0  0  0  0  0
   17.8885  -22.6232   11.4112 C   0  0  1  0  0  0  0  0  0  0  0  0
   17.0157  -21.8709   12.1995 O   0  0  0  0  0  0  0  0  0  0  0  0
   19.2845  -22.5815   11.9650 C   0  0  2  0  0  0  0  0  0  0  0  0
   19.3527  -23.2179   13.2426 N   0  0  0  0  0  0  0  0  0  0  0  0
   19.8705  -21.2407   12.0339 C   0  0  0  0  0  0  0  0  0  0  0  0
   19.9985  -20.6419   13.1385 O   0  0  0  0  0  0  0  0  0  0  0  0
   24.6282  -14.0795   10.0402 O   0  0  0  0  0  0  0  0  0  0  0  0
   24.0422  -15.3432   10.1419 C   0  0  0  0  0  0  0  0  0  0  0  0
   23.7349  -16.0277    8.9995 C   0  0  0  0  0  0  0  0  0  0  0  0
   23.1487  -17.2922    9.0754 C   0  0  0  0  0  0  0  0  0  0  0  0
   22.8669  -17.8784   10.2867 C   0  0  0  0  0  0  0  0  0  0  0  0
   22.2481  -19.2180   10.3326 C   0  0  0  0  0  0  0  0  0  0  0  0
   20.8493  -19.2279   10.8876 C   0  0  2  0  0  0  0  0  0  0  0  0
   20.3080  -20.5775   10.8762 N   0  0  0  0  0  0  0  0  0  0  0  0
   20.0319  -18.3476   10.0182 C   0  0  0  0  0  0  0  0  0  0  0  0
   19.8532  -18.6809    8.8264 O   0  0  0  0  0  0  0  0  0  0  0  0
   23.1853  -17.1702   11.4193 C   0  0  0  0  0  0  0  0  0  0  0  0
   23.7637  -15.9221   11.3592 C   0  0  0  0  0  0  0  0  0  0  0  0
   19.4429  -17.1430   10.4780 N   0  0  0  0  0  0  0  0  0  0  0  0
   18.8951  -16.1234    9.5921 C   0  0  1  0  0  0  0  0  0  0  0  0
   19.9633  -15.1135    9.2341 C   0  0  0  0  0  0  0  0  0  0  0  0
   19.4656  -13.9823    8.4019 C   0  0  0  0  0  0  0  0  0  0  0  0
   20.5760  -12.9842    8.0790 C   0  0  0  0  0  0  0  0  0  0  0  0
   20.0837  -11.8727    7.2036 C   0  0  0  0  0  0  0  0  0  0  0  0
   21.1126  -10.8710    7.1193 N   0  0  0  0  0  0  0  0  0  0  0  0
   18.3724  -16.7618    8.3678 C   0  0  0  0  0  0  0  0  0  0  0  0
   19.0809  -17.3815    7.5398 O   0  0  0  0  0  0  0  0  0  0  0  0
   17.0072  -16.6902    8.0833 O   0  0  0  0  0  0  0  0  0  0  0  0
  2  4  1  0
  2  1  1  1
  3  2  1  0
  4  5  1  1
  6  4  1  0
  6  7  2  0
  8  9  1  0
  9 10  2  0
 10 11  1  0
 12 11  2  0
 12 13  1  0
 14 13  1  6
 14 15  1  0
 14 16  1  0
 15  6  1  0
 16 20  1  0
 17 16  2  0
 18 12  1  0
 19  9  1  0
 19 18  2  0
 20 21  1  0
 21 27  1  0
 22 23  1  0
 21 22  1  6
 24 23  1  0
 25 24  1  0
 26 25  1  0
 27 28  2  0
 27 29  1  0
M  END
$$$$
