TYK.pdb
     RDKit          3D

 29 29  0  0  1  0  0  0  0  0999 V2000
   29.3436  -22.4241  -18.3133 C   0  0  0  0  0  0  0  0  0  0  0  0
   28.4227  -22.6583  -17.1589 C   0  0  1  0  0  0  0  0  0  0  0  0
   29.0910  -22.9618  -15.9714 O   0  0  0  0  0  0  0  0  0  0  0  0
   27.4122  -21.5674  -16.9434 C   0  0  2  0  0  0  0  0  0  0  0  0
   28.0465  -20.2930  -16.8190 N   0  0  0  0  0  0  0  0  0  0  0  0
   26.5045  -21.7947  -15.8164 C   0  0  0  0  0  0  0  0  0  0  0  0
   25.7355  -22.7963  -15.7913 O   0  0  0  0  0  0  0  0  0  0  0  0
   22.9106  -20.9005   -7.7299 O   0  0  0  0  0  0  0  0  0  0  0  0
   23.6636  -20.7404   -8.8954 C   0  0  0  0  0  0  0  0  0  0  0  0
   24.9500  -21.2013   -8.9247 C   0  0  0  0  0  0  0  0  0  0  0  0
   25.7223  -21.0528  -10.0778 C   0  0  0  0  0  0  0  0  0  0  0  0
   25.2176  -20.4461  -11.2036 C   0  0  0  0  0  0  0  0  0  0  0  0
   26.0602  -20.3063  -12.4078 C   0  0  0  0  0  0  0  0  0  0  0  0
   25.5601  -21.0794  -13.5983 C   0  0  2  0  0  0  0  0  0  0  0  0
   26.4585  -20.9079  -14.7288 N   0  0  0  0  0  0  0  0  0  0  0  0
   24.2190  -20.5420  -13.9318 C   0  0  0  0  0  0  0  0  0  0  0  0
   24.1385  -19.3980  -14.4300 O   0  0  0  0  0  0  0  0  0  0  0  0
   23.9229  -19.9919  -11.1484 C   0  0  0  0  0  0  0  0  0  0  0  0
   23.1496  -20.1316  -10.0177 C   0  0  0  0  0  0  0  0  0  0  0  0
   23.0216  -21.2679  -13.7108 N   0  0  0  0  0  0  0  0  0  0  0  0
   21.7082  -20.8092  -14.1458 C   0  0  1  0  0  0  0  0  0  0  0  0
   21.6909  -20.6216  -15.6469 C   0  0  0  0  0  0  0  0  0  0  0  0
   20.7300  -19.5819  -16.1112 C   0  0  0  0  0  0  0  0  0  0  0  0
   19.6997  -20.1549  -17.0825 C   0  0  0  0  0  0  0  0  0  0  0  0
   18.8076  -19.0868  -17.6368 C   0  0  0  0  0  0  0  0  0  0  0  0
   17.8352  -19.7075  -18.4960 N   0  0  0  0  0  0  0  0  0  0  0  0
   20.6839  -21.7951  -13.7477 C   0  0  0  0  0  0  0  0  0  0  0  0
   20.8979  -23.0251  -13.6333 O   0  0  0  0  0  0  0  0  0  0  0  0
   19.3841  -21.3648  -13.4738 O   0  0  0  0  0  0  0  0  0  0  0  0
  2  4  1  0
  2  1  1  6
  3  2  1  0
  4  5  1  1
  6  4  1  0
  6  7  2  0
  8  9  1  0
  9 10  2  0
 10 11  1  0
 12 11  2  0
 12 13  1  0
 14 13  1  1
 14 15  1  0
 14 16  1  0
 15  6  1  0
 16 20  1  0
 17 16  2  0
 18 12  1  0
 19  9  1  0
 19 18  2  0
 20 21  1  0
 21 27  1  0
 22 23  1  0
 21 22  1  6
 24 23  1  0
 25 24  1  0
 26 25  1  0
 27 28  2  0
 27 29  1  0
M  END
$$$$
