TYK.pdb
     RDKit          3D

 29 29  0  0  1  0  0  0  0  0999 V2000
   20.9959   -8.7675  -21.1143 C   0  0  0  0  0  0  0  0  0  0  0  0
   21.5574  -10.1315  -20.8696 C   0  0  1  0  0  0  0  0  0  0  0  0
   21.8633  -10.8221  -22.0437 O   0  0  0  0  0  0  0  0  0  0  0  0
   22.7146  -10.1605  -19.9118 C   0  0  2  0  0  0  0  0  0  0  0  0
   23.2036  -11.4913  -19.7325 N   0  0  0  0  0  0  0  0  0  0  0  0
   22.4433   -9.5402  -18.6128 C   0  0  0  0  0  0  0  0  0  0  0  0
   21.9327  -10.2046  -17.6678 O   0  0  0  0  0  0  0  0  0  0  0  0
   27.7058  -10.9075  -15.3376 O   0  0  0  0  0  0  0  0  0  0  0  0
   26.7617   -9.9317  -15.6651 C   0  0  0  0  0  0  0  0  0  0  0  0
   25.7041   -9.7211  -14.8253 C   0  0  0  0  0  0  0  0  0  0  0  0
   24.7476   -8.7517  -15.1311 C   0  0  0  0  0  0  0  0  0  0  0  0
   24.8404   -7.9901  -16.2719 C   0  0  0  0  0  0  0  0  0  0  0  0
   23.8128   -6.9715  -16.5655 C   0  0  0  0  0  0  0  0  0  0  0  0
   22.5223   -7.5380  -17.0936 C   0  0  2  0  0  0  0  0  0  0  0  0
   22.7405   -8.1886  -18.3756 N   0  0  0  0  0  0  0  0  0  0  0  0
   21.5845   -6.4010  -17.2563 C   0  0  0  0  0  0  0  0  0  0  0  0
   21.7566   -5.6141  -18.2127 O   0  0  0  0  0  0  0  0  0  0  0  0
   25.9121   -8.2211  -17.0989 C   0  0  0  0  0  0  0  0  0  0  0  0
   26.8631   -9.1740  -16.8097 C   0  0  0  0  0  0  0  0  0  0  0  0
   20.4996   -6.1653  -16.3750 N   0  0  0  0  0  0  0  0  0  0  0  0
   19.5506   -5.0710  -16.5383 C   0  0  1  0  0  0  0  0  0  0  0  0
   18.1524   -5.5362  -16.1950 C   0  0  0  0  0  0  0  0  0  0  0  0
   17.5224   -6.3762  -17.2520 C   0  0  0  0  0  0  0  0  0  0  0  0
   16.1206   -6.8333  -16.8527 C   0  0  0  0  0  0  0  0  0  0  0  0
   15.4760   -7.6483  -17.9317 C   0  0  0  0  0  0  0  0  0  0  0  0
   14.1693   -8.0468  -17.4810 N   0  0  0  0  0  0  0  0  0  0  0  0
   19.9382   -3.9464  -15.6640 C   0  0  0  0  0  0  0  0  0  0  0  0
   20.6656   -4.0620  -14.6495 O   0  0  0  0  0  0  0  0  0  0  0  0
   19.4836   -2.6589  -15.9562 O   0  0  0  0  0  0  0  0  0  0  0  0
  2  4  1  0
  2  1  1  6
  3  2  1  0
  4  5  1  1
  6  4  1  0
  6  7  2  0
  8  9  1  0
  9 10  2  0
 10 11  1  0
 12 11  2  0
 12 13  1  0
 14 13  1  6
 14 15  1  0
 14 16  1  0
 15  6  1  0
 16 20  1  0
 17 16  2  0
 18 12  1  0
 19  9  1  0
 19 18  2  0
 20 21  1  0
 21 27  1  0
 22 23  1  0
 21 22  1  1
 24 23  1  0
 25 24  1  0
 26 25  1  0
 27 28  2  0
 27 29  1  0
M  END
$$$$
