TYK.pdb
     RDKit          3D

 29 29  0  0  1  0  0  0  0  0999 V2000
   27.7892  -23.6423  -17.8820 C   0  0  0  0  0  0  0  0  0  0  0  0
   28.4346  -22.3018  -17.7330 C   0  0  1  0  0  0  0  0  0  0  0  0
   29.1143  -21.8853  -18.8790 O   0  0  0  0  0  0  0  0  0  0  0  0
   27.5140  -21.2250  -17.2327 C   0  0  2  0  0  0  0  0  0  0  0  0
   28.1733  -19.9577  -17.1958 N   0  0  0  0  0  0  0  0  0  0  0  0
   26.8919  -21.5114  -15.9378 C   0  0  0  0  0  0  0  0  0  0  0  0
   26.1215  -22.5012  -15.7901 O   0  0  0  0  0  0  0  0  0  0  0  0
   24.8508  -20.5850   -7.3108 O   0  0  0  0  0  0  0  0  0  0  0  0
   25.4504  -20.5482   -8.5717 C   0  0  0  0  0  0  0  0  0  0  0  0
   25.7405  -19.3372   -9.1351 C   0  0  0  0  0  0  0  0  0  0  0  0
   26.3397  -19.2747  -10.3942 C   0  0  0  0  0  0  0  0  0  0  0  0
   26.6515  -20.4154  -11.0954 C   0  0  0  0  0  0  0  0  0  0  0  0
   27.2865  -20.3149  -12.4244 C   0  0  0  0  0  0  0  0  0  0  0  0
   26.4520  -20.8726  -13.5458 C   0  0  2  0  0  0  0  0  0  0  0  0
   27.1304  -20.6961  -14.8198 N   0  0  0  0  0  0  0  0  0  0  0  0
   25.1716  -20.1247  -13.5465 C   0  0  0  0  0  0  0  0  0  0  0  0
   25.1787  -18.9245  -13.8970 O   0  0  0  0  0  0  0  0  0  0  0  0
   26.3499  -21.6192  -10.5076 C   0  0  0  0  0  0  0  0  0  0  0  0
   25.7590  -21.6958   -9.2662 C   0  0  0  0  0  0  0  0  0  0  0  0
   23.9376  -20.7100  -13.1669 N   0  0  0  0  0  0  0  0  0  0  0  0
   22.6714  -19.9880  -13.1577 C   0  0  1  0  0  0  0  0  0  0  0  0
   22.3037  -19.5598  -14.5614 C   0  0  0  0  0  0  0  0  0  0  0  0
   22.0546  -20.6976  -15.4905 C   0  0  0  0  0  0  0  0  0  0  0  0
   22.0858  -20.2539  -16.9519 C   0  0  0  0  0  0  0  0  0  0  0  0
   21.7274  -21.3750  -17.8785 C   0  0  0  0  0  0  0  0  0  0  0  0
   21.7094  -20.8650  -19.2234 N   0  0  0  0  0  0  0  0  0  0  0  0
   21.6134  -20.8534  -12.5997 C   0  0  0  0  0  0  0  0  0  0  0  0
   21.7414  -22.0854  -12.4057 O   0  0  0  0  0  0  0  0  0  0  0  0
   20.3797  -20.2974  -12.2552 O   0  0  0  0  0  0  0  0  0  0  0  0
  2  4  1  0
  2  1  1  6
  3  2  1  0
  4  5  1  1
  6  4  1  0
  6  7  2  0
  8  9  1  0
  9 10  2  0
 10 11  1  0
 12 11  2  0
 12 13  1  0
 14 13  1  1
 14 15  1  0
 14 16  1  0
 15  6  1  0
 16 20  1  0
 17 16  2  0
 18 12  1  0
 19  9  1  0
 19 18  2  0
 20 21  1  0
 21 27  1  0
 22 23  1  0
 21 22  1  6
 24 23  1  0
 25 24  1  0
 26 25  1  0
 27 28  2  0
 27 29  1  0
M  END
$$$$
