TYK.pdb
     RDKit          3D

 29 29  0  0  1  0  0  0  0  0999 V2000
   24.5170  -12.1433  -20.5048 C   0  0  0  0  0  0  0  0  0  0  0  0
   23.3477  -11.3931  -19.9522 C   0  0  1  0  0  0  0  0  0  0  0  0
   22.7555  -10.5325  -20.8783 O   0  0  0  0  0  0  0  0  0  0  0  0
   22.3159  -12.2596  -19.2873 C   0  0  2  0  0  0  0  0  0  0  0  0
   21.7264  -13.1685  -20.2192 N   0  0  0  0  0  0  0  0  0  0  0  0
   21.2739  -11.5211  -18.5700 C   0  0  0  0  0  0  0  0  0  0  0  0
   20.1304  -11.3493  -19.0781 O   0  0  0  0  0  0  0  0  0  0  0  0
   16.3478  -15.0824  -16.2115 O   0  0  0  0  0  0  0  0  0  0  0  0
   17.2502  -14.0393  -15.9912 C   0  0  0  0  0  0  0  0  0  0  0  0
   18.5804  -14.3264  -15.8637 C   0  0  0  0  0  0  0  0  0  0  0  0
   19.5014  -13.3012  -15.6431 C   0  0  0  0  0  0  0  0  0  0  0  0
   19.1021  -11.9889  -15.5488 C   0  0  0  0  0  0  0  0  0  0  0  0
   20.1019  -10.9277  -15.3168 C   0  0  0  0  0  0  0  0  0  0  0  0
   20.5248  -10.2011  -16.5650 C   0  0  2  0  0  0  0  0  0  0  0  0
   21.5112  -10.9801  -17.2963 N   0  0  0  0  0  0  0  0  0  0  0  0
   21.1160   -8.9106  -16.1361 C   0  0  0  0  0  0  0  0  0  0  0  0
   22.2972   -8.8993  -15.7261 O   0  0  0  0  0  0  0  0  0  0  0  0
   17.7605  -11.7270  -15.6805 C   0  0  0  0  0  0  0  0  0  0  0  0
   16.8410  -12.7284  -15.8983 C   0  0  0  0  0  0  0  0  0  0  0  0
   20.4012   -7.6870  -16.1699 N   0  0  0  0  0  0  0  0  0  0  0  0
   20.9884   -6.3998  -15.8194 C   0  0  1  0  0  0  0  0  0  0  0  0
   20.0328   -5.2784  -16.1633 C   0  0  0  0  0  0  0  0  0  0  0  0
   20.5400   -3.9250  -15.8015 C   0  0  0  0  0  0  0  0  0  0  0  0
   19.5563   -2.8258  -16.1984 C   0  0  0  0  0  0  0  0  0  0  0  0
   20.1275   -1.4609  -15.9643 C   0  0  0  0  0  0  0  0  0  0  0  0
   19.1841   -0.4855  -16.4415 N   0  0  0  0  0  0  0  0  0  0  0  0
   21.2987   -6.3749  -14.3763 C   0  0  0  0  0  0  0  0  0  0  0  0
   20.6677   -7.0247  -13.5095 O   0  0  0  0  0  0  0  0  0  0  0  0
   22.3554   -5.5885  -13.9128 O   0  0  0  0  0  0  0  0  0  0  0  0
  2  4  1  0
  2  1  1  6
  3  2  1  0
  4  5  1  6
  6  4  1  0
  6  7  2  0
  8  9  1  0
  9 10  2  0
 10 11  1  0
 12 11  2  0
 12 13  1  0
 14 13  1  1
 14 15  1  0
 14 16  1  0
 15  6  1  0
 16 20  1  0
 17 16  2  0
 18 12  1  0
 19  9  1  0
 19 18  2  0
 20 21  1  0
 21 27  1  0
 22 23  1  0
 21 22  1  1
 24 23  1  0
 25 24  1  0
 26 25  1  0
 27 28  2  0
 27 29  1  0
M  END
$$$$
