TYK.pdb
     RDKit          3D

 29 29  0  0  1  0  0  0  0  0999 V2000
   26.8397  -22.3141  -18.9652 C   0  0  0  0  0  0  0  0  0  0  0  0
   27.7192  -21.2681  -18.3587 C   0  0  1  0  0  0  0  0  0  0  0  0
   27.0761  -20.0423  -18.1776 O   0  0  0  0  0  0  0  0  0  0  0  0
   28.4160  -21.7008  -17.0998 C   0  0  2  0  0  0  0  0  0  0  0  0
   29.2836  -22.8096  -17.3445 N   0  0  0  0  0  0  0  0  0  0  0  0
   27.5188  -21.9958  -15.9800 C   0  0  0  0  0  0  0  0  0  0  0  0
   26.9836  -23.1331  -15.8565 O   0  0  0  0  0  0  0  0  0  0  0  0
   23.0162  -20.9099   -8.3942 O   0  0  0  0  0  0  0  0  0  0  0  0
   23.8507  -20.7293   -9.4995 C   0  0  0  0  0  0  0  0  0  0  0  0
   25.0912  -21.3032   -9.4971 C   0  0  0  0  0  0  0  0  0  0  0  0
   25.9432  -21.1370  -10.5901 C   0  0  0  0  0  0  0  0  0  0  0  0
   25.5640  -20.4001  -11.6871 C   0  0  0  0  0  0  0  0  0  0  0  0
   26.4883  -20.2449  -12.8278 C   0  0  0  0  0  0  0  0  0  0  0  0
   26.2644  -21.2372  -13.9369 C   0  0  2  0  0  0  0  0  0  0  0  0
   27.2239  -21.0256  -15.0088 N   0  0  0  0  0  0  0  0  0  0  0  0
   24.8868  -21.0203  -14.4410 C   0  0  0  0  0  0  0  0  0  0  0  0
   24.6676  -20.0378  -15.1826 O   0  0  0  0  0  0  0  0  0  0  0  0
   24.3131  -19.8340  -11.6647 C   0  0  0  0  0  0  0  0  0  0  0  0
   23.4622  -19.9897  -10.5934 C   0  0  0  0  0  0  0  0  0  0  0  0
   23.8051  -21.8781  -14.1193 N   0  0  0  0  0  0  0  0  0  0  0  0
   22.4376  -21.6568  -14.5729 C   0  0  1  0  0  0  0  0  0  0  0  0
   21.8937  -22.9096  -15.2238 C   0  0  0  0  0  0  0  0  0  0  0  0
   20.5108  -22.7575  -15.7569 C   0  0  0  0  0  0  0  0  0  0  0  0
   19.4793  -23.4412  -14.8614 C   0  0  0  0  0  0  0  0  0  0  0  0
   18.0883  -23.2739  -15.3916 C   0  0  0  0  0  0  0  0  0  0  0  0
   17.1826  -23.9742  -14.5208 N   0  0  0  0  0  0  0  0  0  0  0  0
   21.5918  -21.2757  -13.4244 C   0  0  0  0  0  0  0  0  0  0  0  0
   21.6228  -21.8453  -12.3080 O   0  0  0  0  0  0  0  0  0  0  0  0
   20.6890  -20.2186  -13.5552 O   0  0  0  0  0  0  0  0  0  0  0  0
  2  4  1  0
  2  1  1  1
  3  2  1  0
  4  5  1  6
  6  4  1  0
  6  7  2  0
  8  9  1  0
  9 10  2  0
 10 11  1  0
 12 11  2  0
 12 13  1  0
 14 13  1  1
 14 15  1  0
 14 16  1  0
 15  6  1  0
 16 20  1  0
 17 16  2  0
 18 12  1  0
 19  9  1  0
 19 18  2  0
 20 21  1  0
 21 27  1  0
 22 23  1  0
 21 22  1  1
 24 23  1  0
 25 24  1  0
 26 25  1  0
 27 28  2  0
 27 29  1  0
M  END
$$$$
