TYK.pdb
     RDKit          3D

 29 29  0  0  1  0  0  0  0  0999 V2000
   22.4335   -9.0571  -18.8182 C   0  0  0  0  0  0  0  0  0  0  0  0
   21.4404  -10.1743  -18.7882 C   0  0  1  0  0  0  0  0  0  0  0  0
   21.7615  -11.2226  -19.6524 O   0  0  0  0  0  0  0  0  0  0  0  0
   21.1305  -10.6888  -17.4109 C   0  0  2  0  0  0  0  0  0  0  0  0
   20.2911  -11.8438  -17.4677 N   0  0  0  0  0  0  0  0  0  0  0  0
   20.5592   -9.6902  -16.5041 C   0  0  0  0  0  0  0  0  0  0  0  0
   19.3526   -9.3315  -16.6072 O   0  0  0  0  0  0  0  0  0  0  0  0
   19.5366   -4.6296   -9.3161 O   0  0  0  0  0  0  0  0  0  0  0  0
   20.0432   -5.4876  -10.2949 C   0  0  0  0  0  0  0  0  0  0  0  0
   20.8722   -4.9829  -11.2573 C   0  0  0  0  0  0  0  0  0  0  0  0
   21.3910   -5.8204  -12.2460 C   0  0  0  0  0  0  0  0  0  0  0  0
   21.0869   -7.1608  -12.2799 C   0  0  0  0  0  0  0  0  0  0  0  0
   21.6537   -8.0201  -13.3383 C   0  0  0  0  0  0  0  0  0  0  0  0
   20.8202   -8.0805  -14.5899 C   0  0  2  0  0  0  0  0  0  0  0  0
   21.3328   -9.0990  -15.4925 N   0  0  0  0  0  0  0  0  0  0  0  0
   20.9050   -6.7466  -15.2319 C   0  0  0  0  0  0  0  0  0  0  0  0
   21.8970   -6.4878  -15.9477 O   0  0  0  0  0  0  0  0  0  0  0  0
   20.2521   -7.6430  -11.3020 C   0  0  0  0  0  0  0  0  0  0  0  0
   19.7331   -6.8284  -10.3207 C   0  0  0  0  0  0  0  0  0  0  0  0
   19.9104   -5.7495  -15.0703 N   0  0  0  0  0  0  0  0  0  0  0  0
   19.9228   -4.4755  -15.7784 C   0  0  1  0  0  0  0  0  0  0  0  0
   19.5502   -4.6808  -17.2303 C   0  0  0  0  0  0  0  0  0  0  0  0
   19.4036   -3.4123  -17.9979 C   0  0  0  0  0  0  0  0  0  0  0  0
   19.0587   -3.6725  -19.4631 C   0  0  0  0  0  0  0  0  0  0  0  0
   18.8772   -2.3952  -20.2242 C   0  0  0  0  0  0  0  0  0  0  0  0
   18.3554   -2.7124  -21.5266 N   0  0  0  0  0  0  0  0  0  0  0  0
   18.9711   -3.5456  -15.1388 C   0  0  0  0  0  0  0  0  0  0  0  0
   17.9207   -3.9044  -14.5560 O   0  0  0  0  0  0  0  0  0  0  0  0
   19.2260   -2.1730  -15.1661 O   0  0  0  0  0  0  0  0  0  0  0  0
  2  4  1  0
  2  1  1  1
  3  2  1  0
  4  5  1  6
  6  4  1  0
  6  7  2  0
  8  9  1  0
  9 10  2  0
 10 11  1  0
 12 11  2  0
 12 13  1  0
 14 13  1  1
 14 15  1  0
 14 16  1  0
 15  6  1  0
 16 20  1  0
 17 16  2  0
 18 12  1  0
 19  9  1  0
 19 18  2  0
 20 21  1  0
 21 27  1  0
 22 23  1  0
 21 22  1  6
 24 23  1  0
 25 24  1  0
 26 25  1  0
 27 28  2  0
 27 29  1  0
M  END
$$$$
