TYK.pdb
     RDKit          3D

 29 29  0  0  1  0  0  0  0  0999 V2000
   25.4991  -36.3275  -11.7987 C   0  0  0  0  0  0  0  0  0  0  0  0
   25.8380  -35.4968  -12.9949 C   0  0  1  0  0  0  0  0  0  0  0  0
   25.5939  -36.1467  -14.2061 O   0  0  0  0  0  0  0  0  0  0  0  0
   25.2256  -34.1248  -12.9879 C   0  0  2  0  0  0  0  0  0  0  0  0
   25.6023  -33.3851  -14.1510 N   0  0  0  0  0  0  0  0  0  0  0  0
   25.4992  -33.3440  -11.7791 C   0  0  0  0  0  0  0  0  0  0  0  0
   26.3691  -32.4284  -11.7782 O   0  0  0  0  0  0  0  0  0  0  0  0
   21.1296  -28.0606  -11.1387 O   0  0  0  0  0  0  0  0  0  0  0  0
   21.7919  -29.1266  -10.5257 C   0  0  0  0  0  0  0  0  0  0  0  0
   21.3686  -30.4026  -10.7719 C   0  0  0  0  0  0  0  0  0  0  0  0
   22.0144  -31.4843  -10.1710 C   0  0  0  0  0  0  0  0  0  0  0  0
   23.0819  -31.2997   -9.3244 C   0  0  0  0  0  0  0  0  0  0  0  0
   23.7442  -32.4653   -8.7061 C   0  0  0  0  0  0  0  0  0  0  0  0
   25.0473  -32.8454   -9.3562 C   0  0  2  0  0  0  0  0  0  0  0  0
   24.8052  -33.5874  -10.5830 N   0  0  0  0  0  0  0  0  0  0  0  0
   25.7831  -33.6942   -8.3883 C   0  0  0  0  0  0  0  0  0  0  0  0
   25.5412  -34.9207   -8.3618 O   0  0  0  0  0  0  0  0  0  0  0  0
   23.4876  -30.0083   -9.0935 C   0  0  0  0  0  0  0  0  0  0  0  0
   22.8599  -28.9319   -9.6795 C   0  0  0  0  0  0  0  0  0  0  0  0
   26.7500  -33.1771   -7.4899 N   0  0  0  0  0  0  0  0  0  0  0  0
   27.5874  -34.0121   -6.6377 C   0  0  1  0  0  0  0  0  0  0  0  0
   29.0376  -33.6004   -6.7654 C   0  0  0  0  0  0  0  0  0  0  0  0
   29.9703  -34.4249   -5.9467 C   0  0  0  0  0  0  0  0  0  0  0  0
   31.4267  -34.0196   -6.1656 C   0  0  0  0  0  0  0  0  0  0  0  0
   32.3659  -34.8871   -5.3849 C   0  0  0  0  0  0  0  0  0  0  0  0
   33.7127  -34.4686   -5.6681 N   0  0  0  0  0  0  0  0  0  0  0  0
   27.1470  -33.8837   -5.2344 C   0  0  0  0  0  0  0  0  0  0  0  0
   27.3594  -34.7450   -4.3486 O   0  0  0  0  0  0  0  0  0  0  0  0
   26.4473  -32.7435   -4.8341 O   0  0  0  0  0  0  0  0  0  0  0  0
  2  4  1  0
  2  1  1  1
  3  2  1  0
  4  5  1  6
  6  4  1  0
  6  7  2  0
  8  9  1  0
  9 10  2  0
 10 11  1  0
 12 11  2  0
 12 13  1  0
 14 13  1  1
 14 15  1  0
 14 16  1  0
 15  6  1  0
 16 20  1  0
 17 16  2  0
 18 12  1  0
 19  9  1  0
 19 18  2  0
 20 21  1  0
 21 27  1  0
 22 23  1  0
 21 22  1  1
 24 23  1  0
 25 24  1  0
 26 25  1  0
 27 28  2  0
 27 29  1  0
M  END
$$$$
