TYK.pdb
     RDKit          3D

 29 29  0  0  1  0  0  0  0  0999 V2000
   26.8953  -19.5538  -17.7773 C   0  0  0  0  0  0  0  0  0  0  0  0
   27.5785  -20.8055  -18.2268 C   0  0  1  0  0  0  0  0  0  0  0  0
   28.4565  -20.6035  -19.2932 O   0  0  0  0  0  0  0  0  0  0  0  0
   28.2430  -21.5774  -17.1222 C   0  0  2  0  0  0  0  0  0  0  0  0
   28.7189  -22.8414  -17.5892 N   0  0  0  0  0  0  0  0  0  0  0  0
   27.4179  -21.7564  -15.9252 C   0  0  0  0  0  0  0  0  0  0  0  0
   26.5408  -22.6634  -15.8684 O   0  0  0  0  0  0  0  0  0  0  0  0
   24.3497  -20.4804   -7.6753 O   0  0  0  0  0  0  0  0  0  0  0  0
   25.0977  -20.4267   -8.8535 C   0  0  0  0  0  0  0  0  0  0  0  0
   25.8161  -21.5248   -9.2359 C   0  0  0  0  0  0  0  0  0  0  0  0
   26.5714  -21.4953  -10.4093 C   0  0  0  0  0  0  0  0  0  0  0  0
   26.6140  -20.3746  -11.2046 C   0  0  0  0  0  0  0  0  0  0  0  0
   27.4214  -20.3766  -12.4407 C   0  0  0  0  0  0  0  0  0  0  0  0
   26.7427  -21.0297  -13.6145 C   0  0  2  0  0  0  0  0  0  0  0  0
   27.5739  -20.9268  -14.8032 N   0  0  0  0  0  0  0  0  0  0  0  0
   25.4625  -20.3128  -13.8288 C   0  0  0  0  0  0  0  0  0  0  0  0
   25.4691  -19.2649  -14.5110 O   0  0  0  0  0  0  0  0  0  0  0  0
   25.8836  -19.2850  -10.7985 C   0  0  0  0  0  0  0  0  0  0  0  0
   25.1342  -19.3001   -9.6434 C   0  0  0  0  0  0  0  0  0  0  0  0
   24.2291  -20.7626  -13.2940 N   0  0  0  0  0  0  0  0  0  0  0  0
   22.9357  -20.2057  -13.6704 C   0  0  1  0  0  0  0  0  0  0  0  0
   22.6712  -20.4458  -15.1406 C   0  0  0  0  0  0  0  0  0  0  0  0
   21.3212  -20.0021  -15.5882 C   0  0  0  0  0  0  0  0  0  0  0  0
   21.3941  -18.7389  -16.4441 C   0  0  0  0  0  0  0  0  0  0  0  0
   20.0329  -18.2763  -16.8651 C   0  0  0  0  0  0  0  0  0  0  0  0
   20.1721  -17.0195  -17.5509 N   0  0  0  0  0  0  0  0  0  0  0  0
   21.8735  -20.8301  -12.8571 C   0  0  0  0  0  0  0  0  0  0  0  0
   21.8704  -22.0343  -12.5084 O   0  0  0  0  0  0  0  0  0  0  0  0
   20.7892  -20.0598  -12.4324 O   0  0  0  0  0  0  0  0  0  0  0  0
  2  4  1  0
  2  1  1  1
  3  2  1  0
  4  5  1  6
  6  4  1  0
  6  7  2  0
  8  9  1  0
  9 10  2  0
 10 11  1  0
 12 11  2  0
 12 13  1  0
 14 13  1  1
 14 15  1  0
 14 16  1  0
 15  6  1  0
 16 20  1  0
 17 16  2  0
 18 12  1  0
 19  9  1  0
 19 18  2  0
 20 21  1  0
 21 27  1  0
 22 23  1  0
 21 22  1  6
 24 23  1  0
 25 24  1  0
 26 25  1  0
 27 28  2  0
 27 29  1  0
M  END
$$$$
