TYK.pdb
     RDKit          3D

 29 29  0  0  1  0  0  0  0  0999 V2000
   20.6476  -27.4992  -14.9009 C   0  0  0  0  0  0  0  0  0  0  0  0
   21.8604  -26.8575  -15.4950 C   0  0  1  0  0  0  0  0  0  0  0  0
   22.2410  -27.4188  -16.7152 O   0  0  0  0  0  0  0  0  0  0  0  0
   21.7818  -25.3603  -15.5932 C   0  0  2  0  0  0  0  0  0  0  0  0
   22.9715  -24.8172  -16.1691 N   0  0  0  0  0  0  0  0  0  0  0  0
   21.4749  -24.6843  -14.3303 C   0  0  0  0  0  0  0  0  0  0  0  0
   22.3889  -24.3930  -13.5088 O   0  0  0  0  0  0  0  0  0  0  0  0
   22.4732  -18.5581  -15.8910 O   0  0  0  0  0  0  0  0  0  0  0  0
   21.6360  -19.4830  -15.2631 C   0  0  0  0  0  0  0  0  0  0  0  0
   21.6594  -19.5834  -13.9002 C   0  0  0  0  0  0  0  0  0  0  0  0
   20.8320  -20.5003  -13.2499 C   0  0  0  0  0  0  0  0  0  0  0  0
   19.9800  -21.3189  -13.9529 C   0  0  0  0  0  0  0  0  0  0  0  0
   19.1163  -22.2770  -13.2347 C   0  0  0  0  0  0  0  0  0  0  0  0
   19.8171  -23.5435  -12.8226 C   0  0  2  0  0  0  0  0  0  0  0  0
   20.1569  -24.3391  -13.9914 N   0  0  0  0  0  0  0  0  0  0  0  0
   18.8789  -24.2951  -11.9544 C   0  0  0  0  0  0  0  0  0  0  0  0
   17.9451  -24.9311  -12.4902 O   0  0  0  0  0  0  0  0  0  0  0  0
   19.9753  -21.1985  -15.3208 C   0  0  0  0  0  0  0  0  0  0  0  0
   20.7861  -20.2984  -15.9754 C   0  0  0  0  0  0  0  0  0  0  0  0
   18.9928  -24.3250  -10.5418 N   0  0  0  0  0  0  0  0  0  0  0  0
   18.0168  -24.9629   -9.6671 C   0  0  1  0  0  0  0  0  0  0  0  0
   18.5524  -25.0391   -8.2541 C   0  0  0  0  0  0  0  0  0  0  0  0
   17.6080  -25.6654   -7.2868 C   0  0  0  0  0  0  0  0  0  0  0  0
   18.2374  -25.8291   -5.9046 C   0  0  0  0  0  0  0  0  0  0  0  0
   17.2768  -26.4339   -4.9272 C   0  0  0  0  0  0  0  0  0  0  0  0
   17.9721  -26.6626   -3.6889 N   0  0  0  0  0  0  0  0  0  0  0  0
   16.7567  -24.1940   -9.6893 C   0  0  0  0  0  0  0  0  0  0  0  0
   16.6965  -22.9418   -9.7014 O   0  0  0  0  0  0  0  0  0  0  0  0
   15.5364  -24.8725   -9.6979 O   0  0  0  0  0  0  0  0  0  0  0  0
  2  4  1  0
  2  1  1  6
  3  2  1  0
  4  5  1  1
  6  4  1  0
  6  7  2  0
  8  9  1  0
  9 10  2  0
 10 11  1  0
 12 11  2  0
 12 13  1  0
 14 13  1  6
 14 15  1  0
 14 16  1  0
 15  6  1  0
 16 20  1  0
 17 16  2  0
 18 12  1  0
 19  9  1  0
 19 18  2  0
 20 21  1  0
 21 27  1  0
 22 23  1  0
 21 22  1  1
 24 23  1  0
 25 24  1  0
 26 25  1  0
 27 28  2  0
 27 29  1  0
M  END
$$$$
