TYK.pdb
     RDKit          3D

 29 29  0  0  1  0  0  0  0  0999 V2000
   25.3560  -19.4708  -20.2417 C   0  0  0  0  0  0  0  0  0  0  0  0
   26.1687  -18.3869  -20.8744 C   0  0  1  0  0  0  0  0  0  0  0  0
   27.1643  -17.8817  -20.0362 O   0  0  0  0  0  0  0  0  0  0  0  0
   26.7298  -18.7421  -22.2222 C   0  0  2  0  0  0  0  0  0  0  0  0
   27.4825  -17.6581  -22.7704 N   0  0  0  0  0  0  0  0  0  0  0  0
   25.7346  -19.2097  -23.1901 C   0  0  0  0  0  0  0  0  0  0  0  0
   24.8073  -18.4507  -23.5889 O   0  0  0  0  0  0  0  0  0  0  0  0
   25.9862  -16.1190  -28.6776 O   0  0  0  0  0  0  0  0  0  0  0  0
   25.8274  -17.3505  -28.0381 C   0  0  0  0  0  0  0  0  0  0  0  0
   26.8722  -17.8700  -27.3264 C   0  0  0  0  0  0  0  0  0  0  0  0
   26.7377  -19.0991  -26.6787 C   0  0  0  0  0  0  0  0  0  0  0  0
   25.5647  -19.8139  -26.7373 C   0  0  0  0  0  0  0  0  0  0  0  0
   25.4543  -21.1102  -26.0394 C   0  0  0  0  0  0  0  0  0  0  0  0
   24.8215  -21.0204  -24.6769 C   0  0  2  0  0  0  0  0  0  0  0  0
   25.7780  -20.5151  -23.7052 N   0  0  0  0  0  0  0  0  0  0  0  0
   24.3983  -22.3918  -24.3043 C   0  0  0  0  0  0  0  0  0  0  0  0
   25.1628  -23.0836  -23.5969 O   0  0  0  0  0  0  0  0  0  0  0  0
   24.5303  -19.2703  -27.4586 C   0  0  0  0  0  0  0  0  0  0  0  0
   24.6490  -18.0589  -28.1024 C   0  0  0  0  0  0  0  0  0  0  0  0
   23.1640  -22.9552  -24.7148 N   0  0  0  0  0  0  0  0  0  0  0  0
   22.7304  -24.2988  -24.3525 C   0  0  1  0  0  0  0  0  0  0  0  0
   22.6035  -24.4197  -22.8497 C   0  0  0  0  0  0  0  0  0  0  0  0
   21.4722  -23.6369  -22.2777 C   0  0  0  0  0  0  0  0  0  0  0  0
   21.4079  -23.7617  -20.7566 C   0  0  0  0  0  0  0  0  0  0  0  0
   20.2725  -22.9700  -20.1838 C   0  0  0  0  0  0  0  0  0  0  0  0
   20.2713  -23.1449  -18.7560 N   0  0  0  0  0  0  0  0  0  0  0  0
   21.4329  -24.5890  -24.9944 C   0  0  0  0  0  0  0  0  0  0  0  0
   20.7814  -23.7589  -25.6713 O   0  0  0  0  0  0  0  0  0  0  0  0
   20.8667  -25.8582  -24.8594 O   0  0  0  0  0  0  0  0  0  0  0  0
  2  4  1  0
  2  1  1  1
  3  2  1  0
  4  5  1  6
  6  4  1  0
  6  7  2  0
  8  9  1  0
  9 10  2  0
 10 11  1  0
 12 11  2  0
 12 13  1  0
 14 13  1  6
 14 15  1  0
 14 16  1  0
 15  6  1  0
 16 20  1  0
 17 16  2  0
 18 12  1  0
 19  9  1  0
 19 18  2  0
 20 21  1  0
 21 27  1  0
 22 23  1  0
 21 22  1  1
 24 23  1  0
 25 24  1  0
 26 25  1  0
 27 28  2  0
 27 29  1  0
M  END
$$$$
