TYK.pdb
     RDKit          3D

 29 29  0  0  1  0  0  0  0  0999 V2000
   29.3474  -20.7187  -19.2404 C   0  0  0  0  0  0  0  0  0  0  0  0
   28.3033  -21.0125  -18.2113 C   0  0  1  0  0  0  0  0  0  0  0  0
   27.0583  -21.3243  -18.7605 O   0  0  0  0  0  0  0  0  0  0  0  0
   28.7125  -22.0366  -17.1909 C   0  0  2  0  0  0  0  0  0  0  0  0
   28.9794  -23.2993  -17.8045 N   0  0  0  0  0  0  0  0  0  0  0  0
   27.7685  -22.2003  -16.0827 C   0  0  0  0  0  0  0  0  0  0  0  0
   26.9855  -23.1901  -16.0350 O   0  0  0  0  0  0  0  0  0  0  0  0
   23.6209  -20.5782   -8.3788 O   0  0  0  0  0  0  0  0  0  0  0  0
   24.5034  -20.5665   -9.4614 C   0  0  0  0  0  0  0  0  0  0  0  0
   24.3049  -19.6676  -10.4716 C   0  0  0  0  0  0  0  0  0  0  0  0
   25.1732  -19.6367  -11.5640 C   0  0  0  0  0  0  0  0  0  0  0  0
   26.2402  -20.4991  -11.6542 C   0  0  0  0  0  0  0  0  0  0  0  0
   27.1411  -20.4395  -12.8223 C   0  0  0  0  0  0  0  0  0  0  0  0
   26.7387  -21.3472  -13.9531 C   0  0  2  0  0  0  0  0  0  0  0  0
   27.7024  -21.2636  -15.0389 N   0  0  0  0  0  0  0  0  0  0  0  0
   25.4077  -20.8917  -14.4219 C   0  0  0  0  0  0  0  0  0  0  0  0
   25.3459  -19.8939  -15.1729 O   0  0  0  0  0  0  0  0  0  0  0  0
   26.4176  -21.3924  -10.6264 C   0  0  0  0  0  0  0  0  0  0  0  0
   25.5690  -21.4339   -9.5429 C   0  0  0  0  0  0  0  0  0  0  0  0
   24.1999  -21.5374  -14.0562 N   0  0  0  0  0  0  0  0  0  0  0  0
   22.8805  -21.0720  -14.4651 C   0  0  1  0  0  0  0  0  0  0  0  0
   22.2225  -22.0928  -15.3672 C   0  0  0  0  0  0  0  0  0  0  0  0
   20.9101  -21.6511  -15.9171 C   0  0  0  0  0  0  0  0  0  0  0  0
   20.2539  -22.7406  -16.7631 C   0  0  0  0  0  0  0  0  0  0  0  0
   18.9886  -22.2575  -17.4030 C   0  0  0  0  0  0  0  0  0  0  0  0
   18.4559  -23.3189  -18.2148 N   0  0  0  0  0  0  0  0  0  0  0  0
   22.0457  -20.8413  -13.2694 C   0  0  0  0  0  0  0  0  0  0  0  0
   22.0892  -21.5469  -12.2340 O   0  0  0  0  0  0  0  0  0  0  0  0
   21.1397  -19.7789  -13.2570 O   0  0  0  0  0  0  0  0  0  0  0  0
  2  4  1  0
  2  1  1  6
  3  2  1  0
  4  5  1  6
  6  4  1  0
  6  7  2  0
  8  9  1  0
  9 10  2  0
 10 11  1  0
 12 11  2  0
 12 13  1  0
 14 13  1  1
 14 15  1  0
 14 16  1  0
 15  6  1  0
 16 20  1  0
 17 16  2  0
 18 12  1  0
 19  9  1  0
 19 18  2  0
 20 21  1  0
 21 27  1  0
 22 23  1  0
 21 22  1  6
 24 23  1  0
 25 24  1  0
 26 25  1  0
 27 28  2  0
 27 29  1  0
M  END
$$$$
