TYK.pdb
     RDKit          3D

 29 29  0  0  1  0  0  0  0  0999 V2000
   20.8841  -20.2683  -18.6305 C   0  0  0  0  0  0  0  0  0  0  0  0
   21.8832  -21.3074  -19.0276 C   0  0  1  0  0  0  0  0  0  0  0  0
   21.9060  -21.5559  -20.4011 O   0  0  0  0  0  0  0  0  0  0  0  0
   23.2696  -21.0642  -18.5021 C   0  0  2  0  0  0  0  0  0  0  0  0
   23.8299  -19.8717  -19.0554 N   0  0  0  0  0  0  0  0  0  0  0  0
   24.1920  -22.1882  -18.6796 C   0  0  0  0  0  0  0  0  0  0  0  0
   24.9262  -22.2727  -19.7038 O   0  0  0  0  0  0  0  0  0  0  0  0
   29.6558  -28.8515  -16.8929 O   0  0  0  0  0  0  0  0  0  0  0  0
   28.7027  -27.8354  -16.7940 C   0  0  0  0  0  0  0  0  0  0  0  0
   28.9663  -26.6189  -17.3586 C   0  0  0  0  0  0  0  0  0  0  0  0
   28.0295  -25.5878  -17.2729 C   0  0  0  0  0  0  0  0  0  0  0  0
   26.8292  -25.7639  -16.6260 C   0  0  0  0  0  0  0  0  0  0  0  0
   25.8589  -24.6534  -16.5547 C   0  0  0  0  0  0  0  0  0  0  0  0
   25.1742  -24.3535  -17.8609 C   0  0  2  0  0  0  0  0  0  0  0  0
   24.2900  -23.2077  -17.7192 N   0  0  0  0  0  0  0  0  0  0  0  0
   24.3882  -25.5571  -18.2246 C   0  0  0  0  0  0  0  0  0  0  0  0
   23.4444  -25.9038  -17.4813 O   0  0  0  0  0  0  0  0  0  0  0  0
   26.5885  -26.9950  -16.0674 C   0  0  0  0  0  0  0  0  0  0  0  0
   27.5035  -28.0211  -16.1443 C   0  0  0  0  0  0  0  0  0  0  0  0
   24.6592  -26.3340  -19.3789 N   0  0  0  0  0  0  0  0  0  0  0  0
   24.0678  -27.6429  -19.6274 C   0  0  1  0  0  0  0  0  0  0  0  0
   24.9728  -28.7341  -19.0990 C   0  0  0  0  0  0  0  0  0  0  0  0
   24.4870  -30.1117  -19.3925 C   0  0  0  0  0  0  0  0  0  0  0  0
   25.4596  -31.1758  -18.8873 C   0  0  0  0  0  0  0  0  0  0  0  0
   25.8276  -30.9529  -17.4525 C   0  0  0  0  0  0  0  0  0  0  0  0
   26.7728  -31.9649  -17.0632 N   0  0  0  0  0  0  0  0  0  0  0  0
   22.7469  -27.7204  -18.9726 C   0  0  0  0  0  0  0  0  0  0  0  0
   21.6594  -27.8080  -19.5903 O   0  0  0  0  0  0  0  0  0  0  0  0
   22.6670  -27.6973  -17.5788 O   0  0  0  0  0  0  0  0  0  0  0  0
  2  4  1  0
  2  1  1  6
  3  2  1  0
  4  5  1  6
  6  4  1  0
  6  7  2  0
  8  9  1  0
  9 10  2  0
 10 11  1  0
 12 11  2  0
 12 13  1  0
 14 13  1  1
 14 15  1  0
 14 16  1  0
 15  6  1  0
 16 20  1  0
 17 16  2  0
 18 12  1  0
 19  9  1  0
 19 18  2  0
 20 21  1  0
 21 27  1  0
 22 23  1  0
 21 22  1  1
 24 23  1  0
 25 24  1  0
 26 25  1  0
 27 28  2  0
 27 29  1  0
M  END
$$$$
