TYK.pdb
     RDKit          3D

 29 29  0  0  1  0  0  0  0  0999 V2000
   31.1216   -8.7136  -17.9862 C   0  0  0  0  0  0  0  0  0  0  0  0
   29.6283   -8.7463  -18.0532 C   0  0  1  0  0  0  0  0  0  0  0  0
   29.0929   -7.7904  -18.9183 O   0  0  0  0  0  0  0  0  0  0  0  0
   29.0519  -10.1057  -18.3310 C   0  0  2  0  0  0  0  0  0  0  0  0
   29.4386  -10.5765  -19.6235 N   0  0  0  0  0  0  0  0  0  0  0  0
   27.5981  -10.1924  -18.1732 C   0  0  0  0  0  0  0  0  0  0  0  0
   26.8374  -10.2696  -19.1784 O   0  0  0  0  0  0  0  0  0  0  0  0
   19.7730  -12.0403  -14.4739 O   0  0  0  0  0  0  0  0  0  0  0  0
   21.1259  -11.8086  -14.7323 C   0  0  0  0  0  0  0  0  0  0  0  0
   21.8624  -11.0936  -13.8299 C   0  0  0  0  0  0  0  0  0  0  0  0
   23.2162  -10.8490  -14.0660 C   0  0  0  0  0  0  0  0  0  0  0  0
   23.8401  -11.3145  -15.1993 C   0  0  0  0  0  0  0  0  0  0  0  0
   25.2741  -11.0400  -15.4184 C   0  0  0  0  0  0  0  0  0  0  0  0
   25.5675  -10.2966  -16.6936 C   0  0  2  0  0  0  0  0  0  0  0  0
   27.0029  -10.1920  -16.9015 N   0  0  0  0  0  0  0  0  0  0  0  0
   24.9769   -8.9438  -16.5523 C   0  0  0  0  0  0  0  0  0  0  0  0
   25.1459   -8.3251  -15.4789 O   0  0  0  0  0  0  0  0  0  0  0  0
   23.0782  -12.0300  -16.0899 C   0  0  0  0  0  0  0  0  0  0  0  0
   21.7419  -12.2788  -15.8698 C   0  0  0  0  0  0  0  0  0  0  0  0
   24.2278   -8.3192  -17.5809 N   0  0  0  0  0  0  0  0  0  0  0  0
   23.1658   -7.3524  -17.3320 C   0  0  1  0  0  0  0  0  0  0  0  0
   21.8423   -7.8900  -17.8303 C   0  0  0  0  0  0  0  0  0  0  0  0
   20.8852   -8.2334  -16.7413 C   0  0  0  0  0  0  0  0  0  0  0  0
   19.5696   -8.7790  -17.2935 C   0  0  0  0  0  0  0  0  0  0  0  0
   18.6065   -9.1161  -16.1968 C   0  0  0  0  0  0  0  0  0  0  0  0
   17.4243   -9.6831  -16.7885 N   0  0  0  0  0  0  0  0  0  0  0  0
   23.0842   -7.0697  -15.8853 C   0  0  0  0  0  0  0  0  0  0  0  0
   22.3409   -6.1957  -15.3799 O   0  0  0  0  0  0  0  0  0  0  0  0
   23.8709   -7.8034  -14.9951 O   0  0  0  0  0  0  0  0  0  0  0  0
  2  4  1  0
  2  1  1  6
  3  2  1  0
  4  5  1  6
  6  4  1  0
  6  7  2  0
  8  9  1  0
  9 10  2  0
 10 11  1  0
 12 11  2  0
 12 13  1  0
 14 13  1  1
 14 15  1  0
 14 16  1  0
 15  6  1  0
 16 20  1  0
 17 16  2  0
 18 12  1  0
 19  9  1  0
 19 18  2  0
 20 21  1  0
 21 27  1  0
 22 23  1  0
 21 22  1  1
 24 23  1  0
 25 24  1  0
 26 25  1  0
 27 28  2  0
 27 29  1  0
M  END
$$$$
