SPY.pdb
     RDKit          3D

 26 27  0  0  1  0  0  0  0  0999 V2000
   19.2648   -8.6982  -18.2148 O   0  0  0  0  0  0  0  0  0  0  0  0
   18.6911   -8.6547  -16.9413 C   0  0  0  0  0  0  0  0  0  0  0  0
   19.5770   -9.5025  -16.0311 C   0  0  2  0  0  0  0  0  0  0  0  0
   19.5469  -10.8345  -16.5355 N   0  0  0  0  0  0  0  0  0  0  0  0
   19.2248   -9.3553  -14.6233 C   0  0  0  0  0  0  0  0  0  0  0  0
   18.1508  -10.0095  -14.2816 O   0  0  0  0  0  0  0  0  0  0  0  0
   19.8515   -8.6417  -13.6147 N   0  0  0  0  0  0  0  0  0  0  0  0
   21.3496   -8.6822  -13.4410 C   0  0  0  0  0  0  0  0  0  0  0  0
   21.7184   -7.2322  -13.2068 C   0  0  0  0  0  0  0  0  0  0  0  0
   20.3592   -6.5189  -13.1006 C   0  0  0  0  0  0  0  0  0  0  0  0
   19.5281   -7.6751  -12.6051 C   0  0  1  0  0  0  0  0  0  0  0  0
   18.1952   -7.4681  -12.1713 C   0  0  0  0  0  0  0  0  0  0  0  0
   17.2967   -7.0415  -12.9460 O   0  0  0  0  0  0  0  0  0  0  0  0
   11.1432   -7.0898   -6.8480 O   0  0  0  0  0  0  0  0  0  0  0  0
   12.4017   -7.2902   -7.3771 C   0  0  0  0  0  0  0  0  0  0  0  0
   13.4913   -6.5118   -7.0329 C   0  0  0  0  0  0  0  0  0  0  0  0
   14.7256   -6.7316   -7.5713 C   0  0  0  0  0  0  0  0  0  0  0  0
   14.8624   -7.7663   -8.4825 C   0  0  0  0  0  0  0  0  0  0  0  0
   16.1853   -7.9982   -9.0620 C   0  0  0  0  0  0  0  0  0  0  0  0
   16.3915   -7.3212  -10.3993 C   0  0  2  0  0  0  0  0  0  0  0  0
   17.7302   -7.7161  -10.8273 N   0  0  0  0  0  0  0  0  0  0  0  0
   16.2300   -5.8669  -10.3699 C   0  0  0  0  0  0  0  0  0  0  0  0
   15.0402   -5.2870  -10.7760 O   0  0  0  0  0  0  0  0  0  0  0  0
   13.8098   -8.5543   -8.8455 C   0  0  0  0  0  0  0  0  0  0  0  0
   12.5769   -8.3022   -8.2802 C   0  0  0  0  0  0  0  0  0  0  0  0
   17.1453   -5.0959   -9.9831 O   0  0  0  0  0  0  0  0  0  0  0  0
  2  1  1  0
  3  2  1  0
  3  4  1  6
  5  7  1  0
  5  3  1  0
  6  5  2  0
  7 11  1  0
  8  9  1  0
  8  7  1  0
  9 10  1  0
 10 11  1  0
 11 12  1  6
 12 21  1  0
 13 12  2  0
 15 14  1  0
 16 15  2  0
 17 16  1  0
 18 24  1  0
 18 17  2  0
 19 18  1  0
 20 22  1  0
 20 21  1  0
 20 19  1  1
 22 23  1  0
 24 25  2  0
 25 15  1  0
 26 22  2  0
M  END
$$$$
