SPY.pdb
     RDKit          3D

 26 27  0  0  1  0  0  0  0  0999 V2000
   24.3442  -15.5447  -14.9460 O   0  0  0  0  0  0  0  0  0  0  0  0
   23.2381  -16.2777  -15.3844 C   0  0  0  0  0  0  0  0  0  0  0  0
   23.7827  -17.4569  -16.1874 C   0  0  2  0  0  0  0  0  0  0  0  0
   22.6827  -18.0379  -16.8818 N   0  0  0  0  0  0  0  0  0  0  0  0
   24.5614  -18.3747  -15.3634 C   0  0  0  0  0  0  0  0  0  0  0  0
   23.8812  -18.9071  -14.3876 O   0  0  0  0  0  0  0  0  0  0  0  0
   25.8882  -18.7603  -15.4639 N   0  0  0  0  0  0  0  0  0  0  0  0
   26.5414  -18.9767  -16.8065 C   0  0  0  0  0  0  0  0  0  0  0  0
   27.8839  -18.2907  -16.6620 C   0  0  0  0  0  0  0  0  0  0  0  0
   27.9351  -17.8905  -15.1771 C   0  0  0  0  0  0  0  0  0  0  0  0
   27.0294  -18.9580  -14.6174 C   0  0  1  0  0  0  0  0  0  0  0  0
   26.8980  -19.1269  -13.2167 C   0  0  0  0  0  0  0  0  0  0  0  0
   27.1340  -18.1927  -12.4038 O   0  0  0  0  0  0  0  0  0  0  0  0
   27.4747  -19.7885   -4.9428 O   0  0  0  0  0  0  0  0  0  0  0  0
   27.1968  -19.7103   -6.2921 C   0  0  0  0  0  0  0  0  0  0  0  0
   28.0215  -19.0583   -7.1899 C   0  0  0  0  0  0  0  0  0  0  0  0
   27.7230  -18.9959   -8.5198 C   0  0  0  0  0  0  0  0  0  0  0  0
   26.5589  -19.6091   -8.9541 C   0  0  0  0  0  0  0  0  0  0  0  0
   26.2380  -19.5379  -10.3794 C   0  0  0  0  0  0  0  0  0  0  0  0
   26.8476  -20.6551  -11.1975 C   0  0  2  0  0  0  0  0  0  0  0  0
   26.4900  -20.3573  -12.5812 N   0  0  0  0  0  0  0  0  0  0  0  0
   26.4227  -21.9969  -10.7962 C   0  0  0  0  0  0  0  0  0  0  0  0
   25.3529  -22.6094  -11.4263 O   0  0  0  0  0  0  0  0  0  0  0  0
   25.7217  -20.2609   -8.0970 C   0  0  0  0  0  0  0  0  0  0  0  0
   26.0564  -20.3034   -6.7593 C   0  0  0  0  0  0  0  0  0  0  0  0
   26.9978  -22.6391   -9.8805 O   0  0  0  0  0  0  0  0  0  0  0  0
  2  1  1  0
  3  2  1  0
  3  4  1  1
  5  7  1  0
  5  3  1  0
  6  5  2  0
  7 11  1  0
  8  9  1  0
  8  7  1  0
  9 10  1  0
 10 11  1  0
 11 12  1  1
 12 21  1  0
 13 12  2  0
 15 14  1  0
 16 15  2  0
 17 16  1  0
 18 24  1  0
 18 17  2  0
 19 18  1  0
 20 22  1  0
 20 21  1  0
 20 19  1  1
 22 23  1  0
 24 25  2  0
 25 15  1  0
 26 22  2  0
M  END
$$$$
