SPY.pdb
     RDKit          3D

 26 27  0  0  1  0  0  0  0  0999 V2000
   14.7186  -11.9201  -16.6801 O   0  0  0  0  0  0  0  0  0  0  0  0
   15.6808  -10.9098  -16.5992 C   0  0  0  0  0  0  0  0  0  0  0  0
   16.9772  -11.4918  -17.1581 C   0  0  2  0  0  0  0  0  0  0  0  0
   17.0057  -12.8720  -16.8061 N   0  0  0  0  0  0  0  0  0  0  0  0
   18.1477  -10.7174  -16.7607 C   0  0  0  0  0  0  0  0  0  0  0  0
   18.4521  -10.8393  -15.4995 O   0  0  0  0  0  0  0  0  0  0  0  0
   18.9701   -9.8918  -17.5100 N   0  0  0  0  0  0  0  0  0  0  0  0
   19.4556  -10.3025  -18.8780 C   0  0  0  0  0  0  0  0  0  0  0  0
   19.2676   -9.0517  -19.7109 C   0  0  0  0  0  0  0  0  0  0  0  0
   18.8457   -7.9857  -18.6847 C   0  0  0  0  0  0  0  0  0  0  0  0
   19.5114   -8.5641  -17.4618 C   0  0  1  0  0  0  0  0  0  0  0  0
   19.5642   -7.8242  -16.2546 C   0  0  0  0  0  0  0  0  0  0  0  0
   18.5273   -7.5420  -15.5954 O   0  0  0  0  0  0  0  0  0  0  0  0
   26.1744   -4.5512  -17.1104 O   0  0  0  0  0  0  0  0  0  0  0  0
   25.1730   -5.0371  -16.2950 C   0  0  0  0  0  0  0  0  0  0  0  0
   24.4589   -4.2334  -15.4259 C   0  0  0  0  0  0  0  0  0  0  0  0
   23.4730   -4.7399  -14.6303 C   0  0  0  0  0  0  0  0  0  0  0  0
   23.2014   -6.0958  -14.7154 C   0  0  0  0  0  0  0  0  0  0  0  0
   22.1470   -6.6382  -13.8588 C   0  0  0  0  0  0  0  0  0  0  0  0
   20.7590   -6.5118  -14.4475 C   0  0  2  0  0  0  0  0  0  0  0  0
   20.7811   -7.3233  -15.6609 N   0  0  0  0  0  0  0  0  0  0  0  0
   20.3405   -5.1350  -14.7142 C   0  0  0  0  0  0  0  0  0  0  0  0
   19.9155   -4.3201  -13.6787 O   0  0  0  0  0  0  0  0  0  0  0  0
   23.8855   -6.9188  -15.5611 C   0  0  0  0  0  0  0  0  0  0  0  0
   24.8756   -6.3709  -16.3504 C   0  0  0  0  0  0  0  0  0  0  0  0
   20.3477   -4.6416  -15.8711 O   0  0  0  0  0  0  0  0  0  0  0  0
  2  1  1  0
  3  2  1  0
  3  4  1  1
  5  7  1  0
  5  3  1  0
  6  5  2  0
  7 11  1  0
  8  9  1  0
  8  7  1  0
  9 10  1  0
 10 11  1  0
 11 12  1  1
 12 21  1  0
 13 12  2  0
 15 14  1  0
 16 15  2  0
 17 16  1  0
 18 24  1  0
 18 17  2  0
 19 18  1  0
 20 22  1  0
 20 21  1  0
 20 19  1  6
 22 23  1  0
 24 25  2  0
 25 15  1  0
 26 22  2  0
M  END
$$$$
