SPY.pdb
     RDKit          3D

 26 27  0  0  1  0  0  0  0  0999 V2000
   26.1934  -14.7788  -19.4670 O   0  0  0  0  0  0  0  0  0  0  0  0
   25.5711  -13.6978  -18.8367 C   0  0  0  0  0  0  0  0  0  0  0  0
   25.7589  -13.8975  -17.3344 C   0  0  2  0  0  0  0  0  0  0  0  0
   25.2526  -15.1902  -17.0146 N   0  0  0  0  0  0  0  0  0  0  0  0
   25.2047  -12.7952  -16.5564 C   0  0  0  0  0  0  0  0  0  0  0  0
   23.9126  -12.8624  -16.4008 O   0  0  0  0  0  0  0  0  0  0  0  0
   25.8349  -11.7117  -15.9663 N   0  0  0  0  0  0  0  0  0  0  0  0
   27.1385  -11.8725  -15.2243 C   0  0  0  0  0  0  0  0  0  0  0  0
   27.9701  -10.7044  -15.7116 C   0  0  0  0  0  0  0  0  0  0  0  0
   26.9883   -9.8849  -16.5672 C   0  0  0  0  0  0  0  0  0  0  0  0
   25.7012  -10.2853  -15.8916 C   0  0  1  0  0  0  0  0  0  0  0  0
   24.4862   -9.6327  -16.2161 C   0  0  0  0  0  0  0  0  0  0  0  0
   23.8901   -9.8305  -17.3092 O   0  0  0  0  0  0  0  0  0  0  0  0
   17.5584   -4.1624  -15.5085 O   0  0  0  0  0  0  0  0  0  0  0  0
   18.6468   -4.9777  -15.2748 C   0  0  0  0  0  0  0  0  0  0  0  0
   18.5471   -6.3541  -15.1909 C   0  0  0  0  0  0  0  0  0  0  0  0
   19.6399   -7.1373  -14.9589 C   0  0  0  0  0  0  0  0  0  0  0  0
   20.8672   -6.5123  -14.8076 C   0  0  0  0  0  0  0  0  0  0  0  0
   22.0373   -7.3529  -14.5549 C   0  0  0  0  0  0  0  0  0  0  0  0
   22.6521   -7.9338  -15.8093 C   0  0  2  0  0  0  0  0  0  0  0  0
   23.8132   -8.6917  -15.3525 N   0  0  0  0  0  0  0  0  0  0  0  0
   23.0082   -6.9393  -16.8223 C   0  0  0  0  0  0  0  0  0  0  0  0
   24.2225   -6.2776  -16.7563 O   0  0  0  0  0  0  0  0  0  0  0  0
   21.0030   -5.1572  -14.8841 C   0  0  0  0  0  0  0  0  0  0  0  0
   19.8757   -4.3978  -15.1200 C   0  0  0  0  0  0  0  0  0  0  0  0
   22.2431   -6.6476  -17.7769 O   0  0  0  0  0  0  0  0  0  0  0  0
  2  1  1  0
  3  2  1  0
  3  4  1  1
  5  7  1  0
  5  3  1  0
  6  5  2  0
  7 11  1  0
  8  9  1  0
  8  7  1  0
  9 10  1  0
 10 11  1  0
 11 12  1  6
 12 21  1  0
 13 12  2  0
 15 14  1  0
 16 15  2  0
 17 16  1  0
 18 24  1  0
 18 17  2  0
 19 18  1  0
 20 22  1  0
 20 21  1  0
 20 19  1  1
 22 23  1  0
 24 25  2  0
 25 15  1  0
 26 22  2  0
M  END
$$$$
