SPY.pdb
     RDKit          3D

 26 27  0  0  1  0  0  0  0  0999 V2000
   13.0410  -10.8737    6.1846 O   0  0  0  0  0  0  0  0  0  0  0  0
   13.5602  -12.0583    5.6554 C   0  0  0  0  0  0  0  0  0  0  0  0
   14.3570  -11.6717    4.4114 C   0  0  2  0  0  0  0  0  0  0  0  0
   13.4524  -11.0377    3.5117 N   0  0  0  0  0  0  0  0  0  0  0  0
   15.1049  -12.7969    3.8618 C   0  0  0  0  0  0  0  0  0  0  0  0
   14.3736  -13.6219    3.1671 O   0  0  0  0  0  0  0  0  0  0  0  0
   16.4506  -13.1107    3.9626 N   0  0  0  0  0  0  0  0  0  0  0  0
   17.5169  -12.0653    3.7481 C   0  0  0  0  0  0  0  0  0  0  0  0
   18.4903  -12.3143    4.8813 C   0  0  0  0  0  0  0  0  0  0  0  0
   17.9655  -13.6014    5.5414 C   0  0  0  0  0  0  0  0  0  0  0  0
   17.2832  -14.2146    4.3449 C   0  0  1  0  0  0  0  0  0  0  0  0
   16.7840  -15.5394    4.4031 C   0  0  0  0  0  0  0  0  0  0  0  0
   15.8391  -15.8666    5.1708 O   0  0  0  0  0  0  0  0  0  0  0  0
   15.4037  -23.9855    2.2150 O   0  0  0  0  0  0  0  0  0  0  0  0
   15.9162  -22.7094    2.3291 C   0  0  0  0  0  0  0  0  0  0  0  0
   17.1286  -22.4410    2.9370 C   0  0  0  0  0  0  0  0  0  0  0  0
   17.6125  -21.1692    3.0363 C   0  0  0  0  0  0  0  0  0  0  0  0
   16.8503  -20.1405    2.5068 C   0  0  0  0  0  0  0  0  0  0  0  0
   17.3684  -18.7771    2.6177 C   0  0  0  0  0  0  0  0  0  0  0  0
   16.7715  -17.9902    3.7638 C   0  0  2  0  0  0  0  0  0  0  0  0
   17.2902  -16.6342    3.6099 N   0  0  0  0  0  0  0  0  0  0  0  0
   17.0593  -18.5422    5.0883 C   0  0  0  0  0  0  0  0  0  0  0  0
   18.2618  -18.2644    5.7156 O   0  0  0  0  0  0  0  0  0  0  0  0
   15.6499  -20.3681    1.9004 C   0  0  0  0  0  0  0  0  0  0  0  0
   15.1928  -21.6672    1.8185 C   0  0  0  0  0  0  0  0  0  0  0  0
   16.2447  -19.2780    5.7022 O   0  0  0  0  0  0  0  0  0  0  0  0
  2  1  1  0
  3  2  1  0
  3  4  1  6
  5  7  1  0
  5  3  1  0
  6  5  2  0
  7 11  1  0
  8  9  1  0
  8  7  1  0
  9 10  1  0
 10 11  1  0
 11 12  1  1
 12 21  1  0
 13 12  2  0
 15 14  1  0
 16 15  2  0
 17 16  1  0
 18 24  1  0
 18 17  2  0
 19 18  1  0
 20 22  1  0
 20 21  1  0
 20 19  1  6
 22 23  1  0
 24 25  2  0
 25 15  1  0
 26 22  2  0
M  END
$$$$
