SPY.pdb
     RDKit          3D

 26 27  0  0  1  0  0  0  0  0999 V2000
   18.3043   -7.2857  -16.6392 O   0  0  0  0  0  0  0  0  0  0  0  0
   18.0937   -8.6426  -16.8988 C   0  0  0  0  0  0  0  0  0  0  0  0
   18.9936   -9.4183  -15.9394 C   0  0  2  0  0  0  0  0  0  0  0  0
   18.9244  -10.7911  -16.3138 N   0  0  0  0  0  0  0  0  0  0  0  0
   18.6894   -9.1317  -14.5420 C   0  0  0  0  0  0  0  0  0  0  0  0
   17.4474   -9.3591  -14.2197 O   0  0  0  0  0  0  0  0  0  0  0  0
   19.5084   -8.6674  -13.5256 N   0  0  0  0  0  0  0  0  0  0  0  0
   20.8957   -9.2241  -13.3215 C   0  0  0  0  0  0  0  0  0  0  0  0
   21.7421   -7.9899  -13.0894 C   0  0  0  0  0  0  0  0  0  0  0  0
   20.7144   -6.8471  -13.0152 C   0  0  0  0  0  0  0  0  0  0  0  0
   19.5248   -7.6356  -12.5291 C   0  0  1  0  0  0  0  0  0  0  0  0
   18.3402   -6.9723  -12.1236 C   0  0  0  0  0  0  0  0  0  0  0  0
   17.5132   -6.5092  -12.9548 O   0  0  0  0  0  0  0  0  0  0  0  0
   11.8323   -8.2245   -6.9340 O   0  0  0  0  0  0  0  0  0  0  0  0
   12.7835   -7.9622   -7.8986 C   0  0  0  0  0  0  0  0  0  0  0  0
   13.8569   -8.7997   -8.1390 C   0  0  0  0  0  0  0  0  0  0  0  0
   14.7835   -8.5166   -9.0996 C   0  0  0  0  0  0  0  0  0  0  0  0
   14.6209   -7.3552   -9.8374 C   0  0  0  0  0  0  0  0  0  0  0  0
   15.6173   -7.0508  -10.8640 C   0  0  0  0  0  0  0  0  0  0  0  0
   16.7015   -6.1038  -10.3986 C   0  0  2  0  0  0  0  0  0  0  0  0
   17.9590   -6.7581  -10.7478 N   0  0  0  0  0  0  0  0  0  0  0  0
   16.6349   -5.7635   -8.9767 C   0  0  0  0  0  0  0  0  0  0  0  0
   15.8283   -4.7252   -8.5431 O   0  0  0  0  0  0  0  0  0  0  0  0
   13.5745   -6.5057   -9.6276 C   0  0  0  0  0  0  0  0  0  0  0  0
   12.6573   -6.8250   -8.6478 C   0  0  0  0  0  0  0  0  0  0  0  0
   17.2937   -6.3855   -8.1043 O   0  0  0  0  0  0  0  0  0  0  0  0
  2  1  1  0
  3  2  1  0
  3  4  1  1
  5  7  1  0
  5  3  1  0
  6  5  2  0
  7 11  1  0
  8  9  1  0
  8  7  1  0
  9 10  1  0
 10 11  1  0
 11 12  1  6
 12 21  1  0
 13 12  2  0
 15 14  1  0
 16 15  2  0
 17 16  1  0
 18 24  1  0
 18 17  2  0
 19 18  1  0
 20 22  1  0
 20 21  1  0
 20 19  1  1
 22 23  1  0
 24 25  2  0
 25 15  1  0
 26 22  2  0
M  END
$$$$
