SPY.pdb
     RDKit          3D

 26 27  0  0  1  0  0  0  0  0999 V2000
   25.4333  -17.4076  -16.0463 O   0  0  0  0  0  0  0  0  0  0  0  0
   25.0273  -18.1768  -17.1401 C   0  0  0  0  0  0  0  0  0  0  0  0
   25.8076  -19.4875  -17.0695 C   0  0  2  0  0  0  0  0  0  0  0  0
   25.2905  -20.3412  -18.0861 N   0  0  0  0  0  0  0  0  0  0  0  0
   25.8229  -20.0502  -15.7238 C   0  0  0  0  0  0  0  0  0  0  0  0
   24.6350  -20.2652  -15.2332 O   0  0  0  0  0  0  0  0  0  0  0  0
   26.8905  -20.3875  -14.9078 N   0  0  0  0  0  0  0  0  0  0  0  0
   28.1397  -21.0173  -15.4725 C   0  0  0  0  0  0  0  0  0  0  0  0
   29.2586  -20.2638  -14.7841 C   0  0  0  0  0  0  0  0  0  0  0  0
   28.5300  -19.3817  -13.7552 C   0  0  0  0  0  0  0  0  0  0  0  0
   27.3054  -20.2352  -13.5430 C   0  0  1  0  0  0  0  0  0  0  0  0
   26.3825  -19.9245  -12.5138 C   0  0  0  0  0  0  0  0  0  0  0  0
   25.9256  -18.7607  -12.3519 O   0  0  0  0  0  0  0  0  0  0  0  0
   20.5256  -18.7741  -14.5380 O   0  0  0  0  0  0  0  0  0  0  0  0
   21.3330  -19.3775  -13.5957 C   0  0  0  0  0  0  0  0  0  0  0  0
   22.3617  -20.2380  -13.9316 C   0  0  0  0  0  0  0  0  0  0  0  0
   23.1455  -20.8214  -12.9793 C   0  0  0  0  0  0  0  0  0  0  0  0
   22.8825  -20.5272  -11.6512 C   0  0  0  0  0  0  0  0  0  0  0  0
   23.7210  -21.1566  -10.6313 C   0  0  0  0  0  0  0  0  0  0  0  0
   25.0527  -20.4679  -10.4277 C   0  0  2  0  0  0  0  0  0  0  0  0
   25.8764  -20.8823  -11.5596 N   0  0  0  0  0  0  0  0  0  0  0  0
   25.6931  -20.7614   -9.1449 C   0  0  0  0  0  0  0  0  0  0  0  0
   25.2525  -20.1451   -7.9861 O   0  0  0  0  0  0  0  0  0  0  0  0
   21.8762  -19.6832  -11.2830 C   0  0  0  0  0  0  0  0  0  0  0  0
   21.1045  -19.1119  -12.2737 C   0  0  0  0  0  0  0  0  0  0  0  0
   26.6518  -21.5686   -9.0405 O   0  0  0  0  0  0  0  0  0  0  0  0
  2  1  1  0
  3  2  1  0
  3  4  1  6
  5  7  1  0
  5  3  1  0
  6  5  2  0
  7 11  1  0
  8  9  1  0
  8  7  1  0
  9 10  1  0
 10 11  1  0
 11 12  1  1
 12 21  1  0
 13 12  2  0
 15 14  1  0
 16 15  2  0
 17 16  1  0
 18 24  1  0
 18 17  2  0
 19 18  1  0
 20 22  1  0
 20 21  1  0
 20 19  1  1
 22 23  1  0
 24 25  2  0
 25 15  1  0
 26 22  2  0
M  END
$$$$
