SPY.pdb
     RDKit          3D

 26 27  0  0  1  0  0  0  0  0999 V2000
   22.9750  -18.3159  -15.9804 O   0  0  0  0  0  0  0  0  0  0  0  0
   23.2770  -17.1690  -16.7196 C   0  0  0  0  0  0  0  0  0  0  0  0
   24.2334  -17.6004  -17.8291 C   0  0  2  0  0  0  0  0  0  0  0  0
   23.4420  -18.1558  -18.8754 N   0  0  0  0  0  0  0  0  0  0  0  0
   25.3075  -18.4534  -17.3328 C   0  0  0  0  0  0  0  0  0  0  0  0
   24.9433  -19.6880  -17.1292 O   0  0  0  0  0  0  0  0  0  0  0  0
   26.6313  -18.1539  -17.0551 N   0  0  0  0  0  0  0  0  0  0  0  0
   27.3696  -17.0841  -17.8209 C   0  0  0  0  0  0  0  0  0  0  0  0
   28.1045  -16.3184  -16.7406 C   0  0  0  0  0  0  0  0  0  0  0  0
   27.8449  -17.1396  -15.4655 C   0  0  0  0  0  0  0  0  0  0  0  0
   27.6445  -18.4935  -16.0980 C   0  0  1  0  0  0  0  0  0  0  0  0
   27.5497  -19.6557  -15.2930 C   0  0  0  0  0  0  0  0  0  0  0  0
   28.5701  -20.2588  -14.8636 O   0  0  0  0  0  0  0  0  0  0  0  0
   24.1519  -21.5158   -7.6599 O   0  0  0  0  0  0  0  0  0  0  0  0
   24.6768  -21.1303   -8.8764 C   0  0  0  0  0  0  0  0  0  0  0  0
   23.9027  -20.6005   -9.8920 C   0  0  0  0  0  0  0  0  0  0  0  0
   24.4476  -20.2272  -11.0858 C   0  0  0  0  0  0  0  0  0  0  0  0
   25.8122  -20.3940  -11.2581 C   0  0  0  0  0  0  0  0  0  0  0  0
   26.3943  -19.9972  -12.5400 C   0  0  0  0  0  0  0  0  0  0  0  0
   26.1962  -21.0166  -13.6403 C   0  0  2  0  0  0  0  0  0  0  0  0
   26.3050  -20.2632  -14.8860 N   0  0  0  0  0  0  0  0  0  0  0  0
   24.9379  -21.7591  -13.5546 C   0  0  0  0  0  0  0  0  0  0  0  0
   23.8350  -21.3531  -14.2864 O   0  0  0  0  0  0  0  0  0  0  0  0
   26.6066  -20.9134  -10.2784 C   0  0  0  0  0  0  0  0  0  0  0  0
   26.0203  -21.2796   -9.0845 C   0  0  0  0  0  0  0  0  0  0  0  0
   24.8052  -22.7767  -12.8276 O   0  0  0  0  0  0  0  0  0  0  0  0
  2  1  1  0
  3  2  1  0
  3  4  1  6
  5  7  1  0
  5  3  1  0
  6  5  2  0
  7 11  1  0
  8  9  1  0
  8  7  1  0
  9 10  1  0
 10 11  1  0
 11 12  1  1
 12 21  1  0
 13 12  2  0
 15 14  1  0
 16 15  2  0
 17 16  1  0
 18 24  1  0
 18 17  2  0
 19 18  1  0
 20 22  1  0
 20 21  1  0
 20 19  1  1
 22 23  1  0
 24 25  2  0
 25 15  1  0
 26 22  2  0
M  END
$$$$
