SPY.pdb
     RDKit          3D

 26 27  0  0  1  0  0  0  0  0999 V2000
   24.7861  -17.9802  -16.1178 O   0  0  0  0  0  0  0  0  0  0  0  0
   24.2024  -19.0653  -16.7772 C   0  0  0  0  0  0  0  0  0  0  0  0
   25.2893  -20.1283  -16.9214 C   0  0  2  0  0  0  0  0  0  0  0  0
   24.8442  -21.0550  -17.9076 N   0  0  0  0  0  0  0  0  0  0  0  0
   25.6682  -20.7093  -15.6383 C   0  0  0  0  0  0  0  0  0  0  0  0
   24.6939  -21.3328  -15.0381 O   0  0  0  0  0  0  0  0  0  0  0  0
   26.8861  -20.7012  -14.9778 N   0  0  0  0  0  0  0  0  0  0  0  0
   28.1549  -21.1352  -15.6691 C   0  0  0  0  0  0  0  0  0  0  0  0
   29.1600  -20.0784  -15.2609 C   0  0  0  0  0  0  0  0  0  0  0  0
   28.4007  -19.2274  -14.2281 C   0  0  0  0  0  0  0  0  0  0  0  0
   27.4399  -20.2748  -13.7251 C   0  0  1  0  0  0  0  0  0  0  0  0
   26.6215  -20.0169  -12.5976 C   0  0  0  0  0  0  0  0  0  0  0  0
   26.0991  -18.8880  -12.3927 O   0  0  0  0  0  0  0  0  0  0  0  0
   20.5788  -19.8287  -14.2021 O   0  0  0  0  0  0  0  0  0  0  0  0
   21.5174  -20.2519  -13.2835 C   0  0  0  0  0  0  0  0  0  0  0  0
   22.5087  -21.1649  -13.5921 C   0  0  0  0  0  0  0  0  0  0  0  0
   23.4248  -21.5666  -12.6642 C   0  0  0  0  0  0  0  0  0  0  0  0
   23.3366  -21.0309  -11.3895 C   0  0  0  0  0  0  0  0  0  0  0  0
   24.3169  -21.4655  -10.3946 C   0  0  0  0  0  0  0  0  0  0  0  0
   25.5755  -20.6262  -10.3728 C   0  0  2  0  0  0  0  0  0  0  0  0
   26.3035  -20.9939  -11.5835 N   0  0  0  0  0  0  0  0  0  0  0  0
   26.3905  -20.7933   -9.1687 C   0  0  0  0  0  0  0  0  0  0  0  0
   25.9052  -20.3949   -7.9348 O   0  0  0  0  0  0  0  0  0  0  0  0
   22.3721  -20.1283  -11.0495 C   0  0  0  0  0  0  0  0  0  0  0  0
   21.4632  -19.7457  -12.0141 C   0  0  0  0  0  0  0  0  0  0  0  0
   27.5433  -21.2950   -9.2008 O   0  0  0  0  0  0  0  0  0  0  0  0
  2  1  1  0
  3  2  1  0
  3  4  1  6
  5  7  1  0
  5  3  1  0
  6  5  2  0
  7 11  1  0
  8  9  1  0
  8  7  1  0
  9 10  1  0
 10 11  1  0
 11 12  1  1
 12 21  1  0
 13 12  2  0
 15 14  1  0
 16 15  2  0
 17 16  1  0
 18 24  1  0
 18 17  2  0
 19 18  1  0
 20 22  1  0
 20 21  1  0
 20 19  1  1
 22 23  1  0
 24 25  2  0
 25 15  1  0
 26 22  2  0
M  END
$$$$
