SPY.pdb
     RDKit          3D

 26 27  0  0  1  0  0  0  0  0999 V2000
   26.1284   -6.7474  -18.3314 O   0  0  0  0  0  0  0  0  0  0  0  0
   26.1008   -7.4715  -19.5264 C   0  0  0  0  0  0  0  0  0  0  0  0
   25.8176   -8.9249  -19.1531 C   0  0  2  0  0  0  0  0  0  0  0  0
   25.9954   -9.7050  -20.3318 N   0  0  0  0  0  0  0  0  0  0  0  0
   24.5321   -9.0832  -18.4824 C   0  0  0  0  0  0  0  0  0  0  0  0
   23.5336   -8.5577  -19.1343 O   0  0  0  0  0  0  0  0  0  0  0  0
   24.2199   -9.7004  -17.2819 N   0  0  0  0  0  0  0  0  0  0  0  0
   24.8107  -11.0384  -16.9122 C   0  0  0  0  0  0  0  0  0  0  0  0
   25.2147  -10.8592  -15.4637 C   0  0  0  0  0  0  0  0  0  0  0  0
   24.6549   -9.4745  -15.0937 C   0  0  0  0  0  0  0  0  0  0  0  0
   23.5067   -9.4199  -16.0693 C   0  0  1  0  0  0  0  0  0  0  0  0
   22.5474   -8.3800  -15.9924 C   0  0  0  0  0  0  0  0  0  0  0  0
   22.8792   -7.1659  -15.9202 O   0  0  0  0  0  0  0  0  0  0  0  0
   16.1309  -12.0506  -17.5379 O   0  0  0  0  0  0  0  0  0  0  0  0
   16.9460  -10.9407  -17.4510 C   0  0  0  0  0  0  0  0  0  0  0  0
   18.1589  -10.8490  -18.1082 C   0  0  0  0  0  0  0  0  0  0  0  0
   18.9458   -9.7392  -18.0052 C   0  0  0  0  0  0  0  0  0  0  0  0
   18.4946   -8.6933  -17.2163 C   0  0  0  0  0  0  0  0  0  0  0  0
   19.3412   -7.5059  -17.1035 C   0  0  0  0  0  0  0  0  0  0  0  0
   20.1854   -7.4769  -15.8483 C   0  0  2  0  0  0  0  0  0  0  0  0
   21.1192   -8.5904  -15.9877 N   0  0  0  0  0  0  0  0  0  0  0  0
   19.4184   -7.5547  -14.6042 C   0  0  0  0  0  0  0  0  0  0  0  0
   19.5624   -8.6430  -13.7607 O   0  0  0  0  0  0  0  0  0  0  0  0
   17.3037   -8.7490  -16.5536 C   0  0  0  0  0  0  0  0  0  0  0  0
   16.5349   -9.8873  -16.6816 C   0  0  0  0  0  0  0  0  0  0  0  0
   18.6115   -6.6558  -14.2539 O   0  0  0  0  0  0  0  0  0  0  0  0
  2  1  1  0
  3  2  1  0
  3  4  1  6
  5  7  1  0
  5  3  1  0
  6  5  2  0
  7 11  1  0
  8  9  1  0
  8  7  1  0
  9 10  1  0
 10 11  1  0
 11 12  1  6
 12 21  1  0
 13 12  2  0
 15 14  1  0
 16 15  2  0
 17 16  1  0
 18 24  1  0
 18 17  2  0
 19 18  1  0
 20 22  1  0
 20 21  1  0
 20 19  1  6
 22 23  1  0
 24 25  2  0
 25 15  1  0
 26 22  2  0
M  END
$$$$
