SPY.pdb
     RDKit          3D

 26 27  0  0  1  0  0  0  0  0999 V2000
   21.6074   -7.9788  -19.1709 O   0  0  0  0  0  0  0  0  0  0  0  0
   21.5771   -9.3245  -18.7953 C   0  0  0  0  0  0  0  0  0  0  0  0
   21.8370   -9.3668  -17.2911 C   0  0  2  0  0  0  0  0  0  0  0  0
   22.1021  -10.7237  -16.9473 N   0  0  0  0  0  0  0  0  0  0  0  0
   20.7750   -8.7209  -16.5280 C   0  0  0  0  0  0  0  0  0  0  0  0
   19.5867   -9.1900  -16.7847 O   0  0  0  0  0  0  0  0  0  0  0  0
   20.8403   -7.7065  -15.5866 N   0  0  0  0  0  0  0  0  0  0  0  0
   21.8868   -7.7126  -14.4999 C   0  0  0  0  0  0  0  0  0  0  0  0
   22.3849   -6.2826  -14.4798 C   0  0  0  0  0  0  0  0  0  0  0  0
   21.4442   -5.5510  -15.4531 C   0  0  0  0  0  0  0  0  0  0  0  0
   20.2317   -6.4364  -15.3140 C   0  0  1  0  0  0  0  0  0  0  0  0
   18.9969   -6.0608  -15.8986 C   0  0  0  0  0  0  0  0  0  0  0  0
   18.9044   -5.7198  -17.1088 O   0  0  0  0  0  0  0  0  0  0  0  0
   10.6518   -6.0062  -18.2571 O   0  0  0  0  0  0  0  0  0  0  0  0
   11.9129   -6.2137  -17.7370 C   0  0  0  0  0  0  0  0  0  0  0  0
   13.0583   -6.1698  -18.5101 C   0  0  0  0  0  0  0  0  0  0  0  0
   14.2938   -6.3787  -17.9701 C   0  0  0  0  0  0  0  0  0  0  0  0
   14.3739   -6.6391  -16.6117 C   0  0  0  0  0  0  0  0  0  0  0  0
   15.6986   -6.8670  -16.0350 C   0  0  0  0  0  0  0  0  0  0  0  0
   16.5066   -5.6017  -15.8467 C   0  0  2  0  0  0  0  0  0  0  0  0
   17.7393   -6.0272  -15.1905 N   0  0  0  0  0  0  0  0  0  0  0  0
   15.8170   -4.5526  -15.0945 C   0  0  0  0  0  0  0  0  0  0  0  0
   15.8982   -4.5141  -13.7130 O   0  0  0  0  0  0  0  0  0  0  0  0
   13.2653   -6.6902  -15.8185 C   0  0  0  0  0  0  0  0  0  0  0  0
   12.0330   -6.4738  -16.3997 C   0  0  0  0  0  0  0  0  0  0  0  0
   15.1343   -3.6589  -15.6576 O   0  0  0  0  0  0  0  0  0  0  0  0
  2  1  1  0
  3  2  1  0
  3  4  1  1
  5  7  1  0
  5  3  1  0
  6  5  2  0
  7 11  1  0
  8  9  1  0
  8  7  1  0
  9 10  1  0
 10 11  1  0
 11 12  1  6
 12 21  1  0
 13 12  2  0
 15 14  1  0
 16 15  2  0
 17 16  1  0
 18 24  1  0
 18 17  2  0
 19 18  1  0
 20 22  1  0
 20 21  1  0
 20 19  1  1
 22 23  1  0
 24 25  2  0
 25 15  1  0
 26 22  2  0
M  END
$$$$
