RGE.pdb
     RDKit          3D

 25 24  0  0  1  0  0  0  0  0999 V2000
    2.5837  -27.5672   22.5343 N   0  0  0  0  0  0  0  0  0  0  0  0
    2.4139  -26.2720   23.1123 C   0  0  0  0  0  0  0  0  0  0  0  0
    3.4651  -25.6521   23.5011 N   0  0  0  0  0  0  0  0  0  0  0  0
    1.1132  -25.7462   23.2236 N   0  0  0  0  0  0  0  0  0  0  0  0
   -0.0406  -26.5291   22.8977 C   0  0  0  0  0  0  0  0  0  0  0  0
   -1.1122  -26.3782   23.9572 C   0  0  0  0  0  0  0  0  0  0  0  0
   -2.3728  -25.9724   23.2698 C   0  0  0  0  0  0  0  0  0  0  0  0
   -3.1128  -24.9792   24.0957 C   0  0  2  0  0  0  0  0  0  0  0  0
   -2.6785  -24.9673   25.4674 N   0  0  0  0  0  0  0  0  0  0  0  0
   -4.5573  -25.2982   24.0127 C   0  0  0  0  0  0  0  0  0  0  0  0
   -5.2209  -25.3080   22.9523 O   0  0  0  0  0  0  0  0  0  0  0  0
    3.4818  -24.7424   23.9677 N   0  0  0  0  0  0  0  0  0  0  0  0
   -5.2686  -25.6236   25.2321 C   0  0  0  0  0  0  0  0  0  0  0  0
   -6.6763  -25.8868   25.1186 C   0  0  0  0  0  0  0  0  0  0  0  0
   -7.2959  -26.1717   26.3985 O   0  0  0  0  0  0  0  0  0  0  0  0
   -8.5314  -26.4686   26.4076 N   0  0  0  0  0  0  0  0  0  0  0  0
   -6.6180  -26.1395   27.6207 C   0  0  1  0  0  0  0  0  0  0  0  0
   -7.3378  -26.4950   28.8731 C   0  0  0  0  0  0  0  0  0  0  0  0
   -6.3247  -26.9269   29.8868 C   0  0  0  0  0  0  0  0  0  0  0  0
   -6.9461  -27.1972   31.2103 C   0  0  0  0  0  0  0  0  0  0  0  0
   -5.9948  -27.5844   32.2526 O   0  0  0  0  0  0  0  0  0  0  0  0
   -4.7564  -27.5521   31.9766 C   0  0  0  0  0  0  0  0  0  0  0  0
   -8.0518  -25.2637   29.2892 O   0  0  0  0  0  0  0  0  0  0  0  0
   -9.1041  -25.2508   30.1958 O   0  0  0  0  0  0  0  0  0  0  0  0
   -6.3017  -27.9930   33.5377 O   0  0  0  0  0  0  0  0  0  0  0  0
  1  2  1  0
  2  3  2  0
  4  2  1  0
  5  4  1  0
  6  5  1  0
  6  7  1  0
  7  8  1  0
  8  9  1  1
 10 12  1  0
 10  8  1  0
 11 10  2  0
 13 14  1  0
 13 12  1  0
 14 16  1  0
 15 14  2  0
 16 17  1  0
 17 22  1  0
 18 19  1  0
 17 18  1  1
 20 24  1  0
 20 19  1  0
 21 20  2  0
 22 25  2  0
 22 23  1  0
M  END
$$$$
