RGE.pdb
     RDKit          3D

 25 24  0  0  1  0  0  0  0  0999 V2000
    7.0383  -13.2996   18.8711 N   0  0  0  0  0  0  0  0  0  0  0  0
    7.6487  -13.1224   17.5919 C   0  0  0  0  0  0  0  0  0  0  0  0
    6.9100  -13.2672   16.5556 N   0  0  0  0  0  0  0  0  0  0  0  0
    9.0173  -12.7993   17.5344 N   0  0  0  0  0  0  0  0  0  0  0  0
    9.9828  -13.4882   18.3366 C   0  0  0  0  0  0  0  0  0  0  0  0
    9.7120  -14.9783   18.3467 C   0  0  0  0  0  0  0  0  0  0  0  0
   10.7455  -15.6192   19.2111 C   0  0  0  0  0  0  0  0  0  0  0  0
   11.9884  -15.8667   18.4300 C   0  0  2  0  0  0  0  0  0  0  0  0
   12.5216  -17.1862   18.6423 N   0  0  0  0  0  0  0  0  0  0  0  0
   12.9839  -14.8382   18.8130 C   0  0  0  0  0  0  0  0  0  0  0  0
   13.0120  -13.6743   18.3552 O   0  0  0  0  0  0  0  0  0  0  0  0
    7.2241  -13.1936   15.5853 N   0  0  0  0  0  0  0  0  0  0  0  0
   14.0032  -15.1842   19.7825 C   0  0  0  0  0  0  0  0  0  0  0  0
   14.6346  -14.1008   20.4837 C   0  0  0  0  0  0  0  0  0  0  0  0
   15.6246  -14.5568   21.4404 O   0  0  0  0  0  0  0  0  0  0  0  0
   16.2478  -13.6785   22.1147 N   0  0  0  0  0  0  0  0  0  0  0  0
   15.9346  -15.9013   21.6653 C   0  0  1  0  0  0  0  0  0  0  0  0
   15.4998  -16.5574   22.9276 C   0  0  0  0  0  0  0  0  0  0  0  0
   14.0081  -16.4658   23.0111 C   0  0  0  0  0  0  0  0  0  0  0  0
   13.5609  -15.8744   24.2999 C   0  0  0  0  0  0  0  0  0  0  0  0
   12.2483  -16.3385   24.7504 O   0  0  0  0  0  0  0  0  0  0  0  0
   11.9839  -17.5760   24.6536 C   0  0  0  0  0  0  0  0  0  0  0  0
   15.9669  -17.9615   22.8319 O   0  0  0  0  0  0  0  0  0  0  0  0
   16.3520  -18.7232   23.9279 O   0  0  0  0  0  0  0  0  0  0  0  0
   11.2371  -15.5597   25.2828 O   0  0  0  0  0  0  0  0  0  0  0  0
  1  2  1  0
  2  3  2  0
  4  2  1  0
  5  4  1  0
  6  5  1  0
  6  7  1  0
  7  8  1  0
  8  9  1  1
 10 12  1  0
 10  8  1  0
 11 10  2  0
 13 14  1  0
 13 12  1  0
 14 16  1  0
 15 14  2  0
 16 17  1  0
 17 22  1  0
 18 19  1  0
 17 18  1  1
 20 24  1  0
 20 19  1  0
 21 20  2  0
 22 25  2  0
 22 23  1  0
M  END
$$$$
