RGE.pdb
     RDKit          3D

 25 24  0  0  1  0  0  0  0  0999 V2000
    7.6639  -12.0762   16.4964 N   0  0  0  0  0  0  0  0  0  0  0  0
    6.9980  -13.1445   17.1715 C   0  0  0  0  0  0  0  0  0  0  0  0
    6.0536  -12.8389   17.9810 N   0  0  0  0  0  0  0  0  0  0  0  0
    7.4075  -14.4663   16.9152 N   0  0  0  0  0  0  0  0  0  0  0  0
    7.9352  -15.3003   17.9526 C   0  0  0  0  0  0  0  0  0  0  0  0
    8.7687  -14.4911   18.9244 C   0  0  0  0  0  0  0  0  0  0  0  0
    9.3054  -15.4317   19.9508 C   0  0  0  0  0  0  0  0  0  0  0  0
   10.3388  -16.3171   19.3474 C   0  0  2  0  0  0  0  0  0  0  0  0
   10.8393  -17.2958   20.2759 N   0  0  0  0  0  0  0  0  0  0  0  0
   11.4427  -15.4624   18.8510 C   0  0  0  0  0  0  0  0  0  0  0  0
   11.3042  -14.5387   18.0188 O   0  0  0  0  0  0  0  0  0  0  0  0
    5.5647  -13.4906   18.5990 N   0  0  0  0  0  0  0  0  0  0  0  0
   12.7820  -15.6964   19.3512 C   0  0  0  0  0  0  0  0  0  0  0  0
   13.8149  -14.8068   18.8978 C   0  0  0  0  0  0  0  0  0  0  0  0
   14.7902  -14.5118   19.9299 O   0  0  0  0  0  0  0  0  0  0  0  0
   15.7692  -13.7614   19.6251 N   0  0  0  0  0  0  0  0  0  0  0  0
   14.7190  -15.0021   21.2371 C   0  0  2  0  0  0  0  0  0  0  0  0
   15.9713  -15.2602   21.9974 C   0  0  0  0  0  0  0  0  0  0  0  0
   15.6326  -16.1165   23.1774 C   0  0  0  0  0  0  0  0  0  0  0  0
   16.8382  -16.4590   23.9774 C   0  0  0  0  0  0  0  0  0  0  0  0
   16.5616  -17.2704   25.1632 O   0  0  0  0  0  0  0  0  0  0  0  0
   16.1712  -18.4662   24.9942 C   0  0  0  0  0  0  0  0  0  0  0  0
   16.8805  -15.9507   21.0510 O   0  0  0  0  0  0  0  0  0  0  0  0
   16.4702  -16.9474   20.1747 O   0  0  0  0  0  0  0  0  0  0  0  0
   16.6801  -16.8701   26.4816 O   0  0  0  0  0  0  0  0  0  0  0  0
  1  2  1  0
  2  3  2  0
  4  2  1  0
  5  4  1  0
  6  5  1  0
  6  7  1  0
  7  8  1  0
  8  9  1  1
 10 12  1  0
 10  8  1  0
 11 10  2  0
 13 14  1  0
 13 12  1  0
 14 16  1  0
 15 14  2  0
 16 17  1  0
 17 22  1  0
 18 19  1  0
 17 18  1  6
 20 24  1  0
 20 19  1  0
 21 20  2  0
 22 25  2  0
 22 23  1  0
M  END
$$$$
