RGE.pdb
     RDKit          3D

 25 24  0  0  1  0  0  0  0  0999 V2000
    8.5746  -12.6568   18.0648 N   0  0  0  0  0  0  0  0  0  0  0  0
    7.9696  -12.3804   19.3289 C   0  0  0  0  0  0  0  0  0  0  0  0
    8.3536  -11.3309   19.9549 N   0  0  0  0  0  0  0  0  0  0  0  0
    6.9907  -13.2651   19.8182 N   0  0  0  0  0  0  0  0  0  0  0  0
    7.2087  -14.6800   19.8476 C   0  0  0  0  0  0  0  0  0  0  0  0
    7.7058  -15.1215   21.2085 C   0  0  0  0  0  0  0  0  0  0  0  0
    7.9337  -16.5949   21.1496 C   0  0  0  0  0  0  0  0  0  0  0  0
    8.9841  -16.9135   20.1439 C   0  0  2  0  0  0  0  0  0  0  0  0
    8.5479  -17.8867   19.1779 N   0  0  0  0  0  0  0  0  0  0  0  0
   10.1801  -17.4032   20.8684 C   0  0  0  0  0  0  0  0  0  0  0  0
   10.3274  -18.5745   21.2823 O   0  0  0  0  0  0  0  0  0  0  0  0
    8.0071  -11.0203   20.8654 N   0  0  0  0  0  0  0  0  0  0  0  0
   11.2646  -16.4777   21.1255 C   0  0  0  0  0  0  0  0  0  0  0  0
   12.4773  -17.0246   21.6678 C   0  0  0  0  0  0  0  0  0  0  0  0
   12.2777  -17.6522   22.9599 O   0  0  0  0  0  0  0  0  0  0  0  0
   11.1274  -17.5630   23.4924 N   0  0  0  0  0  0  0  0  0  0  0  0
   13.2718  -18.3480   23.6541 C   0  0  1  0  0  0  0  0  0  0  0  0
   12.9490  -18.9935   24.9549 C   0  0  0  0  0  0  0  0  0  0  0  0
   13.8746  -20.1550   25.1416 C   0  0  0  0  0  0  0  0  0  0  0  0
   15.0894  -19.7768   25.9111 C   0  0  0  0  0  0  0  0  0  0  0  0
   16.1513  -20.7833   25.8897 O   0  0  0  0  0  0  0  0  0  0  0  0
   15.9522  -21.8518   25.2343 C   0  0  0  0  0  0  0  0  0  0  0  0
   13.1547  -17.9465   25.9847 O   0  0  0  0  0  0  0  0  0  0  0  0
   12.7371  -18.0688   27.3039 O   0  0  0  0  0  0  0  0  0  0  0  0
   17.3792  -20.6992   26.5205 O   0  0  0  0  0  0  0  0  0  0  0  0
  1  2  1  0
  2  3  2  0
  4  2  1  0
  5  4  1  0
  6  5  1  0
  6  7  1  0
  7  8  1  0
  8  9  1  6
 10 12  1  0
 10  8  1  0
 11 10  2  0
 13 14  1  0
 13 12  1  0
 14 16  1  0
 15 14  2  0
 16 17  1  0
 17 22  1  0
 18 19  1  0
 17 18  1  1
 20 24  1  0
 20 19  1  0
 21 20  2  0
 22 25  2  0
 22 23  1  0
M  END
$$$$
