RGE.pdb
     RDKit          3D

 25 24  0  0  1  0  0  0  0  0999 V2000
    7.9117  -12.7355   18.8421 N   0  0  0  0  0  0  0  0  0  0  0  0
    7.9525  -12.7118   20.2697 C   0  0  0  0  0  0  0  0  0  0  0  0
    8.7370  -11.8671   20.8280 N   0  0  0  0  0  0  0  0  0  0  0  0
    7.1361  -13.6078   20.9847 N   0  0  0  0  0  0  0  0  0  0  0  0
    6.6257  -14.8008   20.3793 C   0  0  0  0  0  0  0  0  0  0  0  0
    7.7547  -15.6793   19.8818 C   0  0  0  0  0  0  0  0  0  0  0  0
    7.1558  -16.9654   19.4196 C   0  0  0  0  0  0  0  0  0  0  0  0
    7.9483  -18.1162   19.9332 C   0  0  2  0  0  0  0  0  0  0  0  0
    7.7278  -18.3581   21.3344 N   0  0  0  0  0  0  0  0  0  0  0  0
    9.3807  -17.8391   19.6748 C   0  0  0  0  0  0  0  0  0  0  0  0
    9.8102  -17.1756   18.7051 O   0  0  0  0  0  0  0  0  0  0  0  0
    8.8648  -11.7485   21.8356 N   0  0  0  0  0  0  0  0  0  0  0  0
   10.3676  -18.3641   20.5963 C   0  0  0  0  0  0  0  0  0  0  0  0
   11.7297  -17.9502   20.4025 C   0  0  0  0  0  0  0  0  0  0  0  0
   12.1601  -16.9708   21.3817 O   0  0  0  0  0  0  0  0  0  0  0  0
   11.2697  -16.2513   21.9333 N   0  0  0  0  0  0  0  0  0  0  0  0
   13.4923  -16.7702   21.7548 C   0  0  1  0  0  0  0  0  0  0  0  0
   13.8148  -16.3648   23.1493 C   0  0  0  0  0  0  0  0  0  0  0  0
   13.3962  -17.4720   24.0655 C   0  0  0  0  0  0  0  0  0  0  0  0
   13.3061  -17.0173   25.4783 C   0  0  0  0  0  0  0  0  0  0  0  0
   12.1065  -17.4739   26.1809 O   0  0  0  0  0  0  0  0  0  0  0  0
   11.9084  -17.0570   27.3631 C   0  0  0  0  0  0  0  0  0  0  0  0
   15.2811  -16.1453   23.1747 O   0  0  0  0  0  0  0  0  0  0  0  0
   16.1338  -16.5072   22.1396 O   0  0  0  0  0  0  0  0  0  0  0  0
   11.1398  -18.3317   25.6888 O   0  0  0  0  0  0  0  0  0  0  0  0
  1  2  1  0
  2  3  2  0
  4  2  1  0
  5  4  1  0
  6  5  1  0
  6  7  1  0
  7  8  1  0
  8  9  1  1
 10 12  1  0
 10  8  1  0
 11 10  2  0
 13 14  1  0
 13 12  1  0
 14 16  1  0
 15 14  2  0
 16 17  1  0
 17 22  1  0
 18 19  1  0
 17 18  1  1
 20 24  1  0
 20 19  1  0
 21 20  2  0
 22 25  2  0
 22 23  1  0
M  END
$$$$
