RGE.pdb
     RDKit          3D

 25 24  0  0  1  0  0  0  0  0999 V2000
    7.5869  -14.2004   14.6079 N   0  0  0  0  0  0  0  0  0  0  0  0
    7.2820  -13.4694   15.7966 C   0  0  0  0  0  0  0  0  0  0  0  0
    8.0475  -12.4897   16.1049 N   0  0  0  0  0  0  0  0  0  0  0  0
    6.1661  -13.8570   16.5616 N   0  0  0  0  0  0  0  0  0  0  0  0
    6.3150  -14.4188   17.8703 C   0  0  0  0  0  0  0  0  0  0  0  0
    7.6601  -14.0553   18.4640 C   0  0  0  0  0  0  0  0  0  0  0  0
    7.7273  -14.6533   19.8293 C   0  0  0  0  0  0  0  0  0  0  0  0
    9.1434  -14.9108   20.2093 C   0  0  2  0  0  0  0  0  0  0  0  0
    9.6103  -16.1972   19.7645 N   0  0  0  0  0  0  0  0  0  0  0  0
    9.2503  -14.8026   21.6832 C   0  0  0  0  0  0  0  0  0  0  0  0
    8.8849  -13.8084   22.3489 O   0  0  0  0  0  0  0  0  0  0  0  0
    7.9544  -11.8993   16.9345 N   0  0  0  0  0  0  0  0  0  0  0  0
    9.8143  -15.9133   22.4228 C   0  0  0  0  0  0  0  0  0  0  0  0
    9.7992  -15.8203   23.8563 C   0  0  0  0  0  0  0  0  0  0  0  0
   10.3917  -16.9786   24.4970 O   0  0  0  0  0  0  0  0  0  0  0  0
   10.0196  -18.1290   24.1060 N   0  0  0  0  0  0  0  0  0  0  0  0
   11.3452  -16.9069   25.5168 C   0  0  1  0  0  0  0  0  0  0  0  0
   12.0982  -18.1281   25.9098 C   0  0  0  0  0  0  0  0  0  0  0  0
   13.5574  -17.8606   25.7105 C   0  0  0  0  0  0  0  0  0  0  0  0
   13.7906  -16.7482   24.7518 C   0  0  0  0  0  0  0  0  0  0  0  0
   15.2005  -16.5061   24.4442 O   0  0  0  0  0  0  0  0  0  0  0  0
   16.0735  -17.2132   25.0348 C   0  0  0  0  0  0  0  0  0  0  0  0
   11.7650  -18.3639   27.3354 O   0  0  0  0  0  0  0  0  0  0  0  0
   12.1786  -19.4809   28.0501 O   0  0  0  0  0  0  0  0  0  0  0  0
   15.7017  -15.5684   23.5599 O   0  0  0  0  0  0  0  0  0  0  0  0
  1  2  1  0
  2  3  2  0
  4  2  1  0
  5  4  1  0
  6  5  1  0
  6  7  1  0
  7  8  1  0
  8  9  1  1
 10 12  1  0
 10  8  1  0
 11 10  2  0
 13 14  1  0
 13 12  1  0
 14 16  1  0
 15 14  2  0
 16 17  1  0
 17 22  1  0
 18 19  1  0
 17 18  1  1
 20 24  1  0
 20 19  1  0
 21 20  2  0
 22 25  2  0
 22 23  1  0
M  END
$$$$
