RGE.pdb
     RDKit          3D

 25 24  0  0  1  0  0  0  0  0999 V2000
    8.5364  -13.6457   15.3186 N   0  0  0  0  0  0  0  0  0  0  0  0
    8.3475  -14.8194   16.1106 C   0  0  0  0  0  0  0  0  0  0  0  0
    8.8732  -15.9099   15.6920 N   0  0  0  0  0  0  0  0  0  0  0  0
    7.6018  -14.7202   17.3000 N   0  0  0  0  0  0  0  0  0  0  0  0
    7.2626  -13.4496   17.8664 C   0  0  0  0  0  0  0  0  0  0  0  0
    8.0731  -13.1825   19.1176 C   0  0  0  0  0  0  0  0  0  0  0  0
    7.8738  -14.3384   20.0399 C   0  0  0  0  0  0  0  0  0  0  0  0
    9.1874  -14.9286   20.4168 C   0  0  2  0  0  0  0  0  0  0  0  0
    9.6088  -15.9642   19.5111 N   0  0  0  0  0  0  0  0  0  0  0  0
    9.0732  -15.4609   21.7949 C   0  0  0  0  0  0  0  0  0  0  0  0
    8.6860  -14.7961   22.7813 O   0  0  0  0  0  0  0  0  0  0  0  0
    8.7527  -16.8313   16.1185 N   0  0  0  0  0  0  0  0  0  0  0  0
    9.4298  -16.8438   22.0377 C   0  0  0  0  0  0  0  0  0  0  0  0
    9.1188  -17.3824   23.3328 C   0  0  0  0  0  0  0  0  0  0  0  0
   10.1135  -17.0428   24.3321 O   0  0  0  0  0  0  0  0  0  0  0  0
   11.2083  -16.5365   23.9324 N   0  0  0  0  0  0  0  0  0  0  0  0
    9.9416  -17.2382   25.7056 C   0  0  1  0  0  0  0  0  0  0  0  0
   10.9920  -16.7783   26.6532 C   0  0  0  0  0  0  0  0  0  0  0  0
   10.3179  -16.0891   27.7982 C   0  0  0  0  0  0  0  0  0  0  0  0
    9.7792  -14.7601   27.4049 C   0  0  0  0  0  0  0  0  0  0  0  0
    9.1496  -14.0196   28.4988 O   0  0  0  0  0  0  0  0  0  0  0  0
    9.2594  -14.4801   29.6763 C   0  0  0  0  0  0  0  0  0  0  0  0
   11.7080  -18.0033   27.0843 O   0  0  0  0  0  0  0  0  0  0  0  0
   12.9303  -17.9910   27.7442 O   0  0  0  0  0  0  0  0  0  0  0  0
    8.4289  -12.8443   28.3906 O   0  0  0  0  0  0  0  0  0  0  0  0
  1  2  1  0
  2  3  2  0
  4  2  1  0
  5  4  1  0
  6  5  1  0
  6  7  1  0
  7  8  1  0
  8  9  1  6
 10 12  1  0
 10  8  1  0
 11 10  2  0
 13 14  1  0
 13 12  1  0
 14 16  1  0
 15 14  2  0
 16 17  1  0
 17 22  1  0
 18 19  1  0
 17 18  1  1
 20 24  1  0
 20 19  1  0
 21 20  2  0
 22 25  2  0
 22 23  1  0
M  END
$$$$
