RGE.pdb
     RDKit          3D

 25 24  0  0  1  0  0  0  0  0999 V2000
    9.5016  -14.0064   14.3971 N   0  0  0  0  0  0  0  0  0  0  0  0
    8.1575  -13.9197   14.8727 C   0  0  0  0  0  0  0  0  0  0  0  0
    7.2328  -14.4094   14.1339 N   0  0  0  0  0  0  0  0  0  0  0  0
    7.9184  -13.3079   16.1173 N   0  0  0  0  0  0  0  0  0  0  0  0
    8.1974  -13.9833   17.3487 C   0  0  0  0  0  0  0  0  0  0  0  0
    6.9715  -14.7165   17.8521 C   0  0  0  0  0  0  0  0  0  0  0  0
    6.9718  -14.6269   19.3415 C   0  0  0  0  0  0  0  0  0  0  0  0
    8.2667  -14.0727   19.8235 C   0  0  2  0  0  0  0  0  0  0  0  0
    9.3991  -14.8307   19.3614 N   0  0  0  0  0  0  0  0  0  0  0  0
    8.2316  -14.0453   21.3046 C   0  0  0  0  0  0  0  0  0  0  0  0
    7.4079  -13.3911   21.9817 O   0  0  0  0  0  0  0  0  0  0  0  0
    6.2318  -14.3902   14.3414 N   0  0  0  0  0  0  0  0  0  0  0  0
    9.2099  -14.8226   22.0376 C   0  0  0  0  0  0  0  0  0  0  0  0
    9.1052  -14.8233   23.4705 C   0  0  0  0  0  0  0  0  0  0  0  0
   10.1622  -15.5854   24.1070 O   0  0  0  0  0  0  0  0  0  0  0  0
   10.1988  -15.6046   25.3770 N   0  0  0  0  0  0  0  0  0  0  0  0
   11.1416  -16.2988   23.4097 C   0  0  1  0  0  0  0  0  0  0  0  0
   12.3195  -16.8403   24.1393 C   0  0  0  0  0  0  0  0  0  0  0  0
   12.2030  -18.3322   24.1712 C   0  0  0  0  0  0  0  0  0  0  0  0
   11.7970  -18.8273   25.5132 C   0  0  0  0  0  0  0  0  0  0  0  0
   11.7060  -20.2843   25.6136 O   0  0  0  0  0  0  0  0  0  0  0  0
   12.6897  -20.9762   25.2082 C   0  0  0  0  0  0  0  0  0  0  0  0
   13.5074  -16.3908   23.3738 O   0  0  0  0  0  0  0  0  0  0  0  0
   14.7828  -16.2928   23.9154 O   0  0  0  0  0  0  0  0  0  0  0  0
   10.6405  -21.0109   26.1128 O   0  0  0  0  0  0  0  0  0  0  0  0
  1  2  1  0
  2  3  2  0
  4  2  1  0
  5  4  1  0
  6  5  1  0
  6  7  1  0
  7  8  1  0
  8  9  1  1
 10 12  1  0
 10  8  1  0
 11 10  2  0
 13 14  1  0
 13 12  1  0
 14 16  1  0
 15 14  2  0
 16 17  1  0
 17 22  1  0
 18 19  1  0
 17 18  1  1
 20 24  1  0
 20 19  1  0
 21 20  2  0
 22 25  2  0
 22 23  1  0
M  END
$$$$
