RGE.pdb
     RDKit          3D

 25 24  0  0  1  0  0  0  0  0999 V2000
    8.1496  -14.4584   18.0341 N   0  0  0  0  0  0  0  0  0  0  0  0
    7.8509  -13.3091   18.8281 C   0  0  0  0  0  0  0  0  0  0  0  0
    7.5946  -12.2137   18.2156 N   0  0  0  0  0  0  0  0  0  0  0  0
    7.8517  -13.4364   20.2297 N   0  0  0  0  0  0  0  0  0  0  0  0
    8.3150  -14.6292   20.8722 C   0  0  0  0  0  0  0  0  0  0  0  0
    7.1699  -15.5892   21.1190 C   0  0  0  0  0  0  0  0  0  0  0  0
    7.7301  -16.7963   21.7937 C   0  0  0  0  0  0  0  0  0  0  0  0
    6.6363  -17.7413   22.1496 C   0  0  2  0  0  0  0  0  0  0  0  0
    5.3811  -17.0748   22.3751 N   0  0  0  0  0  0  0  0  0  0  0  0
    7.0507  -18.4883   23.3602 C   0  0  0  0  0  0  0  0  0  0  0  0
    7.9773  -19.3282   23.3918 O   0  0  0  0  0  0  0  0  0  0  0  0
    7.5093  -11.2931   18.6522 N   0  0  0  0  0  0  0  0  0  0  0  0
    6.3469  -18.2441   24.6027 C   0  0  0  0  0  0  0  0  0  0  0  0
    6.6954  -19.0695   25.7257 C   0  0  0  0  0  0  0  0  0  0  0  0
    8.0624  -18.8658   26.1653 O   0  0  0  0  0  0  0  0  0  0  0  0
    8.3099  -17.8472   26.8835 N   0  0  0  0  0  0  0  0  0  0  0  0
    9.1223  -19.7201   25.8475 C   0  0  2  0  0  0  0  0  0  0  0  0
   10.5030  -19.3752   26.2807 C   0  0  0  0  0  0  0  0  0  0  0  0
   10.8757  -18.0680   25.6540 C   0  0  0  0  0  0  0  0  0  0  0  0
   12.1513  -18.1611   24.8958 C   0  0  0  0  0  0  0  0  0  0  0  0
   12.5417  -16.9218   24.2227 O   0  0  0  0  0  0  0  0  0  0  0  0
   11.7660  -15.9212   24.3107 C   0  0  0  0  0  0  0  0  0  0  0  0
   10.4498  -19.2884   27.7601 O   0  0  0  0  0  0  0  0  0  0  0  0
    9.5645  -18.4734   28.4540 O   0  0  0  0  0  0  0  0  0  0  0  0
   13.6905  -16.7134   23.4814 O   0  0  0  0  0  0  0  0  0  0  0  0
  1  2  1  0
  2  3  2  0
  4  2  1  0
  5  4  1  0
  6  5  1  0
  6  7  1  0
  7  8  1  0
  8  9  1  1
 10 12  1  0
 10  8  1  0
 11 10  2  0
 13 14  1  0
 13 12  1  0
 14 16  1  0
 15 14  2  0
 16 17  1  0
 17 22  1  0
 18 19  1  0
 17 18  1  6
 20 24  1  0
 20 19  1  0
 21 20  2  0
 22 25  2  0
 22 23  1  0
M  END
$$$$
