RGE.pdb
     RDKit          3D

 25 24  0  0  1  0  0  0  0  0999 V2000
    7.5545  -14.0549   13.2689 N   0  0  0  0  0  0  0  0  0  0  0  0
    8.2441  -14.1561   14.5157 C   0  0  0  0  0  0  0  0  0  0  0  0
    9.4988  -14.4115   14.4820 N   0  0  0  0  0  0  0  0  0  0  0  0
    7.5184  -13.9707   15.7072 N   0  0  0  0  0  0  0  0  0  0  0  0
    8.1735  -13.8961   16.9782 C   0  0  0  0  0  0  0  0  0  0  0  0
    7.1771  -13.6142   18.0834 C   0  0  0  0  0  0  0  0  0  0  0  0
    7.9404  -13.4959   19.3600 C   0  0  0  0  0  0  0  0  0  0  0  0
    8.2242  -14.8470   19.9171 C   0  0  2  0  0  0  0  0  0  0  0  0
    7.0289  -15.5463   20.3080 N   0  0  0  0  0  0  0  0  0  0  0  0
    9.1314  -14.6840   21.0772 C   0  0  0  0  0  0  0  0  0  0  0  0
   10.2419  -14.1096   21.0329 O   0  0  0  0  0  0  0  0  0  0  0  0
   10.0980  -14.5627   15.2967 N   0  0  0  0  0  0  0  0  0  0  0  0
    8.7231  -15.2197   22.3598 C   0  0  0  0  0  0  0  0  0  0  0  0
    9.6605  -15.1111   23.4431 C   0  0  0  0  0  0  0  0  0  0  0  0
   10.5280  -16.2684   23.5486 O   0  0  0  0  0  0  0  0  0  0  0  0
   10.0737  -17.3890   23.1581 N   0  0  0  0  0  0  0  0  0  0  0  0
   11.8311  -16.2264   24.0529 C   0  0  1  0  0  0  0  0  0  0  0  0
   12.6363  -17.4754   24.1212 C   0  0  0  0  0  0  0  0  0  0  0  0
   14.0831  -17.0954   24.1758 C   0  0  0  0  0  0  0  0  0  0  0  0
   14.5038  -16.3423   22.9647 C   0  0  0  0  0  0  0  0  0  0  0  0
   15.9129  -15.9479   22.9621 O   0  0  0  0  0  0  0  0  0  0  0  0
   16.6098  -16.2051   23.9912 C   0  0  0  0  0  0  0  0  0  0  0  0
   12.1961  -18.1699   25.3553 O   0  0  0  0  0  0  0  0  0  0  0  0
   12.4910  -19.4969   25.6411 O   0  0  0  0  0  0  0  0  0  0  0  0
   16.5879  -15.3090   21.9380 O   0  0  0  0  0  0  0  0  0  0  0  0
  1  2  1  0
  2  3  2  0
  4  2  1  0
  5  4  1  0
  6  5  1  0
  6  7  1  0
  7  8  1  0
  8  9  1  1
 10 12  1  0
 10  8  1  0
 11 10  2  0
 13 14  1  0
 13 12  1  0
 14 16  1  0
 15 14  2  0
 16 17  1  0
 17 22  1  0
 18 19  1  0
 17 18  1  1
 20 24  1  0
 20 19  1  0
 21 20  2  0
 22 25  2  0
 22 23  1  0
M  END
$$$$
