RGE.pdb
     RDKit          3D

 25 24  0  0  1  0  0  0  0  0999 V2000
   10.2395  -13.6259   19.3750 N   0  0  0  0  0  0  0  0  0  0  0  0
    8.9357  -13.0613   19.2275 C   0  0  0  0  0  0  0  0  0  0  0  0
    8.6228  -12.5788   18.0830 N   0  0  0  0  0  0  0  0  0  0  0  0
    8.0679  -13.0645   20.3355 N   0  0  0  0  0  0  0  0  0  0  0  0
    7.6760  -14.2841   20.9753 C   0  0  0  0  0  0  0  0  0  0  0  0
    6.4796  -14.8987   20.2790 C   0  0  0  0  0  0  0  0  0  0  0  0
    6.0875  -16.1169   21.0462 C   0  0  0  0  0  0  0  0  0  0  0  0
    7.2922  -16.7663   21.6319 C   0  0  2  0  0  0  0  0  0  0  0  0
    7.4409  -18.1352   21.2140 N   0  0  0  0  0  0  0  0  0  0  0  0
    7.1867  -16.6840   23.1075 C   0  0  0  0  0  0  0  0  0  0  0  0
    7.0169  -15.6225   23.7475 O   0  0  0  0  0  0  0  0  0  0  0  0
    7.7698  -12.0569   17.8697 N   0  0  0  0  0  0  0  0  0  0  0  0
    7.2846  -17.9051   23.8807 C   0  0  0  0  0  0  0  0  0  0  0  0
    7.2448  -17.7792   25.3113 C   0  0  0  0  0  0  0  0  0  0  0  0
    8.5403  -17.4603   25.8798 O   0  0  0  0  0  0  0  0  0  0  0  0
    9.4312  -16.9934   25.1033 N   0  0  0  0  0  0  0  0  0  0  0  0
    8.8682  -17.6352   27.2274 C   0  0  1  0  0  0  0  0  0  0  0  0
   10.2008  -17.1997   27.7249 C   0  0  0  0  0  0  0  0  0  0  0  0
   10.0593  -15.8219   28.2924 C   0  0  0  0  0  0  0  0  0  0  0  0
    9.1992  -14.9580   27.4411 C   0  0  0  0  0  0  0  0  0  0  0  0
    9.0626  -13.5837   27.9247 O   0  0  0  0  0  0  0  0  0  0  0  0
    9.6294  -13.2729   29.0169 C   0  0  0  0  0  0  0  0  0  0  0  0
   10.5870  -18.1906   28.7584 O   0  0  0  0  0  0  0  0  0  0  0  0
   11.8345  -18.2230   29.3685 O   0  0  0  0  0  0  0  0  0  0  0  0
    8.3664  -12.5591   27.3097 O   0  0  0  0  0  0  0  0  0  0  0  0
  1  2  1  0
  2  3  2  0
  4  2  1  0
  5  4  1  0
  6  5  1  0
  6  7  1  0
  7  8  1  0
  8  9  1  1
 10 12  1  0
 10  8  1  0
 11 10  2  0
 13 14  1  0
 13 12  1  0
 14 16  1  0
 15 14  2  0
 16 17  1  0
 17 22  1  0
 18 19  1  0
 17 18  1  1
 20 24  1  0
 20 19  1  0
 21 20  2  0
 22 25  2  0
 22 23  1  0
M  END
$$$$
