RGE.pdb
     RDKit          3D

 25 24  0  0  1  0  0  0  0  0999 V2000
    8.3109  -12.8087   17.9641 N   0  0  0  0  0  0  0  0  0  0  0  0
    7.8384  -13.2743   19.2291 C   0  0  0  0  0  0  0  0  0  0  0  0
    7.7740  -12.4274   20.1880 N   0  0  0  0  0  0  0  0  0  0  0  0
    7.4695  -14.6263   19.3575 N   0  0  0  0  0  0  0  0  0  0  0  0
    8.3214  -15.5756   20.0084 C   0  0  0  0  0  0  0  0  0  0  0  0
    9.6292  -15.7293   19.2602 C   0  0  0  0  0  0  0  0  0  0  0  0
   10.7329  -15.6625   20.2620 C   0  0  0  0  0  0  0  0  0  0  0  0
   10.9510  -17.0002   20.8777 C   0  0  2  0  0  0  0  0  0  0  0  0
   10.1988  -18.0387   20.2249 N   0  0  0  0  0  0  0  0  0  0  0  0
   10.5788  -16.9131   22.3092 C   0  0  0  0  0  0  0  0  0  0  0  0
   11.0966  -16.1226   23.1290 O   0  0  0  0  0  0  0  0  0  0  0  0
    7.4506  -12.6262   21.1374 N   0  0  0  0  0  0  0  0  0  0  0  0
    9.5466  -17.7953   22.8141 C   0  0  0  0  0  0  0  0  0  0  0  0
    9.1681  -17.6394   24.1912 C   0  0  0  0  0  0  0  0  0  0  0  0
   10.3117  -17.5010   25.0722 O   0  0  0  0  0  0  0  0  0  0  0  0
   11.3687  -16.9804   24.5963 N   0  0  0  0  0  0  0  0  0  0  0  0
   10.3222  -17.9048   26.4105 C   0  0  1  0  0  0  0  0  0  0  0  0
   11.4797  -17.5556   27.2773 C   0  0  0  0  0  0  0  0  0  0  0  0
   11.4742  -16.0737   27.4880 C   0  0  0  0  0  0  0  0  0  0  0  0
   10.1066  -15.5583   27.7614 C   0  0  0  0  0  0  0  0  0  0  0  0
   10.0379  -14.1091   27.9522 O   0  0  0  0  0  0  0  0  0  0  0  0
   11.1208  -13.4480   27.9217 C   0  0  0  0  0  0  0  0  0  0  0  0
   11.2717  -18.2989   28.5435 O   0  0  0  0  0  0  0  0  0  0  0  0
   12.1756  -18.2949   29.5982 O   0  0  0  0  0  0  0  0  0  0  0  0
    8.8959  -13.3597   28.1686 O   0  0  0  0  0  0  0  0  0  0  0  0
  1  2  1  0
  2  3  2  0
  4  2  1  0
  5  4  1  0
  6  5  1  0
  6  7  1  0
  7  8  1  0
  8  9  1  6
 10 12  1  0
 10  8  1  0
 11 10  2  0
 13 14  1  0
 13 12  1  0
 14 16  1  0
 15 14  2  0
 16 17  1  0
 17 22  1  0
 18 19  1  0
 17 18  1  1
 20 24  1  0
 20 19  1  0
 21 20  2  0
 22 25  2  0
 22 23  1  0
M  END
$$$$
