CNE.pdb
     RDKit          3D

 24 23  0  0  1  0  0  0  0  0999 V2000
   20.3696  -14.8127  -15.8319 N   0  0  0  0  0  0  0  0  0  0  0  0
   20.7605  -13.8790  -16.8480 C   0  0  1  0  0  0  0  0  0  0  0  0
   19.5245  -13.1503  -17.3405 C   0  0  0  0  0  0  0  0  0  0  0  0
   18.5615  -14.3205  -18.3371 S   0  0  0  0  0  0  0  0  0  0  0  0
   21.7720  -12.8969  -16.3293 C   0  0  0  0  0  0  0  0  0  0  0  0
   21.4392  -12.1358  -15.4023 O   0  0  0  0  0  0  0  0  0  0  0  0
   26.7251  -11.3197  -14.8008 N   0  0  0  0  0  0  0  0  0  0  0  0
   26.3082  -11.2022  -16.1384 C   0  0  0  0  0  0  0  0  0  0  0  0
   26.6783  -10.2004  -16.8001 O   0  0  0  0  0  0  0  0  0  0  0  0
   25.4384  -12.2809  -16.7157 C   0  0  0  0  0  0  0  0  0  0  0  0
   24.0268  -11.8743  -16.4742 C   0  0  2  0  0  0  0  0  0  0  0  0
   23.0616  -12.8397  -16.8776 N   0  0  0  0  0  0  0  0  0  0  0  0
   23.8008  -10.5103  -17.0637 C   0  0  0  0  0  0  0  0  0  0  0  0
   23.5938  -10.3389  -18.3059 O   0  0  0  0  0  0  0  0  0  0  0  0
   23.8262   -9.4069  -16.1732 N   0  0  0  0  0  0  0  0  0  0  0  0
   23.5013   -8.0909  -16.6855 C   0  0  1  0  0  0  0  0  0  0  0  0
   22.1954   -7.5759  -16.1869 C   0  0  0  0  0  0  0  0  0  0  0  0
   21.0745   -7.5618  -17.1622 C   0  0  0  0  0  0  0  0  0  0  0  0
   19.7933   -7.0600  -16.6090 C   0  0  0  0  0  0  0  0  0  0  0  0
   19.1038   -7.7691  -15.8201 O   0  0  0  0  0  0  0  0  0  0  0  0
   24.5553   -7.1368  -16.1875 C   0  0  0  0  0  0  0  0  0  0  0  0
   24.6004   -5.8094  -16.5886 O   0  0  0  0  0  0  0  0  0  0  0  0
   19.3473   -5.8042  -16.9580 O   0  0  0  0  0  0  0  0  0  0  0  0
   25.4410   -7.5168  -15.3812 O   0  0  0  0  0  0  0  0  0  0  0  0
  2  1  1  1
  3  2  1  0
  4  3  1  0
  5  2  1  0
  6  5  2  0
  7  8  1  0
  8 10  1  0
  9  8  2  0
 11 10  1  6
 11 13  1  0
 11 12  1  0
 12  5  1  0
 13 15  1  0
 14 13  2  0
 15 16  1  0
 16 17  1  1
 16 21  1  0
 18 17  1  0
 19 18  1  0
 20 19  2  0
 21 24  2  0
 21 22  1  0
 23 19  1  0
M  END
$$$$
