CNE.pdb
     RDKit          3D

 24 23  0  0  1  0  0  0  0  0999 V2000
   27.0314  -21.6888  -11.1498 N   0  0  0  0  0  0  0  0  0  0  0  0
   25.7476  -21.0520  -11.0917 C   0  0  1  0  0  0  0  0  0  0  0  0
   25.7359  -20.0866   -9.9217 C   0  0  0  0  0  0  0  0  0  0  0  0
   25.7145  -21.0733   -8.3999 S   0  0  0  0  0  0  0  0  0  0  0  0
   25.4386  -20.3252  -12.3697 C   0  0  0  0  0  0  0  0  0  0  0  0
   26.3862  -19.9677  -13.0931 O   0  0  0  0  0  0  0  0  0  0  0  0
   24.3538  -21.2259  -16.9141 N   0  0  0  0  0  0  0  0  0  0  0  0
   23.4528  -21.7472  -15.9690 C   0  0  0  0  0  0  0  0  0  0  0  0
   22.3619  -22.2219  -16.3728 O   0  0  0  0  0  0  0  0  0  0  0  0
   23.8363  -21.7128  -14.5180 C   0  0  0  0  0  0  0  0  0  0  0  0
   23.6081  -20.3204  -14.0430 C   0  0  2  0  0  0  0  0  0  0  0  0
   24.1124  -20.0563  -12.7382 N   0  0  0  0  0  0  0  0  0  0  0  0
   22.1547  -19.9762  -14.2107 C   0  0  0  0  0  0  0  0  0  0  0  0
   21.2411  -20.5744  -13.5605 O   0  0  0  0  0  0  0  0  0  0  0  0
   21.8345  -18.9463  -15.1315 N   0  0  0  0  0  0  0  0  0  0  0  0
   20.5694  -18.2539  -14.9899 C   0  0  1  0  0  0  0  0  0  0  0  0
   20.5600  -16.9148  -15.6424 C   0  0  0  0  0  0  0  0  0  0  0  0
   19.3023  -16.1321  -15.5275 C   0  0  0  0  0  0  0  0  0  0  0  0
   19.3839  -14.7634  -16.0924 C   0  0  0  0  0  0  0  0  0  0  0  0
   18.3543  -14.0330  -16.1778 O   0  0  0  0  0  0  0  0  0  0  0  0
   19.5201  -19.0778  -15.6894 C   0  0  0  0  0  0  0  0  0  0  0  0
   18.1800  -19.0251  -15.3340 O   0  0  0  0  0  0  0  0  0  0  0  0
   20.5972  -14.2794  -16.5298 O   0  0  0  0  0  0  0  0  0  0  0  0
   19.8279  -19.8507  -16.6310 O   0  0  0  0  0  0  0  0  0  0  0  0
  2  1  1  6
  3  2  1  0
  4  3  1  0
  5  2  1  0
  6  5  2  0
  7  8  1  0
  8 10  1  0
  9  8  2  0
 11 10  1  1
 11 13  1  0
 11 12  1  0
 12  5  1  0
 13 15  1  0
 14 13  2  0
 15 16  1  0
 16 17  1  6
 16 21  1  0
 18 17  1  0
 19 18  1  0
 20 19  2  0
 21 24  2  0
 21 22  1  0
 23 19  1  0
M  END
$$$$
