CNE.pdb
     RDKit          3D

 24 23  0  0  1  0  0  0  0  0999 V2000
   26.7092  -20.0314   -9.6297 N   0  0  0  0  0  0  0  0  0  0  0  0
   25.5536  -20.8172   -9.9525 C   0  0  1  0  0  0  0  0  0  0  0  0
   24.4937  -20.5816   -8.8931 C   0  0  0  0  0  0  0  0  0  0  0  0
   25.2614  -20.8795   -7.2770 S   0  0  0  0  0  0  0  0  0  0  0  0
   25.0174  -20.4694  -11.3121 C   0  0  0  0  0  0  0  0  0  0  0  0
   24.5309  -19.3371  -11.4863 O   0  0  0  0  0  0  0  0  0  0  0  0
   27.7491  -21.8565  -14.8261 N   0  0  0  0  0  0  0  0  0  0  0  0
   26.5439  -21.1652  -15.0410 C   0  0  0  0  0  0  0  0  0  0  0  0
   26.5932  -19.9834  -15.4645 O   0  0  0  0  0  0  0  0  0  0  0  0
   25.2509  -21.8719  -14.7540 C   0  0  0  0  0  0  0  0  0  0  0  0
   24.5752  -21.1132  -13.6659 C   0  0  2  0  0  0  0  0  0  0  0  0
   25.0645  -21.4000  -12.3602 N   0  0  0  0  0  0  0  0  0  0  0  0
   23.0875  -21.2769  -13.8036 C   0  0  0  0  0  0  0  0  0  0  0  0
   22.4001  -21.9296  -12.9570 O   0  0  0  0  0  0  0  0  0  0  0  0
   22.4695  -20.6687  -14.9258 N   0  0  0  0  0  0  0  0  0  0  0  0
   21.0330  -20.4788  -14.9119 C   0  0  1  0  0  0  0  0  0  0  0  0
   20.5863  -19.4726  -13.9083 C   0  0  0  0  0  0  0  0  0  0  0  0
   19.1253  -19.2113  -13.8391 C   0  0  0  0  0  0  0  0  0  0  0  0
   18.7693  -17.9012  -13.2425 C   0  0  0  0  0  0  0  0  0  0  0  0
   19.1964  -17.5703  -12.0984 O   0  0  0  0  0  0  0  0  0  0  0  0
   20.6328  -19.9431  -16.2617 C   0  0  0  0  0  0  0  0  0  0  0  0
   19.3678  -20.1481  -16.7934 O   0  0  0  0  0  0  0  0  0  0  0  0
   17.9630  -17.0314  -13.9432 O   0  0  0  0  0  0  0  0  0  0  0  0
   21.4425  -19.2838  -16.9606 O   0  0  0  0  0  0  0  0  0  0  0  0
  2  1  1  1
  3  2  1  0
  4  3  1  0
  5  2  1  0
  6  5  2  0
  7  8  1  0
  8 10  1  0
  9  8  2  0
 11 10  1  6
 11 13  1  0
 11 12  1  0
 12  5  1  0
 13 15  1  0
 14 13  2  0
 15 16  1  0
 16 17  1  1
 16 21  1  0
 18 17  1  0
 19 18  1  0
 20 19  2  0
 21 24  2  0
 21 22  1  0
 23 19  1  0
M  END
$$$$
