CNE.pdb
     RDKit          3D

 24 23  0  0  1  0  0  0  0  0999 V2000
   20.2031  -11.5465  -15.5900 N   0  0  0  0  0  0  0  0  0  0  0  0
   19.5781  -10.2804  -15.8421 C   0  0  1  0  0  0  0  0  0  0  0  0
   18.1448  -10.5232  -16.2757 C   0  0  0  0  0  0  0  0  0  0  0  0
   18.1937  -11.2787  -17.9240 S   0  0  0  0  0  0  0  0  0  0  0  0
   19.6119   -9.4010  -14.6245 C   0  0  0  0  0  0  0  0  0  0  0  0
   19.1869   -9.8604  -13.5487 O   0  0  0  0  0  0  0  0  0  0  0  0
   21.9136   -6.0335  -11.2932 N   0  0  0  0  0  0  0  0  0  0  0  0
   21.2416   -5.4331  -12.3725 C   0  0  0  0  0  0  0  0  0  0  0  0
   20.6924   -4.3171  -12.1959 O   0  0  0  0  0  0  0  0  0  0  0  0
   21.2110   -6.1545  -13.6886 C   0  0  0  0  0  0  0  0  0  0  0  0
   20.1940   -7.2348  -13.5665 C   0  0  2  0  0  0  0  0  0  0  0  0
   20.1113   -8.0926  -14.6995 N   0  0  0  0  0  0  0  0  0  0  0  0
   18.8774   -6.6276  -13.1703 C   0  0  0  0  0  0  0  0  0  0  0  0
   18.0989   -6.0928  -14.0207 O   0  0  0  0  0  0  0  0  0  0  0  0
   18.5296   -6.6737  -11.7963 N   0  0  0  0  0  0  0  0  0  0  0  0
   17.1940   -6.2730  -11.4021 C   0  0  1  0  0  0  0  0  0  0  0  0
   16.7742   -6.8470  -10.0931 C   0  0  0  0  0  0  0  0  0  0  0  0
   15.4006   -6.5136   -9.6350 C   0  0  0  0  0  0  0  0  0  0  0  0
   15.0011   -7.1827   -8.3733 C   0  0  0  0  0  0  0  0  0  0  0  0
   15.7490   -8.0469   -7.8306 O   0  0  0  0  0  0  0  0  0  0  0  0
   17.2011   -4.7765  -11.2300 C   0  0  0  0  0  0  0  0  0  0  0  0
   16.0742   -4.0003  -11.4593 O   0  0  0  0  0  0  0  0  0  0  0  0
   13.7994   -6.8588   -7.7827 O   0  0  0  0  0  0  0  0  0  0  0  0
   18.2422   -4.1732  -10.8683 O   0  0  0  0  0  0  0  0  0  0  0  0
  2  1  1  1
  3  2  1  0
  4  3  1  0
  5  2  1  0
  6  5  2  0
  7  8  1  0
  8 10  1  0
  9  8  2  0
 11 10  1  6
 11 13  1  0
 11 12  1  0
 12  5  1  0
 13 15  1  0
 14 13  2  0
 15 16  1  0
 16 17  1  1
 16 21  1  0
 18 17  1  0
 19 18  1  0
 20 19  2  0
 21 24  2  0
 21 22  1  0
 23 19  1  0
M  END
$$$$
