CNE.pdb
     RDKit          3D

 24 23  0  0  1  0  0  0  0  0999 V2000
   18.2091   -9.3219  -13.5118 N   0  0  0  0  0  0  0  0  0  0  0  0
   18.4868   -8.6713  -12.2641 C   0  0  1  0  0  0  0  0  0  0  0  0
   19.4631   -7.5374  -12.5134 C   0  0  0  0  0  0  0  0  0  0  0  0
   21.0956   -8.2751  -12.7975 S   0  0  0  0  0  0  0  0  0  0  0  0
   17.2306   -8.1468  -11.6286 C   0  0  0  0  0  0  0  0  0  0  0  0
   16.4841   -7.4157  -12.3048 O   0  0  0  0  0  0  0  0  0  0  0  0
   13.1391   -9.7957  -10.0052 N   0  0  0  0  0  0  0  0  0  0  0  0
   14.4641   -9.9839   -9.5741 C   0  0  0  0  0  0  0  0  0  0  0  0
   15.0682  -11.0300   -9.9190 O   0  0  0  0  0  0  0  0  0  0  0  0
   15.0973   -8.9243   -8.7198 C   0  0  0  0  0  0  0  0  0  0  0  0
   15.7559   -7.9601   -9.6435 C   0  0  2  0  0  0  0  0  0  0  0  0
   16.9075   -8.4742  -10.3037 N   0  0  0  0  0  0  0  0  0  0  0  0
   16.0032   -6.6703   -8.9125 C   0  0  0  0  0  0  0  0  0  0  0  0
   16.9201   -6.5555   -8.0398 O   0  0  0  0  0  0  0  0  0  0  0  0
   15.1671   -5.5714   -9.2356 N   0  0  0  0  0  0  0  0  0  0  0  0
   15.3590   -4.3196   -8.5313 C   0  0  1  0  0  0  0  0  0  0  0  0
   15.8242   -3.2161   -9.4173 C   0  0  0  0  0  0  0  0  0  0  0  0
   14.9194   -2.8385  -10.5337 C   0  0  0  0  0  0  0  0  0  0  0  0
   15.4228   -1.7258  -11.3749 C   0  0  0  0  0  0  0  0  0  0  0  0
   14.7767   -0.6426  -11.4749 O   0  0  0  0  0  0  0  0  0  0  0  0
   14.0202   -3.8951   -7.9868 C   0  0  0  0  0  0  0  0  0  0  0  0
   13.8812   -2.8209   -7.1199 O   0  0  0  0  0  0  0  0  0  0  0  0
   16.6108   -1.8724  -12.0568 O   0  0  0  0  0  0  0  0  0  0  0  0
   12.9703   -4.5083   -8.3040 O   0  0  0  0  0  0  0  0  0  0  0  0
  2  1  1  6
  3  2  1  0
  4  3  1  0
  5  2  1  0
  6  5  2  0
  7  8  1  0
  8 10  1  0
  9  8  2  0
 11 10  1  1
 11 13  1  0
 11 12  1  0
 12  5  1  0
 13 15  1  0
 14 13  2  0
 15 16  1  0
 16 17  1  6
 16 21  1  0
 18 17  1  0
 19 18  1  0
 20 19  2  0
 21 24  2  0
 21 22  1  0
 23 19  1  0
M  END
$$$$
