CNE.pdb
     RDKit          3D

 24 23  0  0  1  0  0  0  0  0999 V2000
   17.6679   -9.9679  -15.4382 N   0  0  0  0  0  0  0  0  0  0  0  0
   18.4605   -9.0899  -16.2494 C   0  0  1  0  0  0  0  0  0  0  0  0
   17.6126   -8.6003  -17.4081 C   0  0  0  0  0  0  0  0  0  0  0  0
   17.6446   -9.8844  -18.6889 S   0  0  0  0  0  0  0  0  0  0  0  0
   18.9762   -7.9252  -15.4530 C   0  0  0  0  0  0  0  0  0  0  0  0
   18.2135   -7.3832  -14.6322 O   0  0  0  0  0  0  0  0  0  0  0  0
   22.0530   -5.0077  -12.4145 N   0  0  0  0  0  0  0  0  0  0  0  0
   22.4936   -5.1504  -13.7420 C   0  0  0  0  0  0  0  0  0  0  0  0
   23.1358   -4.2082  -14.2694 O   0  0  0  0  0  0  0  0  0  0  0  0
   22.1759   -6.4243  -14.4698 C   0  0  0  0  0  0  0  0  0  0  0  0
   20.7844   -6.2942  -14.9828 C   0  0  2  0  0  0  0  0  0  0  0  0
   20.2873   -7.4601  -15.6309 N   0  0  0  0  0  0  0  0  0  0  0  0
   20.6831   -5.0485  -15.8177 C   0  0  0  0  0  0  0  0  0  0  0  0
   21.1658   -4.9829  -16.9915 O   0  0  0  0  0  0  0  0  0  0  0  0
   20.0205   -3.9346  -15.2422 N   0  0  0  0  0  0  0  0  0  0  0  0
   19.8292   -2.7454  -16.0480 C   0  0  1  0  0  0  0  0  0  0  0  0
   18.3937   -2.4154  -16.2708 C   0  0  0  0  0  0  0  0  0  0  0  0
   18.0579   -1.7649  -17.5638 C   0  0  0  0  0  0  0  0  0  0  0  0
   16.6184   -1.4499  -17.7304 C   0  0  0  0  0  0  0  0  0  0  0  0
   15.7831   -1.7261  -16.8212 O   0  0  0  0  0  0  0  0  0  0  0  0
   20.4225   -1.5850  -15.2928 C   0  0  0  0  0  0  0  0  0  0  0  0
   20.7091   -0.3732  -15.9048 O   0  0  0  0  0  0  0  0  0  0  0  0
   16.1838   -0.8475  -18.8906 O   0  0  0  0  0  0  0  0  0  0  0  0
   20.6812   -1.6771  -14.0667 O   0  0  0  0  0  0  0  0  0  0  0  0
  2  1  1  1
  3  2  1  0
  4  3  1  0
  5  2  1  0
  6  5  2  0
  7  8  1  0
  8 10  1  0
  9  8  2  0
 11 10  1  6
 11 13  1  0
 11 12  1  0
 12  5  1  0
 13 15  1  0
 14 13  2  0
 15 16  1  0
 16 17  1  1
 16 21  1  0
 18 17  1  0
 19 18  1  0
 20 19  2  0
 21 24  2  0
 21 22  1  0
 23 19  1  0
M  END
$$$$
