CNE.pdb
     RDKit          3D

 24 23  0  0  1  0  0  0  0  0999 V2000
   28.7132  -20.5277  -12.0138 N   0  0  0  0  0  0  0  0  0  0  0  0
   27.3046  -20.6053  -12.2727 C   0  0  1  0  0  0  0  0  0  0  0  0
   26.5572  -20.1030  -11.0519 C   0  0  0  0  0  0  0  0  0  0  0  0
   26.6192  -21.4114   -9.7971 S   0  0  0  0  0  0  0  0  0  0  0  0
   26.9252  -19.8006  -13.4832 C   0  0  0  0  0  0  0  0  0  0  0  0
   27.3770  -18.6461  -13.5938 O   0  0  0  0  0  0  0  0  0  0  0  0
   26.4607  -17.9091  -18.2026 N   0  0  0  0  0  0  0  0  0  0  0  0
   25.7504  -19.0952  -17.9467 C   0  0  0  0  0  0  0  0  0  0  0  0
   24.7133  -19.3337  -18.6145 O   0  0  0  0  0  0  0  0  0  0  0  0
   26.2645  -20.0239  -16.8852 C   0  0  0  0  0  0  0  0  0  0  0  0
   25.6487  -19.5950  -15.5995 C   0  0  2  0  0  0  0  0  0  0  0  0
   26.0813  -20.3389  -14.4655 N   0  0  0  0  0  0  0  0  0  0  0  0
   24.1550  -19.5519  -15.7605 C   0  0  0  0  0  0  0  0  0  0  0  0
   23.4323  -20.5885  -15.6245 O   0  0  0  0  0  0  0  0  0  0  0  0
   23.5725  -18.2973  -16.0729 N   0  0  0  0  0  0  0  0  0  0  0  0
   22.1380  -18.1424  -15.9382 C   0  0  1  0  0  0  0  0  0  0  0  0
   21.6946  -16.7220  -16.0086 C   0  0  0  0  0  0  0  0  0  0  0  0
   20.2424  -16.4725  -15.8173 C   0  0  0  0  0  0  0  0  0  0  0  0
   19.8487  -15.0479  -15.9394 C   0  0  0  0  0  0  0  0  0  0  0  0
   20.7221  -14.1396  -16.0526 O   0  0  0  0  0  0  0  0  0  0  0  0
   21.4937  -18.8495  -17.1018 C   0  0  0  0  0  0  0  0  0  0  0  0
   21.9090  -18.6500  -18.4105 O   0  0  0  0  0  0  0  0  0  0  0  0
   18.5137  -14.7081  -15.9300 O   0  0  0  0  0  0  0  0  0  0  0  0
   20.5457  -19.6546  -16.9234 O   0  0  0  0  0  0  0  0  0  0  0  0
  2  1  1  1
  3  2  1  0
  4  3  1  0
  5  2  1  0
  6  5  2  0
  7  8  1  0
  8 10  1  0
  9  8  2  0
 11 10  1  6
 11 13  1  0
 11 12  1  0
 12  5  1  0
 13 15  1  0
 14 13  2  0
 15 16  1  0
 16 17  1  6
 16 21  1  0
 18 17  1  0
 19 18  1  0
 20 19  2  0
 21 24  2  0
 21 22  1  0
 23 19  1  0
M  END
$$$$
