CNE.pdb
     RDKit          3D

 24 23  0  0  1  0  0  0  0  0999 V2000
   16.5710   -9.5527  -10.3778 N   0  0  0  0  0  0  0  0  0  0  0  0
   16.6955   -9.1840  -11.7583 C   0  0  1  0  0  0  0  0  0  0  0  0
   15.3327   -8.7623  -12.2741 C   0  0  0  0  0  0  0  0  0  0  0  0
   14.2517  -10.2176  -12.2135 S   0  0  0  0  0  0  0  0  0  0  0  0
   17.6884   -8.0715  -11.9405 C   0  0  0  0  0  0  0  0  0  0  0  0
   17.6946   -7.1403  -11.1146 O   0  0  0  0  0  0  0  0  0  0  0  0
   22.0314   -5.6510  -12.2682 N   0  0  0  0  0  0  0  0  0  0  0  0
   21.8873   -6.4370  -13.4250 C   0  0  0  0  0  0  0  0  0  0  0  0
   22.5365   -6.1219  -14.4535 O   0  0  0  0  0  0  0  0  0  0  0  0
   20.9626   -7.6186  -13.3783 C   0  0  0  0  0  0  0  0  0  0  0  0
   19.5853   -7.0835  -13.1960 C   0  0  2  0  0  0  0  0  0  0  0  0
   18.5874   -8.0828  -13.0169 N   0  0  0  0  0  0  0  0  0  0  0  0
   19.2822   -6.1185  -14.3077 C   0  0  0  0  0  0  0  0  0  0  0  0
   18.9603   -6.5118  -15.4725 O   0  0  0  0  0  0  0  0  0  0  0  0
   19.3683   -4.7353  -14.0068 N   0  0  0  0  0  0  0  0  0  0  0  0
   19.0937   -3.7756  -15.0573 C   0  0  1  0  0  0  0  0  0  0  0  0
   18.7022   -2.4359  -14.5369 C   0  0  0  0  0  0  0  0  0  0  0  0
   18.4457   -1.3815  -15.5518 C   0  0  0  0  0  0  0  0  0  0  0  0
   18.0916   -0.0599  -14.9798 C   0  0  0  0  0  0  0  0  0  0  0  0
   17.0221    0.0985  -14.3226 O   0  0  0  0  0  0  0  0  0  0  0  0
   20.3683   -3.5764  -15.8349 C   0  0  0  0  0  0  0  0  0  0  0  0
   21.5647   -3.2370  -15.2197 O   0  0  0  0  0  0  0  0  0  0  0  0
   18.9385    1.0106  -15.1655 O   0  0  0  0  0  0  0  0  0  0  0  0
   20.3908   -3.7128  -17.0837 O   0  0  0  0  0  0  0  0  0  0  0  0
  2  1  1  1
  3  2  1  0
  4  3  1  0
  5  2  1  0
  6  5  2  0
  7  8  1  0
  8 10  1  0
  9  8  2  0
 11 10  1  6
 11 13  1  0
 11 12  1  0
 12  5  1  0
 13 15  1  0
 14 13  2  0
 15 16  1  0
 16 17  1  1
 16 21  1  0
 18 17  1  0
 19 18  1  0
 20 19  2  0
 21 24  2  0
 21 22  1  0
 23 19  1  0
M  END
$$$$
