CNE.pdb
     RDKit          3D

 24 23  0  0  1  0  0  0  0  0999 V2000
   22.4937  -13.6238  -17.3962 N   0  0  0  0  0  0  0  0  0  0  0  0
   22.5819  -12.9136  -16.1532 C   0  0  1  0  0  0  0  0  0  0  0  0
   24.0270  -12.9180  -15.6920 C   0  0  0  0  0  0  0  0  0  0  0  0
   24.3362  -14.5103  -14.8801 S   0  0  0  0  0  0  0  0  0  0  0  0
   22.0838  -11.5031  -16.2920 C   0  0  0  0  0  0  0  0  0  0  0  0
   22.5476  -10.7971  -17.2061 O   0  0  0  0  0  0  0  0  0  0  0  0
   18.7162  -10.1400  -17.2276 N   0  0  0  0  0  0  0  0  0  0  0  0
   18.2634   -9.8210  -15.9352 C   0  0  0  0  0  0  0  0  0  0  0  0
   17.0283   -9.8423  -15.7061 O   0  0  0  0  0  0  0  0  0  0  0  0
   19.2782   -9.4691  -14.8866 C   0  0  0  0  0  0  0  0  0  0  0  0
   20.6204   -9.6639  -15.5005 C   0  0  2  0  0  0  0  0  0  0  0  0
   21.1182  -10.9946  -15.4111 N   0  0  0  0  0  0  0  0  0  0  0  0
   21.5640   -8.6275  -14.9577 C   0  0  0  0  0  0  0  0  0  0  0  0
   22.0559   -8.7103  -13.7888 O   0  0  0  0  0  0  0  0  0  0  0  0
   21.8909   -7.5401  -15.8073 N   0  0  0  0  0  0  0  0  0  0  0  0
   22.8193   -6.5361  -15.3277 C   0  0  1  0  0  0  0  0  0  0  0  0
   23.4938   -5.7913  -16.4273 C   0  0  0  0  0  0  0  0  0  0  0  0
   24.4015   -4.6881  -16.0189 C   0  0  0  0  0  0  0  0  0  0  0  0
   25.0095   -3.9496  -17.1521 C   0  0  0  0  0  0  0  0  0  0  0  0
   24.7569   -4.2729  -18.3490 O   0  0  0  0  0  0  0  0  0  0  0  0
   22.0266   -5.5207  -14.5469 C   0  0  0  0  0  0  0  0  0  0  0  0
   22.5755   -4.8062  -13.4919 O   0  0  0  0  0  0  0  0  0  0  0  0
   25.8606   -2.8964  -16.8991 O   0  0  0  0  0  0  0  0  0  0  0  0
   20.8253   -5.2838  -14.8290 O   0  0  0  0  0  0  0  0  0  0  0  0
  2  1  1  6
  3  2  1  0
  4  3  1  0
  5  2  1  0
  6  5  2  0
  7  8  1  0
  8 10  1  0
  9  8  2  0
 11 10  1  1
 11 13  1  0
 11 12  1  0
 12  5  1  0
 13 15  1  0
 14 13  2  0
 15 16  1  0
 16 17  1  6
 16 21  1  0
 18 17  1  0
 19 18  1  0
 20 19  2  0
 21 24  2  0
 21 22  1  0
 23 19  1  0
M  END
$$$$
