CNE.pdb
     RDKit          3D

 24 23  0  0  1  0  0  0  0  0999 V2000
   17.1468  -11.6917  -14.9013 N   0  0  0  0  0  0  0  0  0  0  0  0
   17.2694  -10.6998  -15.9301 C   0  0  1  0  0  0  0  0  0  0  0  0
   15.8827  -10.3483  -16.4348 C   0  0  0  0  0  0  0  0  0  0  0  0
   15.1830  -11.8404  -17.1925 S   0  0  0  0  0  0  0  0  0  0  0  0
   17.9669   -9.4693  -15.4240 C   0  0  0  0  0  0  0  0  0  0  0  0
   17.6710   -9.0423  -14.2929 O   0  0  0  0  0  0  0  0  0  0  0  0
   21.2572   -8.2566  -13.2447 N   0  0  0  0  0  0  0  0  0  0  0  0
   21.3462   -8.7132  -14.5715 C   0  0  0  0  0  0  0  0  0  0  0  0
   21.6573   -9.9129  -14.7773 O   0  0  0  0  0  0  0  0  0  0  0  0
   21.0648   -7.7447  -15.6834 C   0  0  0  0  0  0  0  0  0  0  0  0
   19.5847   -7.6254  -15.7893 C   0  0  2  0  0  0  0  0  0  0  0  0
   18.9292   -8.8174  -16.2087 N   0  0  0  0  0  0  0  0  0  0  0  0
   19.2474   -6.4233  -16.6260 C   0  0  0  0  0  0  0  0  0  0  0  0
   19.2683   -6.4590  -17.8963 O   0  0  0  0  0  0  0  0  0  0  0  0
   18.8996   -5.2323  -15.9392 N   0  0  0  0  0  0  0  0  0  0  0  0
   18.5061   -4.0718  -16.7126 C   0  0  1  0  0  0  0  0  0  0  0  0
   17.5159   -3.2093  -16.0093 C   0  0  0  0  0  0  0  0  0  0  0  0
   16.1441   -3.7612  -15.8636 C   0  0  0  0  0  0  0  0  0  0  0  0
   15.2062   -2.8747  -15.1331 C   0  0  0  0  0  0  0  0  0  0  0  0
   14.0867   -2.5606  -15.6319 O   0  0  0  0  0  0  0  0  0  0  0  0
   19.7358   -3.2275  -16.9222 C   0  0  0  0  0  0  0  0  0  0  0  0
   19.7389   -2.1198  -17.7576 O   0  0  0  0  0  0  0  0  0  0  0  0
   15.5576   -2.3865  -13.8938 O   0  0  0  0  0  0  0  0  0  0  0  0
   20.8146   -3.5022  -16.3394 O   0  0  0  0  0  0  0  0  0  0  0  0
  2  1  1  1
  3  2  1  0
  4  3  1  0
  5  2  1  0
  6  5  2  0
  7  8  1  0
  8 10  1  0
  9  8  2  0
 11 10  1  6
 11 13  1  0
 11 12  1  0
 12  5  1  0
 13 15  1  0
 14 13  2  0
 15 16  1  0
 16 17  1  1
 16 21  1  0
 18 17  1  0
 19 18  1  0
 20 19  2  0
 21 24  2  0
 21 22  1  0
 23 19  1  0
M  END
$$$$
