CNE.pdb
     RDKit          3D

 24 23  0  0  1  0  0  0  0  0999 V2000
   16.6459  -13.6260  -16.7884 N   0  0  0  0  0  0  0  0  0  0  0  0
   16.5023  -12.9328  -15.5410 C   0  0  1  0  0  0  0  0  0  0  0  0
   17.4454  -13.5538  -14.5280 C   0  0  0  0  0  0  0  0  0  0  0  0
   16.6710  -15.0788  -13.9242 S   0  0  0  0  0  0  0  0  0  0  0  0
   16.7928  -11.4667  -15.6927 C   0  0  0  0  0  0  0  0  0  0  0  0
   17.7202  -11.1205  -16.4472 O   0  0  0  0  0  0  0  0  0  0  0  0
   12.6465   -8.9252  -14.9386 N   0  0  0  0  0  0  0  0  0  0  0  0
   13.8617   -8.5892  -15.5610 C   0  0  0  0  0  0  0  0  0  0  0  0
   13.9066   -8.5509  -16.8160 O   0  0  0  0  0  0  0  0  0  0  0  0
   15.0518   -8.2912  -14.6961 C   0  0  0  0  0  0  0  0  0  0  0  0
   16.1806   -9.1113  -15.2154 C   0  0  2  0  0  0  0  0  0  0  0  0
   16.0358  -10.5110  -14.9997 N   0  0  0  0  0  0  0  0  0  0  0  0
   17.4748   -8.5502  -14.6969 C   0  0  0  0  0  0  0  0  0  0  0  0
   17.9794   -8.9287  -13.5935 O   0  0  0  0  0  0  0  0  0  0  0  0
   18.1221   -7.5712  -15.4929 N   0  0  0  0  0  0  0  0  0  0  0  0
   19.4367   -7.1085  -15.0958 C   0  0  1  0  0  0  0  0  0  0  0  0
   20.5400   -7.7650  -15.8514 C   0  0  0  0  0  0  0  0  0  0  0  0
   21.9216   -7.3424  -15.5046 C   0  0  0  0  0  0  0  0  0  0  0  0
   22.9800   -8.0142  -16.2968 C   0  0  0  0  0  0  0  0  0  0  0  0
   23.1940   -9.2553  -16.1753 O   0  0  0  0  0  0  0  0  0  0  0  0
   19.5160   -5.6384  -15.4143 C   0  0  0  0  0  0  0  0  0  0  0  0
   18.7533   -5.0565  -16.4166 O   0  0  0  0  0  0  0  0  0  0  0  0
   23.7408   -7.2778  -17.1780 O   0  0  0  0  0  0  0  0  0  0  0  0
   20.2863   -4.8797  -14.7741 O   0  0  0  0  0  0  0  0  0  0  0  0
  2  1  1  6
  3  2  1  0
  4  3  1  0
  5  2  1  0
  6  5  2  0
  7  8  1  0
  8 10  1  0
  9  8  2  0
 11 10  1  1
 11 13  1  0
 11 12  1  0
 12  5  1  0
 13 15  1  0
 14 13  2  0
 15 16  1  0
 16 17  1  6
 16 21  1  0
 18 17  1  0
 19 18  1  0
 20 19  2  0
 21 24  2  0
 21 22  1  0
 23 19  1  0
M  END
$$$$
