CNE.pdb
     RDKit          3D

 24 23  0  0  1  0  0  0  0  0999 V2000
   20.2309  -13.3952  -17.8849 N   0  0  0  0  0  0  0  0  0  0  0  0
   20.1634  -12.0466  -18.3685 C   0  0  1  0  0  0  0  0  0  0  0  0
   18.8779  -11.8757  -19.1555 C   0  0  0  0  0  0  0  0  0  0  0  0
   19.0874  -12.7384  -20.7373 S   0  0  0  0  0  0  0  0  0  0  0  0
   20.2185  -11.0568  -17.2397 C   0  0  0  0  0  0  0  0  0  0  0  0
   19.1572  -10.7524  -16.6650 O   0  0  0  0  0  0  0  0  0  0  0  0
   24.5376  -11.1742  -15.6907 N   0  0  0  0  0  0  0  0  0  0  0  0
   23.9008   -9.9377  -15.4850 C   0  0  0  0  0  0  0  0  0  0  0  0
   24.4539   -8.8950  -15.9155 O   0  0  0  0  0  0  0  0  0  0  0  0
   22.5869   -9.9199  -14.7592 C   0  0  0  0  0  0  0  0  0  0  0  0
   21.5434   -9.5700  -15.7616 C   0  0  2  0  0  0  0  0  0  0  0  0
   21.4382  -10.4893  -16.8434 N   0  0  0  0  0  0  0  0  0  0  0  0
   21.7381   -8.1444  -16.1963 C   0  0  0  0  0  0  0  0  0  0  0  0
   22.3261   -7.8455  -17.2826 O   0  0  0  0  0  0  0  0  0  0  0  0
   21.2353   -7.1314  -15.3407 N   0  0  0  0  0  0  0  0  0  0  0  0
   21.4638   -5.7447  -15.6939 C   0  0  1  0  0  0  0  0  0  0  0  0
   20.2056   -4.9989  -15.9767 C   0  0  0  0  0  0  0  0  0  0  0  0
   20.3398   -3.5357  -16.1972 C   0  0  0  0  0  0  0  0  0  0  0  0
   19.0624   -2.8470  -16.5027 C   0  0  0  0  0  0  0  0  0  0  0  0
   17.9911   -3.5023  -16.6561 O   0  0  0  0  0  0  0  0  0  0  0  0
   22.1013   -5.0728  -14.5060 C   0  0  0  0  0  0  0  0  0  0  0  0
   22.0755   -5.6333  -13.2371 O   0  0  0  0  0  0  0  0  0  0  0  0
   19.0410   -1.4746  -16.6206 O   0  0  0  0  0  0  0  0  0  0  0  0
   22.6857   -3.9670  -14.6265 O   0  0  0  0  0  0  0  0  0  0  0  0
  2  1  1  1
  3  2  1  0
  4  3  1  0
  5  2  1  0
  6  5  2  0
  7  8  1  0
  8 10  1  0
  9  8  2  0
 11 10  1  1
 11 13  1  0
 11 12  1  0
 12  5  1  0
 13 15  1  0
 14 13  2  0
 15 16  1  0
 16 17  1  1
 16 21  1  0
 18 17  1  0
 19 18  1  0
 20 19  2  0
 21 24  2  0
 21 22  1  0
 23 19  1  0
M  END
$$$$
