CDW.pdb
     RDKit          3D

 29 30  0  0  1  0  0  0  0  0999 V2000
   26.7380  -15.7699  -16.2586 N   0  0  0  0  0  0  0  0  0  0  0  0
   27.1687  -16.7573  -15.3229 C   0  0  1  0  0  0  0  0  0  0  0  0
   26.5939  -16.5701  -13.9369 C   0  0  0  0  0  0  0  0  0  0  0  0
   24.7807  -16.6123  -14.0905 S   0  0  0  0  0  0  0  0  0  0  0  0
   26.9739  -18.1454  -15.8184 C   0  0  0  0  0  0  0  0  0  0  0  0
   26.0442  -18.3591  -16.6272 O   0  0  0  0  0  0  0  0  0  0  0  0
   27.8036  -19.2174  -15.4048 N   0  0  0  0  0  0  0  0  0  0  0  0
   27.6588  -20.5877  -15.8323 C   0  0  1  0  0  0  0  0  0  0  0  0
   29.0074  -21.2634  -15.9792 C   0  0  0  0  0  0  0  0  0  0  0  0
   28.9118  -22.5810  -16.6179 C   0  0  0  0  0  0  0  0  0  0  0  0
   27.9371  -22.7772  -17.4058 O   0  0  0  0  0  0  0  0  0  0  0  0
   26.8833  -21.3863  -14.8441 C   0  0  0  0  0  0  0  0  0  0  0  0
   26.5279  -22.5701  -15.0668 O   0  0  0  0  0  0  0  0  0  0  0  0
   29.7880  -23.6412  -16.4459 O   0  0  0  0  0  0  0  0  0  0  0  0
   26.4954  -20.8517  -13.5797 N   0  0  0  0  0  0  0  0  0  0  0  0
   25.6176  -21.5519  -12.6462 C   0  0  1  0  0  0  0  0  0  0  0  0
   26.4274  -22.0896  -11.4730 C   0  0  0  0  0  0  0  0  0  0  0  0
   26.2897  -21.1407  -10.3395 C   0  0  0  0  0  0  0  0  0  0  0  0
   25.1576  -20.4281   -9.9340 C   0  0  0  0  0  0  0  0  0  0  0  0
   25.4709  -19.6696   -8.8554 N   0  0  0  0  0  0  0  0  0  0  0  0
   26.7574  -19.8435   -8.5237 C   0  0  0  0  0  0  0  0  0  0  0  0
   27.5306  -19.2988   -7.5161 C   0  0  0  0  0  0  0  0  0  0  0  0
   28.8545  -19.6752   -7.4210 C   0  0  0  0  0  0  0  0  0  0  0  0
   29.4010  -20.5815   -8.3159 C   0  0  0  0  0  0  0  0  0  0  0  0
   28.5920  -21.0990   -9.3049 C   0  0  0  0  0  0  0  0  0  0  0  0
   27.2685  -20.7498   -9.4348 C   0  0  0  0  0  0  0  0  0  0  0  0
   24.4813  -20.7282  -12.2309 C   0  0  0  0  0  0  0  0  0  0  0  0
   23.3473  -21.2944  -11.6637 O   0  0  0  0  0  0  0  0  0  0  0  0
   24.5187  -19.4831  -12.3835 O   0  0  0  0  0  0  0  0  0  0  0  0
  2  1  1  6
  2  5  1  0
  3  2  1  0
  4  3  1  0
  5  6  2  0
  7  5  1  0
  7  8  1  0
  8 12  1  0
  8  9  1  1
 10 14  1  0
 10  9  1  0
 11 10  2  0
 12 13  2  0
 15 16  1  0
 15 12  1  0
 16 27  1  0
 16 17  1  1
 18 17  1  0
 18 19  2  0
 20 19  1  0
 21 20  1  0
 22 21  2  0
 23 22  1  0
 24 23  2  0
 24 25  1  0
 25 26  2  0
 26 21  1  0
 26 18  1  0
 27 29  2  0
 27 28  1  0
M  END
$$$$
