CDW.pdb
     RDKit          3D

 29 30  0  0  1  0  0  0  0  0999 V2000
   25.3180  -20.2012  -16.4955 N   0  0  0  0  0  0  0  0  0  0  0  0
   25.1606  -18.8958  -15.9411 C   0  0  1  0  0  0  0  0  0  0  0  0
   24.5042  -17.9125  -16.8839 C   0  0  0  0  0  0  0  0  0  0  0  0
   25.6705  -17.6055  -18.2471 S   0  0  0  0  0  0  0  0  0  0  0  0
   24.4986  -18.9104  -14.6101 C   0  0  0  0  0  0  0  0  0  0  0  0
   24.4700  -17.8469  -13.9527 O   0  0  0  0  0  0  0  0  0  0  0  0
   23.9061  -20.0814  -14.0751 N   0  0  0  0  0  0  0  0  0  0  0  0
   23.3189  -20.1850  -12.7614 C   0  0  1  0  0  0  0  0  0  0  0  0
   22.0839  -21.0632  -12.7787 C   0  0  0  0  0  0  0  0  0  0  0  0
   21.3969  -21.0964  -11.4825 C   0  0  0  0  0  0  0  0  0  0  0  0
   21.6593  -20.1669  -10.6600 O   0  0  0  0  0  0  0  0  0  0  0  0
   24.2666  -20.7952  -11.7890 C   0  0  0  0  0  0  0  0  0  0  0  0
   24.6554  -21.9854  -11.8856 O   0  0  0  0  0  0  0  0  0  0  0  0
   20.4813  -22.0491  -11.0638 O   0  0  0  0  0  0  0  0  0  0  0  0
   24.7914  -20.0609  -10.6844 N   0  0  0  0  0  0  0  0  0  0  0  0
   25.6792  -20.6427   -9.6816 C   0  0  1  0  0  0  0  0  0  0  0  0
   26.6950  -19.6051   -9.2202 C   0  0  0  0  0  0  0  0  0  0  0  0
   27.7366  -20.2978   -8.4206 C   0  0  0  0  0  0  0  0  0  0  0  0
   28.5433  -21.3775   -8.7914 C   0  0  0  0  0  0  0  0  0  0  0  0
   29.3559  -21.7029   -7.7568 N   0  0  0  0  0  0  0  0  0  0  0  0
   29.1286  -20.8913   -6.7152 C   0  0  0  0  0  0  0  0  0  0  0  0
   29.6951  -20.8276   -5.4563 C   0  0  0  0  0  0  0  0  0  0  0  0
   29.2470  -19.8635   -4.5770 C   0  0  0  0  0  0  0  0  0  0  0  0
   28.2494  -18.9749   -4.9459 C   0  0  0  0  0  0  0  0  0  0  0  0
   27.7135  -19.0757   -6.2120 C   0  0  0  0  0  0  0  0  0  0  0  0
   28.1311  -20.0220   -7.1177 C   0  0  0  0  0  0  0  0  0  0  0  0
   24.9402  -21.2548   -8.5765 C   0  0  0  0  0  0  0  0  0  0  0  0
   23.5916  -20.9916   -8.3754 O   0  0  0  0  0  0  0  0  0  0  0  0
   25.5238  -22.0363   -7.7869 O   0  0  0  0  0  0  0  0  0  0  0  0
  2  1  1  6
  2  5  1  0
  3  2  1  0
  4  3  1  0
  5  6  2  0
  7  5  1  0
  7  8  1  0
  8 12  1  0
  8  9  1  6
 10 14  1  0
 10  9  1  0
 11 10  2  0
 12 13  2  0
 15 16  1  0
 15 12  1  0
 16 27  1  0
 16 17  1  1
 18 17  1  0
 18 19  2  0
 20 19  1  0
 21 20  1  0
 22 21  2  0
 23 22  1  0
 24 23  2  0
 24 25  1  0
 25 26  2  0
 26 21  1  0
 26 18  1  0
 27 29  2  0
 27 28  1  0
M  END
$$$$
