CDW.pdb
     RDKit          3D

 29 30  0  0  1  0  0  0  0  0999 V2000
   26.7980  -25.3083  -18.2004 N   0  0  0  0  0  0  0  0  0  0  0  0
   25.8631  -24.3924  -17.6319 C   0  0  1  0  0  0  0  0  0  0  0  0
   24.5965  -25.0509  -17.1334 C   0  0  0  0  0  0  0  0  0  0  0  0
   25.0776  -26.2614  -15.8622 S   0  0  0  0  0  0  0  0  0  0  0  0
   26.4719  -23.5137  -16.5987 C   0  0  0  0  0  0  0  0  0  0  0  0
   27.5696  -23.8541  -16.1058 O   0  0  0  0  0  0  0  0  0  0  0  0
   25.8498  -22.3164  -16.1651 N   0  0  0  0  0  0  0  0  0  0  0  0
   26.4008  -21.4029  -15.1938 C   0  0  1  0  0  0  0  0  0  0  0  0
   26.1294  -19.9622  -15.5778 C   0  0  0  0  0  0  0  0  0  0  0  0
   24.6988  -19.6833  -15.7472 C   0  0  0  0  0  0  0  0  0  0  0  0
   23.8934  -20.6494  -15.5824 O   0  0  0  0  0  0  0  0  0  0  0  0
   25.7972  -21.6104  -13.8490 C   0  0  0  0  0  0  0  0  0  0  0  0
   24.5871  -21.9088  -13.6940 O   0  0  0  0  0  0  0  0  0  0  0  0
   24.1347  -18.4592  -16.0708 O   0  0  0  0  0  0  0  0  0  0  0  0
   26.5607  -21.4814  -12.6510 N   0  0  0  0  0  0  0  0  0  0  0  0
   25.9899  -21.6257  -11.3147 C   0  0  1  0  0  0  0  0  0  0  0  0
   27.0989  -21.8623  -10.2972 C   0  0  0  0  0  0  0  0  0  0  0  0
   26.9811  -20.8333   -9.2336 C   0  0  0  0  0  0  0  0  0  0  0  0
   25.9006  -19.9922   -8.9525 C   0  0  0  0  0  0  0  0  0  0  0  0
   26.2154  -19.1985   -7.9001 N   0  0  0  0  0  0  0  0  0  0  0  0
   27.4537  -19.4712   -7.4673 C   0  0  0  0  0  0  0  0  0  0  0  0
   28.2088  -18.9379   -6.4400 C   0  0  0  0  0  0  0  0  0  0  0  0
   29.4800  -19.4306   -6.2283 C   0  0  0  0  0  0  0  0  0  0  0  0
   29.9922  -20.4405   -7.0275 C   0  0  0  0  0  0  0  0  0  0  0  0
   29.2030  -20.9423   -8.0404 C   0  0  0  0  0  0  0  0  0  0  0  0
   27.9320  -20.4788   -8.2851 C   0  0  0  0  0  0  0  0  0  0  0  0
   25.1157  -20.5061  -10.9623 C   0  0  0  0  0  0  0  0  0  0  0  0
   23.9661  -20.6968  -10.2069 O   0  0  0  0  0  0  0  0  0  0  0  0
   25.3984  -19.3442  -11.3427 O   0  0  0  0  0  0  0  0  0  0  0  0
  2  1  1  1
  2  5  1  0
  3  2  1  0
  4  3  1  0
  5  6  2  0
  7  5  1  0
  7  8  1  0
  8 12  1  0
  8  9  1  6
 10 14  1  0
 10  9  1  0
 11 10  2  0
 12 13  2  0
 15 16  1  0
 15 12  1  0
 16 27  1  0
 16 17  1  1
 18 17  1  0
 18 19  2  0
 20 19  1  0
 21 20  1  0
 22 21  2  0
 23 22  1  0
 24 23  2  0
 24 25  1  0
 25 26  2  0
 26 21  1  0
 26 18  1  0
 27 29  2  0
 27 28  1  0
M  END
$$$$
