CDW.pdb
     RDKit          3D

 29 30  0  0  1  0  0  0  0  0999 V2000
   27.9706  -22.8585  -15.8212 N   0  0  0  0  0  0  0  0  0  0  0  0
   27.1851  -22.5775  -16.9788 C   0  0  1  0  0  0  0  0  0  0  0  0
   27.8268  -23.0307  -18.2708 C   0  0  0  0  0  0  0  0  0  0  0  0
   29.5137  -22.3483  -18.3082 S   0  0  0  0  0  0  0  0  0  0  0  0
   25.7851  -23.0630  -16.8578 C   0  0  0  0  0  0  0  0  0  0  0  0
   25.0009  -22.8480  -17.8079 O   0  0  0  0  0  0  0  0  0  0  0  0
   25.3232  -23.7547  -15.7103 N   0  0  0  0  0  0  0  0  0  0  0  0
   23.9967  -24.2990  -15.5510 C   0  0  1  0  0  0  0  0  0  0  0  0
   23.9945  -25.4700  -14.5889 C   0  0  0  0  0  0  0  0  0  0  0  0
   22.6933  -26.1451  -14.5247 C   0  0  0  0  0  0  0  0  0  0  0  0
   22.2731  -26.4928  -13.3794 O   0  0  0  0  0  0  0  0  0  0  0  0
   23.0565  -23.2863  -14.9976 C   0  0  0  0  0  0  0  0  0  0  0  0
   21.8149  -23.4716  -14.9591 O   0  0  0  0  0  0  0  0  0  0  0  0
   21.8699  -26.4425  -15.5994 O   0  0  0  0  0  0  0  0  0  0  0  0
   23.5120  -22.0391  -14.4762 N   0  0  0  0  0  0  0  0  0  0  0  0
   22.6364  -21.0780  -13.8114 C   0  0  1  0  0  0  0  0  0  0  0  0
   23.4672  -19.9754  -13.1668 C   0  0  0  0  0  0  0  0  0  0  0  0
   24.3435  -19.3841  -14.2091 C   0  0  0  0  0  0  0  0  0  0  0  0
   23.9966  -18.5133  -15.2461 C   0  0  0  0  0  0  0  0  0  0  0  0
   25.1025  -18.2235  -15.9737 N   0  0  0  0  0  0  0  0  0  0  0  0
   26.1690  -18.8596  -15.4704 C   0  0  0  0  0  0  0  0  0  0  0  0
   27.4956  -18.8817  -15.8571 C   0  0  0  0  0  0  0  0  0  0  0  0
   28.3843  -19.6461  -15.1295 C   0  0  0  0  0  0  0  0  0  0  0  0
   27.9586  -20.3778  -14.0321 C   0  0  0  0  0  0  0  0  0  0  0  0
   26.6259  -20.3256  -13.6831 C   0  0  0  0  0  0  0  0  0  0  0  0
   25.7082  -19.5772  -14.3816 C   0  0  0  0  0  0  0  0  0  0  0  0
   21.5964  -20.5663  -14.7050 C   0  0  0  0  0  0  0  0  0  0  0  0
   20.5286  -19.8225  -14.2200 O   0  0  0  0  0  0  0  0  0  0  0  0
   21.6580  -20.7956  -15.9372 O   0  0  0  0  0  0  0  0  0  0  0  0
  2  1  1  1
  2  5  1  0
  3  2  1  0
  4  3  1  0
  5  6  2  0
  7  5  1  0
  7  8  1  0
  8 12  1  0
  8  9  1  1
 10 14  1  0
 10  9  1  0
 11 10  2  0
 12 13  2  0
 15 16  1  0
 15 12  1  0
 16 27  1  0
 16 17  1  6
 18 17  1  0
 18 19  2  0
 20 19  1  0
 21 20  1  0
 22 21  2  0
 23 22  1  0
 24 23  2  0
 24 25  1  0
 25 26  2  0
 26 21  1  0
 26 18  1  0
 27 29  2  0
 27 28  1  0
M  END
$$$$
