CDW.pdb
     RDKit          3D

 29 30  0  0  1  0  0  0  0  0999 V2000
   19.5301  -11.7829  -17.1080 N   0  0  0  0  0  0  0  0  0  0  0  0
   20.3536  -11.2794  -18.1590 C   0  0  1  0  0  0  0  0  0  0  0  0
   20.0447  -11.8808  -19.5115 C   0  0  0  0  0  0  0  0  0  0  0  0
   19.3205  -13.5254  -19.2223 S   0  0  0  0  0  0  0  0  0  0  0  0
   20.3812   -9.7938  -18.2088 C   0  0  0  0  0  0  0  0  0  0  0  0
   21.1616   -9.2441  -19.0167 O   0  0  0  0  0  0  0  0  0  0  0  0
   19.5567   -8.9958  -17.3769 N   0  0  0  0  0  0  0  0  0  0  0  0
   19.5357   -7.5533  -17.3727 C   0  0  1  0  0  0  0  0  0  0  0  0
   18.1158   -7.0239  -17.3563 C   0  0  0  0  0  0  0  0  0  0  0  0
   18.0523   -5.5724  -17.5618 C   0  0  0  0  0  0  0  0  0  0  0  0
   19.1303   -4.9802  -17.8720 O   0  0  0  0  0  0  0  0  0  0  0  0
   20.2134   -7.0034  -16.1667 C   0  0  0  0  0  0  0  0  0  0  0  0
   19.7438   -7.1411  -15.0101 O   0  0  0  0  0  0  0  0  0  0  0  0
   16.9223   -4.7772  -17.4511 O   0  0  0  0  0  0  0  0  0  0  0  0
   21.4419   -6.2836  -16.2537 N   0  0  0  0  0  0  0  0  0  0  0  0
   22.1606   -5.7765  -15.0881 C   0  0  1  0  0  0  0  0  0  0  0  0
   23.6533   -6.0406  -15.2408 C   0  0  0  0  0  0  0  0  0  0  0  0
   23.8960   -7.4862  -15.0055 C   0  0  0  0  0  0  0  0  0  0  0  0
   23.1198   -8.3913  -14.2759 C   0  0  0  0  0  0  0  0  0  0  0  0
   23.7081   -9.6118  -14.3098 N   0  0  0  0  0  0  0  0  0  0  0  0
   24.8386   -9.5622  -15.0273 C   0  0  0  0  0  0  0  0  0  0  0  0
   25.7718  -10.5310  -15.3441 C   0  0  0  0  0  0  0  0  0  0  0  0
   26.8580  -10.1759  -16.1170 C   0  0  0  0  0  0  0  0  0  0  0  0
   27.0129   -8.8748  -16.5688 C   0  0  0  0  0  0  0  0  0  0  0  0
   26.0570   -7.9417  -16.2281 C   0  0  0  0  0  0  0  0  0  0  0  0
   24.9606   -8.2541  -15.4596 C   0  0  0  0  0  0  0  0  0  0  0  0
   21.8502   -4.3728  -14.8140 C   0  0  0  0  0  0  0  0  0  0  0  0
   20.9225   -3.6755  -15.5766 O   0  0  0  0  0  0  0  0  0  0  0  0
   22.4256   -3.7740  -13.8731 O   0  0  0  0  0  0  0  0  0  0  0  0
  2  1  1  1
  2  5  1  0
  3  2  1  0
  4  3  1  0
  5  6  2  0
  7  5  1  0
  7  8  1  0
  8 12  1  0
  8  9  1  1
 10 14  1  0
 10  9  1  0
 11 10  2  0
 12 13  2  0
 15 16  1  0
 15 12  1  0
 16 27  1  0
 16 17  1  6
 18 17  1  0
 18 19  2  0
 20 19  1  0
 21 20  1  0
 22 21  2  0
 23 22  1  0
 24 23  2  0
 24 25  1  0
 25 26  2  0
 26 21  1  0
 26 18  1  0
 27 29  2  0
 27 28  1  0
M  END
$$$$
