CDW.pdb
     RDKit          3D

 29 30  0  0  1  0  0  0  0  0999 V2000
   26.5299  -16.0020  -17.6949 N   0  0  0  0  0  0  0  0  0  0  0  0
   26.5963  -16.5813  -16.3925 C   0  0  1  0  0  0  0  0  0  0  0  0
   25.6548  -15.9424  -15.3967 C   0  0  0  0  0  0  0  0  0  0  0  0
   25.8500  -14.1388  -15.5443 S   0  0  0  0  0  0  0  0  0  0  0  0
   26.4580  -18.0614  -16.4119 C   0  0  0  0  0  0  0  0  0  0  0  0
   25.6422  -18.5682  -17.2129 O   0  0  0  0  0  0  0  0  0  0  0  0
   27.2171  -18.9011  -15.5590 N   0  0  0  0  0  0  0  0  0  0  0  0
   27.1738  -20.3431  -15.5660 C   0  0  1  0  0  0  0  0  0  0  0  0
   28.4737  -20.9299  -16.0785 C   0  0  0  0  0  0  0  0  0  0  0  0
   28.3935  -22.3796  -16.2908 C   0  0  0  0  0  0  0  0  0  0  0  0
   27.2459  -22.9157  -16.2229 O   0  0  0  0  0  0  0  0  0  0  0  0
   26.9671  -20.8874  -14.1960 C   0  0  0  0  0  0  0  0  0  0  0  0
   27.8726  -21.4903  -13.5684 O   0  0  0  0  0  0  0  0  0  0  0  0
   29.4552  -23.2286  -16.5616 O   0  0  0  0  0  0  0  0  0  0  0  0
   25.7224  -20.7563  -13.5117 N   0  0  0  0  0  0  0  0  0  0  0  0
   25.5398  -21.0961  -12.1033 C   0  0  1  0  0  0  0  0  0  0  0  0
   26.6070  -20.4106  -11.2593 C   0  0  0  0  0  0  0  0  0  0  0  0
   26.2324  -20.5544   -9.8299 C   0  0  0  0  0  0  0  0  0  0  0  0
   24.9683  -20.7885   -9.2810 C   0  0  0  0  0  0  0  0  0  0  0  0
   25.0719  -20.8445   -7.9310 N   0  0  0  0  0  0  0  0  0  0  0  0
   26.3445  -20.6591   -7.5551 C   0  0  0  0  0  0  0  0  0  0  0  0
   26.9421  -20.6294   -6.3093 C   0  0  0  0  0  0  0  0  0  0  0  0
   28.3026  -20.4134   -6.2330 C   0  0  0  0  0  0  0  0  0  0  0  0
   29.0578  -20.2302   -7.3806 C   0  0  0  0  0  0  0  0  0  0  0  0
   28.4191  -20.2680   -8.6017 C   0  0  0  0  0  0  0  0  0  0  0  0
   27.0659  -20.4797   -8.7213 C   0  0  0  0  0  0  0  0  0  0  0  0
   24.1783  -20.8242  -11.6404 C   0  0  0  0  0  0  0  0  0  0  0  0
   23.5023  -19.6722  -12.0203 O   0  0  0  0  0  0  0  0  0  0  0  0
   23.5966  -21.6402  -10.8850 O   0  0  0  0  0  0  0  0  0  0  0  0
  2  1  1  6
  2  5  1  0
  3  2  1  0
  4  3  1  0
  5  6  2  0
  7  5  1  0
  7  8  1  0
  8 12  1  0
  8  9  1  1
 10 14  1  0
 10  9  1  0
 11 10  2  0
 12 13  2  0
 15 16  1  0
 15 12  1  0
 16 27  1  0
 16 17  1  1
 18 17  1  0
 18 19  2  0
 20 19  1  0
 21 20  1  0
 22 21  2  0
 23 22  1  0
 24 23  2  0
 24 25  1  0
 25 26  2  0
 26 21  1  0
 26 18  1  0
 27 29  2  0
 27 28  1  0
M  END
$$$$
