CDW.pdb
     RDKit          3D

 29 30  0  0  1  0  0  0  0  0999 V2000
   28.1789  -23.9286  -18.1958 N   0  0  0  0  0  0  0  0  0  0  0  0
   29.1304  -23.0050  -17.6687 C   0  0  1  0  0  0  0  0  0  0  0  0
   30.0209  -22.3855  -18.7221 C   0  0  0  0  0  0  0  0  0  0  0  0
   31.1302  -23.6928  -19.3331 S   0  0  0  0  0  0  0  0  0  0  0  0
   28.5109  -21.9747  -16.7941 C   0  0  0  0  0  0  0  0  0  0  0  0
   29.2615  -21.1448  -16.2357 O   0  0  0  0  0  0  0  0  0  0  0  0
   27.1114  -21.9089  -16.5809 N   0  0  0  0  0  0  0  0  0  0  0  0
   26.4464  -20.9346  -15.7503 C   0  0  1  0  0  0  0  0  0  0  0  0
   25.2444  -20.3392  -16.4557 C   0  0  0  0  0  0  0  0  0  0  0  0
   25.5935  -19.7182  -17.7385 C   0  0  0  0  0  0  0  0  0  0  0  0
   26.4069  -18.7451  -17.7126 O   0  0  0  0  0  0  0  0  0  0  0  0
   25.9450  -21.5470  -14.4895 C   0  0  0  0  0  0  0  0  0  0  0  0
   25.2072  -22.5632  -14.4826 O   0  0  0  0  0  0  0  0  0  0  0  0
   25.1203  -20.0925  -18.9865 O   0  0  0  0  0  0  0  0  0  0  0  0
   26.2740  -21.0130  -13.2083 N   0  0  0  0  0  0  0  0  0  0  0  0
   25.7255  -21.5294  -11.9574 C   0  0  1  0  0  0  0  0  0  0  0  0
   26.8519  -21.8053  -10.9692 C   0  0  0  0  0  0  0  0  0  0  0  0
   26.6542  -20.9336   -9.7838 C   0  0  0  0  0  0  0  0  0  0  0  0
   25.5119  -20.2203   -9.4092 C   0  0  0  0  0  0  0  0  0  0  0  0
   25.7637  -19.5469   -8.2604 N   0  0  0  0  0  0  0  0  0  0  0  0
   27.0188  -19.7781   -7.8524 C   0  0  0  0  0  0  0  0  0  0  0  0
   27.7295  -19.3256   -6.7570 C   0  0  0  0  0  0  0  0  0  0  0  0
   29.0345  -19.7434   -6.5962 C   0  0  0  0  0  0  0  0  0  0  0  0
   29.6236  -20.6002   -7.5126 C   0  0  0  0  0  0  0  0  0  0  0  0
   28.8765  -21.0260   -8.5900 C   0  0  0  0  0  0  0  0  0  0  0  0
   27.5739  -20.6329   -8.7873 C   0  0  0  0  0  0  0  0  0  0  0  0
   24.6811  -20.6618  -11.4110 C   0  0  0  0  0  0  0  0  0  0  0  0
   23.6993  -21.1582  -10.5636 O   0  0  0  0  0  0  0  0  0  0  0  0
   24.6602  -19.4419  -11.7047 O   0  0  0  0  0  0  0  0  0  0  0  0
  2  1  1  6
  2  5  1  0
  3  2  1  0
  4  3  1  0
  5  6  2  0
  7  5  1  0
  7  8  1  0
  8 12  1  0
  8  9  1  6
 10 14  1  0
 10  9  1  0
 11 10  2  0
 12 13  2  0
 15 16  1  0
 15 12  1  0
 16 27  1  0
 16 17  1  1
 18 17  1  0
 18 19  2  0
 20 19  1  0
 21 20  1  0
 22 21  2  0
 23 22  1  0
 24 23  2  0
 24 25  1  0
 25 26  2  0
 26 21  1  0
 26 18  1  0
 27 29  2  0
 27 28  1  0
M  END
$$$$
