CDW.pdb
     RDKit          3D

 29 30  0  0  1  0  0  0  0  0999 V2000
   27.9512  -17.9505  -16.8361 N   0  0  0  0  0  0  0  0  0  0  0  0
   28.3082  -18.2536  -15.4882 C   0  0  1  0  0  0  0  0  0  0  0  0
   28.9474  -17.0954  -14.7559 C   0  0  0  0  0  0  0  0  0  0  0  0
   27.7145  -15.7592  -14.6712 S   0  0  0  0  0  0  0  0  0  0  0  0
   27.1856  -18.8448  -14.7132 C   0  0  0  0  0  0  0  0  0  0  0  0
   26.1357  -18.1765  -14.5907 O   0  0  0  0  0  0  0  0  0  0  0  0
   27.2729  -20.1286  -14.1193 N   0  0  0  0  0  0  0  0  0  0  0  0
   26.2153  -20.7696  -13.3763 C   0  0  1  0  0  0  0  0  0  0  0  0
   25.9169  -22.1506  -13.9246 C   0  0  0  0  0  0  0  0  0  0  0  0
   25.5315  -22.1245  -15.3401 C   0  0  0  0  0  0  0  0  0  0  0  0
   26.3693  -22.5731  -16.1805 O   0  0  0  0  0  0  0  0  0  0  0  0
   26.5861  -20.9461  -11.9454 C   0  0  0  0  0  0  0  0  0  0  0  0
   27.7786  -21.0639  -11.5695 O   0  0  0  0  0  0  0  0  0  0  0  0
   24.3330  -21.6560  -15.8552 O   0  0  0  0  0  0  0  0  0  0  0  0
   25.6044  -20.9928  -10.9116 N   0  0  0  0  0  0  0  0  0  0  0  0
   25.9328  -21.1546   -9.4980 C   0  0  1  0  0  0  0  0  0  0  0  0
   26.9408  -20.0943   -9.0726 C   0  0  0  0  0  0  0  0  0  0  0  0
   26.9279  -20.0089   -7.5905 C   0  0  0  0  0  0  0  0  0  0  0  0
   25.8289  -20.0332   -6.7271 C   0  0  0  0  0  0  0  0  0  0  0  0
   26.2640  -19.9226   -5.4484 N   0  0  0  0  0  0  0  0  0  0  0  0
   27.6000  -19.8259   -5.4195 C   0  0  0  0  0  0  0  0  0  0  0  0
   28.4919  -19.6970   -4.3717 C   0  0  0  0  0  0  0  0  0  0  0  0
   29.8397  -19.6188   -4.6557 C   0  0  0  0  0  0  0  0  0  0  0  0
   30.2935  -19.6690   -5.9643 C   0  0  0  0  0  0  0  0  0  0  0  0
   29.3676  -19.7982   -6.9774 C   0  0  0  0  0  0  0  0  0  0  0  0
   28.0163  -19.8787   -6.7374 C   0  0  0  0  0  0  0  0  0  0  0  0
   24.7387  -21.1848   -8.6523 C   0  0  0  0  0  0  0  0  0  0  0  0
   24.7140  -21.8997   -7.4620 O   0  0  0  0  0  0  0  0  0  0  0  0
   23.7088  -20.5557   -8.9964 O   0  0  0  0  0  0  0  0  0  0  0  0
  2  1  1  6
  2  5  1  0
  3  2  1  0
  4  3  1  0
  5  6  2  0
  7  5  1  0
  7  8  1  0
  8 12  1  0
  8  9  1  6
 10 14  1  0
 10  9  1  0
 11 10  2  0
 12 13  2  0
 15 16  1  0
 15 12  1  0
 16 27  1  0
 16 17  1  1
 18 17  1  0
 18 19  2  0
 20 19  1  0
 21 20  1  0
 22 21  2  0
 23 22  1  0
 24 23  2  0
 24 25  1  0
 25 26  2  0
 26 21  1  0
 26 18  1  0
 27 29  2  0
 27 28  1  0
M  END
$$$$
