CDW.pdb
     RDKit          3D

 29 30  0  0  1  0  0  0  0  0999 V2000
   30.1949  -24.6620  -17.2580 N   0  0  0  0  0  0  0  0  0  0  0  0
   28.8026  -24.3559  -17.1950 C   0  0  1  0  0  0  0  0  0  0  0  0
   27.9306  -25.5577  -16.9090 C   0  0  0  0  0  0  0  0  0  0  0  0
   26.2696  -25.1901  -17.5562 S   0  0  0  0  0  0  0  0  0  0  0  0
   28.5016  -23.2248  -16.2785 C   0  0  0  0  0  0  0  0  0  0  0  0
   28.9483  -23.2749  -15.1115 O   0  0  0  0  0  0  0  0  0  0  0  0
   27.7334  -22.1063  -16.6877 N   0  0  0  0  0  0  0  0  0  0  0  0
   27.3741  -20.9953  -15.8404 C   0  0  1  0  0  0  0  0  0  0  0  0
   26.9336  -19.7988  -16.6596 C   0  0  0  0  0  0  0  0  0  0  0  0
   26.5859  -18.6418  -15.8268 C   0  0  0  0  0  0  0  0  0  0  0  0
   26.2168  -18.8717  -14.6351 O   0  0  0  0  0  0  0  0  0  0  0  0
   26.2392  -21.3420  -14.9416 C   0  0  0  0  0  0  0  0  0  0  0  0
   25.1877  -21.8831  -15.3644 O   0  0  0  0  0  0  0  0  0  0  0  0
   26.6218  -17.3116  -16.2148 O   0  0  0  0  0  0  0  0  0  0  0  0
   26.2787  -21.0786  -13.5402 N   0  0  0  0  0  0  0  0  0  0  0  0
   25.2352  -21.5058  -12.6124 C   0  0  1  0  0  0  0  0  0  0  0  0
   25.8477  -22.3149  -11.4760 C   0  0  0  0  0  0  0  0  0  0  0  0
   26.2746  -21.3721  -10.4116 C   0  0  0  0  0  0  0  0  0  0  0  0
   25.5010  -20.4413   -9.7122 C   0  0  0  0  0  0  0  0  0  0  0  0
   26.2890  -19.7792   -8.8306 N   0  0  0  0  0  0  0  0  0  0  0  0
   27.5501  -20.2250   -8.9097 C   0  0  0  0  0  0  0  0  0  0  0  0
   28.6977  -19.8682   -8.2275 C   0  0  0  0  0  0  0  0  0  0  0  0
   29.8768  -20.5169   -8.5313 C   0  0  0  0  0  0  0  0  0  0  0  0
   29.9130  -21.5074   -9.5001 C   0  0  0  0  0  0  0  0  0  0  0  0
   28.7437  -21.8303  -10.1549 C   0  0  0  0  0  0  0  0  0  0  0  0
   27.5484  -21.2078   -9.8828 C   0  0  0  0  0  0  0  0  0  0  0  0
   24.4177  -20.3854  -12.1448 C   0  0  0  0  0  0  0  0  0  0  0  0
   23.1255  -20.5802  -11.6750 O   0  0  0  0  0  0  0  0  0  0  0  0
   24.8810  -19.2193  -12.1619 O   0  0  0  0  0  0  0  0  0  0  0  0
  2  1  1  1
  2  5  1  0
  3  2  1  0
  4  3  1  0
  5  6  2  0
  7  5  1  0
  7  8  1  0
  8 12  1  0
  8  9  1  6
 10 14  1  0
 10  9  1  0
 11 10  2  0
 12 13  2  0
 15 16  1  0
 15 12  1  0
 16 27  1  0
 16 17  1  1
 18 17  1  0
 18 19  2  0
 20 19  1  0
 21 20  1  0
 22 21  2  0
 23 22  1  0
 24 23  2  0
 24 25  1  0
 25 26  2  0
 26 21  1  0
 26 18  1  0
 27 29  2  0
 27 28  1  0
M  END
$$$$
