CDW.pdb
     RDKit          3D

 29 30  0  0  1  0  0  0  0  0999 V2000
   27.0099  -18.0980  -17.9656 N   0  0  0  0  0  0  0  0  0  0  0  0
   26.3394  -17.7987  -16.7421 C   0  0  1  0  0  0  0  0  0  0  0  0
   25.6061  -16.4764  -16.7610 C   0  0  0  0  0  0  0  0  0  0  0  0
   26.8617  -15.1592  -16.7949 S   0  0  0  0  0  0  0  0  0  0  0  0
   25.4656  -18.9079  -16.2769 C   0  0  0  0  0  0  0  0  0  0  0  0
   24.7914  -19.5263  -17.1295 O   0  0  0  0  0  0  0  0  0  0  0  0
   25.3792  -19.2782  -14.9116 N   0  0  0  0  0  0  0  0  0  0  0  0
   24.4851  -20.2784  -14.3811 C   0  0  1  0  0  0  0  0  0  0  0  0
   25.1161  -21.0196  -13.2195 C   0  0  0  0  0  0  0  0  0  0  0  0
   24.4012  -22.2564  -12.8841 C   0  0  0  0  0  0  0  0  0  0  0  0
   23.3884  -22.5531  -13.5880 O   0  0  0  0  0  0  0  0  0  0  0  0
   23.2281  -19.6671  -13.8690 C   0  0  0  0  0  0  0  0  0  0  0  0
   23.1984  -18.9600  -12.8315 O   0  0  0  0  0  0  0  0  0  0  0  0
   24.7252  -23.1409  -11.8672 O   0  0  0  0  0  0  0  0  0  0  0  0
   21.9767  -19.8495  -14.5290 N   0  0  0  0  0  0  0  0  0  0  0  0
   20.7318  -19.2359  -14.0752 C   0  0  1  0  0  0  0  0  0  0  0  0
   20.4663  -17.9559  -14.8578 C   0  0  0  0  0  0  0  0  0  0  0  0
   20.4029  -18.2982  -16.3010 C   0  0  0  0  0  0  0  0  0  0  0  0
   19.6607  -19.3052  -16.9246 C   0  0  0  0  0  0  0  0  0  0  0  0
   19.8995  -19.2743  -18.2582 N   0  0  0  0  0  0  0  0  0  0  0  0
   20.7652  -18.2947  -18.5520 C   0  0  0  0  0  0  0  0  0  0  0  0
   21.3084  -17.8744  -19.7512 C   0  0  0  0  0  0  0  0  0  0  0  0
   22.1925  -16.8153  -19.7422 C   0  0  0  0  0  0  0  0  0  0  0  0
   22.5305  -16.1828  -18.5561 C   0  0  0  0  0  0  0  0  0  0  0  0
   21.9639  -16.6361  -17.3840 C   0  0  0  0  0  0  0  0  0  0  0  0
   21.0797  -17.6883  -17.3495 C   0  0  0  0  0  0  0  0  0  0  0  0
   19.6085  -20.1735  -14.1084 C   0  0  0  0  0  0  0  0  0  0  0  0
   19.7395  -21.4390  -14.6650 O   0  0  0  0  0  0  0  0  0  0  0  0
   18.4983  -19.8414  -13.6268 O   0  0  0  0  0  0  0  0  0  0  0  0
  2  1  1  6
  2  5  1  0
  3  2  1  0
  4  3  1  0
  5  6  2  0
  7  5  1  0
  7  8  1  0
  8 12  1  0
  8  9  1  1
 10 14  1  0
 10  9  1  0
 11 10  2  0
 12 13  2  0
 15 16  1  0
 15 12  1  0
 16 27  1  0
 16 17  1  6
 18 17  1  0
 18 19  2  0
 20 19  1  0
 21 20  1  0
 22 21  2  0
 23 22  1  0
 24 23  2  0
 24 25  1  0
 25 26  2  0
 26 21  1  0
 26 18  1  0
 27 29  2  0
 27 28  1  0
M  END
$$$$
