CDW.pdb
     RDKit          3D

 29 30  0  0  1  0  0  0  0  0999 V2000
   32.4536   -8.3084  -20.0045 N   0  0  0  0  0  0  0  0  0  0  0  0
   31.5661   -9.0796  -19.1960 C   0  0  1  0  0  0  0  0  0  0  0  0
   31.7095   -8.8122  -17.7146 C   0  0  0  0  0  0  0  0  0  0  0  0
   33.3295   -9.4626  -17.1994 S   0  0  0  0  0  0  0  0  0  0  0  0
   30.1505   -8.9831  -19.6398 C   0  0  0  0  0  0  0  0  0  0  0  0
   29.7156   -7.8636  -19.9884 O   0  0  0  0  0  0  0  0  0  0  0  0
   29.2938  -10.1113  -19.6789 N   0  0  0  0  0  0  0  0  0  0  0  0
   27.9116  -10.0862  -20.0918 C   0  0  1  0  0  0  0  0  0  0  0  0
   27.5064  -11.3965  -20.7366 C   0  0  0  0  0  0  0  0  0  0  0  0
   26.1236  -11.3800  -21.2272 C   0  0  0  0  0  0  0  0  0  0  0  0
   25.2198  -11.7881  -20.4361 O   0  0  0  0  0  0  0  0  0  0  0  0
   27.0017   -9.8783  -18.9322 C   0  0  0  0  0  0  0  0  0  0  0  0
   27.2773  -10.2914  -17.7787 O   0  0  0  0  0  0  0  0  0  0  0  0
   25.7024  -10.9584  -22.4787 O   0  0  0  0  0  0  0  0  0  0  0  0
   25.7565   -9.1947  -19.0631 N   0  0  0  0  0  0  0  0  0  0  0  0
   24.8707   -8.9154  -17.9363 C   0  0  1  0  0  0  0  0  0  0  0  0
   25.6471   -8.2253  -16.8218 C   0  0  0  0  0  0  0  0  0  0  0  0
   24.7099   -7.9505  -15.7037 C   0  0  0  0  0  0  0  0  0  0  0  0
   24.2223   -8.8370  -14.7391 C   0  0  0  0  0  0  0  0  0  0  0  0
   23.3844   -8.1731  -13.9062 N   0  0  0  0  0  0  0  0  0  0  0  0
   23.2911   -6.8870  -14.2703 C   0  0  0  0  0  0  0  0  0  0  0  0
   22.5743   -5.8299  -13.7425 C   0  0  0  0  0  0  0  0  0  0  0  0
   22.6792   -4.5930  -14.3446 C   0  0  0  0  0  0  0  0  0  0  0  0
   23.4869   -4.4107  -15.4560 C   0  0  0  0  0  0  0  0  0  0  0  0
   24.1837   -5.4937  -15.9479 C   0  0  0  0  0  0  0  0  0  0  0  0
   24.1063   -6.7426  -15.3782 C   0  0  0  0  0  0  0  0  0  0  0  0
   23.6728   -8.1796  -18.3433 C   0  0  0  0  0  0  0  0  0  0  0  0
   22.4407   -8.4193  -17.7491 O   0  0  0  0  0  0  0  0  0  0  0  0
   23.7453   -7.3105  -19.2456 O   0  0  0  0  0  0  0  0  0  0  0  0
  2  1  1  6
  2  5  1  0
  3  2  1  0
  4  3  1  0
  5  6  2  0
  7  5  1  0
  7  8  1  0
  8 12  1  0
  8  9  1  1
 10 14  1  0
 10  9  1  0
 11 10  2  0
 12 13  2  0
 15 16  1  0
 15 12  1  0
 16 27  1  0
 16 17  1  1
 18 17  1  0
 18 19  2  0
 20 19  1  0
 21 20  1  0
 22 21  2  0
 23 22  1  0
 24 23  2  0
 24 25  1  0
 25 26  2  0
 26 21  1  0
 26 18  1  0
 27 29  2  0
 27 28  1  0
M  END
$$$$
