CDW.pdb
     RDKit          3D

 29 30  0  0  1  0  0  0  0  0999 V2000
   31.0131  -23.2735  -18.2986 N   0  0  0  0  0  0  0  0  0  0  0  0
   29.7917  -23.7492  -17.7347 C   0  0  1  0  0  0  0  0  0  0  0  0
   29.9687  -24.9473  -16.8294 C   0  0  0  0  0  0  0  0  0  0  0  0
   30.9267  -24.3981  -15.3825 S   0  0  0  0  0  0  0  0  0  0  0  0
   29.0016  -22.6739  -17.0792 C   0  0  0  0  0  0  0  0  0  0  0  0
   29.5959  -21.6272  -16.7398 O   0  0  0  0  0  0  0  0  0  0  0  0
   27.6117  -22.8020  -16.8338 N   0  0  0  0  0  0  0  0  0  0  0  0
   26.7895  -21.8040  -16.1939 C   0  0  1  0  0  0  0  0  0  0  0  0
   25.4624  -21.6442  -16.9081 C   0  0  0  0  0  0  0  0  0  0  0  0
   25.1939  -20.2546  -17.2956 C   0  0  0  0  0  0  0  0  0  0  0  0
   25.5214  -19.3466  -16.4725 O   0  0  0  0  0  0  0  0  0  0  0  0
   26.4782  -22.1770  -14.7868 C   0  0  0  0  0  0  0  0  0  0  0  0
   26.9045  -23.2352  -14.2617 O   0  0  0  0  0  0  0  0  0  0  0  0
   24.6144  -19.8313  -18.4815 O   0  0  0  0  0  0  0  0  0  0  0  0
   25.6729  -21.3511  -13.9476 N   0  0  0  0  0  0  0  0  0  0  0  0
   25.4776  -21.6016  -12.5223 C   0  0  1  0  0  0  0  0  0  0  0  0
   26.8234  -21.6279  -11.8087 C   0  0  0  0  0  0  0  0  0  0  0  0
   26.6634  -20.9644  -10.4902 C   0  0  0  0  0  0  0  0  0  0  0  0
   25.5077  -20.4163   -9.9265 C   0  0  0  0  0  0  0  0  0  0  0  0
   25.8058  -19.9041   -8.7078 N   0  0  0  0  0  0  0  0  0  0  0  0
   27.1047  -20.0852   -8.4334 C   0  0  0  0  0  0  0  0  0  0  0  0
   27.8706  -19.7430   -7.3351 C   0  0  0  0  0  0  0  0  0  0  0  0
   29.2118  -20.0664   -7.3370 C   0  0  0  0  0  0  0  0  0  0  0  0
   29.7825  -20.7220   -8.4166 C   0  0  0  0  0  0  0  0  0  0  0  0
   28.9799  -21.0437   -9.4902 C   0  0  0  0  0  0  0  0  0  0  0  0
   27.6398  -20.7389   -9.5284 C   0  0  0  0  0  0  0  0  0  0  0  0
   24.5263  -20.6658  -11.9212 C   0  0  0  0  0  0  0  0  0  0  0  0
   24.1465  -19.5012  -12.5755 O   0  0  0  0  0  0  0  0  0  0  0  0
   24.0347  -20.9079  -10.7923 O   0  0  0  0  0  0  0  0  0  0  0  0
  2  1  1  1
  2  5  1  0
  3  2  1  0
  4  3  1  0
  5  6  2  0
  7  5  1  0
  7  8  1  0
  8 12  1  0
  8  9  1  6
 10 14  1  0
 10  9  1  0
 11 10  2  0
 12 13  2  0
 15 16  1  0
 15 12  1  0
 16 27  1  0
 16 17  1  1
 18 17  1  0
 18 19  2  0
 20 19  1  0
 21 20  1  0
 22 21  2  0
 23 22  1  0
 24 23  2  0
 24 25  1  0
 25 26  2  0
 26 21  1  0
 26 18  1  0
 27 29  2  0
 27 28  1  0
M  END
$$$$
