MHS.pdb
     RDKit          3D

 25 25  0  0  1  0  0  0  0  0999 V2000
    7.5942  -14.2634   17.5731 C   0  0  0  0  0  0  0  0  0  0  0  0
    7.0643  -12.8795   18.5834 S   0  0  0  0  0  0  0  0  0  0  0  0
    7.6422  -13.1049   20.3065 C   0  0  0  0  0  0  0  0  0  0  0  0
    7.6130  -14.5950   20.5895 C   0  0  0  0  0  0  0  0  0  0  0  0
    8.0721  -14.9031   21.9963 C   0  0  2  0  0  0  0  0  0  0  0  0
    8.8120  -13.8049   22.5310 N   0  0  0  0  0  0  0  0  0  0  0  0
    8.8701  -16.1717   22.0122 C   0  0  0  0  0  0  0  0  0  0  0  0
    8.3659  -17.2717   21.7438 O   0  0  0  0  0  0  0  0  0  0  0  0
   10.2356  -16.0847   22.3460 N   0  0  0  0  0  0  0  0  0  0  0  0
   11.1559  -17.1625   22.4308 C   0  0  1  0  0  0  0  0  0  0  0  0
   12.5080  -16.9717   21.7861 C   0  0  0  0  0  0  0  0  0  0  0  0
   13.3223  -18.2220   21.7438 C   0  0  0  0  0  0  0  0  0  0  0  0
   12.8966  -19.4904   22.1324 C   0  0  0  0  0  0  0  0  0  0  0  0
   13.8932  -20.3630   21.9534 N   0  0  0  0  0  0  0  0  0  0  0  0
   14.9451  -19.6944   21.4621 C   0  0  0  0  0  0  0  0  0  0  0  0
   14.5818  -18.4093   21.3434 N   0  0  0  0  0  0  0  0  0  0  0  0
   11.1749  -17.8732   23.7154 C   0  0  0  0  0  0  0  0  0  0  0  0
   11.3310  -17.2559   24.8294 O   0  0  0  0  0  0  0  0  0  0  0  0
   10.9918  -22.1131   24.2646 O   0  0  0  0  0  0  0  0  0  0  0  0
   10.2736  -21.2608   25.1047 C   0  0  0  0  0  0  0  0  0  0  0  0
   11.0038  -19.9485   25.1395 C   0  0  2  0  0  0  0  0  0  0  0  0
   11.0267  -19.2764   23.8596 N   0  0  0  0  0  0  0  0  0  0  0  0
   12.3666  -20.1553   25.6569 C   0  0  0  0  0  0  0  0  0  0  0  0
   13.5128  -19.9614   24.9052 O   0  0  0  0  0  0  0  0  0  0  0  0
   12.5124  -20.5297   26.8490 O   0  0  0  0  0  0  0  0  0  0  0  0
  2  1  1  0
  3  2  1  0
  4  3  1  0
  4  5  1  0
  5  6  1  6
  5  7  1  0
  7  9  1  0
  8  7  2  0
  9 10  1  0
 10 11  1  1
 11 12  1  0
 12 16  1  0
 13 12  2  0
 13 14  1  0
 14 15  1  0
 16 15  2  0
 17 10  1  0
 17 22  1  0
 18 17  2  0
 19 20  1  0
 21 20  1  6
 21 23  1  0
 21 22  1  0
 23 24  1  0
 25 23  2  0
M  END
$$$$
