MHS.pdb
     RDKit          3D

 25 25  0  0  1  0  0  0  0  0999 V2000
    7.2664  -11.3124   20.5199 C   0  0  0  0  0  0  0  0  0  0  0  0
    8.4197  -12.4727   19.7849 S   0  0  0  0  0  0  0  0  0  0  0  0
    7.6334  -14.1186   19.6217 C   0  0  0  0  0  0  0  0  0  0  0  0
    8.6563  -15.0332   18.9749 C   0  0  0  0  0  0  0  0  0  0  0  0
    8.7896  -16.3381   19.7260 C   0  0  2  0  0  0  0  0  0  0  0  0
    7.5242  -16.9944   19.8136 N   0  0  0  0  0  0  0  0  0  0  0  0
    9.3850  -16.0954   21.0799 C   0  0  0  0  0  0  0  0  0  0  0  0
   10.5156  -15.6087   21.2258 O   0  0  0  0  0  0  0  0  0  0  0  0
    8.6150  -16.4400   22.2076 N   0  0  0  0  0  0  0  0  0  0  0  0
    9.0497  -16.4452   23.5593 C   0  0  1  0  0  0  0  0  0  0  0  0
    7.9859  -16.3967   24.6297 C   0  0  0  0  0  0  0  0  0  0  0  0
    7.4547  -15.0227   24.8707 C   0  0  0  0  0  0  0  0  0  0  0  0
    7.9325  -13.8472   24.2955 C   0  0  0  0  0  0  0  0  0  0  0  0
    7.2123  -12.8139   24.7433 N   0  0  0  0  0  0  0  0  0  0  0  0
    6.2874  -13.2894   25.5878 C   0  0  0  0  0  0  0  0  0  0  0  0
    6.4496  -14.6189   25.6508 N   0  0  0  0  0  0  0  0  0  0  0  0
   10.1847  -17.3297   23.8510 C   0  0  0  0  0  0  0  0  0  0  0  0
   10.1164  -18.5994   23.6788 O   0  0  0  0  0  0  0  0  0  0  0  0
   14.0766  -16.0389   24.6296 O   0  0  0  0  0  0  0  0  0  0  0  0
   13.8548  -17.3249   24.1346 C   0  0  0  0  0  0  0  0  0  0  0  0
   12.5278  -17.7856   24.6671 C   0  0  2  0  0  0  0  0  0  0  0  0
   11.4415  -16.8896   24.3393 N   0  0  0  0  0  0  0  0  0  0  0  0
   12.6250  -17.9952   26.1212 C   0  0  0  0  0  0  0  0  0  0  0  0
   13.5452  -18.8405   26.7171 O   0  0  0  0  0  0  0  0  0  0  0  0
   11.8323  -17.3768   26.8773 O   0  0  0  0  0  0  0  0  0  0  0  0
  2  1  1  0
  3  2  1  0
  4  3  1  0
  4  5  1  0
  5  6  1  1
  5  7  1  0
  7  9  1  0
  8  7  2  0
  9 10  1  0
 10 11  1  1
 11 12  1  0
 12 16  1  0
 13 12  2  0
 13 14  1  0
 14 15  1  0
 16 15  2  0
 17 10  1  0
 17 22  1  0
 18 17  2  0
 19 20  1  0
 21 20  1  1
 21 23  1  0
 21 22  1  0
 23 24  1  0
 25 23  2  0
M  END
$$$$
