MHS.pdb
     RDKit          3D

 25 25  0  0  1  0  0  0  0  0999 V2000
    8.2771  -11.3880   20.6643 C   0  0  0  0  0  0  0  0  0  0  0  0
    7.7809  -12.1482   19.1175 S   0  0  0  0  0  0  0  0  0  0  0  0
    7.9903  -13.9648   19.2171 C   0  0  0  0  0  0  0  0  0  0  0  0
    7.5897  -14.3779   20.6208 C   0  0  0  0  0  0  0  0  0  0  0  0
    7.5954  -15.8809   20.7812 C   0  0  2  0  0  0  0  0  0  0  0  0
    6.6483  -16.4804   19.8962 N   0  0  0  0  0  0  0  0  0  0  0  0
    7.3312  -16.2481   22.2101 C   0  0  0  0  0  0  0  0  0  0  0  0
    6.1856  -16.2806   22.6820 O   0  0  0  0  0  0  0  0  0  0  0  0
    8.4376  -16.5624   23.0230 N   0  0  0  0  0  0  0  0  0  0  0  0
    8.4072  -16.8844   24.4055 C   0  0  1  0  0  0  0  0  0  0  0  0
    8.2014  -18.3338   24.7752 C   0  0  0  0  0  0  0  0  0  0  0  0
    8.1916  -18.5703   26.2490 C   0  0  0  0  0  0  0  0  0  0  0  0
    9.2437  -19.0859   27.0029 C   0  0  0  0  0  0  0  0  0  0  0  0
    8.8735  -19.1548   28.2855 N   0  0  0  0  0  0  0  0  0  0  0  0
    7.6169  -18.6996   28.3784 C   0  0  0  0  0  0  0  0  0  0  0  0
    7.2251  -18.3534   27.1437 N   0  0  0  0  0  0  0  0  0  0  0  0
    9.3745  -16.1615   25.2405 C   0  0  0  0  0  0  0  0  0  0  0  0
   10.6355  -16.2018   25.0065 O   0  0  0  0  0  0  0  0  0  0  0  0
    8.2282  -13.6360   28.2985 O   0  0  0  0  0  0  0  0  0  0  0  0
    9.4568  -13.3457   27.7031 C   0  0  0  0  0  0  0  0  0  0  0  0
    9.9985  -14.6317   27.1469 C   0  0  2  0  0  0  0  0  0  0  0  0
    9.0302  -15.3641   26.3618 N   0  0  0  0  0  0  0  0  0  0  0  0
   10.5305  -15.4585   28.2429 C   0  0  0  0  0  0  0  0  0  0  0  0
   11.5616  -15.0606   29.0764 O   0  0  0  0  0  0  0  0  0  0  0  0
   10.0283  -16.5941   28.4446 O   0  0  0  0  0  0  0  0  0  0  0  0
  2  1  1  0
  3  2  1  0
  4  3  1  0
  4  5  1  0
  5  6  1  6
  5  7  1  0
  7  9  1  0
  8  7  2  0
  9 10  1  0
 10 11  1  6
 11 12  1  0
 12 16  1  0
 13 12  2  0
 13 14  1  0
 14 15  1  0
 16 15  2  0
 17 10  1  0
 17 22  1  0
 18 17  2  0
 19 20  1  0
 21 20  1  1
 21 23  1  0
 21 22  1  0
 23 24  1  0
 25 23  2  0
M  END
$$$$
