MHS.pdb
     RDKit          3D

 25 25  0  0  1  0  0  0  0  0999 V2000
    7.8387  -11.4400   27.2959 C   0  0  0  0  0  0  0  0  0  0  0  0
    6.3131  -12.3050   26.9203 S   0  0  0  0  0  0  0  0  0  0  0  0
    6.5285  -14.1026   27.1960 C   0  0  0  0  0  0  0  0  0  0  0  0
    7.3919  -14.6218   26.0618 C   0  0  0  0  0  0  0  0  0  0  0  0
    6.6629  -15.6576   25.2370 C   0  0  2  0  0  0  0  0  0  0  0  0
    6.5529  -16.8839   25.9606 N   0  0  0  0  0  0  0  0  0  0  0  0
    7.3539  -15.8486   23.9208 C   0  0  0  0  0  0  0  0  0  0  0  0
    7.9333  -16.9042   23.6268 O   0  0  0  0  0  0  0  0  0  0  0  0
    7.3302  -14.7789   23.0050 N   0  0  0  0  0  0  0  0  0  0  0  0
    7.8725  -14.7766   21.6928 C   0  0  1  0  0  0  0  0  0  0  0  0
    7.1821  -13.9195   20.6591 C   0  0  0  0  0  0  0  0  0  0  0  0
    7.8491  -13.9541   19.3242 C   0  0  0  0  0  0  0  0  0  0  0  0
    7.4375  -14.7000   18.2218 C   0  0  0  0  0  0  0  0  0  0  0  0
    8.2749  -14.4792   17.2036 N   0  0  0  0  0  0  0  0  0  0  0  0
    9.2110  -13.6150   17.6179 C   0  0  0  0  0  0  0  0  0  0  0  0
    8.9375  -13.3115   18.8949 N   0  0  0  0  0  0  0  0  0  0  0  0
    9.3388  -14.7791   21.6188 C   0  0  0  0  0  0  0  0  0  0  0  0
    9.9622  -14.5812   20.5149 O   0  0  0  0  0  0  0  0  0  0  0  0
   11.6790  -18.2769   23.2658 O   0  0  0  0  0  0  0  0  0  0  0  0
   10.6209  -17.3681   23.2146 C   0  0  0  0  0  0  0  0  0  0  0  0
   11.1871  -16.0477   22.7758 C   0  0  2  0  0  0  0  0  0  0  0  0
   10.1988  -14.9936   22.7261 N   0  0  0  0  0  0  0  0  0  0  0  0
   11.8618  -16.2068   21.4769 C   0  0  0  0  0  0  0  0  0  0  0  0
   13.2028  -15.9342   21.2678 O   0  0  0  0  0  0  0  0  0  0  0  0
   11.1930  -16.6130   20.4919 O   0  0  0  0  0  0  0  0  0  0  0  0
  2  1  1  0
  3  2  1  0
  4  3  1  0
  4  5  1  0
  5  6  1  1
  5  7  1  0
  7  9  1  0
  8  7  2  0
  9 10  1  0
 10 11  1  1
 11 12  1  0
 12 16  1  0
 13 12  2  0
 13 14  1  0
 14 15  1  0
 16 15  2  0
 17 10  1  0
 17 22  1  0
 18 17  2  0
 19 20  1  0
 21 20  1  6
 21 23  1  0
 21 22  1  0
 23 24  1  0
 25 23  2  0
M  END
$$$$
