MHS.pdb
     RDKit          3D

 25 25  0  0  1  0  0  0  0  0999 V2000
    7.0437  -12.2506   20.8571 C   0  0  0  0  0  0  0  0  0  0  0  0
    8.0051  -11.9266   19.3781 S   0  0  0  0  0  0  0  0  0  0  0  0
    8.5420  -13.5059   18.6220 C   0  0  0  0  0  0  0  0  0  0  0  0
    8.6087  -14.5291   19.7400 C   0  0  0  0  0  0  0  0  0  0  0  0
    8.9937  -15.8956   19.2210 C   0  0  2  0  0  0  0  0  0  0  0  0
    8.1069  -16.3006   18.1773 N   0  0  0  0  0  0  0  0  0  0  0  0
    9.0182  -16.8863   20.3455 C   0  0  0  0  0  0  0  0  0  0  0  0
    8.0062  -17.5087   20.6987 O   0  0  0  0  0  0  0  0  0  0  0  0
   10.2433  -17.0992   21.0068 N   0  0  0  0  0  0  0  0  0  0  0  0
   10.4601  -17.9264   22.1402 C   0  0  1  0  0  0  0  0  0  0  0  0
   11.7066  -18.7785   22.1482 C   0  0  0  0  0  0  0  0  0  0  0  0
   11.6204  -19.9574   21.2366 C   0  0  0  0  0  0  0  0  0  0  0  0
   10.7717  -20.0837   20.1390 C   0  0  0  0  0  0  0  0  0  0  0  0
   10.9736  -21.2721   19.5612 N   0  0  0  0  0  0  0  0  0  0  0  0
   11.9253  -21.9123   20.2535 C   0  0  0  0  0  0  0  0  0  0  0  0
   12.3009  -21.1055   21.2564 N   0  0  0  0  0  0  0  0  0  0  0  0
   10.1103  -17.3251   23.4332 C   0  0  0  0  0  0  0  0  0  0  0  0
   10.7304  -16.3008   23.8944 O   0  0  0  0  0  0  0  0  0  0  0  0
    6.8269  -18.4832   25.5541 O   0  0  0  0  0  0  0  0  0  0  0  0
    7.3291  -17.2337   25.9209 C   0  0  0  0  0  0  0  0  0  0  0  0
    8.7925  -17.2234   25.5819 C   0  0  2  0  0  0  0  0  0  0  0  0
    9.0800  -17.7968   24.2862 N   0  0  0  0  0  0  0  0  0  0  0  0
    9.5505  -17.9034   26.6453 C   0  0  0  0  0  0  0  0  0  0  0  0
    9.5355  -17.5106   27.9726 O   0  0  0  0  0  0  0  0  0  0  0  0
   10.2565  -18.9001   26.3443 O   0  0  0  0  0  0  0  0  0  0  0  0
  2  1  1  0
  3  2  1  0
  4  3  1  0
  4  5  1  0
  5  6  1  6
  5  7  1  0
  7  9  1  0
  8  7  2  0
  9 10  1  0
 10 11  1  1
 11 12  1  0
 12 16  1  0
 13 12  2  0
 13 14  1  0
 14 15  1  0
 16 15  2  0
 17 10  1  0
 17 22  1  0
 18 17  2  0
 19 20  1  0
 21 20  1  1
 21 23  1  0
 21 22  1  0
 23 24  1  0
 25 23  2  0
M  END
$$$$
