MHS.pdb
     RDKit          3D

 25 25  0  0  1  0  0  0  0  0999 V2000
    8.1050  -11.5511   19.9875 C   0  0  0  0  0  0  0  0  0  0  0  0
    7.1456  -12.9412   19.3843 S   0  0  0  0  0  0  0  0  0  0  0  0
    8.2612  -14.2203   18.6963 C   0  0  0  0  0  0  0  0  0  0  0  0
    9.0477  -13.5632   17.5778 C   0  0  0  0  0  0  0  0  0  0  0  0
    9.9520  -14.5521   16.8783 C   0  0  2  0  0  0  0  0  0  0  0  0
    9.1798  -15.4861   16.1228 N   0  0  0  0  0  0  0  0  0  0  0  0
   10.8349  -15.2387   17.8761 C   0  0  0  0  0  0  0  0  0  0  0  0
   10.6019  -16.3857   18.2841 O   0  0  0  0  0  0  0  0  0  0  0  0
   11.9600  -14.5368   18.3504 N   0  0  0  0  0  0  0  0  0  0  0  0
   12.9922  -15.0531   19.1774 C   0  0  1  0  0  0  0  0  0  0  0  0
   14.3971  -14.5631   18.9198 C   0  0  0  0  0  0  0  0  0  0  0  0
   14.9281  -14.9714   17.5859 C   0  0  0  0  0  0  0  0  0  0  0  0
   15.4688  -14.1206   16.6241 C   0  0  0  0  0  0  0  0  0  0  0  0
   15.8403  -14.8391   15.5599 N   0  0  0  0  0  0  0  0  0  0  0  0
   15.5550  -16.1243   15.8086 C   0  0  0  0  0  0  0  0  0  0  0  0
   15.0075  -16.1828   17.0311 N   0  0  0  0  0  0  0  0  0  0  0  0
   12.6408  -15.2154   20.5937 C   0  0  0  0  0  0  0  0  0  0  0  0
   12.5351  -14.2111   21.3853 O   0  0  0  0  0  0  0  0  0  0  0  0
   11.1727  -18.6387   21.8931 O   0  0  0  0  0  0  0  0  0  0  0  0
   11.0070  -17.6567   22.8709 C   0  0  0  0  0  0  0  0  0  0  0  0
   12.0400  -16.5958   22.6179 C   0  0  2  0  0  0  0  0  0  0  0  0
   12.3873  -16.4620   21.2209 N   0  0  0  0  0  0  0  0  0  0  0  0
   13.2322  -16.8613   23.4400 C   0  0  0  0  0  0  0  0  0  0  0  0
   13.2115  -16.9437   24.8217 O   0  0  0  0  0  0  0  0  0  0  0  0
   14.3400  -17.0248   22.8667 O   0  0  0  0  0  0  0  0  0  0  0  0
  2  1  1  0
  3  2  1  0
  4  3  1  0
  4  5  1  0
  5  6  1  1
  5  7  1  0
  7  9  1  0
  8  7  2  0
  9 10  1  0
 10 11  1  1
 11 12  1  0
 12 16  1  0
 13 12  2  0
 13 14  1  0
 14 15  1  0
 16 15  2  0
 17 10  1  0
 17 22  1  0
 18 17  2  0
 19 20  1  0
 21 20  1  6
 21 23  1  0
 21 22  1  0
 23 24  1  0
 25 23  2  0
M  END
$$$$
