MHS.pdb
     RDKit          3D

 25 25  0  0  1  0  0  0  0  0999 V2000
    8.3960  -12.2169   20.4921 C   0  0  0  0  0  0  0  0  0  0  0  0
    7.6307  -12.3284   18.8740 S   0  0  0  0  0  0  0  0  0  0  0  0
    8.1251  -13.8895   18.0538 C   0  0  0  0  0  0  0  0  0  0  0  0
    7.9987  -14.9905   19.0898 C   0  0  0  0  0  0  0  0  0  0  0  0
    8.2905  -16.3494   18.4957 C   0  0  2  0  0  0  0  0  0  0  0  0
    7.3718  -16.6405   17.4417 N   0  0  0  0  0  0  0  0  0  0  0  0
    8.2590  -17.3978   19.5663 C   0  0  0  0  0  0  0  0  0  0  0  0
    7.2164  -17.9909   19.8785 O   0  0  0  0  0  0  0  0  0  0  0  0
    9.4667  -17.7013   20.2243 N   0  0  0  0  0  0  0  0  0  0  0  0
    9.6606  -18.6933   21.2214 C   0  0  1  0  0  0  0  0  0  0  0  0
   10.6734  -19.7758   20.9344 C   0  0  0  0  0  0  0  0  0  0  0  0
   10.7963  -20.7750   22.0364 C   0  0  0  0  0  0  0  0  0  0  0  0
   11.1273  -20.4972   23.3609 C   0  0  0  0  0  0  0  0  0  0  0  0
   11.1406  -21.6368   24.0595 N   0  0  0  0  0  0  0  0  0  0  0  0
   10.8284  -22.6372   23.2249 C   0  0  0  0  0  0  0  0  0  0  0  0
   10.6252  -22.0986   22.0139 N   0  0  0  0  0  0  0  0  0  0  0  0
    9.6499  -18.2037   22.6055 C   0  0  0  0  0  0  0  0  0  0  0  0
   10.4972  -17.3357   23.0241 O   0  0  0  0  0  0  0  0  0  0  0  0
    6.4850  -18.7843   25.1676 O   0  0  0  0  0  0  0  0  0  0  0  0
    7.3210  -17.6884   25.3871 C   0  0  0  0  0  0  0  0  0  0  0  0
    8.6999  -18.0818   24.9393 C   0  0  2  0  0  0  0  0  0  0  0  0
    8.7295  -18.6241   23.5994 N   0  0  0  0  0  0  0  0  0  0  0  0
    9.2836  -19.0243   25.9082 C   0  0  0  0  0  0  0  0  0  0  0  0
    9.8348  -20.2449   25.5583 O   0  0  0  0  0  0  0  0  0  0  0  0
    9.2883  -18.7150   27.1277 O   0  0  0  0  0  0  0  0  0  0  0  0
  2  1  1  0
  3  2  1  0
  4  3  1  0
  4  5  1  0
  5  6  1  6
  5  7  1  0
  7  9  1  0
  8  7  2  0
  9 10  1  0
 10 11  1  6
 11 12  1  0
 12 16  1  0
 13 12  2  0
 13 14  1  0
 14 15  1  0
 16 15  2  0
 17 10  1  0
 17 22  1  0
 18 17  2  0
 19 20  1  0
 21 20  1  1
 21 23  1  0
 21 22  1  0
 23 24  1  0
 25 23  2  0
M  END
$$$$
