MHS.pdb
     RDKit          3D

 25 25  0  0  1  0  0  0  0  0999 V2000
    7.8113  -12.7785   21.0444 C   0  0  0  0  0  0  0  0  0  0  0  0
    8.0240  -12.3324   19.3203 S   0  0  0  0  0  0  0  0  0  0  0  0
    7.9995  -13.8372   18.2767 C   0  0  0  0  0  0  0  0  0  0  0  0
    9.1143  -14.7371   18.7753 C   0  0  0  0  0  0  0  0  0  0  0  0
    9.2451  -15.9821   17.9282 C   0  0  2  0  0  0  0  0  0  0  0  0
    7.9923  -16.6628   17.8455 N   0  0  0  0  0  0  0  0  0  0  0  0
   10.3239  -16.8672   18.4752 C   0  0  0  0  0  0  0  0  0  0  0  0
   10.0707  -17.8837   19.1376 O   0  0  0  0  0  0  0  0  0  0  0  0
   11.6612  -16.5108   18.2144 N   0  0  0  0  0  0  0  0  0  0  0  0
   12.8218  -17.1918   18.6673 C   0  0  1  0  0  0  0  0  0  0  0  0
   14.0801  -17.0381   17.8468 C   0  0  0  0  0  0  0  0  0  0  0  0
   13.9574  -17.5994   16.4691 C   0  0  0  0  0  0  0  0  0  0  0  0
   13.4206  -18.8410   16.1353 C   0  0  0  0  0  0  0  0  0  0  0  0
   13.4748  -19.0016   14.8094 N   0  0  0  0  0  0  0  0  0  0  0  0
   14.0295  -17.9021   14.2819 C   0  0  0  0  0  0  0  0  0  0  0  0
   14.3125  -17.0716   15.2957 N   0  0  0  0  0  0  0  0  0  0  0  0
   13.0243  -17.1899   20.1214 C   0  0  0  0  0  0  0  0  0  0  0  0
   13.3581  -16.1270   20.7580 O   0  0  0  0  0  0  0  0  0  0  0  0
   11.8658  -20.3300   22.5105 O   0  0  0  0  0  0  0  0  0  0  0  0
   11.8969  -19.0605   23.0898 C   0  0  0  0  0  0  0  0  0  0  0  0
   12.9765  -18.2794   22.3962 C   0  0  2  0  0  0  0  0  0  0  0  0
   12.8767  -18.3281   20.9547 N   0  0  0  0  0  0  0  0  0  0  0  0
   14.2956  -18.7457   22.8548 C   0  0  0  0  0  0  0  0  0  0  0  0
   14.7300  -18.6570   24.1662 O   0  0  0  0  0  0  0  0  0  0  0  0
   15.0832  -19.2561   22.0171 O   0  0  0  0  0  0  0  0  0  0  0  0
  2  1  1  0
  3  2  1  0
  4  3  1  0
  4  5  1  0
  5  6  1  1
  5  7  1  0
  7  9  1  0
  8  7  2  0
  9 10  1  0
 10 11  1  6
 11 12  1  0
 12 16  1  0
 13 12  2  0
 13 14  1  0
 14 15  1  0
 16 15  2  0
 17 10  1  0
 17 22  1  0
 18 17  2  0
 19 20  1  0
 21 20  1  1
 21 23  1  0
 21 22  1  0
 23 24  1  0
 25 23  2  0
M  END
$$$$
