MHS.pdb
     RDKit          3D

 25 25  0  0  1  0  0  0  0  0999 V2000
    6.2672  -11.6128   27.4941 C   0  0  0  0  0  0  0  0  0  0  0  0
    7.7652  -12.4300   26.9421 S   0  0  0  0  0  0  0  0  0  0  0  0
    7.7218  -14.1999   27.4105 C   0  0  0  0  0  0  0  0  0  0  0  0
    8.1032  -14.9922   26.1743 C   0  0  0  0  0  0  0  0  0  0  0  0
    6.8839  -15.5226   25.4555 C   0  0  2  0  0  0  0  0  0  0  0  0
    6.3691  -16.6722   26.1285 N   0  0  0  0  0  0  0  0  0  0  0  0
    7.2170  -15.8186   24.0245 C   0  0  0  0  0  0  0  0  0  0  0  0
    7.4592  -16.9675   23.6275 O   0  0  0  0  0  0  0  0  0  0  0  0
    7.2495  -14.7390   23.1206 N   0  0  0  0  0  0  0  0  0  0  0  0
    7.7082  -14.7739   21.7774 C   0  0  1  0  0  0  0  0  0  0  0  0
    7.3179  -13.6228   20.8816 C   0  0  0  0  0  0  0  0  0  0  0  0
    7.7325  -13.8151   19.4606 C   0  0  0  0  0  0  0  0  0  0  0  0
    8.6198  -13.0095   18.7500 C   0  0  0  0  0  0  0  0  0  0  0  0
    8.7505  -13.4876   17.5086 N   0  0  0  0  0  0  0  0  0  0  0  0
    7.9751  -14.5747   17.4002 C   0  0  0  0  0  0  0  0  0  0  0  0
    7.3717  -14.7547   18.5839 N   0  0  0  0  0  0  0  0  0  0  0  0
    9.0791  -15.2665   21.5941 C   0  0  0  0  0  0  0  0  0  0  0  0
   10.0658  -14.7896   22.2615 O   0  0  0  0  0  0  0  0  0  0  0  0
    9.8271  -18.7484   19.7034 O   0  0  0  0  0  0  0  0  0  0  0  0
   10.8481  -18.3124   20.5493 C   0  0  0  0  0  0  0  0  0  0  0  0
   10.7946  -16.8114   20.5769 C   0  0  2  0  0  0  0  0  0  0  0  0
    9.4497  -16.2922   20.6873 N   0  0  0  0  0  0  0  0  0  0  0  0
   11.4783  -16.2709   19.3902 C   0  0  0  0  0  0  0  0  0  0  0  0
   12.8091  -16.5098   19.0933 O   0  0  0  0  0  0  0  0  0  0  0  0
   10.8274  -15.5490   18.5916 O   0  0  0  0  0  0  0  0  0  0  0  0
  2  1  1  0
  3  2  1  0
  4  3  1  0
  4  5  1  0
  5  6  1  1
  5  7  1  0
  7  9  1  0
  8  7  2  0
  9 10  1  0
 10 11  1  1
 11 12  1  0
 12 16  1  0
 13 12  2  0
 13 14  1  0
 14 15  1  0
 16 15  2  0
 17 10  1  0
 17 22  1  0
 18 17  2  0
 19 20  1  0
 21 20  1  6
 21 23  1  0
 21 22  1  0
 23 24  1  0
 25 23  2  0
M  END
$$$$
