MHS.pdb
     RDKit          3D

 25 25  0  0  1  0  0  0  0  0999 V2000
    7.9032  -12.7335   21.1543 C   0  0  0  0  0  0  0  0  0  0  0  0
    7.4699  -12.4195   19.4425 S   0  0  0  0  0  0  0  0  0  0  0  0
    7.8636  -13.8856   18.4180 C   0  0  0  0  0  0  0  0  0  0  0  0
    8.6676  -14.8301   19.2914 C   0  0  0  0  0  0  0  0  0  0  0  0
    9.0186  -16.1038   18.5570 C   0  0  2  0  0  0  0  0  0  0  0  0
    7.8377  -16.7330   18.0578 N   0  0  0  0  0  0  0  0  0  0  0  0
    9.7991  -17.0174   19.4529 C   0  0  0  0  0  0  0  0  0  0  0  0
    9.2470  -17.8144   20.2251 O   0  0  0  0  0  0  0  0  0  0  0  0
   11.2047  -16.9490   19.3971 N   0  0  0  0  0  0  0  0  0  0  0  0
   12.1197  -17.6780   20.2016 C   0  0  1  0  0  0  0  0  0  0  0  0
   13.4954  -17.9296   19.6323 C   0  0  0  0  0  0  0  0  0  0  0  0
   13.4709  -18.6792   18.3417 C   0  0  0  0  0  0  0  0  0  0  0  0
   12.7221  -19.8230   18.0728 C   0  0  0  0  0  0  0  0  0  0  0  0
   12.9518  -20.2136   16.8152 N   0  0  0  0  0  0  0  0  0  0  0  0
   13.8244  -19.3564   16.2687 C   0  0  0  0  0  0  0  0  0  0  0  0
   14.1241  -18.4418   17.2021 N   0  0  0  0  0  0  0  0  0  0  0  0
   12.0892  -17.3591   21.6345 C   0  0  0  0  0  0  0  0  0  0  0  0
   12.5105  -16.2351   22.0879 O   0  0  0  0  0  0  0  0  0  0  0  0
    9.2582  -18.0476   24.0562 O   0  0  0  0  0  0  0  0  0  0  0  0
   10.3900  -18.4417   24.7715 C   0  0  0  0  0  0  0  0  0  0  0  0
   11.5881  -17.8961   24.0479 C   0  0  2  0  0  0  0  0  0  0  0  0
   11.6048  -18.2322   22.6418 N   0  0  0  0  0  0  0  0  0  0  0  0
   12.8183  -18.3485   24.7183 C   0  0  0  0  0  0  0  0  0  0  0  0
   13.1007  -18.1086   26.0521 O   0  0  0  0  0  0  0  0  0  0  0  0
   13.6705  -18.9913   24.0525 O   0  0  0  0  0  0  0  0  0  0  0  0
  2  1  1  0
  3  2  1  0
  4  3  1  0
  4  5  1  0
  5  6  1  1
  5  7  1  0
  7  9  1  0
  8  7  2  0
  9 10  1  0
 10 11  1  6
 11 12  1  0
 12 16  1  0
 13 12  2  0
 13 14  1  0
 14 15  1  0
 16 15  2  0
 17 10  1  0
 17 22  1  0
 18 17  2  0
 19 20  1  0
 21 20  1  1
 21 23  1  0
 21 22  1  0
 23 24  1  0
 25 23  2  0
M  END
$$$$
