MHS.pdb
     RDKit          3D

 25 25  0  0  1  0  0  0  0  0999 V2000
    6.9917  -11.0084   27.6440 C   0  0  0  0  0  0  0  0  0  0  0  0
    7.2463  -11.9615   26.1462 S   0  0  0  0  0  0  0  0  0  0  0  0
    6.1141  -13.4008   26.1199 C   0  0  0  0  0  0  0  0  0  0  0  0
    6.3315  -14.1080   24.7955 C   0  0  0  0  0  0  0  0  0  0  0  0
    7.3281  -15.2371   24.9249 C   0  0  2  0  0  0  0  0  0  0  0  0
    8.3765  -14.8761   25.8250 N   0  0  0  0  0  0  0  0  0  0  0  0
    7.8593  -15.6134   23.5748 C   0  0  0  0  0  0  0  0  0  0  0  0
    7.1149  -15.9574   22.6454 O   0  0  0  0  0  0  0  0  0  0  0  0
    9.2534  -15.5667   23.3810 N   0  0  0  0  0  0  0  0  0  0  0  0
    9.9551  -15.9165   22.1972 C   0  0  1  0  0  0  0  0  0  0  0  0
   10.2131  -14.8177   21.1942 C   0  0  0  0  0  0  0  0  0  0  0  0
    8.9705  -14.3169   20.5360 C   0  0  0  0  0  0  0  0  0  0  0  0
    8.5534  -12.9889   20.4761 C   0  0  0  0  0  0  0  0  0  0  0  0
    7.3982  -12.9203   19.8071 N   0  0  0  0  0  0  0  0  0  0  0  0
    7.0608  -14.1626   19.4358 C   0  0  0  0  0  0  0  0  0  0  0  0
    8.0185  -14.9873   19.8834 N   0  0  0  0  0  0  0  0  0  0  0  0
   11.0618  -16.8639   22.3793 C   0  0  0  0  0  0  0  0  0  0  0  0
   11.8879  -16.7618   23.3558 O   0  0  0  0  0  0  0  0  0  0  0  0
   11.0378  -20.7833   21.5252 O   0  0  0  0  0  0  0  0  0  0  0  0
   12.2053  -20.2063   21.0232 C   0  0  0  0  0  0  0  0  0  0  0  0
   12.4042  -18.9027   21.7426 C   0  0  2  0  0  0  0  0  0  0  0  0
   11.3292  -17.9615   21.5217 N   0  0  0  0  0  0  0  0  0  0  0  0
   13.7045  -18.3240   21.3657 C   0  0  0  0  0  0  0  0  0  0  0  0
   14.9133  -18.9803   21.5218 O   0  0  0  0  0  0  0  0  0  0  0  0
   13.7332  -17.1672   20.8721 O   0  0  0  0  0  0  0  0  0  0  0  0
  2  1  1  0
  3  2  1  0
  4  3  1  0
  4  5  1  0
  5  6  1  1
  5  7  1  0
  7  9  1  0
  8  7  2  0
  9 10  1  0
 10 11  1  1
 11 12  1  0
 12 16  1  0
 13 12  2  0
 13 14  1  0
 14 15  1  0
 16 15  2  0
 17 10  1  0
 17 22  1  0
 18 17  2  0
 19 20  1  0
 21 20  1  6
 21 23  1  0
 21 22  1  0
 23 24  1  0
 25 23  2  0
M  END
$$$$
