MHS.pdb
     RDKit          3D

 25 25  0  0  1  0  0  0  0  0999 V2000
    7.9119  -11.9120   27.2631 C   0  0  0  0  0  0  0  0  0  0  0  0
    6.2407  -12.2842   26.7291 S   0  0  0  0  0  0  0  0  0  0  0  0
    5.9834  -14.0971   26.6954 C   0  0  0  0  0  0  0  0  0  0  0  0
    7.1827  -14.6990   25.9877 C   0  0  0  0  0  0  0  0  0  0  0  0
    6.7673  -15.5114   24.7826 C   0  0  2  0  0  0  0  0  0  0  0  0
    5.8880  -16.5672   25.1720 N   0  0  0  0  0  0  0  0  0  0  0  0
    7.9784  -16.0311   24.0687 C   0  0  0  0  0  0  0  0  0  0  0  0
    8.4348  -17.1635   24.2821 O   0  0  0  0  0  0  0  0  0  0  0  0
    8.6002  -15.1861   23.1292 N   0  0  0  0  0  0  0  0  0  0  0  0
    9.7328  -15.4968   22.3313 C   0  0  1  0  0  0  0  0  0  0  0  0
   10.0271  -14.5882   21.1618 C   0  0  0  0  0  0  0  0  0  0  0  0
    8.8357  -14.3329   20.2995 C   0  0  0  0  0  0  0  0  0  0  0  0
    7.8528  -15.2618   19.9646 C   0  0  0  0  0  0  0  0  0  0  0  0
    6.9433  -14.6762   19.1794 N   0  0  0  0  0  0  0  0  0  0  0  0
    7.3116  -13.4007   18.9999 C   0  0  0  0  0  0  0  0  0  0  0  0
    8.4513  -13.2142   19.6811 N   0  0  0  0  0  0  0  0  0  0  0  0
   10.9137  -15.9608   23.0701 C   0  0  0  0  0  0  0  0  0  0  0  0
   11.3190  -15.3752   24.1374 O   0  0  0  0  0  0  0  0  0  0  0  0
   11.6038  -19.4238   24.1268 O   0  0  0  0  0  0  0  0  0  0  0  0
   12.8512  -19.0427   23.6302 C   0  0  0  0  0  0  0  0  0  0  0  0
   12.8320  -17.5488   23.4733 C   0  0  2  0  0  0  0  0  0  0  0  0
   11.7099  -17.0732   22.6954 N   0  0  0  0  0  0  0  0  0  0  0  0
   14.1092  -17.0963   22.8974 C   0  0  0  0  0  0  0  0  0  0  0  0
   14.2075  -16.3401   21.7421 O   0  0  0  0  0  0  0  0  0  0  0  0
   15.1806  -17.4076   23.4786 O   0  0  0  0  0  0  0  0  0  0  0  0
  2  1  1  0
  3  2  1  0
  4  3  1  0
  4  5  1  0
  5  6  1  1
  5  7  1  0
  7  9  1  0
  8  7  2  0
  9 10  1  0
 10 11  1  1
 11 12  1  0
 12 16  1  0
 13 12  2  0
 13 14  1  0
 14 15  1  0
 16 15  2  0
 17 10  1  0
 17 22  1  0
 18 17  2  0
 19 20  1  0
 21 20  1  6
 21 23  1  0
 21 22  1  0
 23 24  1  0
 25 23  2  0
M  END
$$$$
