MTW.pdb
     RDKit          3D

 30 31  0  0  1  0  0  0  0  0999 V2000
    8.6021  -10.9334   20.3089 C   0  0  0  0  0  0  0  0  0  0  0  0
    7.9194  -11.5844   18.7666 S   0  0  0  0  0  0  0  0  0  0  0  0
    8.2607  -13.3314   18.5394 C   0  0  0  0  0  0  0  0  0  0  0  0
    7.8097  -14.1726   19.7281 C   0  0  0  0  0  0  0  0  0  0  0  0
    8.4136  -15.5253   19.5753 C   0  0  2  0  0  0  0  0  0  0  0  0
    7.7108  -16.1909   18.4695 N   0  0  0  0  0  0  0  0  0  0  0  0
    8.3384  -16.3673   20.7768 C   0  0  0  0  0  0  0  0  0  0  0  0
    7.2119  -16.7769   21.1709 O   0  0  0  0  0  0  0  0  0  0  0  0
    9.2952  -19.7084   21.7498 C   0  0  0  0  0  0  0  0  0  0  0  0
   10.0056  -18.8071   22.7350 C   0  0  1  0  0  0  0  0  0  0  0  0
   11.3321  -18.5923   22.3746 O   0  0  0  0  0  0  0  0  0  0  0  0
    9.3316  -17.4497   22.8287 C   0  0  2  0  0  0  0  0  0  0  0  0
    9.4615  -16.7680   21.5511 N   0  0  0  0  0  0  0  0  0  0  0  0
    9.9826  -16.6801   23.9207 C   0  0  0  0  0  0  0  0  0  0  0  0
   10.9456  -15.9165   23.6600 O   0  0  0  0  0  0  0  0  0  0  0  0
    9.5682  -16.7611   25.2725 N   0  0  0  0  0  0  0  0  0  0  0  0
   10.3435  -16.3129   26.4007 C   0  0  1  0  0  0  0  0  0  0  0  0
    9.6565  -15.2743   27.2203 C   0  0  0  0  0  0  0  0  0  0  0  0
    8.3101  -15.0207   26.6573 C   0  0  0  0  0  0  0  0  0  0  0  0
    7.3448  -15.9448   26.2681 C   0  0  0  0  0  0  0  0  0  0  0  0
    6.2547  -15.3154   25.8034 N   0  0  0  0  0  0  0  0  0  0  0  0
    6.4666  -13.9723   25.8718 C   0  0  0  0  0  0  0  0  0  0  0  0
    5.7054  -12.8756   25.5376 C   0  0  0  0  0  0  0  0  0  0  0  0
    6.1831  -11.5986   25.7180 C   0  0  0  0  0  0  0  0  0  0  0  0
    7.4474  -11.3825   26.2427 C   0  0  0  0  0  0  0  0  0  0  0  0
    8.1956  -12.4870   26.5716 C   0  0  0  0  0  0  0  0  0  0  0  0
    7.7283  -13.7828   26.3959 C   0  0  0  0  0  0  0  0  0  0  0  0
   10.6419  -17.4919   27.2493 C   0  0  0  0  0  0  0  0  0  0  0  0
   11.3985  -17.4762   28.2487 O   0  0  0  0  0  0  0  0  0  0  0  0
   10.0677  -18.7419   26.9653 O   0  0  0  0  0  0  0  0  0  0  0  0
  1  2  1  0
  3  2  1  0
  4  3  1  0
  5  6  1  6
  5  4  1  0
  7  8  2  0
  7  5  1  0
 10  9  1  6
 10 12  1  0
 11 10  1  0
 12 13  1  6
 13  7  1  0
 14 12  1  0
 14 16  1  0
 15 14  2  0
 17 16  1  0
 17 28  1  0
 17 18  1  1
 19 18  1  0
 20 19  2  0
 21 20  1  0
 22 21  1  0
 22 27  2  0
 23 24  2  0
 23 22  1  0
 24 25  1  0
 25 26  2  0
 26 27  1  0
 27 19  1  0
 28 29  2  0
 28 30  1  0
M  END
$$$$
