MTW.pdb
     RDKit          3D

 30 31  0  0  1  0  0  0  0  0999 V2000
    8.5959  -11.2928   19.7848 C   0  0  0  0  0  0  0  0  0  0  0  0
    8.3493  -13.0824   19.8531 S   0  0  0  0  0  0  0  0  0  0  0  0
    7.2543  -13.6818   18.5640 C   0  0  0  0  0  0  0  0  0  0  0  0
    6.9527  -15.1698   18.7010 C   0  0  0  0  0  0  0  0  0  0  0  0
    8.2521  -15.8965   18.6615 C   0  0  2  0  0  0  0  0  0  0  0  0
    8.2810  -16.6641   17.4087 N   0  0  0  0  0  0  0  0  0  0  0  0
    8.4792  -16.8043   19.7940 C   0  0  0  0  0  0  0  0  0  0  0  0
    7.9191  -17.9350   19.7974 O   0  0  0  0  0  0  0  0  0  0  0  0
    9.9396  -19.2586   20.2464 C   0  0  0  0  0  0  0  0  0  0  0  0
   10.5400  -18.5192   21.4212 C   0  0  1  0  0  0  0  0  0  0  0  0
   11.7205  -17.8699   21.0741 O   0  0  0  0  0  0  0  0  0  0  0  0
    9.5839  -17.4712   21.9627 C   0  0  2  0  0  0  0  0  0  0  0  0
    9.3002  -16.5037   20.9151 N   0  0  0  0  0  0  0  0  0  0  0  0
   10.2196  -16.8232   23.1394 C   0  0  0  0  0  0  0  0  0  0  0  0
   11.1860  -16.0373   22.9748 O   0  0  0  0  0  0  0  0  0  0  0  0
    9.7867  -17.0473   24.4690 N   0  0  0  0  0  0  0  0  0  0  0  0
   10.3511  -16.4204   25.6366 C   0  0  1  0  0  0  0  0  0  0  0  0
   10.0489  -14.9639   25.7350 C   0  0  0  0  0  0  0  0  0  0  0  0
    8.5863  -14.7778   25.8770 C   0  0  0  0  0  0  0  0  0  0  0  0
    7.5711  -15.7114   25.6897 C   0  0  0  0  0  0  0  0  0  0  0  0
    6.3726  -15.1507   25.9126 N   0  0  0  0  0  0  0  0  0  0  0  0
    6.5600  -13.8452   26.2500 C   0  0  0  0  0  0  0  0  0  0  0  0
    5.7027  -12.8193   26.5764 C   0  0  0  0  0  0  0  0  0  0  0  0
    6.1796  -11.5660   26.8821 C   0  0  0  0  0  0  0  0  0  0  0  0
    7.5402  -11.3030   26.8691 C   0  0  0  0  0  0  0  0  0  0  0  0
    8.3837  -12.3370   26.5414 C   0  0  0  0  0  0  0  0  0  0  0  0
    7.9186  -13.6079   26.2303 C   0  0  0  0  0  0  0  0  0  0  0  0
    9.8182  -17.1158   26.8331 C   0  0  0  0  0  0  0  0  0  0  0  0
   10.0707  -16.7898   28.0169 O   0  0  0  0  0  0  0  0  0  0  0  0
    8.9662  -18.2241   26.6967 O   0  0  0  0  0  0  0  0  0  0  0  0
  1  2  1  0
  3  2  1  0
  4  3  1  0
  5  6  1  6
  5  4  1  0
  7  8  2  0
  7  5  1  0
 10  9  1  6
 10 12  1  0
 11 10  1  0
 12 13  1  6
 13  7  1  0
 14 12  1  0
 14 16  1  0
 15 14  2  0
 17 16  1  0
 17 28  1  0
 17 18  1  1
 19 18  1  0
 20 19  2  0
 21 20  1  0
 22 21  1  0
 22 27  2  0
 23 24  2  0
 23 22  1  0
 24 25  1  0
 25 26  2  0
 26 27  1  0
 27 19  1  0
 28 29  2  0
 28 30  1  0
M  END
$$$$
