MTW.pdb
     RDKit          3D

 30 31  0  0  1  0  0  0  0  0999 V2000
    8.7782  -11.2330   20.9158 C   0  0  0  0  0  0  0  0  0  0  0  0
    7.3268  -12.3096   20.8662 S   0  0  0  0  0  0  0  0  0  0  0  0
    7.7423  -14.0190   20.5120 C   0  0  0  0  0  0  0  0  0  0  0  0
    6.5268  -14.9375   20.5664 C   0  0  0  0  0  0  0  0  0  0  0  0
    7.0020  -16.3261   20.3133 C   0  0  2  0  0  0  0  0  0  0  0  0
    5.8219  -17.1315   19.9690 N   0  0  0  0  0  0  0  0  0  0  0  0
    7.7025  -16.9480   21.4450 C   0  0  0  0  0  0  0  0  0  0  0  0
    7.0271  -17.4683   22.3752 O   0  0  0  0  0  0  0  0  0  0  0  0
   10.9502  -19.3059   21.1566 C   0  0  0  0  0  0  0  0  0  0  0  0
   11.1149  -18.2262   22.2029 C   0  0  1  0  0  0  0  0  0  0  0  0
   11.8354  -17.1405   21.7155 O   0  0  0  0  0  0  0  0  0  0  0  0
    9.7697  -17.7062   22.6780 C   0  0  2  0  0  0  0  0  0  0  0  0
    9.1164  -17.0124   21.5799 N   0  0  0  0  0  0  0  0  0  0  0  0
   10.0015  -16.7969   23.8303 C   0  0  0  0  0  0  0  0  0  0  0  0
   10.2806  -15.5888   23.6278 O   0  0  0  0  0  0  0  0  0  0  0  0
    9.9238  -17.2263   25.1776 N   0  0  0  0  0  0  0  0  0  0  0  0
   10.2482  -16.4138   26.3219 C   0  0  1  0  0  0  0  0  0  0  0  0
    9.1074  -16.2289   27.2635 C   0  0  0  0  0  0  0  0  0  0  0  0
    8.0278  -15.4793   26.5804 C   0  0  0  0  0  0  0  0  0  0  0  0
    6.9358  -15.9796   25.8771 C   0  0  0  0  0  0  0  0  0  0  0  0
    6.1844  -14.9743   25.4026 N   0  0  0  0  0  0  0  0  0  0  0  0
    6.7523  -13.7944   25.7749 C   0  0  0  0  0  0  0  0  0  0  0  0
    6.4168  -12.4756   25.5693 C   0  0  0  0  0  0  0  0  0  0  0  0
    7.1932  -11.4588   26.0741 C   0  0  0  0  0  0  0  0  0  0  0  0
    8.3372  -11.7369   26.8052 C   0  0  0  0  0  0  0  0  0  0  0  0
    8.6593  -13.0580   27.0022 C   0  0  0  0  0  0  0  0  0  0  0  0
    7.8864  -14.0964   26.4996 C   0  0  0  0  0  0  0  0  0  0  0  0
   11.3769  -17.0580   27.0363 C   0  0  0  0  0  0  0  0  0  0  0  0
   11.9377  -16.5859   28.0532 O   0  0  0  0  0  0  0  0  0  0  0  0
   11.8993  -18.2836   26.5916 O   0  0  0  0  0  0  0  0  0  0  0  0
  1  2  1  0
  3  2  1  0
  4  3  1  0
  5  6  1  1
  5  4  1  0
  7  8  2  0
  7  5  1  0
 10  9  1  6
 10 12  1  0
 11 10  1  0
 12 13  1  6
 13  7  1  0
 14 12  1  0
 14 16  1  0
 15 14  2  0
 17 16  1  0
 17 28  1  0
 17 18  1  1
 19 18  1  0
 20 19  2  0
 21 20  1  0
 22 21  1  0
 22 27  2  0
 23 24  2  0
 23 22  1  0
 24 25  1  0
 25 26  2  0
 26 27  1  0
 27 19  1  0
 28 29  2  0
 28 30  1  0
M  END
$$$$
