MTW.pdb
     RDKit          3D

 30 31  0  0  1  0  0  0  0  0999 V2000
    6.6306  -13.0310   20.2666 C   0  0  0  0  0  0  0  0  0  0  0  0
    8.2583  -12.4869   19.6984 S   0  0  0  0  0  0  0  0  0  0  0  0
    9.0219  -13.6493   18.5644 C   0  0  0  0  0  0  0  0  0  0  0  0
    8.0883  -14.7938   18.1870 C   0  0  0  0  0  0  0  0  0  0  0  0
    8.8860  -16.0511   18.2146 C   0  0  2  0  0  0  0  0  0  0  0  0
    8.4713  -16.8526   17.0546 N   0  0  0  0  0  0  0  0  0  0  0  0
    8.7282  -16.8483   19.4384 C   0  0  0  0  0  0  0  0  0  0  0  0
    7.9978  -17.8768   19.4123 O   0  0  0  0  0  0  0  0  0  0  0  0
    8.8082  -19.3889   20.4440 C   0  0  0  0  0  0  0  0  0  0  0  0
    9.6132  -18.7811   21.5711 C   0  0  1  0  0  0  0  0  0  0  0  0
   10.9705  -18.7345   21.2694 O   0  0  0  0  0  0  0  0  0  0  0  0
    9.1623  -17.3625   21.8707 C   0  0  2  0  0  0  0  0  0  0  0  0
    9.3481  -16.5463   20.6818 N   0  0  0  0  0  0  0  0  0  0  0  0
    9.9659  -16.8484   23.0102 C   0  0  0  0  0  0  0  0  0  0  0  0
   10.9804  -16.1404   22.7915 O   0  0  0  0  0  0  0  0  0  0  0  0
    9.6443  -17.1186   24.3627 N   0  0  0  0  0  0  0  0  0  0  0  0
   10.2904  -16.5155   25.5001 C   0  0  1  0  0  0  0  0  0  0  0  0
   10.0635  -15.0457   25.6035 C   0  0  0  0  0  0  0  0  0  0  0  0
    8.6072  -14.7789   25.6466 C   0  0  0  0  0  0  0  0  0  0  0  0
    7.5565  -15.6644   25.4248 C   0  0  0  0  0  0  0  0  0  0  0  0
    6.3786  -15.0347   25.5536 N   0  0  0  0  0  0  0  0  0  0  0  0
    6.6152  -13.7298   25.8608 C   0  0  0  0  0  0  0  0  0  0  0  0
    5.7962  -12.6499   26.0997 C   0  0  0  0  0  0  0  0  0  0  0  0
    6.3205  -11.4132   26.3954 C   0  0  0  0  0  0  0  0  0  0  0  0
    7.6915  -11.2220   26.4604 C   0  0  0  0  0  0  0  0  0  0  0  0
    8.4964  -12.3092   26.2195 C   0  0  0  0  0  0  0  0  0  0  0  0
    7.9832  -13.5643   25.9199 C   0  0  0  0  0  0  0  0  0  0  0  0
    9.7792  -17.1799   26.7234 C   0  0  0  0  0  0  0  0  0  0  0  0
   10.0671  -16.8350   27.8937 O   0  0  0  0  0  0  0  0  0  0  0  0
    8.9083  -18.2780   26.6307 O   0  0  0  0  0  0  0  0  0  0  0  0
  1  2  1  0
  3  2  1  0
  4  3  1  0
  5  6  1  6
  5  4  1  0
  7  8  2  0
  7  5  1  0
 10  9  1  6
 10 12  1  0
 11 10  1  0
 12 13  1  6
 13  7  1  0
 14 12  1  0
 14 16  1  0
 15 14  2  0
 17 16  1  0
 17 28  1  0
 17 18  1  1
 19 18  1  0
 20 19  2  0
 21 20  1  0
 22 21  1  0
 22 27  2  0
 23 24  2  0
 23 22  1  0
 24 25  1  0
 25 26  2  0
 26 27  1  0
 27 19  1  0
 28 29  2  0
 28 30  1  0
M  END
$$$$
