MTW.pdb
     RDKit          3D

 30 31  0  0  1  0  0  0  0  0999 V2000
    1.9136  -19.0390   19.2305 C   0  0  0  0  0  0  0  0  0  0  0  0
    1.7956  -18.9832   21.0336 S   0  0  0  0  0  0  0  0  0  0  0  0
    3.3782  -19.2361   21.8409 C   0  0  0  0  0  0  0  0  0  0  0  0
    4.5548  -19.0327   20.8931 C   0  0  0  0  0  0  0  0  0  0  0  0
    5.8037  -19.2399   21.6775 C   0  0  2  0  0  0  0  0  0  0  0  0
    5.4720  -19.0054   23.0898 N   0  0  0  0  0  0  0  0  0  0  0  0
    6.9210  -18.3688   21.2888 C   0  0  0  0  0  0  0  0  0  0  0  0
    7.7321  -18.7656   20.4075 O   0  0  0  0  0  0  0  0  0  0  0  0
    6.7767  -14.9546   19.7723 C   0  0  0  0  0  0  0  0  0  0  0  0
    7.6523  -14.8636   21.0022 C   0  0  1  0  0  0  0  0  0  0  0  0
    6.9442  -14.4018   22.1072 O   0  0  0  0  0  0  0  0  0  0  0  0
    8.2369  -16.2168   21.3667 C   0  0  2  0  0  0  0  0  0  0  0  0
    7.1681  -17.0816   21.8398 N   0  0  0  0  0  0  0  0  0  0  0  0
    9.2703  -16.0116   22.4148 C   0  0  0  0  0  0  0  0  0  0  0  0
   10.3412  -15.4195   22.1302 O   0  0  0  0  0  0  0  0  0  0  0  0
    9.1120  -16.4573   23.7496 N   0  0  0  0  0  0  0  0  0  0  0  0
   10.0652  -16.2446   24.8084 C   0  0  1  0  0  0  0  0  0  0  0  0
    9.9003  -14.9365   25.5041 C   0  0  0  0  0  0  0  0  0  0  0  0
    8.4692  -14.7331   25.8274 C   0  0  0  0  0  0  0  0  0  0  0  0
    7.4172  -15.6372   25.7123 C   0  0  0  0  0  0  0  0  0  0  0  0
    6.2667  -15.0690   26.1044 N   0  0  0  0  0  0  0  0  0  0  0  0
    6.5231  -13.7874   26.4854 C   0  0  0  0  0  0  0  0  0  0  0  0
    5.7344  -12.7663   26.9644 C   0  0  0  0  0  0  0  0  0  0  0  0
    6.2734  -11.5402   27.2771 C   0  0  0  0  0  0  0  0  0  0  0  0
    7.6291  -11.3006   27.1175 C   0  0  0  0  0  0  0  0  0  0  0  0
    8.4036  -12.3295   26.6385 C   0  0  0  0  0  0  0  0  0  0  0  0
    7.8753  -13.5731   26.3181 C   0  0  0  0  0  0  0  0  0  0  0  0
    9.9143  -17.3465   25.7893 C   0  0  0  0  0  0  0  0  0  0  0  0
   10.5855  -17.4590   26.8420 O   0  0  0  0  0  0  0  0  0  0  0  0
    8.9707  -18.3660   25.5811 O   0  0  0  0  0  0  0  0  0  0  0  0
  1  2  1  0
  3  2  1  0
  4  3  1  0
  5  6  1  1
  5  4  1  0
  7  8  2  0
  7  5  1  0
 10  9  1  6
 10 12  1  0
 11 10  1  0
 12 13  1  1
 13  7  1  0
 14 12  1  0
 14 16  1  0
 15 14  2  0
 17 16  1  0
 17 28  1  0
 17 18  1  1
 19 18  1  0
 20 19  2  0
 21 20  1  0
 22 21  1  0
 22 27  2  0
 23 24  2  0
 23 22  1  0
 24 25  1  0
 25 26  2  0
 26 27  1  0
 27 19  1  0
 28 29  2  0
 28 30  1  0
M  END
$$$$
