MTW.pdb
     RDKit          3D

 30 31  0  0  1  0  0  0  0  0999 V2000
   15.1775  -14.9295   19.1937 C   0  0  0  0  0  0  0  0  0  0  0  0
   14.8005  -15.6860   17.5956 S   0  0  0  0  0  0  0  0  0  0  0  0
   13.0465  -15.9888   17.3676 C   0  0  0  0  0  0  0  0  0  0  0  0
   12.1844  -15.1613   18.3142 C   0  0  0  0  0  0  0  0  0  0  0  0
   10.7648  -15.5452   18.0797 C   0  0  2  0  0  0  0  0  0  0  0  0
   10.3297  -14.8657   16.8514 N   0  0  0  0  0  0  0  0  0  0  0  0
    9.8496  -15.2017   19.1763 C   0  0  0  0  0  0  0  0  0  0  0  0
    9.2710  -14.0804   19.1656 O   0  0  0  0  0  0  0  0  0  0  0  0
    6.6302  -15.7129   20.3071 C   0  0  0  0  0  0  0  0  0  0  0  0
    7.4586  -16.2008   21.4747 C   0  0  1  0  0  0  0  0  0  0  0  0
    7.6082  -17.5839   21.4595 O   0  0  0  0  0  0  0  0  0  0  0  0
    8.8489  -15.5903   21.4602 C   0  0  2  0  0  0  0  0  0  0  0  0
    9.5560  -16.0526   20.2768 N   0  0  0  0  0  0  0  0  0  0  0  0
    9.5513  -16.0000   22.7041 C   0  0  0  0  0  0  0  0  0  0  0  0
   10.4542  -16.8722   22.6545 O   0  0  0  0  0  0  0  0  0  0  0  0
    9.2526  -15.4489   23.9739 N   0  0  0  0  0  0  0  0  0  0  0  0
    9.9530  -15.7605   25.1934 C   0  0  1  0  0  0  0  0  0  0  0  0
    9.5809  -14.8781   26.3359 C   0  0  0  0  0  0  0  0  0  0  0  0
    8.1171  -14.6517   26.3207 C   0  0  0  0  0  0  0  0  0  0  0  0
    7.0953  -15.5919   26.2248 C   0  0  0  0  0  0  0  0  0  0  0  0
    5.8984  -14.9856   26.2419 N   0  0  0  0  0  0  0  0  0  0  0  0
    6.0935  -13.6425   26.3484 C   0  0  0  0  0  0  0  0  0  0  0  0
    5.2408  -12.5639   26.4096 C   0  0  0  0  0  0  0  0  0  0  0  0
    5.7256  -11.2814   26.5184 C   0  0  0  0  0  0  0  0  0  0  0  0
    7.0895  -11.0413   26.5694 C   0  0  0  0  0  0  0  0  0  0  0  0
    7.9282  -12.1279   26.5073 C   0  0  0  0  0  0  0  0  0  0  0  0
    7.4552  -13.4289   26.3974 C   0  0  0  0  0  0  0  0  0  0  0  0
    9.6578  -17.1709   25.5441 C   0  0  0  0  0  0  0  0  0  0  0  0
    8.7454  -17.8569   25.0260 O   0  0  0  0  0  0  0  0  0  0  0  0
   10.4176  -17.8406   26.5171 O   0  0  0  0  0  0  0  0  0  0  0  0
  1  2  1  0
  3  2  1  0
  4  3  1  0
  5  6  1  6
  5  4  1  0
  7  8  2  0
  7  5  1  0
 10  9  1  6
 10 12  1  0
 11 10  1  0
 12 13  1  6
 13  7  1  0
 14 12  1  0
 14 16  1  0
 15 14  2  0
 17 16  1  0
 17 28  1  0
 17 18  1  1
 19 18  1  0
 20 19  2  0
 21 20  1  0
 22 21  1  0
 22 27  2  0
 23 24  2  0
 23 22  1  0
 24 25  1  0
 25 26  2  0
 26 27  1  0
 27 19  1  0
 28 29  2  0
 28 30  1  0
M  END
$$$$
