MTW.pdb
     RDKit          3D

 30 31  0  0  1  0  0  0  0  0999 V2000
    8.0262  -11.3982   20.9673 C   0  0  0  0  0  0  0  0  0  0  0  0
    7.2520  -12.0425   19.4661 S   0  0  0  0  0  0  0  0  0  0  0  0
    7.8082  -13.6982   19.0540 C   0  0  0  0  0  0  0  0  0  0  0  0
    7.8624  -14.6144   20.2712 C   0  0  0  0  0  0  0  0  0  0  0  0
    8.4344  -15.9160   19.8278 C   0  0  2  0  0  0  0  0  0  0  0  0
    7.4572  -16.5314   18.9190 N   0  0  0  0  0  0  0  0  0  0  0  0
    8.7416  -16.8515   20.9181 C   0  0  0  0  0  0  0  0  0  0  0  0
    7.8554  -17.6654   21.2978 O   0  0  0  0  0  0  0  0  0  0  0  0
   11.7248  -19.5453   23.6664 C   0  0  0  0  0  0  0  0  0  0  0  0
   11.4427  -18.6274   22.4979 C   0  0  1  0  0  0  0  0  0  0  0  0
   11.2245  -19.3396   21.3228 O   0  0  0  0  0  0  0  0  0  0  0  0
   10.2130  -17.7730   22.7497 C   0  0  2  0  0  0  0  0  0  0  0  0
    9.9891  -16.9152   21.5972 N   0  0  0  0  0  0  0  0  0  0  0  0
   10.4442  -16.9741   23.9813 C   0  0  0  0  0  0  0  0  0  0  0  0
   11.3300  -16.0832   23.9921 O   0  0  0  0  0  0  0  0  0  0  0  0
    9.7038  -17.1654   25.1732 N   0  0  0  0  0  0  0  0  0  0  0  0
    9.9666  -16.4992   26.4230 C   0  0  1  0  0  0  0  0  0  0  0  0
    8.7548  -16.3325   27.2751 C   0  0  0  0  0  0  0  0  0  0  0  0
    7.7227  -15.5900   26.5153 C   0  0  0  0  0  0  0  0  0  0  0  0
    6.5881  -16.0870   25.8805 C   0  0  0  0  0  0  0  0  0  0  0  0
    5.9044  -15.0911   25.2965 N   0  0  0  0  0  0  0  0  0  0  0  0
    6.5607  -13.9207   25.5264 C   0  0  0  0  0  0  0  0  0  0  0  0
    6.3180  -12.6135   25.1709 C   0  0  0  0  0  0  0  0  0  0  0  0
    7.1723  -11.6046   25.5502 C   0  0  0  0  0  0  0  0  0  0  0  0
    8.3033  -11.8792   26.3026 C   0  0  0  0  0  0  0  0  0  0  0  0
    8.5323  -13.1887   26.6499 C   0  0  0  0  0  0  0  0  0  0  0  0
    7.6799  -14.2190   26.2753 C   0  0  0  0  0  0  0  0  0  0  0  0
   10.9816  -17.2905   27.1597 C   0  0  0  0  0  0  0  0  0  0  0  0
   11.0999  -18.5366   27.0908 O   0  0  0  0  0  0  0  0  0  0  0  0
   11.9033  -16.6579   28.0102 O   0  0  0  0  0  0  0  0  0  0  0  0
  1  2  1  0
  3  2  1  0
  4  3  1  0
  5  6  1  6
  5  4  1  0
  7  8  2  0
  7  5  1  0
 10  9  1  1
 10 12  1  0
 11 10  1  0
 12 13  1  6
 13  7  1  0
 14 12  1  0
 14 16  1  0
 15 14  2  0
 17 16  1  0
 17 28  1  0
 17 18  1  1
 19 18  1  0
 20 19  2  0
 21 20  1  0
 22 21  1  0
 22 27  2  0
 23 24  2  0
 23 22  1  0
 24 25  1  0
 25 26  2  0
 26 27  1  0
 27 19  1  0
 28 29  2  0
 28 30  1  0
M  END
$$$$
