MTW.pdb
     RDKit          3D

 30 31  0  0  1  0  0  0  0  0999 V2000
    9.8883  -11.5579   20.3852 C   0  0  0  0  0  0  0  0  0  0  0  0
    9.5249  -12.8922   19.2207 S   0  0  0  0  0  0  0  0  0  0  0  0
    7.8140  -13.4289   19.2921 C   0  0  0  0  0  0  0  0  0  0  0  0
    7.4936  -14.4943   18.2499 C   0  0  0  0  0  0  0  0  0  0  0  0
    8.4270  -15.6334   18.4711 C   0  0  2  0  0  0  0  0  0  0  0  0
    8.1724  -16.6148   17.4072 N   0  0  0  0  0  0  0  0  0  0  0  0
    8.2930  -16.2881   19.7794 C   0  0  0  0  0  0  0  0  0  0  0  0
    7.2259  -16.9036   20.0524 O   0  0  0  0  0  0  0  0  0  0  0  0
    9.1130  -19.2189   20.6668 C   0  0  0  0  0  0  0  0  0  0  0  0
    9.8563  -18.4410   21.7297 C   0  0  1  0  0  0  0  0  0  0  0  0
   11.1770  -18.2002   21.3646 O   0  0  0  0  0  0  0  0  0  0  0  0
    9.2016  -17.0961   21.9908 C   0  0  2  0  0  0  0  0  0  0  0  0
    9.2946  -16.2837   20.7886 N   0  0  0  0  0  0  0  0  0  0  0  0
    9.8990  -16.4517   23.1340 C   0  0  0  0  0  0  0  0  0  0  0  0
   10.8724  -15.6862   22.9220 O   0  0  0  0  0  0  0  0  0  0  0  0
    9.5187  -16.6573   24.4826 N   0  0  0  0  0  0  0  0  0  0  0  0
   10.1010  -15.9842   25.6151 C   0  0  1  0  0  0  0  0  0  0  0  0
    9.2118  -15.9535   26.8112 C   0  0  0  0  0  0  0  0  0  0  0  0
    7.8764  -15.4512   26.4134 C   0  0  0  0  0  0  0  0  0  0  0  0
    6.7618  -16.1792   26.0073 C   0  0  0  0  0  0  0  0  0  0  0  0
    5.7406  -15.3548   25.7282 N   0  0  0  0  0  0  0  0  0  0  0  0
    6.1471  -14.0729   25.9398 C   0  0  0  0  0  0  0  0  0  0  0  0
    5.5273  -12.8504   25.8155 C   0  0  0  0  0  0  0  0  0  0  0  0
    6.1953  -11.6834   26.1045 C   0  0  0  0  0  0  0  0  0  0  0  0
    7.5141  -11.7085   26.5297 C   0  0  0  0  0  0  0  0  0  0  0  0
    8.1195  -12.9362   26.6490 C   0  0  0  0  0  0  0  0  0  0  0  0
    7.4594  -14.1236   26.3613 C   0  0  0  0  0  0  0  0  0  0  0  0
   11.3661  -16.6771   25.9596 C   0  0  0  0  0  0  0  0  0  0  0  0
   12.1942  -16.2669   26.8066 O   0  0  0  0  0  0  0  0  0  0  0  0
   11.7178  -17.8810   25.3274 O   0  0  0  0  0  0  0  0  0  0  0  0
  1  2  1  0
  3  2  1  0
  4  3  1  0
  5  6  1  6
  5  4  1  0
  7  8  2  0
  7  5  1  0
 10  9  1  6
 10 12  1  0
 11 10  1  0
 12 13  1  6
 13  7  1  0
 14 12  1  0
 14 16  1  0
 15 14  2  0
 17 16  1  0
 17 28  1  0
 17 18  1  1
 19 18  1  0
 20 19  2  0
 21 20  1  0
 22 21  1  0
 22 27  2  0
 23 24  2  0
 23 22  1  0
 24 25  1  0
 25 26  2  0
 26 27  1  0
 27 19  1  0
 28 29  2  0
 28 30  1  0
M  END
$$$$
