MTW.pdb
     RDKit          3D

 30 31  0  0  1  0  0  0  0  0999 V2000
    8.4148  -10.9876   19.6236 C   0  0  0  0  0  0  0  0  0  0  0  0
    8.3234  -12.6372   20.3576 S   0  0  0  0  0  0  0  0  0  0  0  0
    6.8602  -13.5431   19.8491 C   0  0  0  0  0  0  0  0  0  0  0  0
    6.7507  -14.9027   20.5299 C   0  0  0  0  0  0  0  0  0  0  0  0
    7.8940  -15.7332   20.0599 C   0  0  2  0  0  0  0  0  0  0  0  0
    7.4307  -16.4814   18.8829 N   0  0  0  0  0  0  0  0  0  0  0  0
    8.4177  -16.6738   21.0594 C   0  0  0  0  0  0  0  0  0  0  0  0
    7.7098  -17.6590   21.4067 O   0  0  0  0  0  0  0  0  0  0  0  0
   11.9433  -19.0964   23.3274 C   0  0  0  0  0  0  0  0  0  0  0  0
   11.4420  -18.1154   22.2912 C   0  0  1  0  0  0  0  0  0  0  0  0
   11.2167  -18.7307   21.0639 O   0  0  0  0  0  0  0  0  0  0  0  0
   10.1379  -17.4700   22.7254 C   0  0  2  0  0  0  0  0  0  0  0  0
    9.6904  -16.5605   21.6830 N   0  0  0  0  0  0  0  0  0  0  0  0
   10.3761  -16.7514   24.0042 C   0  0  0  0  0  0  0  0  0  0  0  0
   11.1133  -15.7342   24.0225 O   0  0  0  0  0  0  0  0  0  0  0  0
    9.8046  -17.1589   25.2342 N   0  0  0  0  0  0  0  0  0  0  0  0
   10.0703  -16.5455   26.5101 C   0  0  1  0  0  0  0  0  0  0  0  0
    8.8731  -16.4700   27.3953 C   0  0  0  0  0  0  0  0  0  0  0  0
    7.7929  -15.7391   26.6932 C   0  0  0  0  0  0  0  0  0  0  0  0
    6.6685  -16.2557   26.0560 C   0  0  0  0  0  0  0  0  0  0  0  0
    5.9287  -15.2646   25.5356 N   0  0  0  0  0  0  0  0  0  0  0  0
    6.5367  -14.0781   25.8114 C   0  0  0  0  0  0  0  0  0  0  0  0
    6.2282  -12.7675   25.5264 C   0  0  0  0  0  0  0  0  0  0  0  0
    7.0444  -11.7404   25.9395 C   0  0  0  0  0  0  0  0  0  0  0  0
    8.2022  -11.9996   26.6557 C   0  0  0  0  0  0  0  0  0  0  0  0
    8.4969  -13.3128   26.9326 C   0  0  0  0  0  0  0  0  0  0  0  0
    7.6838  -14.3613   26.5230 C   0  0  0  0  0  0  0  0  0  0  0  0
   11.1323  -17.3311   27.1842 C   0  0  0  0  0  0  0  0  0  0  0  0
   11.5276  -18.4605   26.8106 O   0  0  0  0  0  0  0  0  0  0  0  0
   11.7785  -16.8291   28.3258 O   0  0  0  0  0  0  0  0  0  0  0  0
  1  2  1  0
  3  2  1  0
  4  3  1  0
  5  6  1  6
  5  4  1  0
  7  8  2  0
  7  5  1  0
 10  9  1  1
 10 12  1  0
 11 10  1  0
 12 13  1  6
 13  7  1  0
 14 12  1  0
 14 16  1  0
 15 14  2  0
 17 16  1  0
 17 28  1  0
 17 18  1  1
 19 18  1  0
 20 19  2  0
 21 20  1  0
 22 21  1  0
 22 27  2  0
 23 24  2  0
 23 22  1  0
 24 25  1  0
 25 26  2  0
 26 27  1  0
 27 19  1  0
 28 29  2  0
 28 30  1  0
M  END
$$$$
