MTW.pdb
     RDKit          3D

 30 31  0  0  1  0  0  0  0  0999 V2000
    8.9729  -11.1168   19.7353 C   0  0  0  0  0  0  0  0  0  0  0  0
    8.6058  -11.7980   18.1015 S   0  0  0  0  0  0  0  0  0  0  0  0
    8.8597  -13.5724   18.0162 C   0  0  0  0  0  0  0  0  0  0  0  0
    8.4154  -14.2863   19.2878 C   0  0  0  0  0  0  0  0  0  0  0  0
    8.6433  -15.7443   19.0868 C   0  0  2  0  0  0  0  0  0  0  0  0
    7.6874  -16.1952   18.0657 N   0  0  0  0  0  0  0  0  0  0  0  0
    8.4830  -16.5604   20.2978 C   0  0  0  0  0  0  0  0  0  0  0  0
    7.3219  -16.8780   20.6759 O   0  0  0  0  0  0  0  0  0  0  0  0
    9.1017  -19.9306   21.3709 C   0  0  0  0  0  0  0  0  0  0  0  0
    9.8884  -19.0814   22.3443 C   0  0  1  0  0  0  0  0  0  0  0  0
   11.2343  -19.0127   21.9989 O   0  0  0  0  0  0  0  0  0  0  0  0
    9.3561  -17.6602   22.3946 C   0  0  2  0  0  0  0  0  0  0  0  0
    9.5585  -17.0334   21.0984 N   0  0  0  0  0  0  0  0  0  0  0  0
   10.0791  -16.9290   23.4675 C   0  0  0  0  0  0  0  0  0  0  0  0
   11.1410  -16.3136   23.1992 O   0  0  0  0  0  0  0  0  0  0  0  0
    9.6271  -16.8858   24.8089 N   0  0  0  0  0  0  0  0  0  0  0  0
   10.3916  -16.3816   25.9207 C   0  0  1  0  0  0  0  0  0  0  0  0
    9.9897  -15.0107   26.3467 C   0  0  0  0  0  0  0  0  0  0  0  0
    8.5142  -14.8945   26.2873 C   0  0  0  0  0  0  0  0  0  0  0  0
    7.5683  -15.9093   26.1760 C   0  0  0  0  0  0  0  0  0  0  0  0
    6.3297  -15.3940   26.1510 N   0  0  0  0  0  0  0  0  0  0  0  0
    6.4213  -14.0389   26.2441 C   0  0  0  0  0  0  0  0  0  0  0  0
    5.4895  -13.0263   26.2663 C   0  0  0  0  0  0  0  0  0  0  0  0
    5.8742  -11.7100   26.3708 C   0  0  0  0  0  0  0  0  0  0  0  0
    7.2145  -11.3682   26.4566 C   0  0  0  0  0  0  0  0  0  0  0  0
    8.1330  -12.3898   26.4332 C   0  0  0  0  0  0  0  0  0  0  0  0
    7.7614  -13.7237   26.3283 C   0  0  0  0  0  0  0  0  0  0  0  0
   10.2221  -17.3198   27.0567 C   0  0  0  0  0  0  0  0  0  0  0  0
    9.4350  -18.2955   27.0624 O   0  0  0  0  0  0  0  0  0  0  0  0
   10.9664  -17.1570   28.2367 O   0  0  0  0  0  0  0  0  0  0  0  0
  1  2  1  0
  3  2  1  0
  4  3  1  0
  5  6  1  6
  5  4  1  0
  7  8  2  0
  7  5  1  0
 10  9  1  6
 10 12  1  0
 11 10  1  0
 12 13  1  6
 13  7  1  0
 14 12  1  0
 14 16  1  0
 15 14  2  0
 17 16  1  0
 17 28  1  0
 17 18  1  1
 19 18  1  0
 20 19  2  0
 21 20  1  0
 22 21  1  0
 22 27  2  0
 23 24  2  0
 23 22  1  0
 24 25  1  0
 25 26  2  0
 26 27  1  0
 27 19  1  0
 28 29  2  0
 28 30  1  0
M  END
$$$$
