MTW.pdb
     RDKit          3D

 30 31  0  0  1  0  0  0  0  0999 V2000
    7.9935  -11.9847   16.2957 C   0  0  0  0  0  0  0  0  0  0  0  0
    7.8029  -12.5534   18.0011 S   0  0  0  0  0  0  0  0  0  0  0  0
    7.0542  -14.1806   18.1106 C   0  0  0  0  0  0  0  0  0  0  0  0
    6.9045  -14.6574   19.5508 C   0  0  0  0  0  0  0  0  0  0  0  0
    8.2722  -14.9018   20.0870 C   0  0  2  0  0  0  0  0  0  0  0  0
    9.0662  -15.4870   18.9975 N   0  0  0  0  0  0  0  0  0  0  0  0
    8.3205  -15.7902   21.2560 C   0  0  0  0  0  0  0  0  0  0  0  0
    7.5744  -15.5471   22.2441 O   0  0  0  0  0  0  0  0  0  0  0  0
    9.2272  -19.8485   21.1419 C   0  0  0  0  0  0  0  0  0  0  0  0
    9.9324  -19.0592   22.2223 C   0  0  1  0  0  0  0  0  0  0  0  0
   11.2242  -18.7069   21.8447 O   0  0  0  0  0  0  0  0  0  0  0  0
    9.1858  -17.7777   22.5481 C   0  0  2  0  0  0  0  0  0  0  0  0
    9.1620  -16.9309   21.3664 N   0  0  0  0  0  0  0  0  0  0  0  0
    9.8795  -17.1082   23.6791 C   0  0  0  0  0  0  0  0  0  0  0  0
   10.9041  -16.4143   23.4620 O   0  0  0  0  0  0  0  0  0  0  0  0
    9.4397  -17.2111   25.0213 N   0  0  0  0  0  0  0  0  0  0  0  0
   10.1373  -16.6732   26.1610 C   0  0  1  0  0  0  0  0  0  0  0  0
    9.9593  -15.2026   26.3283 C   0  0  0  0  0  0  0  0  0  0  0  0
    8.5276  -14.8623   26.1591 C   0  0  0  0  0  0  0  0  0  0  0  0
    7.4686  -15.7049   25.8342 C   0  0  0  0  0  0  0  0  0  0  0  0
    6.3212  -15.0121   25.7721 N   0  0  0  0  0  0  0  0  0  0  0  0
    6.5869  -13.7063   26.0511 C   0  0  0  0  0  0  0  0  0  0  0  0
    5.8048  -12.5765   26.1274 C   0  0  0  0  0  0  0  0  0  0  0  0
    6.3528  -11.3537   26.4375 C   0  0  0  0  0  0  0  0  0  0  0  0
    7.7111  -11.2274   26.6819 C   0  0  0  0  0  0  0  0  0  0  0  0
    8.4789  -12.3640   26.6020 C   0  0  0  0  0  0  0  0  0  0  0  0
    7.9415  -13.6059   26.2902 C   0  0  0  0  0  0  0  0  0  0  0  0
    9.6418  -17.3702   27.3726 C   0  0  0  0  0  0  0  0  0  0  0  0
   10.0080  -17.1100   28.5429 O   0  0  0  0  0  0  0  0  0  0  0  0
    8.6958  -18.4030   27.2677 O   0  0  0  0  0  0  0  0  0  0  0  0
  1  2  1  0
  3  2  1  0
  4  3  1  0
  5  6  1  6
  5  4  1  0
  7  8  2  0
  7  5  1  0
 10  9  1  6
 10 12  1  0
 11 10  1  0
 12 13  1  6
 13  7  1  0
 14 12  1  0
 14 16  1  0
 15 14  2  0
 17 16  1  0
 17 28  1  0
 17 18  1  1
 19 18  1  0
 20 19  2  0
 21 20  1  0
 22 21  1  0
 22 27  2  0
 23 24  2  0
 23 22  1  0
 24 25  1  0
 25 26  2  0
 26 27  1  0
 27 19  1  0
 28 29  2  0
 28 30  1  0
M  END
$$$$
