QNW.pdb
     RDKit          3D

 32 33  0  0  1  0  0  0  0  0999 V2000
   24.9913  -23.6933  -20.4878 N   0  0  0  0  0  0  0  0  0  0  0  0
   24.0388  -22.7678  -20.9505 C   0  0  0  0  0  0  0  0  0  0  0  0
   23.2180  -23.1259  -21.8348 O   0  0  0  0  0  0  0  0  0  0  0  0
   24.0065  -21.4060  -20.4071 C   0  0  0  0  0  0  0  0  0  0  0  0
   25.1289  -21.1782  -19.4021 C   0  0  0  0  0  0  0  0  0  0  0  0
   24.9574  -22.2155  -18.2911 C   0  0  2  0  0  0  0  0  0  0  0  0
   23.6462  -21.9993  -17.7283 N   0  0  0  0  0  0  0  0  0  0  0  0
   25.9683  -21.9581  -17.2483 C   0  0  0  0  0  0  0  0  0  0  0  0
   27.1886  -21.9777  -17.6265 O   0  0  0  0  0  0  0  0  0  0  0  0
   29.3790  -19.7986  -14.0380 N   0  0  0  0  0  0  0  0  0  0  0  0
   28.1037  -19.2918  -14.3705 C   0  0  0  0  0  0  0  0  0  0  0  0
   27.7173  -18.2729  -13.7440 O   0  0  0  0  0  0  0  0  0  0  0  0
   27.2339  -19.8990  -15.3982 C   0  0  0  0  0  0  0  0  0  0  0  0
   26.6374  -21.2168  -14.9832 C   0  0  2  0  0  0  0  0  0  0  0  0
   25.6244  -21.7025  -15.9011 N   0  0  0  0  0  0  0  0  0  0  0  0
   26.0260  -21.0674  -13.6386 C   0  0  0  0  0  0  0  0  0  0  0  0
   24.8546  -20.6985  -13.4768 O   0  0  0  0  0  0  0  0  0  0  0  0
   26.7680  -21.3457  -12.4392 N   0  0  0  0  0  0  0  0  0  0  0  0
   26.2338  -21.1508  -11.1206 C   0  0  1  0  0  0  0  0  0  0  0  0
   27.2355  -21.2928  -10.0243 C   0  0  0  0  0  0  0  0  0  0  0  0
   26.7877  -20.8351   -8.7104 C   0  0  0  0  0  0  0  0  0  0  0  0
   25.4630  -20.7667   -8.2991 C   0  0  0  0  0  0  0  0  0  0  0  0
   25.3782  -20.3089   -7.0391 N   0  0  0  0  0  0  0  0  0  0  0  0
   26.6434  -20.0707   -6.6063 C   0  0  0  0  0  0  0  0  0  0  0  0
   27.1805  -19.6035   -5.4271 C   0  0  0  0  0  0  0  0  0  0  0  0
   28.5520  -19.4470   -5.2353 C   0  0  0  0  0  0  0  0  0  0  0  0
   29.3773  -19.7816   -6.2860 C   0  0  0  0  0  0  0  0  0  0  0  0
   28.8905  -20.2513   -7.4805 C   0  0  0  0  0  0  0  0  0  0  0  0
   27.5185  -20.3900   -7.6238 C   0  0  0  0  0  0  0  0  0  0  0  0
   25.6930  -19.7555  -11.1123 C   0  0  0  0  0  0  0  0  0  0  0  0
   26.3776  -18.8508  -11.6604 O   0  0  0  0  0  0  0  0  0  0  0  0
   24.4899  -19.3970  -10.5412 O   0  0  0  0  0  0  0  0  0  0  0  0
  1  2  1  0
  2  3  2  0
  2  4  1  0
  4  5  1  0
  6  5  1  0
  6  7  1  1
  8  9  2  0
  8  6  1  0
 11 10  1  0
 11 13  1  0
 12 11  2  0
 14 13  1  6
 14 15  1  0
 15  8  1  0
 16 14  1  0
 16 18  1  0
 17 16  2  0
 19 18  1  0
 19 30  1  0
 19 20  1  1
 21 20  1  0
 21 29  1  0
 22 21  2  0
 23 22  1  0
 23 24  1  0
 24 25  1  0
 24 29  2  0
 25 26  2  0
 26 27  1  0
 28 27  2  0
 29 28  1  0
 30 31  2  0
 30 32  1  0
M  END
$$$$
