QNW.pdb
     RDKit          3D

 32 33  0  0  1  0  0  0  0  0999 V2000
   16.0839  -24.5444  -11.1019 N   0  0  0  0  0  0  0  0  0  0  0  0
   15.7533  -24.8231  -12.4402 C   0  0  0  0  0  0  0  0  0  0  0  0
   14.7340  -25.5193  -12.6856 O   0  0  0  0  0  0  0  0  0  0  0  0
   16.5877  -24.3076  -13.5305 C   0  0  0  0  0  0  0  0  0  0  0  0
   17.8456  -23.6308  -13.0001 C   0  0  0  0  0  0  0  0  0  0  0  0
   19.0430  -24.3769  -13.5913 C   0  0  2  0  0  0  0  0  0  0  0  0
   19.1389  -25.6274  -12.8774 N   0  0  0  0  0  0  0  0  0  0  0  0
   20.2623  -23.5887  -13.3311 C   0  0  0  0  0  0  0  0  0  0  0  0
   20.2556  -22.8683  -12.2759 O   0  0  0  0  0  0  0  0  0  0  0  0
   25.0141  -21.4482  -13.3484 N   0  0  0  0  0  0  0  0  0  0  0  0
   25.0351  -22.6060  -14.1565 C   0  0  0  0  0  0  0  0  0  0  0  0
   26.1560  -22.9755  -14.5889 O   0  0  0  0  0  0  0  0  0  0  0  0
   23.8221  -23.3750  -14.5010 C   0  0  0  0  0  0  0  0  0  0  0  0
   22.5716  -22.8581  -13.8426 C   0  0  2  0  0  0  0  0  0  0  0  0
   21.3848  -23.6166  -14.1902 N   0  0  0  0  0  0  0  0  0  0  0  0
   22.3646  -21.4439  -14.2439 C   0  0  0  0  0  0  0  0  0  0  0  0
   23.2588  -20.5905  -14.1622 O   0  0  0  0  0  0  0  0  0  0  0  0
   21.1020  -20.9835  -14.7543 N   0  0  0  0  0  0  0  0  0  0  0  0
   20.8910  -19.6508  -15.2458 C   0  0  1  0  0  0  0  0  0  0  0  0
   21.6464  -19.3281  -16.4912 C   0  0  0  0  0  0  0  0  0  0  0  0
   21.3711  -18.0106  -17.0610 C   0  0  0  0  0  0  0  0  0  0  0  0
   21.7402  -16.8011  -16.4870 C   0  0  0  0  0  0  0  0  0  0  0  0
   21.3465  -15.7703  -17.2530 N   0  0  0  0  0  0  0  0  0  0  0  0
   20.7147  -16.2874  -18.3384 C   0  0  0  0  0  0  0  0  0  0  0  0
   20.1096  -15.7376  -19.4469 C   0  0  0  0  0  0  0  0  0  0  0  0
   19.5183  -16.5125  -20.4429 C   0  0  0  0  0  0  0  0  0  0  0  0
   19.5571  -17.8800  -20.2837 C   0  0  0  0  0  0  0  0  0  0  0  0
   20.1481  -18.4755  -19.1972 C   0  0  0  0  0  0  0  0  0  0  0  0
   20.7232  -17.6628  -18.2323 C   0  0  0  0  0  0  0  0  0  0  0  0
   19.4238  -19.5568  -15.5246 C   0  0  0  0  0  0  0  0  0  0  0  0
   18.8850  -18.4184  -15.4889 O   0  0  0  0  0  0  0  0  0  0  0  0
   18.6228  -20.6402  -15.8188 O   0  0  0  0  0  0  0  0  0  0  0  0
  1  2  1  0
  2  3  2  0
  2  4  1  0
  4  5  1  0
  6  5  1  0
  6  7  1  1
  8  9  2  0
  8  6  1  0
 11 10  1  0
 11 13  1  0
 12 11  2  0
 14 13  1  6
 14 15  1  0
 15  8  1  0
 16 14  1  0
 16 18  1  0
 17 16  2  0
 19 18  1  0
 19 30  1  0
 19 20  1  6
 21 20  1  0
 21 29  1  0
 22 21  2  0
 23 22  1  0
 23 24  1  0
 24 25  1  0
 24 29  2  0
 25 26  2  0
 26 27  1  0
 28 27  2  0
 29 28  1  0
 30 31  2  0
 30 32  1  0
M  END
$$$$
