QNW.pdb
     RDKit          3D

 32 33  0  0  1  0  0  0  0  0999 V2000
   21.5776  -17.9575  -15.8203 N   0  0  0  0  0  0  0  0  0  0  0  0
   21.4582  -17.2661  -17.0392 C   0  0  0  0  0  0  0  0  0  0  0  0
   20.9741  -16.1044  -17.0379 O   0  0  0  0  0  0  0  0  0  0  0  0
   21.8931  -17.8943  -18.2910 C   0  0  0  0  0  0  0  0  0  0  0  0
   22.4431  -19.2950  -18.0522 C   0  0  0  0  0  0  0  0  0  0  0  0
   23.8504  -19.1349  -17.4746 C   0  0  2  0  0  0  0  0  0  0  0  0
   24.6188  -18.4164  -18.4624 N   0  0  0  0  0  0  0  0  0  0  0  0
   24.4409  -20.4750  -17.2986 C   0  0  0  0  0  0  0  0  0  0  0  0
   24.8748  -21.0452  -18.3565 O   0  0  0  0  0  0  0  0  0  0  0  0
   27.5184  -24.1968  -15.8760 N   0  0  0  0  0  0  0  0  0  0  0  0
   27.8892  -22.8470  -16.0607 C   0  0  0  0  0  0  0  0  0  0  0  0
   29.1131  -22.6125  -16.2254 O   0  0  0  0  0  0  0  0  0  0  0  0
   26.9181  -21.7342  -16.0670 C   0  0  0  0  0  0  0  0  0  0  0  0
   25.4967  -22.1712  -15.8369 C   0  0  2  0  0  0  0  0  0  0  0  0
   24.5299  -21.1083  -16.0378 N   0  0  0  0  0  0  0  0  0  0  0  0
   25.3658  -22.6742  -14.4463 C   0  0  0  0  0  0  0  0  0  0  0  0
   26.0932  -23.5668  -13.9895 O   0  0  0  0  0  0  0  0  0  0  0  0
   24.3776  -22.1469  -13.5451 N   0  0  0  0  0  0  0  0  0  0  0  0
   24.6448  -21.8637  -12.1629 C   0  0  1  0  0  0  0  0  0  0  0  0
   26.0490  -21.4459  -11.8813 C   0  0  0  0  0  0  0  0  0  0  0  0
   26.2880  -20.9407  -10.5308 C   0  0  0  0  0  0  0  0  0  0  0  0
   25.3097  -20.4363   -9.6838 C   0  0  0  0  0  0  0  0  0  0  0  0
   25.8442  -20.0553   -8.5119 N   0  0  0  0  0  0  0  0  0  0  0  0
   27.1781  -20.3037   -8.5728 C   0  0  0  0  0  0  0  0  0  0  0  0
   28.2263  -20.1276   -7.6966 C   0  0  0  0  0  0  0  0  0  0  0  0
   29.5381  -20.4750   -8.0139 C   0  0  0  0  0  0  0  0  0  0  0  0
   29.7631  -21.0138   -9.2613 C   0  0  0  0  0  0  0  0  0  0  0  0
   28.7522  -21.2090  -10.1693 C   0  0  0  0  0  0  0  0  0  0  0  0
   27.4634  -20.8477   -9.8079 C   0  0  0  0  0  0  0  0  0  0  0  0
   23.7189  -20.7459  -11.7991 C   0  0  0  0  0  0  0  0  0  0  0  0
   23.5068  -19.8483  -12.6576 O   0  0  0  0  0  0  0  0  0  0  0  0
   23.0819  -20.6363  -10.5809 O   0  0  0  0  0  0  0  0  0  0  0  0
  1  2  1  0
  2  3  2  0
  2  4  1  0
  4  5  1  0
  6  5  1  0
  6  7  1  6
  8  9  2  0
  8  6  1  0
 11 10  1  0
 11 13  1  0
 12 11  2  0
 14 13  1  1
 14 15  1  0
 15  8  1  0
 16 14  1  0
 16 18  1  0
 17 16  2  0
 19 18  1  0
 19 30  1  0
 19 20  1  6
 21 20  1  0
 21 29  1  0
 22 21  2  0
 23 22  1  0
 23 24  1  0
 24 25  1  0
 24 29  2  0
 25 26  2  0
 26 27  1  0
 28 27  2  0
 29 28  1  0
 30 31  2  0
 30 32  1  0
M  END
$$$$
