QNW.pdb
     RDKit          3D

 32 33  0  0  1  0  0  0  0  0999 V2000
   31.9406  -24.3466  -15.2664 N   0  0  0  0  0  0  0  0  0  0  0  0
   31.8983  -24.4651  -16.6672 C   0  0  0  0  0  0  0  0  0  0  0  0
   32.5096  -25.4168  -17.2188 O   0  0  0  0  0  0  0  0  0  0  0  0
   31.1509  -23.4908  -17.4691 C   0  0  0  0  0  0  0  0  0  0  0  0
   30.5943  -22.3654  -16.6059 C   0  0  0  0  0  0  0  0  0  0  0  0
   29.4028  -22.9355  -15.8343 C   0  0  2  0  0  0  0  0  0  0  0  0
   28.4945  -23.4695  -16.8204 N   0  0  0  0  0  0  0  0  0  0  0  0
   28.7326  -21.8310  -15.1225 C   0  0  0  0  0  0  0  0  0  0  0  0
   29.4941  -20.9315  -14.6292 O   0  0  0  0  0  0  0  0  0  0  0  0
   26.4414  -19.1556  -17.4747 N   0  0  0  0  0  0  0  0  0  0  0  0
   26.5296  -18.9586  -16.0793 C   0  0  0  0  0  0  0  0  0  0  0  0
   27.2542  -18.0101  -15.6851 O   0  0  0  0  0  0  0  0  0  0  0  0
   25.8213  -19.8030  -15.0960 C   0  0  0  0  0  0  0  0  0  0  0  0
   26.7380  -20.6492  -14.2546 C   0  0  2  0  0  0  0  0  0  0  0  0
   27.3277  -21.7559  -14.9840 N   0  0  0  0  0  0  0  0  0  0  0  0
   25.9722  -21.1936  -13.1052 C   0  0  0  0  0  0  0  0  0  0  0  0
   25.2790  -22.2167  -13.1912 O   0  0  0  0  0  0  0  0  0  0  0  0
   25.9940  -20.5564  -11.8168 N   0  0  0  0  0  0  0  0  0  0  0  0
   25.2551  -21.0434  -10.6858 C   0  0  1  0  0  0  0  0  0  0  0  0
   25.6471  -20.4283   -9.3844 C   0  0  0  0  0  0  0  0  0  0  0  0
   27.0092  -20.7225   -8.9434 C   0  0  0  0  0  0  0  0  0  0  0  0
   27.9311  -21.4796   -9.6545 C   0  0  0  0  0  0  0  0  0  0  0  0
   29.0932  -21.5661   -8.9864 N   0  0  0  0  0  0  0  0  0  0  0  0
   28.9510  -20.8685   -7.8298 C   0  0  0  0  0  0  0  0  0  0  0  0
   29.7808  -20.6032   -6.7629 C   0  0  0  0  0  0  0  0  0  0  0  0
   29.3786  -19.8386   -5.6694 C   0  0  0  0  0  0  0  0  0  0  0  0
   28.0939  -19.3423   -5.6858 C   0  0  0  0  0  0  0  0  0  0  0  0
   27.2293  -19.5789   -6.7255 C   0  0  0  0  0  0  0  0  0  0  0  0
   27.6751  -20.3454   -7.7914 C   0  0  0  0  0  0  0  0  0  0  0  0
   23.8242  -20.7126  -10.9726 C   0  0  0  0  0  0  0  0  0  0  0  0
   23.5807  -19.8538  -11.8618 O   0  0  0  0  0  0  0  0  0  0  0  0
   22.7531  -21.2899  -10.3234 O   0  0  0  0  0  0  0  0  0  0  0  0
  1  2  1  0
  2  3  2  0
  2  4  1  0
  4  5  1  0
  6  5  1  0
  6  7  1  6
  8  9  2  0
  8  6  1  0
 11 10  1  0
 11 13  1  0
 12 11  2  0
 14 13  1  6
 14 15  1  0
 15  8  1  0
 16 14  1  0
 16 18  1  0
 17 16  2  0
 19 18  1  0
 19 30  1  0
 19 20  1  1
 21 20  1  0
 21 29  1  0
 22 21  2  0
 23 22  1  0
 23 24  1  0
 24 25  1  0
 24 29  2  0
 25 26  2  0
 26 27  1  0
 28 27  2  0
 29 28  1  0
 30 31  2  0
 30 32  1  0
M  END
$$$$
