QNW.pdb
     RDKit          3D

 32 33  0  0  1  0  0  0  0  0999 V2000
   31.1608  -23.7001  -16.5114 N   0  0  0  0  0  0  0  0  0  0  0  0
   30.8574  -22.9562  -17.6657 C   0  0  0  0  0  0  0  0  0  0  0  0
   31.2657  -23.3675  -18.7828 O   0  0  0  0  0  0  0  0  0  0  0  0
   30.0759  -21.7193  -17.5638 C   0  0  0  0  0  0  0  0  0  0  0  0
   29.8014  -21.3493  -16.1114 C   0  0  0  0  0  0  0  0  0  0  0  0
   28.4145  -21.8916  -15.7619 C   0  0  2  0  0  0  0  0  0  0  0  0
   27.7184  -22.0718  -17.0131 N   0  0  0  0  0  0  0  0  0  0  0  0
   27.7005  -20.8762  -14.9652 C   0  0  0  0  0  0  0  0  0  0  0  0
   27.4842  -19.7557  -15.5399 O   0  0  0  0  0  0  0  0  0  0  0  0
   23.3487  -18.3203  -14.2290 N   0  0  0  0  0  0  0  0  0  0  0  0
   23.8131  -19.5752  -13.7783 C   0  0  0  0  0  0  0  0  0  0  0  0
   23.1044  -20.1699  -12.9272 O   0  0  0  0  0  0  0  0  0  0  0  0
   25.0650  -20.1951  -14.2576 C   0  0  0  0  0  0  0  0  0  0  0  0
   26.0501  -20.4941  -13.1600 C   0  0  2  0  0  0  0  0  0  0  0  0
   27.2723  -21.1120  -13.6386 N   0  0  0  0  0  0  0  0  0  0  0  0
   25.4132  -21.4042  -12.1751 C   0  0  0  0  0  0  0  0  0  0  0  0
   25.6076  -22.6277  -12.1759 O   0  0  0  0  0  0  0  0  0  0  0  0
   24.5274  -20.9098  -11.1565 N   0  0  0  0  0  0  0  0  0  0  0  0
   24.7527  -21.1112   -9.7526 C   0  0  1  0  0  0  0  0  0  0  0  0
   26.0572  -20.5834   -9.2575 C   0  0  0  0  0  0  0  0  0  0  0  0
   26.2750  -20.7159   -7.8183 C   0  0  0  0  0  0  0  0  0  0  0  0
   25.4844  -21.4671   -6.9584 C   0  0  0  0  0  0  0  0  0  0  0  0
   25.9442  -21.3900   -5.6986 N   0  0  0  0  0  0  0  0  0  0  0  0
   27.0409  -20.5889   -5.7137 C   0  0  0  0  0  0  0  0  0  0  0  0
   27.9182  -20.1477   -4.7478 C   0  0  0  0  0  0  0  0  0  0  0  0
   28.9922  -19.3072   -5.0349 C   0  0  0  0  0  0  0  0  0  0  0  0
   29.1562  -18.9198   -6.3464 C   0  0  0  0  0  0  0  0  0  0  0  0
   28.3089  -19.3324   -7.3445 C   0  0  0  0  0  0  0  0  0  0  0  0
   27.2546  -20.1683   -7.0100 C   0  0  0  0  0  0  0  0  0  0  0  0
   23.6384  -20.3887   -9.0629 C   0  0  0  0  0  0  0  0  0  0  0  0
   23.4197  -20.6546   -7.8509 O   0  0  0  0  0  0  0  0  0  0  0  0
   22.8343  -19.4482   -9.6718 O   0  0  0  0  0  0  0  0  0  0  0  0
  1  2  1  0
  2  3  2  0
  2  4  1  0
  4  5  1  0
  6  5  1  0
  6  7  1  6
  8  9  2  0
  8  6  1  0
 11 10  1  0
 11 13  1  0
 12 11  2  0
 14 13  1  6
 14 15  1  0
 15  8  1  0
 16 14  1  0
 16 18  1  0
 17 16  2  0
 19 18  1  0
 19 30  1  0
 19 20  1  1
 21 20  1  0
 21 29  1  0
 22 21  2  0
 23 22  1  0
 23 24  1  0
 24 25  1  0
 24 29  2  0
 25 26  2  0
 26 27  1  0
 28 27  2  0
 29 28  1  0
 30 31  2  0
 30 32  1  0
M  END
$$$$
