QNW.pdb
     RDKit          3D

 32 33  0  0  1  0  0  0  0  0999 V2000
   29.1870  -20.9922  -19.9213 N   0  0  0  0  0  0  0  0  0  0  0  0
   29.0077  -22.3784  -19.7663 C   0  0  0  0  0  0  0  0  0  0  0  0
   29.3624  -23.1484  -20.6964 O   0  0  0  0  0  0  0  0  0  0  0  0
   28.4153  -22.9141  -18.5362 C   0  0  0  0  0  0  0  0  0  0  0  0
   28.1060  -21.8069  -17.5362 C   0  0  0  0  0  0  0  0  0  0  0  0
   27.7684  -22.4819  -16.2057 C   0  0  2  0  0  0  0  0  0  0  0  0
   26.6072  -23.3041  -16.4470 N   0  0  0  0  0  0  0  0  0  0  0  0
   27.4135  -21.4377  -15.2263 C   0  0  0  0  0  0  0  0  0  0  0  0
   28.2785  -20.5149  -15.0449 O   0  0  0  0  0  0  0  0  0  0  0  0
   25.9267  -18.1628  -15.4371 N   0  0  0  0  0  0  0  0  0  0  0  0
   24.6991  -18.5672  -14.8685 C   0  0  0  0  0  0  0  0  0  0  0  0
   23.6730  -17.9354  -15.2262 O   0  0  0  0  0  0  0  0  0  0  0  0
   24.5822  -19.6737  -13.8972 C   0  0  0  0  0  0  0  0  0  0  0  0
   25.8890  -20.3587  -13.6014 C   0  0  2  0  0  0  0  0  0  0  0  0
   26.1896  -21.4417  -14.5186 N   0  0  0  0  0  0  0  0  0  0  0  0
   25.8459  -20.9046  -12.2216 C   0  0  0  0  0  0  0  0  0  0  0  0
   25.2526  -21.9547  -11.9388 O   0  0  0  0  0  0  0  0  0  0  0  0
   26.4972  -20.2373  -11.1274 N   0  0  0  0  0  0  0  0  0  0  0  0
   26.4307  -20.7026   -9.7705 C   0  0  1  0  0  0  0  0  0  0  0  0
   27.3052  -19.9550   -8.8208 C   0  0  0  0  0  0  0  0  0  0  0  0
   27.0882  -20.2571   -7.4073 C   0  0  0  0  0  0  0  0  0  0  0  0
   26.0410  -21.0198   -6.9069 C   0  0  0  0  0  0  0  0  0  0  0  0
   26.1191  -21.1174   -5.5695 N   0  0  0  0  0  0  0  0  0  0  0  0
   27.2163  -20.4215   -5.1737 C   0  0  0  0  0  0  0  0  0  0  0  0
   27.7991  -20.1654   -3.9523 C   0  0  0  0  0  0  0  0  0  0  0  0
   28.9558  -19.4000   -3.8167 C   0  0  0  0  0  0  0  0  0  0  0  0
   29.5149  -18.8934   -4.9690 C   0  0  0  0  0  0  0  0  0  0  0  0
   28.9719  -19.1206   -6.2091 C   0  0  0  0  0  0  0  0  0  0  0  0
   27.8204  -19.8882   -6.2934 C   0  0  0  0  0  0  0  0  0  0  0  0
   25.0020  -20.5303   -9.3599 C   0  0  0  0  0  0  0  0  0  0  0  0
   24.4099  -19.4722   -9.7027 O   0  0  0  0  0  0  0  0  0  0  0  0
   24.2914  -21.4587   -8.6285 O   0  0  0  0  0  0  0  0  0  0  0  0
  1  2  1  0
  2  3  2  0
  2  4  1  0
  4  5  1  0
  6  5  1  0
  6  7  1  6
  8  9  2  0
  8  6  1  0
 11 10  1  0
 11 13  1  0
 12 11  2  0
 14 13  1  6
 14 15  1  0
 15  8  1  0
 16 14  1  0
 16 18  1  0
 17 16  2  0
 19 18  1  0
 19 30  1  0
 19 20  1  1
 21 20  1  0
 21 29  1  0
 22 21  2  0
 23 22  1  0
 23 24  1  0
 24 25  1  0
 24 29  2  0
 25 26  2  0
 26 27  1  0
 28 27  2  0
 29 28  1  0
 30 31  2  0
 30 32  1  0
M  END
$$$$
