QNW.pdb
     RDKit          3D

 32 33  0  0  1  0  0  0  0  0999 V2000
   33.4689  -25.1309  -21.1269 N   0  0  0  0  0  0  0  0  0  0  0  0
   33.9328  -25.9228  -20.0612 C   0  0  0  0  0  0  0  0  0  0  0  0
   35.1662  -26.1521  -19.9620 O   0  0  0  0  0  0  0  0  0  0  0  0
   32.9885  -26.4711  -19.0821 C   0  0  0  0  0  0  0  0  0  0  0  0
   33.1269  -27.9833  -18.9578 C   0  0  0  0  0  0  0  0  0  0  0  0
   31.9812  -28.6086  -19.7554 C   0  0  2  0  0  0  0  0  0  0  0  0
   30.7818  -28.4006  -18.9802 N   0  0  0  0  0  0  0  0  0  0  0  0
   32.2252  -30.0587  -19.8696 C   0  0  0  0  0  0  0  0  0  0  0  0
   33.4222  -30.4109  -20.1447 O   0  0  0  0  0  0  0  0  0  0  0  0
   31.6068  -33.8703  -16.4810 N   0  0  0  0  0  0  0  0  0  0  0  0
   31.6075  -32.4830  -16.2182 C   0  0  0  0  0  0  0  0  0  0  0  0
   31.7136  -32.1337  -15.0153 O   0  0  0  0  0  0  0  0  0  0  0  0
   31.4916  -31.4585  -17.2757 C   0  0  0  0  0  0  0  0  0  0  0  0
   31.3478  -32.0321  -18.6595 C   0  0  2  0  0  0  0  0  0  0  0  0
   31.2040  -31.0194  -19.6883 N   0  0  0  0  0  0  0  0  0  0  0  0
   30.1551  -32.9153  -18.6940 C   0  0  0  0  0  0  0  0  0  0  0  0
   30.0302  -33.8956  -17.9469 O   0  0  0  0  0  0  0  0  0  0  0  0
   29.0691  -32.6783  -19.6057 N   0  0  0  0  0  0  0  0  0  0  0  0
   27.8224  -33.3885  -19.5457 C   0  0  1  0  0  0  0  0  0  0  0  0
   26.6199  -32.5416  -19.7953 C   0  0  0  0  0  0  0  0  0  0  0  0
   26.3328  -31.5499  -18.7606 C   0  0  0  0  0  0  0  0  0  0  0  0
   26.6434  -31.6901  -17.4143 C   0  0  0  0  0  0  0  0  0  0  0  0
   26.2544  -30.6077  -16.7203 N   0  0  0  0  0  0  0  0  0  0  0  0
   25.6842  -29.7436  -17.5995 C   0  0  0  0  0  0  0  0  0  0  0  0
   25.1121  -28.4961  -17.4821 C   0  0  0  0  0  0  0  0  0  0  0  0
   24.5858  -27.8047  -18.5717 C   0  0  0  0  0  0  0  0  0  0  0  0
   24.6556  -28.4201  -19.8019 C   0  0  0  0  0  0  0  0  0  0  0  0
   25.2158  -29.6620  -19.9702 C   0  0  0  0  0  0  0  0  0  0  0  0
   25.7263  -30.3107  -18.8563 C   0  0  0  0  0  0  0  0  0  0  0  0
   27.9109  -34.4387  -20.6080 C   0  0  0  0  0  0  0  0  0  0  0  0
   26.8688  -35.0899  -20.8866 O   0  0  0  0  0  0  0  0  0  0  0  0
   29.0638  -34.7392  -21.3026 O   0  0  0  0  0  0  0  0  0  0  0  0
  1  2  1  0
  2  3  2  0
  2  4  1  0
  4  5  1  0
  6  5  1  0
  6  7  1  1
  8  9  2  0
  8  6  1  0
 11 10  1  0
 11 13  1  0
 12 11  2  0
 14 13  1  1
 14 15  1  0
 15  8  1  0
 16 14  1  0
 16 18  1  0
 17 16  2  0
 19 18  1  0
 19 30  1  0
 19 20  1  6
 21 20  1  0
 21 29  1  0
 22 21  2  0
 23 22  1  0
 23 24  1  0
 24 25  1  0
 24 29  2  0
 25 26  2  0
 26 27  1  0
 28 27  2  0
 29 28  1  0
 30 31  2  0
 30 32  1  0
M  END
$$$$
