QNW.pdb
     RDKit          3D

 32 33  0  0  1  0  0  0  0  0999 V2000
   33.4681  -28.2886  -17.6984 N   0  0  0  0  0  0  0  0  0  0  0  0
   33.5750  -27.0671  -18.3872 C   0  0  0  0  0  0  0  0  0  0  0  0
   34.6644  -26.4379  -18.3503 O   0  0  0  0  0  0  0  0  0  0  0  0
   32.4305  -26.5383  -19.1364 C   0  0  0  0  0  0  0  0  0  0  0  0
   31.1934  -27.4093  -18.9559 C   0  0  0  0  0  0  0  0  0  0  0  0
   30.0369  -26.4794  -18.5850 C   0  0  2  0  0  0  0  0  0  0  0  0
   30.4224  -25.8140  -17.3639 N   0  0  0  0  0  0  0  0  0  0  0  0
   28.8409  -27.3007  -18.3192 C   0  0  0  0  0  0  0  0  0  0  0  0
   28.3359  -27.9065  -19.3244 O   0  0  0  0  0  0  0  0  0  0  0  0
   24.9460  -30.0834  -16.3676 N   0  0  0  0  0  0  0  0  0  0  0  0
   26.2020  -30.3340  -15.7731 C   0  0  0  0  0  0  0  0  0  0  0  0
   26.3042  -31.3794  -15.0825 O   0  0  0  0  0  0  0  0  0  0  0  0
   27.3653  -29.4376  -15.9298 C   0  0  0  0  0  0  0  0  0  0  0  0
   27.1075  -28.2664  -16.8388 C   0  0  2  0  0  0  0  0  0  0  0  0
   28.2715  -27.4220  -17.0308 N   0  0  0  0  0  0  0  0  0  0  0  0
   26.0138  -27.4424  -16.2655 C   0  0  0  0  0  0  0  0  0  0  0  0
   26.2062  -26.6126  -15.3660 O   0  0  0  0  0  0  0  0  0  0  0  0
   24.6581  -27.5640  -16.7280 N   0  0  0  0  0  0  0  0  0  0  0  0
   23.7517  -26.4530  -16.8084 C   0  0  1  0  0  0  0  0  0  0  0  0
   24.1396  -25.4144  -17.8066 C   0  0  0  0  0  0  0  0  0  0  0  0
   23.2538  -24.2535  -17.8713 C   0  0  0  0  0  0  0  0  0  0  0  0
   23.4671  -23.0504  -17.2111 C   0  0  0  0  0  0  0  0  0  0  0  0
   22.4772  -22.1811  -17.4730 N   0  0  0  0  0  0  0  0  0  0  0  0
   21.6018  -22.7999  -18.3070 C   0  0  0  0  0  0  0  0  0  0  0  0
   20.4202  -22.4232  -18.9064 C   0  0  0  0  0  0  0  0  0  0  0  0
   19.6968  -23.2721  -19.7420 C   0  0  0  0  0  0  0  0  0  0  0  0
   20.2102  -24.5319  -19.9575 C   0  0  0  0  0  0  0  0  0  0  0  0
   21.3834  -24.9540  -19.3833 C   0  0  0  0  0  0  0  0  0  0  0  0
   22.0676  -24.0736  -18.5593 C   0  0  0  0  0  0  0  0  0  0  0  0
   22.4335  -27.0422  -17.2016 C   0  0  0  0  0  0  0  0  0  0  0  0
   21.3875  -26.4039  -16.9085 O   0  0  0  0  0  0  0  0  0  0  0  0
   22.2916  -28.2424  -17.8659 O   0  0  0  0  0  0  0  0  0  0  0  0
  1  2  1  0
  2  3  2  0
  2  4  1  0
  4  5  1  0
  6  5  1  0
  6  7  1  1
  8  9  2  0
  8  6  1  0
 11 10  1  0
 11 13  1  0
 12 11  2  0
 14 13  1  1
 14 15  1  0
 15  8  1  0
 16 14  1  0
 16 18  1  0
 17 16  2  0
 19 18  1  0
 19 30  1  0
 19 20  1  6
 21 20  1  0
 21 29  1  0
 22 21  2  0
 23 22  1  0
 23 24  1  0
 24 25  1  0
 24 29  2  0
 25 26  2  0
 26 27  1  0
 28 27  2  0
 29 28  1  0
 30 31  2  0
 30 32  1  0
M  END
$$$$
