QNW.pdb
     RDKit          3D

 32 33  0  0  1  0  0  0  0  0999 V2000
   27.1327  -21.7143  -16.0806 N   0  0  0  0  0  0  0  0  0  0  0  0
   28.4472  -21.2392  -16.2372 C   0  0  0  0  0  0  0  0  0  0  0  0
   29.3433  -22.0355  -16.6201 O   0  0  0  0  0  0  0  0  0  0  0  0
   28.7639  -19.8349  -15.9568 C   0  0  0  0  0  0  0  0  0  0  0  0
   27.5512  -19.0844  -15.4203 C   0  0  0  0  0  0  0  0  0  0  0  0
   26.7009  -18.6802  -16.6259 C   0  0  2  0  0  0  0  0  0  0  0  0
   27.2151  -17.4114  -17.0823 N   0  0  0  0  0  0  0  0  0  0  0  0
   25.3086  -18.4925  -16.1766 C   0  0  0  0  0  0  0  0  0  0  0  0
   25.0884  -17.4840  -15.4236 O   0  0  0  0  0  0  0  0  0  0  0  0
   22.0614  -16.0451  -16.7476 N   0  0  0  0  0  0  0  0  0  0  0  0
   22.3609  -17.2467  -17.4261 C   0  0  0  0  0  0  0  0  0  0  0  0
   23.0045  -17.1457  -18.5012 O   0  0  0  0  0  0  0  0  0  0  0  0
   21.9565  -18.5783  -16.9315 C   0  0  0  0  0  0  0  0  0  0  0  0
   22.9427  -19.1928  -15.9753 C   0  0  2  0  0  0  0  0  0  0  0  0
   24.2637  -19.3694  -16.5482 N   0  0  0  0  0  0  0  0  0  0  0  0
   22.4330  -20.5181  -15.5423 C   0  0  0  0  0  0  0  0  0  0  0  0
   22.8928  -21.5832  -15.9769 O   0  0  0  0  0  0  0  0  0  0  0  0
   21.3671  -20.6386  -14.5852 N   0  0  0  0  0  0  0  0  0  0  0  0
   20.9693  -21.8903  -14.0043 C   0  0  1  0  0  0  0  0  0  0  0  0
   21.9584  -22.4657  -13.0472 C   0  0  0  0  0  0  0  0  0  0  0  0
   22.4209  -21.5500  -12.0062 C   0  0  0  0  0  0  0  0  0  0  0  0
   21.5990  -20.7329  -11.2409 C   0  0  0  0  0  0  0  0  0  0  0  0
   22.3227  -20.0115  -10.3690 N   0  0  0  0  0  0  0  0  0  0  0  0
   23.6272  -20.3441  -10.5493 C   0  0  0  0  0  0  0  0  0  0  0  0
   24.8075  -19.9451   -9.9619 C   0  0  0  0  0  0  0  0  0  0  0  0
   26.0470  -20.4559  -10.3423 C   0  0  0  0  0  0  0  0  0  0  0  0
   26.0592  -21.3959  -11.3489 C   0  0  0  0  0  0  0  0  0  0  0  0
   24.9103  -21.8256  -11.9652 C   0  0  0  0  0  0  0  0  0  0  0  0
   23.7008  -21.2883  -11.5522 C   0  0  0  0  0  0  0  0  0  0  0  0
   19.6933  -21.6039  -13.2768 C   0  0  0  0  0  0  0  0  0  0  0  0
   19.3196  -20.4042  -13.1845 O   0  0  0  0  0  0  0  0  0  0  0  0
   18.8991  -22.5728  -12.7001 O   0  0  0  0  0  0  0  0  0  0  0  0
  1  2  1  0
  2  3  2  0
  2  4  1  0
  4  5  1  0
  6  5  1  0
  6  7  1  1
  8  9  2  0
  8  6  1  0
 11 10  1  0
 11 13  1  0
 12 11  2  0
 14 13  1  6
 14 15  1  0
 15  8  1  0
 16 14  1  0
 16 18  1  0
 17 16  2  0
 19 18  1  0
 19 30  1  0
 19 20  1  1
 21 20  1  0
 21 29  1  0
 22 21  2  0
 23 22  1  0
 23 24  1  0
 24 25  1  0
 24 29  2  0
 25 26  2  0
 26 27  1  0
 28 27  2  0
 29 28  1  0
 30 31  2  0
 30 32  1  0
M  END
$$$$
