YLW.pdb
     RDKit          3D

 35 37  0  0  1  0  0  0  0  0999 V2000
   30.3177  -26.5247  -22.6106 O   0  0  0  0  0  0  0  0  0  0  0  0
   29.4318  -26.0393  -21.6495 C   0  0  0  0  0  0  0  0  0  0  0  0
   29.2190  -24.6604  -21.5857 C   0  0  0  0  0  0  0  0  0  0  0  0
   28.3465  -24.2083  -20.6349 C   0  0  0  0  0  0  0  0  0  0  0  0
   27.6823  -25.0298  -19.7562 C   0  0  0  0  0  0  0  0  0  0  0  0
   26.7498  -24.4688  -18.7389 C   0  0  0  0  0  0  0  0  0  0  0  0
   27.5501  -23.9232  -17.6046 C   0  0  2  0  0  0  0  0  0  0  0  0
   28.0484  -24.9894  -16.7384 N   0  0  0  0  0  0  0  0  0  0  0  0
   26.7885  -22.9795  -16.7712 C   0  0  0  0  0  0  0  0  0  0  0  0
   26.4405  -23.2636  -15.5889 O   0  0  0  0  0  0  0  0  0  0  0  0
   27.8932  -26.3940  -19.8205 C   0  0  0  0  0  0  0  0  0  0  0  0
   28.7784  -26.8898  -20.7812 C   0  0  0  0  0  0  0  0  0  0  0  0
   28.2439  -19.0799  -15.4480 C   0  0  0  0  0  0  0  0  0  0  0  0
   27.7276  -19.0071  -16.9000 C   0  0  2  0  0  0  0  0  0  0  0  0
   28.0315  -17.6055  -17.3943 C   0  0  0  0  0  0  0  0  0  0  0  0
   26.2587  -19.3014  -16.8076 C   0  0  0  0  0  0  0  0  0  0  0  0
   25.8874  -20.6964  -16.4815 C   0  0  2  0  0  0  0  0  0  0  0  0
   26.4445  -21.7019  -17.3329 N   0  0  0  0  0  0  0  0  0  0  0  0
   24.4041  -20.8806  -16.3701 C   0  0  0  0  0  0  0  0  0  0  0  0
   23.7755  -21.3151  -17.3573 O   0  0  0  0  0  0  0  0  0  0  0  0
   23.7149  -20.5704  -15.1769 N   0  0  0  0  0  0  0  0  0  0  0  0
   22.2964  -20.8178  -14.9942 C   0  0  1  0  0  0  0  0  0  0  0  0
   22.0061  -21.5183  -13.7004 C   0  0  0  0  0  0  0  0  0  0  0  0
   22.5776  -20.8176  -12.5315 C   0  0  0  0  0  0  0  0  0  0  0  0
   22.0693  -19.7816  -11.7830 C   0  0  0  0  0  0  0  0  0  0  0  0
   22.9468  -19.4563  -10.7971 N   0  0  0  0  0  0  0  0  0  0  0  0
   24.0127  -20.2503  -10.8816 C   0  0  0  0  0  0  0  0  0  0  0  0
   25.1661  -20.3453  -10.1525 C   0  0  0  0  0  0  0  0  0  0  0  0
   26.1176  -21.3016  -10.5013 C   0  0  0  0  0  0  0  0  0  0  0  0
   25.9046  -22.1489  -11.5700 C   0  0  0  0  0  0  0  0  0  0  0  0
   24.7456  -22.0560  -12.3037 C   0  0  0  0  0  0  0  0  0  0  0  0
   23.8064  -21.0986  -11.9460 C   0  0  0  0  0  0  0  0  0  0  0  0
   21.5228  -19.5576  -15.0304 C   0  0  0  0  0  0  0  0  0  0  0  0
   20.1607  -19.6204  -15.2090 O   0  0  0  0  0  0  0  0  0  0  0  0
   22.1119  -18.4742  -14.8996 O   0  0  0  0  0  0  0  0  0  0  0  0
  2  1  1  0
  3  2  2  0
  4  3  1  0
  5  4  2  0
  5 11  1  0
  6  5  1  0
  7  6  1  0
  7  8  1  1
  9 18  1  0
  9  7  1  0
 10  9  2  0
 11 12  2  0
 12  2  1  0
 14 13  1  1
 14 16  1  0
 15 14  1  0
 17 16  1  6
 17 18  1  0
 17 19  1  0
 19 21  1  0
 19 20  2  0
 21 22  1  0
 22 23  1  1
 22 33  1  0
 24 23  1  0
 25 24  2  0
 26 25  1  0
 27 26  1  0
 27 32  2  0
 28 27  1  0
 29 28  2  0
 29 30  1  0
 30 31  2  0
 31 32  1  0
 32 24  1  0
 33 34  1  0
 35 33  2  0
M  END
$$$$
