YLW.pdb
     RDKit          3D

 35 37  0  0  1  0  0  0  0  0999 V2000
   30.2639  -16.1710  -18.9258 O   0  0  0  0  0  0  0  0  0  0  0  0
   29.3516  -16.9657  -18.2326 C   0  0  0  0  0  0  0  0  0  0  0  0
   28.7624  -18.0360  -18.9092 C   0  0  0  0  0  0  0  0  0  0  0  0
   27.8708  -18.8004  -18.2089 C   0  0  0  0  0  0  0  0  0  0  0  0
   27.5334  -18.5702  -16.8970 C   0  0  0  0  0  0  0  0  0  0  0  0
   26.5475  -19.4393  -16.1957 C   0  0  0  0  0  0  0  0  0  0  0  0
   27.2737  -20.2844  -15.2041 C   0  0  2  0  0  0  0  0  0  0  0  0
   28.1883  -21.2155  -15.8613 N   0  0  0  0  0  0  0  0  0  0  0  0
   26.3672  -21.0659  -14.3482 C   0  0  0  0  0  0  0  0  0  0  0  0
   25.8923  -22.1779  -14.7191 O   0  0  0  0  0  0  0  0  0  0  0  0
   28.1173  -17.5112  -16.2283 C   0  0  0  0  0  0  0  0  0  0  0  0
   29.0336  -16.7099  -16.9144 C   0  0  0  0  0  0  0  0  0  0  0  0
   27.9691  -21.3694  -11.0136 C   0  0  0  0  0  0  0  0  0  0  0  0
   26.7491  -20.6752  -10.3733 C   0  0  2  0  0  0  0  0  0  0  0  0
   26.9685  -20.7182   -8.8730 C   0  0  0  0  0  0  0  0  0  0  0  0
   25.5624  -21.4753  -10.8257 C   0  0  0  0  0  0  0  0  0  0  0  0
   25.1219  -21.2647  -12.2227 C   0  0  2  0  0  0  0  0  0  0  0  0
   26.0281  -20.5361  -13.0558 N   0  0  0  0  0  0  0  0  0  0  0  0
   23.7514  -20.6633  -12.3041 C   0  0  0  0  0  0  0  0  0  0  0  0
   23.5519  -19.5470  -11.7822 O   0  0  0  0  0  0  0  0  0  0  0  0
   22.6934  -21.3363  -12.9542 N   0  0  0  0  0  0  0  0  0  0  0  0
   21.3571  -20.7825  -13.0739 C   0  0  1  0  0  0  0  0  0  0  0  0
   21.2871  -19.6898  -14.0986 C   0  0  0  0  0  0  0  0  0  0  0  0
   21.9508  -20.0543  -15.3677 C   0  0  0  0  0  0  0  0  0  0  0  0
   21.9823  -21.2545  -16.0390 C   0  0  0  0  0  0  0  0  0  0  0  0
   22.7200  -21.1247  -17.1734 N   0  0  0  0  0  0  0  0  0  0  0  0
   23.1707  -19.8745  -17.2605 C   0  0  0  0  0  0  0  0  0  0  0  0
   23.9452  -19.2235  -18.1810 C   0  0  0  0  0  0  0  0  0  0  0  0
   24.2559  -17.8796  -17.9838 C   0  0  0  0  0  0  0  0  0  0  0  0
   23.7891  -17.2051  -16.8736 C   0  0  0  0  0  0  0  0  0  0  0  0
   23.0096  -17.8570  -15.9476 C   0  0  0  0  0  0  0  0  0  0  0  0
   22.7082  -19.1958  -16.1558 C   0  0  0  0  0  0  0  0  0  0  0  0
   20.3733  -21.8271  -13.4327 C   0  0  0  0  0  0  0  0  0  0  0  0
   19.0378  -21.5000  -13.4572 O   0  0  0  0  0  0  0  0  0  0  0  0
   20.7673  -22.9714  -13.7033 O   0  0  0  0  0  0  0  0  0  0  0  0
  2  1  1  0
  3  2  2  0
  4  3  1  0
  5  4  2  0
  5 11  1  0
  6  5  1  0
  7  6  1  0
  7  8  1  6
  9 18  1  0
  9  7  1  0
 10  9  2  0
 11 12  2  0
 12  2  1  0
 14 13  1  6
 14 16  1  0
 15 14  1  0
 17 16  1  1
 17 18  1  0
 17 19  1  0
 19 21  1  0
 19 20  2  0
 21 22  1  0
 22 23  1  6
 22 33  1  0
 24 23  1  0
 25 24  2  0
 26 25  1  0
 27 26  1  0
 27 32  2  0
 28 27  1  0
 29 28  2  0
 29 30  1  0
 30 31  2  0
 31 32  1  0
 32 24  1  0
 33 34  1  0
 35 33  2  0
M  END
$$$$
