YLW.pdb
     RDKit          3D

 35 37  0  0  1  0  0  0  0  0999 V2000
   22.7159   -6.0297  -21.8470 O   0  0  0  0  0  0  0  0  0  0  0  0
   22.8055   -7.3964  -21.5855 C   0  0  0  0  0  0  0  0  0  0  0  0
   23.8588   -7.8471  -20.7867 C   0  0  0  0  0  0  0  0  0  0  0  0
   23.9260   -9.1912  -20.5449 C   0  0  0  0  0  0  0  0  0  0  0  0
   23.0245  -10.1019  -21.0408 C   0  0  0  0  0  0  0  0  0  0  0  0
   23.1616  -11.5552  -20.7436 C   0  0  0  0  0  0  0  0  0  0  0  0
   24.2319  -12.1233  -21.6135 C   0  0  2  0  0  0  0  0  0  0  0  0
   23.8815  -12.0239  -23.0286 N   0  0  0  0  0  0  0  0  0  0  0  0
   24.5201  -13.5349  -21.3148 C   0  0  0  0  0  0  0  0  0  0  0  0
   23.8333  -14.4754  -21.8083 O   0  0  0  0  0  0  0  0  0  0  0  0
   21.9824   -9.6549  -21.8308 C   0  0  0  0  0  0  0  0  0  0  0  0
   21.8838   -8.2868  -22.0972 C   0  0  0  0  0  0  0  0  0  0  0  0
   29.1102  -17.0192  -19.2466 C   0  0  0  0  0  0  0  0  0  0  0  0
   27.5828  -16.9591  -19.4551 C   0  0  2  0  0  0  0  0  0  0  0  0
   27.2645  -17.9235  -20.5820 C   0  0  0  0  0  0  0  0  0  0  0  0
   27.2910  -15.5267  -19.7957 C   0  0  0  0  0  0  0  0  0  0  0  0
   25.8784  -15.1954  -20.0877 C   0  0  2  0  0  0  0  0  0  0  0  0
   25.6207  -13.8332  -20.4397 N   0  0  0  0  0  0  0  0  0  0  0  0
   24.9529  -15.6274  -18.9907 C   0  0  0  0  0  0  0  0  0  0  0  0
   25.0423  -15.0746  -17.8750 O   0  0  0  0  0  0  0  0  0  0  0  0
   23.9929  -16.6422  -19.1992 N   0  0  0  0  0  0  0  0  0  0  0  0
   23.0444  -17.0565  -18.1817 C   0  0  1  0  0  0  0  0  0  0  0  0
   21.7057  -16.4035  -18.3563 C   0  0  0  0  0  0  0  0  0  0  0  0
   21.0514  -16.7748  -19.6283 C   0  0  0  0  0  0  0  0  0  0  0  0
   20.7345  -18.0142  -20.1337 C   0  0  0  0  0  0  0  0  0  0  0  0
   20.1364  -17.8742  -21.3464 N   0  0  0  0  0  0  0  0  0  0  0  0
   20.0548  -16.5792  -21.6462 C   0  0  0  0  0  0  0  0  0  0  0  0
   19.5551  -15.9001  -22.7233 C   0  0  0  0  0  0  0  0  0  0  0  0
   19.6223  -14.5085  -22.7442 C   0  0  0  0  0  0  0  0  0  0  0  0
   20.1848  -13.8153  -21.6914 C   0  0  0  0  0  0  0  0  0  0  0  0
   20.6868  -14.4957  -20.6073 C   0  0  0  0  0  0  0  0  0  0  0  0
   20.6143  -15.8818  -20.5995 C   0  0  0  0  0  0  0  0  0  0  0  0
   22.8563  -18.5236  -18.1888 C   0  0  0  0  0  0  0  0  0  0  0  0
   23.5033  -19.2706  -19.1452 O   0  0  0  0  0  0  0  0  0  0  0  0
   22.1238  -19.0505  -17.3381 O   0  0  0  0  0  0  0  0  0  0  0  0
  2  1  1  0
  3  2  2  0
  4  3  1  0
  5  4  2  0
  5 11  1  0
  6  5  1  0
  7  6  1  0
  7  8  1  6
  9 18  1  0
  9  7  1  0
 10  9  2  0
 11 12  2  0
 12  2  1  0
 14 13  1  6
 14 16  1  0
 15 14  1  0
 17 16  1  1
 17 18  1  0
 17 19  1  0
 19 21  1  0
 19 20  2  0
 21 22  1  0
 22 23  1  6
 22 33  1  0
 24 23  1  0
 25 24  2  0
 26 25  1  0
 27 26  1  0
 27 32  2  0
 28 27  1  0
 29 28  2  0
 29 30  1  0
 30 31  2  0
 31 32  1  0
 32 24  1  0
 33 34  1  0
 35 33  2  0
M  END
$$$$
