YLW.pdb
     RDKit          3D

 35 37  0  0  1  0  0  0  0  0999 V2000
   27.8564  -18.3396  -26.3623 O   0  0  0  0  0  0  0  0  0  0  0  0
   27.1439  -17.7660  -25.3099 C   0  0  0  0  0  0  0  0  0  0  0  0
   27.6892  -16.6464  -24.6775 C   0  0  0  0  0  0  0  0  0  0  0  0
   26.9726  -16.1020  -23.6480 C   0  0  0  0  0  0  0  0  0  0  0  0
   25.7653  -16.5943  -23.2144 C   0  0  0  0  0  0  0  0  0  0  0  0
   25.0404  -15.9557  -22.0805 C   0  0  0  0  0  0  0  0  0  0  0  0
   25.7036  -16.3511  -20.8043 C   0  0  2  0  0  0  0  0  0  0  0  0
   25.5730  -17.7849  -20.5542 N   0  0  0  0  0  0  0  0  0  0  0  0
   25.1661  -15.6354  -19.6365 C   0  0  0  0  0  0  0  0  0  0  0  0
   24.1263  -16.0286  -19.0331 O   0  0  0  0  0  0  0  0  0  0  0  0
   25.2263  -17.7018  -23.8411 C   0  0  0  0  0  0  0  0  0  0  0  0
   25.9326  -18.2827  -24.8976 C   0  0  0  0  0  0  0  0  0  0  0  0
   26.8240  -14.5954  -15.7330 C   0  0  0  0  0  0  0  0  0  0  0  0
   27.4086  -13.6225  -16.7780 C   0  0  2  0  0  0  0  0  0  0  0  0
   28.3871  -12.7319  -16.0360 C   0  0  0  0  0  0  0  0  0  0  0  0
   26.2246  -12.8805  -17.3263 C   0  0  0  0  0  0  0  0  0  0  0  0
   25.2753  -13.6695  -18.1427 C   0  0  2  0  0  0  0  0  0  0  0  0
   25.8592  -14.4616  -19.1808 N   0  0  0  0  0  0  0  0  0  0  0  0
   24.1660  -12.8289  -18.6990 C   0  0  0  0  0  0  0  0  0  0  0  0
   24.4522  -11.8810  -19.4593 O   0  0  0  0  0  0  0  0  0  0  0  0
   22.8161  -13.0904  -18.3764 N   0  0  0  0  0  0  0  0  0  0  0  0
   21.7104  -12.3115  -18.9033 C   0  0  1  0  0  0  0  0  0  0  0  0
   21.3123  -12.7533  -20.2800 C   0  0  0  0  0  0  0  0  0  0  0  0
   20.6899  -14.0936  -20.2912 C   0  0  0  0  0  0  0  0  0  0  0  0
   19.7432  -14.6388  -19.4555 C   0  0  0  0  0  0  0  0  0  0  0  0
   19.4662  -15.9109  -19.8463 N   0  0  0  0  0  0  0  0  0  0  0  0
   20.2055  -16.2109  -20.9127 C   0  0  0  0  0  0  0  0  0  0  0  0
   20.3169  -17.3341  -21.6853 C   0  0  0  0  0  0  0  0  0  0  0  0
   21.2060  -17.3395  -22.7581 C   0  0  0  0  0  0  0  0  0  0  0  0
   21.9690  -16.2256  -23.0452 C   0  0  0  0  0  0  0  0  0  0  0  0
   21.8580  -15.0951  -22.2707 C   0  0  0  0  0  0  0  0  0  0  0  0
   20.9692  -15.1034  -21.2046 C   0  0  0  0  0  0  0  0  0  0  0  0
   20.5260  -12.3961  -18.0215 C   0  0  0  0  0  0  0  0  0  0  0  0
   20.5675  -13.2367  -16.9339 O   0  0  0  0  0  0  0  0  0  0  0  0
   19.5234  -11.7122  -18.2765 O   0  0  0  0  0  0  0  0  0  0  0  0
  2  1  1  0
  3  2  2  0
  4  3  1  0
  5  4  2  0
  5 11  1  0
  6  5  1  0
  7  6  1  0
  7  8  1  1
  9 18  1  0
  9  7  1  0
 10  9  2  0
 11 12  2  0
 12  2  1  0
 14 13  1  1
 14 16  1  0
 15 14  1  0
 17 16  1  6
 17 18  1  0
 17 19  1  0
 19 21  1  0
 19 20  2  0
 21 22  1  0
 22 23  1  6
 22 33  1  0
 24 23  1  0
 25 24  2  0
 26 25  1  0
 27 26  1  0
 27 32  2  0
 28 27  1  0
 29 28  2  0
 29 30  1  0
 30 31  2  0
 31 32  1  0
 32 24  1  0
 33 34  1  0
 35 33  2  0
M  END
$$$$
