YLW.pdb
     RDKit          3D

 35 37  0  0  1  0  0  0  0  0999 V2000
   29.9179  -15.6642  -18.1716 O   0  0  0  0  0  0  0  0  0  0  0  0
   29.0354  -16.5458  -17.5486 C   0  0  0  0  0  0  0  0  0  0  0  0
   28.6601  -16.2807  -16.2297 C   0  0  0  0  0  0  0  0  0  0  0  0
   27.7944  -17.1597  -15.6400 C   0  0  0  0  0  0  0  0  0  0  0  0
   27.2863  -18.2697  -16.2706 C   0  0  0  0  0  0  0  0  0  0  0  0
   26.3517  -19.1907  -15.5653 C   0  0  0  0  0  0  0  0  0  0  0  0
   27.1445  -20.0929  -14.6808 C   0  0  2  0  0  0  0  0  0  0  0  0
   27.9402  -21.0412  -15.4573 N   0  0  0  0  0  0  0  0  0  0  0  0
   26.3039  -20.8612  -13.7491 C   0  0  0  0  0  0  0  0  0  0  0  0
   25.9250  -22.0397  -14.0085 O   0  0  0  0  0  0  0  0  0  0  0  0
   27.6580  -18.5309  -17.5757 C   0  0  0  0  0  0  0  0  0  0  0  0
   28.5410  -17.6522  -18.2087 C   0  0  0  0  0  0  0  0  0  0  0  0
   26.8778  -21.9094   -9.6375 C   0  0  0  0  0  0  0  0  0  0  0  0
   26.3483  -20.4603   -9.6352 C   0  0  2  0  0  0  0  0  0  0  0  0
   26.3287  -20.0122   -8.1861 C   0  0  0  0  0  0  0  0  0  0  0  0
   24.9825  -20.5425  -10.2524 C   0  0  0  0  0  0  0  0  0  0  0  0
   24.9318  -20.8753  -11.6936 C   0  0  2  0  0  0  0  0  0  0  0  0
   25.9173  -20.2393  -12.5123 N   0  0  0  0  0  0  0  0  0  0  0  0
   23.5670  -20.6707  -12.2784 C   0  0  0  0  0  0  0  0  0  0  0  0
   23.0062  -19.5658  -12.1261 O   0  0  0  0  0  0  0  0  0  0  0  0
   22.9128  -21.7007  -12.9898 N   0  0  0  0  0  0  0  0  0  0  0  0
   21.5850  -21.5519  -13.5570 C   0  0  1  0  0  0  0  0  0  0  0  0
   21.1878  -22.7366  -14.3861 C   0  0  0  0  0  0  0  0  0  0  0  0
   19.8683  -22.5662  -15.0293 C   0  0  0  0  0  0  0  0  0  0  0  0
   19.5094  -21.8329  -16.1363 C   0  0  0  0  0  0  0  0  0  0  0  0
   18.1765  -21.9715  -16.3643 N   0  0  0  0  0  0  0  0  0  0  0  0
   17.6561  -22.7739  -15.4375 C   0  0  0  0  0  0  0  0  0  0  0  0
   16.3888  -23.2335  -15.2057 C   0  0  0  0  0  0  0  0  0  0  0  0
   16.1565  -24.0793  -14.1231 C   0  0  0  0  0  0  0  0  0  0  0  0
   17.1905  -24.4550  -13.2892 C   0  0  0  0  0  0  0  0  0  0  0  0
   18.4652  -23.9951  -13.5208 C   0  0  0  0  0  0  0  0  0  0  0  0
   18.6827  -23.1526  -14.6023 C   0  0  0  0  0  0  0  0  0  0  0  0
   20.5689  -21.3557  -12.5003 C   0  0  0  0  0  0  0  0  0  0  0  0
   19.5594  -20.4459  -12.7116 O   0  0  0  0  0  0  0  0  0  0  0  0
   20.6444  -22.0105  -11.4499 O   0  0  0  0  0  0  0  0  0  0  0  0
  2  1  1  0
  3  2  2  0
  4  3  1  0
  5  4  2  0
  5 11  1  0
  6  5  1  0
  7  6  1  0
  7  8  1  6
  9 18  1  0
  9  7  1  0
 10  9  2  0
 11 12  2  0
 12  2  1  0
 14 13  1  1
 14 16  1  0
 15 14  1  0
 17 16  1  1
 17 18  1  0
 17 19  1  0
 19 21  1  0
 19 20  2  0
 21 22  1  0
 22 23  1  1
 22 33  1  0
 24 23  1  0
 25 24  2  0
 26 25  1  0
 27 26  1  0
 27 32  2  0
 28 27  1  0
 29 28  2  0
 29 30  1  0
 30 31  2  0
 31 32  1  0
 32 24  1  0
 33 34  1  0
 35 33  2  0
M  END
$$$$
