YLW.pdb
     RDKit          3D

 35 37  0  0  1  0  0  0  0  0999 V2000
   29.5331  -32.8947  -17.1998 O   0  0  0  0  0  0  0  0  0  0  0  0
   28.3593  -32.4935  -16.5630 C   0  0  0  0  0  0  0  0  0  0  0  0
   28.3754  -32.3623  -15.1726 C   0  0  0  0  0  0  0  0  0  0  0  0
   27.2125  -31.9683  -14.5708 C   0  0  0  0  0  0  0  0  0  0  0  0
   26.0516  -31.7007  -15.2553 C   0  0  0  0  0  0  0  0  0  0  0  0
   24.8167  -31.2821  -14.5349 C   0  0  0  0  0  0  0  0  0  0  0  0
   24.3495  -32.4161  -13.6860 C   0  0  2  0  0  0  0  0  0  0  0  0
   23.7345  -33.4698  -14.4903 N   0  0  0  0  0  0  0  0  0  0  0  0
   23.3776  -31.9999  -12.6627 C   0  0  0  0  0  0  0  0  0  0  0  0
   22.1520  -31.8410  -12.9316 O   0  0  0  0  0  0  0  0  0  0  0  0
   26.0368  -31.8303  -16.6311 C   0  0  0  0  0  0  0  0  0  0  0  0
   27.2088  -32.2307  -17.2781 C   0  0  0  0  0  0  0  0  0  0  0  0
   22.3736  -34.0160   -9.0123 C   0  0  0  0  0  0  0  0  0  0  0  0
   23.6580  -33.2204   -8.7000 C   0  0  2  0  0  0  0  0  0  0  0  0
   24.0171  -33.5322   -7.2595 C   0  0  0  0  0  0  0  0  0  0  0  0
   23.2913  -31.7824   -8.9253 C   0  0  0  0  0  0  0  0  0  0  0  0
   22.9175  -31.4085  -10.3076 C   0  0  2  0  0  0  0  0  0  0  0  0
   23.8532  -31.7776  -11.3247 N   0  0  0  0  0  0  0  0  0  0  0  0
   22.5696  -29.9558  -10.4311 C   0  0  0  0  0  0  0  0  0  0  0  0
   23.4005  -29.1036  -10.0543 O   0  0  0  0  0  0  0  0  0  0  0  0
   21.3269  -29.5424  -10.9600 N   0  0  0  0  0  0  0  0  0  0  0  0
   20.9747  -28.1484  -11.1583 C   0  0  1  0  0  0  0  0  0  0  0  0
   20.6217  -27.8513  -12.5853 C   0  0  0  0  0  0  0  0  0  0  0  0
   19.2810  -28.3497  -12.9569 C   0  0  0  0  0  0  0  0  0  0  0  0
   18.0617  -28.1496  -12.3527 C   0  0  0  0  0  0  0  0  0  0  0  0
   17.0941  -28.8048  -13.0472 N   0  0  0  0  0  0  0  0  0  0  0  0
   17.6478  -29.4267  -14.0866 C   0  0  0  0  0  0  0  0  0  0  0  0
   17.1386  -30.2123  -15.0839 C   0  0  0  0  0  0  0  0  0  0  0  0
   17.9980  -30.7329  -16.0492 C   0  0  0  0  0  0  0  0  0  0  0  0
   19.3508  -30.4616  -16.0067 C   0  0  0  0  0  0  0  0  0  0  0  0
   19.8647  -29.6713  -15.0059 C   0  0  0  0  0  0  0  0  0  0  0  0
   18.9978  -29.1598  -14.0503 C   0  0  0  0  0  0  0  0  0  0  0  0
   19.8355  -27.7554  -10.3007 C   0  0  0  0  0  0  0  0  0  0  0  0
   19.5154  -26.4222  -10.1929 O   0  0  0  0  0  0  0  0  0  0  0  0
   19.1935  -28.6288   -9.6983 O   0  0  0  0  0  0  0  0  0  0  0  0
  2  1  1  0
  3  2  2  0
  4  3  1  0
  5  4  2  0
  5 11  1  0
  6  5  1  0
  7  6  1  0
  7  8  1  6
  9 18  1  0
  9  7  1  0
 10  9  2  0
 11 12  2  0
 12  2  1  0
 14 13  1  1
 14 16  1  0
 15 14  1  0
 17 16  1  1
 17 18  1  0
 17 19  1  0
 19 21  1  0
 19 20  2  0
 21 22  1  0
 22 23  1  6
 22 33  1  0
 24 23  1  0
 25 24  2  0
 26 25  1  0
 27 26  1  0
 27 32  2  0
 28 27  1  0
 29 28  2  0
 29 30  1  0
 30 31  2  0
 31 32  1  0
 32 24  1  0
 33 34  1  0
 35 33  2  0
M  END
$$$$
