YLW.pdb
     RDKit          3D

 35 37  0  0  1  0  0  0  0  0999 V2000
   17.9768  -16.2554  -14.8814 O   0  0  0  0  0  0  0  0  0  0  0  0
   19.1366  -16.9838  -14.6191 C   0  0  0  0  0  0  0  0  0  0  0  0
   19.0062  -18.3351  -14.2908 C   0  0  0  0  0  0  0  0  0  0  0  0
   20.1574  -19.0281  -14.0373 C   0  0  0  0  0  0  0  0  0  0  0  0
   21.4117  -18.4694  -14.0889 C   0  0  0  0  0  0  0  0  0  0  0  0
   22.6248  -19.2819  -13.7935 C   0  0  0  0  0  0  0  0  0  0  0  0
   23.4972  -19.2976  -15.0032 C   0  0  2  0  0  0  0  0  0  0  0  0
   22.8257  -19.9232  -16.1403 N   0  0  0  0  0  0  0  0  0  0  0  0
   24.7681  -20.0050  -14.7808 C   0  0  0  0  0  0  0  0  0  0  0  0
   24.8741  -21.2546  -14.9449 O   0  0  0  0  0  0  0  0  0  0  0  0
   21.5395  -17.1325  -14.4143 C   0  0  0  0  0  0  0  0  0  0  0  0
   20.3830  -16.3948  -14.6799 C   0  0  0  0  0  0  0  0  0  0  0  0
   28.4675  -19.4008  -16.8124 C   0  0  0  0  0  0  0  0  0  0  0  0
   28.3766  -18.3427  -15.6932 C   0  0  2  0  0  0  0  0  0  0  0  0
   29.5917  -17.4480  -15.8479 C   0  0  0  0  0  0  0  0  0  0  0  0
   28.3726  -19.1271  -14.4134 C   0  0  0  0  0  0  0  0  0  0  0  0
   27.1493  -19.9088  -14.1258 C   0  0  2  0  0  0  0  0  0  0  0  0
   25.9110  -19.2358  -14.3709 N   0  0  0  0  0  0  0  0  0  0  0  0
   27.1549  -20.4886  -12.7436 C   0  0  0  0  0  0  0  0  0  0  0  0
   28.0854  -21.2534  -12.4154 O   0  0  0  0  0  0  0  0  0  0  0  0
   26.1315  -20.1867  -11.8182 N   0  0  0  0  0  0  0  0  0  0  0  0
   26.0775  -20.7546  -10.4836 C   0  0  1  0  0  0  0  0  0  0  0  0
   27.0866  -20.1349   -9.5635 C   0  0  0  0  0  0  0  0  0  0  0  0
   26.7401  -20.3074   -8.1374 C   0  0  0  0  0  0  0  0  0  0  0  0
   25.6128  -20.8406   -7.5569 C   0  0  0  0  0  0  0  0  0  0  0  0
   25.7301  -20.7950   -6.2034 N   0  0  0  0  0  0  0  0  0  0  0  0
   26.9013  -20.2468   -5.8848 C   0  0  0  0  0  0  0  0  0  0  0  0
   27.5074  -19.9680   -4.6907 C   0  0  0  0  0  0  0  0  0  0  0  0
   28.7668  -19.3719   -4.6870 C   0  0  0  0  0  0  0  0  0  0  0  0
   29.4031  -19.0641   -5.8727 C   0  0  0  0  0  0  0  0  0  0  0  0
   28.7962  -19.3443   -7.0741 C   0  0  0  0  0  0  0  0  0  0  0  0
   27.5414  -19.9376   -7.0636 C   0  0  0  0  0  0  0  0  0  0  0  0
   24.7344  -20.5930   -9.8855 C   0  0  0  0  0  0  0  0  0  0  0  0
   24.3805  -21.3926   -8.8239 O   0  0  0  0  0  0  0  0  0  0  0  0
   23.9566  -19.7453  -10.3484 O   0  0  0  0  0  0  0  0  0  0  0  0
  2  1  1  0
  3  2  2  0
  4  3  1  0
  5  4  2  0
  5 11  1  0
  6  5  1  0
  7  6  1  0
  7  8  1  6
  9 18  1  0
  9  7  1  0
 10  9  2  0
 11 12  2  0
 12  2  1  0
 14 13  1  6
 14 16  1  0
 15 14  1  0
 17 16  1  1
 17 18  1  0
 17 19  1  0
 19 21  1  0
 19 20  2  0
 21 22  1  0
 22 23  1  1
 22 33  1  0
 24 23  1  0
 25 24  2  0
 26 25  1  0
 27 26  1  0
 27 32  2  0
 28 27  1  0
 29 28  2  0
 29 30  1  0
 30 31  2  0
 31 32  1  0
 32 24  1  0
 33 34  1  0
 35 33  2  0
M  END
$$$$
