YLW.pdb
     RDKit          3D

 35 37  0  0  1  0  0  0  0  0999 V2000
   15.0955  -31.6126  -11.5464 O   0  0  0  0  0  0  0  0  0  0  0  0
   16.4131  -31.9843  -11.2819 C   0  0  0  0  0  0  0  0  0  0  0  0
   17.3827  -31.7082  -12.2485 C   0  0  0  0  0  0  0  0  0  0  0  0
   18.6672  -32.0826  -11.9666 C   0  0  0  0  0  0  0  0  0  0  0  0
   19.0422  -32.7055  -10.8007 C   0  0  0  0  0  0  0  0  0  0  0  0
   20.4605  -33.0932  -10.5613 C   0  0  0  0  0  0  0  0  0  0  0  0
   20.7927  -34.2572  -11.4330 C   0  0  2  0  0  0  0  0  0  0  0  0
   20.0852  -35.4634  -11.0092 N   0  0  0  0  0  0  0  0  0  0  0  0
   22.2326  -34.5596  -11.4565 C   0  0  0  0  0  0  0  0  0  0  0  0
   22.7213  -35.5305  -10.8098 O   0  0  0  0  0  0  0  0  0  0  0  0
   18.0822  -32.9778   -9.8447 C   0  0  0  0  0  0  0  0  0  0  0  0
   16.7593  -32.6078  -10.1006 C   0  0  0  0  0  0  0  0  0  0  0  0
   25.0778  -35.5565  -14.7941 C   0  0  0  0  0  0  0  0  0  0  0  0
   24.7264  -34.0544  -14.8166 C   0  0  2  0  0  0  0  0  0  0  0  0
   25.4558  -33.4601  -16.0065 C   0  0  0  0  0  0  0  0  0  0  0  0
   25.2044  -33.5215  -13.4972 C   0  0  0  0  0  0  0  0  0  0  0  0
   24.4908  -34.0070  -12.2951 C   0  0  2  0  0  0  0  0  0  0  0  0
   23.0904  -33.7194  -12.2465 N   0  0  0  0  0  0  0  0  0  0  0  0
   25.1508  -33.5669  -11.0234 C   0  0  0  0  0  0  0  0  0  0  0  0
   24.9795  -32.3943  -10.6307 O   0  0  0  0  0  0  0  0  0  0  0  0
   25.9574  -34.4505  -10.2727 N   0  0  0  0  0  0  0  0  0  0  0  0
   26.6010  -34.0718   -9.0280 C   0  0  1  0  0  0  0  0  0  0  0  0
   25.6145  -33.6023   -8.0007 C   0  0  0  0  0  0  0  0  0  0  0  0
   26.2209  -33.4305   -6.6641 C   0  0  0  0  0  0  0  0  0  0  0  0
   27.0690  -32.4550   -6.1938 C   0  0  0  0  0  0  0  0  0  0  0  0
   27.3724  -32.7015   -4.8920 N   0  0  0  0  0  0  0  0  0  0  0  0
   26.7469  -33.8101   -4.5001 C   0  0  0  0  0  0  0  0  0  0  0  0
   26.7093  -34.4913   -3.3146 C   0  0  0  0  0  0  0  0  0  0  0  0
   25.9449  -35.6522   -3.2180 C   0  0  0  0  0  0  0  0  0  0  0  0
   25.2289  -36.1155   -4.3034 C   0  0  0  0  0  0  0  0  0  0  0  0
   25.2643  -35.4319   -5.4958 C   0  0  0  0  0  0  0  0  0  0  0  0
   26.0303  -34.2774   -5.5786 C   0  0  0  0  0  0  0  0  0  0  0  0
   27.3727  -35.1978   -8.4586 C   0  0  0  0  0  0  0  0  0  0  0  0
   28.5708  -34.9337   -7.8372 O   0  0  0  0  0  0  0  0  0  0  0  0
   26.9288  -36.3521   -8.5506 O   0  0  0  0  0  0  0  0  0  0  0  0
  2  1  1  0
  3  2  2  0
  4  3  1  0
  5  4  2  0
  5 11  1  0
  6  5  1  0
  7  6  1  0
  7  8  1  1
  9 18  1  0
  9  7  1  0
 10  9  2  0
 11 12  2  0
 12  2  1  0
 14 13  1  1
 14 16  1  0
 15 14  1  0
 17 16  1  6
 17 18  1  0
 17 19  1  0
 19 21  1  0
 19 20  2  0
 21 22  1  0
 22 23  1  1
 22 33  1  0
 24 23  1  0
 25 24  2  0
 26 25  1  0
 27 26  1  0
 27 32  2  0
 28 27  1  0
 29 28  2  0
 29 30  1  0
 30 31  2  0
 31 32  1  0
 32 24  1  0
 33 34  1  0
 35 33  2  0
M  END
$$$$
