YLW.pdb
     RDKit          3D

 35 37  0  0  1  0  0  0  0  0999 V2000
   24.6313  -29.6197  -18.0121 O   0  0  0  0  0  0  0  0  0  0  0  0
   24.9916  -28.4724  -17.3063 C   0  0  0  0  0  0  0  0  0  0  0  0
   26.3443  -28.1288  -17.2531 C   0  0  0  0  0  0  0  0  0  0  0  0
   26.6731  -27.0001  -16.5548 C   0  0  0  0  0  0  0  0  0  0  0  0
   25.7542  -26.2035  -15.9152 C   0  0  0  0  0  0  0  0  0  0  0  0
   26.1829  -24.9900  -15.1651 C   0  0  0  0  0  0  0  0  0  0  0  0
   25.8356  -23.7823  -15.9687 C   0  0  2  0  0  0  0  0  0  0  0  0
   26.6852  -23.6630  -17.1515 N   0  0  0  0  0  0  0  0  0  0  0  0
   25.9497  -22.5332  -15.1995 C   0  0  0  0  0  0  0  0  0  0  0  0
   27.0487  -21.9178  -15.0851 O   0  0  0  0  0  0  0  0  0  0  0  0
   24.4159  -26.5441  -15.9689 C   0  0  0  0  0  0  0  0  0  0  0  0
   24.0452  -27.6915  -16.6749 C   0  0  0  0  0  0  0  0  0  0  0  0
   23.4478  -17.6502  -15.3674 C   0  0  0  0  0  0  0  0  0  0  0  0
   24.5620  -18.6954  -15.1522 C   0  0  2  0  0  0  0  0  0  0  0  0
   24.8882  -19.2638  -16.5203 C   0  0  0  0  0  0  0  0  0  0  0  0
   23.9733  -19.7061  -14.2115 C   0  0  0  0  0  0  0  0  0  0  0  0
   24.8629  -20.8134  -13.7961 C   0  0  2  0  0  0  0  0  0  0  0  0
   24.7665  -22.0111  -14.5722 N   0  0  0  0  0  0  0  0  0  0  0  0
   24.7323  -21.1334  -12.3377 C   0  0  0  0  0  0  0  0  0  0  0  0
   23.7563  -21.8113  -11.9551 O   0  0  0  0  0  0  0  0  0  0  0  0
   25.6870  -20.6815  -11.4000 N   0  0  0  0  0  0  0  0  0  0  0  0
   25.5626  -20.9065   -9.9715 C   0  0  1  0  0  0  0  0  0  0  0  0
   26.7758  -20.4480   -9.2186 C   0  0  0  0  0  0  0  0  0  0  0  0
   26.6732  -20.6968   -7.7655 C   0  0  0  0  0  0  0  0  0  0  0  0
   25.8853  -21.5853   -7.0714 C   0  0  0  0  0  0  0  0  0  0  0  0
   26.1255  -21.4654   -5.7389 N   0  0  0  0  0  0  0  0  0  0  0  0
   27.0472  -20.5239   -5.5443 C   0  0  0  0  0  0  0  0  0  0  0  0
   27.6385  -20.0145   -4.4210 C   0  0  0  0  0  0  0  0  0  0  0  0
   28.5900  -19.0046   -4.5484 C   0  0  0  0  0  0  0  0  0  0  0  0
   28.9384  -18.5190   -5.7927 C   0  0  0  0  0  0  0  0  0  0  0  0
   28.3461  -19.0302   -6.9232 C   0  0  0  0  0  0  0  0  0  0  0  0
   27.3993  -20.0353   -6.7821 C   0  0  0  0  0  0  0  0  0  0  0  0
   24.3776  -20.2139   -9.4203 C   0  0  0  0  0  0  0  0  0  0  0  0
   23.6366  -20.8409   -8.4460 O   0  0  0  0  0  0  0  0  0  0  0  0
   24.0754  -19.0880   -9.8432 O   0  0  0  0  0  0  0  0  0  0  0  0
  2  1  1  0
  3  2  2  0
  4  3  1  0
  5  4  2  0
  5 11  1  0
  6  5  1  0
  7  6  1  0
  7  8  1  6
  9 18  1  0
  9  7  1  0
 10  9  2  0
 11 12  2  0
 12  2  1  0
 14 13  1  6
 14 16  1  0
 15 14  1  0
 17 16  1  6
 17 18  1  0
 17 19  1  0
 19 21  1  0
 19 20  2  0
 21 22  1  0
 22 23  1  1
 22 33  1  0
 24 23  1  0
 25 24  2  0
 26 25  1  0
 27 26  1  0
 27 32  2  0
 28 27  1  0
 29 28  2  0
 29 30  1  0
 30 31  2  0
 31 32  1  0
 32 24  1  0
 33 34  1  0
 35 33  2  0
M  END
$$$$
