YLW.pdb
     RDKit          3D

 35 37  0  0  1  0  0  0  0  0999 V2000
   19.5979  -16.1824  -16.3204 O   0  0  0  0  0  0  0  0  0  0  0  0
   20.5367  -17.1516  -15.9686 C   0  0  0  0  0  0  0  0  0  0  0  0
   21.8728  -16.9296  -16.3095 C   0  0  0  0  0  0  0  0  0  0  0  0
   22.7746  -17.8942  -15.9546 C   0  0  0  0  0  0  0  0  0  0  0  0
   22.4356  -19.0491  -15.2917 C   0  0  0  0  0  0  0  0  0  0  0  0
   23.4693  -20.0629  -14.9416 C   0  0  0  0  0  0  0  0  0  0  0  0
   23.9582  -19.7910  -13.5589 C   0  0  2  0  0  0  0  0  0  0  0  0
   24.5657  -18.4660  -13.4560 N   0  0  0  0  0  0  0  0  0  0  0  0
   24.9450  -20.7803  -13.0979 C   0  0  0  0  0  0  0  0  0  0  0  0
   24.7543  -22.0239  -13.2278 O   0  0  0  0  0  0  0  0  0  0  0  0
   21.1134  -19.2676  -14.9544 C   0  0  0  0  0  0  0  0  0  0  0  0
   20.1657  -18.3013  -15.3018 C   0  0  0  0  0  0  0  0  0  0  0  0
   30.4639  -19.7953  -11.8639 C   0  0  0  0  0  0  0  0  0  0  0  0
   29.4924  -20.8439  -11.2835 C   0  0  2  0  0  0  0  0  0  0  0  0
   30.3279  -22.0649  -10.9485 C   0  0  0  0  0  0  0  0  0  0  0  0
   28.4872  -21.0893  -12.3709 C   0  0  0  0  0  0  0  0  0  0  0  0
   27.0794  -21.2442  -11.9415 C   0  0  2  0  0  0  0  0  0  0  0  0
   26.1558  -20.2999  -12.4904 N   0  0  0  0  0  0  0  0  0  0  0  0
   26.9402  -21.2927  -10.4499 C   0  0  0  0  0  0  0  0  0  0  0  0
   27.7224  -22.0127   -9.7954 O   0  0  0  0  0  0  0  0  0  0  0  0
   25.9454  -20.5449   -9.7822 N   0  0  0  0  0  0  0  0  0  0  0  0
   25.3893  -20.9341   -8.4992 C   0  0  1  0  0  0  0  0  0  0  0  0
   25.4265  -19.8138   -7.5029 C   0  0  0  0  0  0  0  0  0  0  0  0
   26.8035  -19.4176   -7.1412 C   0  0  0  0  0  0  0  0  0  0  0  0
   27.6031  -18.4221   -7.6525 C   0  0  0  0  0  0  0  0  0  0  0  0
   28.8017  -18.4235   -7.0113 N   0  0  0  0  0  0  0  0  0  0  0  0
   28.8066  -19.3917   -6.0967 C   0  0  0  0  0  0  0  0  0  0  0  0
   29.7426  -19.8204   -5.1962 C   0  0  0  0  0  0  0  0  0  0  0  0
   29.4416  -20.8900   -4.3554 C   0  0  0  0  0  0  0  0  0  0  0  0
   28.2126  -21.5147   -4.4240 C   0  0  0  0  0  0  0  0  0  0  0  0
   27.2698  -21.0848   -5.3276 C   0  0  0  0  0  0  0  0  0  0  0  0
   27.5828  -20.0189   -6.1598 C   0  0  0  0  0  0  0  0  0  0  0  0
   23.9902  -21.3935   -8.6378 C   0  0  0  0  0  0  0  0  0  0  0  0
   23.3847  -21.3132   -9.8700 O   0  0  0  0  0  0  0  0  0  0  0  0
   23.3920  -21.8401   -7.6475 O   0  0  0  0  0  0  0  0  0  0  0  0
  2  1  1  0
  3  2  2  0
  4  3  1  0
  5  4  2  0
  5 11  1  0
  6  5  1  0
  7  6  1  0
  7  8  1  6
  9 18  1  0
  9  7  1  0
 10  9  2  0
 11 12  2  0
 12  2  1  0
 14 13  1  6
 14 16  1  0
 15 14  1  0
 17 16  1  1
 17 18  1  0
 17 19  1  0
 19 21  1  0
 19 20  2  0
 21 22  1  0
 22 23  1  1
 22 33  1  0
 24 23  1  0
 25 24  2  0
 26 25  1  0
 27 26  1  0
 27 32  2  0
 28 27  1  0
 29 28  2  0
 29 30  1  0
 30 31  2  0
 31 32  1  0
 32 24  1  0
 33 34  1  0
 35 33  2  0
M  END
$$$$
