YLW.pdb
     RDKit          3D

 35 37  0  0  1  0  0  0  0  0999 V2000
   28.7449  -30.7038  -26.5109 O   0  0  0  0  0  0  0  0  0  0  0  0
   28.7182  -30.2173  -25.2045 C   0  0  0  0  0  0  0  0  0  0  0  0
   29.7693  -29.3993  -24.7841 C   0  0  0  0  0  0  0  0  0  0  0  0
   29.7214  -28.9350  -23.4988 C   0  0  0  0  0  0  0  0  0  0  0  0
   28.7085  -29.2294  -22.6183 C   0  0  0  0  0  0  0  0  0  0  0  0
   28.7229  -28.6950  -21.2278 C   0  0  0  0  0  0  0  0  0  0  0  0
   30.1335  -28.4020  -20.8417 C   0  0  2  0  0  0  0  0  0  0  0  0
   30.9127  -29.6285  -20.6868 N   0  0  0  0  0  0  0  0  0  0  0  0
   30.2348  -27.6381  -19.5882 C   0  0  0  0  0  0  0  0  0  0  0  0
   29.3694  -27.7415  -18.6717 O   0  0  0  0  0  0  0  0  0  0  0  0
   27.6687  -30.0385  -23.0354 C   0  0  0  0  0  0  0  0  0  0  0  0
   27.6862  -30.5297  -24.3434 C   0  0  0  0  0  0  0  0  0  0  0  0
   34.3449  -24.5084  -16.2953 C   0  0  0  0  0  0  0  0  0  0  0  0
   32.8411  -24.7836  -16.5032 C   0  0  2  0  0  0  0  0  0  0  0  0
   32.3534  -25.4780  -15.2458 C   0  0  0  0  0  0  0  0  0  0  0  0
   32.7678  -25.6478  -17.7282 C   0  0  0  0  0  0  0  0  0  0  0  0
   31.4140  -25.9186  -18.2611 C   0  0  2  0  0  0  0  0  0  0  0  0
   31.3590  -26.7589  -19.4174 N   0  0  0  0  0  0  0  0  0  0  0  0
   30.6335  -24.6617  -18.5010 C   0  0  0  0  0  0  0  0  0  0  0  0
   30.9676  -23.9166  -19.4453 O   0  0  0  0  0  0  0  0  0  0  0  0
   29.5386  -24.3113  -17.6805 N   0  0  0  0  0  0  0  0  0  0  0  0
   28.7260  -23.1299  -17.9057 C   0  0  1  0  0  0  0  0  0  0  0  0
   27.3331  -23.4757  -18.3408 C   0  0  0  0  0  0  0  0  0  0  0  0
   26.6575  -24.4018  -17.4082 C   0  0  0  0  0  0  0  0  0  0  0  0
   26.4367  -24.2931  -16.0549 C   0  0  0  0  0  0  0  0  0  0  0  0
   25.7710  -25.3917  -15.6104 N   0  0  0  0  0  0  0  0  0  0  0  0
   25.5518  -26.2138  -16.6350 C   0  0  0  0  0  0  0  0  0  0  0  0
   24.9388  -27.4321  -16.7398 C   0  0  0  0  0  0  0  0  0  0  0  0
   24.8716  -28.0581  -17.9827 C   0  0  0  0  0  0  0  0  0  0  0  0
   25.4148  -27.4601  -19.1020 C   0  0  0  0  0  0  0  0  0  0  0  0
   26.0305  -26.2351  -18.9994 C   0  0  0  0  0  0  0  0  0  0  0  0
   26.0913  -25.6228  -17.7552 C   0  0  0  0  0  0  0  0  0  0  0  0
   28.6443  -22.2944  -16.6879 C   0  0  0  0  0  0  0  0  0  0  0  0
   29.0788  -22.8192  -15.4932 O   0  0  0  0  0  0  0  0  0  0  0  0
   28.1890  -21.1435  -16.7651 O   0  0  0  0  0  0  0  0  0  0  0  0
  2  1  1  0
  3  2  2  0
  4  3  1  0
  5  4  2  0
  5 11  1  0
  6  5  1  0
  7  6  1  0
  7  8  1  1
  9 18  1  0
  9  7  1  0
 10  9  2  0
 11 12  2  0
 12  2  1  0
 14 13  1  1
 14 16  1  0
 15 14  1  0
 17 16  1  6
 17 18  1  0
 17 19  1  0
 19 21  1  0
 19 20  2  0
 21 22  1  0
 22 23  1  1
 22 33  1  0
 24 23  1  0
 25 24  2  0
 26 25  1  0
 27 26  1  0
 27 32  2  0
 28 27  1  0
 29 28  2  0
 29 30  1  0
 30 31  2  0
 31 32  1  0
 32 24  1  0
 33 34  1  0
 35 33  2  0
M  END
$$$$
