YLW.pdb
     RDKit          3D

 35 37  0  0  1  0  0  0  0  0999 V2000
   27.7437  -15.7310  -20.6604 O   0  0  0  0  0  0  0  0  0  0  0  0
   27.3184  -16.5176  -19.5905 C   0  0  0  0  0  0  0  0  0  0  0  0
   26.5981  -17.6805  -19.8727 C   0  0  0  0  0  0  0  0  0  0  0  0
   26.1914  -18.4350  -18.8073 C   0  0  0  0  0  0  0  0  0  0  0  0
   26.4522  -18.1099  -17.4980 C   0  0  0  0  0  0  0  0  0  0  0  0
   25.9723  -18.9746  -16.3839 C   0  0  0  0  0  0  0  0  0  0  0  0
   26.9765  -20.0516  -16.1465 C   0  0  2  0  0  0  0  0  0  0  0  0
   27.0438  -20.9796  -17.2733 N   0  0  0  0  0  0  0  0  0  0  0  0
   26.6987  -20.8325  -14.9308 C   0  0  0  0  0  0  0  0  0  0  0  0
   25.8767  -21.7938  -14.9282 O   0  0  0  0  0  0  0  0  0  0  0  0
   27.1654  -16.9594  -17.2199 C   0  0  0  0  0  0  0  0  0  0  0  0
   27.5968  -16.1654  -18.2857 C   0  0  0  0  0  0  0  0  0  0  0  0
   29.9968  -20.3397  -13.0093 C   0  0  0  0  0  0  0  0  0  0  0  0
   29.3926  -20.5081  -11.5997 C   0  0  2  0  0  0  0  0  0  0  0  0
   30.5395  -20.8905  -10.6834 C   0  0  0  0  0  0  0  0  0  0  0  0
   28.3593  -21.5872  -11.7440 C   0  0  0  0  0  0  0  0  0  0  0  0
   27.1581  -21.2447  -12.5376 C   0  0  2  0  0  0  0  0  0  0  0  0
   27.3951  -20.4809  -13.7236 N   0  0  0  0  0  0  0  0  0  0  0  0
   26.0942  -20.5910  -11.7086 C   0  0  0  0  0  0  0  0  0  0  0  0
   26.1756  -19.3662  -11.4815 O   0  0  0  0  0  0  0  0  0  0  0  0
   25.0136  -21.3344  -11.1845 N   0  0  0  0  0  0  0  0  0  0  0  0
   23.9996  -20.7570  -10.3213 C   0  0  1  0  0  0  0  0  0  0  0  0
   22.6148  -21.1753  -10.7166 C   0  0  0  0  0  0  0  0  0  0  0  0
   22.2091  -20.6353  -12.0310 C   0  0  0  0  0  0  0  0  0  0  0  0
   22.4842  -21.0899  -13.2997 C   0  0  0  0  0  0  0  0  0  0  0  0
   21.9000  -20.2723  -14.2152 N   0  0  0  0  0  0  0  0  0  0  0  0
   21.2522  -19.2975  -13.5797 C   0  0  0  0  0  0  0  0  0  0  0  0
   20.5139  -18.2306  -14.0126 C   0  0  0  0  0  0  0  0  0  0  0  0
   19.9531  -17.3636  -13.0771 C   0  0  0  0  0  0  0  0  0  0  0  0
   20.1355  -17.5738  -11.7250 C   0  0  0  0  0  0  0  0  0  0  0  0
   20.8763  -18.6461  -11.2875 C   0  0  0  0  0  0  0  0  0  0  0  0
   21.4300  -19.5016  -12.2300 C   0  0  0  0  0  0  0  0  0  0  0  0
   24.2193  -21.1345   -8.9081 C   0  0  0  0  0  0  0  0  0  0  0  0
   23.4337  -20.5578   -7.9377 O   0  0  0  0  0  0  0  0  0  0  0  0
   25.1015  -21.9588   -8.6253 O   0  0  0  0  0  0  0  0  0  0  0  0
  2  1  1  0
  3  2  2  0
  4  3  1  0
  5  4  2  0
  5 11  1  0
  6  5  1  0
  7  6  1  0
  7  8  1  6
  9 18  1  0
  9  7  1  0
 10  9  2  0
 11 12  2  0
 12  2  1  0
 14 13  1  6
 14 16  1  0
 15 14  1  0
 17 16  1  1
 17 18  1  0
 17 19  1  0
 19 21  1  0
 19 20  2  0
 21 22  1  0
 22 23  1  6
 22 33  1  0
 24 23  1  0
 25 24  2  0
 26 25  1  0
 27 26  1  0
 27 32  2  0
 28 27  1  0
 29 28  2  0
 29 30  1  0
 30 31  2  0
 31 32  1  0
 32 24  1  0
 33 34  1  0
 35 33  2  0
M  END
$$$$
