CGG.pdb
     RDKit          3D

 15 14  0  0  1  0  0  0  0  0999 V2000
   27.3313  -21.2065  -11.6023 N   0  0  0  0  0  0  0  0  0  0  0  0
   25.9766  -21.3190  -11.1622 C   0  0  1  0  0  0  0  0  0  0  0  0
   25.7907  -20.5795   -9.8539 C   0  0  0  0  0  0  0  0  0  0  0  0
   26.9087  -21.1891   -8.5939 S   0  0  0  0  0  0  0  0  0  0  0  0
   25.0519  -20.6760  -12.1460 C   0  0  0  0  0  0  0  0  0  0  0  0
   25.1390  -19.4364  -12.3405 O   0  0  0  0  0  0  0  0  0  0  0  0
   24.0897  -21.4499  -12.8509 N   0  0  0  0  0  0  0  0  0  0  0  0
   23.1861  -20.8251  -13.7971 C   0  0  0  0  0  0  0  0  0  0  0  0
   21.7966  -21.1940  -13.5076 C   0  0  0  0  0  0  0  0  0  0  0  0
   21.5560  -22.0784  -12.6593 O   0  0  0  0  0  0  0  0  0  0  0  0
   20.7132  -20.5688  -14.1699 N   0  0  0  0  0  0  0  0  0  0  0  0
   19.4481  -21.2627  -14.2441 C   0  0  0  0  0  0  0  0  0  0  0  0
   18.3854  -20.4261  -13.6239 C   0  0  0  0  0  0  0  0  0  0  0  0
   18.4373  -20.1878  -12.2768 O   0  0  0  0  0  0  0  0  0  0  0  0
   17.4705  -19.9550  -14.3197 O   0  0  0  0  0  0  0  0  0  0  0  0
  2  1  1  6
  2  3  1  0
  3  4  1  0
  5  2  1  0
  6  5  2  0
  7  5  1  0
  8  7  1  0
  9 11  1  0
  9  8  1  0
 10  9  2  0
 12 13  1  0
 12 11  1  0
 13 14  1  0
 15 13  2  0
M  END
$$$$
