CGG.pdb
     RDKit          3D

 15 14  0  0  1  0  0  0  0  0999 V2000
   27.0370  -11.7457  -15.3391 N   0  0  0  0  0  0  0  0  0  0  0  0
   26.6843  -11.1025  -16.5652 C   0  0  1  0  0  0  0  0  0  0  0  0
   27.6877  -11.4518  -17.6442 C   0  0  0  0  0  0  0  0  0  0  0  0
   29.3408  -10.9295  -17.1933 S   0  0  0  0  0  0  0  0  0  0  0  0
   25.3564  -11.5913  -17.0491 C   0  0  0  0  0  0  0  0  0  0  0  0
   25.0275  -12.7833  -16.8191 O   0  0  0  0  0  0  0  0  0  0  0  0
   24.4784  -10.7257  -17.7574 N   0  0  0  0  0  0  0  0  0  0  0  0
   23.1456  -11.1621  -18.1251 C   0  0  0  0  0  0  0  0  0  0  0  0
   22.1413  -10.1897  -17.6818 C   0  0  0  0  0  0  0  0  0  0  0  0
   20.9675  -10.2801  -18.0987 O   0  0  0  0  0  0  0  0  0  0  0  0
   22.4707   -9.1436  -16.7871 N   0  0  0  0  0  0  0  0  0  0  0  0
   21.4486   -8.1883  -16.4259 C   0  0  0  0  0  0  0  0  0  0  0  0
   21.9921   -7.2357  -15.4203 C   0  0  0  0  0  0  0  0  0  0  0  0
   21.6015   -7.3628  -14.1145 O   0  0  0  0  0  0  0  0  0  0  0  0
   22.7852   -6.3437  -15.7644 O   0  0  0  0  0  0  0  0  0  0  0  0
  2  1  1  1
  2  3  1  0
  3  4  1  0
  5  2  1  0
  6  5  2  0
  7  5  1  0
  8  7  1  0
  9 11  1  0
  9  8  1  0
 10  9  2  0
 12 13  1  0
 12 11  1  0
 13 14  1  0
 15 13  2  0
M  END
$$$$
