CGG.pdb
     RDKit          3D

 15 14  0  0  1  0  0  0  0  0999 V2000
   16.0219  -10.8220  -15.2399 N   0  0  0  0  0  0  0  0  0  0  0  0
   17.3400  -11.3657  -15.1481 C   0  0  1  0  0  0  0  0  0  0  0  0
   17.5353  -12.4388  -16.1985 C   0  0  0  0  0  0  0  0  0  0  0  0
   16.9206  -14.0244  -15.6354 S   0  0  0  0  0  0  0  0  0  0  0  0
   18.3619  -10.3102  -15.4275 C   0  0  0  0  0  0  0  0  0  0  0  0
   18.0968   -9.4169  -16.2723 O   0  0  0  0  0  0  0  0  0  0  0  0
   19.6127  -10.3136  -14.7513 N   0  0  0  0  0  0  0  0  0  0  0  0
   20.6642   -9.3920  -15.1346 C   0  0  0  0  0  0  0  0  0  0  0  0
   20.7498   -8.2791  -14.1834 C   0  0  0  0  0  0  0  0  0  0  0  0
   20.1333   -8.3442  -13.0992 O   0  0  0  0  0  0  0  0  0  0  0  0
   21.5189   -7.1247  -14.4646 N   0  0  0  0  0  0  0  0  0  0  0  0
   21.6045   -6.0843  -13.4656 C   0  0  0  0  0  0  0  0  0  0  0  0
   22.3799   -4.9365  -14.0089 C   0  0  0  0  0  0  0  0  0  0  0  0
   22.5544   -3.8290  -13.2234 O   0  0  0  0  0  0  0  0  0  0  0  0
   22.8581   -4.9872  -15.1543 O   0  0  0  0  0  0  0  0  0  0  0  0
  2  1  1  6
  2  3  1  0
  3  4  1  0
  5  2  1  0
  6  5  2  0
  7  5  1  0
  8  7  1  0
  9 11  1  0
  9  8  1  0
 10  9  2  0
 12 13  1  0
 12 11  1  0
 13 14  1  0
 15 13  2  0
M  END
$$$$
