CGG.pdb
     RDKit          3D

 15 14  0  0  1  0  0  0  0  0999 V2000
   24.3739  -12.2180  -15.1251 N   0  0  0  0  0  0  0  0  0  0  0  0
   23.3920  -11.3981  -15.7614 C   0  0  1  0  0  0  0  0  0  0  0  0
   22.0800  -12.1464  -15.8709 C   0  0  0  0  0  0  0  0  0  0  0  0
   22.3257  -13.8093  -16.4899 S   0  0  0  0  0  0  0  0  0  0  0  0
   23.1158  -10.1795  -14.9397 C   0  0  0  0  0  0  0  0  0  0  0  0
   23.2219  -10.2540  -13.6886 O   0  0  0  0  0  0  0  0  0  0  0  0
   22.7396   -8.9562  -15.5590 N   0  0  0  0  0  0  0  0  0  0  0  0
   22.6039   -7.7420  -14.7784 C   0  0  0  0  0  0  0  0  0  0  0  0
   22.1068   -6.6428  -15.6123 C   0  0  0  0  0  0  0  0  0  0  0  0
   22.6379   -6.4188  -16.7202 O   0  0  0  0  0  0  0  0  0  0  0  0
   21.0326   -5.8234  -15.1905 N   0  0  0  0  0  0  0  0  0  0  0  0
   20.5594   -4.7846  -16.0764 C   0  0  0  0  0  0  0  0  0  0  0  0
   19.4448   -4.0454  -15.4244 C   0  0  0  0  0  0  0  0  0  0  0  0
   18.8847   -2.9839  -16.0829 O   0  0  0  0  0  0  0  0  0  0  0  0
   19.0338   -4.3889  -14.3036 O   0  0  0  0  0  0  0  0  0  0  0  0
  2  1  1  1
  2  3  1  0
  3  4  1  0
  5  2  1  0
  6  5  2  0
  7  5  1  0
  8  7  1  0
  9 11  1  0
  9  8  1  0
 10  9  2  0
 12 13  1  0
 12 11  1  0
 13 14  1  0
 15 13  2  0
M  END
$$$$
