CGG.pdb
     RDKit          3D

 15 14  0  0  1  0  0  0  0  0999 V2000
   19.6880  -13.6646  -17.7527 N   0  0  0  0  0  0  0  0  0  0  0  0
   20.8962  -12.9050  -17.6862 C   0  0  1  0  0  0  0  0  0  0  0  0
   21.7396  -13.1587  -18.9181 C   0  0  0  0  0  0  0  0  0  0  0  0
   22.2406  -14.8753  -19.0250 S   0  0  0  0  0  0  0  0  0  0  0  0
   20.5936  -11.4406  -17.6759 C   0  0  0  0  0  0  0  0  0  0  0  0
   19.5700  -11.0279  -18.2791 O   0  0  0  0  0  0  0  0  0  0  0  0
   21.4463  -10.5278  -16.9967 N   0  0  0  0  0  0  0  0  0  0  0  0
   21.1223   -9.1159  -16.9372 C   0  0  0  0  0  0  0  0  0  0  0  0
   21.2082   -8.6222  -15.5589 C   0  0  0  0  0  0  0  0  0  0  0  0
   20.8916   -9.3734  -14.6127 O   0  0  0  0  0  0  0  0  0  0  0  0
   21.6440   -7.3067  -15.2714 N   0  0  0  0  0  0  0  0  0  0  0  0
   21.8145   -6.9154  -13.8910 C   0  0  0  0  0  0  0  0  0  0  0  0
   22.3394   -5.5245  -13.8301 C   0  0  0  0  0  0  0  0  0  0  0  0
   22.5901   -4.9683  -12.6046 O   0  0  0  0  0  0  0  0  0  0  0  0
   22.5447   -4.8841  -14.8746 O   0  0  0  0  0  0  0  0  0  0  0  0
  2  1  1  6
  2  3  1  0
  3  4  1  0
  5  2  1  0
  6  5  2  0
  7  5  1  0
  8  7  1  0
  9 11  1  0
  9  8  1  0
 10  9  2  0
 12 13  1  0
 12 11  1  0
 13 14  1  0
 15 13  2  0
M  END
$$$$
