CGG.pdb
     RDKit          3D

 15 14  0  0  1  0  0  0  0  0999 V2000
   28.3785  -22.1852  -10.5000 N   0  0  0  0  0  0  0  0  0  0  0  0
   29.2815  -21.1340  -10.8478 C   0  0  1  0  0  0  0  0  0  0  0  0
   30.6661  -21.6963  -11.0928 C   0  0  0  0  0  0  0  0  0  0  0  0
   31.3688  -22.3796   -9.5934 S   0  0  0  0  0  0  0  0  0  0  0  0
   28.8583  -20.4821  -12.1253 C   0  0  0  0  0  0  0  0  0  0  0  0
   29.4555  -19.4415  -12.5029 O   0  0  0  0  0  0  0  0  0  0  0  0
   27.7993  -21.0267  -12.9023 N   0  0  0  0  0  0  0  0  0  0  0  0
   26.8471  -20.1592  -13.5677 C   0  0  0  0  0  0  0  0  0  0  0  0
   25.5406  -20.2184  -12.9042 C   0  0  0  0  0  0  0  0  0  0  0  0
   25.1581  -19.2562  -12.2059 O   0  0  0  0  0  0  0  0  0  0  0  0
   24.6958  -21.3464  -13.0358 N   0  0  0  0  0  0  0  0  0  0  0  0
   23.4116  -21.3359  -12.3738 C   0  0  0  0  0  0  0  0  0  0  0  0
   22.3339  -21.1513  -13.3830 C   0  0  0  0  0  0  0  0  0  0  0  0
   21.0321  -21.1312  -12.9600 O   0  0  0  0  0  0  0  0  0  0  0  0
   22.6154  -21.0183  -14.5856 O   0  0  0  0  0  0  0  0  0  0  0  0
  2  1  1  6
  2  3  1  0
  3  4  1  0
  5  2  1  0
  6  5  2  0
  7  5  1  0
  8  7  1  0
  9 11  1  0
  9  8  1  0
 10  9  2  0
 12 13  1  0
 12 11  1  0
 13 14  1  0
 15 13  2  0
M  END
$$$$
