CGG.pdb
     RDKit          3D

 15 14  0  0  1  0  0  0  0  0999 V2000
   23.0123  -12.7918  -17.5590 N   0  0  0  0  0  0  0  0  0  0  0  0
   23.7548  -11.6982  -17.0165 C   0  0  1  0  0  0  0  0  0  0  0  0
   25.2383  -11.9964  -17.0735 C   0  0  0  0  0  0  0  0  0  0  0  0
   25.6447  -13.4720  -16.1426 S   0  0  0  0  0  0  0  0  0  0  0  0
   23.5404  -10.4641  -17.8333 C   0  0  0  0  0  0  0  0  0  0  0  0
   23.3320  -10.5818  -19.0681 O   0  0  0  0  0  0  0  0  0  0  0  0
   23.5710   -9.1781  -17.2275 N   0  0  0  0  0  0  0  0  0  0  0  0
   23.2446   -7.9909  -17.9930 C   0  0  0  0  0  0  0  0  0  0  0  0
   23.2515   -6.8024  -17.1339 C   0  0  0  0  0  0  0  0  0  0  0  0
   23.0283   -5.6789  -17.6317 O   0  0  0  0  0  0  0  0  0  0  0  0
   23.5066   -6.8965  -15.7449 N   0  0  0  0  0  0  0  0  0  0  0  0
   23.4884   -5.6902  -14.9500 C   0  0  0  0  0  0  0  0  0  0  0  0
   22.1438   -5.5198  -14.3362 C   0  0  0  0  0  0  0  0  0  0  0  0
   21.0949   -6.2429  -14.8373 O   0  0  0  0  0  0  0  0  0  0  0  0
   21.9812   -4.7351  -13.3871 O   0  0  0  0  0  0  0  0  0  0  0  0
  2  1  1  6
  2  3  1  0
  3  4  1  0
  5  2  1  0
  6  5  2  0
  7  5  1  0
  8  7  1  0
  9 11  1  0
  9  8  1  0
 10  9  2  0
 12 13  1  0
 12 11  1  0
 13 14  1  0
 15 13  2  0
M  END
$$$$
