CGG.pdb
     RDKit          3D

 15 14  0  0  1  0  0  0  0  0999 V2000
   22.0641  -11.6980  -16.4292 N   0  0  0  0  0  0  0  0  0  0  0  0
   23.3260  -11.4489  -15.8072 C   0  0  1  0  0  0  0  0  0  0  0  0
   24.1513  -12.7182  -15.7765 C   0  0  0  0  0  0  0  0  0  0  0  0
   23.5046  -13.8897  -14.5856 S   0  0  0  0  0  0  0  0  0  0  0  0
   24.1120  -10.4531  -16.5989 C   0  0  0  0  0  0  0  0  0  0  0  0
   24.0534  -10.4934  -17.8546 O   0  0  0  0  0  0  0  0  0  0  0  0
   24.9129   -9.4761  -15.9462 N   0  0  0  0  0  0  0  0  0  0  0  0
   25.6054   -8.4563  -16.7093 C   0  0  0  0  0  0  0  0  0  0  0  0
   24.8421   -7.2041  -16.7128 C   0  0  0  0  0  0  0  0  0  0  0  0
   25.1386   -6.3019  -17.5238 O   0  0  0  0  0  0  0  0  0  0  0  0
   23.7699   -6.9902  -15.8138 N   0  0  0  0  0  0  0  0  0  0  0  0
   22.9282   -5.8302  -15.9969 C   0  0  0  0  0  0  0  0  0  0  0  0
   21.8465   -5.8351  -14.9753 C   0  0  0  0  0  0  0  0  0  0  0  0
   21.9872   -5.0489  -13.8635 O   0  0  0  0  0  0  0  0  0  0  0  0
   20.8366   -6.5412  -15.1329 O   0  0  0  0  0  0  0  0  0  0  0  0
  2  1  1  6
  2  3  1  0
  3  4  1  0
  5  2  1  0
  6  5  2  0
  7  5  1  0
  8  7  1  0
  9 11  1  0
  9  8  1  0
 10  9  2  0
 12 13  1  0
 12 11  1  0
 13 14  1  0
 15 13  2  0
M  END
$$$$
