CGG.pdb
     RDKit          3D

 15 14  0  0  1  0  0  0  0  0999 V2000
   15.9173   -9.4415  -15.7144 N   0  0  0  0  0  0  0  0  0  0  0  0
   16.7286   -8.3509  -15.2744 C   0  0  1  0  0  0  0  0  0  0  0  0
   16.0678   -7.6476  -14.1074 C   0  0  0  0  0  0  0  0  0  0  0  0
   14.4222   -7.0814  -14.5322 S   0  0  0  0  0  0  0  0  0  0  0  0
   18.0479   -8.8481  -14.7757 C   0  0  0  0  0  0  0  0  0  0  0  0
   18.2091  -10.0851  -14.6149 O   0  0  0  0  0  0  0  0  0  0  0  0
   19.1039   -7.9407  -14.4874 N   0  0  0  0  0  0  0  0  0  0  0  0
   20.4755   -8.4030  -14.4043 C   0  0  0  0  0  0  0  0  0  0  0  0
   21.3804   -7.2889  -14.1031 C   0  0  0  0  0  0  0  0  0  0  0  0
   22.6016   -7.5065  -13.9588 O   0  0  0  0  0  0  0  0  0  0  0  0
   20.9015   -5.9635  -13.9708 N   0  0  0  0  0  0  0  0  0  0  0  0
   21.8440   -4.9083  -13.6779 C   0  0  0  0  0  0  0  0  0  0  0  0
   21.1370   -3.5991  -13.6687 C   0  0  0  0  0  0  0  0  0  0  0  0
   21.8189   -2.4854  -13.2583 O   0  0  0  0  0  0  0  0  0  0  0  0
   19.9501   -3.5235  -14.0277 O   0  0  0  0  0  0  0  0  0  0  0  0
  2  1  1  1
  2  3  1  0
  3  4  1  0
  5  2  1  0
  6  5  2  0
  7  5  1  0
  8  7  1  0
  9 11  1  0
  9  8  1  0
 10  9  2  0
 12 13  1  0
 12 11  1  0
 13 14  1  0
 15 13  2  0
M  END
$$$$
