CGG.pdb
     RDKit          3D

 15 14  0  0  1  0  0  0  0  0999 V2000
   19.0570  -13.9349  -18.0621 N   0  0  0  0  0  0  0  0  0  0  0  0
   18.9939  -13.1465  -16.8723 C   0  0  1  0  0  0  0  0  0  0  0  0
   19.1928  -14.0242  -15.6544 C   0  0  0  0  0  0  0  0  0  0  0  0
   17.6872  -14.8932  -15.2221 S   0  0  0  0  0  0  0  0  0  0  0  0
   20.0997  -12.1399  -16.8525 C   0  0  0  0  0  0  0  0  0  0  0  0
   21.1571  -12.3869  -17.4872 O   0  0  0  0  0  0  0  0  0  0  0  0
   19.9611  -10.9233  -16.1296 N   0  0  0  0  0  0  0  0  0  0  0  0
   20.9843   -9.8987  -16.2013 C   0  0  0  0  0  0  0  0  0  0  0  0
   20.5961   -8.7230  -15.4153 C   0  0  0  0  0  0  0  0  0  0  0  0
   19.4256   -8.6219  -14.9918 O   0  0  0  0  0  0  0  0  0  0  0  0
   21.5209   -7.6923  -15.1223 N   0  0  0  0  0  0  0  0  0  0  0  0
   21.0859   -6.5745  -14.3167 C   0  0  0  0  0  0  0  0  0  0  0  0
   22.1634   -5.5496  -14.2661 C   0  0  0  0  0  0  0  0  0  0  0  0
   23.3516   -5.8119  -14.8935 O   0  0  0  0  0  0  0  0  0  0  0  0
   21.9832   -4.4778  -13.6646 O   0  0  0  0  0  0  0  0  0  0  0  0
  2  1  1  6
  2  3  1  0
  3  4  1  0
  5  2  1  0
  6  5  2  0
  7  5  1  0
  8  7  1  0
  9 11  1  0
  9  8  1  0
 10  9  2  0
 12 13  1  0
 12 11  1  0
 13 14  1  0
 15 13  2  0
M  END
$$$$
