CGG.pdb
     RDKit          3D

 15 14  0  0  1  0  0  0  0  0999 V2000
   19.3706  -11.5688  -16.7574 N   0  0  0  0  0  0  0  0  0  0  0  0
   18.2515  -11.7223  -15.8825 C   0  0  1  0  0  0  0  0  0  0  0  0
   18.5212  -12.8247  -14.8800 C   0  0  0  0  0  0  0  0  0  0  0  0
   18.8822  -14.3774  -15.6972 S   0  0  0  0  0  0  0  0  0  0  0  0
   18.0329  -10.4739  -15.0888 C   0  0  0  0  0  0  0  0  0  0  0  0
   17.2454  -10.5076  -14.1087 O   0  0  0  0  0  0  0  0  0  0  0  0
   18.7024   -9.2678  -15.4336 N   0  0  0  0  0  0  0  0  0  0  0  0
   18.4226   -8.0360  -14.7220 C   0  0  0  0  0  0  0  0  0  0  0  0
   19.6423   -7.5065  -14.1034 C   0  0  0  0  0  0  0  0  0  0  0  0
   20.4400   -8.2873  -13.5432 O   0  0  0  0  0  0  0  0  0  0  0  0
   19.9409   -6.1232  -14.1252 N   0  0  0  0  0  0  0  0  0  0  0  0
   21.1724   -5.6668  -13.5230 C   0  0  0  0  0  0  0  0  0  0  0  0
   22.1713   -5.3834  -14.5887 C   0  0  0  0  0  0  0  0  0  0  0  0
   21.8898   -5.7643  -15.8732 O   0  0  0  0  0  0  0  0  0  0  0  0
   23.2392   -4.8118  -14.3130 O   0  0  0  0  0  0  0  0  0  0  0  0
  2  1  1  6
  2  3  1  0
  3  4  1  0
  5  2  1  0
  6  5  2  0
  7  5  1  0
  8  7  1  0
  9 11  1  0
  9  8  1  0
 10  9  2  0
 12 13  1  0
 12 11  1  0
 13 14  1  0
 15 13  2  0
M  END
$$$$
