CGG.pdb
     RDKit          3D

 15 14  0  0  1  0  0  0  0  0999 V2000
   18.9506  -24.9824  -10.2864 N   0  0  0  0  0  0  0  0  0  0  0  0
   18.0635  -25.0187  -11.4058 C   0  0  1  0  0  0  0  0  0  0  0  0
   17.4926  -23.6399  -11.6632 C   0  0  0  0  0  0  0  0  0  0  0  0
   16.2955  -23.1840  -10.4110 S   0  0  0  0  0  0  0  0  0  0  0  0
   18.8023  -25.4082  -12.6463 C   0  0  0  0  0  0  0  0  0  0  0  0
   18.4810  -24.8723  -13.7379 O   0  0  0  0  0  0  0  0  0  0  0  0
   19.8505  -26.3677  -12.5959 N   0  0  0  0  0  0  0  0  0  0  0  0
   20.5402  -26.7750  -13.8044 C   0  0  0  0  0  0  0  0  0  0  0  0
   21.4744  -27.8700  -13.5237 C   0  0  0  0  0  0  0  0  0  0  0  0
   22.6838  -27.7381  -13.8060 O   0  0  0  0  0  0  0  0  0  0  0  0
   21.0374  -29.0815  -12.9366 N   0  0  0  0  0  0  0  0  0  0  0  0
   22.0076  -30.1210  -12.6800 C   0  0  0  0  0  0  0  0  0  0  0  0
   21.3481  -31.2528  -11.9744 C   0  0  0  0  0  0  0  0  0  0  0  0
   21.2211  -32.4503  -12.6255 O   0  0  0  0  0  0  0  0  0  0  0  0
   20.9224  -31.1088  -10.8163 O   0  0  0  0  0  0  0  0  0  0  0  0
  2  1  1  1
  2  3  1  0
  3  4  1  0
  5  2  1  0
  6  5  2  0
  7  5  1  0
  8  7  1  0
  9 11  1  0
  9  8  1  0
 10  9  2  0
 12 13  1  0
 12 11  1  0
 13 14  1  0
 15 13  2  0
M  END
$$$$
