CGG.pdb
     RDKit          3D

 15 14  0  0  1  0  0  0  0  0999 V2000
   24.7766  -13.1452  -18.1237 N   0  0  0  0  0  0  0  0  0  0  0  0
   25.5507  -13.6180  -17.0198 C   0  0  1  0  0  0  0  0  0  0  0  0
   26.5396  -14.6652  -17.4874 C   0  0  0  0  0  0  0  0  0  0  0  0
   25.7080  -16.0497  -18.2623 S   0  0  0  0  0  0  0  0  0  0  0  0
   26.3595  -12.5053  -16.4334 C   0  0  0  0  0  0  0  0  0  0  0  0
   27.0194  -12.7217  -15.3846 O   0  0  0  0  0  0  0  0  0  0  0  0
   26.3844  -11.2236  -17.0483 N   0  0  0  0  0  0  0  0  0  0  0  0
   27.0914  -10.1191  -16.4300 C   0  0  0  0  0  0  0  0  0  0  0  0
   26.2500   -8.9185  -16.3977 C   0  0  0  0  0  0  0  0  0  0  0  0
   26.7533   -7.8195  -16.0837 O   0  0  0  0  0  0  0  0  0  0  0  0
   24.8719   -8.9737  -16.7157 N   0  0  0  0  0  0  0  0  0  0  0  0
   24.0988   -7.7536  -16.6774 C   0  0  0  0  0  0  0  0  0  0  0  0
   23.0580   -7.8580  -15.6192 C   0  0  0  0  0  0  0  0  0  0  0  0
   22.1421   -6.8482  -15.4946 O   0  0  0  0  0  0  0  0  0  0  0  0
   23.0252   -8.8449  -14.8654 O   0  0  0  0  0  0  0  0  0  0  0  0
  2  1  1  6
  2  3  1  0
  3  4  1  0
  5  2  1  0
  6  5  2  0
  7  5  1  0
  8  7  1  0
  9 11  1  0
  9  8  1  0
 10  9  2  0
 12 13  1  0
 12 11  1  0
 13 14  1  0
 15 13  2  0
M  END
$$$$
