CGG.pdb
     RDKit          3D

 15 14  0  0  1  0  0  0  0  0999 V2000
   26.5978  -12.5307  -18.1234 N   0  0  0  0  0  0  0  0  0  0  0  0
   25.6971  -12.1415  -17.0848 C   0  0  1  0  0  0  0  0  0  0  0  0
   25.9343  -12.9817  -15.8475 C   0  0  0  0  0  0  0  0  0  0  0  0
   25.4496  -14.6859  -16.1119 S   0  0  0  0  0  0  0  0  0  0  0  0
   25.9423  -10.7217  -16.6845 C   0  0  0  0  0  0  0  0  0  0  0  0
   27.1284  -10.3161  -16.5814 O   0  0  0  0  0  0  0  0  0  0  0  0
   24.8554   -9.8427  -16.4243 N   0  0  0  0  0  0  0  0  0  0  0  0
   25.0895   -8.4427  -16.1292 C   0  0  0  0  0  0  0  0  0  0  0  0
   23.8196   -7.7193  -16.0079 C   0  0  0  0  0  0  0  0  0  0  0  0
   22.7432   -8.3255  -16.1919 O   0  0  0  0  0  0  0  0  0  0  0  0
   23.7821   -6.3417  -15.6854 N   0  0  0  0  0  0  0  0  0  0  0  0
   22.5010   -5.6772  -15.6153 C   0  0  0  0  0  0  0  0  0  0  0  0
   21.8526   -5.9847  -14.3119 C   0  0  0  0  0  0  0  0  0  0  0  0
   20.6069   -5.4760  -14.0600 O   0  0  0  0  0  0  0  0  0  0  0  0
   22.4349   -6.6903  -13.4715 O   0  0  0  0  0  0  0  0  0  0  0  0
  2  1  1  6
  2  3  1  0
  3  4  1  0
  5  2  1  0
  6  5  2  0
  7  5  1  0
  8  7  1  0
  9 11  1  0
  9  8  1  0
 10  9  2  0
 12 13  1  0
 12 11  1  0
 13 14  1  0
 15 13  2  0
M  END
$$$$
