CGG.pdb
     RDKit          3D

 15 14  0  0  1  0  0  0  0  0999 V2000
   20.8203  -12.5810  -16.2844 N   0  0  0  0  0  0  0  0  0  0  0  0
   21.6611  -11.5958  -15.6811 C   0  0  1  0  0  0  0  0  0  0  0  0
   23.0571  -11.6755  -16.2625 C   0  0  0  0  0  0  0  0  0  0  0  0
   23.9492  -13.0937  -15.6288 S   0  0  0  0  0  0  0  0  0  0  0  0
   21.1557  -10.2211  -15.9828 C   0  0  0  0  0  0  0  0  0  0  0  0
   20.4898  -10.0361  -17.0336 O   0  0  0  0  0  0  0  0  0  0  0  0
   21.4218   -9.1396  -15.0989 N   0  0  0  0  0  0  0  0  0  0  0  0
   20.8931   -7.8166  -15.3673 C   0  0  0  0  0  0  0  0  0  0  0  0
   21.3445   -6.8619  -14.3497 C   0  0  0  0  0  0  0  0  0  0  0  0
   21.8297   -7.2836  -13.2789 O   0  0  0  0  0  0  0  0  0  0  0  0
   21.2438   -5.4646  -14.5515 N   0  0  0  0  0  0  0  0  0  0  0  0
   21.7588   -4.5752  -13.5359 C   0  0  0  0  0  0  0  0  0  0  0  0
   21.5785   -3.1645  -13.9732 C   0  0  0  0  0  0  0  0  0  0  0  0
   22.0259   -2.1601  -13.1578 O   0  0  0  0  0  0  0  0  0  0  0  0
   21.0317   -2.9082  -15.0588 O   0  0  0  0  0  0  0  0  0  0  0  0
  2  1  1  6
  2  3  1  0
  3  4  1  0
  5  2  1  0
  6  5  2  0
  7  5  1  0
  8  7  1  0
  9 11  1  0
  9  8  1  0
 10  9  2  0
 12 13  1  0
 12 11  1  0
 13 14  1  0
 15 13  2  0
M  END
$$$$
