WIR.pdb
     RDKit          3D

 34 35  0  0  1  0  0  0  0  0999 V2000
   26.4001  -22.7087  -11.1377 N   0  0  0  0  0  0  0  0  0  0  0  0
   25.7310  -21.4256  -10.9595 C   0  0  1  0  0  0  0  0  0  0  0  0
   26.7101  -20.3097  -11.2738 C   0  0  0  0  0  0  0  0  0  0  0  0
   27.8169  -20.4147  -10.2962 C   0  0  0  0  0  0  0  0  0  0  0  0
   29.1054  -20.8357  -10.5288 C   0  0  0  0  0  0  0  0  0  0  0  0
   29.8095  -20.7994   -9.3598 N   0  0  0  0  0  0  0  0  0  0  0  0
   29.0075  -20.3652   -8.3822 C   0  0  0  0  0  0  0  0  0  0  0  0
   29.2329  -20.1506   -7.0489 C   0  0  0  0  0  0  0  0  0  0  0  0
   28.1806  -19.6782   -6.2645 C   0  0  0  0  0  0  0  0  0  0  0  0
   26.9313  -19.4255   -6.8002 C   0  0  0  0  0  0  0  0  0  0  0  0
   26.7323  -19.6553   -8.1667 C   0  0  0  0  0  0  0  0  0  0  0  0
   27.7637  -20.1186   -8.9357 C   0  0  0  0  0  0  0  0  0  0  0  0
   24.4593  -21.3127  -11.6662 C   0  0  0  0  0  0  0  0  0  0  0  0
   24.2858  -22.0797  -12.6824 O   0  0  0  0  0  0  0  0  0  0  0  0
   20.4207  -22.1245  -10.1401 C   0  0  0  0  0  0  0  0  0  0  0  0
   20.9854  -20.7271   -9.9151 C   0  0  0  0  0  0  0  0  0  0  0  0
   21.0689  -19.9646  -11.1949 C   0  0  2  0  0  0  0  0  0  0  0  0
   19.7109  -19.8445  -11.8197 C   0  0  0  0  0  0  0  0  0  0  0  0
   22.1291  -20.4908  -12.1314 C   0  0  2  0  0  0  0  0  0  0  0  0
   23.3803  -20.4491  -11.3628 N   0  0  0  0  0  0  0  0  0  0  0  0
   22.2430  -19.7246  -13.3875 C   0  0  0  0  0  0  0  0  0  0  0  0
   22.2105  -18.4656  -13.3677 O   0  0  0  0  0  0  0  0  0  0  0  0
   25.0704  -24.3612  -15.2080 N   0  0  0  0  0  0  0  0  0  0  0  0
   25.9917  -24.0933  -16.2703 C   0  0  0  0  0  0  0  0  0  0  0  0
   27.0787  -24.7914  -16.3461 N   0  0  0  0  0  0  0  0  0  0  0  0
   25.6990  -23.0753  -17.2159 N   0  0  0  0  0  0  0  0  0  0  0  0
   24.4579  -22.3215  -17.1595 C   0  0  0  0  0  0  0  0  0  0  0  0
   24.4932  -21.2453  -16.1334 C   0  0  0  0  0  0  0  0  0  0  0  0
   23.8836  -19.9454  -16.4846 C   0  0  0  0  0  0  0  0  0  0  0  0
   22.5773  -19.5834  -15.8673 C   0  0  2  0  0  0  0  0  0  0  0  0
   22.3913  -20.3470  -14.6523 N   0  0  0  0  0  0  0  0  0  0  0  0
   21.4036  -19.6507  -16.7262 C   0  0  0  0  0  0  0  0  0  0  0  0
   20.3203  -20.4825  -16.4895 O   0  0  0  0  0  0  0  0  0  0  0  0
   21.3207  -18.9198  -17.7727 O   0  0  0  0  0  0  0  0  0  0  0  0
  2  1  1  6
  3  2  1  0
  4  3  1  0
  5  4  2  0
  6  5  1  0
  7 12  2  0
  7  6  1  0
  8  7  1  0
  9  8  2  0
  9 10  1  0
 10 11  2  0
 11 12  1  0
 12  4  1  0
 13  2  1  0
 14 13  2  0
 15 16  1  0
 17 16  1  0
 17 19  1  0
 17 18  1  6
 19 21  1  0
 19 20  1  1
 20 13  1  0
 21 31  1  0
 22 21  2  0
 23 24  1  0
 24 25  2  0
 26 24  1  0
 26 27  1  0
 28 27  1  0
 28 29  1  0
 30 29  1  6
 30 32  1  0
 31 30  1  0
 32 34  2  0
 32 33  1  0
M  END
$$$$
