WIR.pdb
     RDKit          3D

 34 35  0  0  1  0  0  0  0  0999 V2000
   23.0560  -20.6457   -9.6536 N   0  0  0  0  0  0  0  0  0  0  0  0
   23.0179  -21.3257   -8.3644 C   0  0  1  0  0  0  0  0  0  0  0  0
   23.8129  -20.5176   -7.3556 C   0  0  0  0  0  0  0  0  0  0  0  0
   25.2313  -20.5723   -7.7762 C   0  0  0  0  0  0  0  0  0  0  0  0
   25.7277  -20.9109   -9.0135 C   0  0  0  0  0  0  0  0  0  0  0  0
   27.0912  -20.8521   -8.9837 N   0  0  0  0  0  0  0  0  0  0  0  0
   27.4842  -20.4837   -7.7601 C   0  0  0  0  0  0  0  0  0  0  0  0
   28.7289  -20.2786   -7.2279 C   0  0  0  0  0  0  0  0  0  0  0  0
   28.8244  -19.8839   -5.8935 C   0  0  0  0  0  0  0  0  0  0  0  0
   27.7017  -19.6979   -5.1084 C   0  0  0  0  0  0  0  0  0  0  0  0
   26.4432  -19.9160   -5.6814 C   0  0  0  0  0  0  0  0  0  0  0  0
   26.3493  -20.3032   -6.9895 C   0  0  0  0  0  0  0  0  0  0  0  0
   21.6747  -21.6762   -7.9143 C   0  0  0  0  0  0  0  0  0  0  0  0
   20.8314  -20.7148   -7.7891 O   0  0  0  0  0  0  0  0  0  0  0  0
   19.1483  -23.5312  -11.3289 C   0  0  0  0  0  0  0  0  0  0  0  0
   19.5365  -22.8840  -10.0050 C   0  0  0  0  0  0  0  0  0  0  0  0
   19.3929  -23.8432   -8.8711 C   0  0  2  0  0  0  0  0  0  0  0  0
   18.0443  -24.4979   -8.9097 C   0  0  0  0  0  0  0  0  0  0  0  0
   19.7411  -23.2374   -7.5333 C   0  0  2  0  0  0  0  0  0  0  0  0
   21.1831  -22.9640   -7.5953 N   0  0  0  0  0  0  0  0  0  0  0  0
   19.4060  -24.1030   -6.3860 C   0  0  0  0  0  0  0  0  0  0  0  0
   20.2544  -24.9190   -5.9380 O   0  0  0  0  0  0  0  0  0  0  0  0
   13.3063  -21.7628   -1.0388 N   0  0  0  0  0  0  0  0  0  0  0  0
   13.4041  -22.1248   -2.4203 C   0  0  0  0  0  0  0  0  0  0  0  0
   12.3784  -21.9439   -3.1882 N   0  0  0  0  0  0  0  0  0  0  0  0
   14.6156  -22.6707   -2.9208 N   0  0  0  0  0  0  0  0  0  0  0  0
   15.7842  -22.8294   -2.0717 C   0  0  0  0  0  0  0  0  0  0  0  0
   16.9475  -23.3946   -2.8064 C   0  0  0  0  0  0  0  0  0  0  0  0
   16.6693  -24.3742   -3.8777 C   0  0  0  0  0  0  0  0  0  0  0  0
   17.8179  -24.9413   -4.6377 C   0  0  2  0  0  0  0  0  0  0  0  0
   18.1440  -24.0646   -5.7419 N   0  0  0  0  0  0  0  0  0  0  0  0
   17.6994  -26.3260   -5.0713 C   0  0  0  0  0  0  0  0  0  0  0  0
   18.0722  -27.4127   -4.2956 O   0  0  0  0  0  0  0  0  0  0  0  0
   17.2306  -26.6076   -6.2276 O   0  0  0  0  0  0  0  0  0  0  0  0
  2  1  1  6
  3  2  1  0
  4  3  1  0
  5  4  2  0
  6  5  1  0
  7 12  2  0
  7  6  1  0
  8  7  1  0
  9  8  2  0
  9 10  1  0
 10 11  2  0
 11 12  1  0
 12  4  1  0
 13  2  1  0
 14 13  2  0
 15 16  1  0
 17 16  1  0
 17 19  1  0
 17 18  1  1
 19 21  1  0
 19 20  1  6
 20 13  1  0
 21 31  1  0
 22 21  2  0
 23 24  1  0
 24 25  2  0
 26 24  1  0
 26 27  1  0
 28 27  1  0
 28 29  1  0
 30 29  1  6
 30 32  1  0
 31 30  1  0
 32 34  2  0
 32 33  1  0
M  END
$$$$
