WIR.pdb
     RDKit          3D

 34 35  0  0  1  0  0  0  0  0999 V2000
   27.0358  -21.3562  -14.7134 N   0  0  0  0  0  0  0  0  0  0  0  0
   27.0149  -20.4598  -13.5637 C   0  0  1  0  0  0  0  0  0  0  0  0
   26.2916  -19.1818  -13.9464 C   0  0  0  0  0  0  0  0  0  0  0  0
   26.8652  -18.7267  -15.2331 C   0  0  0  0  0  0  0  0  0  0  0  0
   26.1861  -18.3263  -16.3602 C   0  0  0  0  0  0  0  0  0  0  0  0
   27.0840  -17.9984  -17.3348 N   0  0  0  0  0  0  0  0  0  0  0  0
   28.3223  -18.1765  -16.8633 C   0  0  0  0  0  0  0  0  0  0  0  0
   29.5503  -17.9859  -17.4378 C   0  0  0  0  0  0  0  0  0  0  0  0
   30.6887  -18.2574  -16.6787 C   0  0  0  0  0  0  0  0  0  0  0  0
   30.6021  -18.7090  -15.3749 C   0  0  0  0  0  0  0  0  0  0  0  0
   29.3321  -18.8944  -14.8159 C   0  0  0  0  0  0  0  0  0  0  0  0
   28.2161  -18.6285  -15.5599 C   0  0  0  0  0  0  0  0  0  0  0  0
   26.5193  -21.0748  -12.3367 C   0  0  0  0  0  0  0  0  0  0  0  0
   25.8892  -22.1884  -12.4548 O   0  0  0  0  0  0  0  0  0  0  0  0
   28.3170  -19.9639   -7.4707 C   0  0  0  0  0  0  0  0  0  0  0  0
   27.6293  -20.7461   -8.5831 C   0  0  0  0  0  0  0  0  0  0  0  0
   26.1916  -20.3655   -8.7034 C   0  0  2  0  0  0  0  0  0  0  0  0
   25.4232  -20.8471   -7.5090 C   0  0  0  0  0  0  0  0  0  0  0  0
   25.5808  -20.7629  -10.0251 C   0  0  2  0  0  0  0  0  0  0  0  0
   26.6512  -20.5860  -11.0154 N   0  0  0  0  0  0  0  0  0  0  0  0
   24.3818  -19.9803  -10.3826 C   0  0  0  0  0  0  0  0  0  0  0  0
   24.4306  -19.1359  -11.3158 O   0  0  0  0  0  0  0  0  0  0  0  0
   18.7729  -24.7965  -11.5456 N   0  0  0  0  0  0  0  0  0  0  0  0
   18.0479  -23.8018  -12.2762 C   0  0  0  0  0  0  0  0  0  0  0  0
   16.8532  -24.0770  -12.6904 N   0  0  0  0  0  0  0  0  0  0  0  0
   18.6466  -22.5397  -12.5310 N   0  0  0  0  0  0  0  0  0  0  0  0
   19.6454  -21.9793  -11.6366 C   0  0  0  0  0  0  0  0  0  0  0  0
   20.9844  -21.8736  -12.2755 C   0  0  0  0  0  0  0  0  0  0  0  0
   22.1199  -21.4680  -11.4207 C   0  0  0  0  0  0  0  0  0  0  0  0
   21.9078  -20.3785  -10.4274 C   0  0  2  0  0  0  0  0  0  0  0  0
   23.1418  -20.1319   -9.7130 N   0  0  0  0  0  0  0  0  0  0  0  0
   20.7831  -20.5305   -9.5155 C   0  0  0  0  0  0  0  0  0  0  0  0
   19.5832  -19.8493   -9.6491 O   0  0  0  0  0  0  0  0  0  0  0  0
   20.8584  -21.3264   -8.5170 O   0  0  0  0  0  0  0  0  0  0  0  0
  2  1  1  6
  3  2  1  0
  4  3  1  0
  5  4  2  0
  6  5  1  0
  7 12  2  0
  7  6  1  0
  8  7  1  0
  9  8  2  0
  9 10  1  0
 10 11  2  0
 11 12  1  0
 12  4  1  0
 13  2  1  0
 14 13  2  0
 15 16  1  0
 17 16  1  0
 17 19  1  0
 17 18  1  1
 19 21  1  0
 19 20  1  6
 20 13  1  0
 21 31  1  0
 22 21  2  0
 23 24  1  0
 24 25  2  0
 26 24  1  0
 26 27  1  0
 28 27  1  0
 28 29  1  0
 30 29  1  1
 30 32  1  0
 31 30  1  0
 32 34  2  0
 32 33  1  0
M  END
$$$$
