WIR.pdb
     RDKit          3D

 34 35  0  0  1  0  0  0  0  0999 V2000
   26.9754  -19.1713  -10.2378 N   0  0  0  0  0  0  0  0  0  0  0  0
   26.3601  -20.4757  -10.4520 C   0  0  1  0  0  0  0  0  0  0  0  0
   26.3636  -21.2447   -9.1438 C   0  0  0  0  0  0  0  0  0  0  0  0
   27.6305  -20.9178   -8.4511 C   0  0  0  0  0  0  0  0  0  0  0  0
   27.8071  -20.0784   -7.3759 C   0  0  0  0  0  0  0  0  0  0  0  0
   29.1317  -20.0384   -7.0480 N   0  0  0  0  0  0  0  0  0  0  0  0
   29.8109  -20.8306   -7.8837 C   0  0  0  0  0  0  0  0  0  0  0  0
   31.1435  -21.1330   -7.9689 C   0  0  0  0  0  0  0  0  0  0  0  0
   31.5623  -22.0164   -8.9639 C   0  0  0  0  0  0  0  0  0  0  0  0
   30.6699  -22.5852   -9.8535 C   0  0  0  0  0  0  0  0  0  0  0  0
   29.3140  -22.2558   -9.7409 C   0  0  0  0  0  0  0  0  0  0  0  0
   28.9031  -21.3896   -8.7658 C   0  0  0  0  0  0  0  0  0  0  0  0
   25.0546  -20.4201  -11.1016 C   0  0  0  0  0  0  0  0  0  0  0  0
   24.1590  -19.6818  -10.5502 O   0  0  0  0  0  0  0  0  0  0  0  0
   24.8590  -19.5585  -16.2097 C   0  0  0  0  0  0  0  0  0  0  0  0
   24.5793  -19.6124  -14.7127 C   0  0  0  0  0  0  0  0  0  0  0  0
   23.6241  -20.7093  -14.3798 C   0  0  2  0  0  0  0  0  0  0  0  0
   22.3895  -20.5996  -15.2239 C   0  0  0  0  0  0  0  0  0  0  0  0
   23.3461  -20.8259  -12.9009 C   0  0  2  0  0  0  0  0  0  0  0  0
   24.6513  -21.0899  -12.2809 N   0  0  0  0  0  0  0  0  0  0  0  0
   22.3671  -21.8774  -12.5635 C   0  0  0  0  0  0  0  0  0  0  0  0
   22.6881  -23.0927  -12.6453 O   0  0  0  0  0  0  0  0  0  0  0  0
   19.1832  -25.0271   -6.6017 N   0  0  0  0  0  0  0  0  0  0  0  0
   17.8794  -24.9525   -7.1879 C   0  0  0  0  0  0  0  0  0  0  0  0
   17.1074  -25.9893   -7.1293 N   0  0  0  0  0  0  0  0  0  0  0  0
   17.4585  -23.7515   -7.8177 N   0  0  0  0  0  0  0  0  0  0  0  0
   17.6608  -23.5290   -9.2394 C   0  0  0  0  0  0  0  0  0  0  0  0
   19.1002  -23.5228   -9.6141 C   0  0  0  0  0  0  0  0  0  0  0  0
   19.5968  -22.3749  -10.4018 C   0  0  0  0  0  0  0  0  0  0  0  0
   20.1078  -22.6257  -11.7782 C   0  0  2  0  0  0  0  0  0  0  0  0
   21.0465  -21.5854  -12.1398 N   0  0  0  0  0  0  0  0  0  0  0  0
   19.1130  -22.8342  -12.8206 C   0  0  0  0  0  0  0  0  0  0  0  0
   18.8923  -24.0521  -13.4448 O   0  0  0  0  0  0  0  0  0  0  0  0
   18.3756  -21.8678  -13.2186 O   0  0  0  0  0  0  0  0  0  0  0  0
  2  1  1  1
  3  2  1  0
  4  3  1  0
  5  4  2  0
  6  5  1  0
  7 12  2  0
  7  6  1  0
  8  7  1  0
  9  8  2  0
  9 10  1  0
 10 11  2  0
 11 12  1  0
 12  4  1  0
 13  2  1  0
 14 13  2  0
 15 16  1  0
 17 16  1  0
 17 19  1  0
 17 18  1  6
 19 21  1  0
 19 20  1  1
 20 13  1  0
 21 31  1  0
 22 21  2  0
 23 24  1  0
 24 25  2  0
 26 24  1  0
 26 27  1  0
 28 27  1  0
 28 29  1  0
 30 29  1  1
 30 32  1  0
 31 30  1  0
 32 34  2  0
 32 33  1  0
M  END
$$$$
