WIR.pdb
     RDKit          3D

 34 35  0  0  1  0  0  0  0  0999 V2000
   16.3318  -18.8238    0.9113 N   0  0  0  0  0  0  0  0  0  0  0  0
   15.6343  -19.2195    2.1290 C   0  0  1  0  0  0  0  0  0  0  0  0
   15.1266  -20.6405    1.9683 C   0  0  0  0  0  0  0  0  0  0  0  0
   14.1965  -20.6418    0.8164 C   0  0  0  0  0  0  0  0  0  0  0  0
   13.1503  -19.7805    0.5811 C   0  0  0  0  0  0  0  0  0  0  0  0
   12.5315  -20.1306   -0.5842 N   0  0  0  0  0  0  0  0  0  0  0  0
   13.1531  -21.1938   -1.1045 C   0  0  0  0  0  0  0  0  0  0  0  0
   12.9247  -21.9115   -2.2479 C   0  0  0  0  0  0  0  0  0  0  0  0
   13.7624  -22.9893   -2.5347 C   0  0  0  0  0  0  0  0  0  0  0  0
   14.8051  -23.3420   -1.6981 C   0  0  0  0  0  0  0  0  0  0  0  0
   15.0126  -22.5890   -0.5364 C   0  0  0  0  0  0  0  0  0  0  0  0
   14.1914  -21.5325   -0.2550 C   0  0  0  0  0  0  0  0  0  0  0  0
   16.3986  -18.9997    3.3525 C   0  0  0  0  0  0  0  0  0  0  0  0
   17.4769  -19.6832    3.4982 O   0  0  0  0  0  0  0  0  0  0  0  0
   16.4309  -15.9351    8.6791 C   0  0  0  0  0  0  0  0  0  0  0  0
   17.2920  -16.4961    7.5539 C   0  0  0  0  0  0  0  0  0  0  0  0
   16.4716  -16.8020    6.3458 C   0  0  2  0  0  0  0  0  0  0  0  0
   15.0128  -16.8053    6.6934 C   0  0  0  0  0  0  0  0  0  0  0  0
   16.9295  -18.0408    5.6153 C   0  0  2  0  0  0  0  0  0  0  0  0
   16.0911  -18.1128    4.4112 N   0  0  0  0  0  0  0  0  0  0  0  0
   16.8253  -19.2745    6.4184 C   0  0  0  0  0  0  0  0  0  0  0  0
   15.8794  -20.0823    6.2203 O   0  0  0  0  0  0  0  0  0  0  0  0
   18.2917  -27.0731    5.8296 N   0  0  0  0  0  0  0  0  0  0  0  0
   17.9081  -27.0274    7.2080 C   0  0  0  0  0  0  0  0  0  0  0  0
   17.6529  -28.1369    7.8231 N   0  0  0  0  0  0  0  0  0  0  0  0
   17.8161  -25.7755    7.8717 N   0  0  0  0  0  0  0  0  0  0  0  0
   17.9500  -24.5219    7.1491 C   0  0  0  0  0  0  0  0  0  0  0  0
   17.6909  -23.3385    8.0122 C   0  0  0  0  0  0  0  0  0  0  0  0
   17.7284  -22.0057    7.3744 C   0  0  0  0  0  0  0  0  0  0  0  0
   17.6197  -20.7996    8.2417 C   0  0  2  0  0  0  0  0  0  0  0  0
   17.7594  -19.6095    7.4304 N   0  0  0  0  0  0  0  0  0  0  0  0
   18.4829  -20.7527    9.4131 C   0  0  0  0  0  0  0  0  0  0  0  0
   18.3288  -21.5739   10.5192 O   0  0  0  0  0  0  0  0  0  0  0  0
   19.4534  -19.9216    9.4730 O   0  0  0  0  0  0  0  0  0  0  0  0
  2  1  1  6
  3  2  1  0
  4  3  1  0
  5  4  2  0
  6  5  1  0
  7 12  2  0
  7  6  1  0
  8  7  1  0
  9  8  2  0
  9 10  1  0
 10 11  2  0
 11 12  1  0
 12  4  1  0
 13  2  1  0
 14 13  2  0
 15 16  1  0
 17 16  1  0
 17 19  1  0
 17 18  1  1
 19 21  1  0
 19 20  1  6
 20 13  1  0
 21 31  1  0
 22 21  2  0
 23 24  1  0
 24 25  2  0
 26 24  1  0
 26 27  1  0
 28 27  1  0
 28 29  1  0
 30 29  1  6
 30 32  1  0
 31 30  1  0
 32 34  2  0
 32 33  1  0
M  END
$$$$
