WIR.pdb
     RDKit          3D

 34 35  0  0  1  0  0  0  0  0999 V2000
   28.3116  -20.5080  -16.3892 N   0  0  0  0  0  0  0  0  0  0  0  0
   27.3410  -19.7954  -15.5671 C   0  0  1  0  0  0  0  0  0  0  0  0
   26.2583  -19.2241  -16.4638 C   0  0  0  0  0  0  0  0  0  0  0  0
   26.8330  -18.0371  -17.1366 C   0  0  0  0  0  0  0  0  0  0  0  0
   27.1610  -17.9019  -18.4655 C   0  0  0  0  0  0  0  0  0  0  0  0
   27.6771  -16.6561  -18.6779 N   0  0  0  0  0  0  0  0  0  0  0  0
   27.6887  -15.9868  -17.5207 C   0  0  0  0  0  0  0  0  0  0  0  0
   28.0980  -14.7183  -17.2078 C   0  0  0  0  0  0  0  0  0  0  0  0
   27.9790  -14.2885  -15.8861 C   0  0  0  0  0  0  0  0  0  0  0  0
   27.4623  -15.1074  -14.8993 C   0  0  0  0  0  0  0  0  0  0  0  0
   27.0529  -16.3991  -15.2507 C   0  0  0  0  0  0  0  0  0  0  0  0
   27.1697  -16.8208  -16.5462 C   0  0  0  0  0  0  0  0  0  0  0  0
   26.8285  -20.5706  -14.4420 C   0  0  0  0  0  0  0  0  0  0  0  0
   26.3700  -21.7427  -14.7011 O   0  0  0  0  0  0  0  0  0  0  0  0
   28.6608  -22.1222  -10.9438 C   0  0  0  0  0  0  0  0  0  0  0  0
   28.1771  -20.6889  -10.7594 C   0  0  0  0  0  0  0  0  0  0  0  0
   26.6868  -20.6168  -10.7569 C   0  0  2  0  0  0  0  0  0  0  0  0
   26.1301  -21.3755   -9.5893 C   0  0  0  0  0  0  0  0  0  0  0  0
   26.0719  -20.9956  -12.0822 C   0  0  2  0  0  0  0  0  0  0  0  0
   26.7756  -20.1819  -13.0825 N   0  0  0  0  0  0  0  0  0  0  0  0
   24.6133  -20.7794  -12.1417 C   0  0  0  0  0  0  0  0  0  0  0  0
   24.1337  -19.6316  -11.9442 O   0  0  0  0  0  0  0  0  0  0  0  0
   16.9268  -25.0032  -14.5622 N   0  0  0  0  0  0  0  0  0  0  0  0
   17.8553  -24.3878  -15.4612 C   0  0  0  0  0  0  0  0  0  0  0  0
   17.5149  -24.2289  -16.6995 N   0  0  0  0  0  0  0  0  0  0  0  0
   19.1234  -23.9647  -14.9825 N   0  0  0  0  0  0  0  0  0  0  0  0
   19.4862  -24.0911  -13.5810 C   0  0  0  0  0  0  0  0  0  0  0  0
   20.1265  -22.8594  -13.0469 C   0  0  0  0  0  0  0  0  0  0  0  0
   21.6025  -22.7884  -13.0759 C   0  0  0  0  0  0  0  0  0  0  0  0
   22.2683  -21.5959  -12.4814 C   0  0  2  0  0  0  0  0  0  0  0  0
   23.6959  -21.8240  -12.4172 N   0  0  0  0  0  0  0  0  0  0  0  0
   21.7455  -21.1172  -11.2098 C   0  0  0  0  0  0  0  0  0  0  0  0
   20.6679  -20.2530  -11.0941 O   0  0  0  0  0  0  0  0  0  0  0  0
   22.2784  -21.4864  -10.1071 O   0  0  0  0  0  0  0  0  0  0  0  0
  2  1  1  6
  3  2  1  0
  4  3  1  0
  5  4  2  0
  6  5  1  0
  7 12  2  0
  7  6  1  0
  8  7  1  0
  9  8  2  0
  9 10  1  0
 10 11  2  0
 11 12  1  0
 12  4  1  0
 13  2  1  0
 14 13  2  0
 15 16  1  0
 17 16  1  0
 17 19  1  0
 17 18  1  1
 19 21  1  0
 19 20  1  6
 20 13  1  0
 21 31  1  0
 22 21  2  0
 23 24  1  0
 24 25  2  0
 26 24  1  0
 26 27  1  0
 28 27  1  0
 28 29  1  0
 30 29  1  1
 30 32  1  0
 31 30  1  0
 32 34  2  0
 32 33  1  0
M  END
$$$$
