WIR.pdb
     RDKit          3D

 34 35  0  0  1  0  0  0  0  0999 V2000
   27.9214  -19.4747   -8.9082 N   0  0  0  0  0  0  0  0  0  0  0  0
   26.7478  -20.3263   -9.0600 C   0  0  1  0  0  0  0  0  0  0  0  0
   25.8261  -20.1141   -7.8733 C   0  0  0  0  0  0  0  0  0  0  0  0
   26.6538  -19.5720   -6.7720 C   0  0  0  0  0  0  0  0  0  0  0  0
   26.9163  -18.2515   -6.4905 C   0  0  0  0  0  0  0  0  0  0  0  0
   27.7345  -18.1769   -5.4003 N   0  0  0  0  0  0  0  0  0  0  0  0
   28.0041  -19.4147   -4.9732 C   0  0  0  0  0  0  0  0  0  0  0  0
   28.7610  -19.8714   -3.9277 C   0  0  0  0  0  0  0  0  0  0  0  0
   28.8515  -21.2484   -3.7242 C   0  0  0  0  0  0  0  0  0  0  0  0
   28.2002  -22.1490   -4.5465 C   0  0  0  0  0  0  0  0  0  0  0  0
   27.4342  -21.6509   -5.6071 C   0  0  0  0  0  0  0  0  0  0  0  0
   27.3456  -20.3011   -5.8070 C   0  0  0  0  0  0  0  0  0  0  0  0
   26.0840  -20.2023  -10.3536 C   0  0  0  0  0  0  0  0  0  0  0  0
   25.2332  -19.2483  -10.4842 O   0  0  0  0  0  0  0  0  0  0  0  0
   29.0155  -19.5687  -14.3775 C   0  0  0  0  0  0  0  0  0  0  0  0
   27.8573  -19.5770  -13.3872 C   0  0  0  0  0  0  0  0  0  0  0  0
   26.8371  -20.6014  -13.7562 C   0  0  2  0  0  0  0  0  0  0  0  0
   26.4291  -20.4379  -15.1900 C   0  0  0  0  0  0  0  0  0  0  0  0
   25.6769  -20.6579  -12.7925 C   0  0  2  0  0  0  0  0  0  0  0  0
   26.2672  -21.0167  -11.4960 N   0  0  0  0  0  0  0  0  0  0  0  0
   24.6245  -21.6139  -13.1879 C   0  0  0  0  0  0  0  0  0  0  0  0
   24.9065  -22.8278  -13.3708 O   0  0  0  0  0  0  0  0  0  0  0  0
   17.8057  -24.4597  -13.4840 N   0  0  0  0  0  0  0  0  0  0  0  0
   17.4243  -24.1356  -12.1430 C   0  0  0  0  0  0  0  0  0  0  0  0
   16.8115  -25.0281  -11.4342 N   0  0  0  0  0  0  0  0  0  0  0  0
   17.7235  -22.8509  -11.6171 N   0  0  0  0  0  0  0  0  0  0  0  0
   18.5756  -21.9173  -12.3340 C   0  0  0  0  0  0  0  0  0  0  0  0
   19.8831  -22.5171  -12.7122 C   0  0  0  0  0  0  0  0  0  0  0  0
   20.9107  -21.6170  -13.2766 C   0  0  0  0  0  0  0  0  0  0  0  0
   22.2311  -22.1940  -13.6533 C   0  0  2  0  0  0  0  0  0  0  0  0
   23.2739  -21.2289  -13.3787 N   0  0  0  0  0  0  0  0  0  0  0  0
   22.3497  -22.7414  -14.9971 C   0  0  0  0  0  0  0  0  0  0  0  0
   22.0866  -24.0641  -15.3181 O   0  0  0  0  0  0  0  0  0  0  0  0
   22.7155  -21.9986  -15.9722 O   0  0  0  0  0  0  0  0  0  0  0  0
  2  1  1  6
  3  2  1  0
  4  3  1  0
  5  4  2  0
  6  5  1  0
  7 12  2  0
  7  6  1  0
  8  7  1  0
  9  8  2  0
  9 10  1  0
 10 11  2  0
 11 12  1  0
 12  4  1  0
 13  2  1  0
 14 13  2  0
 15 16  1  0
 17 16  1  0
 17 19  1  0
 17 18  1  6
 19 21  1  0
 19 20  1  1
 20 13  1  0
 21 31  1  0
 22 21  2  0
 23 24  1  0
 24 25  2  0
 26 24  1  0
 26 27  1  0
 28 27  1  0
 28 29  1  0
 30 29  1  6
 30 32  1  0
 31 30  1  0
 32 34  2  0
 32 33  1  0
M  END
$$$$
