WIR.pdb
     RDKit          3D

 34 35  0  0  1  0  0  0  0  0999 V2000
   28.0360  -21.4515  -10.2107 N   0  0  0  0  0  0  0  0  0  0  0  0
   26.8168  -20.9204   -9.6130 C   0  0  1  0  0  0  0  0  0  0  0  0
   27.1864  -19.8421   -8.6113 C   0  0  0  0  0  0  0  0  0  0  0  0
   28.3694  -20.3287   -7.8660 C   0  0  0  0  0  0  0  0  0  0  0  0
   29.3674  -21.1573   -8.3233 C   0  0  0  0  0  0  0  0  0  0  0  0
   30.2659  -21.3774   -7.3194 N   0  0  0  0  0  0  0  0  0  0  0  0
   29.8720  -20.7114   -6.2292 C   0  0  0  0  0  0  0  0  0  0  0  0
   30.4229  -20.6042   -4.9804 C   0  0  0  0  0  0  0  0  0  0  0  0
   29.7720  -19.8148   -4.0322 C   0  0  0  0  0  0  0  0  0  0  0  0
   28.5973  -19.1473   -4.3252 C   0  0  0  0  0  0  0  0  0  0  0  0
   28.0588  -19.2772   -5.6108 C   0  0  0  0  0  0  0  0  0  0  0  0
   28.6966  -20.0511   -6.5404 C   0  0  0  0  0  0  0  0  0  0  0  0
   25.8086  -20.5056  -10.5830 C   0  0  0  0  0  0  0  0  0  0  0  0
   25.9230  -19.3242  -11.0752 O   0  0  0  0  0  0  0  0  0  0  0  0
   26.8095  -20.0188  -14.5270 C   0  0  0  0  0  0  0  0  0  0  0  0
   25.9505  -19.9409  -13.2707 C   0  0  0  0  0  0  0  0  0  0  0  0
   24.7512  -20.8219  -13.3796 C   0  0  2  0  0  0  0  0  0  0  0  0
   24.0260  -20.5586  -14.6656 C   0  0  0  0  0  0  0  0  0  0  0  0
   23.8668  -20.7746  -12.1575 C   0  0  2  0  0  0  0  0  0  0  0  0
   24.7061  -21.2578  -11.0529 N   0  0  0  0  0  0  0  0  0  0  0  0
   22.6341  -21.5754  -12.2872 C   0  0  0  0  0  0  0  0  0  0  0  0
   22.7007  -22.8275  -12.4068 O   0  0  0  0  0  0  0  0  0  0  0  0
   19.0270  -24.5807   -8.4662 N   0  0  0  0  0  0  0  0  0  0  0  0
   18.3160  -23.6951   -7.5949 C   0  0  0  0  0  0  0  0  0  0  0  0
   18.3069  -23.9416   -6.3246 N   0  0  0  0  0  0  0  0  0  0  0  0
   17.6392  -22.5696   -8.1348 N   0  0  0  0  0  0  0  0  0  0  0  0
   17.7182  -22.2430   -9.5486 C   0  0  0  0  0  0  0  0  0  0  0  0
   19.0025  -21.5845   -9.9084 C   0  0  0  0  0  0  0  0  0  0  0  0
   19.1593  -21.1048  -11.2976 C   0  0  0  0  0  0  0  0  0  0  0  0
   20.1397  -21.7950  -12.1812 C   0  0  2  0  0  0  0  0  0  0  0  0
   21.3411  -20.9949  -12.2842 N   0  0  0  0  0  0  0  0  0  0  0  0
   19.6623  -22.2140  -13.4912 C   0  0  0  0  0  0  0  0  0  0  0  0
   19.0590  -23.4374  -13.7382 O   0  0  0  0  0  0  0  0  0  0  0  0
   19.7848  -21.4437  -14.5051 O   0  0  0  0  0  0  0  0  0  0  0  0
  2  1  1  6
  3  2  1  0
  4  3  1  0
  5  4  2  0
  6  5  1  0
  7 12  2  0
  7  6  1  0
  8  7  1  0
  9  8  2  0
  9 10  1  0
 10 11  2  0
 11 12  1  0
 12  4  1  0
 13  2  1  0
 14 13  2  0
 15 16  1  0
 17 16  1  0
 17 19  1  0
 17 18  1  6
 19 21  1  0
 19 20  1  1
 20 13  1  0
 21 31  1  0
 22 21  2  0
 23 24  1  0
 24 25  2  0
 26 24  1  0
 26 27  1  0
 28 27  1  0
 28 29  1  0
 30 29  1  6
 30 32  1  0
 31 30  1  0
 32 34  2  0
 32 33  1  0
M  END
$$$$
