WIR.pdb
     RDKit          3D

 34 35  0  0  1  0  0  0  0  0999 V2000
   26.7232  -20.9425  -12.7976 N   0  0  0  0  0  0  0  0  0  0  0  0
   25.5531  -20.5121  -12.0416 C   0  0  1  0  0  0  0  0  0  0  0  0
   24.3019  -20.8614  -12.8260 C   0  0  0  0  0  0  0  0  0  0  0  0
   24.2946  -20.0070  -14.0350 C   0  0  0  0  0  0  0  0  0  0  0  0
   25.2695  -19.9099  -15.0004 C   0  0  0  0  0  0  0  0  0  0  0  0
   24.8838  -18.9983  -15.9405 N   0  0  0  0  0  0  0  0  0  0  0  0
   23.6862  -18.5077  -15.6052 C   0  0  0  0  0  0  0  0  0  0  0  0
   22.8789  -17.5842  -16.2135 C   0  0  0  0  0  0  0  0  0  0  0  0
   21.6570  -17.2737  -15.6166 C   0  0  0  0  0  0  0  0  0  0  0  0
   21.2505  -17.8726  -14.4387 C   0  0  0  0  0  0  0  0  0  0  0  0
   22.0983  -18.8125  -13.8408 C   0  0  0  0  0  0  0  0  0  0  0  0
   23.2963  -19.1169  -14.4256 C   0  0  0  0  0  0  0  0  0  0  0  0
   25.5325  -20.9767  -10.6584 C   0  0  0  0  0  0  0  0  0  0  0  0
   25.4855  -22.2469  -10.4697 O   0  0  0  0  0  0  0  0  0  0  0  0
   28.3410  -18.8991   -6.6302 C   0  0  0  0  0  0  0  0  0  0  0  0
   27.6016  -19.8803   -7.5317 C   0  0  0  0  0  0  0  0  0  0  0  0
   26.1460  -19.9224   -7.2067 C   0  0  2  0  0  0  0  0  0  0  0  0
   25.9443  -20.2682   -5.7614 C   0  0  0  0  0  0  0  0  0  0  0  0
   25.3497  -20.7816   -8.1584 C   0  0  2  0  0  0  0  0  0  0  0  0
   25.5588  -20.1865   -9.4851 N   0  0  0  0  0  0  0  0  0  0  0  0
   23.9145  -20.8619   -7.8244 C   0  0  0  0  0  0  0  0  0  0  0  0
   23.1416  -19.9106   -8.1144 O   0  0  0  0  0  0  0  0  0  0  0  0
   17.3331  -23.7105   -9.1933 N   0  0  0  0  0  0  0  0  0  0  0  0
   17.0198  -24.5436   -8.0722 C   0  0  0  0  0  0  0  0  0  0  0  0
   15.7811  -24.6865   -7.7263 N   0  0  0  0  0  0  0  0  0  0  0  0
   18.0651  -25.1947   -7.3654 N   0  0  0  0  0  0  0  0  0  0  0  0
   19.4615  -24.9703   -7.6993 C   0  0  0  0  0  0  0  0  0  0  0  0
   19.9590  -23.6576   -7.2078 C   0  0  0  0  0  0  0  0  0  0  0  0
   21.3730  -23.3192   -7.4736 C   0  0  0  0  0  0  0  0  0  0  0  0
   21.9259  -22.0662   -6.8881 C   0  0  2  0  0  0  0  0  0  0  0  0
   23.3418  -21.9846   -7.1759 N   0  0  0  0  0  0  0  0  0  0  0  0
   21.6517  -21.8225   -5.4793 C   0  0  0  0  0  0  0  0  0  0  0  0
   20.4136  -21.4373   -4.9889 O   0  0  0  0  0  0  0  0  0  0  0  0
   22.5748  -21.9573   -4.6041 O   0  0  0  0  0  0  0  0  0  0  0  0
  2  1  1  6
  3  2  1  0
  4  3  1  0
  5  4  2  0
  6  5  1  0
  7 12  2  0
  7  6  1  0
  8  7  1  0
  9  8  2  0
  9 10  1  0
 10 11  2  0
 11 12  1  0
 12  4  1  0
 13  2  1  0
 14 13  2  0
 15 16  1  0
 17 16  1  0
 17 19  1  0
 17 18  1  1
 19 21  1  0
 19 20  1  6
 20 13  1  0
 21 31  1  0
 22 21  2  0
 23 24  1  0
 24 25  2  0
 26 24  1  0
 26 27  1  0
 28 27  1  0
 28 29  1  0
 30 29  1  1
 30 32  1  0
 31 30  1  0
 32 34  2  0
 32 33  1  0
M  END
$$$$
