WIR.pdb
     RDKit          3D

 34 35  0  0  1  0  0  0  0  0999 V2000
   24.6192  -20.7856  -13.6531 N   0  0  0  0  0  0  0  0  0  0  0  0
   23.7766  -20.0980  -12.6820 C   0  0  1  0  0  0  0  0  0  0  0  0
   22.3926  -19.9086  -13.2748 C   0  0  0  0  0  0  0  0  0  0  0  0
   22.5191  -18.9147  -14.3647 C   0  0  0  0  0  0  0  0  0  0  0  0
   22.2051  -17.5763  -14.3211 C   0  0  0  0  0  0  0  0  0  0  0  0
   22.4538  -17.0149  -15.5403 N   0  0  0  0  0  0  0  0  0  0  0  0
   22.9203  -17.9571  -16.3661 C   0  0  0  0  0  0  0  0  0  0  0  0
   23.3167  -17.9037  -17.6755 C   0  0  0  0  0  0  0  0  0  0  0  0
   23.7722  -19.0751  -18.2805 C   0  0  0  0  0  0  0  0  0  0  0  0
   23.8307  -20.2730  -17.5926 C   0  0  0  0  0  0  0  0  0  0  0  0
   23.4180  -20.2953  -16.2552 C   0  0  0  0  0  0  0  0  0  0  0  0
   22.9712  -19.1471  -15.6620 C   0  0  0  0  0  0  0  0  0  0  0  0
   23.7735  -20.7085  -11.3566 C   0  0  0  0  0  0  0  0  0  0  0  0
   23.2955  -21.8975  -11.2625 O   0  0  0  0  0  0  0  0  0  0  0  0
   27.3393  -19.0294   -7.7139 C   0  0  0  0  0  0  0  0  0  0  0  0
   26.5240  -20.0548   -8.4924 C   0  0  0  0  0  0  0  0  0  0  0  0
   25.1360  -20.1628   -7.9558 C   0  0  2  0  0  0  0  0  0  0  0  0
   25.1578  -20.7110   -6.5601 C   0  0  0  0  0  0  0  0  0  0  0  0
   24.1954  -20.8911   -8.8847 C   0  0  2  0  0  0  0  0  0  0  0  0
   24.2399  -20.1413  -10.1472 N   0  0  0  0  0  0  0  0  0  0  0  0
   22.8167  -20.9957   -8.3689 C   0  0  0  0  0  0  0  0  0  0  0  0
   22.0523  -19.9949   -8.3944 O   0  0  0  0  0  0  0  0  0  0  0  0
   17.7638  -26.3812   -5.2658 N   0  0  0  0  0  0  0  0  0  0  0  0
   16.6595  -25.7910   -5.9597 C   0  0  0  0  0  0  0  0  0  0  0  0
   15.4763  -25.8818   -5.4436 N   0  0  0  0  0  0  0  0  0  0  0  0
   16.8797  -25.1205   -7.1918 N   0  0  0  0  0  0  0  0  0  0  0  0
   18.2149  -24.9679   -7.7446 C   0  0  0  0  0  0  0  0  0  0  0  0
   18.9299  -23.7896   -7.1852 C   0  0  0  0  0  0  0  0  0  0  0  0
   20.2712  -23.4839   -7.7254 C   0  0  0  0  0  0  0  0  0  0  0  0
   20.9704  -22.2610   -7.2414 C   0  0  2  0  0  0  0  0  0  0  0  0
   22.2905  -22.1966   -7.8305 N   0  0  0  0  0  0  0  0  0  0  0  0
   21.0173  -22.0578   -5.8005 C   0  0  0  0  0  0  0  0  0  0  0  0
   19.9579  -21.5636   -5.0555 O   0  0  0  0  0  0  0  0  0  0  0  0
   22.0759  -22.3358   -5.1386 O   0  0  0  0  0  0  0  0  0  0  0  0
  2  1  1  6
  3  2  1  0
  4  3  1  0
  5  4  2  0
  6  5  1  0
  7 12  2  0
  7  6  1  0
  8  7  1  0
  9  8  2  0
  9 10  1  0
 10 11  2  0
 11 12  1  0
 12  4  1  0
 13  2  1  0
 14 13  2  0
 15 16  1  0
 17 16  1  0
 17 19  1  0
 17 18  1  1
 19 21  1  0
 19 20  1  6
 20 13  1  0
 21 31  1  0
 22 21  2  0
 23 24  1  0
 24 25  2  0
 26 24  1  0
 26 27  1  0
 28 27  1  0
 28 29  1  0
 30 29  1  1
 30 32  1  0
 31 30  1  0
 32 34  2  0
 32 33  1  0
M  END
$$$$
