WIR.pdb
     RDKit          3D

 34 35  0  0  1  0  0  0  0  0999 V2000
   27.5592  -21.2110  -15.7373 N   0  0  0  0  0  0  0  0  0  0  0  0
   27.2948  -20.3479  -14.5923 C   0  0  1  0  0  0  0  0  0  0  0  0
   26.4469  -19.1733  -15.0441 C   0  0  0  0  0  0  0  0  0  0  0  0
   27.1697  -18.5187  -16.1580 C   0  0  0  0  0  0  0  0  0  0  0  0
   26.6357  -17.9916  -17.3107 C   0  0  0  0  0  0  0  0  0  0  0  0
   27.6420  -17.4935  -18.0871 N   0  0  0  0  0  0  0  0  0  0  0  0
   28.8087  -17.6858  -17.4632 C   0  0  0  0  0  0  0  0  0  0  0  0
   30.0924  -17.3664  -17.8164 C   0  0  0  0  0  0  0  0  0  0  0  0
   31.1249  -17.6957  -16.9381 C   0  0  0  0  0  0  0  0  0  0  0  0
   30.8804  -18.3294  -15.7340 C   0  0  0  0  0  0  0  0  0  0  0  0
   29.5573  -18.6431  -15.4015 C   0  0  0  0  0  0  0  0  0  0  0  0
   28.5449  -18.3206  -16.2624 C   0  0  0  0  0  0  0  0  0  0  0  0
   26.7625  -21.0479  -13.4279 C   0  0  0  0  0  0  0  0  0  0  0  0
   26.1324  -22.1466  -13.6446 O   0  0  0  0  0  0  0  0  0  0  0  0
   28.4999  -20.9673   -8.2960 C   0  0  0  0  0  0  0  0  0  0  0  0
   27.8305  -21.4133   -9.5903 C   0  0  0  0  0  0  0  0  0  0  0  0
   26.4780  -20.8011   -9.7389 C   0  0  2  0  0  0  0  0  0  0  0  0
   25.6065  -21.1738   -8.5767 C   0  0  0  0  0  0  0  0  0  0  0  0
   25.8500  -21.0681  -11.0851 C   0  0  2  0  0  0  0  0  0  0  0  0
   26.8583  -20.6573  -12.0713 N   0  0  0  0  0  0  0  0  0  0  0  0
   24.5726  -20.3592  -11.2938 C   0  0  0  0  0  0  0  0  0  0  0  0
   24.5681  -19.1399  -11.6095 O   0  0  0  0  0  0  0  0  0  0  0  0
   19.0969  -20.4272  -17.2982 N   0  0  0  0  0  0  0  0  0  0  0  0
   19.9828  -19.3031  -17.2754 C   0  0  0  0  0  0  0  0  0  0  0  0
   19.6678  -18.2450  -17.9505 N   0  0  0  0  0  0  0  0  0  0  0  0
   21.1819  -19.3672  -16.5177 N   0  0  0  0  0  0  0  0  0  0  0  0
   21.5104  -20.5327  -15.7143 C   0  0  0  0  0  0  0  0  0  0  0  0
   21.2856  -20.3031  -14.2620 C   0  0  0  0  0  0  0  0  0  0  0  0
   22.3858  -20.6471  -13.3370 C   0  0  0  0  0  0  0  0  0  0  0  0
   22.1407  -20.5428  -11.8715 C   0  0  2  0  0  0  0  0  0  0  0  0
   23.3134  -20.9949  -11.1542 N   0  0  0  0  0  0  0  0  0  0  0  0
   20.9284  -21.1675  -11.3619 C   0  0  0  0  0  0  0  0  0  0  0  0
   19.6745  -20.5791  -11.4178 O   0  0  0  0  0  0  0  0  0  0  0  0
   20.9715  -22.3260  -10.8213 O   0  0  0  0  0  0  0  0  0  0  0  0
  2  1  1  6
  3  2  1  0
  4  3  1  0
  5  4  2  0
  6  5  1  0
  7 12  2  0
  7  6  1  0
  8  7  1  0
  9  8  2  0
  9 10  1  0
 10 11  2  0
 11 12  1  0
 12  4  1  0
 13  2  1  0
 14 13  2  0
 15 16  1  0
 17 16  1  0
 17 19  1  0
 17 18  1  1
 19 21  1  0
 19 20  1  6
 20 13  1  0
 21 31  1  0
 22 21  2  0
 23 24  1  0
 24 25  2  0
 26 24  1  0
 26 27  1  0
 28 27  1  0
 28 29  1  0
 30 29  1  6
 30 32  1  0
 31 30  1  0
 32 34  2  0
 32 33  1  0
M  END
$$$$
