WIR.pdb
     RDKit          3D

 34 35  0  0  1  0  0  0  0  0999 V2000
   28.3679  -20.5950  -15.7401 N   0  0  0  0  0  0  0  0  0  0  0  0
   27.4969  -19.9400  -14.7714 C   0  0  1  0  0  0  0  0  0  0  0  0
   26.3294  -19.3067  -15.5054 C   0  0  0  0  0  0  0  0  0  0  0  0
   26.8859  -18.2404  -16.3685 C   0  0  0  0  0  0  0  0  0  0  0  0
   27.2094  -18.3236  -17.7028 C   0  0  0  0  0  0  0  0  0  0  0  0
   27.7073  -17.1235  -18.1216 N   0  0  0  0  0  0  0  0  0  0  0  0
   27.7114  -16.2709  -17.0918 C   0  0  0  0  0  0  0  0  0  0  0  0
   28.1032  -14.9626  -16.9959 C   0  0  0  0  0  0  0  0  0  0  0  0
   27.9805  -14.3206  -15.7636 C   0  0  0  0  0  0  0  0  0  0  0  0
   27.4775  -14.9710  -14.6522 C   0  0  0  0  0  0  0  0  0  0  0  0
   27.0859  -16.3087  -14.7822 C   0  0  0  0  0  0  0  0  0  0  0  0
   27.2063  -16.9383  -15.9901 C   0  0  0  0  0  0  0  0  0  0  0  0
   27.1012  -20.7909  -13.6539 C   0  0  0  0  0  0  0  0  0  0  0  0
   26.6949  -21.9764  -13.9379 O   0  0  0  0  0  0  0  0  0  0  0  0
   28.7112  -20.9645   -8.5485 C   0  0  0  0  0  0  0  0  0  0  0  0
   28.0483  -21.4007   -9.8495 C   0  0  0  0  0  0  0  0  0  0  0  0
   26.6779  -20.8247   -9.9782 C   0  0  2  0  0  0  0  0  0  0  0  0
   25.7937  -21.3323   -8.8785 C   0  0  0  0  0  0  0  0  0  0  0  0
   26.0922  -20.9888  -11.3595 C   0  0  2  0  0  0  0  0  0  0  0  0
   27.1115  -20.4632  -12.2775 N   0  0  0  0  0  0  0  0  0  0  0  0
   24.7990  -20.3012  -11.5399 C   0  0  0  0  0  0  0  0  0  0  0  0
   24.7441  -19.2059  -12.1595 O   0  0  0  0  0  0  0  0  0  0  0  0
   21.5085  -22.0550  -17.2069 N   0  0  0  0  0  0  0  0  0  0  0  0
   20.1718  -22.2302  -16.7256 C   0  0  0  0  0  0  0  0  0  0  0  0
   19.2845  -22.7417  -17.5165 N   0  0  0  0  0  0  0  0  0  0  0  0
   19.8452  -21.8438  -15.3988 N   0  0  0  0  0  0  0  0  0  0  0  0
   20.8539  -21.3287  -14.4885 C   0  0  0  0  0  0  0  0  0  0  0  0
   21.6874  -22.4081  -13.8948 C   0  0  0  0  0  0  0  0  0  0  0  0
   22.7517  -22.0089  -12.9501 C   0  0  0  0  0  0  0  0  0  0  0  0
   22.4230  -21.0196  -11.8862 C   0  0  2  0  0  0  0  0  0  0  0  0
   23.5795  -20.8218  -11.0392 N   0  0  0  0  0  0  0  0  0  0  0  0
   21.2228  -21.2724  -11.1020 C   0  0  0  0  0  0  0  0  0  0  0  0
   19.9898  -20.6986  -11.3706 O   0  0  0  0  0  0  0  0  0  0  0  0
   21.2573  -22.0619  -10.0962 O   0  0  0  0  0  0  0  0  0  0  0  0
  2  1  1  6
  3  2  1  0
  4  3  1  0
  5  4  2  0
  6  5  1  0
  7 12  2  0
  7  6  1  0
  8  7  1  0
  9  8  2  0
  9 10  1  0
 10 11  2  0
 11 12  1  0
 12  4  1  0
 13  2  1  0
 14 13  2  0
 15 16  1  0
 17 16  1  0
 17 19  1  0
 17 18  1  1
 19 21  1  0
 19 20  1  6
 20 13  1  0
 21 31  1  0
 22 21  2  0
 23 24  1  0
 24 25  2  0
 26 24  1  0
 26 27  1  0
 28 27  1  0
 28 29  1  0
 30 29  1  6
 30 32  1  0
 31 30  1  0
 32 34  2  0
 32 33  1  0
M  END
$$$$
