WIR.pdb
     RDKit          3D

 34 35  0  0  1  0  0  0  0  0999 V2000
   28.4773  -21.4600  -15.5431 N   0  0  0  0  0  0  0  0  0  0  0  0
   27.4760  -20.5170  -15.0594 C   0  0  1  0  0  0  0  0  0  0  0  0
   26.6913  -19.9796  -16.2418 C   0  0  0  0  0  0  0  0  0  0  0  0
   27.4412  -18.8169  -16.7685 C   0  0  0  0  0  0  0  0  0  0  0  0
   28.1781  -18.7482  -17.9278 C   0  0  0  0  0  0  0  0  0  0  0  0
   28.7240  -17.5022  -18.0420 N   0  0  0  0  0  0  0  0  0  0  0  0
   28.3565  -16.7679  -16.9870 C   0  0  0  0  0  0  0  0  0  0  0  0
   28.6319  -15.4724  -16.6403 C   0  0  0  0  0  0  0  0  0  0  0  0
   28.0900  -14.9715  -15.4565 C   0  0  0  0  0  0  0  0  0  0  0  0
   27.2907  -15.7473  -14.6377 C   0  0  0  0  0  0  0  0  0  0  0  0
   27.0278  -17.0683  -15.0193 C   0  0  0  0  0  0  0  0  0  0  0  0
   27.5591  -17.5596  -16.1796 C   0  0  0  0  0  0  0  0  0  0  0  0
   26.6400  -21.0352  -13.9815 C   0  0  0  0  0  0  0  0  0  0  0  0
   26.1598  -22.2176  -14.1318 O   0  0  0  0  0  0  0  0  0  0  0  0
   27.5336  -20.3149   -8.7187 C   0  0  0  0  0  0  0  0  0  0  0  0
   27.1280  -20.9269  -10.0540 C   0  0  0  0  0  0  0  0  0  0  0  0
   25.7685  -20.4717  -10.4673 C   0  0  2  0  0  0  0  0  0  0  0  0
   24.7737  -20.7460   -9.3792 C   0  0  0  0  0  0  0  0  0  0  0  0
   25.3539  -20.9935  -11.8214 C   0  0  2  0  0  0  0  0  0  0  0  0
   26.2904  -20.3839  -12.7750 N   0  0  0  0  0  0  0  0  0  0  0  0
   23.9534  -20.6864  -12.1710 C   0  0  0  0  0  0  0  0  0  0  0  0
   23.6024  -19.4984  -12.3988 O   0  0  0  0  0  0  0  0  0  0  0  0
   18.7917  -26.1852  -11.9074 N   0  0  0  0  0  0  0  0  0  0  0  0
   19.3670  -26.1690  -13.2181 C   0  0  0  0  0  0  0  0  0  0  0  0
   19.5978  -27.2945  -13.8135 N   0  0  0  0  0  0  0  0  0  0  0  0
   19.6710  -24.9282  -13.8380 N   0  0  0  0  0  0  0  0  0  0  0  0
   18.7585  -23.7997  -13.7646 C   0  0  0  0  0  0  0  0  0  0  0  0
   19.4250  -22.5611  -13.2808 C   0  0  0  0  0  0  0  0  0  0  0  0
   20.8730  -22.6317  -12.9926 C   0  0  0  0  0  0  0  0  0  0  0  0
   21.5897  -21.3740  -12.6419 C   0  0  2  0  0  0  0  0  0  0  0  0
   22.9524  -21.6853  -12.2673 N   0  0  0  0  0  0  0  0  0  0  0  0
   20.9515  -20.5048  -11.6637 C   0  0  0  0  0  0  0  0  0  0  0  0
   19.9783  -19.5698  -11.9802 O   0  0  0  0  0  0  0  0  0  0  0  0
   21.2744  -20.5694  -10.4277 O   0  0  0  0  0  0  0  0  0  0  0  0
  2  1  1  6
  3  2  1  0
  4  3  1  0
  5  4  2  0
  6  5  1  0
  7 12  2  0
  7  6  1  0
  8  7  1  0
  9  8  2  0
  9 10  1  0
 10 11  2  0
 11 12  1  0
 12  4  1  0
 13  2  1  0
 14 13  2  0
 15 16  1  0
 17 16  1  0
 17 19  1  0
 17 18  1  1
 19 21  1  0
 19 20  1  6
 20 13  1  0
 21 31  1  0
 22 21  2  0
 23 24  1  0
 24 25  2  0
 26 24  1  0
 26 27  1  0
 28 27  1  0
 28 29  1  0
 30 29  1  1
 30 32  1  0
 31 30  1  0
 32 34  2  0
 32 33  1  0
M  END
$$$$
