WIR.pdb
     RDKit          3D

 34 35  0  0  1  0  0  0  0  0999 V2000
   27.3204  -21.1829  -12.6335 N   0  0  0  0  0  0  0  0  0  0  0  0
   26.2916  -20.7702  -11.6864 C   0  0  1  0  0  0  0  0  0  0  0  0
   26.8266  -19.6287  -10.8417 C   0  0  0  0  0  0  0  0  0  0  0  0
   27.9783  -20.1573  -10.0763 C   0  0  0  0  0  0  0  0  0  0  0  0
   29.1464  -20.6855  -10.5747 C   0  0  0  0  0  0  0  0  0  0  0  0
   29.9451  -21.0720   -9.5374 N   0  0  0  0  0  0  0  0  0  0  0  0
   29.3215  -20.8053   -8.3853 C   0  0  0  0  0  0  0  0  0  0  0  0
   29.6970  -20.9959   -7.0825 C   0  0  0  0  0  0  0  0  0  0  0  0
   28.8178  -20.6034   -6.0732 C   0  0  0  0  0  0  0  0  0  0  0  0
   27.5913  -20.0330   -6.3588 C   0  0  0  0  0  0  0  0  0  0  0  0
   27.2360  -19.8517   -7.7007 C   0  0  0  0  0  0  0  0  0  0  0  0
   28.0975  -20.2366   -8.6904 C   0  0  0  0  0  0  0  0  0  0  0  0
   24.9943  -20.4967  -12.2962 C   0  0  0  0  0  0  0  0  0  0  0  0
   24.7500  -19.2797  -12.6281 O   0  0  0  0  0  0  0  0  0  0  0  0
   21.2408  -21.5586  -16.4388 C   0  0  0  0  0  0  0  0  0  0  0  0
   21.6749  -20.5433  -15.3885 C   0  0  0  0  0  0  0  0  0  0  0  0
   22.8680  -21.0237  -14.6322 C   0  0  2  0  0  0  0  0  0  0  0  0
   23.3164  -22.3552  -15.1566 C   0  0  0  0  0  0  0  0  0  0  0  0
   22.6759  -20.9885  -13.1356 C   0  0  2  0  0  0  0  0  0  0  0  0
   23.9601  -21.4228  -12.5697 N   0  0  0  0  0  0  0  0  0  0  0  0
   21.5645  -21.8355  -12.6611 C   0  0  0  0  0  0  0  0  0  0  0  0
   21.7058  -23.0850  -12.5878 O   0  0  0  0  0  0  0  0  0  0  0  0
   18.5130  -24.5431   -6.0705 N   0  0  0  0  0  0  0  0  0  0  0  0
   17.4661  -25.0556   -6.9013 C   0  0  0  0  0  0  0  0  0  0  0  0
   16.4925  -25.7061   -6.3505 N   0  0  0  0  0  0  0  0  0  0  0  0
   17.5128  -24.8421   -8.3044 N   0  0  0  0  0  0  0  0  0  0  0  0
   18.6357  -24.1665   -8.9322 C   0  0  0  0  0  0  0  0  0  0  0  0
   18.2564  -22.8476   -9.5057 C   0  0  0  0  0  0  0  0  0  0  0  0
   19.2914  -22.1048  -10.2552 C   0  0  0  0  0  0  0  0  0  0  0  0
   19.2518  -22.1380  -11.7438 C   0  0  2  0  0  0  0  0  0  0  0  0
   20.3097  -21.3036  -12.2719 N   0  0  0  0  0  0  0  0  0  0  0  0
   17.9730  -21.8428  -12.3739 C   0  0  0  0  0  0  0  0  0  0  0  0
   16.8737  -22.6857  -12.3219 O   0  0  0  0  0  0  0  0  0  0  0  0
   17.8047  -20.7552  -13.0258 O   0  0  0  0  0  0  0  0  0  0  0  0
  2  1  1  6
  3  2  1  0
  4  3  1  0
  5  4  2  0
  6  5  1  0
  7 12  2  0
  7  6  1  0
  8  7  1  0
  9  8  2  0
  9 10  1  0
 10 11  2  0
 11 12  1  0
 12  4  1  0
 13  2  1  0
 14 13  2  0
 15 16  1  0
 17 16  1  0
 17 19  1  0
 17 18  1  6
 19 21  1  0
 19 20  1  1
 20 13  1  0
 21 31  1  0
 22 21  2  0
 23 24  1  0
 24 25  2  0
 26 24  1  0
 26 27  1  0
 28 27  1  0
 28 29  1  0
 30 29  1  1
 30 32  1  0
 31 30  1  0
 32 34  2  0
 32 33  1  0
M  END
$$$$
