GFE.pdb
     RDKit          3D

 25 25  0  0  1  0  0  0  0  0999 V2000
   32.2989  -23.2964  -11.5588 N   0  0  0  0  0  0  0  0  0  0  0  0
   31.6459  -22.0191  -11.5327 C   0  0  0  0  0  0  0  0  0  0  0  0
   30.6378  -22.0197  -10.4337 C   0  0  0  0  0  0  0  0  0  0  0  0
   29.8639  -23.0064  -10.2472 O   0  0  0  0  0  0  0  0  0  0  0  0
   30.4777  -20.9300   -9.5335 N   0  0  0  0  0  0  0  0  0  0  0  0
   29.4513  -20.8704   -8.5220 C   0  0  1  0  0  0  0  0  0  0  0  0
   30.0345  -20.1455   -7.3320 C   0  0  0  0  0  0  0  0  0  0  0  0
   29.0733  -19.9118   -6.2541 C   0  0  0  0  0  0  0  0  0  0  0  0
   28.1841  -18.8613   -6.3149 C   0  0  0  0  0  0  0  0  0  0  0  0
   27.2599  -18.6239   -5.2983 C   0  0  0  0  0  0  0  0  0  0  0  0
   27.2009  -19.4360   -4.1878 C   0  0  0  0  0  0  0  0  0  0  0  0
   28.0884  -20.4884   -4.1218 C   0  0  0  0  0  0  0  0  0  0  0  0
   29.0067  -20.7215   -5.1355 C   0  0  0  0  0  0  0  0  0  0  0  0
   28.2545  -20.2391   -9.0704 C   0  0  0  0  0  0  0  0  0  0  0  0
   28.2657  -19.2026   -9.7886 O   0  0  0  0  0  0  0  0  0  0  0  0
   26.9719  -20.8026   -8.7957 N   0  0  0  0  0  0  0  0  0  0  0  0
   25.8040  -20.5607   -9.5440 C   0  0  1  0  0  0  0  0  0  0  0  0
   25.8338  -20.9735  -10.9733 C   0  0  0  0  0  0  0  0  0  0  0  0
   24.6684  -20.6661  -11.8234 C   0  0  0  0  0  0  0  0  0  0  0  0
   24.5518  -21.4481  -13.0630 C   0  0  0  0  0  0  0  0  0  0  0  0
   25.4102  -22.2434  -13.4860 O   0  0  0  0  0  0  0  0  0  0  0  0
   24.5591  -21.0636   -8.9148 C   0  0  0  0  0  0  0  0  0  0  0  0
   24.6624  -21.9910   -8.0718 O   0  0  0  0  0  0  0  0  0  0  0  0
   23.3721  -21.2680  -13.8121 O   0  0  0  0  0  0  0  0  0  0  0  0
   23.2930  -20.5837   -9.1908 O   0  0  0  0  0  0  0  0  0  0  0  0
  1  2  1  0
  3  5  1  0
  3  2  1  0
  4  3  2  0
  6  5  1  0
  6 14  1  0
  6  7  1  1
  8  7  1  0
  9  8  2  0
 10  9  1  0
 11 12  1  0
 11 10  2  0
 12 13  2  0
 13  8  1  0
 14 16  1  0
 15 14  2  0
 16 17  1  0
 17 22  1  0
 17 18  1  6
 19 18  1  0
 20 19  1  0
 20 24  1  0
 21 20  2  0
 22 23  2  0
 22 25  1  0
M  END
$$$$
