GFE.pdb
     RDKit          3D

 25 25  0  0  1  0  0  0  0  0999 V2000
   31.3020  -22.2874   -9.6937 N   0  0  0  0  0  0  0  0  0  0  0  0
   30.7244  -20.9773   -9.6020 C   0  0  0  0  0  0  0  0  0  0  0  0
   29.3277  -21.1049   -9.0948 C   0  0  0  0  0  0  0  0  0  0  0  0
   28.7602  -22.2344   -8.9981 O   0  0  0  0  0  0  0  0  0  0  0  0
   28.5485  -19.9852   -8.6913 N   0  0  0  0  0  0  0  0  0  0  0  0
   27.1783  -20.0793   -8.2513 C   0  0  1  0  0  0  0  0  0  0  0  0
   27.0463  -19.2322   -7.0076 C   0  0  0  0  0  0  0  0  0  0  0  0
   27.9210  -19.6514   -5.9124 C   0  0  0  0  0  0  0  0  0  0  0  0
   29.0711  -18.9523   -5.6187 C   0  0  0  0  0  0  0  0  0  0  0  0
   29.9160  -19.3357   -4.5778 C   0  0  0  0  0  0  0  0  0  0  0  0
   29.6305  -20.4350   -3.7992 C   0  0  0  0  0  0  0  0  0  0  0  0
   28.4810  -21.1381   -4.0889 C   0  0  0  0  0  0  0  0  0  0  0  0
   27.6427  -20.7535   -5.1255 C   0  0  0  0  0  0  0  0  0  0  0  0
   26.2840  -19.6821   -9.3348 C   0  0  0  0  0  0  0  0  0  0  0  0
   26.5021  -18.7163  -10.1158 O   0  0  0  0  0  0  0  0  0  0  0  0
   25.0752  -20.4096   -9.5531 N   0  0  0  0  0  0  0  0  0  0  0  0
   24.2647  -20.3078  -10.7001 C   0  0  1  0  0  0  0  0  0  0  0  0
   24.9406  -20.5075  -12.0105 C   0  0  0  0  0  0  0  0  0  0  0  0
   25.1041  -21.8818  -12.5205 C   0  0  0  0  0  0  0  0  0  0  0  0
   25.7668  -22.0089  -13.8268 C   0  0  0  0  0  0  0  0  0  0  0  0
   26.1770  -21.0551  -14.5124 O   0  0  0  0  0  0  0  0  0  0  0  0
   23.0328  -21.1317  -10.6537 C   0  0  0  0  0  0  0  0  0  0  0  0
   22.8940  -21.9236   -9.6867 O   0  0  0  0  0  0  0  0  0  0  0  0
   25.9397  -23.3174  -14.3201 O   0  0  0  0  0  0  0  0  0  0  0  0
   22.0265  -21.0896  -11.5997 O   0  0  0  0  0  0  0  0  0  0  0  0
  1  2  1  0
  3  5  1  0
  3  2  1  0
  4  3  2  0
  6  5  1  0
  6 14  1  0
  6  7  1  1
  8  7  1  0
  9  8  2  0
 10  9  1  0
 11 12  1  0
 11 10  2  0
 12 13  2  0
 13  8  1  0
 14 16  1  0
 15 14  2  0
 16 17  1  0
 17 22  1  0
 17 18  1  6
 19 18  1  0
 20 19  1  0
 20 24  1  0
 21 20  2  0
 22 23  2  0
 22 25  1  0
M  END
$$$$
