GFE.pdb
     RDKit          3D

 25 25  0  0  1  0  0  0  0  0999 V2000
   27.8330  -25.2173  -16.4188 N   0  0  0  0  0  0  0  0  0  0  0  0
   27.5917  -23.8226  -16.6535 C   0  0  0  0  0  0  0  0  0  0  0  0
   26.6884  -23.3071  -15.5847 C   0  0  0  0  0  0  0  0  0  0  0  0
   26.2094  -24.0749  -14.6968 O   0  0  0  0  0  0  0  0  0  0  0  0
   26.3078  -21.9397  -15.4898 N   0  0  0  0  0  0  0  0  0  0  0  0
   25.4997  -21.4051  -14.4215 C   0  0  1  0  0  0  0  0  0  0  0  0
   26.3450  -20.3963  -13.6801 C   0  0  0  0  0  0  0  0  0  0  0  0
   26.7905  -19.2763  -14.5093 C   0  0  0  0  0  0  0  0  0  0  0  0
   26.2138  -18.0314  -14.3853 C   0  0  0  0  0  0  0  0  0  0  0  0
   26.6262  -16.9518  -15.1655 C   0  0  0  0  0  0  0  0  0  0  0  0
   27.6323  -17.0906  -16.0955 C   0  0  0  0  0  0  0  0  0  0  0  0
   28.2126  -18.3342  -16.2236 C   0  0  0  0  0  0  0  0  0  0  0  0
   27.7995  -19.4061  -15.4454 C   0  0  0  0  0  0  0  0  0  0  0  0
   24.2632  -20.8531  -14.9673 C   0  0  0  0  0  0  0  0  0  0  0  0
   24.1264  -20.4629  -16.1586 O   0  0  0  0  0  0  0  0  0  0  0  0
   23.1153  -20.7309  -14.1274 N   0  0  0  0  0  0  0  0  0  0  0  0
   21.8551  -20.2589  -14.5420 C   0  0  1  0  0  0  0  0  0  0  0  0
   21.7519  -18.8015  -14.8241 C   0  0  0  0  0  0  0  0  0  0  0  0
   20.4724  -18.2665  -15.3261 C   0  0  0  0  0  0  0  0  0  0  0  0
   19.9505  -17.0836  -14.6261 C   0  0  0  0  0  0  0  0  0  0  0  0
   19.7786  -17.0027  -13.3964 O   0  0  0  0  0  0  0  0  0  0  0  0
   21.2567  -21.0189  -15.6658 C   0  0  0  0  0  0  0  0  0  0  0  0
   21.9148  -21.0996  -16.7343 O   0  0  0  0  0  0  0  0  0  0  0  0
   19.6272  -15.9702  -15.4268 O   0  0  0  0  0  0  0  0  0  0  0  0
   20.0255  -21.6446  -15.6202 O   0  0  0  0  0  0  0  0  0  0  0  0
  1  2  1  0
  3  5  1  0
  3  2  1  0
  4  3  2  0
  6  5  1  0
  6 14  1  0
  6  7  1  6
  8  7  1  0
  9  8  2  0
 10  9  1  0
 11 12  1  0
 11 10  2  0
 12 13  2  0
 13  8  1  0
 14 16  1  0
 15 14  2  0
 16 17  1  0
 17 22  1  0
 17 18  1  6
 19 18  1  0
 20 19  1  0
 20 24  1  0
 21 20  2  0
 22 23  2  0
 22 25  1  0
M  END
$$$$
