GFE.pdb
     RDKit          3D

 25 25  0  0  1  0  0  0  0  0999 V2000
   28.1405  -17.4092  -13.2318 N   0  0  0  0  0  0  0  0  0  0  0  0
   26.9127  -17.9532  -13.7370 C   0  0  0  0  0  0  0  0  0  0  0  0
   26.8269  -19.3884  -13.3410 C   0  0  0  0  0  0  0  0  0  0  0  0
   27.3440  -20.3022  -14.0516 O   0  0  0  0  0  0  0  0  0  0  0  0
   26.1689  -19.8239  -12.1573 N   0  0  0  0  0  0  0  0  0  0  0  0
   26.1151  -21.2005  -11.7307 C   0  0  1  0  0  0  0  0  0  0  0  0
   25.7346  -21.2035  -10.2689 C   0  0  0  0  0  0  0  0  0  0  0  0
   26.8064  -20.7565   -9.3790 C   0  0  0  0  0  0  0  0  0  0  0  0
   26.5658  -19.8219   -8.3960 C   0  0  0  0  0  0  0  0  0  0  0  0
   27.5740  -19.3851   -7.5376 C   0  0  0  0  0  0  0  0  0  0  0  0
   28.8569  -19.8750   -7.6411 C   0  0  0  0  0  0  0  0  0  0  0  0
   29.1030  -20.8103   -8.6230 C   0  0  0  0  0  0  0  0  0  0  0  0
   28.0970  -21.2425   -9.4753 C   0  0  0  0  0  0  0  0  0  0  0  0
   25.1931  -21.9454  -12.5831 C   0  0  0  0  0  0  0  0  0  0  0  0
   24.9377  -23.1729  -12.4482 O   0  0  0  0  0  0  0  0  0  0  0  0
   24.5205  -21.2743  -13.6486 N   0  0  0  0  0  0  0  0  0  0  0  0
   23.4454  -21.8034  -14.3882 C   0  0  1  0  0  0  0  0  0  0  0  0
   22.1990  -22.0971  -13.6305 C   0  0  0  0  0  0  0  0  0  0  0  0
   21.4163  -20.9695  -13.0909 C   0  0  0  0  0  0  0  0  0  0  0  0
   20.1651  -21.3243  -12.4049 C   0  0  0  0  0  0  0  0  0  0  0  0
   20.0443  -21.4688  -11.1750 O   0  0  0  0  0  0  0  0  0  0  0  0
   23.1063  -21.0346  -15.6099 C   0  0  0  0  0  0  0  0  0  0  0  0
   23.6443  -19.9081  -15.7610 O   0  0  0  0  0  0  0  0  0  0  0  0
   19.0312  -21.5099  -13.2204 O   0  0  0  0  0  0  0  0  0  0  0  0
   22.2398  -21.4705  -16.5940 O   0  0  0  0  0  0  0  0  0  0  0  0
  1  2  1  0
  3  5  1  0
  3  2  1  0
  4  3  2  0
  6  5  1  0
  6 14  1  0
  6  7  1  1
  8  7  1  0
  9  8  2  0
 10  9  1  0
 11 12  1  0
 11 10  2  0
 12 13  2  0
 13  8  1  0
 14 16  1  0
 15 14  2  0
 16 17  1  0
 17 22  1  0
 17 18  1  1
 19 18  1  0
 20 19  1  0
 20 24  1  0
 21 20  2  0
 22 23  2  0
 22 25  1  0
M  END
$$$$
