GFE.pdb
     RDKit          3D

 25 25  0  0  1  0  0  0  0  0999 V2000
   26.8806  -25.2020  -16.9859 N   0  0  0  0  0  0  0  0  0  0  0  0
   26.9360  -23.7922  -16.7251 C   0  0  0  0  0  0  0  0  0  0  0  0
   26.0574  -23.4866  -15.5595 C   0  0  0  0  0  0  0  0  0  0  0  0
   25.2480  -24.3465  -15.0984 O   0  0  0  0  0  0  0  0  0  0  0  0
   26.0670  -22.2286  -14.8955 N   0  0  0  0  0  0  0  0  0  0  0  0
   25.2388  -21.9173  -13.7565 C   0  0  1  0  0  0  0  0  0  0  0  0
   26.0799  -21.1095  -12.7965 C   0  0  0  0  0  0  0  0  0  0  0  0
   25.4123  -20.8187  -11.5275 C   0  0  0  0  0  0  0  0  0  0  0  0
   25.9496  -21.2434  -10.3322 C   0  0  0  0  0  0  0  0  0  0  0  0
   25.3288  -20.9744   -9.1130 C   0  0  0  0  0  0  0  0  0  0  0  0
   24.1472  -20.2693   -9.0577 C   0  0  0  0  0  0  0  0  0  0  0  0
   23.6053  -19.8422  -10.2508 C   0  0  0  0  0  0  0  0  0  0  0  0
   24.2261  -20.1118  -11.4621 C   0  0  0  0  0  0  0  0  0  0  0  0
   24.0270  -21.2343  -14.1997 C   0  0  0  0  0  0  0  0  0  0  0  0
   24.0200  -20.1563  -14.8540 O   0  0  0  0  0  0  0  0  0  0  0  0
   22.7502  -21.7925  -13.8897 N   0  0  0  0  0  0  0  0  0  0  0  0
   21.5107  -21.2038  -14.2054 C   0  0  1  0  0  0  0  0  0  0  0  0
   20.8770  -21.6341  -15.4810 C   0  0  0  0  0  0  0  0  0  0  0  0
   20.5858  -23.0664  -15.6790 C   0  0  0  0  0  0  0  0  0  0  0  0
   20.0608  -23.4398  -17.0006 C   0  0  0  0  0  0  0  0  0  0  0  0
   20.1618  -22.7458  -18.0283 O   0  0  0  0  0  0  0  0  0  0  0  0
   20.5081  -21.2666  -13.1148 C   0  0  0  0  0  0  0  0  0  0  0  0
   19.4721  -20.5631  -13.2304 O   0  0  0  0  0  0  0  0  0  0  0  0
   19.3975  -24.6799  -17.0868 O   0  0  0  0  0  0  0  0  0  0  0  0
   20.6334  -22.0448  -11.9799 O   0  0  0  0  0  0  0  0  0  0  0  0
  1  2  1  0
  3  5  1  0
  3  2  1  0
  4  3  2  0
  6  5  1  0
  6 14  1  0
  6  7  1  1
  8  7  1  0
  9  8  2  0
 10  9  1  0
 11 12  1  0
 11 10  2  0
 12 13  2  0
 13  8  1  0
 14 16  1  0
 15 14  2  0
 16 17  1  0
 17 22  1  0
 17 18  1  6
 19 18  1  0
 20 19  1  0
 20 24  1  0
 21 20  2  0
 22 23  2  0
 22 25  1  0
M  END
$$$$
