GFE.pdb
     RDKit          3D

 25 25  0  0  1  0  0  0  0  0999 V2000
   30.3440  -22.3857  -13.1689 N   0  0  0  0  0  0  0  0  0  0  0  0
   30.4332  -21.1863  -12.3866 C   0  0  0  0  0  0  0  0  0  0  0  0
   29.6644  -21.3808  -11.1236 C   0  0  0  0  0  0  0  0  0  0  0  0
   28.8448  -22.3387  -10.9896 O   0  0  0  0  0  0  0  0  0  0  0  0
   29.7958  -20.5182  -10.0002 N   0  0  0  0  0  0  0  0  0  0  0  0
   28.9874  -20.6232   -8.8104 C   0  0  1  0  0  0  0  0  0  0  0  0
   29.7473  -19.9530   -7.6900 C   0  0  0  0  0  0  0  0  0  0  0  0
   29.0260  -19.9322   -6.4174 C   0  0  0  0  0  0  0  0  0  0  0  0
   28.1385  -18.9202   -6.1241 C   0  0  0  0  0  0  0  0  0  0  0  0
   27.4407  -18.8844   -4.9174 C   0  0  0  0  0  0  0  0  0  0  0  0
   27.6138  -19.8660   -3.9672 C   0  0  0  0  0  0  0  0  0  0  0  0
   28.5007  -20.8808   -4.2556 C   0  0  0  0  0  0  0  0  0  0  0  0
   29.1933  -20.9130   -5.4576 C   0  0  0  0  0  0  0  0  0  0  0  0
   27.6688  -20.0472   -9.0576 C   0  0  0  0  0  0  0  0  0  0  0  0
   27.4737  -18.8617   -9.4406 O   0  0  0  0  0  0  0  0  0  0  0  0
   26.5027  -20.8472   -8.8622 N   0  0  0  0  0  0  0  0  0  0  0  0
   25.2455  -20.6027   -9.4473 C   0  0  1  0  0  0  0  0  0  0  0  0
   24.9838  -21.2587  -10.7570 C   0  0  0  0  0  0  0  0  0  0  0  0
   23.6958  -21.0070  -11.4300 C   0  0  0  0  0  0  0  0  0  0  0  0
   23.7670  -20.2736  -12.7024 C   0  0  0  0  0  0  0  0  0  0  0  0
   24.6835  -20.3835  -13.5367 O   0  0  0  0  0  0  0  0  0  0  0  0
   24.0939  -20.8373   -8.5432 C   0  0  0  0  0  0  0  0  0  0  0  0
   24.2445  -21.6606   -7.6047 O   0  0  0  0  0  0  0  0  0  0  0  0
   22.7080  -19.3856  -12.9770 O   0  0  0  0  0  0  0  0  0  0  0  0
   22.8664  -20.2137   -8.6607 O   0  0  0  0  0  0  0  0  0  0  0  0
  1  2  1  0
  3  5  1  0
  3  2  1  0
  4  3  2  0
  6  5  1  0
  6 14  1  0
  6  7  1  1
  8  7  1  0
  9  8  2  0
 10  9  1  0
 11 12  1  0
 11 10  2  0
 12 13  2  0
 13  8  1  0
 14 16  1  0
 15 14  2  0
 16 17  1  0
 17 22  1  0
 17 18  1  6
 19 18  1  0
 20 19  1  0
 20 24  1  0
 21 20  2  0
 22 23  2  0
 22 25  1  0
M  END
$$$$
