GFE.pdb
     RDKit          3D

 25 25  0  0  1  0  0  0  0  0999 V2000
   31.4465  -22.2179   -9.9658 N   0  0  0  0  0  0  0  0  0  0  0  0
   30.7732  -20.9533   -9.8876 C   0  0  0  0  0  0  0  0  0  0  0  0
   29.3871  -21.1798   -9.3862 C   0  0  0  0  0  0  0  0  0  0  0  0
   28.9422  -22.3486   -9.1778 O   0  0  0  0  0  0  0  0  0  0  0  0
   28.4828  -20.1165   -9.1119 N   0  0  0  0  0  0  0  0  0  0  0  0
   27.1062  -20.3137   -8.7297 C   0  0  1  0  0  0  0  0  0  0  0  0
   26.8140  -19.3610   -7.5945 C   0  0  0  0  0  0  0  0  0  0  0  0
   27.6019  -19.6196   -6.3892 C   0  0  0  0  0  0  0  0  0  0  0  0
   27.3069  -20.6845   -5.5665 C   0  0  0  0  0  0  0  0  0  0  0  0
   28.0475  -20.9477   -4.4148 C   0  0  0  0  0  0  0  0  0  0  0  0
   29.1087  -20.1477   -4.0541 C   0  0  0  0  0  0  0  0  0  0  0  0
   29.4080  -19.0808   -4.8737 C   0  0  0  0  0  0  0  0  0  0  0  0
   28.6687  -18.8221   -6.0191 C   0  0  0  0  0  0  0  0  0  0  0  0
   26.2409  -20.1321   -9.8915 C   0  0  0  0  0  0  0  0  0  0  0  0
   26.0996  -19.0401  -10.5062 O   0  0  0  0  0  0  0  0  0  0  0  0
   25.4903  -21.2390  -10.3908 N   0  0  0  0  0  0  0  0  0  0  0  0
   24.6791  -21.2143  -11.5414 C   0  0  1  0  0  0  0  0  0  0  0  0
   24.7628  -22.3985  -12.4385 C   0  0  0  0  0  0  0  0  0  0  0  0
   23.9062  -22.4398  -13.6384 C   0  0  0  0  0  0  0  0  0  0  0  0
   24.0868  -23.6036  -14.5184 C   0  0  0  0  0  0  0  0  0  0  0  0
   24.8591  -24.5528  -14.2934 O   0  0  0  0  0  0  0  0  0  0  0  0
   23.2543  -20.8986  -11.2787 C   0  0  0  0  0  0  0  0  0  0  0  0
   22.7930  -21.1760  -10.1422 O   0  0  0  0  0  0  0  0  0  0  0  0
   23.3182  -23.6250  -15.6992 O   0  0  0  0  0  0  0  0  0  0  0  0
   22.3982  -20.3208  -12.1965 O   0  0  0  0  0  0  0  0  0  0  0  0
  1  2  1  0
  3  5  1  0
  3  2  1  0
  4  3  2  0
  6  5  1  0
  6 14  1  0
  6  7  1  1
  8  7  1  0
  9  8  2  0
 10  9  1  0
 11 12  1  0
 11 10  2  0
 12 13  2  0
 13  8  1  0
 14 16  1  0
 15 14  2  0
 16 17  1  0
 17 22  1  0
 17 18  1  1
 19 18  1  0
 20 19  1  0
 20 24  1  0
 21 20  2  0
 22 23  2  0
 22 25  1  0
M  END
$$$$
