GFE.pdb
     RDKit          3D

 25 25  0  0  1  0  0  0  0  0999 V2000
   24.9302  -24.9169  -15.6063 N   0  0  0  0  0  0  0  0  0  0  0  0
   25.4443  -23.5980  -15.3726 C   0  0  0  0  0  0  0  0  0  0  0  0
   25.1179  -23.1984  -13.9733 C   0  0  0  0  0  0  0  0  0  0  0  0
   24.3677  -23.9108  -13.2405 O   0  0  0  0  0  0  0  0  0  0  0  0
   25.6179  -22.0090  -13.3743 N   0  0  0  0  0  0  0  0  0  0  0  0
   25.3913  -21.6494  -11.9962 C   0  0  1  0  0  0  0  0  0  0  0  0
   26.6108  -20.8946  -11.5222 C   0  0  0  0  0  0  0  0  0  0  0  0
   26.5339  -20.4664  -10.1253 C   0  0  0  0  0  0  0  0  0  0  0  0
   26.0807  -19.2080   -9.7953 C   0  0  0  0  0  0  0  0  0  0  0  0
   25.9989  -18.7829   -8.4699 C   0  0  0  0  0  0  0  0  0  0  0  0
   26.3706  -19.6106   -7.4340 C   0  0  0  0  0  0  0  0  0  0  0  0
   26.8248  -20.8707   -7.7587 C   0  0  0  0  0  0  0  0  0  0  0  0
   26.9048  -21.2902   -9.0789 C   0  0  0  0  0  0  0  0  0  0  0  0
   24.1471  -20.8942  -11.8816 C   0  0  0  0  0  0  0  0  0  0  0  0
   23.6481  -20.5118  -10.7885 O   0  0  0  0  0  0  0  0  0  0  0  0
   23.4209  -20.5497  -13.0615 N   0  0  0  0  0  0  0  0  0  0  0  0
   22.2525  -19.7644  -13.0929 C   0  0  1  0  0  0  0  0  0  0  0  0
   22.0422  -18.9356  -14.3107 C   0  0  0  0  0  0  0  0  0  0  0  0
   22.6479  -19.3773  -15.5809 C   0  0  0  0  0  0  0  0  0  0  0  0
   22.3777  -18.5300  -16.7518 C   0  0  0  0  0  0  0  0  0  0  0  0
   23.2269  -17.8353  -17.3385 O   0  0  0  0  0  0  0  0  0  0  0  0
   21.0071  -20.5081  -12.7855 C   0  0  0  0  0  0  0  0  0  0  0  0
   19.9880  -19.8402  -12.4742 O   0  0  0  0  0  0  0  0  0  0  0  0
   21.0516  -18.5190  -17.2280 O   0  0  0  0  0  0  0  0  0  0  0  0
   20.8888  -21.8844  -12.8172 O   0  0  0  0  0  0  0  0  0  0  0  0
  1  2  1  0
  3  5  1  0
  3  2  1  0
  4  3  2  0
  6  5  1  0
  6 14  1  0
  6  7  1  6
  8  7  1  0
  9  8  2  0
 10  9  1  0
 11 12  1  0
 11 10  2  0
 12 13  2  0
 13  8  1  0
 14 16  1  0
 15 14  2  0
 16 17  1  0
 17 22  1  0
 17 18  1  6
 19 18  1  0
 20 19  1  0
 20 24  1  0
 21 20  2  0
 22 23  2  0
 22 25  1  0
M  END
$$$$
