GFE.pdb
     RDKit          3D

 25 25  0  0  1  0  0  0  0  0999 V2000
   22.4234  -32.1332  -13.3550 N   0  0  0  0  0  0  0  0  0  0  0  0
   22.4431  -30.7466  -13.7231 C   0  0  0  0  0  0  0  0  0  0  0  0
   21.3622  -30.0387  -12.9784 C   0  0  0  0  0  0  0  0  0  0  0  0
   20.4047  -30.6730  -12.4416 O   0  0  0  0  0  0  0  0  0  0  0  0
   21.3316  -28.6251  -12.8221 N   0  0  0  0  0  0  0  0  0  0  0  0
   20.2839  -27.9182  -12.1274 C   0  0  1  0  0  0  0  0  0  0  0  0
   20.8364  -27.5019  -10.7846 C   0  0  0  0  0  0  0  0  0  0  0  0
   21.2687  -28.6236   -9.9507 C   0  0  0  0  0  0  0  0  0  0  0  0
   22.5910  -29.0083   -9.9131 C   0  0  0  0  0  0  0  0  0  0  0  0
   23.0219  -30.0736   -9.1233 C   0  0  0  0  0  0  0  0  0  0  0  0
   22.1359  -30.7857   -8.3460 C   0  0  0  0  0  0  0  0  0  0  0  0
   20.8118  -30.4049   -8.3801 C   0  0  0  0  0  0  0  0  0  0  0  0
   20.3867  -29.3443   -9.1673 C   0  0  0  0  0  0  0  0  0  0  0  0
   19.8150  -26.8033  -12.9451 C   0  0  0  0  0  0  0  0  0  0  0  0
   20.5176  -26.2152  -13.8116 O   0  0  0  0  0  0  0  0  0  0  0  0
   18.4819  -26.3201  -12.7797 N   0  0  0  0  0  0  0  0  0  0  0  0
   17.8788  -25.3215  -13.5683 C   0  0  1  0  0  0  0  0  0  0  0  0
   18.4981  -23.9695  -13.5153 C   0  0  0  0  0  0  0  0  0  0  0  0
   17.9475  -22.9045  -14.3742 C   0  0  0  0  0  0  0  0  0  0  0  0
   17.5938  -21.6489  -13.6957 C   0  0  0  0  0  0  0  0  0  0  0  0
   18.2967  -21.0792  -12.8417 O   0  0  0  0  0  0  0  0  0  0  0  0
   17.6637  -25.7066  -14.9839 C   0  0  0  0  0  0  0  0  0  0  0  0
   18.6250  -26.2338  -15.5999 O   0  0  0  0  0  0  0  0  0  0  0  0
   16.3628  -21.0648  -14.0546 O   0  0  0  0  0  0  0  0  0  0  0  0
   16.4799  -25.5261  -15.6732 O   0  0  0  0  0  0  0  0  0  0  0  0
  1  2  1  0
  3  5  1  0
  3  2  1  0
  4  3  2  0
  6  5  1  0
  6 14  1  0
  6  7  1  1
  8  7  1  0
  9  8  2  0
 10  9  1  0
 11 12  1  0
 11 10  2  0
 12 13  2  0
 13  8  1  0
 14 16  1  0
 15 14  2  0
 16 17  1  0
 17 22  1  0
 17 18  1  6
 19 18  1  0
 20 19  1  0
 20 24  1  0
 21 20  2  0
 22 23  2  0
 22 25  1  0
M  END
$$$$
