GFE.pdb
     RDKit          3D

 25 25  0  0  1  0  0  0  0  0999 V2000
   28.3037  -23.2374  -16.5099 N   0  0  0  0  0  0  0  0  0  0  0  0
   27.8808  -21.8769  -16.3400 C   0  0  0  0  0  0  0  0  0  0  0  0
   26.9704  -21.8029  -15.1611 C   0  0  0  0  0  0  0  0  0  0  0  0
   26.3794  -22.8327  -14.7167 O   0  0  0  0  0  0  0  0  0  0  0  0
   26.7064  -20.5904  -14.4655 N   0  0  0  0  0  0  0  0  0  0  0  0
   25.8359  -20.4973  -13.3194 C   0  0  1  0  0  0  0  0  0  0  0  0
   26.5357  -19.6393  -12.2919 C   0  0  0  0  0  0  0  0  0  0  0  0
   27.7551  -20.2411  -11.7522 C   0  0  0  0  0  0  0  0  0  0  0  0
   27.7225  -20.9899  -10.5963 C   0  0  0  0  0  0  0  0  0  0  0  0
   28.8738  -21.5725  -10.0679 C   0  0  0  0  0  0  0  0  0  0  0  0
   30.0950  -21.4202  -10.6858 C   0  0  0  0  0  0  0  0  0  0  0  0
   30.1332  -20.6718  -11.8426 C   0  0  0  0  0  0  0  0  0  0  0  0
   28.9854  -20.0936  -12.3654 C   0  0  0  0  0  0  0  0  0  0  0  0
   24.5328  -19.9830  -13.7304 C   0  0  0  0  0  0  0  0  0  0  0  0
   24.3702  -19.0300  -14.5400 O   0  0  0  0  0  0  0  0  0  0  0  0
   23.3445  -20.5712  -13.2013 N   0  0  0  0  0  0  0  0  0  0  0  0
   22.0320  -20.1920  -13.5423 C   0  0  1  0  0  0  0  0  0  0  0  0
   21.4777  -20.7721  -14.7954 C   0  0  0  0  0  0  0  0  0  0  0  0
   20.9361  -22.1435  -14.7616 C   0  0  0  0  0  0  0  0  0  0  0  0
   20.2389  -22.5904  -15.9765 C   0  0  0  0  0  0  0  0  0  0  0  0
   19.7497  -23.7225  -16.1404 O   0  0  0  0  0  0  0  0  0  0  0  0
   21.0444  -20.3549  -12.4484 C   0  0  0  0  0  0  0  0  0  0  0  0
   21.4043  -20.9898  -11.4243 O   0  0  0  0  0  0  0  0  0  0  0  0
   20.1281  -21.6503  -17.0202 O   0  0  0  0  0  0  0  0  0  0  0  0
   19.7556  -19.8573  -12.4765 O   0  0  0  0  0  0  0  0  0  0  0  0
  1  2  1  0
  3  5  1  0
  3  2  1  0
  4  3  2  0
  6  5  1  0
  6 14  1  0
  6  7  1  1
  8  7  1  0
  9  8  2  0
 10  9  1  0
 11 12  1  0
 11 10  2  0
 12 13  2  0
 13  8  1  0
 14 16  1  0
 15 14  2  0
 16 17  1  0
 17 22  1  0
 17 18  1  6
 19 18  1  0
 20 19  1  0
 20 24  1  0
 21 20  2  0
 22 23  2  0
 22 25  1  0
M  END
$$$$
