GFE.pdb
     RDKit          3D

 25 25  0  0  1  0  0  0  0  0999 V2000
   28.0167  -23.0744  -15.9826 N   0  0  0  0  0  0  0  0  0  0  0  0
   27.8093  -21.7206  -15.5551 C   0  0  0  0  0  0  0  0  0  0  0  0
   26.8523  -21.7216  -14.4113 C   0  0  0  0  0  0  0  0  0  0  0  0
   26.1030  -22.7171  -14.1772 O   0  0  0  0  0  0  0  0  0  0  0  0
   26.7166  -20.6226  -13.5184 N   0  0  0  0  0  0  0  0  0  0  0  0
   25.7425  -20.5687  -12.4561 C   0  0  1  0  0  0  0  0  0  0  0  0
   26.3504  -19.7676  -11.3290 C   0  0  0  0  0  0  0  0  0  0  0  0
   27.4042  -20.4763  -10.6026 C   0  0  0  0  0  0  0  0  0  0  0  0
   28.5639  -20.8628  -11.2378 C   0  0  0  0  0  0  0  0  0  0  0  0
   29.5798  -21.5374  -10.5618 C   0  0  0  0  0  0  0  0  0  0  0  0
   29.4611  -21.8447   -9.2247 C   0  0  0  0  0  0  0  0  0  0  0  0
   28.3027  -21.4603   -8.5843 C   0  0  0  0  0  0  0  0  0  0  0  0
   27.2940  -20.7891   -9.2605 C   0  0  0  0  0  0  0  0  0  0  0  0
   24.4892  -20.0182  -12.9637 C   0  0  0  0  0  0  0  0  0  0  0  0
   24.4156  -19.0798  -13.8028 O   0  0  0  0  0  0  0  0  0  0  0  0
   23.2477  -20.5506  -12.5019 N   0  0  0  0  0  0  0  0  0  0  0  0
   22.0355  -20.5160  -13.2175 C   0  0  1  0  0  0  0  0  0  0  0  0
   22.0683  -21.0517  -14.6053 C   0  0  0  0  0  0  0  0  0  0  0  0
   21.1391  -22.1385  -14.9669 C   0  0  0  0  0  0  0  0  0  0  0  0
   20.5899  -22.0891  -16.3298 C   0  0  0  0  0  0  0  0  0  0  0  0
   21.2378  -22.3192  -17.3668 O   0  0  0  0  0  0  0  0  0  0  0  0
   20.8810  -21.1010  -12.4939 C   0  0  0  0  0  0  0  0  0  0  0  0
   19.7886  -20.4794  -12.5345 O   0  0  0  0  0  0  0  0  0  0  0  0
   19.2263  -21.7540  -16.4471 O   0  0  0  0  0  0  0  0  0  0  0  0
   20.9225  -22.2820  -11.7778 O   0  0  0  0  0  0  0  0  0  0  0  0
  1  2  1  0
  3  5  1  0
  3  2  1  0
  4  3  2  0
  6  5  1  0
  6 14  1  0
  6  7  1  1
  8  7  1  0
  9  8  2  0
 10  9  1  0
 11 12  1  0
 11 10  2  0
 12 13  2  0
 13  8  1  0
 14 16  1  0
 15 14  2  0
 16 17  1  0
 17 22  1  0
 17 18  1  6
 19 18  1  0
 20 19  1  0
 20 24  1  0
 21 20  2  0
 22 23  2  0
 22 25  1  0
M  END
$$$$
