GFE.pdb
     RDKit          3D

 25 25  0  0  1  0  0  0  0  0999 V2000
   24.8734  -11.5654  -19.6056 N   0  0  0  0  0  0  0  0  0  0  0  0
   24.2751  -10.2773  -19.8095 C   0  0  0  0  0  0  0  0  0  0  0  0
   23.7589   -9.7776  -18.5027 C   0  0  0  0  0  0  0  0  0  0  0  0
   23.0141  -10.4942  -17.7685 O   0  0  0  0  0  0  0  0  0  0  0  0
   24.0619   -8.4825  -17.9982 N   0  0  0  0  0  0  0  0  0  0  0  0
   23.5349   -7.9609  -16.7612 C   0  0  1  0  0  0  0  0  0  0  0  0
   24.7127   -7.6225  -15.8780 C   0  0  0  0  0  0  0  0  0  0  0  0
   25.6231   -8.7453  -15.6524 C   0  0  0  0  0  0  0  0  0  0  0  0
   25.3410   -9.7053  -14.7055 C   0  0  0  0  0  0  0  0  0  0  0  0
   26.1957  -10.7832  -14.4776 C   0  0  0  0  0  0  0  0  0  0  0  0
   27.3616  -10.9295  -15.1955 C   0  0  0  0  0  0  0  0  0  0  0  0
   27.6487   -9.9717  -16.1442 C   0  0  0  0  0  0  0  0  0  0  0  0
   26.7957   -8.9005  -16.3681 C   0  0  0  0  0  0  0  0  0  0  0  0
   22.6583   -6.8266  -17.0378 C   0  0  0  0  0  0  0  0  0  0  0  0
   22.8097   -6.0337  -18.0066 O   0  0  0  0  0  0  0  0  0  0  0  0
   21.5494   -6.5668  -16.1771 N   0  0  0  0  0  0  0  0  0  0  0  0
   20.4608   -5.7299  -16.4890 C   0  0  1  0  0  0  0  0  0  0  0  0
   19.7987   -5.9630  -17.8010 C   0  0  0  0  0  0  0  0  0  0  0  0
   18.7368   -5.0350  -18.2329 C   0  0  0  0  0  0  0  0  0  0  0  0
   18.1287   -5.3169  -19.5415 C   0  0  0  0  0  0  0  0  0  0  0  0
   18.4710   -6.2412  -20.3009 O   0  0  0  0  0  0  0  0  0  0  0  0
   19.4290   -5.6470  -15.4274 C   0  0  0  0  0  0  0  0  0  0  0  0
   18.8903   -4.5297  -15.2203 O   0  0  0  0  0  0  0  0  0  0  0  0
   17.0822   -4.4644  -19.9459 O   0  0  0  0  0  0  0  0  0  0  0  0
   19.0184   -6.7128  -14.6497 O   0  0  0  0  0  0  0  0  0  0  0  0
  1  2  1  0
  3  5  1  0
  3  2  1  0
  4  3  2  0
  6  5  1  0
  6 14  1  0
  6  7  1  1
  8  7  1  0
  9  8  2  0
 10  9  1  0
 11 12  1  0
 11 10  2  0
 12 13  2  0
 13  8  1  0
 14 16  1  0
 15 14  2  0
 16 17  1  0
 17 22  1  0
 17 18  1  6
 19 18  1  0
 20 19  1  0
 20 24  1  0
 21 20  2  0
 22 23  2  0
 22 25  1  0
M  END
$$$$
