DSH.pdb
     RDKit          3D

 25 25  0  0  1  0  0  0  0  0999 V2000
   21.0326  -11.7748  -18.0205 N   0  0  0  0  0  0  0  0  0  0  0  0
   20.1616  -11.0084  -17.1566 C   0  0  1  0  0  0  0  0  0  0  0  0
   19.4969  -11.9897  -16.1882 C   0  0  0  0  0  0  0  0  0  0  0  0
   18.6939  -12.9586  -16.9338 C   0  0  0  0  0  0  0  0  0  0  0  0
   17.7296  -12.5888  -17.6396 O   0  0  0  0  0  0  0  0  0  0  0  0
   20.9686  -10.0404  -16.4092 C   0  0  0  0  0  0  0  0  0  0  0  0
   20.5559   -9.5325  -15.3194 O   0  0  0  0  0  0  0  0  0  0  0  0
   18.9848  -14.3074  -16.8740 O   0  0  0  0  0  0  0  0  0  0  0  0
   25.2618   -7.8148  -15.6740 O   0  0  0  0  0  0  0  0  0  0  0  0
   24.5097   -8.7446  -16.3587 C   0  0  0  0  0  0  0  0  0  0  0  0
   23.0304   -8.6307  -16.0785 C   0  0  2  0  0  0  0  0  0  0  0  0
   22.2608   -9.5957  -16.8343 N   0  0  0  0  0  0  0  0  0  0  0  0
   22.5200   -7.2480  -16.2718 C   0  0  0  0  0  0  0  0  0  0  0  0
   22.4066   -6.7785  -17.4337 O   0  0  0  0  0  0  0  0  0  0  0  0
   22.1422   -6.4016  -15.1925 N   0  0  0  0  0  0  0  0  0  0  0  0
   21.6422   -5.0512  -15.4180 C   0  0  1  0  0  0  0  0  0  0  0  0
   20.1511   -5.0091  -15.4663 C   0  0  0  0  0  0  0  0  0  0  0  0
   19.6682   -3.6616  -15.7855 C   0  0  0  0  0  0  0  0  0  0  0  0
   20.2849   -2.7190  -16.5921 C   0  0  0  0  0  0  0  0  0  0  0  0
   19.5346   -1.6066  -16.6408 N   0  0  0  0  0  0  0  0  0  0  0  0
   18.4472   -1.8125  -15.8823 C   0  0  0  0  0  0  0  0  0  0  0  0
   18.5382   -3.0602  -15.3691 N   0  0  0  0  0  0  0  0  0  0  0  0
   22.1959   -4.1066  -14.4457 C   0  0  0  0  0  0  0  0  0  0  0  0
   22.8306   -4.5931  -13.4452 O   0  0  0  0  0  0  0  0  0  0  0  0
   22.1078   -2.7350  -14.4918 O   0  0  0  0  0  0  0  0  0  0  0  0
  2  1  1  6
  3  2  1  0
  4  3  1  0
  5  4  2  0
  6  7  2  0
  6  2  1  0
  8  4  1  0
  9 10  1  0
 11 10  1  6
 11 12  1  0
 12  6  1  0
 13 15  1  0
 13 11  1  0
 14 13  2  0
 16 23  1  0
 16 15  1  0
 16 17  1  1
 17 18  1  0
 18 22  1  0
 19 18  2  0
 19 20  1  0
 20 21  1  0
 22 21  2  0
 23 25  1  0
 24 23  2  0
M  END
$$$$
