DSH.pdb
     RDKit          3D

 25 25  0  0  1  0  0  0  0  0999 V2000
   18.1657  -13.2853  -17.6001 N   0  0  0  0  0  0  0  0  0  0  0  0
   17.8608  -12.2092  -16.6828 C   0  0  1  0  0  0  0  0  0  0  0  0
   18.3230  -12.6480  -15.2913 C   0  0  0  0  0  0  0  0  0  0  0  0
   17.4454  -13.7026  -14.7844 C   0  0  0  0  0  0  0  0  0  0  0  0
   16.2110  -13.5232  -14.6895 O   0  0  0  0  0  0  0  0  0  0  0  0
   18.5958  -11.0113  -17.0973 C   0  0  0  0  0  0  0  0  0  0  0  0
   19.8306  -11.0597  -17.3951 O   0  0  0  0  0  0  0  0  0  0  0  0
   17.9633  -14.9234  -14.3983 O   0  0  0  0  0  0  0  0  0  0  0  0
   16.8517   -7.0968  -17.3289 O   0  0  0  0  0  0  0  0  0  0  0  0
   17.8219   -7.4948  -18.2228 C   0  0  0  0  0  0  0  0  0  0  0  0
   18.7354   -8.5614  -17.6680 C   0  0  2  0  0  0  0  0  0  0  0  0
   17.9979   -9.7150  -17.1992 N   0  0  0  0  0  0  0  0  0  0  0  0
   19.6551   -8.0359  -16.6251 C   0  0  0  0  0  0  0  0  0  0  0  0
   19.3301   -8.1032  -15.4113 O   0  0  0  0  0  0  0  0  0  0  0  0
   20.9142   -7.4458  -16.9256 N   0  0  0  0  0  0  0  0  0  0  0  0
   21.7650   -6.8856  -15.8831 C   0  0  1  0  0  0  0  0  0  0  0  0
   23.2142   -7.0187  -16.2142 C   0  0  0  0  0  0  0  0  0  0  0  0
   23.6279   -8.4256  -16.2304 C   0  0  0  0  0  0  0  0  0  0  0  0
   22.8438   -9.5335  -15.9523 C   0  0  0  0  0  0  0  0  0  0  0  0
   23.5808  -10.6494  -16.0723 N   0  0  0  0  0  0  0  0  0  0  0  0
   24.8234  -10.2839  -16.4221 C   0  0  0  0  0  0  0  0  0  0  0  0
   24.8409   -8.9351  -16.5151 N   0  0  0  0  0  0  0  0  0  0  0  0
   21.3887   -5.5055  -15.5699 C   0  0  0  0  0  0  0  0  0  0  0  0
   20.5981   -4.9100  -16.3829 O   0  0  0  0  0  0  0  0  0  0  0  0
   21.7972   -4.7700  -14.4821 O   0  0  0  0  0  0  0  0  0  0  0  0
  2  1  1  6
  3  2  1  0
  4  3  1  0
  5  4  2  0
  6  7  2  0
  6  2  1  0
  8  4  1  0
  9 10  1  0
 11 10  1  1
 11 12  1  0
 12  6  1  0
 13 15  1  0
 13 11  1  0
 14 13  2  0
 16 23  1  0
 16 15  1  0
 16 17  1  6
 17 18  1  0
 18 22  1  0
 19 18  2  0
 19 20  1  0
 20 21  1  0
 22 21  2  0
 23 25  1  0
 24 23  2  0
M  END
$$$$
