DSH.pdb
     RDKit          3D

 25 25  0  0  1  0  0  0  0  0999 V2000
   20.4599  -12.4081  -18.1921 N   0  0  0  0  0  0  0  0  0  0  0  0
   20.4803  -11.0313  -18.6351 C   0  0  1  0  0  0  0  0  0  0  0  0
   19.0267  -10.5728  -18.7744 C   0  0  0  0  0  0  0  0  0  0  0  0
   18.3655  -11.3290  -19.8377 C   0  0  0  0  0  0  0  0  0  0  0  0
   18.8522  -11.3820  -20.9888 O   0  0  0  0  0  0  0  0  0  0  0  0
   21.1642  -10.2193  -17.6253 C   0  0  0  0  0  0  0  0  0  0  0  0
   20.8834  -10.3207  -16.3898 O   0  0  0  0  0  0  0  0  0  0  0  0
   17.1853  -12.0029  -19.5920 O   0  0  0  0  0  0  0  0  0  0  0  0
   23.9537   -7.0088  -18.4590 O   0  0  0  0  0  0  0  0  0  0  0  0
   24.1572   -7.9031  -17.4306 C   0  0  0  0  0  0  0  0  0  0  0  0
   22.8757   -8.5125  -16.9145 C   0  0  2  0  0  0  0  0  0  0  0  0
   22.1835   -9.2648  -17.9389 N   0  0  0  0  0  0  0  0  0  0  0  0
   21.9862   -7.5082  -16.2744 C   0  0  0  0  0  0  0  0  0  0  0  0
   21.1015   -6.9293  -16.9568 O   0  0  0  0  0  0  0  0  0  0  0  0
   22.0781   -7.1532  -14.8998 N   0  0  0  0  0  0  0  0  0  0  0  0
   21.1899   -6.1627  -14.3043 C   0  0  1  0  0  0  0  0  0  0  0  0
   20.8593   -6.4906  -12.8863 C   0  0  0  0  0  0  0  0  0  0  0  0
   19.9742   -7.6569  -12.8037 C   0  0  0  0  0  0  0  0  0  0  0  0
   19.5330   -8.4506  -13.8501 C   0  0  0  0  0  0  0  0  0  0  0  0
   18.7366   -9.4217  -13.3752 N   0  0  0  0  0  0  0  0  0  0  0  0
   18.6552   -9.2704  -12.0445 C   0  0  0  0  0  0  0  0  0  0  0  0
   19.4084   -8.1988  -11.7091 N   0  0  0  0  0  0  0  0  0  0  0  0
   21.7236   -4.8073  -14.4538 C   0  0  0  0  0  0  0  0  0  0  0  0
   22.9597   -4.6908  -14.7685 O   0  0  0  0  0  0  0  0  0  0  0  0
   21.0315   -3.6300  -14.2914 O   0  0  0  0  0  0  0  0  0  0  0  0
  2  1  1  1
  3  2  1  0
  4  3  1  0
  5  4  2  0
  6  7  2  0
  6  2  1  0
  8  4  1  0
  9 10  1  0
 11 10  1  6
 11 12  1  0
 12  6  1  0
 13 15  1  0
 13 11  1  0
 14 13  2  0
 16 23  1  0
 16 15  1  0
 16 17  1  1
 17 18  1  0
 18 22  1  0
 19 18  2  0
 19 20  1  0
 20 21  1  0
 22 21  2  0
 23 25  1  0
 24 23  2  0
M  END
$$$$
