DSH.pdb
     RDKit          3D

 25 25  0  0  1  0  0  0  0  0999 V2000
   16.3699  -13.6347  -17.0884 N   0  0  0  0  0  0  0  0  0  0  0  0
   16.2633  -12.9678  -15.8093 C   0  0  1  0  0  0  0  0  0  0  0  0
   17.5326  -13.2899  -15.0170 C   0  0  0  0  0  0  0  0  0  0  0  0
   17.4463  -14.6421  -14.4662 C   0  0  0  0  0  0  0  0  0  0  0  0
   16.3379  -15.1845  -14.2606 O   0  0  0  0  0  0  0  0  0  0  0  0
   16.1702  -11.5230  -16.0351 C   0  0  0  0  0  0  0  0  0  0  0  0
   16.8360  -10.9502  -16.9540 O   0  0  0  0  0  0  0  0  0  0  0  0
   18.5913  -15.3514  -14.1604 O   0  0  0  0  0  0  0  0  0  0  0  0
   13.9912   -7.2382  -15.0814 O   0  0  0  0  0  0  0  0  0  0  0  0
   14.0708   -8.5960  -14.8598 C   0  0  0  0  0  0  0  0  0  0  0  0
   15.2922   -9.2266  -15.4848 C   0  0  2  0  0  0  0  0  0  0  0  0
   15.3399  -10.6550  -15.2570 N   0  0  0  0  0  0  0  0  0  0  0  0
   16.5532   -8.5607  -15.0655 C   0  0  0  0  0  0  0  0  0  0  0  0
   17.3115   -9.1219  -14.2328 O   0  0  0  0  0  0  0  0  0  0  0  0
   16.9647   -7.2929  -15.5629 N   0  0  0  0  0  0  0  0  0  0  0  0
   18.1559   -6.6224  -15.0570 C   0  0  1  0  0  0  0  0  0  0  0  0
   19.4085   -7.3116  -15.4854 C   0  0  0  0  0  0  0  0  0  0  0  0
   20.5972   -6.5934  -15.0144 C   0  0  0  0  0  0  0  0  0  0  0  0
   21.3579   -6.8766  -13.8916 C   0  0  0  0  0  0  0  0  0  0  0  0
   22.3654   -5.9943  -13.7949 N   0  0  0  0  0  0  0  0  0  0  0  0
   22.2699   -5.1484  -14.8320 C   0  0  0  0  0  0  0  0  0  0  0  0
   21.1957   -5.5203  -15.5641 N   0  0  0  0  0  0  0  0  0  0  0  0
   18.1560   -5.1993  -15.4023 C   0  0  0  0  0  0  0  0  0  0  0  0
   17.4557   -4.8366  -16.4116 O   0  0  0  0  0  0  0  0  0  0  0  0
   18.8350   -4.1966  -14.7507 O   0  0  0  0  0  0  0  0  0  0  0  0
  2  1  1  6
  3  2  1  0
  4  3  1  0
  5  4  2  0
  6  7  2  0
  6  2  1  0
  8  4  1  0
  9 10  1  0
 11 10  1  1
 11 12  1  0
 12  6  1  0
 13 15  1  0
 13 11  1  0
 14 13  2  0
 16 23  1  0
 16 15  1  0
 16 17  1  6
 17 18  1  0
 18 22  1  0
 19 18  2  0
 19 20  1  0
 20 21  1  0
 22 21  2  0
 23 25  1  0
 24 23  2  0
M  END
$$$$
