DSH.pdb
     RDKit          3D

 25 25  0  0  1  0  0  0  0  0999 V2000
   29.3324  -35.8273    0.0462 N   0  0  0  0  0  0  0  0  0  0  0  0
   29.9117  -36.0415    1.3541 C   0  0  1  0  0  0  0  0  0  0  0  0
   31.0948  -35.0806    1.4946 C   0  0  0  0  0  0  0  0  0  0  0  0
   32.2056  -35.5323    0.6572 C   0  0  0  0  0  0  0  0  0  0  0  0
   32.8406  -36.5735    0.9359 O   0  0  0  0  0  0  0  0  0  0  0  0
   28.9028  -35.7419    2.3736 C   0  0  0  0  0  0  0  0  0  0  0  0
   28.0775  -34.7857    2.2304 O   0  0  0  0  0  0  0  0  0  0  0  0
   32.5784  -34.8159   -0.4633 O   0  0  0  0  0  0  0  0  0  0  0  0
   28.6689  -37.7283    6.1653 O   0  0  0  0  0  0  0  0  0  0  0  0
   27.5179  -37.3207    5.5265 C   0  0  0  0  0  0  0  0  0  0  0  0
   27.7465  -36.1753    4.5696 C   0  0  2  0  0  0  0  0  0  0  0  0
   28.7652  -36.4846    3.5892 N   0  0  0  0  0  0  0  0  0  0  0  0
   28.0297  -34.8960    5.2716 C   0  0  0  0  0  0  0  0  0  0  0  0
   29.2098  -34.4640    5.3353 O   0  0  0  0  0  0  0  0  0  0  0  0
   27.0190  -34.1103    5.8923 N   0  0  0  0  0  0  0  0  0  0  0  0
   27.3434  -32.9171    6.6639 C   0  0  1  0  0  0  0  0  0  0  0  0
   26.1751  -31.9962    6.7848 C   0  0  0  0  0  0  0  0  0  0  0  0
   25.6731  -31.5995    5.4653 C   0  0  0  0  0  0  0  0  0  0  0  0
   25.0886  -32.4155    4.5103 C   0  0  0  0  0  0  0  0  0  0  0  0
   24.7601  -31.6852    3.4326 N   0  0  0  0  0  0  0  0  0  0  0  0
   25.1207  -30.4154    3.6730 C   0  0  0  0  0  0  0  0  0  0  0  0
   25.6725  -30.3747    4.9067 N   0  0  0  0  0  0  0  0  0  0  0  0
   27.9191  -33.2620    7.9654 C   0  0  0  0  0  0  0  0  0  0  0  0
   28.2455  -32.2964    8.7412 O   0  0  0  0  0  0  0  0  0  0  0  0
   28.1495  -34.5275    8.4518 O   0  0  0  0  0  0  0  0  0  0  0  0
  2  1  1  6
  3  2  1  0
  4  3  1  0
  5  4  2  0
  6  7  2  0
  6  2  1  0
  8  4  1  0
  9 10  1  0
 11 10  1  1
 11 12  1  0
 12  6  1  0
 13 15  1  0
 13 11  1  0
 14 13  2  0
 16 23  1  0
 16 15  1  0
 16 17  1  1
 17 18  1  0
 18 22  1  0
 19 18  2  0
 19 20  1  0
 20 21  1  0
 22 21  2  0
 23 25  1  0
 24 23  2  0
M  END
$$$$
