DSH.pdb
     RDKit          3D

 25 25  0  0  1  0  0  0  0  0999 V2000
   14.1348  -10.0022  -10.7793 N   0  0  0  0  0  0  0  0  0  0  0  0
   15.5484   -9.9563  -11.0824 C   0  0  1  0  0  0  0  0  0  0  0  0
   15.7782  -10.8136  -12.3293 C   0  0  0  0  0  0  0  0  0  0  0  0
   15.6737  -12.2314  -11.9852 C   0  0  0  0  0  0  0  0  0  0  0  0
   14.7409  -12.6527  -11.2661 O   0  0  0  0  0  0  0  0  0  0  0  0
   15.9291   -8.5679  -11.3554 C   0  0  0  0  0  0  0  0  0  0  0  0
   15.2636   -7.8427  -12.1598 O   0  0  0  0  0  0  0  0  0  0  0  0
   16.6065  -13.1383  -12.4489 O   0  0  0  0  0  0  0  0  0  0  0  0
   17.4803   -6.2041   -8.5897 O   0  0  0  0  0  0  0  0  0  0  0  0
   17.0133   -5.6789   -9.7750 C   0  0  0  0  0  0  0  0  0  0  0  0
   17.3582   -6.5283  -10.9748 C   0  0  2  0  0  0  0  0  0  0  0  0
   17.0573   -7.9263  -10.7523 N   0  0  0  0  0  0  0  0  0  0  0  0
   18.7613   -6.3329  -11.4251 C   0  0  0  0  0  0  0  0  0  0  0  0
   19.7128   -6.7054  -10.6908 O   0  0  0  0  0  0  0  0  0  0  0  0
   19.1012   -5.7339  -12.6700 N   0  0  0  0  0  0  0  0  0  0  0  0
   20.4885   -5.5190  -13.0621 C   0  0  1  0  0  0  0  0  0  0  0  0
   20.7949   -6.1319  -14.3880 C   0  0  0  0  0  0  0  0  0  0  0  0
   20.8234   -7.5956  -14.3023 C   0  0  0  0  0  0  0  0  0  0  0  0
   20.6412   -8.3730  -13.1700 C   0  0  0  0  0  0  0  0  0  0  0  0
   20.7392   -9.6723  -13.4942 N   0  0  0  0  0  0  0  0  0  0  0  0
   20.9809   -9.7485  -14.8117 C   0  0  0  0  0  0  0  0  0  0  0  0
   21.0299   -8.4852  -15.2912 N   0  0  0  0  0  0  0  0  0  0  0  0
   20.8460   -4.1000  -13.0074 C   0  0  0  0  0  0  0  0  0  0  0  0
   19.8951   -3.2574  -12.8447 O   0  0  0  0  0  0  0  0  0  0  0  0
   22.1094   -3.5671  -13.1122 O   0  0  0  0  0  0  0  0  0  0  0  0
  2  1  1  6
  3  2  1  0
  4  3  1  0
  5  4  2  0
  6  7  2  0
  6  2  1  0
  8  4  1  0
  9 10  1  0
 11 10  1  1
 11 12  1  0
 12  6  1  0
 13 15  1  0
 13 11  1  0
 14 13  2  0
 16 23  1  0
 16 15  1  0
 16 17  1  6
 17 18  1  0
 18 22  1  0
 19 18  2  0
 19 20  1  0
 20 21  1  0
 22 21  2  0
 23 25  1  0
 24 23  2  0
M  END
$$$$
