DSH.pdb
     RDKit          3D

 25 25  0  0  1  0  0  0  0  0999 V2000
   21.1555  -13.3104  -19.6791 N   0  0  0  0  0  0  0  0  0  0  0  0
   21.3830  -13.0058  -18.2835 C   0  0  1  0  0  0  0  0  0  0  0  0
   22.8956  -12.8914  -18.0798 C   0  0  0  0  0  0  0  0  0  0  0  0
   23.5235  -14.1994  -18.2647 C   0  0  0  0  0  0  0  0  0  0  0  0
   23.0012  -15.2363  -17.7990 O   0  0  0  0  0  0  0  0  0  0  0  0
   20.7396  -11.7279  -17.9670 C   0  0  0  0  0  0  0  0  0  0  0  0
   20.8352  -10.7259  -18.7433 O   0  0  0  0  0  0  0  0  0  0  0  0
   24.7110  -14.3175  -18.9601 O   0  0  0  0  0  0  0  0  0  0  0  0
   18.7784  -10.7879  -14.2383 O   0  0  0  0  0  0  0  0  0  0  0  0
   18.2430  -10.3905  -15.4443 C   0  0  0  0  0  0  0  0  0  0  0  0
   19.2779  -10.2575  -16.5358 C   0  0  2  0  0  0  0  0  0  0  0  0
   19.9667  -11.5060  -16.7831 N   0  0  0  0  0  0  0  0  0  0  0  0
   20.2305   -9.1448  -16.2832 C   0  0  0  0  0  0  0  0  0  0  0  0
   21.3475   -9.3837  -15.7553 O   0  0  0  0  0  0  0  0  0  0  0  0
   19.9470   -7.7899  -16.6116 N   0  0  0  0  0  0  0  0  0  0  0  0
   20.9255   -6.7305  -16.4004 C   0  0  1  0  0  0  0  0  0  0  0  0
   20.6325   -5.5263  -17.2321 C   0  0  0  0  0  0  0  0  0  0  0  0
   21.6007   -4.4553  -16.9751 C   0  0  0  0  0  0  0  0  0  0  0  0
   22.7634   -4.1890  -17.6800 C   0  0  0  0  0  0  0  0  0  0  0  0
   23.3840   -3.1268  -17.1419 N   0  0  0  0  0  0  0  0  0  0  0  0
   22.6456   -2.7030  -16.1050 C   0  0  0  0  0  0  0  0  0  0  0  0
   21.5680   -3.5145  -16.0129 N   0  0  0  0  0  0  0  0  0  0  0  0
   21.0647   -6.4065  -14.9791 C   0  0  0  0  0  0  0  0  0  0  0  0
   20.0492   -6.6089  -14.2252 O   0  0  0  0  0  0  0  0  0  0  0  0
   22.1832   -5.9026  -14.3577 O   0  0  0  0  0  0  0  0  0  0  0  0
  2  1  1  6
  3  2  1  0
  4  3  1  0
  5  4  2  0
  6  7  2  0
  6  2  1  0
  8  4  1  0
  9 10  1  0
 11 10  1  1
 11 12  1  0
 12  6  1  0
 13 15  1  0
 13 11  1  0
 14 13  2  0
 16 23  1  0
 16 15  1  0
 16 17  1  6
 17 18  1  0
 18 22  1  0
 19 18  2  0
 19 20  1  0
 20 21  1  0
 22 21  2  0
 23 25  1  0
 24 23  2  0
M  END
$$$$
