DSH.pdb
     RDKit          3D

 25 25  0  0  1  0  0  0  0  0999 V2000
   18.5505  -12.2953  -15.6186 N   0  0  0  0  0  0  0  0  0  0  0  0
   19.1211  -11.2628  -16.4556 C   0  0  1  0  0  0  0  0  0  0  0  0
   18.1581  -11.0347  -17.6232 C   0  0  0  0  0  0  0  0  0  0  0  0
   18.3449  -12.0756  -18.6336 C   0  0  0  0  0  0  0  0  0  0  0  0
   18.5710  -11.7807  -19.8281 O   0  0  0  0  0  0  0  0  0  0  0  0
   19.2504  -10.0334  -15.6690 C   0  0  0  0  0  0  0  0  0  0  0  0
   18.4581   -9.7722  -14.7099 O   0  0  0  0  0  0  0  0  0  0  0  0
   18.2753  -13.4112  -18.2887 O   0  0  0  0  0  0  0  0  0  0  0  0
   22.5043   -7.2131  -15.9952 O   0  0  0  0  0  0  0  0  0  0  0  0
   21.7607   -7.4224  -14.8540 C   0  0  0  0  0  0  0  0  0  0  0  0
   20.3331   -7.8201  -15.1430 C   0  0  2  0  0  0  0  0  0  0  0  0
   20.2575   -9.0454  -15.9095 N   0  0  0  0  0  0  0  0  0  0  0  0
   19.5556   -6.7248  -15.7796 C   0  0  0  0  0  0  0  0  0  0  0  0
   19.5736   -6.5884  -17.0304 O   0  0  0  0  0  0  0  0  0  0  0  0
   18.7715   -5.7969  -15.0391 N   0  0  0  0  0  0  0  0  0  0  0  0
   18.0994   -4.6764  -15.6849 C   0  0  1  0  0  0  0  0  0  0  0  0
   16.6807   -4.5452  -15.2402 C   0  0  0  0  0  0  0  0  0  0  0  0
   15.8702   -5.6728  -15.7117 C   0  0  0  0  0  0  0  0  0  0  0  0
   15.5394   -5.9777  -17.0220 C   0  0  0  0  0  0  0  0  0  0  0  0
   14.7833   -7.0869  -17.0501 N   0  0  0  0  0  0  0  0  0  0  0  0
   14.6198   -7.5032  -15.7852 C   0  0  0  0  0  0  0  0  0  0  0  0
   15.2822   -6.6397  -14.9828 N   0  0  0  0  0  0  0  0  0  0  0  0
   18.8536   -3.4323  -15.5184 C   0  0  0  0  0  0  0  0  0  0  0  0
   19.9533   -3.4915  -14.8645 O   0  0  0  0  0  0  0  0  0  0  0  0
   18.5046   -2.1906  -15.9955 O   0  0  0  0  0  0  0  0  0  0  0  0
  2  1  1  1
  3  2  1  0
  4  3  1  0
  5  4  2  0
  6  7  2  0
  6  2  1  0
  8  4  1  0
  9 10  1  0
 11 10  1  6
 11 12  1  0
 12  6  1  0
 13 15  1  0
 13 11  1  0
 14 13  2  0
 16 23  1  0
 16 15  1  0
 16 17  1  1
 17 18  1  0
 18 22  1  0
 19 18  2  0
 19 20  1  0
 20 21  1  0
 22 21  2  0
 23 25  1  0
 24 23  2  0
M  END
$$$$
