DSH.pdb
     RDKit          3D

 25 25  0  0  1  0  0  0  0  0999 V2000
   16.1034  -14.1538  -14.8758 N   0  0  0  0  0  0  0  0  0  0  0  0
   16.3645  -13.0704  -15.7980 C   0  0  1  0  0  0  0  0  0  0  0  0
   15.4426  -11.9102  -15.4153 C   0  0  0  0  0  0  0  0  0  0  0  0
   14.0520  -12.2645  -15.6984 C   0  0  0  0  0  0  0  0  0  0  0  0
   13.7003  -12.6298  -16.8420 O   0  0  0  0  0  0  0  0  0  0  0  0
   17.7645  -12.6601  -15.6621 C   0  0  0  0  0  0  0  0  0  0  0  0
   18.3720  -12.7302  -14.5477 O   0  0  0  0  0  0  0  0  0  0  0  0
   13.0943  -12.2029  -14.7051 O   0  0  0  0  0  0  0  0  0  0  0  0
   20.4063  -11.9197  -18.9372 O   0  0  0  0  0  0  0  0  0  0  0  0
   20.8129  -12.2966  -17.6756 C   0  0  0  0  0  0  0  0  0  0  0  0
   19.9270  -11.7511  -16.5812 C   0  0  2  0  0  0  0  0  0  0  0  0
   18.5480  -12.1569  -16.7490 N   0  0  0  0  0  0  0  0  0  0  0  0
   20.0519  -10.2776  -16.4302 C   0  0  0  0  0  0  0  0  0  0  0  0
   19.1883   -9.5196  -16.9430 O   0  0  0  0  0  0  0  0  0  0  0  0
   21.1182   -9.6571  -15.7216 N   0  0  0  0  0  0  0  0  0  0  0  0
   21.2948   -8.2103  -15.7183 C   0  0  1  0  0  0  0  0  0  0  0  0
   22.4927   -7.7962  -14.9302 C   0  0  0  0  0  0  0  0  0  0  0  0
   22.5799   -6.3361  -14.8247 C   0  0  0  0  0  0  0  0  0  0  0  0
   21.5290   -5.4369  -14.7441 C   0  0  0  0  0  0  0  0  0  0  0  0
   22.0106   -4.1864  -14.6595 N   0  0  0  0  0  0  0  0  0  0  0  0
   23.3501   -4.2609  -14.6839 C   0  0  0  0  0  0  0  0  0  0  0  0
   23.6841   -5.5673  -14.7841 N   0  0  0  0  0  0  0  0  0  0  0  0
   21.3082   -7.6700  -17.0793 C   0  0  0  0  0  0  0  0  0  0  0  0
   22.0773   -8.2371  -17.9321 O   0  0  0  0  0  0  0  0  0  0  0  0
   20.5738   -6.6057  -17.5473 O   0  0  0  0  0  0  0  0  0  0  0  0
  2  1  1  1
  3  2  1  0
  4  3  1  0
  5  4  2  0
  6  7  2  0
  6  2  1  0
  8  4  1  0
  9 10  1  0
 11 10  1  6
 11 12  1  0
 12  6  1  0
 13 15  1  0
 13 11  1  0
 14 13  2  0
 16 23  1  0
 16 15  1  0
 16 17  1  6
 17 18  1  0
 18 22  1  0
 19 18  2  0
 19 20  1  0
 20 21  1  0
 22 21  2  0
 23 25  1  0
 24 23  2  0
M  END
$$$$
