DSH.pdb
     RDKit          3D

 25 25  0  0  1  0  0  0  0  0999 V2000
   20.0172  -13.7214  -18.5374 N   0  0  0  0  0  0  0  0  0  0  0  0
   20.5944  -12.4860  -19.0200 C   0  0  1  0  0  0  0  0  0  0  0  0
   19.7576  -12.0253  -20.2159 C   0  0  0  0  0  0  0  0  0  0  0  0
   20.0015  -12.9012  -21.3616 C   0  0  0  0  0  0  0  0  0  0  0  0
   21.1662  -13.1760  -21.7261 O   0  0  0  0  0  0  0  0  0  0  0  0
   20.5306  -11.4848  -17.9521 C   0  0  0  0  0  0  0  0  0  0  0  0
   19.4321  -11.1862  -17.3864 O   0  0  0  0  0  0  0  0  0  0  0  0
   18.9467  -13.4455  -22.0678 O   0  0  0  0  0  0  0  0  0  0  0  0
   22.8225   -8.4681  -14.8431 O   0  0  0  0  0  0  0  0  0  0  0  0
   22.8935   -9.4650  -15.7917 C   0  0  0  0  0  0  0  0  0  0  0  0
   21.5691   -9.7370  -16.4641 C   0  0  2  0  0  0  0  0  0  0  0  0
   21.6748  -10.7749  -17.4672 N   0  0  0  0  0  0  0  0  0  0  0  0
   20.9463   -8.5038  -17.0127 C   0  0  0  0  0  0  0  0  0  0  0  0
   21.2914   -8.0779  -18.1453 O   0  0  0  0  0  0  0  0  0  0  0  0
   19.9571   -7.7566  -16.3146 N   0  0  0  0  0  0  0  0  0  0  0  0
   19.4192   -6.5121  -16.8497 C   0  0  1  0  0  0  0  0  0  0  0  0
   18.0001   -6.6604  -17.2877 C   0  0  0  0  0  0  0  0  0  0  0  0
   17.5094   -5.4328  -17.9223 C   0  0  0  0  0  0  0  0  0  0  0  0
   18.2658   -4.3695  -18.3881 C   0  0  0  0  0  0  0  0  0  0  0  0
   17.4556   -3.4313  -18.9040 N   0  0  0  0  0  0  0  0  0  0  0  0
   16.1929   -3.8676  -18.7805 C   0  0  0  0  0  0  0  0  0  0  0  0
   16.2370   -5.0806  -18.1847 N   0  0  0  0  0  0  0  0  0  0  0  0
   19.6002   -5.4035  -15.9102 C   0  0  0  0  0  0  0  0  0  0  0  0
   19.5390   -5.6734  -14.6596 O   0  0  0  0  0  0  0  0  0  0  0  0
   19.8329   -4.0864  -16.2298 O   0  0  0  0  0  0  0  0  0  0  0  0
  2  1  1  1
  3  2  1  0
  4  3  1  0
  5  4  2  0
  6  7  2  0
  6  2  1  0
  8  4  1  0
  9 10  1  0
 11 10  1  6
 11 12  1  0
 12  6  1  0
 13 15  1  0
 13 11  1  0
 14 13  2  0
 16 23  1  0
 16 15  1  0
 16 17  1  1
 17 18  1  0
 18 22  1  0
 19 18  2  0
 19 20  1  0
 20 21  1  0
 22 21  2  0
 23 25  1  0
 24 23  2  0
M  END
$$$$
