DSH.pdb
     RDKit          3D

 25 25  0  0  1  0  0  0  0  0999 V2000
   20.1447  -17.0169  -15.2228 N   0  0  0  0  0  0  0  0  0  0  0  0
   19.0111  -16.1312  -15.0725 C   0  0  1  0  0  0  0  0  0  0  0  0
   18.8092  -15.8950  -13.5738 C   0  0  0  0  0  0  0  0  0  0  0  0
   18.3400  -17.1241  -12.9346 C   0  0  0  0  0  0  0  0  0  0  0  0
   17.3488  -17.7439  -13.3798 O   0  0  0  0  0  0  0  0  0  0  0  0
   19.3101  -14.8620  -15.7409 C   0  0  0  0  0  0  0  0  0  0  0  0
   20.4532  -14.3142  -15.6452 O   0  0  0  0  0  0  0  0  0  0  0  0
   18.9840  -17.6281  -11.8216 O   0  0  0  0  0  0  0  0  0  0  0  0
   16.4148  -12.4985  -17.8238 O   0  0  0  0  0  0  0  0  0  0  0  0
   17.6906  -12.6160  -18.3315 C   0  0  0  0  0  0  0  0  0  0  0  0
   18.7173  -12.9557  -17.2777 C   0  0  2  0  0  0  0  0  0  0  0  0
   18.3610  -14.1487  -16.5400 N   0  0  0  0  0  0  0  0  0  0  0  0
   19.0006  -11.8126  -16.3707 C   0  0  0  0  0  0  0  0  0  0  0  0
   18.3896  -11.7157  -15.2750 O   0  0  0  0  0  0  0  0  0  0  0  0
   19.9466  -10.7948  -16.6759 N   0  0  0  0  0  0  0  0  0  0  0  0
   20.1024   -9.6170  -15.8316 C   0  0  1  0  0  0  0  0  0  0  0  0
   21.1495   -8.6906  -16.3540 C   0  0  0  0  0  0  0  0  0  0  0  0
   21.4318   -7.6152  -15.3977 C   0  0  0  0  0  0  0  0  0  0  0  0
   20.9141   -7.4713  -14.1206 C   0  0  0  0  0  0  0  0  0  0  0  0
   21.4106   -6.3594  -13.5551 N   0  0  0  0  0  0  0  0  0  0  0  0
   22.2375   -5.7835  -14.4410 C   0  0  0  0  0  0  0  0  0  0  0  0
   22.2429   -6.5523  -15.5533 N   0  0  0  0  0  0  0  0  0  0  0  0
   18.8210   -8.9434  -15.6114 C   0  0  0  0  0  0  0  0  0  0  0  0
   18.4707   -8.7223  -14.3994 O   0  0  0  0  0  0  0  0  0  0  0  0
   17.9415   -8.5159  -16.5784 O   0  0  0  0  0  0  0  0  0  0  0  0
  2  1  1  1
  3  2  1  0
  4  3  1  0
  5  4  2  0
  6  7  2  0
  6  2  1  0
  8  4  1  0
  9 10  1  0
 11 10  1  6
 11 12  1  0
 12  6  1  0
 13 15  1  0
 13 11  1  0
 14 13  2  0
 16 23  1  0
 16 15  1  0
 16 17  1  6
 17 18  1  0
 18 22  1  0
 19 18  2  0
 19 20  1  0
 20 21  1  0
 22 21  2  0
 23 25  1  0
 24 23  2  0
M  END
$$$$
