GPI.pdb
     RDKit          3D

 20 20  0  0  1  0  0  0  0  0999 V2000
    8.5075  -15.6685   17.9167 N   0  0  0  0  0  0  0  0  0  0  0  0
    8.2293  -16.7692   18.8813 C   0  0  0  0  0  0  0  0  0  0  0  0
    7.8516  -16.1928   20.1662 C   0  0  0  0  0  0  0  0  0  0  0  0
    8.4846  -15.0925   20.4640 O   0  0  0  0  0  0  0  0  0  0  0  0
    6.9338  -16.6168   21.1224 N   0  0  0  0  0  0  0  0  0  0  0  0
    5.6440  -17.2668   20.6762 C   0  0  0  0  0  0  0  0  0  0  0  0
    5.7174  -18.5335   21.5164 C   0  0  0  0  0  0  0  0  0  0  0  0
    6.6098  -18.1947   22.7159 C   0  0  0  0  0  0  0  0  0  0  0  0
    6.7544  -16.6686   22.5288 C   0  0  1  0  0  0  0  0  0  0  0  0
    7.6962  -16.0953   23.4444 C   0  0  0  0  0  0  0  0  0  0  0  0
    8.8962  -16.3315   23.4751 O   0  0  0  0  0  0  0  0  0  0  0  0
    6.0131  -11.8977   27.0531 C   0  0  0  0  0  0  0  0  0  0  0  0
    6.2863  -13.2522   26.4240 C   0  0  0  0  0  0  0  0  0  0  0  0
    7.6616  -13.1793   25.7923 C   0  0  2  0  0  0  0  0  0  0  0  0
    7.5144  -12.3160   24.5559 C   0  0  0  0  0  0  0  0  0  0  0  0
    8.1221  -14.5514   25.3261 C   0  0  2  0  0  0  0  0  0  0  0  0
    7.1972  -15.1530   24.4236 N   0  0  0  0  0  0  0  0  0  0  0  0
    8.2486  -15.3911   26.5301 C   0  0  0  0  0  0  0  0  0  0  0  0
    9.2729  -15.1703   27.4169 O   0  0  0  0  0  0  0  0  0  0  0  0
    7.4274  -16.3006   26.7438 O   0  0  0  0  0  0  0  0  0  0  0  0
  2  1  1  0
  3  2  1  0
  4  3  2  0
  5  6  1  0
  5  3  1  0
  7  6  1  0
  8  9  1  0
  8  7  1  0
  9 10  1  1
  9  5  1  0
 10 17  1  0
 11 10  2  0
 12 13  1  0
 13 14  1  0
 14 15  1  6
 16 18  1  0
 16 14  1  0
 16 17  1  6
 18 19  1  0
 20 18  2  0
M  END
$$$$
