GPI.pdb
     RDKit          3D

 20 20  0  0  1  0  0  0  0  0999 V2000
    8.0612  -19.0317   20.0239 N   0  0  0  0  0  0  0  0  0  0  0  0
    7.2403  -17.8771   20.4852 C   0  0  0  0  0  0  0  0  0  0  0  0
    8.1204  -16.8649   21.0569 C   0  0  0  0  0  0  0  0  0  0  0  0
    8.9970  -17.3348   21.9000 O   0  0  0  0  0  0  0  0  0  0  0  0
    8.1820  -15.4895   20.8547 N   0  0  0  0  0  0  0  0  0  0  0  0
    7.8839  -14.9269   19.4836 C   0  0  0  0  0  0  0  0  0  0  0  0
    6.8353  -13.8965   19.8764 C   0  0  0  0  0  0  0  0  0  0  0  0
    7.1042  -13.5583   21.3472 C   0  0  0  0  0  0  0  0  0  0  0  0
    8.4508  -14.2852   21.5548 C   0  0  1  0  0  0  0  0  0  0  0  0
    8.8708  -14.2711   22.9250 C   0  0  0  0  0  0  0  0  0  0  0  0
   10.0083  -14.0553   23.3206 O   0  0  0  0  0  0  0  0  0  0  0  0
    5.6711  -11.5814   25.9478 C   0  0  0  0  0  0  0  0  0  0  0  0
    6.9404  -12.1717   25.3600 C   0  0  0  0  0  0  0  0  0  0  0  0
    7.1690  -13.5040   26.0442 C   0  0  2  0  0  0  0  0  0  0  0  0
    7.7367  -13.1855   27.4124 C   0  0  0  0  0  0  0  0  0  0  0  0
    8.2157  -14.3243   25.3069 C   0  0  2  0  0  0  0  0  0  0  0  0
    7.8721  -14.5337   23.9395 N   0  0  0  0  0  0  0  0  0  0  0  0
    8.3019  -15.6242   25.9950 C   0  0  0  0  0  0  0  0  0  0  0  0
    7.5054  -16.6678   25.5938 O   0  0  0  0  0  0  0  0  0  0  0  0
    9.0963  -15.7769   26.9398 O   0  0  0  0  0  0  0  0  0  0  0  0
  2  1  1  0
  3  2  1  0
  4  3  2  0
  5  6  1  0
  5  3  1  0
  7  6  1  0
  8  9  1  0
  8  7  1  0
  9 10  1  1
  9  5  1  0
 10 17  1  0
 11 10  2  0
 12 13  1  0
 13 14  1  0
 14 15  1  1
 16 18  1  0
 16 14  1  0
 16 17  1  6
 18 19  1  0
 20 18  2  0
M  END
$$$$
