GPI.pdb
     RDKit          3D

 20 20  0  0  1  0  0  0  0  0999 V2000
   11.2686  -16.9237   19.4656 N   0  0  0  0  0  0  0  0  0  0  0  0
    9.9507  -16.9948   20.1567 C   0  0  0  0  0  0  0  0  0  0  0  0
   10.0315  -16.2603   21.4136 C   0  0  0  0  0  0  0  0  0  0  0  0
   11.2474  -16.0767   21.8470 O   0  0  0  0  0  0  0  0  0  0  0  0
    9.0346  -15.7247   22.2234 N   0  0  0  0  0  0  0  0  0  0  0  0
    7.9450  -14.8822   21.6003 C   0  0  0  0  0  0  0  0  0  0  0  0
    6.7342  -15.6114   22.1642 C   0  0  0  0  0  0  0  0  0  0  0  0
    7.2157  -16.3054   23.4434 C   0  0  0  0  0  0  0  0  0  0  0  0
    8.6228  -15.6838   23.5804 C   0  0  1  0  0  0  0  0  0  0  0  0
    9.3847  -16.2895   24.6325 C   0  0  0  0  0  0  0  0  0  0  0  0
    9.9010  -17.3980   24.5926 O   0  0  0  0  0  0  0  0  0  0  0  0
    9.9294  -13.5142   29.6548 C   0  0  0  0  0  0  0  0  0  0  0  0
    9.4931  -14.5767   28.6620 C   0  0  0  0  0  0  0  0  0  0  0  0
   10.7401  -15.0549   27.9465 C   0  0  2  0  0  0  0  0  0  0  0  0
   11.3110  -13.8446   27.2360 C   0  0  0  0  0  0  0  0  0  0  0  0
   10.3972  -16.0795   26.8767 C   0  0  2  0  0  0  0  0  0  0  0  0
    9.5667  -15.5347   25.8543 N   0  0  0  0  0  0  0  0  0  0  0  0
    9.6860  -17.1794   27.5513 C   0  0  0  0  0  0  0  0  0  0  0  0
   10.3568  -17.9953   28.4281 O   0  0  0  0  0  0  0  0  0  0  0  0
    8.4775  -17.3694   27.3269 O   0  0  0  0  0  0  0  0  0  0  0  0
  2  1  1  0
  3  2  1  0
  4  3  2  0
  5  6  1  0
  5  3  1  0
  7  6  1  0
  8  9  1  0
  8  7  1  0
  9 10  1  1
  9  5  1  0
 10 17  1  0
 11 10  2  0
 12 13  1  0
 13 14  1  0
 14 15  1  6
 16 18  1  0
 16 14  1  0
 16 17  1  6
 18 19  1  0
 20 18  2  0
M  END
$$$$
