GPI.pdb
     RDKit          3D

 20 20  0  0  1  0  0  0  0  0999 V2000
    7.4169  -18.8556   19.7470 N   0  0  0  0  0  0  0  0  0  0  0  0
    6.7050  -17.7413   20.4335 C   0  0  0  0  0  0  0  0  0  0  0  0
    7.6869  -16.8497   21.0390 C   0  0  0  0  0  0  0  0  0  0  0  0
    8.4148  -17.4081   21.9654 O   0  0  0  0  0  0  0  0  0  0  0  0
    7.9766  -15.5106   20.7952 N   0  0  0  0  0  0  0  0  0  0  0  0
    7.8159  -14.9592   19.3969 C   0  0  0  0  0  0  0  0  0  0  0  0
    6.9362  -13.7597   19.7181 C   0  0  0  0  0  0  0  0  0  0  0  0
    7.2110  -13.4143   21.1860 C   0  0  0  0  0  0  0  0  0  0  0  0
    8.4151  -14.3398   21.4657 C   0  0  1  0  0  0  0  0  0  0  0  0
    8.7895  -14.3421   22.8492 C   0  0  0  0  0  0  0  0  0  0  0  0
    9.9352  -14.3473   23.2785 O   0  0  0  0  0  0  0  0  0  0  0  0
    5.6668  -11.3412   26.0294 C   0  0  0  0  0  0  0  0  0  0  0  0
    6.8512  -11.9920   25.3376 C   0  0  0  0  0  0  0  0  0  0  0  0
    7.0378  -13.3576   25.9668 C   0  0  2  0  0  0  0  0  0  0  0  0
    7.5947  -13.1119   27.3543 C   0  0  0  0  0  0  0  0  0  0  0  0
    8.0738  -14.1717   25.2081 C   0  0  2  0  0  0  0  0  0  0  0  0
    7.7294  -14.3379   23.8349 N   0  0  0  0  0  0  0  0  0  0  0  0
    8.1405  -15.4914   25.8597 C   0  0  0  0  0  0  0  0  0  0  0  0
    9.1252  -15.7545   26.7792 O   0  0  0  0  0  0  0  0  0  0  0  0
    7.3046  -16.3681   25.5771 O   0  0  0  0  0  0  0  0  0  0  0  0
  2  1  1  0
  3  2  1  0
  4  3  2  0
  5  6  1  0
  5  3  1  0
  7  6  1  0
  8  9  1  0
  8  7  1  0
  9 10  1  1
  9  5  1  0
 10 17  1  0
 11 10  2  0
 12 13  1  0
 13 14  1  0
 14 15  1  1
 16 18  1  0
 16 14  1  0
 16 17  1  6
 18 19  1  0
 20 18  2  0
M  END
$$$$
