GPI.pdb
     RDKit          3D

 20 20  0  0  1  0  0  0  0  0999 V2000
   11.3359  -17.0299   19.1376 N   0  0  0  0  0  0  0  0  0  0  0  0
   10.1714  -17.7067   19.7745 C   0  0  0  0  0  0  0  0  0  0  0  0
    9.4710  -16.7509   20.6241 C   0  0  0  0  0  0  0  0  0  0  0  0
   10.2131  -15.7630   21.0402 O   0  0  0  0  0  0  0  0  0  0  0  0
    8.1507  -16.7158   21.0625 N   0  0  0  0  0  0  0  0  0  0  0  0
    7.0332  -16.9491   20.0716 C   0  0  0  0  0  0  0  0  0  0  0  0
    6.2866  -18.0471   20.8151 C   0  0  0  0  0  0  0  0  0  0  0  0
    6.6433  -17.8737   22.2957 C   0  0  0  0  0  0  0  0  0  0  0  0
    7.3879  -16.5217   22.2428 C   0  0  1  0  0  0  0  0  0  0  0  0
    7.9896  -16.1828   23.4987 C   0  0  0  0  0  0  0  0  0  0  0  0
    9.0416  -16.6337   23.9308 O   0  0  0  0  0  0  0  0  0  0  0  0
    5.7950  -11.7267   25.9846 C   0  0  0  0  0  0  0  0  0  0  0  0
    6.9229  -12.5486   25.3867 C   0  0  0  0  0  0  0  0  0  0  0  0
    7.1190  -13.7532   26.2846 C   0  0  2  0  0  0  0  0  0  0  0  0
    7.9669  -13.2805   27.4479 C   0  0  0  0  0  0  0  0  0  0  0  0
    7.9055  -14.8427   25.5730 C   0  0  2  0  0  0  0  0  0  0  0  0
    7.3030  -15.2245   24.3389 N   0  0  0  0  0  0  0  0  0  0  0  0
    7.9431  -16.0034   26.4796 C   0  0  0  0  0  0  0  0  0  0  0  0
    8.9906  -16.1589   27.3532 O   0  0  0  0  0  0  0  0  0  0  0  0
    7.0259  -16.8432   26.4541 O   0  0  0  0  0  0  0  0  0  0  0  0
  2  1  1  0
  3  2  1  0
  4  3  2  0
  5  6  1  0
  5  3  1  0
  7  6  1  0
  8  9  1  0
  8  7  1  0
  9 10  1  1
  9  5  1  0
 10 17  1  0
 11 10  2  0
 12 13  1  0
 13 14  1  0
 14 15  1  1
 16 18  1  0
 16 14  1  0
 16 17  1  6
 18 19  1  0
 20 18  2  0
M  END
$$$$
