GPI.pdb
     RDKit          3D

 20 20  0  0  1  0  0  0  0  0999 V2000
    8.5489  -18.2254   18.7507 N   0  0  0  0  0  0  0  0  0  0  0  0
    7.6588  -17.1285   19.2243 C   0  0  0  0  0  0  0  0  0  0  0  0
    8.3995  -16.2799   20.1502 C   0  0  0  0  0  0  0  0  0  0  0  0
    9.1642  -16.9347   20.9786 O   0  0  0  0  0  0  0  0  0  0  0  0
    8.4277  -14.8963   20.2969 N   0  0  0  0  0  0  0  0  0  0  0  0
    8.2026  -14.0171   19.0880 C   0  0  0  0  0  0  0  0  0  0  0  0
    7.0957  -13.1333   19.6443 C   0  0  0  0  0  0  0  0  0  0  0  0
    7.2545  -13.1650   21.1686 C   0  0  0  0  0  0  0  0  0  0  0  0
    8.6083  -13.8984   21.2890 C   0  0  1  0  0  0  0  0  0  0  0  0
    8.9354  -14.2168   22.6475 C   0  0  0  0  0  0  0  0  0  0  0  0
   10.0656  -14.3047   23.1077 O   0  0  0  0  0  0  0  0  0  0  0  0
    7.0450  -11.6127   27.4504 C   0  0  0  0  0  0  0  0  0  0  0  0
    7.6793  -12.9196   27.0094 C   0  0  0  0  0  0  0  0  0  0  0  0
    7.3582  -13.0953   25.5391 C   0  0  2  0  0  0  0  0  0  0  0  0
    5.8728  -13.3838   25.4617 C   0  0  0  0  0  0  0  0  0  0  0  0
    8.0781  -14.3045   24.9633 C   0  0  2  0  0  0  0  0  0  0  0  0
    7.8426  -14.4577   23.5659 N   0  0  0  0  0  0  0  0  0  0  0  0
    7.5666  -15.4865   25.6789 C   0  0  0  0  0  0  0  0  0  0  0  0
    8.0697  -15.8129   26.9137 O   0  0  0  0  0  0  0  0  0  0  0  0
    6.6786  -16.1894   25.1646 O   0  0  0  0  0  0  0  0  0  0  0  0
  2  1  1  0
  3  2  1  0
  4  3  2  0
  5  6  1  0
  5  3  1  0
  7  6  1  0
  8  9  1  0
  8  7  1  0
  9 10  1  1
  9  5  1  0
 10 17  1  0
 11 10  2  0
 12 13  1  0
 13 14  1  0
 14 15  1  1
 16 18  1  0
 16 14  1  0
 16 17  1  6
 18 19  1  0
 20 18  2  0
M  END
$$$$
