GPI.pdb
     RDKit          3D

 20 20  0  0  1  0  0  0  0  0999 V2000
    9.6059  -17.8642   19.1870 N   0  0  0  0  0  0  0  0  0  0  0  0
    8.4951  -16.9057   19.4453 C   0  0  0  0  0  0  0  0  0  0  0  0
    8.7464  -16.2127   20.7032 C   0  0  0  0  0  0  0  0  0  0  0  0
    9.2847  -16.9603   21.6258 O   0  0  0  0  0  0  0  0  0  0  0  0
    8.5102  -14.8947   21.0823 N   0  0  0  0  0  0  0  0  0  0  0  0
    8.9021  -13.7723   20.1485 C   0  0  0  0  0  0  0  0  0  0  0  0
    7.5738  -13.0312   20.1029 C   0  0  0  0  0  0  0  0  0  0  0  0
    6.8411  -13.3956   21.3991 C   0  0  0  0  0  0  0  0  0  0  0  0
    7.9667  -14.1378   22.1521 C   0  0  1  0  0  0  0  0  0  0  0  0
    7.5014  -14.7456   23.3638 C   0  0  0  0  0  0  0  0  0  0  0  0
    6.6153  -15.5851   23.4466 O   0  0  0  0  0  0  0  0  0  0  0  0
    9.9006  -13.2602   28.4230 C   0  0  0  0  0  0  0  0  0  0  0  0
    8.9354  -13.2496   27.2511 C   0  0  0  0  0  0  0  0  0  0  0  0
    8.5360  -14.6879   26.9915 C   0  0  2  0  0  0  0  0  0  0  0  0
    9.7988  -15.4073   26.5634 C   0  0  0  0  0  0  0  0  0  0  0  0
    7.5547  -14.7820   25.8339 C   0  0  2  0  0  0  0  0  0  0  0  0
    8.1259  -14.3398   24.6051 N   0  0  0  0  0  0  0  0  0  0  0  0
    6.4065  -13.9250   26.1769 C   0  0  0  0  0  0  0  0  0  0  0  0
    5.5239  -14.3171   27.1525 O   0  0  0  0  0  0  0  0  0  0  0  0
    6.2359  -12.8456   25.5827 O   0  0  0  0  0  0  0  0  0  0  0  0
  2  1  1  0
  3  2  1  0
  4  3  2  0
  5  6  1  0
  5  3  1  0
  7  6  1  0
  8  9  1  0
  8  7  1  0
  9 10  1  1
  9  5  1  0
 10 17  1  0
 11 10  2  0
 12 13  1  0
 13 14  1  0
 14 15  1  6
 16 18  1  0
 16 14  1  0
 16 17  1  6
 18 19  1  0
 20 18  2  0
M  END
$$$$
