GPI.pdb
     RDKit          3D

 20 20  0  0  1  0  0  0  0  0999 V2000
    7.0282  -19.3546   20.7037 N   0  0  0  0  0  0  0  0  0  0  0  0
    6.4607  -18.0448   21.1306 C   0  0  0  0  0  0  0  0  0  0  0  0
    7.5399  -17.1938   21.6174 C   0  0  0  0  0  0  0  0  0  0  0  0
    8.3475  -17.7828   22.4546 O   0  0  0  0  0  0  0  0  0  0  0  0
    7.8515  -15.8663   21.3396 N   0  0  0  0  0  0  0  0  0  0  0  0
    7.6221  -15.3259   19.9466 C   0  0  0  0  0  0  0  0  0  0  0  0
    6.7971  -14.0983   20.3048 C   0  0  0  0  0  0  0  0  0  0  0  0
    7.1695  -13.7447   21.7491 C   0  0  0  0  0  0  0  0  0  0  0  0
    8.3621  -14.7012   21.9677 C   0  0  1  0  0  0  0  0  0  0  0  0
    8.8191  -14.6989   23.3261 C   0  0  0  0  0  0  0  0  0  0  0  0
    9.9885  -14.7046   23.6857 O   0  0  0  0  0  0  0  0  0  0  0  0
    5.7127  -12.1128   26.9641 C   0  0  0  0  0  0  0  0  0  0  0  0
    6.2544  -13.1966   26.0493 C   0  0  0  0  0  0  0  0  0  0  0  0
    7.6683  -13.4960   26.5042 C   0  0  2  0  0  0  0  0  0  0  0  0
    8.4935  -12.2747   26.1536 C   0  0  0  0  0  0  0  0  0  0  0  0
    8.2543  -14.6672   25.7314 C   0  0  2  0  0  0  0  0  0  0  0  0
    7.8203  -14.6891   24.3739 N   0  0  0  0  0  0  0  0  0  0  0  0
    7.8032  -15.8947   26.4099 C   0  0  0  0  0  0  0  0  0  0  0  0
    8.3211  -16.2319   27.6357 O   0  0  0  0  0  0  0  0  0  0  0  0
    6.9530  -16.6264   25.8725 O   0  0  0  0  0  0  0  0  0  0  0  0
  2  1  1  0
  3  2  1  0
  4  3  2  0
  5  6  1  0
  5  3  1  0
  7  6  1  0
  8  9  1  0
  8  7  1  0
  9 10  1  1
  9  5  1  0
 10 17  1  0
 11 10  2  0
 12 13  1  0
 13 14  1  0
 14 15  1  6
 16 18  1  0
 16 14  1  0
 16 17  1  6
 18 19  1  0
 20 18  2  0
M  END
$$$$
