CHR.pdb
     RDKit          3D

 28 28  0  0  1  0  0  0  0  0999 V2000
   26.7173  -20.1765  -18.1913 N   0  0  0  0  0  0  0  0  0  0  0  0
   25.7901  -19.0785  -18.3408 C   0  0  1  0  0  0  0  0  0  0  0  0
   26.0621  -18.3045  -19.6227 C   0  0  0  0  0  0  0  0  0  0  0  0
   27.7759  -18.4448  -20.1542 S   0  0  0  0  0  0  0  0  0  0  0  0
   24.3730  -19.5460  -18.2876 C   0  0  0  0  0  0  0  0  0  0  0  0
   23.4691  -18.6832  -18.3631 O   0  0  0  0  0  0  0  0  0  0  0  0
   24.1642  -20.9265  -18.1559 N   0  0  0  0  0  0  0  0  0  0  0  0
   22.7956  -21.5060  -18.0322 C   0  0  1  0  0  0  0  0  0  0  0  0
   22.8425  -22.8837  -18.5797 C   0  0  0  0  0  0  0  0  0  0  0  0
   21.7139  -23.7780  -18.4245 C   0  0  0  0  0  0  0  0  0  0  0  0
   20.5814  -23.3909  -17.6647 C   0  0  0  0  0  0  0  0  0  0  0  0
   19.7169  -24.3994  -17.6982 N   0  0  0  0  0  0  0  0  0  0  0  0
   20.2152  -25.4152  -18.4300 C   0  0  0  0  0  0  0  0  0  0  0  0
   21.4088  -24.9945  -18.8411 N   0  0  0  0  0  0  0  0  0  0  0  0
   22.4473  -21.3307  -16.6279 C   0  0  0  0  0  0  0  0  0  0  0  0
   23.3751  -21.2198  -15.7562 O   0  0  0  0  0  0  0  0  0  0  0  0
   19.1862  -15.6841  -15.6594 N   0  0  0  0  0  0  0  0  0  0  0  0
   18.5720  -16.2793  -14.5296 C   0  0  0  0  0  0  0  0  0  0  0  0
   17.3366  -16.0242  -14.2427 N   0  0  0  0  0  0  0  0  0  0  0  0
   19.2529  -17.1721  -13.6581 N   0  0  0  0  0  0  0  0  0  0  0  0
   20.6020  -17.5690  -13.8670 C   0  0  0  0  0  0  0  0  0  0  0  0
   20.8070  -18.5820  -14.9750 C   0  0  0  0  0  0  0  0  0  0  0  0
   21.4738  -19.7691  -14.3148 C   0  0  0  0  0  0  0  0  0  0  0  0
   20.8895  -21.0918  -14.6640 C   0  0  2  0  0  0  0  0  0  0  0  0
   21.1470  -21.2626  -16.1200 N   0  0  0  0  0  0  0  0  0  0  0  0
   19.4504  -21.2400  -14.3911 C   0  0  0  0  0  0  0  0  0  0  0  0
   19.0133  -21.5775  -13.1308 O   0  0  0  0  0  0  0  0  0  0  0  0
   18.6056  -21.0626  -15.2942 O   0  0  0  0  0  0  0  0  0  0  0  0
  2  1  1  6
  2  5  1  0
  3  2  1  0
  4  3  1  0
  5  6  2  0
  5  7  1  0
  7  8  1  0
  8 15  1  0
  8  9  1  1
 10  9  1  0
 10 11  2  0
 12 11  1  0
 13 12  1  0
 14 13  2  0
 14 10  1  0
 15 16  2  0
 17 18  1  0
 18 20  1  0
 19 18  2  0
 20 21  1  0
 21 22  1  0
 24 23  1  6
 23 22  1  0
 25 24  1  0
 25 15  1  0
 26 27  1  0
 26 24  1  0
 28 26  2  0
M  END
$$$$
