CHR.pdb
     RDKit          3D

 28 28  0  0  1  0  0  0  0  0999 V2000
   29.3848  -20.7376  -10.4769 N   0  0  0  0  0  0  0  0  0  0  0  0
   27.9625  -20.8480  -10.7059 C   0  0  1  0  0  0  0  0  0  0  0  0
   27.1866  -20.6993   -9.4051 C   0  0  0  0  0  0  0  0  0  0  0  0
   28.0593  -21.4165   -8.0039 S   0  0  0  0  0  0  0  0  0  0  0  0
   27.4929  -19.8633  -11.7254 C   0  0  0  0  0  0  0  0  0  0  0  0
   27.9517  -18.6998  -11.6699 O   0  0  0  0  0  0  0  0  0  0  0  0
   26.5669  -20.3229  -12.6731 N   0  0  0  0  0  0  0  0  0  0  0  0
   26.2923  -19.5720  -13.9320 C   0  0  1  0  0  0  0  0  0  0  0  0
   27.5743  -19.4492  -14.6679 C   0  0  0  0  0  0  0  0  0  0  0  0
   27.6471  -18.6950  -15.9021 C   0  0  0  0  0  0  0  0  0  0  0  0
   26.4843  -18.1105  -16.4642 C   0  0  0  0  0  0  0  0  0  0  0  0
   26.8515  -17.4892  -17.5798 N   0  0  0  0  0  0  0  0  0  0  0  0
   28.1765  -17.6329  -17.7778 C   0  0  0  0  0  0  0  0  0  0  0  0
   28.6048  -18.3602  -16.7491 N   0  0  0  0  0  0  0  0  0  0  0  0
   25.1987  -20.2996  -14.5634 C   0  0  0  0  0  0  0  0  0  0  0  0
   25.3487  -21.5338  -14.8588 O   0  0  0  0  0  0  0  0  0  0  0  0
   20.6144  -20.0639   -9.7802 N   0  0  0  0  0  0  0  0  0  0  0  0
   19.7930  -20.3587  -10.8966 C   0  0  0  0  0  0  0  0  0  0  0  0
   18.5153  -20.1633  -10.8421 N   0  0  0  0  0  0  0  0  0  0  0  0
   20.3027  -20.8756  -12.1185 N   0  0  0  0  0  0  0  0  0  0  0  0
   21.6495  -21.3062  -12.2674 C   0  0  0  0  0  0  0  0  0  0  0  0
   21.9918  -21.8785  -13.6279 C   0  0  0  0  0  0  0  0  0  0  0  0
   21.8115  -20.7341  -14.6013 C   0  0  0  0  0  0  0  0  0  0  0  0
   22.9136  -20.5684  -15.5866 C   0  0  2  0  0  0  0  0  0  0  0  0
   23.9494  -19.7619  -14.8850 N   0  0  0  0  0  0  0  0  0  0  0  0
   22.5399  -19.9107  -16.8495 C   0  0  0  0  0  0  0  0  0  0  0  0
   22.0293  -20.6485  -17.8927 O   0  0  0  0  0  0  0  0  0  0  0  0
   22.6790  -18.6777  -16.9953 O   0  0  0  0  0  0  0  0  0  0  0  0
  2  1  1  1
  2  5  1  0
  3  2  1  0
  4  3  1  0
  5  6  2  0
  5  7  1  0
  7  8  1  0
  8 15  1  0
  8  9  1  6
 10  9  1  0
 10 11  2  0
 12 11  1  0
 13 12  1  0
 14 13  2  0
 14 10  1  0
 15 16  2  0
 17 18  1  0
 18 20  1  0
 19 18  2  0
 20 21  1  0
 21 22  1  0
 24 23  1  1
 23 22  1  0
 25 24  1  0
 25 15  1  0
 26 27  1  0
 26 24  1  0
 28 26  2  0
M  END
$$$$
