CHR.pdb
     RDKit          3D

 28 28  0  0  1  0  0  0  0  0999 V2000
   20.7951  -21.8192   -9.3657 N   0  0  0  0  0  0  0  0  0  0  0  0
   20.5814  -20.7441  -10.3072 C   0  0  1  0  0  0  0  0  0  0  0  0
   20.0300  -19.5088   -9.6098 C   0  0  0  0  0  0  0  0  0  0  0  0
   18.3550  -19.7593   -9.0009 S   0  0  0  0  0  0  0  0  0  0  0  0
   21.8280  -20.4211  -11.0630 C   0  0  0  0  0  0  0  0  0  0  0  0
   22.9243  -20.5873  -10.4819 O   0  0  0  0  0  0  0  0  0  0  0  0
   21.6715  -19.9527  -12.3756 N   0  0  0  0  0  0  0  0  0  0  0  0
   22.7678  -20.0527  -13.3817 C   0  0  1  0  0  0  0  0  0  0  0  0
   23.2182  -21.4656  -13.4129 C   0  0  0  0  0  0  0  0  0  0  0  0
   24.1895  -21.9088  -14.3916 C   0  0  0  0  0  0  0  0  0  0  0  0
   25.4497  -21.2690  -14.5034 C   0  0  0  0  0  0  0  0  0  0  0  0
   26.1217  -21.8818  -15.4721 N   0  0  0  0  0  0  0  0  0  0  0  0
   25.3794  -22.8771  -15.9956 C   0  0  0  0  0  0  0  0  0  0  0  0
   24.2354  -22.8517  -15.3164 N   0  0  0  0  0  0  0  0  0  0  0  0
   22.2051  -19.4786  -14.5975 C   0  0  0  0  0  0  0  0  0  0  0  0
   21.0405  -19.8354  -14.9840 O   0  0  0  0  0  0  0  0  0  0  0  0
   26.1713  -13.7230  -15.1927 N   0  0  0  0  0  0  0  0  0  0  0  0
   26.3553  -14.7066  -16.1959 C   0  0  0  0  0  0  0  0  0  0  0  0
   27.5136  -15.2544  -16.3745 N   0  0  0  0  0  0  0  0  0  0  0  0
   25.3087  -15.1460  -17.0514 N   0  0  0  0  0  0  0  0  0  0  0  0
   23.9568  -14.7401  -16.8812 C   0  0  0  0  0  0  0  0  0  0  0  0
   23.0562  -15.7706  -16.2310 C   0  0  0  0  0  0  0  0  0  0  0  0
   23.0710  -16.9618  -17.1640 C   0  0  0  0  0  0  0  0  0  0  0  0
   22.2510  -18.1197  -16.7169 C   0  0  2  0  0  0  0  0  0  0  0  0
   22.8351  -18.5337  -15.4119 N   0  0  0  0  0  0  0  0  0  0  0  0
   22.2224  -19.2681  -17.6375 C   0  0  0  0  0  0  0  0  0  0  0  0
   21.2274  -19.3772  -18.5816 O   0  0  0  0  0  0  0  0  0  0  0  0
   23.0965  -20.1588  -17.5780 O   0  0  0  0  0  0  0  0  0  0  0  0
  2  1  1  1
  2  5  1  0
  3  2  1  0
  4  3  1  0
  5  6  2  0
  5  7  1  0
  7  8  1  0
  8 15  1  0
  8  9  1  6
 10  9  1  0
 10 11  2  0
 12 11  1  0
 13 12  1  0
 14 13  2  0
 14 10  1  0
 15 16  2  0
 17 18  1  0
 18 20  1  0
 19 18  2  0
 20 21  1  0
 21 22  1  0
 24 23  1  6
 23 22  1  0
 25 24  1  0
 25 15  1  0
 26 27  1  0
 26 24  1  0
 28 26  2  0
M  END
$$$$
