CHR.pdb
     RDKit          3D

 28 28  0  0  1  0  0  0  0  0999 V2000
   27.2178  -20.8902  -22.7228 N   0  0  0  0  0  0  0  0  0  0  0  0
   26.1867  -20.4990  -21.7892 C   0  0  1  0  0  0  0  0  0  0  0  0
   25.1564  -21.6060  -21.6178 C   0  0  0  0  0  0  0  0  0  0  0  0
   24.3529  -22.0368  -23.1696 S   0  0  0  0  0  0  0  0  0  0  0  0
   26.7635  -20.0952  -20.4724 C   0  0  0  0  0  0  0  0  0  0  0  0
   27.9556  -19.7138  -20.4480 O   0  0  0  0  0  0  0  0  0  0  0  0
   25.9174  -20.1759  -19.3569 N   0  0  0  0  0  0  0  0  0  0  0  0
   26.2159  -19.4483  -18.0898 C   0  0  1  0  0  0  0  0  0  0  0  0
   26.4196  -18.0195  -18.4322 C   0  0  0  0  0  0  0  0  0  0  0  0
   26.6734  -17.0413  -17.3948 C   0  0  0  0  0  0  0  0  0  0  0  0
   26.7517  -17.4313  -16.0341 C   0  0  0  0  0  0  0  0  0  0  0  0
   26.9906  -16.3364  -15.3202 N   0  0  0  0  0  0  0  0  0  0  0  0
   27.0722  -15.2620  -16.1293 C   0  0  0  0  0  0  0  0  0  0  0  0
   26.8759  -15.7359  -17.3571 N   0  0  0  0  0  0  0  0  0  0  0  0
   25.1171  -19.7964  -17.1978 C   0  0  0  0  0  0  0  0  0  0  0  0
   23.9113  -19.6187  -17.5820 O   0  0  0  0  0  0  0  0  0  0  0  0
   24.4182  -20.7770   -7.6990 N   0  0  0  0  0  0  0  0  0  0  0  0
   25.0302  -20.7181   -8.9758 C   0  0  0  0  0  0  0  0  0  0  0  0
   26.3124  -20.8408   -9.0962 N   0  0  0  0  0  0  0  0  0  0  0  0
   24.2971  -20.5246  -10.1780 N   0  0  0  0  0  0  0  0  0  0  0  0
   24.4832  -21.3373  -11.3296 C   0  0  0  0  0  0  0  0  0  0  0  0
   23.6750  -20.9233  -12.5426 C   0  0  0  0  0  0  0  0  0  0  0  0
   24.6764  -20.8072  -13.6711 C   0  0  0  0  0  0  0  0  0  0  0  0
   24.0935  -20.4572  -14.9941 C   0  0  2  0  0  0  0  0  0  0  0  0
   25.2563  -20.3330  -15.9150 N   0  0  0  0  0  0  0  0  0  0  0  0
   23.2964  -19.2199  -15.0273 C   0  0  0  0  0  0  0  0  0  0  0  0
   23.9166  -17.9965  -15.1370 O   0  0  0  0  0  0  0  0  0  0  0  0
   22.0497  -19.2590  -14.9570 O   0  0  0  0  0  0  0  0  0  0  0  0
  2  1  1  6
  2  5  1  0
  3  2  1  0
  4  3  1  0
  5  6  2  0
  5  7  1  0
  7  8  1  0
  8 15  1  0
  8  9  1  6
 10  9  1  0
 10 11  2  0
 12 11  1  0
 13 12  1  0
 14 13  2  0
 14 10  1  0
 15 16  2  0
 17 18  1  0
 18 20  1  0
 19 18  2  0
 20 21  1  0
 21 22  1  0
 24 23  1  1
 23 22  1  0
 25 24  1  0
 25 15  1  0
 26 27  1  0
 26 24  1  0
 28 26  2  0
M  END
$$$$
