CHR.pdb
     RDKit          3D

 28 28  0  0  1  0  0  0  0  0999 V2000
   22.1950  -14.6207  -17.5998 N   0  0  0  0  0  0  0  0  0  0  0  0
   22.2953  -13.2529  -18.0545 C   0  0  1  0  0  0  0  0  0  0  0  0
   20.9575  -12.7525  -18.5802 C   0  0  0  0  0  0  0  0  0  0  0  0
   20.4023  -13.6754  -20.0221 S   0  0  0  0  0  0  0  0  0  0  0  0
   22.8193  -12.3554  -16.9823 C   0  0  0  0  0  0  0  0  0  0  0  0
   22.4896  -12.6019  -15.8001 O   0  0  0  0  0  0  0  0  0  0  0  0
   23.6464  -11.2978  -17.3874 N   0  0  0  0  0  0  0  0  0  0  0  0
   24.2055  -10.3189  -16.4109 C   0  0  1  0  0  0  0  0  0  0  0  0
   25.6639  -10.2200  -16.6624 C   0  0  0  0  0  0  0  0  0  0  0  0
   26.5588  -11.2771  -16.2392 C   0  0  0  0  0  0  0  0  0  0  0  0
   26.0626  -12.4190  -15.5613 C   0  0  0  0  0  0  0  0  0  0  0  0
   27.0993  -13.2083  -15.3011 N   0  0  0  0  0  0  0  0  0  0  0  0
   28.2354  -12.6525  -15.7660 C   0  0  0  0  0  0  0  0  0  0  0  0
   27.8589  -11.5014  -16.3171 N   0  0  0  0  0  0  0  0  0  0  0  0
   23.3909   -9.1225  -16.5817 C   0  0  0  0  0  0  0  0  0  0  0  0
   23.0298   -8.7665  -17.7547 O   0  0  0  0  0  0  0  0  0  0  0  0
   16.4243   -8.8573  -18.9938 N   0  0  0  0  0  0  0  0  0  0  0  0
   16.3952   -7.5150  -18.5407 C   0  0  0  0  0  0  0  0  0  0  0  0
   15.3733   -6.7606  -18.7861 N   0  0  0  0  0  0  0  0  0  0  0  0
   17.4580   -6.9219  -17.8066 N   0  0  0  0  0  0  0  0  0  0  0  0
   18.6410   -7.6306  -17.4607 C   0  0  0  0  0  0  0  0  0  0  0  0
   19.7114   -6.7980  -16.7847 C   0  0  0  0  0  0  0  0  0  0  0  0
   20.8567   -7.7520  -16.5244 C   0  0  0  0  0  0  0  0  0  0  0  0
   22.0177   -7.1585  -15.8084 C   0  0  2  0  0  0  0  0  0  0  0  0
   22.9417   -8.2961  -15.5481 N   0  0  0  0  0  0  0  0  0  0  0  0
   21.6995   -6.4748  -14.5441 C   0  0  0  0  0  0  0  0  0  0  0  0
   21.2691   -5.1679  -14.5500 O   0  0  0  0  0  0  0  0  0  0  0  0
   21.8138   -7.0663  -13.4496 O   0  0  0  0  0  0  0  0  0  0  0  0
  2  1  1  1
  2  5  1  0
  3  2  1  0
  4  3  1  0
  5  6  2  0
  5  7  1  0
  7  8  1  0
  8 15  1  0
  8  9  1  6
 10  9  1  0
 10 11  2  0
 12 11  1  0
 13 12  1  0
 14 13  2  0
 14 10  1  0
 15 16  2  0
 17 18  1  0
 18 20  1  0
 19 18  2  0
 20 21  1  0
 21 22  1  0
 24 23  1  1
 23 22  1  0
 25 24  1  0
 25 15  1  0
 26 27  1  0
 26 24  1  0
 28 26  2  0
M  END
$$$$
