CHR.pdb
     RDKit          3D

 28 28  0  0  1  0  0  0  0  0999 V2000
   24.7637  -21.7990  -14.5531 N   0  0  0  0  0  0  0  0  0  0  0  0
   23.6761  -21.0508  -13.9659 C   0  0  1  0  0  0  0  0  0  0  0  0
   23.3418  -19.8246  -14.8032 C   0  0  0  0  0  0  0  0  0  0  0  0
   22.7967  -20.2591  -16.4625 S   0  0  0  0  0  0  0  0  0  0  0  0
   22.4690  -21.9059  -13.7624 C   0  0  0  0  0  0  0  0  0  0  0  0
   22.4105  -22.9924  -14.3816 O   0  0  0  0  0  0  0  0  0  0  0  0
   21.4873  -21.4207  -12.8863 N   0  0  0  0  0  0  0  0  0  0  0  0
   20.2252  -22.1715  -12.6266 C   0  0  1  0  0  0  0  0  0  0  0  0
   19.7580  -21.8039  -11.2677 C   0  0  0  0  0  0  0  0  0  0  0  0
   19.4707  -22.8276  -10.2844 C   0  0  0  0  0  0  0  0  0  0  0  0
   19.4224  -24.1952  -10.6546 C   0  0  0  0  0  0  0  0  0  0  0  0
   19.1420  -24.8935   -9.5594 N   0  0  0  0  0  0  0  0  0  0  0  0
   19.0053  -24.0678   -8.5034 C   0  0  0  0  0  0  0  0  0  0  0  0
   19.2110  -22.8460   -8.9887 N   0  0  0  0  0  0  0  0  0  0  0  0
   19.3683  -21.8551  -13.7624 C   0  0  0  0  0  0  0  0  0  0  0  0
   19.3839  -20.6766  -14.2563 O   0  0  0  0  0  0  0  0  0  0  0  0
   13.4981  -24.3104  -17.7153 N   0  0  0  0  0  0  0  0  0  0  0  0
   14.0383  -24.6983  -18.9665 C   0  0  0  0  0  0  0  0  0  0  0  0
   13.2654  -24.8811  -19.9877 N   0  0  0  0  0  0  0  0  0  0  0  0
   15.4280  -24.9079  -19.1789 N   0  0  0  0  0  0  0  0  0  0  0  0
   16.3906  -24.7832  -18.1401 C   0  0  0  0  0  0  0  0  0  0  0  0
   16.4745  -23.4093  -17.5069 C   0  0  0  0  0  0  0  0  0  0  0  0
   17.3331  -23.5878  -16.2737 C   0  0  0  0  0  0  0  0  0  0  0  0
   17.6558  -22.3312  -15.5460 C   0  0  2  0  0  0  0  0  0  0  0  0
   18.5011  -22.7502  -14.3947 N   0  0  0  0  0  0  0  0  0  0  0  0
   16.4961  -21.5651  -15.0607 C   0  0  0  0  0  0  0  0  0  0  0  0
   16.0147  -21.7650  -13.7873 O   0  0  0  0  0  0  0  0  0  0  0  0
   15.9320  -20.7244  -15.7927 O   0  0  0  0  0  0  0  0  0  0  0  0
  2  1  1  6
  2  5  1  0
  3  2  1  0
  4  3  1  0
  5  6  2  0
  5  7  1  0
  7  8  1  0
  8 15  1  0
  8  9  1  1
 10  9  1  0
 10 11  2  0
 12 11  1  0
 13 12  1  0
 14 13  2  0
 14 10  1  0
 15 16  2  0
 17 18  1  0
 18 20  1  0
 19 18  2  0
 20 21  1  0
 21 22  1  0
 24 23  1  1
 23 22  1  0
 25 24  1  0
 25 15  1  0
 26 27  1  0
 26 24  1  0
 28 26  2  0
M  END
$$$$
