CHR.pdb
     RDKit          3D

 28 28  0  0  1  0  0  0  0  0999 V2000
   43.8751  -11.5008   -6.9103 N   0  0  0  0  0  0  0  0  0  0  0  0
   42.4720  -11.2401   -7.1364 C   0  0  1  0  0  0  0  0  0  0  0  0
   41.8455  -10.5437   -5.9369 C   0  0  0  0  0  0  0  0  0  0  0  0
   40.0553  -10.7253   -5.9004 S   0  0  0  0  0  0  0  0  0  0  0  0
   42.2548  -10.4530   -8.3866 C   0  0  0  0  0  0  0  0  0  0  0  0
   43.1457   -9.6434   -8.7304 O   0  0  0  0  0  0  0  0  0  0  0  0
   41.0599  -10.6842   -9.0832 N   0  0  0  0  0  0  0  0  0  0  0  0
   40.7298   -9.9548  -10.3415 C   0  0  1  0  0  0  0  0  0  0  0  0
   40.1075  -10.9278  -11.2721 C   0  0  0  0  0  0  0  0  0  0  0  0
   40.9202  -11.6773  -12.2076 C   0  0  0  0  0  0  0  0  0  0  0  0
   42.3326  -11.5559  -12.2002 C   0  0  0  0  0  0  0  0  0  0  0  0
   42.8047  -12.3502  -13.1550 N   0  0  0  0  0  0  0  0  0  0  0  0
   41.7904  -12.9786  -13.7811 C   0  0  0  0  0  0  0  0  0  0  0  0
   40.6869  -12.5430  -13.1785 N   0  0  0  0  0  0  0  0  0  0  0  0
   39.9395   -8.8100   -9.9067 C   0  0  0  0  0  0  0  0  0  0  0  0
   38.9695   -8.9845   -9.0934 O   0  0  0  0  0  0  0  0  0  0  0  0
   42.3070   -1.4382   -6.6474 N   0  0  0  0  0  0  0  0  0  0  0  0
   40.9727   -1.1032   -6.9870 C   0  0  0  0  0  0  0  0  0  0  0  0
   40.4768    0.0431   -6.6498 N   0  0  0  0  0  0  0  0  0  0  0  0
   40.1116   -1.9801   -7.7010 N   0  0  0  0  0  0  0  0  0  0  0  0
   40.5524   -3.2212   -8.2364 C   0  0  0  0  0  0  0  0  0  0  0  0
   39.4621   -4.0785   -8.8464 C   0  0  0  0  0  0  0  0  0  0  0  0
   40.1423   -5.3712   -9.2414 C   0  0  0  0  0  0  0  0  0  0  0  0
   39.2478   -6.3893   -9.8547 C   0  0  2  0  0  0  0  0  0  0  0  0
   40.1496   -7.4859  -10.3016 N   0  0  0  0  0  0  0  0  0  0  0  0
   38.4359   -5.9177  -10.9886 C   0  0  0  0  0  0  0  0  0  0  0  0
   37.3661   -5.0789  -10.7759 O   0  0  0  0  0  0  0  0  0  0  0  0
   38.7027   -6.2689  -12.1575 O   0  0  0  0  0  0  0  0  0  0  0  0
  2  1  1  1
  2  5  1  0
  3  2  1  0
  4  3  1  0
  5  6  2  0
  5  7  1  0
  7  8  1  0
  8 15  1  0
  8  9  1  6
 10  9  1  0
 10 11  2  0
 12 11  1  0
 13 12  1  0
 14 13  2  0
 14 10  1  0
 15 16  2  0
 17 18  1  0
 18 20  1  0
 19 18  2  0
 20 21  1  0
 21 22  1  0
 24 23  1  6
 23 22  1  0
 25 24  1  0
 25 15  1  0
 26 27  1  0
 26 24  1  0
 28 26  2  0
M  END
$$$$
