CHR.pdb
     RDKit          3D

 28 28  0  0  1  0  0  0  0  0999 V2000
   23.2020  -19.0813  -21.1798 N   0  0  0  0  0  0  0  0  0  0  0  0
   22.4926  -18.9538  -19.9276 C   0  0  1  0  0  0  0  0  0  0  0  0
   22.6268  -20.2191  -19.0925 C   0  0  0  0  0  0  0  0  0  0  0  0
   22.7872  -21.6948  -20.1102 S   0  0  0  0  0  0  0  0  0  0  0  0
   22.9449  -17.7552  -19.1605 C   0  0  0  0  0  0  0  0  0  0  0  0
   22.4211  -17.5437  -18.0433 O   0  0  0  0  0  0  0  0  0  0  0  0
   23.9289  -16.9536  -19.7569 N   0  0  0  0  0  0  0  0  0  0  0  0
   24.4220  -15.7031  -19.1108 C   0  0  1  0  0  0  0  0  0  0  0  0
   25.9019  -15.7839  -19.0521 C   0  0  0  0  0  0  0  0  0  0  0  0
   26.5565  -16.6202  -18.0673 C   0  0  0  0  0  0  0  0  0  0  0  0
   25.8077  -17.2636  -17.0499 C   0  0  0  0  0  0  0  0  0  0  0  0
   26.6632  -17.9535  -16.3032 N   0  0  0  0  0  0  0  0  0  0  0  0
   27.9178  -17.7993  -16.7700 C   0  0  0  0  0  0  0  0  0  0  0  0
   27.8001  -16.9949  -17.8235 N   0  0  0  0  0  0  0  0  0  0  0  0
   23.8178  -14.6260  -19.8848 C   0  0  0  0  0  0  0  0  0  0  0  0
   23.7571  -14.7202  -21.1578 O   0  0  0  0  0  0  0  0  0  0  0  0
   17.8753   -8.8083  -17.3465 N   0  0  0  0  0  0  0  0  0  0  0  0
   18.0908   -8.4347  -18.6963 C   0  0  0  0  0  0  0  0  0  0  0  0
   17.3622   -7.5197  -19.2492 N   0  0  0  0  0  0  0  0  0  0  0  0
   19.0942   -9.0239  -19.5126 N   0  0  0  0  0  0  0  0  0  0  0  0
   19.9012  -10.1090  -19.0737 C   0  0  0  0  0  0  0  0  0  0  0  0
   20.9161  -10.6019  -20.0851 C   0  0  0  0  0  0  0  0  0  0  0  0
   21.6504  -11.7325  -19.3980 C   0  0  0  0  0  0  0  0  0  0  0  0
   22.6903  -12.4005  -20.2259 C   0  0  2  0  0  0  0  0  0  0  0  0
   23.2700  -13.4562  -19.3513 N   0  0  0  0  0  0  0  0  0  0  0  0
   23.7614  -11.5229  -20.7258 C   0  0  0  0  0  0  0  0  0  0  0  0
   24.9734  -11.4668  -20.0768 O   0  0  0  0  0  0  0  0  0  0  0  0
   23.5896  -10.8178  -21.7427 O   0  0  0  0  0  0  0  0  0  0  0  0
  2  1  1  6
  2  5  1  0
  3  2  1  0
  4  3  1  0
  5  6  2  0
  5  7  1  0
  7  8  1  0
  8 15  1  0
  8  9  1  6
 10  9  1  0
 10 11  2  0
 12 11  1  0
 13 12  1  0
 14 13  2  0
 14 10  1  0
 15 16  2  0
 17 18  1  0
 18 20  1  0
 19 18  2  0
 20 21  1  0
 21 22  1  0
 24 23  1  1
 23 22  1  0
 25 24  1  0
 25 15  1  0
 26 27  1  0
 26 24  1  0
 28 26  2  0
M  END
$$$$
