CHR.pdb
     RDKit          3D

 28 28  0  0  1  0  0  0  0  0999 V2000
   18.2138  -27.6996   -9.3351 N   0  0  0  0  0  0  0  0  0  0  0  0
   18.3722  -26.4107   -9.9687 C   0  0  1  0  0  0  0  0  0  0  0  0
   19.4419  -25.5853   -9.2680 C   0  0  0  0  0  0  0  0  0  0  0  0
   19.0620  -25.3093   -7.5306 S   0  0  0  0  0  0  0  0  0  0  0  0
   18.6702  -26.5483  -11.4253 C   0  0  0  0  0  0  0  0  0  0  0  0
   18.9505  -27.6884  -11.8600 O   0  0  0  0  0  0  0  0  0  0  0  0
   18.6124  -25.3799  -12.1986 N   0  0  0  0  0  0  0  0  0  0  0  0
   18.7382  -25.4136  -13.6843 C   0  0  1  0  0  0  0  0  0  0  0  0
   17.3698  -25.5210  -14.2464 C   0  0  0  0  0  0  0  0  0  0  0  0
   17.1487  -25.4194  -15.6741 C   0  0  0  0  0  0  0  0  0  0  0  0
   17.6621  -26.4009  -16.5588 C   0  0  0  0  0  0  0  0  0  0  0  0
   17.3073  -26.0501  -17.7903 N   0  0  0  0  0  0  0  0  0  0  0  0
   16.5974  -24.9052  -17.7617 C   0  0  0  0  0  0  0  0  0  0  0  0
   16.5307  -24.5697  -16.4758 N   0  0  0  0  0  0  0  0  0  0  0  0
   19.5312  -24.2358  -14.0133 C   0  0  0  0  0  0  0  0  0  0  0  0
   19.3831  -23.1645  -13.3327 O   0  0  0  0  0  0  0  0  0  0  0  0
   26.7278  -25.1680  -18.3277 N   0  0  0  0  0  0  0  0  0  0  0  0
   26.6867  -25.5235  -16.9566 C   0  0  0  0  0  0  0  0  0  0  0  0
   27.6294  -26.2395  -16.4349 N   0  0  0  0  0  0  0  0  0  0  0  0
   25.6354  -25.1291  -16.0852 N   0  0  0  0  0  0  0  0  0  0  0  0
   24.5245  -24.3573  -16.5228 C   0  0  0  0  0  0  0  0  0  0  0  0
   23.5018  -24.0421  -15.4502 C   0  0  0  0  0  0  0  0  0  0  0  0
   22.3814  -23.3182  -16.1647 C   0  0  0  0  0  0  0  0  0  0  0  0
   21.2441  -22.9098  -15.2972 C   0  0  2  0  0  0  0  0  0  0  0  0
   20.4805  -24.1605  -15.0362 N   0  0  0  0  0  0  0  0  0  0  0  0
   20.3493  -21.8884  -15.8658 C   0  0  0  0  0  0  0  0  0  0  0  0
   20.5510  -20.5558  -15.5886 O   0  0  0  0  0  0  0  0  0  0  0  0
   19.3964  -22.2120  -16.6061 O   0  0  0  0  0  0  0  0  0  0  0  0
  2  1  1  1
  2  5  1  0
  3  2  1  0
  4  3  1  0
  5  6  2  0
  5  7  1  0
  7  8  1  0
  8 15  1  0
  8  9  1  6
 10  9  1  0
 10 11  2  0
 12 11  1  0
 13 12  1  0
 14 13  2  0
 14 10  1  0
 15 16  2  0
 17 18  1  0
 18 20  1  0
 19 18  2  0
 20 21  1  0
 21 22  1  0
 24 23  1  6
 23 22  1  0
 25 24  1  0
 25 15  1  0
 26 27  1  0
 26 24  1  0
 28 26  2  0
M  END
$$$$
