CHR.pdb
     RDKit          3D

 28 28  0  0  1  0  0  0  0  0999 V2000
   21.4524  -14.5757  -16.8035 N   0  0  0  0  0  0  0  0  0  0  0  0
   20.9072  -13.2630  -17.0628 C   0  0  1  0  0  0  0  0  0  0  0  0
   19.3979  -13.3253  -17.2490 C   0  0  0  0  0  0  0  0  0  0  0  0
   18.6649  -11.6920  -17.4332 S   0  0  0  0  0  0  0  0  0  0  0  0
   21.2748  -12.2941  -15.9878 C   0  0  0  0  0  0  0  0  0  0  0  0
   21.1791  -12.6751  -14.7991 O   0  0  0  0  0  0  0  0  0  0  0  0
   21.7019  -11.0228  -16.3975 N   0  0  0  0  0  0  0  0  0  0  0  0
   21.9648   -9.9287  -15.4186 C   0  0  1  0  0  0  0  0  0  0  0  0
   23.2273   -9.2623  -15.8215 C   0  0  0  0  0  0  0  0  0  0  0  0
   24.5078   -9.8823  -15.5504 C   0  0  0  0  0  0  0  0  0  0  0  0
   24.5882  -11.0791  -14.7947 C   0  0  0  0  0  0  0  0  0  0  0  0
   25.8724  -11.4092  -14.7091 N   0  0  0  0  0  0  0  0  0  0  0  0
   26.6298  -10.5045  -15.3599 C   0  0  0  0  0  0  0  0  0  0  0  0
   25.7679   -9.6139  -15.8443 N   0  0  0  0  0  0  0  0  0  0  0  0
   20.7387   -9.1408  -15.4092 C   0  0  0  0  0  0  0  0  0  0  0  0
   20.0841   -8.9783  -16.4946 O   0  0  0  0  0  0  0  0  0  0  0  0
   13.6991  -10.4875  -11.3235 N   0  0  0  0  0  0  0  0  0  0  0  0
   13.3359   -9.3414  -12.0734 C   0  0  0  0  0  0  0  0  0  0  0  0
   12.1012   -8.9598  -12.1339 N   0  0  0  0  0  0  0  0  0  0  0  0
   14.2774   -8.5548  -12.7912 N   0  0  0  0  0  0  0  0  0  0  0  0
   15.6325   -8.9483  -12.9647 C   0  0  0  0  0  0  0  0  0  0  0  0
   16.5088   -7.9324  -13.6688 C   0  0  0  0  0  0  0  0  0  0  0  0
   17.8760   -8.5748  -13.7572 C   0  0  0  0  0  0  0  0  0  0  0  0
   18.9296   -7.7264  -14.3762 C   0  0  2  0  0  0  0  0  0  0  0  0
   20.1816   -8.5261  -14.2845 N   0  0  0  0  0  0  0  0  0  0  0  0
   19.1314   -6.4098  -13.7492 C   0  0  0  0  0  0  0  0  0  0  0  0
   18.2695   -5.3719  -14.0198 O   0  0  0  0  0  0  0  0  0  0  0  0
   20.0835   -6.2131  -12.9646 O   0  0  0  0  0  0  0  0  0  0  0  0
  2  1  1  1
  2  5  1  0
  3  2  1  0
  4  3  1  0
  5  6  2  0
  5  7  1  0
  7  8  1  0
  8 15  1  0
  8  9  1  6
 10  9  1  0
 10 11  2  0
 12 11  1  0
 13 12  1  0
 14 13  2  0
 14 10  1  0
 15 16  2  0
 17 18  1  0
 18 20  1  0
 19 18  2  0
 20 21  1  0
 21 22  1  0
 24 23  1  1
 23 22  1  0
 25 24  1  0
 25 15  1  0
 26 27  1  0
 26 24  1  0
 28 26  2  0
M  END
$$$$
