GLE.pdb
     RDKit          3D

 22 21  0  0  1  0  0  0  0  0999 V2000
   27.0278  -16.6480  -17.2121 N   0  0  0  0  0  0  0  0  0  0  0  0
   26.8458  -16.7105  -15.7857 C   0  0  0  0  0  0  0  0  0  0  0  0
   26.2576  -17.9792  -15.3305 C   0  0  0  0  0  0  0  0  0  0  0  0
   25.8125  -18.7785  -16.2069 O   0  0  0  0  0  0  0  0  0  0  0  0
   26.8826  -21.7353  -10.6458 C   0  0  0  0  0  0  0  0  0  0  0  0
   26.4843  -21.2732  -11.9976 C   0  0  2  0  0  0  0  0  0  0  0  0
   27.7475  -21.2483  -12.8753 C   0  0  0  0  0  0  0  0  0  0  0  0
   25.8723  -19.9334  -12.1109 C   0  0  0  0  0  0  0  0  0  0  0  0
   25.4873  -19.4477  -13.4588 C   0  0  2  0  0  0  0  0  0  0  0  0
   26.1963  -18.2887  -13.9356 N   0  0  0  0  0  0  0  0  0  0  0  0
   24.0134  -19.3026  -13.6133 C   0  0  0  0  0  0  0  0  0  0  0  0
   23.4730  -18.2831  -13.1222 O   0  0  0  0  0  0  0  0  0  0  0  0
   23.1839  -20.2412  -14.2786 N   0  0  0  0  0  0  0  0  0  0  0  0
   21.7241  -20.0247  -14.4025 C   0  0  1  0  0  0  0  0  0  0  0  0
   21.4748  -19.4330  -15.7460 C   0  0  0  0  0  0  0  0  0  0  0  0
   20.0262  -19.2555  -16.0837 C   0  0  0  0  0  0  0  0  0  0  0  0
   19.7819  -18.7431  -17.4358 C   0  0  0  0  0  0  0  0  0  0  0  0
   19.3709  -19.4921  -18.3549 O   0  0  0  0  0  0  0  0  0  0  0  0
   21.1000  -21.3684  -14.2846 C   0  0  0  0  0  0  0  0  0  0  0  0
   21.7627  -22.4104  -14.5309 O   0  0  0  0  0  0  0  0  0  0  0  0
   19.9894  -17.4081  -17.7765 O   0  0  0  0  0  0  0  0  0  0  0  0
   19.7776  -21.5538  -13.9034 O   0  0  0  0  0  0  0  0  0  0  0  0
  2  1  1  0
  2  3  1  0
  3 10  1  0
  3  4  2  0
  6  8  1  0
  6  5  1  1
  7  6  1  0
  9  8  1  1
 10  9  1  0
 11  9  1  0
 11 13  1  0
 12 11  2  0
 14 15  1  6
 14 13  1  0
 14 19  1  0
 16 15  1  0
 17 16  1  0
 18 17  2  0
 19 22  1  0
 20 19  2  0
 21 17  1  0
M  END
$$$$
