GLE.pdb
     RDKit          3D

 22 21  0  0  1  0  0  0  0  0999 V2000
   20.4519  -21.9443   -7.8964 N   0  0  0  0  0  0  0  0  0  0  0  0
   21.7987  -22.3086   -7.5425 C   0  0  0  0  0  0  0  0  0  0  0  0
   22.8056  -21.3545   -8.0313 C   0  0  0  0  0  0  0  0  0  0  0  0
   22.4410  -20.4831   -8.8756 O   0  0  0  0  0  0  0  0  0  0  0  0
   28.8801  -19.7853   -7.3659 C   0  0  0  0  0  0  0  0  0  0  0  0
   27.5356  -19.6811   -7.9832 C   0  0  2  0  0  0  0  0  0  0  0  0
   27.0733  -18.2194   -7.8550 C   0  0  0  0  0  0  0  0  0  0  0  0
   26.4542  -20.5111   -7.4141 C   0  0  0  0  0  0  0  0  0  0  0  0
   25.2065  -20.6759   -8.1995 C   0  0  2  0  0  0  0  0  0  0  0  0
   24.1537  -21.4203   -7.5586 N   0  0  0  0  0  0  0  0  0  0  0  0
   25.4642  -21.1551   -9.5857 C   0  0  0  0  0  0  0  0  0  0  0  0
   25.7991  -22.3543   -9.7354 O   0  0  0  0  0  0  0  0  0  0  0  0
   25.3554  -20.3442  -10.7442 N   0  0  0  0  0  0  0  0  0  0  0  0
   25.4411  -20.9287  -12.1023 C   0  0  1  0  0  0  0  0  0  0  0  0
   24.4433  -20.2237  -12.9535 C   0  0  0  0  0  0  0  0  0  0  0  0
   24.4550  -20.6397  -14.3925 C   0  0  0  0  0  0  0  0  0  0  0  0
   23.4934  -19.9211  -15.2346 C   0  0  0  0  0  0  0  0  0  0  0  0
   22.7787  -18.9996  -14.7712 O   0  0  0  0  0  0  0  0  0  0  0  0
   26.8265  -20.6678  -12.5730 C   0  0  0  0  0  0  0  0  0  0  0  0
   27.4382  -19.6226  -12.2278 O   0  0  0  0  0  0  0  0  0  0  0  0
   23.3181  -20.2158  -16.5851 O   0  0  0  0  0  0  0  0  0  0  0  0
   27.5169  -21.5411  -13.4031 O   0  0  0  0  0  0  0  0  0  0  0  0
  2  1  1  0
  2  3  1  0
  3 10  1  0
  3  4  2  0
  6  8  1  0
  6  5  1  1
  7  6  1  0
  9  8  1  1
 10  9  1  0
 11  9  1  0
 11 13  1  0
 12 11  2  0
 14 15  1  6
 14 13  1  0
 14 19  1  0
 16 15  1  0
 17 16  1  0
 18 17  2  0
 19 22  1  0
 20 19  2  0
 21 17  1  0
M  END
$$$$
