GLE.pdb
     RDKit          3D

 22 21  0  0  1  0  0  0  0  0999 V2000
   28.5301  -20.2608  -17.6305 N   0  0  0  0  0  0  0  0  0  0  0  0
   28.2804  -19.5338  -16.4136 C   0  0  0  0  0  0  0  0  0  0  0  0
   27.3300  -20.2101  -15.5179 C   0  0  0  0  0  0  0  0  0  0  0  0
   26.6096  -21.1338  -16.0006 O   0  0  0  0  0  0  0  0  0  0  0  0
   25.4387  -20.2553   -9.5018 C   0  0  0  0  0  0  0  0  0  0  0  0
   25.3271  -20.6463  -10.9281 C   0  0  2  0  0  0  0  0  0  0  0  0
   25.2823  -22.1827  -10.9906 C   0  0  0  0  0  0  0  0  0  0  0  0
   26.4092  -20.2240  -11.8409 C   0  0  0  0  0  0  0  0  0  0  0  0
   26.1760  -20.3252  -13.3025 C   0  0  2  0  0  0  0  0  0  0  0  0
   27.2325  -19.8260  -14.1438 N   0  0  0  0  0  0  0  0  0  0  0  0
   24.8442  -19.7950  -13.7056 C   0  0  0  0  0  0  0  0  0  0  0  0
   24.6314  -18.5696  -13.5453 O   0  0  0  0  0  0  0  0  0  0  0  0
   23.8039  -20.5851  -14.2580 N   0  0  0  0  0  0  0  0  0  0  0  0
   22.5013  -19.9881  -14.6322 C   0  0  1  0  0  0  0  0  0  0  0  0
   22.3251  -20.1881  -16.0972 C   0  0  0  0  0  0  0  0  0  0  0  0
   22.2040  -21.6216  -16.5149 C   0  0  0  0  0  0  0  0  0  0  0  0
   21.1264  -21.8796  -17.4754 C   0  0  0  0  0  0  0  0  0  0  0  0
   20.3410  -20.9703  -17.8373 O   0  0  0  0  0  0  0  0  0  0  0  0
   21.4728  -20.7350  -13.8619 C   0  0  0  0  0  0  0  0  0  0  0  0
   21.7705  -21.7927  -13.2469 O   0  0  0  0  0  0  0  0  0  0  0  0
   20.9129  -23.1366  -18.0372 O   0  0  0  0  0  0  0  0  0  0  0  0
   20.1500  -20.3215  -13.7740 O   0  0  0  0  0  0  0  0  0  0  0  0
  2  1  1  0
  2  3  1  0
  3 10  1  0
  3  4  2  0
  6  8  1  0
  6  5  1  1
  7  6  1  0
  9  8  1  1
 10  9  1  0
 11  9  1  0
 11 13  1  0
 12 11  2  0
 14 15  1  6
 14 13  1  0
 14 19  1  0
 16 15  1  0
 17 16  1  0
 18 17  2  0
 19 22  1  0
 20 19  2  0
 21 17  1  0
M  END
$$$$
