GLE.pdb
     RDKit          3D

 22 21  0  0  1  0  0  0  0  0999 V2000
   21.4344  -22.3472   -6.7924 N   0  0  0  0  0  0  0  0  0  0  0  0
   22.8708  -22.3695   -6.7037 C   0  0  0  0  0  0  0  0  0  0  0  0
   23.5232  -21.4098   -7.6072 C   0  0  0  0  0  0  0  0  0  0  0  0
   22.7860  -20.6492   -8.3023 O   0  0  0  0  0  0  0  0  0  0  0  0
   27.1636  -18.3879   -6.6964 C   0  0  0  0  0  0  0  0  0  0  0  0
   27.4736  -19.7889   -7.0716 C   0  0  2  0  0  0  0  0  0  0  0  0
   29.0013  -19.9615   -7.0169 C   0  0  0  0  0  0  0  0  0  0  0  0
   27.0503  -20.2494   -8.4100 C   0  0  0  0  0  0  0  0  0  0  0  0
   25.6063  -20.4950   -8.6451 C   0  0  2  0  0  0  0  0  0  0  0  0
   24.9497  -21.3480   -7.6887 N   0  0  0  0  0  0  0  0  0  0  0  0
   25.3183  -20.9044  -10.0476 C   0  0  0  0  0  0  0  0  0  0  0  0
   25.6619  -22.0575  -10.4008 O   0  0  0  0  0  0  0  0  0  0  0  0
   24.6820  -20.0757  -11.0068 N   0  0  0  0  0  0  0  0  0  0  0  0
   24.2452  -20.6116  -12.3165 C   0  0  1  0  0  0  0  0  0  0  0  0
   22.7980  -20.2948  -12.4662 C   0  0  0  0  0  0  0  0  0  0  0  0
   22.2180  -20.6690  -13.7957 C   0  0  0  0  0  0  0  0  0  0  0  0
   20.7817  -20.4020  -13.9224 C   0  0  0  0  0  0  0  0  0  0  0  0
   20.1510  -19.7804  -13.0333 O   0  0  0  0  0  0  0  0  0  0  0  0
   25.0574  -19.9028  -13.3397 C   0  0  0  0  0  0  0  0  0  0  0  0
   25.6742  -18.8433  -13.0521 O   0  0  0  0  0  0  0  0  0  0  0  0
   20.0399  -20.8183  -15.0259 O   0  0  0  0  0  0  0  0  0  0  0  0
   25.1844  -20.3553  -14.6464 O   0  0  0  0  0  0  0  0  0  0  0  0
  2  1  1  0
  2  3  1  0
  3 10  1  0
  3  4  2  0
  6  8  1  0
  6  5  1  6
  7  6  1  0
  9  8  1  1
 10  9  1  0
 11  9  1  0
 11 13  1  0
 12 11  2  0
 14 15  1  6
 14 13  1  0
 14 19  1  0
 16 15  1  0
 17 16  1  0
 18 17  2  0
 19 22  1  0
 20 19  2  0
 21 17  1  0
M  END
$$$$
