GLE.pdb
     RDKit          3D

 22 21  0  0  1  0  0  0  0  0999 V2000
   20.0871  -14.8453  -17.2199 N   0  0  0  0  0  0  0  0  0  0  0  0
   20.7484  -13.7485  -17.8768 C   0  0  0  0  0  0  0  0  0  0  0  0
   21.5233  -12.9027  -16.9564 C   0  0  0  0  0  0  0  0  0  0  0  0
   21.0054  -12.6081  -15.8383 O   0  0  0  0  0  0  0  0  0  0  0  0
   25.6818   -9.2168  -15.7893 C   0  0  0  0  0  0  0  0  0  0  0  0
   25.7137  -10.6793  -15.5452 C   0  0  2  0  0  0  0  0  0  0  0  0
   27.1836  -11.1305  -15.5945 C   0  0  0  0  0  0  0  0  0  0  0  0
   24.9799  -11.5475  -16.4887 C   0  0  0  0  0  0  0  0  0  0  0  0
   23.5023  -11.4293  -16.5495 C   0  0  2  0  0  0  0  0  0  0  0  0
   22.8227  -12.4335  -17.3260 N   0  0  0  0  0  0  0  0  0  0  0  0
   23.0541  -10.0537  -16.9018 C   0  0  0  0  0  0  0  0  0  0  0  0
   23.2936   -9.6414  -18.0616 O   0  0  0  0  0  0  0  0  0  0  0  0
   22.3755   -9.1823  -16.0119 N   0  0  0  0  0  0  0  0  0  0  0  0
   21.8907   -7.8554  -16.4560 C   0  0  1  0  0  0  0  0  0  0  0  0
   20.4332   -7.7918  -16.1575 C   0  0  0  0  0  0  0  0  0  0  0  0
   19.8039   -6.4604  -16.4320 C   0  0  0  0  0  0  0  0  0  0  0  0
   18.3888   -6.3749  -16.0571 C   0  0  0  0  0  0  0  0  0  0  0  0
   17.8079   -7.3225  -15.4747 O   0  0  0  0  0  0  0  0  0  0  0  0
   22.6455   -6.8555  -15.6562 C   0  0  0  0  0  0  0  0  0  0  0  0
   23.1686   -7.1731  -14.5557 O   0  0  0  0  0  0  0  0  0  0  0  0
   17.6135   -5.2480  -16.3224 O   0  0  0  0  0  0  0  0  0  0  0  0
   22.8174   -5.5394  -16.0642 O   0  0  0  0  0  0  0  0  0  0  0  0
  2  1  1  0
  2  3  1  0
  3 10  1  0
  3  4  2  0
  6  8  1  0
  6  5  1  6
  7  6  1  0
  9  8  1  6
 10  9  1  0
 11  9  1  0
 11 13  1  0
 12 11  2  0
 14 15  1  1
 14 13  1  0
 14 19  1  0
 16 15  1  0
 17 16  1  0
 18 17  2  0
 19 22  1  0
 20 19  2  0
 21 17  1  0
M  END
$$$$
