GLE.pdb
     RDKit          3D

 22 21  0  0  1  0  0  0  0  0999 V2000
   21.6965   -4.0779  -14.7775 N   0  0  0  0  0  0  0  0  0  0  0  0
   21.6402   -5.1241  -13.7906 C   0  0  0  0  0  0  0  0  0  0  0  0
   20.9616   -6.3379  -14.2693 C   0  0  0  0  0  0  0  0  0  0  0  0
   20.1448   -6.2244  -15.2311 O   0  0  0  0  0  0  0  0  0  0  0  0
   22.2253  -10.2677  -16.3329 C   0  0  0  0  0  0  0  0  0  0  0  0
   22.4770  -10.2460  -14.8715 C   0  0  2  0  0  0  0  0  0  0  0  0
   23.1075  -11.5949  -14.4846 C   0  0  0  0  0  0  0  0  0  0  0  0
   21.3149  -10.0585  -13.9789 C   0  0  0  0  0  0  0  0  0  0  0  0
   20.5427   -8.7963  -14.0855 C   0  0  2  0  0  0  0  0  0  0  0  0
   21.2257   -7.6032  -13.6574 N   0  0  0  0  0  0  0  0  0  0  0  0
   19.1839   -8.9066  -13.4862 C   0  0  0  0  0  0  0  0  0  0  0  0
   19.0968   -8.9101  -12.2353 O   0  0  0  0  0  0  0  0  0  0  0  0
   17.9853   -9.0075  -14.2378 N   0  0  0  0  0  0  0  0  0  0  0  0
   16.6717   -9.1641  -13.5723 C   0  0  1  0  0  0  0  0  0  0  0  0
   15.8291   -8.0036  -13.9731 C   0  0  0  0  0  0  0  0  0  0  0  0
   15.3678   -8.0379  -15.3979 C   0  0  0  0  0  0  0  0  0  0  0  0
   14.4828   -6.9297  -15.7707 C   0  0  0  0  0  0  0  0  0  0  0  0
   14.8367   -6.0623  -16.6056 O   0  0  0  0  0  0  0  0  0  0  0  0
   16.1043  -10.4396  -14.0823 C   0  0  0  0  0  0  0  0  0  0  0  0
   16.6849  -11.0834  -14.9956 O   0  0  0  0  0  0  0  0  0  0  0  0
   13.2097   -6.7759  -15.2258 O   0  0  0  0  0  0  0  0  0  0  0  0
   14.9260  -10.9885  -13.5937 O   0  0  0  0  0  0  0  0  0  0  0  0
  2  1  1  0
  2  3  1  0
  3 10  1  0
  3  4  2  0
  6  8  1  0
  6  5  1  6
  7  6  1  0
  9  8  1  1
 10  9  1  0
 11  9  1  0
 11 13  1  0
 12 11  2  0
 14 15  1  6
 14 13  1  0
 14 19  1  0
 16 15  1  0
 17 16  1  0
 18 17  2  0
 19 22  1  0
 20 19  2  0
 21 17  1  0
M  END
$$$$
