GLE.pdb
     RDKit          3D

 22 21  0  0  1  0  0  0  0  0999 V2000
   28.0876  -21.1205  -17.2973 N   0  0  0  0  0  0  0  0  0  0  0  0
   27.7118  -20.1671  -16.2867 C   0  0  0  0  0  0  0  0  0  0  0  0
   26.7994  -20.7221  -15.2756 C   0  0  0  0  0  0  0  0  0  0  0  0
   26.0690  -21.7032  -15.6060 O   0  0  0  0  0  0  0  0  0  0  0  0
   25.4104  -20.3687   -9.1397 C   0  0  0  0  0  0  0  0  0  0  0  0
   25.1656  -20.8034  -10.5363 C   0  0  2  0  0  0  0  0  0  0  0  0
   25.2179  -22.3407  -10.5644 C   0  0  0  0  0  0  0  0  0  0  0  0
   26.1069  -20.3358  -11.5744 C   0  0  0  0  0  0  0  0  0  0  0  0
   25.7793  -20.6088  -12.9953 C   0  0  2  0  0  0  0  0  0  0  0  0
   26.7484  -20.1606  -13.9613 N   0  0  0  0  0  0  0  0  0  0  0  0
   24.3974  -20.1851  -13.3536 C   0  0  0  0  0  0  0  0  0  0  0  0
   24.1711  -18.9555  -13.4503 O   0  0  0  0  0  0  0  0  0  0  0  0
   23.3240  -21.0809  -13.5920 N   0  0  0  0  0  0  0  0  0  0  0  0
   21.9860  -20.5880  -13.9920 C   0  0  1  0  0  0  0  0  0  0  0  0
   21.7733  -20.9821  -15.4122 C   0  0  0  0  0  0  0  0  0  0  0  0
   20.4534  -20.5583  -15.9798 C   0  0  0  0  0  0  0  0  0  0  0  0
   19.9683  -21.4065  -17.0733 C   0  0  0  0  0  0  0  0  0  0  0  0
   20.5783  -22.4494  -17.4122 O   0  0  0  0  0  0  0  0  0  0  0  0
   21.0148  -21.2684  -13.0960 C   0  0  0  0  0  0  0  0  0  0  0  0
   21.2416  -22.4287  -12.6626 O   0  0  0  0  0  0  0  0  0  0  0  0
   18.8134  -21.1078  -17.7931 O   0  0  0  0  0  0  0  0  0  0  0  0
   19.8246  -20.6796  -12.6897 O   0  0  0  0  0  0  0  0  0  0  0  0
  2  1  1  0
  2  3  1  0
  3 10  1  0
  3  4  2  0
  6  8  1  0
  6  5  1  1
  7  6  1  0
  9  8  1  1
 10  9  1  0
 11  9  1  0
 11 13  1  0
 12 11  2  0
 14 15  1  6
 14 13  1  0
 14 19  1  0
 16 15  1  0
 17 16  1  0
 18 17  2  0
 19 22  1  0
 20 19  2  0
 21 17  1  0
M  END
$$$$
