GLE.pdb
     RDKit          3D

 22 21  0  0  1  0  0  0  0  0999 V2000
   25.8323  -21.7797  -11.2741 N   0  0  0  0  0  0  0  0  0  0  0  0
   26.2391  -21.3868  -12.5976 C   0  0  0  0  0  0  0  0  0  0  0  0
   25.6496  -20.1112  -13.0315 C   0  0  0  0  0  0  0  0  0  0  0  0
   24.6087  -19.7023  -12.4361 O   0  0  0  0  0  0  0  0  0  0  0  0
   24.9933  -15.9510  -16.7805 C   0  0  0  0  0  0  0  0  0  0  0  0
   25.9158  -15.8705  -15.6220 C   0  0  2  0  0  0  0  0  0  0  0  0
   27.0900  -14.9600  -16.0206 C   0  0  0  0  0  0  0  0  0  0  0  0
   26.5131  -17.1301  -15.1330 C   0  0  0  0  0  0  0  0  0  0  0  0
   25.6051  -18.1916  -14.6334 C   0  0  2  0  0  0  0  0  0  0  0  0
   26.2447  -19.3645  -14.0961 N   0  0  0  0  0  0  0  0  0  0  0  0
   24.5383  -18.5373  -15.6131 C   0  0  0  0  0  0  0  0  0  0  0  0
   24.8794  -19.1410  -16.6579 O   0  0  0  0  0  0  0  0  0  0  0  0
   23.1648  -18.2283  -15.4404 N   0  0  0  0  0  0  0  0  0  0  0  0
   22.1442  -18.6983  -16.4050 C   0  0  1  0  0  0  0  0  0  0  0  0
   21.2116  -19.5928  -15.6650 C   0  0  0  0  0  0  0  0  0  0  0  0
   20.4312  -18.9121  -14.5826 C   0  0  0  0  0  0  0  0  0  0  0  0
   19.4007  -19.7524  -13.9643 C   0  0  0  0  0  0  0  0  0  0  0  0
   19.2312  -20.9449  -14.3159 O   0  0  0  0  0  0  0  0  0  0  0  0
   21.4460  -17.4785  -16.8884 C   0  0  0  0  0  0  0  0  0  0  0  0
   20.6155  -17.5431  -17.8327 O   0  0  0  0  0  0  0  0  0  0  0  0
   18.5575  -19.2813  -12.9601 O   0  0  0  0  0  0  0  0  0  0  0  0
   21.6608  -16.2208  -16.3404 O   0  0  0  0  0  0  0  0  0  0  0  0
  2  1  1  0
  2  3  1  0
  3 10  1  0
  3  4  2  0
  6  8  1  0
  6  5  1  6
  7  6  1  0
  9  8  1  6
 10  9  1  0
 11  9  1  0
 11 13  1  0
 12 11  2  0
 14 15  1  1
 14 13  1  0
 14 19  1  0
 16 15  1  0
 17 16  1  0
 18 17  2  0
 19 22  1  0
 20 19  2  0
 21 17  1  0
M  END
$$$$
