GLE.pdb
     RDKit          3D

 22 21  0  0  1  0  0  0  0  0999 V2000
   17.8788  -25.1622   -5.4936 N   0  0  0  0  0  0  0  0  0  0  0  0
   17.4044  -26.0958   -4.5061 C   0  0  0  0  0  0  0  0  0  0  0  0
   18.4887  -26.7660   -3.7726 C   0  0  0  0  0  0  0  0  0  0  0  0
   19.6830  -26.4542   -4.0578 O   0  0  0  0  0  0  0  0  0  0  0  0
   21.2167  -26.2184   -0.5921 C   0  0  0  0  0  0  0  0  0  0  0  0
   19.7903  -26.4176   -0.2380 C   0  0  2  0  0  0  0  0  0  0  0  0
   19.6446  -26.1743    1.2740 C   0  0  0  0  0  0  0  0  0  0  0  0
   19.1968  -27.7437   -0.5054 C   0  0  0  0  0  0  0  0  0  0  0  0
   19.2138  -28.2540   -1.8983 C   0  0  2  0  0  0  0  0  0  0  0  0
   18.1888  -27.7396   -2.7690 N   0  0  0  0  0  0  0  0  0  0  0  0
   19.3051  -29.7390   -1.9607 C   0  0  0  0  0  0  0  0  0  0  0  0
   18.2336  -30.3903   -1.9456 O   0  0  0  0  0  0  0  0  0  0  0  0
   20.5231  -30.4618   -2.0359 N   0  0  0  0  0  0  0  0  0  0  0  0
   20.5375  -31.9423   -2.0672 C   0  0  1  0  0  0  0  0  0  0  0  0
   21.9248  -32.3664   -2.4033 C   0  0  0  0  0  0  0  0  0  0  0  0
   22.3246  -32.1028   -3.8227 C   0  0  0  0  0  0  0  0  0  0  0  0
   23.7297  -32.4010   -4.1175 C   0  0  0  0  0  0  0  0  0  0  0  0
   24.5139  -32.8051   -3.2250 O   0  0  0  0  0  0  0  0  0  0  0  0
   20.1589  -32.3839   -0.6995 C   0  0  0  0  0  0  0  0  0  0  0  0
   20.1871  -31.5789    0.2684 O   0  0  0  0  0  0  0  0  0  0  0  0
   24.2719  -32.2550   -5.3927 O   0  0  0  0  0  0  0  0  0  0  0  0
   19.7585  -33.6820   -0.4110 O   0  0  0  0  0  0  0  0  0  0  0  0
  2  1  1  0
  2  3  1  0
  3 10  1  0
  3  4  2  0
  6  8  1  0
  6  5  1  1
  7  6  1  0
  9  8  1  1
 10  9  1  0
 11  9  1  0
 11 13  1  0
 12 11  2  0
 14 15  1  1
 14 13  1  0
 14 19  1  0
 16 15  1  0
 17 16  1  0
 18 17  2  0
 19 22  1  0
 20 19  2  0
 21 17  1  0
M  END
$$$$
