GLE.pdb
     RDKit          3D

 22 21  0  0  1  0  0  0  0  0999 V2000
   20.4032  -12.7276  -19.3975 N   0  0  0  0  0  0  0  0  0  0  0  0
   20.6680  -11.3131  -19.3727 C   0  0  0  0  0  0  0  0  0  0  0  0
   21.4231  -10.8846  -18.1856 C   0  0  0  0  0  0  0  0  0  0  0  0
   20.7940  -10.7550  -17.0936 O   0  0  0  0  0  0  0  0  0  0  0  0
   26.0928   -9.0741  -15.5037 C   0  0  0  0  0  0  0  0  0  0  0  0
   25.6669  -10.4783  -15.7192 C   0  0  2  0  0  0  0  0  0  0  0  0
   26.9327  -11.3519  -15.7533 C   0  0  0  0  0  0  0  0  0  0  0  0
   24.9163  -10.7847  -16.9542 C   0  0  0  0  0  0  0  0  0  0  0  0
   23.5769  -10.1726  -17.1334 C   0  0  2  0  0  0  0  0  0  0  0  0
   22.8265  -10.6251  -18.2760 N   0  0  0  0  0  0  0  0  0  0  0  0
   23.6120   -8.6867  -17.0419 C   0  0  0  0  0  0  0  0  0  0  0  0
   24.2526   -8.0633  -17.9214 O   0  0  0  0  0  0  0  0  0  0  0  0
   22.9688   -7.9336  -16.0266 N   0  0  0  0  0  0  0  0  0  0  0  0
   22.9481   -6.4533  -16.0642 C   0  0  1  0  0  0  0  0  0  0  0  0
   21.7916   -6.0462  -16.9092 C   0  0  0  0  0  0  0  0  0  0  0  0
   20.4534   -6.4037  -16.3386 C   0  0  0  0  0  0  0  0  0  0  0  0
   19.3153   -5.8653  -17.0905 C   0  0  0  0  0  0  0  0  0  0  0  0
   19.4468   -4.8865  -17.8647 O   0  0  0  0  0  0  0  0  0  0  0  0
   22.7653   -6.0111  -14.6570 C   0  0  0  0  0  0  0  0  0  0  0  0
   22.4784   -6.8397  -13.7534 O   0  0  0  0  0  0  0  0  0  0  0  0
   18.0338   -6.4032  -16.9909 O   0  0  0  0  0  0  0  0  0  0  0  0
   22.8978   -4.6868  -14.2605 O   0  0  0  0  0  0  0  0  0  0  0  0
  2  1  1  0
  2  3  1  0
  3 10  1  0
  3  4  2  0
  6  8  1  0
  6  5  1  6
  7  6  1  0
  9  8  1  6
 10  9  1  0
 11  9  1  0
 11 13  1  0
 12 11  2  0
 14 15  1  6
 14 13  1  0
 14 19  1  0
 16 15  1  0
 17 16  1  0
 18 17  2  0
 19 22  1  0
 20 19  2  0
 21 17  1  0
M  END
$$$$
