GLE.pdb
     RDKit          3D

 22 21  0  0  1  0  0  0  0  0999 V2000
   18.1720  -25.0157   -7.4004 N   0  0  0  0  0  0  0  0  0  0  0  0
   19.0006  -24.8198   -8.5608 C   0  0  0  0  0  0  0  0  0  0  0  0
   18.6837  -23.5880   -9.2992 C   0  0  0  0  0  0  0  0  0  0  0  0
   17.6237  -22.9653   -8.9930 O   0  0  0  0  0  0  0  0  0  0  0  0
   20.5477  -19.4641   -9.5585 C   0  0  0  0  0  0  0  0  0  0  0  0
   21.2184  -20.4627  -10.4260 C   0  0  2  0  0  0  0  0  0  0  0  0
   22.3870  -19.7573  -11.1355 C   0  0  0  0  0  0  0  0  0  0  0  0
   20.4117  -21.1006  -11.4865 C   0  0  0  0  0  0  0  0  0  0  0  0
   19.2495  -21.9298  -11.0834 C   0  0  2  0  0  0  0  0  0  0  0  0
   19.5560  -23.1184  -10.3306 N   0  0  0  0  0  0  0  0  0  0  0  0
   18.3281  -22.2110  -12.2190 C   0  0  0  0  0  0  0  0  0  0  0  0
   18.6128  -23.1679  -12.9778 O   0  0  0  0  0  0  0  0  0  0  0  0
   17.1523  -21.4679  -12.4963 N   0  0  0  0  0  0  0  0  0  0  0  0
   16.2871  -21.8010  -13.6511 C   0  0  1  0  0  0  0  0  0  0  0  0
   14.8759  -21.5928  -13.2239 C   0  0  0  0  0  0  0  0  0  0  0  0
   13.8608  -21.8647  -14.2915 C   0  0  0  0  0  0  0  0  0  0  0  0
   12.4733  -21.6385  -13.8742 C   0  0  0  0  0  0  0  0  0  0  0  0
   11.5192  -21.7645  -14.6795 O   0  0  0  0  0  0  0  0  0  0  0  0
   16.6650  -20.8534  -14.7320 C   0  0  0  0  0  0  0  0  0  0  0  0
   17.1520  -19.7249  -14.4583 O   0  0  0  0  0  0  0  0  0  0  0  0
   12.1357  -21.2742  -12.5725 O   0  0  0  0  0  0  0  0  0  0  0  0
   16.5090  -21.1476  -16.0801 O   0  0  0  0  0  0  0  0  0  0  0  0
  2  1  1  0
  2  3  1  0
  3 10  1  0
  3  4  2  0
  6  8  1  0
  6  5  1  6
  7  6  1  0
  9  8  1  6
 10  9  1  0
 11  9  1  0
 11 13  1  0
 12 11  2  0
 14 15  1  1
 14 13  1  0
 14 19  1  0
 16 15  1  0
 17 16  1  0
 18 17  2  0
 19 22  1  0
 20 19  2  0
 21 17  1  0
M  END
$$$$
