GLE.pdb
     RDKit          3D

 22 21  0  0  1  0  0  0  0  0999 V2000
   22.4028  -13.0018  -20.6385 N   0  0  0  0  0  0  0  0  0  0  0  0
   23.0763  -13.8377  -19.6797 C   0  0  0  0  0  0  0  0  0  0  0  0
   23.2019  -13.2148  -18.3534 C   0  0  0  0  0  0  0  0  0  0  0  0
   22.2431  -13.3525  -17.5368 O   0  0  0  0  0  0  0  0  0  0  0  0
   25.8794  -14.0309  -14.8636 C   0  0  0  0  0  0  0  0  0  0  0  0
   26.4941  -13.1411  -15.8786 C   0  0  2  0  0  0  0  0  0  0  0  0
   27.9329  -12.8383  -15.4263 C   0  0  0  0  0  0  0  0  0  0  0  0
   25.8508  -11.8340  -16.1232 C   0  0  0  0  0  0  0  0  0  0  0  0
   24.4992  -11.8186  -16.7345 C   0  0  2  0  0  0  0  0  0  0  0  0
   24.3780  -12.4777  -18.0090 N   0  0  0  0  0  0  0  0  0  0  0  0
   23.8961  -10.4572  -16.7511 C   0  0  0  0  0  0  0  0  0  0  0  0
   24.2447   -9.6760  -17.6680 O   0  0  0  0  0  0  0  0  0  0  0  0
   22.9551   -9.9889  -15.7988 N   0  0  0  0  0  0  0  0  0  0  0  0
   22.3474   -8.6435  -15.9161 C   0  0  1  0  0  0  0  0  0  0  0  0
   21.1363   -8.7758  -16.7723 C   0  0  0  0  0  0  0  0  0  0  0  0
   20.3315   -7.5191  -16.9026 C   0  0  0  0  0  0  0  0  0  0  0  0
   19.1292   -7.6576  -17.7305 C   0  0  0  0  0  0  0  0  0  0  0  0
   18.8165   -8.7555  -18.2516 O   0  0  0  0  0  0  0  0  0  0  0  0
   21.9843   -8.2368  -14.5335 C   0  0  0  0  0  0  0  0  0  0  0  0
   21.7073   -7.0378  -14.2664 O   0  0  0  0  0  0  0  0  0  0  0  0
   18.2714   -6.5894  -17.9849 O   0  0  0  0  0  0  0  0  0  0  0  0
   21.9282   -9.1337  -13.4748 O   0  0  0  0  0  0  0  0  0  0  0  0
  2  1  1  0
  2  3  1  0
  3 10  1  0
  3  4  2  0
  6  8  1  0
  6  5  1  1
  7  6  1  0
  9  8  1  6
 10  9  1  0
 11  9  1  0
 11 13  1  0
 12 11  2  0
 14 15  1  6
 14 13  1  0
 14 19  1  0
 16 15  1  0
 17 16  1  0
 18 17  2  0
 19 22  1  0
 20 19  2  0
 21 17  1  0
M  END
$$$$
