YCV.pdb
     RDKit          3D

 26 26  0  0  1  0  0  0  0  0999 V2000
   17.5042  -15.9478  -15.6530 O   0  0  0  0  0  0  0  0  0  0  0  0
   17.0964  -14.7081  -15.1868 C   0  0  0  0  0  0  0  0  0  0  0  0
   15.8747  -14.2458  -15.5725 C   0  0  0  0  0  0  0  0  0  0  0  0
   15.4562  -13.0107  -15.1144 C   0  0  0  0  0  0  0  0  0  0  0  0
   16.2614  -12.2630  -14.2834 C   0  0  0  0  0  0  0  0  0  0  0  0
   15.7740  -10.9420  -13.8142 C   0  0  0  0  0  0  0  0  0  0  0  0
   15.3273  -11.0873  -12.3772 C   0  0  2  0  0  0  0  0  0  0  0  0
   14.2083  -11.9939  -12.2670 N   0  0  0  0  0  0  0  0  0  0  0  0
   14.9961   -9.7875  -11.7612 C   0  0  0  0  0  0  0  0  0  0  0  0
   13.8185   -9.3760  -11.7654 O   0  0  0  0  0  0  0  0  0  0  0  0
   17.4963  -12.7328  -13.8949 C   0  0  0  0  0  0  0  0  0  0  0  0
   17.9070  -13.9751  -14.3610 C   0  0  0  0  0  0  0  0  0  0  0  0
   16.0182   -9.0210  -11.1717 N   0  0  0  0  0  0  0  0  0  0  0  0
   15.8094   -7.6979  -10.6380 C   0  0  1  0  0  0  0  0  0  0  0  0
   16.1015   -7.7429   -9.1463 C   0  0  0  0  0  0  0  0  0  0  0  0
   15.9913   -6.1004   -8.4233 S   0  0  0  0  0  0  0  0  0  0  0  0
   16.6856   -6.6876  -11.2760 C   0  0  0  0  0  0  0  0  0  0  0  0
   17.9358   -6.8099  -11.2198 O   0  0  0  0  0  0  0  0  0  0  0  0
   14.9421   -4.2633  -14.0449 C   0  0  0  0  0  0  0  0  0  0  0  0
   16.4166   -4.5155  -14.0610 C   0  0  2  0  0  0  0  0  0  0  0  0
   16.7730   -5.7825  -14.8062 C   0  0  0  0  0  0  0  0  0  0  0  0
   16.9305   -4.5605  -12.6194 C   0  0  2  0  0  0  0  0  0  0  0  0
   16.1438   -5.5783  -11.9530 N   0  0  0  0  0  0  0  0  0  0  0  0
   16.6903   -3.2703  -11.9563 C   0  0  0  0  0  0  0  0  0  0  0  0
   15.6325   -3.1250  -11.0884 O   0  0  0  0  0  0  0  0  0  0  0  0
   17.4445   -2.3001  -12.1768 O   0  0  0  0  0  0  0  0  0  0  0  0
  2  3  2  0
  2  1  1  0
  4  3  1  0
  5  4  2  0
  6  5  1  0
  7  6  1  0
  7  9  1  0
  7  8  1  6
  9 13  1  0
  9 10  2  0
 11  5  1  0
 11 12  2  0
 12  2  1  0
 13 14  1  0
 14 15  1  1
 15 16  1  0
 17 14  1  0
 17 18  2  0
 20 19  1  1
 20 22  1  0
 20 21  1  0
 22 23  1  1
 23 17  1  0
 24 22  1  0
 25 24  1  0
 26 24  2  0
M  END
$$$$
