YCV.pdb
     RDKit          3D

 26 26  0  0  1  0  0  0  0  0999 V2000
   19.4748  -17.1361  -16.7264 O   0  0  0  0  0  0  0  0  0  0  0  0
   20.2511  -17.8584  -15.8341 C   0  0  0  0  0  0  0  0  0  0  0  0
   21.5503  -17.4863  -15.6642 C   0  0  0  0  0  0  0  0  0  0  0  0
   22.3353  -18.1986  -14.7773 C   0  0  0  0  0  0  0  0  0  0  0  0
   21.8115  -19.2646  -14.0792 C   0  0  0  0  0  0  0  0  0  0  0  0
   22.6886  -20.0026  -13.1365 C   0  0  0  0  0  0  0  0  0  0  0  0
   23.5893  -20.9105  -13.9429 C   0  0  2  0  0  0  0  0  0  0  0  0
   22.8275  -21.9318  -14.6235 N   0  0  0  0  0  0  0  0  0  0  0  0
   24.6467  -21.5253  -13.1168 C   0  0  0  0  0  0  0  0  0  0  0  0
   24.3762  -22.4876  -12.3703 O   0  0  0  0  0  0  0  0  0  0  0  0
   20.4975  -19.6387  -14.2529 C   0  0  0  0  0  0  0  0  0  0  0  0
   19.7175  -18.9162  -15.1466 C   0  0  0  0  0  0  0  0  0  0  0  0
   25.9571  -21.0169  -13.1797 N   0  0  0  0  0  0  0  0  0  0  0  0
   26.9508  -21.2582  -12.1633 C   0  0  1  0  0  0  0  0  0  0  0  0
   28.3158  -20.9557  -12.7612 C   0  0  0  0  0  0  0  0  0  0  0  0
   29.6218  -21.2739  -11.5671 S   0  0  0  0  0  0  0  0  0  0  0  0
   26.7465  -20.4138  -10.9629 C   0  0  0  0  0  0  0  0  0  0  0  0
   26.4467  -19.1991  -11.0887 O   0  0  0  0  0  0  0  0  0  0  0  0
   24.5373  -21.2719   -8.1601 C   0  0  0  0  0  0  0  0  0  0  0  0
   25.8699  -21.0460   -7.5189 C   0  0  2  0  0  0  0  0  0  0  0  0
   25.7472  -20.4187   -6.1481 C   0  0  0  0  0  0  0  0  0  0  0  0
   26.7291  -20.1819   -8.4459 C   0  0  2  0  0  0  0  0  0  0  0  0
   26.8820  -20.9468   -9.6668 N   0  0  0  0  0  0  0  0  0  0  0  0
   28.0580  -19.9707   -7.8530 C   0  0  0  0  0  0  0  0  0  0  0  0
   29.0386  -20.9254   -7.9956 O   0  0  0  0  0  0  0  0  0  0  0  0
   28.3037  -18.9247   -7.2174 O   0  0  0  0  0  0  0  0  0  0  0  0
  2  3  2  0
  2  1  1  0
  4  3  1  0
  5  4  2  0
  6  5  1  0
  7  6  1  0
  7  9  1  0
  7  8  1  1
  9 13  1  0
  9 10  2  0
 11  5  1  0
 11 12  2  0
 12  2  1  0
 13 14  1  0
 14 15  1  6
 15 16  1  0
 17 14  1  0
 17 18  2  0
 20 19  1  6
 20 22  1  0
 20 21  1  0
 22 23  1  6
 23 17  1  0
 24 22  1  0
 25 24  1  0
 26 24  2  0
M  END
$$$$
