YCV.pdb
     RDKit          3D

 26 26  0  0  1  0  0  0  0  0999 V2000
   29.0237  -14.2628  -17.4341 O   0  0  0  0  0  0  0  0  0  0  0  0
   28.3480  -15.3729  -16.9528 C   0  0  0  0  0  0  0  0  0  0  0  0
   28.0071  -15.3967  -15.6344 C   0  0  0  0  0  0  0  0  0  0  0  0
   27.3329  -16.4981  -15.1418 C   0  0  0  0  0  0  0  0  0  0  0  0
   27.0127  -17.5510  -15.9706 C   0  0  0  0  0  0  0  0  0  0  0  0
   26.2882  -18.7146  -15.4014 C   0  0  0  0  0  0  0  0  0  0  0  0
   27.3011  -19.6271  -14.7479 C   0  0  2  0  0  0  0  0  0  0  0  0
   28.1213  -20.2895  -15.7354 N   0  0  0  0  0  0  0  0  0  0  0  0
   26.6667  -20.6203  -13.8593 C   0  0  0  0  0  0  0  0  0  0  0  0
   26.3368  -21.7374  -14.3056 O   0  0  0  0  0  0  0  0  0  0  0  0
   27.3586  -17.5243  -17.3033 C   0  0  0  0  0  0  0  0  0  0  0  0
   28.0359  -16.4128  -17.7880 C   0  0  0  0  0  0  0  0  0  0  0  0
   26.4391  -20.2951  -12.5095 N   0  0  0  0  0  0  0  0  0  0  0  0
   25.4317  -20.9335  -11.6992 C   0  0  1  0  0  0  0  0  0  0  0  0
   25.7191  -20.5985  -10.2441 C   0  0  0  0  0  0  0  0  0  0  0  0
   24.3943  -21.1847   -9.1792 S   0  0  0  0  0  0  0  0  0  0  0  0
   24.0626  -20.4822  -12.0421 C   0  0  0  0  0  0  0  0  0  0  0  0
   23.8020  -19.2542  -12.1151 O   0  0  0  0  0  0  0  0  0  0  0  0
   21.7680  -22.8804  -14.2812 C   0  0  0  0  0  0  0  0  0  0  0  0
   21.5044  -21.4176  -14.1118 C   0  0  2  0  0  0  0  0  0  0  0  0
   22.3968  -20.5692  -14.9899 C   0  0  0  0  0  0  0  0  0  0  0  0
   21.6716  -21.0486  -12.6352 C   0  0  2  0  0  0  0  0  0  0  0  0
   23.0322  -21.4087  -12.2915 N   0  0  0  0  0  0  0  0  0  0  0  0
   20.7511  -21.8425  -11.8079 C   0  0  0  0  0  0  0  0  0  0  0  0
   19.4677  -21.4003  -11.5824 O   0  0  0  0  0  0  0  0  0  0  0  0
   21.1286  -22.9213  -11.3058 O   0  0  0  0  0  0  0  0  0  0  0  0
  2  3  2  0
  2  1  1  0
  4  3  1  0
  5  4  2  0
  6  5  1  0
  7  6  1  0
  7  9  1  0
  7  8  1  6
  9 13  1  0
  9 10  2  0
 11  5  1  0
 11 12  2  0
 12  2  1  0
 13 14  1  0
 14 15  1  1
 15 16  1  0
 17 14  1  0
 17 18  2  0
 20 19  1  1
 20 22  1  0
 20 21  1  0
 22 23  1  1
 23 17  1  0
 24 22  1  0
 25 24  1  0
 26 24  2  0
M  END
$$$$
