YCV.pdb
     RDKit          3D

 26 26  0  0  1  0  0  0  0  0999 V2000
   20.4507  -15.4576  -23.3762 O   0  0  0  0  0  0  0  0  0  0  0  0
   20.0629  -14.6831  -22.2944 C   0  0  0  0  0  0  0  0  0  0  0  0
   20.7573  -13.5392  -22.0405 C   0  0  0  0  0  0  0  0  0  0  0  0
   20.3806  -12.7578  -20.9645 C   0  0  0  0  0  0  0  0  0  0  0  0
   19.3223  -13.1308  -20.1652 C   0  0  0  0  0  0  0  0  0  0  0  0
   18.9505  -12.2631  -19.0199 C   0  0  0  0  0  0  0  0  0  0  0  0
   20.1091  -12.2417  -18.0489 C   0  0  2  0  0  0  0  0  0  0  0  0
   20.3135  -13.5405  -17.4506 N   0  0  0  0  0  0  0  0  0  0  0  0
   19.9408  -11.2159  -17.0011 C   0  0  0  0  0  0  0  0  0  0  0  0
   19.1379  -11.4045  -16.0652 O   0  0  0  0  0  0  0  0  0  0  0  0
   18.6219  -14.2879  -20.4243 C   0  0  0  0  0  0  0  0  0  0  0  0
   19.0088  -15.0658  -21.5079 C   0  0  0  0  0  0  0  0  0  0  0  0
   20.6921  -10.0282  -17.0688 N   0  0  0  0  0  0  0  0  0  0  0  0
   20.5604   -8.9516  -16.1189 C   0  0  1  0  0  0  0  0  0  0  0  0
   21.7350   -9.0295  -15.1563 C   0  0  0  0  0  0  0  0  0  0  0  0
   21.6186   -7.7483  -13.9003 S   0  0  0  0  0  0  0  0  0  0  0  0
   20.5525   -7.6213  -16.7715 C   0  0  0  0  0  0  0  0  0  0  0  0
   21.4722   -7.3029  -17.5677 O   0  0  0  0  0  0  0  0  0  0  0  0
   17.5897   -6.4798  -18.5494 C   0  0  0  0  0  0  0  0  0  0  0  0
   17.8979   -5.3527  -17.6153 C   0  0  2  0  0  0  0  0  0  0  0  0
   17.5669   -4.0044  -18.2153 C   0  0  0  0  0  0  0  0  0  0  0  0
   19.3726   -5.4294  -17.2109 C   0  0  2  0  0  0  0  0  0  0  0  0
   19.5252   -6.6925  -16.5178 N   0  0  0  0  0  0  0  0  0  0  0  0
   19.6994   -4.3391  -16.2801 C   0  0  0  0  0  0  0  0  0  0  0  0
   20.2736   -3.1793  -16.7477 O   0  0  0  0  0  0  0  0  0  0  0  0
   19.4578   -4.4594  -15.0612 O   0  0  0  0  0  0  0  0  0  0  0  0
  2  3  2  0
  2  1  1  0
  4  3  1  0
  5  4  2  0
  6  5  1  0
  7  6  1  0
  7  9  1  0
  7  8  1  1
  9 13  1  0
  9 10  2  0
 11  5  1  0
 11 12  2  0
 12  2  1  0
 13 14  1  0
 14 15  1  1
 15 16  1  0
 17 14  1  0
 17 18  2  0
 20 19  1  6
 20 22  1  0
 20 21  1  0
 22 23  1  1
 23 17  1  0
 24 22  1  0
 25 24  1  0
 26 24  2  0
M  END
$$$$
