YCV.pdb
     RDKit          3D

 26 26  0  0  1  0  0  0  0  0999 V2000
   15.7558  -15.3239  -16.3867 O   0  0  0  0  0  0  0  0  0  0  0  0
   16.6720  -14.3003  -16.2036 C   0  0  0  0  0  0  0  0  0  0  0  0
   17.4350  -14.3142  -15.0754 C   0  0  0  0  0  0  0  0  0  0  0  0
   18.3526  -13.2991  -14.8809 C   0  0  0  0  0  0  0  0  0  0  0  0
   18.4911  -12.2931  -15.8119 C   0  0  0  0  0  0  0  0  0  0  0  0
   19.4883  -11.2220  -15.5644 C   0  0  0  0  0  0  0  0  0  0  0  0
   20.4984  -11.2491  -16.6889 C   0  0  2  0  0  0  0  0  0  0  0  0
   21.2464  -12.4848  -16.6897 N   0  0  0  0  0  0  0  0  0  0  0  0
   21.4168  -10.0945  -16.6426 C   0  0  0  0  0  0  0  0  0  0  0  0
   22.5005  -10.1822  -16.0310 O   0  0  0  0  0  0  0  0  0  0  0  0
   17.7183  -12.2815  -16.9517 C   0  0  0  0  0  0  0  0  0  0  0  0
   16.7994  -13.3063  -17.1373 C   0  0  0  0  0  0  0  0  0  0  0  0
   21.0585   -8.8992  -17.2927 N   0  0  0  0  0  0  0  0  0  0  0  0
   21.8765   -7.7120  -17.2763 C   0  0  1  0  0  0  0  0  0  0  0  0
   22.3284   -7.4346  -18.7015 C   0  0  0  0  0  0  0  0  0  0  0  0
   23.4787   -8.6965  -19.2647 S   0  0  0  0  0  0  0  0  0  0  0  0
   21.1466   -6.5313  -16.7579 C   0  0  0  0  0  0  0  0  0  0  0  0
   20.0132   -6.2378  -17.2166 O   0  0  0  0  0  0  0  0  0  0  0  0
   22.1313   -5.1853  -13.0216 C   0  0  0  0  0  0  0  0  0  0  0  0
   20.8019   -4.9814  -13.6767 C   0  0  2  0  0  0  0  0  0  0  0  0
   19.9149   -6.2014  -13.5647 C   0  0  0  0  0  0  0  0  0  0  0  0
   21.0223   -4.5923  -15.1411 C   0  0  2  0  0  0  0  0  0  0  0  0
   21.6999   -5.7188  -15.7498 N   0  0  0  0  0  0  0  0  0  0  0  0
   21.8983   -3.4143  -15.2252 C   0  0  0  0  0  0  0  0  0  0  0  0
   21.3730   -2.1503  -15.0848 O   0  0  0  0  0  0  0  0  0  0  0  0
   23.1228   -3.5545  -15.4243 O   0  0  0  0  0  0  0  0  0  0  0  0
  2  3  2  0
  2  1  1  0
  4  3  1  0
  5  4  2  0
  6  5  1  0
  7  6  1  0
  7  9  1  0
  7  8  1  1
  9 13  1  0
  9 10  2  0
 11  5  1  0
 11 12  2  0
 12  2  1  0
 13 14  1  0
 14 15  1  6
 15 16  1  0
 17 14  1  0
 17 18  2  0
 20 19  1  6
 20 22  1  0
 20 21  1  0
 22 23  1  6
 23 17  1  0
 24 22  1  0
 25 24  1  0
 26 24  2  0
M  END
$$$$
