YCV.pdb
     RDKit          3D

 26 26  0  0  1  0  0  0  0  0999 V2000
   28.1962  -28.9388  -16.1791 O   0  0  0  0  0  0  0  0  0  0  0  0
   27.5682  -27.7997  -16.6571 C   0  0  0  0  0  0  0  0  0  0  0  0
   28.1018  -27.1801  -17.7463 C   0  0  0  0  0  0  0  0  0  0  0  0
   27.4850  -26.0430  -18.2330 C   0  0  0  0  0  0  0  0  0  0  0  0
   26.3518  -25.5473  -17.6262 C   0  0  0  0  0  0  0  0  0  0  0  0
   25.7206  -24.3238  -18.1806 C   0  0  0  0  0  0  0  0  0  0  0  0
   26.0586  -23.1649  -17.2703 C   0  0  2  0  0  0  0  0  0  0  0  0
   27.4698  -23.1359  -16.9634 N   0  0  0  0  0  0  0  0  0  0  0  0
   25.2641  -23.1815  -16.0266 C   0  0  0  0  0  0  0  0  0  0  0  0
   25.8238  -23.3838  -14.9302 O   0  0  0  0  0  0  0  0  0  0  0  0
   25.8144  -26.1758  -16.5249 C   0  0  0  0  0  0  0  0  0  0  0  0
   26.4421  -27.3177  -16.0441 C   0  0  0  0  0  0  0  0  0  0  0  0
   23.8749  -22.9678  -16.0902 N   0  0  0  0  0  0  0  0  0  0  0  0
   23.0354  -22.8577  -14.9232 C   0  0  1  0  0  0  0  0  0  0  0  0
   22.8469  -21.3798  -14.6191 C   0  0  0  0  0  0  0  0  0  0  0  0
   22.1765  -20.5139  -16.0451 S   0  0  0  0  0  0  0  0  0  0  0  0
   21.7089  -23.4877  -15.1210 C   0  0  0  0  0  0  0  0  0  0  0  0
   21.2349  -23.6115  -16.2791 O   0  0  0  0  0  0  0  0  0  0  0  0
   20.5791  -26.5969  -13.3459 C   0  0  0  0  0  0  0  0  0  0  0  0
   19.5090  -25.5861  -13.0787 C   0  0  2  0  0  0  0  0  0  0  0  0
   18.1283  -26.2033  -13.0656 C   0  0  0  0  0  0  0  0  0  0  0  0
   19.6048  -24.4708  -14.1233 C   0  0  2  0  0  0  0  0  0  0  0  0
   20.9562  -23.9575  -14.0278 N   0  0  0  0  0  0  0  0  0  0  0  0
   18.6655  -23.3881  -13.7949 C   0  0  0  0  0  0  0  0  0  0  0  0
   18.9904  -22.4584  -12.8339 O   0  0  0  0  0  0  0  0  0  0  0  0
   17.5689  -23.3065  -14.3859 O   0  0  0  0  0  0  0  0  0  0  0  0
  2  3  2  0
  2  1  1  0
  4  3  1  0
  5  4  2  0
  6  5  1  0
  7  6  1  0
  7  9  1  0
  7  8  1  1
  9 13  1  0
  9 10  2  0
 11  5  1  0
 11 12  2  0
 12  2  1  0
 13 14  1  0
 14 15  1  6
 15 16  1  0
 17 14  1  0
 17 18  2  0
 20 19  1  6
 20 22  1  0
 20 21  1  0
 22 23  1  1
 23 17  1  0
 24 22  1  0
 25 24  1  0
 26 24  2  0
M  END
$$$$
