YCV.pdb
     RDKit          3D

 26 26  0  0  1  0  0  0  0  0999 V2000
   22.0427  -14.1427  -22.3941 O   0  0  0  0  0  0  0  0  0  0  0  0
   21.5239  -13.1403  -21.5899 C   0  0  0  0  0  0  0  0  0  0  0  0
   22.3742  -12.4806  -20.7551 C   0  0  0  0  0  0  0  0  0  0  0  0
   21.8694  -11.4788  -19.9478 C   0  0  0  0  0  0  0  0  0  0  0  0
   20.5309  -11.1551  -19.9885 C   0  0  0  0  0  0  0  0  0  0  0  0
   20.0297  -10.0728  -19.1052 C   0  0  0  0  0  0  0  0  0  0  0  0
   19.9456  -10.6149  -17.6963 C   0  0  2  0  0  0  0  0  0  0  0  0
   18.9842  -11.6892  -17.6064 N   0  0  0  0  0  0  0  0  0  0  0  0
   19.6310   -9.5622  -16.7107 C   0  0  0  0  0  0  0  0  0  0  0  0
   18.4538   -9.1773  -16.5617 O   0  0  0  0  0  0  0  0  0  0  0  0
   19.6733  -11.8237  -20.8336 C   0  0  0  0  0  0  0  0  0  0  0  0
   20.1911  -12.8287  -21.6404 C   0  0  0  0  0  0  0  0  0  0  0  0
   20.6684   -8.9999  -15.9444 N   0  0  0  0  0  0  0  0  0  0  0  0
   20.4595   -7.9560  -14.9720 C   0  0  1  0  0  0  0  0  0  0  0  0
   21.0824   -8.4063  -13.6599 C   0  0  0  0  0  0  0  0  0  0  0  0
   20.9244   -7.1283  -12.4052 S   0  0  0  0  0  0  0  0  0  0  0  0
   21.0691   -6.6702  -15.3850 C   0  0  0  0  0  0  0  0  0  0  0  0
   22.2987   -6.6074  -15.6406 O   0  0  0  0  0  0  0  0  0  0  0  0
   18.6930   -3.9013  -17.0928 C   0  0  0  0  0  0  0  0  0  0  0  0
   20.1821   -3.8806  -17.2346 C   0  0  2  0  0  0  0  0  0  0  0  0
   20.6690   -4.8318  -18.3050 C   0  0  0  0  0  0  0  0  0  0  0  0
   20.8164   -4.2042  -15.8791 C   0  0  2  0  0  0  0  0  0  0  0  0
   20.2934   -5.5008  -15.4995 N   0  0  0  0  0  0  0  0  0  0  0  0
   20.3971   -3.2150  -14.8752 C   0  0  0  0  0  0  0  0  0  0  0  0
   21.0661   -2.0179  -14.7624 O   0  0  0  0  0  0  0  0  0  0  0  0
   19.4323   -3.4556  -14.1203 O   0  0  0  0  0  0  0  0  0  0  0  0
  2  3  2  0
  2  1  1  0
  4  3  1  0
  5  4  2  0
  6  5  1  0
  7  6  1  0
  7  9  1  0
  7  8  1  6
  9 13  1  0
  9 10  2  0
 11  5  1  0
 11 12  2  0
 12  2  1  0
 13 14  1  0
 14 15  1  1
 15 16  1  0
 17 14  1  0
 17 18  2  0
 20 19  1  1
 20 22  1  0
 20 21  1  0
 22 23  1  1
 23 17  1  0
 24 22  1  0
 25 24  1  0
 26 24  2  0
M  END
$$$$
