YCV.pdb
     RDKit          3D

 26 26  0  0  1  0  0  0  0  0999 V2000
   21.3985  -10.0291  -18.1725 O   0  0  0  0  0  0  0  0  0  0  0  0
   20.9119  -11.2847  -17.8450 C   0  0  0  0  0  0  0  0  0  0  0  0
   21.1678  -11.7686  -16.5978 C   0  0  0  0  0  0  0  0  0  0  0  0
   20.6880  -13.0196  -16.2587 C   0  0  0  0  0  0  0  0  0  0  0  0
   19.9647  -13.7615  -17.1667 C   0  0  0  0  0  0  0  0  0  0  0  0
   19.4678  -15.1002  -16.7622 C   0  0  0  0  0  0  0  0  0  0  0  0
   20.5118  -16.1255  -17.1423 C   0  0  2  0  0  0  0  0  0  0  0  0
   20.7028  -16.1709  -18.5734 N   0  0  0  0  0  0  0  0  0  0  0  0
   20.1885  -17.4698  -16.6258 C   0  0  0  0  0  0  0  0  0  0  0  0
   19.5851  -18.2883  -17.3484 O   0  0  0  0  0  0  0  0  0  0  0  0
   19.7075  -13.2699  -18.4271 C   0  0  0  0  0  0  0  0  0  0  0  0
   20.1942  -12.0117  -18.7576 C   0  0  0  0  0  0  0  0  0  0  0  0
   20.5663  -17.8168  -15.3156 N   0  0  0  0  0  0  0  0  0  0  0  0
   20.3197  -19.1141  -14.7367 C   0  0  1  0  0  0  0  0  0  0  0  0
   21.6246  -19.6162  -14.1390 C   0  0  0  0  0  0  0  0  0  0  0  0
   21.3864  -21.2006  -13.3230 S   0  0  0  0  0  0  0  0  0  0  0  0
   19.2833  -19.0718  -13.6786 C   0  0  0  0  0  0  0  0  0  0  0  0
   19.4238  -18.3115  -12.6869 O   0  0  0  0  0  0  0  0  0  0  0  0
   15.5175  -20.4523  -14.5356 C   0  0  0  0  0  0  0  0  0  0  0  0
   15.8058  -19.5298  -13.3937 C   0  0  2  0  0  0  0  0  0  0  0  0
   15.8623  -18.0819  -13.8271 C   0  0  0  0  0  0  0  0  0  0  0  0
   17.1158  -19.9572  -12.7261 C   0  0  2  0  0  0  0  0  0  0  0  0
   18.1288  -19.8738  -13.7584 N   0  0  0  0  0  0  0  0  0  0  0  0
   17.0203  -21.3523  -12.2716 C   0  0  0  0  0  0  0  0  0  0  0  0
   16.3176  -21.6611  -11.1296 O   0  0  0  0  0  0  0  0  0  0  0  0
   17.5760  -22.2638  -12.9189 O   0  0  0  0  0  0  0  0  0  0  0  0
  2  3  2  0
  2  1  1  0
  4  3  1  0
  5  4  2  0
  6  5  1  0
  7  6  1  0
  7  9  1  0
  7  8  1  6
  9 13  1  0
  9 10  2  0
 11  5  1  0
 11 12  2  0
 12  2  1  0
 13 14  1  0
 14 15  1  1
 15 16  1  0
 17 14  1  0
 17 18  2  0
 20 19  1  6
 20 22  1  0
 20 21  1  0
 22 23  1  6
 23 17  1  0
 24 22  1  0
 25 24  1  0
 26 24  2  0
M  END
$$$$
