YCV.pdb
     RDKit          3D

 26 26  0  0  1  0  0  0  0  0999 V2000
   23.2568  -20.2954   -9.9192 O   0  0  0  0  0  0  0  0  0  0  0  0
   24.3360  -20.3308  -10.7880 C   0  0  0  0  0  0  0  0  0  0  0  0
   24.2030  -19.7312  -12.0037 C   0  0  0  0  0  0  0  0  0  0  0  0
   25.2720  -19.7594  -12.8793 C   0  0  0  0  0  0  0  0  0  0  0  0
   26.4489  -20.3830  -12.5271 C   0  0  0  0  0  0  0  0  0  0  0  0
   27.5724  -20.3904  -13.4969 C   0  0  0  0  0  0  0  0  0  0  0  0
   27.3933  -21.5766  -14.4170 C   0  0  2  0  0  0  0  0  0  0  0  0
   28.4960  -21.6906  -15.3431 N   0  0  0  0  0  0  0  0  0  0  0  0
   26.1126  -21.5273  -15.1491 C   0  0  0  0  0  0  0  0  0  0  0  0
   26.0135  -20.8466  -16.1898 O   0  0  0  0  0  0  0  0  0  0  0  0
   26.5806  -20.9885  -11.2973 C   0  0  0  0  0  0  0  0  0  0  0  0
   25.5003  -20.9543  -10.4250 C   0  0  0  0  0  0  0  0  0  0  0  0
   25.0095  -22.2528  -14.6628 N   0  0  0  0  0  0  0  0  0  0  0  0
   23.7708  -22.3923  -15.3872 C   0  0  1  0  0  0  0  0  0  0  0  0
   23.6164  -23.8547  -15.7743 C   0  0  0  0  0  0  0  0  0  0  0  0
   24.1039  -24.9301  -14.4184 S   0  0  0  0  0  0  0  0  0  0  0  0
   22.5976  -21.9742  -14.5844 C   0  0  0  0  0  0  0  0  0  0  0  0
   22.5312  -22.2669  -13.3633 O   0  0  0  0  0  0  0  0  0  0  0  0
   19.9073  -19.4310  -16.4436 C   0  0  0  0  0  0  0  0  0  0  0  0
   20.0669  -19.3943  -14.9566 C   0  0  2  0  0  0  0  0  0  0  0  0
   21.1449  -18.4275  -14.5198 C   0  0  0  0  0  0  0  0  0  0  0  0
   20.3579  -20.8100  -14.4513 C   0  0  2  0  0  0  0  0  0  0  0  0
   21.5409  -21.2468  -15.1645 N   0  0  0  0  0  0  0  0  0  0  0  0
   19.2443  -21.7077  -14.7921 C   0  0  0  0  0  0  0  0  0  0  0  0
   18.1120  -21.7326  -14.0107 O   0  0  0  0  0  0  0  0  0  0  0  0
   19.3200  -22.4519  -15.7917 O   0  0  0  0  0  0  0  0  0  0  0  0
  2  3  2  0
  2  1  1  0
  4  3  1  0
  5  4  2  0
  6  5  1  0
  7  6  1  0
  7  9  1  0
  7  8  1  6
  9 13  1  0
  9 10  2  0
 11  5  1  0
 11 12  2  0
 12  2  1  0
 13 14  1  0
 14 15  1  1
 15 16  1  0
 17 14  1  0
 17 18  2  0
 20 19  1  6
 20 22  1  0
 20 21  1  0
 22 23  1  6
 23 17  1  0
 24 22  1  0
 25 24  1  0
 26 24  2  0
M  END
$$$$
