YCV.pdb
     RDKit          3D

 26 26  0  0  1  0  0  0  0  0999 V2000
   28.0944  -15.9516  -20.6144 O   0  0  0  0  0  0  0  0  0  0  0  0
   27.8077  -16.7588  -19.5249 C   0  0  0  0  0  0  0  0  0  0  0  0
   26.8725  -17.7372  -19.6776 C   0  0  0  0  0  0  0  0  0  0  0  0
   26.5774  -18.5491  -18.5987 C   0  0  0  0  0  0  0  0  0  0  0  0
   27.2184  -18.3702  -17.3924 C   0  0  0  0  0  0  0  0  0  0  0  0
   26.8719  -19.2638  -16.2591 C   0  0  0  0  0  0  0  0  0  0  0  0
   28.0614  -20.1543  -15.9801 C   0  0  2  0  0  0  0  0  0  0  0  0
   28.2887  -21.0784  -17.0668 N   0  0  0  0  0  0  0  0  0  0  0  0
   27.9244  -20.8861  -14.7056 C   0  0  0  0  0  0  0  0  0  0  0  0
   27.1248  -21.8394  -14.6153 O   0  0  0  0  0  0  0  0  0  0  0  0
   28.1635  -17.3802  -17.2407 C   0  0  0  0  0  0  0  0  0  0  0  0
   28.4524  -16.5700  -18.3312 C   0  0  0  0  0  0  0  0  0  0  0  0
   28.7017  -20.4989  -13.5986 N   0  0  0  0  0  0  0  0  0  0  0  0
   28.4521  -20.9586  -12.2550 C   0  0  1  0  0  0  0  0  0  0  0  0
   29.6655  -20.6099  -11.4074 C   0  0  0  0  0  0  0  0  0  0  0  0
   31.0559  -21.6757  -11.8120 S   0  0  0  0  0  0  0  0  0  0  0  0
   27.2467  -20.3351  -11.6603 C   0  0  0  0  0  0  0  0  0  0  0  0
   27.0579  -19.0965  -11.7677 O   0  0  0  0  0  0  0  0  0  0  0  0
   24.0762  -21.0945  -12.6246 C   0  0  0  0  0  0  0  0  0  0  0  0
   23.9354  -21.3279  -11.1537 C   0  0  2  0  0  0  0  0  0  0  0  0
   22.5776  -20.9102  -10.6347 C   0  0  0  0  0  0  0  0  0  0  0  0
   25.0577  -20.5869  -10.4217 C   0  0  2  0  0  0  0  0  0  0  0  0
   26.2944  -21.1073  -10.9681 N   0  0  0  0  0  0  0  0  0  0  0  0
   25.0123  -20.8929   -8.9842 C   0  0  0  0  0  0  0  0  0  0  0  0
   24.3398  -20.0592   -8.1205 O   0  0  0  0  0  0  0  0  0  0  0  0
   25.5835  -21.9101   -8.5397 O   0  0  0  0  0  0  0  0  0  0  0  0
  2  3  2  0
  2  1  1  0
  4  3  1  0
  5  4  2  0
  6  5  1  0
  7  6  1  0
  7  9  1  0
  7  8  1  6
  9 13  1  0
  9 10  2  0
 11  5  1  0
 11 12  2  0
 12  2  1  0
 13 14  1  0
 14 15  1  1
 15 16  1  0
 17 14  1  0
 17 18  2  0
 20 19  1  6
 20 22  1  0
 20 21  1  0
 22 23  1  6
 23 17  1  0
 24 22  1  0
 25 24  1  0
 26 24  2  0
M  END
$$$$
