YCV.pdb
     RDKit          3D

 26 26  0  0  1  0  0  0  0  0999 V2000
   23.3620  -21.5130   -7.0746 O   0  0  0  0  0  0  0  0  0  0  0  0
   23.9730  -21.2091   -8.2808 C   0  0  0  0  0  0  0  0  0  0  0  0
   23.1792  -20.9199   -9.3491 C   0  0  0  0  0  0  0  0  0  0  0  0
   23.7762  -20.6151  -10.5578 C   0  0  0  0  0  0  0  0  0  0  0  0
   25.1486  -20.6047  -10.6776 C   0  0  0  0  0  0  0  0  0  0  0  0
   25.7492  -20.2721  -11.9934 C   0  0  0  0  0  0  0  0  0  0  0  0
   25.0112  -21.0505  -13.0589 C   0  0  2  0  0  0  0  0  0  0  0  0
   25.4691  -22.4192  -13.1175 N   0  0  0  0  0  0  0  0  0  0  0  0
   25.1179  -20.4173  -14.3878 C   0  0  0  0  0  0  0  0  0  0  0  0
   26.1359  -20.5974  -15.0859 O   0  0  0  0  0  0  0  0  0  0  0  0
   25.9489  -20.8975   -9.5957 C   0  0  0  0  0  0  0  0  0  0  0  0
   25.3387  -21.2023   -8.3858 C   0  0  0  0  0  0  0  0  0  0  0  0
   24.0639  -19.6119  -14.8569 N   0  0  0  0  0  0  0  0  0  0  0  0
   24.1027  -18.9090  -16.1152 C   0  0  1  0  0  0  0  0  0  0  0  0
   22.8619  -19.2938  -16.9055 C   0  0  0  0  0  0  0  0  0  0  0  0
   22.8526  -18.4892  -18.5133 S   0  0  0  0  0  0  0  0  0  0  0  0
   24.1315  -17.4380  -15.9390 C   0  0  0  0  0  0  0  0  0  0  0  0
   23.2888  -16.8744  -15.1950 O   0  0  0  0  0  0  0  0  0  0  0  0
   27.4802  -15.4317  -17.3912 C   0  0  0  0  0  0  0  0  0  0  0  0
   26.7101  -14.9479  -16.2034 C   0  0  2  0  0  0  0  0  0  0  0  0
   27.1825  -15.5856  -14.9158 C   0  0  0  0  0  0  0  0  0  0  0  0
   25.2196  -15.2110  -16.4347 C   0  0  2  0  0  0  0  0  0  0  0  0
   25.0934  -16.6454  -16.5938 N   0  0  0  0  0  0  0  0  0  0  0  0
   24.7774  -14.5587  -17.6761 C   0  0  0  0  0  0  0  0  0  0  0  0
   24.4134  -13.2318  -17.6685 O   0  0  0  0  0  0  0  0  0  0  0  0
   24.7299  -15.2049  -18.7433 O   0  0  0  0  0  0  0  0  0  0  0  0
  2  3  2  0
  2  1  1  0
  4  3  1  0
  5  4  2  0
  6  5  1  0
  7  6  1  0
  7  9  1  0
  7  8  1  6
  9 13  1  0
  9 10  2  0
 11  5  1  0
 11 12  2  0
 12  2  1  0
 13 14  1  0
 14 15  1  6
 15 16  1  0
 17 14  1  0
 17 18  2  0
 20 19  1  6
 20 22  1  0
 20 21  1  0
 22 23  1  6
 23 17  1  0
 24 22  1  0
 25 24  1  0
 26 24  2  0
M  END
$$$$
