TCM.pdb
     RDKit          3D

 22 21  0  0  1  0  0  0  0  0999 V2000
   26.4747  -19.8640  -16.3401 C   0  0  0  0  0  0  0  0  0  0  0  0
   26.9639  -21.1942  -16.8486 C   0  0  1  0  0  0  0  0  0  0  0  0
   27.9787  -20.9683  -17.7886 O   0  0  0  0  0  0  0  0  0  0  0  0
   27.5168  -22.0112  -15.6861 C   0  0  2  0  0  0  0  0  0  0  0  0
   27.9533  -23.3087  -16.1713 N   0  0  0  0  0  0  0  0  0  0  0  0
   26.5609  -22.0718  -14.5701 C   0  0  0  0  0  0  0  0  0  0  0  0
   25.5004  -22.7927  -14.7118 O   0  0  0  0  0  0  0  0  0  0  0  0
   26.6592  -21.4184  -13.3229 N   0  0  0  0  0  0  0  0  0  0  0  0
   25.6115  -21.5132  -12.3151 C   0  0  1  0  0  0  0  0  0  0  0  0
   26.1278  -20.9616  -10.9725 C   0  0  0  0  0  0  0  0  0  0  0  0
   24.7910  -20.9612   -9.7490 S   0  0  0  0  0  0  0  0  0  0  0  0
   24.3376  -20.9166  -12.7052 C   0  0  0  0  0  0  0  0  0  0  0  0
   24.2710  -19.6647  -12.9551 O   0  0  0  0  0  0  0  0  0  0  0  0
   20.1166  -23.9743  -16.2609 C   0  0  0  0  0  0  0  0  0  0  0  0
   21.4810  -22.9542  -16.7572 S   0  0  0  0  0  0  0  0  0  0  0  0
   21.9470  -21.6671  -15.5902 C   0  0  0  0  0  0  0  0  0  0  0  0
   21.1683  -21.6700  -14.3122 C   0  0  0  0  0  0  0  0  0  0  0  0
   21.8568  -20.9405  -13.2280 C   0  0  2  0  0  0  0  0  0  0  0  0
   23.1154  -21.6221  -12.8419 N   0  0  0  0  0  0  0  0  0  0  0  0
   20.9885  -20.8521  -12.0356 C   0  0  0  0  0  0  0  0  0  0  0  0
   21.4352  -21.4838  -10.8411 O   0  0  0  0  0  0  0  0  0  0  0  0
   19.9048  -20.2787  -11.9724 O   0  0  0  0  0  0  0  0  0  0  0  0
  2  4  1  0
  2  1  1  1
  3  2  1  0
  4  5  1  6
  6  4  1  0
  7  6  2  0
  8  6  1  0
  9  8  1  0
  9 12  1  0
  9 10  1  1
 11 10  1  0
 12 19  1  0
 13 12  2  0
 15 14  1  0
 16 17  1  0
 16 15  1  0
 18 17  1  6
 19 18  1  0
 20 18  1  0
 20 21  1  0
 22 20  2  0
M  END
$$$$
