TCM.pdb
     RDKit          3D

 22 21  0  0  1  0  0  0  0  0999 V2000
   13.4759   -8.5769   -8.2466 C   0  0  0  0  0  0  0  0  0  0  0  0
   14.3900   -8.5309   -9.4422 C   0  0  1  0  0  0  0  0  0  0  0  0
   15.6600   -8.9775   -9.0521 O   0  0  0  0  0  0  0  0  0  0  0  0
   13.8425   -9.4403  -10.5366 C   0  0  2  0  0  0  0  0  0  0  0  0
   13.7689  -10.8035  -10.0409 N   0  0  0  0  0  0  0  0  0  0  0  0
   14.6004   -9.2905  -11.7880 C   0  0  0  0  0  0  0  0  0  0  0  0
   15.1813  -10.3323  -12.2794 O   0  0  0  0  0  0  0  0  0  0  0  0
   14.7799   -8.1121  -12.5437 N   0  0  0  0  0  0  0  0  0  0  0  0
   15.6354   -8.0716  -13.7223 C   0  0  1  0  0  0  0  0  0  0  0  0
   14.9760   -7.2100  -14.8161 C   0  0  0  0  0  0  0  0  0  0  0  0
   16.0884   -7.0585  -16.2385 S   0  0  0  0  0  0  0  0  0  0  0  0
   17.0141   -7.6709  -13.4586 C   0  0  0  0  0  0  0  0  0  0  0  0
   17.2600   -6.7766  -12.5789 O   0  0  0  0  0  0  0  0  0  0  0  0
   23.4086  -10.3104  -15.3928 C   0  0  0  0  0  0  0  0  0  0  0  0
   23.0921   -9.8294  -13.7144 S   0  0  0  0  0  0  0  0  0  0  0  0
   21.8775   -8.5197  -13.5028 C   0  0  0  0  0  0  0  0  0  0  0  0
   20.4662   -8.9222  -13.7961 C   0  0  0  0  0  0  0  0  0  0  0  0
   19.5304   -7.7804  -13.7495 C   0  0  2  0  0  0  0  0  0  0  0  0
   18.1557   -8.2022  -14.1101 N   0  0  0  0  0  0  0  0  0  0  0  0
   19.9581   -6.7261  -14.6923 C   0  0  0  0  0  0  0  0  0  0  0  0
   20.9168   -5.7778  -14.2371 O   0  0  0  0  0  0  0  0  0  0  0  0
   19.5632   -6.5857  -15.8462 O   0  0  0  0  0  0  0  0  0  0  0  0
  2  4  1  0
  2  1  1  1
  3  2  1  0
  4  5  1  1
  6  4  1  0
  7  6  2  0
  8  6  1  0
  9  8  1  0
  9 12  1  0
  9 10  1  6
 11 10  1  0
 12 19  1  0
 13 12  2  0
 15 14  1  0
 16 17  1  0
 16 15  1  0
 18 17  1  6
 19 18  1  0
 20 18  1  0
 20 21  1  0
 22 20  2  0
M  END
$$$$
