TCM.pdb
     RDKit          3D

 22 21  0  0  1  0  0  0  0  0999 V2000
   18.0604  -14.2038  -14.4434 C   0  0  0  0  0  0  0  0  0  0  0  0
   18.4412  -14.9675  -15.6839 C   0  0  1  0  0  0  0  0  0  0  0  0
   17.9324  -16.2695  -15.5818 O   0  0  0  0  0  0  0  0  0  0  0  0
   17.8451  -14.2803  -16.9075 C   0  0  2  0  0  0  0  0  0  0  0  0
   18.0503  -15.1145  -18.0786 N   0  0  0  0  0  0  0  0  0  0  0  0
   18.3461  -12.9047  -17.0479 C   0  0  0  0  0  0  0  0  0  0  0  0
   19.5620  -12.7343  -17.4440 O   0  0  0  0  0  0  0  0  0  0  0  0
   17.6423  -11.7079  -16.7944 N   0  0  0  0  0  0  0  0  0  0  0  0
   18.2578  -10.3981  -16.9623 C   0  0  1  0  0  0  0  0  0  0  0  0
   17.1643   -9.3205  -17.0907 C   0  0  0  0  0  0  0  0  0  0  0  0
   17.9238   -7.6790  -17.2028 S   0  0  0  0  0  0  0  0  0  0  0  0
   19.2518  -10.0596  -15.9482 C   0  0  0  0  0  0  0  0  0  0  0  0
   19.0303  -10.3403  -14.7209 O   0  0  0  0  0  0  0  0  0  0  0  0
   26.0173  -10.2299  -15.9305 C   0  0  0  0  0  0  0  0  0  0  0  0
   25.2640  -10.3757  -14.3306 S   0  0  0  0  0  0  0  0  0  0  0  0
   23.6697   -9.5624  -14.1511 C   0  0  0  0  0  0  0  0  0  0  0  0
   22.6707   -9.9037  -15.2119 C   0  0  0  0  0  0  0  0  0  0  0  0
   21.4415   -9.0905  -15.1147 C   0  0  2  0  0  0  0  0  0  0  0  0
   20.4933   -9.4246  -16.2043 N   0  0  0  0  0  0  0  0  0  0  0  0
   21.7680   -7.6522  -15.2041 C   0  0  0  0  0  0  0  0  0  0  0  0
   22.0044   -6.9485  -13.9898 O   0  0  0  0  0  0  0  0  0  0  0  0
   21.8575   -6.9949  -16.2372 O   0  0  0  0  0  0  0  0  0  0  0  0
  2  4  1  0
  2  1  1  1
  3  2  1  0
  4  5  1  6
  6  4  1  0
  7  6  2  0
  8  6  1  0
  9  8  1  0
  9 12  1  0
  9 10  1  1
 11 10  1  0
 12 19  1  0
 13 12  2  0
 15 14  1  0
 16 17  1  0
 16 15  1  0
 18 17  1  6
 19 18  1  0
 20 18  1  0
 20 21  1  0
 22 20  2  0
M  END
$$$$
