TCM.pdb
     RDKit          3D

 22 21  0  0  1  0  0  0  0  0999 V2000
   19.0762   -9.3038  -18.5329 C   0  0  0  0  0  0  0  0  0  0  0  0
   19.1989  -10.5912  -17.7618 C   0  0  1  0  0  0  0  0  0  0  0  0
   18.3339  -11.5370  -18.3291 O   0  0  0  0  0  0  0  0  0  0  0  0
   20.6345  -11.0982  -17.8430 C   0  0  2  0  0  0  0  0  0  0  0  0
   20.7154  -12.4196  -17.2457 N   0  0  0  0  0  0  0  0  0  0  0  0
   21.5812  -10.1213  -17.2839 C   0  0  0  0  0  0  0  0  0  0  0  0
   21.6430   -9.9948  -16.0015 O   0  0  0  0  0  0  0  0  0  0  0  0
   22.4585   -9.2758  -17.9961 N   0  0  0  0  0  0  0  0  0  0  0  0
   23.3093   -8.3020  -17.3251 C   0  0  1  0  0  0  0  0  0  0  0  0
   24.6238   -8.1293  -18.1098 C   0  0  0  0  0  0  0  0  0  0  0  0
   25.6545   -6.8657  -17.3194 S   0  0  0  0  0  0  0  0  0  0  0  0
   22.6628   -7.0244  -17.0408 C   0  0  0  0  0  0  0  0  0  0  0  0
   22.0492   -6.4002  -17.9724 O   0  0  0  0  0  0  0  0  0  0  0  0
   17.0755   -2.5500  -15.6928 C   0  0  0  0  0  0  0  0  0  0  0  0
   17.9718   -4.0692  -15.8852 S   0  0  0  0  0  0  0  0  0  0  0  0
   19.7421   -3.9644  -15.5849 C   0  0  0  0  0  0  0  0  0  0  0  0
   20.4946   -5.2342  -15.8316 C   0  0  0  0  0  0  0  0  0  0  0  0
   21.9399   -5.0982  -15.5591 C   0  0  2  0  0  0  0  0  0  0  0  0
   22.6470   -6.3828  -15.7765 N   0  0  0  0  0  0  0  0  0  0  0  0
   22.1619   -4.6733  -14.1614 C   0  0  0  0  0  0  0  0  0  0  0  0
   21.6732   -3.3950  -13.7707 O   0  0  0  0  0  0  0  0  0  0  0  0
   22.7338   -5.3236  -13.2912 O   0  0  0  0  0  0  0  0  0  0  0  0
  2  4  1  0
  2  1  1  6
  3  2  1  0
  4  5  1  1
  6  4  1  0
  7  6  2  0
  8  6  1  0
  9  8  1  0
  9 12  1  0
  9 10  1  6
 11 10  1  0
 12 19  1  0
 13 12  2  0
 15 14  1  0
 16 17  1  0
 16 15  1  0
 18 17  1  1
 19 18  1  0
 20 18  1  0
 20 21  1  0
 22 20  2  0
M  END
$$$$
