TCM.pdb
     RDKit          3D

 22 21  0  0  1  0  0  0  0  0999 V2000
   25.4090  -16.7396  -14.8812 C   0  0  0  0  0  0  0  0  0  0  0  0
   23.9320  -16.5849  -15.1295 C   0  0  1  0  0  0  0  0  0  0  0  0
   23.7500  -15.7544  -16.2438 O   0  0  0  0  0  0  0  0  0  0  0  0
   23.3164  -17.9522  -15.4053 C   0  0  2  0  0  0  0  0  0  0  0  0
   21.9167  -17.7903  -15.7576 N   0  0  0  0  0  0  0  0  0  0  0  0
   23.5575  -18.8836  -14.2929 C   0  0  0  0  0  0  0  0  0  0  0  0
   22.7689  -18.8352  -13.2731 O   0  0  0  0  0  0  0  0  0  0  0  0
   24.5769  -19.8549  -14.1960 N   0  0  0  0  0  0  0  0  0  0  0  0
   24.7284  -20.7029  -13.0211 C   0  0  1  0  0  0  0  0  0  0  0  0
   24.8018  -22.1807  -13.4504 C   0  0  0  0  0  0  0  0  0  0  0  0
   25.3944  -23.1965  -12.0718 S   0  0  0  0  0  0  0  0  0  0  0  0
   25.8293  -20.3277  -12.1390 C   0  0  0  0  0  0  0  0  0  0  0  0
   26.9810  -20.0724  -12.6314 O   0  0  0  0  0  0  0  0  0  0  0  0
   28.7339  -19.4920   -4.7222 C   0  0  0  0  0  0  0  0  0  0  0  0
   27.4136  -20.0048   -5.7909 S   0  0  0  0  0  0  0  0  0  0  0  0
   27.7792  -19.9485   -7.5512 C   0  0  0  0  0  0  0  0  0  0  0  0
   26.5888  -20.1154   -8.4428 C   0  0  0  0  0  0  0  0  0  0  0  0
   26.9458  -20.0841   -9.8757 C   0  0  2  0  0  0  0  0  0  0  0  0
   25.7401  -20.2118  -10.7287 N   0  0  0  0  0  0  0  0  0  0  0  0
   27.8675  -21.1924  -10.2004 C   0  0  0  0  0  0  0  0  0  0  0  0
   29.1866  -20.8582  -10.6171 O   0  0  0  0  0  0  0  0  0  0  0  0
   27.6043  -22.3903  -10.1447 O   0  0  0  0  0  0  0  0  0  0  0  0
  2  4  1  0
  2  1  1  6
  3  2  1  0
  4  5  1  1
  6  4  1  0
  7  6  2  0
  8  6  1  0
  9  8  1  0
  9 12  1  0
  9 10  1  6
 11 10  1  0
 12 19  1  0
 13 12  2  0
 15 14  1  0
 16 17  1  0
 16 15  1  0
 18 17  1  1
 19 18  1  0
 20 18  1  0
 20 21  1  0
 22 20  2  0
M  END
$$$$
