TCM.pdb
     RDKit          3D

 22 21  0  0  1  0  0  0  0  0999 V2000
   25.0154  -25.4877  -16.1130 C   0  0  0  0  0  0  0  0  0  0  0  0
   26.4577  -25.1180  -16.3368 C   0  0  1  0  0  0  0  0  0  0  0  0
   27.1207  -26.2195  -16.8952 O   0  0  0  0  0  0  0  0  0  0  0  0
   26.5369  -23.9345  -17.2949 C   0  0  2  0  0  0  0  0  0  0  0  0
   27.9252  -23.6832  -17.6394 N   0  0  0  0  0  0  0  0  0  0  0  0
   25.8231  -22.7642  -16.7623 C   0  0  0  0  0  0  0  0  0  0  0  0
   26.4380  -22.0039  -15.9207 O   0  0  0  0  0  0  0  0  0  0  0  0
   24.5066  -22.3546  -17.0641 N   0  0  0  0  0  0  0  0  0  0  0  0
   23.9123  -21.1630  -16.4730 C   0  0  1  0  0  0  0  0  0  0  0  0
   23.2044  -20.3372  -17.5639 C   0  0  0  0  0  0  0  0  0  0  0  0
   22.5310  -18.8148  -16.8479 S   0  0  0  0  0  0  0  0  0  0  0  0
   23.0475  -21.4208  -15.3256 C   0  0  0  0  0  0  0  0  0  0  0  0
   22.1531  -22.3316  -15.3944 O   0  0  0  0  0  0  0  0  0  0  0  0
   26.2610  -21.0815   -9.2996 C   0  0  0  0  0  0  0  0  0  0  0  0
   24.6923  -20.4067   -9.7816 S   0  0  0  0  0  0  0  0  0  0  0  0
   23.9809  -21.1016  -11.2805 C   0  0  0  0  0  0  0  0  0  0  0  0
   22.6809  -20.4890  -11.6980 C   0  0  0  0  0  0  0  0  0  0  0  0
   22.1799  -21.0386  -12.9741 C   0  0  2  0  0  0  0  0  0  0  0  0
   23.1078  -20.7308  -14.0885 N   0  0  0  0  0  0  0  0  0  0  0  0
   20.8564  -20.4659  -13.2963 C   0  0  0  0  0  0  0  0  0  0  0  0
   19.7457  -20.8755  -12.5062 O   0  0  0  0  0  0  0  0  0  0  0  0
   20.6168  -19.6595  -14.1905 O   0  0  0  0  0  0  0  0  0  0  0  0
  2  4  1  0
  2  1  1  6
  3  2  1  0
  4  5  1  1
  6  4  1  0
  7  6  2  0
  8  6  1  0
  9  8  1  0
  9 12  1  0
  9 10  1  6
 11 10  1  0
 12 19  1  0
 13 12  2  0
 15 14  1  0
 16 17  1  0
 16 15  1  0
 18 17  1  1
 19 18  1  0
 20 18  1  0
 20 21  1  0
 22 20  2  0
M  END
$$$$
