TCM.pdb
     RDKit          3D

 22 21  0  0  1  0  0  0  0  0999 V2000
   21.4131  -12.8208  -14.9927 C   0  0  0  0  0  0  0  0  0  0  0  0
   22.1956  -13.0319  -16.2617 C   0  0  1  0  0  0  0  0  0  0  0  0
   21.8801  -14.2967  -16.7768 O   0  0  0  0  0  0  0  0  0  0  0  0
   21.8185  -11.9583  -17.2765 C   0  0  2  0  0  0  0  0  0  0  0  0
   22.3879  -12.2939  -18.5698 N   0  0  0  0  0  0  0  0  0  0  0  0
   22.1675  -10.6146  -16.7909 C   0  0  0  0  0  0  0  0  0  0  0  0
   21.5266  -10.1465  -15.7738 O   0  0  0  0  0  0  0  0  0  0  0  0
   23.1461   -9.7430  -17.3148 N   0  0  0  0  0  0  0  0  0  0  0  0
   23.3288   -8.3899  -16.8067 C   0  0  1  0  0  0  0  0  0  0  0  0
   24.6933   -7.8405  -17.2646 C   0  0  0  0  0  0  0  0  0  0  0  0
   24.8851   -6.1244  -16.7149 S   0  0  0  0  0  0  0  0  0  0  0  0
   22.2335   -7.4740  -17.1105 C   0  0  0  0  0  0  0  0  0  0  0  0
   21.7833   -7.3936  -18.3043 O   0  0  0  0  0  0  0  0  0  0  0  0
   15.1035   -5.2034  -17.4061 C   0  0  0  0  0  0  0  0  0  0  0  0
   16.4261   -6.1936  -16.7590 S   0  0  0  0  0  0  0  0  0  0  0  0
   18.0600   -5.4457  -16.8377 C   0  0  0  0  0  0  0  0  0  0  0  0
   19.1869   -6.3673  -16.4906 C   0  0  0  0  0  0  0  0  0  0  0  0
   20.5042   -5.7028  -16.5617 C   0  0  2  0  0  0  0  0  0  0  0  0
   21.5916   -6.6307  -16.1687 N   0  0  0  0  0  0  0  0  0  0  0  0
   20.5394   -4.5330  -15.6597 C   0  0  0  0  0  0  0  0  0  0  0  0
   19.6493   -3.4567  -15.9336 O   0  0  0  0  0  0  0  0  0  0  0  0
   21.2705   -4.3959  -14.6831 O   0  0  0  0  0  0  0  0  0  0  0  0
  2  4  1  0
  2  1  1  1
  3  2  1  0
  4  5  1  6
  6  4  1  0
  7  6  2  0
  8  6  1  0
  9  8  1  0
  9 12  1  0
  9 10  1  6
 11 10  1  0
 12 19  1  0
 13 12  2  0
 15 14  1  0
 16 17  1  0
 16 15  1  0
 18 17  1  1
 19 18  1  0
 20 18  1  0
 20 21  1  0
 22 20  2  0
M  END
$$$$
