TCM.pdb
     RDKit          3D

 22 21  0  0  1  0  0  0  0  0999 V2000
   22.6056  -16.8308  -15.2411 C   0  0  0  0  0  0  0  0  0  0  0  0
   21.4911  -17.5131  -15.9890 C   0  0  1  0  0  0  0  0  0  0  0  0
   20.8293  -16.5591  -16.7741 O   0  0  0  0  0  0  0  0  0  0  0  0
   22.0717  -18.6001  -16.8869 C   0  0  2  0  0  0  0  0  0  0  0  0
   21.0110  -19.1800  -17.6919 N   0  0  0  0  0  0  0  0  0  0  0  0
   22.8481  -19.5790  -16.1111 C   0  0  0  0  0  0  0  0  0  0  0  0
   22.2079  -20.4117  -15.3619 O   0  0  0  0  0  0  0  0  0  0  0  0
   24.2513  -19.7270  -16.0802 N   0  0  0  0  0  0  0  0  0  0  0  0
   24.9084  -20.6937  -15.2106 C   0  0  1  0  0  0  0  0  0  0  0  0
   26.2772  -21.0812  -15.8018 C   0  0  0  0  0  0  0  0  0  0  0  0
   27.3384  -21.7705  -14.5046 S   0  0  0  0  0  0  0  0  0  0  0  0
   25.0053  -20.2855  -13.8124 C   0  0  0  0  0  0  0  0  0  0  0  0
   25.4837  -19.1377  -13.5160 O   0  0  0  0  0  0  0  0  0  0  0  0
   21.9776  -20.2682   -6.9146 C   0  0  0  0  0  0  0  0  0  0  0  0
   22.9150  -21.4976   -7.7854 S   0  0  0  0  0  0  0  0  0  0  0  0
   24.1228  -20.8612   -8.9565 C   0  0  0  0  0  0  0  0  0  0  0  0
   23.8399  -21.1917  -10.3884 C   0  0  0  0  0  0  0  0  0  0  0  0
   24.8611  -20.6491  -11.3073 C   0  0  2  0  0  0  0  0  0  0  0  0
   24.6003  -21.0716  -12.7042 N   0  0  0  0  0  0  0  0  0  0  0  0
   26.2058  -21.1229  -10.9192 C   0  0  0  0  0  0  0  0  0  0  0  0
   27.0503  -20.2192  -10.2152 O   0  0  0  0  0  0  0  0  0  0  0  0
   26.6731  -22.2352  -11.1467 O   0  0  0  0  0  0  0  0  0  0  0  0
  2  4  1  0
  2  1  1  6
  3  2  1  0
  4  5  1  1
  6  4  1  0
  7  6  2  0
  8  6  1  0
  9  8  1  0
  9 12  1  0
  9 10  1  6
 11 10  1  0
 12 19  1  0
 13 12  2  0
 15 14  1  0
 16 17  1  0
 16 15  1  0
 18 17  1  1
 19 18  1  0
 20 18  1  0
 20 21  1  0
 22 20  2  0
M  END
$$$$
