TCM.pdb
     RDKit          3D

 22 21  0  0  1  0  0  0  0  0999 V2000
   18.5840   -9.7307  -18.6689 C   0  0  0  0  0  0  0  0  0  0  0  0
   17.8037  -10.4291  -17.5869 C   0  0  1  0  0  0  0  0  0  0  0  0
   16.8974  -11.3132  -18.1883 O   0  0  0  0  0  0  0  0  0  0  0  0
   18.7606  -11.2086  -16.6918 C   0  0  2  0  0  0  0  0  0  0  0  0
   17.9992  -12.0680  -15.8024 N   0  0  0  0  0  0  0  0  0  0  0  0
   19.7053  -10.3130  -16.0075 C   0  0  0  0  0  0  0  0  0  0  0  0
   19.2359   -9.4631  -15.1579 O   0  0  0  0  0  0  0  0  0  0  0  0
   21.1065  -10.2628  -16.1687 N   0  0  0  0  0  0  0  0  0  0  0  0
   21.9268   -9.2613  -15.5003 C   0  0  1  0  0  0  0  0  0  0  0  0
   23.3985   -9.7166  -15.4875 C   0  0  0  0  0  0  0  0  0  0  0  0
   23.5872  -11.1691  -14.4206 S   0  0  0  0  0  0  0  0  0  0  0  0
   21.7717   -7.9052  -16.0179 C   0  0  0  0  0  0  0  0  0  0  0  0
   21.5020   -7.7226  -17.2541 O   0  0  0  0  0  0  0  0  0  0  0  0
   17.5757   -2.2478  -17.9093 C   0  0  0  0  0  0  0  0  0  0  0  0
   18.0545   -3.8431  -17.2975 S   0  0  0  0  0  0  0  0  0  0  0  0
   19.7492   -3.9667  -16.7077 C   0  0  0  0  0  0  0  0  0  0  0  0
   20.1521   -5.3316  -16.2445 C   0  0  0  0  0  0  0  0  0  0  0  0
   21.5613   -5.3875  -15.8053 C   0  0  2  0  0  0  0  0  0  0  0  0
   21.8941   -6.7206  -15.2487 N   0  0  0  0  0  0  0  0  0  0  0  0
   21.8164   -4.3697  -14.7649 C   0  0  0  0  0  0  0  0  0  0  0  0
   21.8059   -3.0018  -15.1578 O   0  0  0  0  0  0  0  0  0  0  0  0
   22.0390   -4.5905  -13.5779 O   0  0  0  0  0  0  0  0  0  0  0  0
  2  4  1  0
  2  1  1  6
  3  2  1  0
  4  5  1  1
  6  4  1  0
  7  6  2  0
  8  6  1  0
  9  8  1  0
  9 12  1  0
  9 10  1  6
 11 10  1  0
 12 19  1  0
 13 12  2  0
 15 14  1  0
 16 17  1  0
 16 15  1  0
 18 17  1  1
 19 18  1  0
 20 18  1  0
 20 21  1  0
 22 20  2  0
M  END
$$$$
