TCM.pdb
     RDKit          3D

 22 21  0  0  1  0  0  0  0  0999 V2000
   23.6399  -16.5337  -17.8578 C   0  0  0  0  0  0  0  0  0  0  0  0
   24.0448  -17.4194  -16.7095 C   0  0  1  0  0  0  0  0  0  0  0  0
   22.8861  -17.8835  -16.0719 O   0  0  0  0  0  0  0  0  0  0  0  0
   24.8462  -18.6037  -17.2384 C   0  0  2  0  0  0  0  0  0  0  0  0
   24.0246  -19.3721  -18.1570 N   0  0  0  0  0  0  0  0  0  0  0  0
   25.4273  -19.3916  -16.1409 C   0  0  0  0  0  0  0  0  0  0  0  0
   24.7697  -20.4131  -15.7067 O   0  0  0  0  0  0  0  0  0  0  0  0
   26.6531  -19.1635  -15.4796 N   0  0  0  0  0  0  0  0  0  0  0  0
   27.0392  -19.9067  -14.2876 C   0  0  1  0  0  0  0  0  0  0  0  0
   28.4982  -19.5780  -13.9177 C   0  0  0  0  0  0  0  0  0  0  0  0
   28.9481  -20.4136  -12.3739 S   0  0  0  0  0  0  0  0  0  0  0  0
   26.1325  -19.7507  -13.1542 C   0  0  0  0  0  0  0  0  0  0  0  0
   25.3669  -18.7292  -13.0874 O   0  0  0  0  0  0  0  0  0  0  0  0
   21.3798  -18.0082  -10.1854 C   0  0  0  0  0  0  0  0  0  0  0  0
   21.3306  -19.3935  -11.2932 S   0  0  0  0  0  0  0  0  0  0  0  0
   22.4262  -20.7569  -10.8733 C   0  0  0  0  0  0  0  0  0  0  0  0
   23.6026  -20.9171  -11.7842 C   0  0  0  0  0  0  0  0  0  0  0  0
   24.8820  -20.5989  -11.1182 C   0  0  2  0  0  0  0  0  0  0  0  0
   26.0122  -20.6629  -12.0755 N   0  0  0  0  0  0  0  0  0  0  0  0
   25.1431  -21.5552  -10.0224 C   0  0  0  0  0  0  0  0  0  0  0  0
   24.8432  -21.1408   -8.6943 O   0  0  0  0  0  0  0  0  0  0  0  0
   25.5991  -22.6883  -10.1462 O   0  0  0  0  0  0  0  0  0  0  0  0
  2  4  1  0
  2  1  1  6
  3  2  1  0
  4  5  1  1
  6  4  1  0
  7  6  2  0
  8  6  1  0
  9  8  1  0
  9 12  1  0
  9 10  1  1
 11 10  1  0
 12 19  1  0
 13 12  2  0
 15 14  1  0
 16 17  1  0
 16 15  1  0
 18 17  1  6
 19 18  1  0
 20 18  1  0
 20 21  1  0
 22 20  2  0
M  END
$$$$
