TCM.pdb
     RDKit          3D

 22 21  0  0  1  0  0  0  0  0999 V2000
   25.8914  -11.2018  -15.5280 C   0  0  0  0  0  0  0  0  0  0  0  0
   25.6518  -11.8118  -16.8836 C   0  0  1  0  0  0  0  0  0  0  0  0
   26.5392  -12.8830  -17.0555 O   0  0  0  0  0  0  0  0  0  0  0  0
   24.2164  -12.3190  -16.9668 C   0  0  2  0  0  0  0  0  0  0  0  0
   24.0370  -13.0628  -18.2013 N   0  0  0  0  0  0  0  0  0  0  0  0
   23.2495  -11.2283  -16.7705 C   0  0  0  0  0  0  0  0  0  0  0  0
   23.0410  -10.4128  -17.7481 O   0  0  0  0  0  0  0  0  0  0  0  0
   22.4971  -10.9507  -15.6091 N   0  0  0  0  0  0  0  0  0  0  0  0
   21.5468   -9.8481  -15.5482 C   0  0  1  0  0  0  0  0  0  0  0  0
   20.3582  -10.2331  -14.6469 C   0  0  0  0  0  0  0  0  0  0  0  0
   19.5308  -11.7031  -15.3089 S   0  0  0  0  0  0  0  0  0  0  0  0
   22.1304   -8.5632  -15.1751 C   0  0  0  0  0  0  0  0  0  0  0  0
   22.9056   -8.4862  -14.1616 O   0  0  0  0  0  0  0  0  0  0  0  0
   24.7012   -3.0450  -18.5571 C   0  0  0  0  0  0  0  0  0  0  0  0
   23.4996   -2.5932  -17.3322 S   0  0  0  0  0  0  0  0  0  0  0  0
   23.2403   -3.7997  -16.0235 C   0  0  0  0  0  0  0  0  0  0  0  0
   22.6434   -5.0951  -16.4764 C   0  0  0  0  0  0  0  0  0  0  0  0
   22.4754   -6.0588  -15.3698 C   0  0  2  0  0  0  0  0  0  0  0  0
   21.9133   -7.3404  -15.8591 N   0  0  0  0  0  0  0  0  0  0  0  0
   21.5642   -5.5103  -14.3440 C   0  0  0  0  0  0  0  0  0  0  0  0
   22.1269   -4.6875  -13.3281 O   0  0  0  0  0  0  0  0  0  0  0  0
   20.3524   -5.6962  -14.2809 O   0  0  0  0  0  0  0  0  0  0  0  0
  2  4  1  0
  2  1  1  1
  3  2  1  0
  4  5  1  6
  6  4  1  0
  7  6  2  0
  8  6  1  0
  9  8  1  0
  9 12  1  0
  9 10  1  1
 11 10  1  0
 12 19  1  0
 13 12  2  0
 15 14  1  0
 16 17  1  0
 16 15  1  0
 18 17  1  6
 19 18  1  0
 20 18  1  0
 20 21  1  0
 22 20  2  0
M  END
$$$$
