NQS.pdb
     RDKit          3D

 24 23  0  0  1  0  0  0  0  0999 V2000
   10.0654  -15.6208   13.1115 N   0  0  0  0  0  0  0  0  0  0  0  0
    9.3776  -15.6251   14.3523 C   0  0  0  0  0  0  0  0  0  0  0  0
    8.3481  -14.9435   14.4745 O   0  0  0  0  0  0  0  0  0  0  0  0
    9.9251  -16.4514   15.4573 C   0  0  0  0  0  0  0  0  0  0  0  0
    9.8031  -15.6355   16.7275 C   0  0  2  0  0  0  0  0  0  0  0  0
    9.9308  -14.2462   16.3255 N   0  0  0  0  0  0  0  0  0  0  0  0
   10.8674  -15.9770   17.7109 C   0  0  0  0  0  0  0  0  0  0  0  0
   11.0852  -17.1803   18.0442 O   0  0  0  0  0  0  0  0  0  0  0  0
   17.1680  -13.3876   20.2785 N   0  0  0  0  0  0  0  0  0  0  0  0
   16.2595  -13.7829   19.2829 C   0  0  0  0  0  0  0  0  0  0  0  0
   16.3630  -13.3738   18.1058 O   0  0  0  0  0  0  0  0  0  0  0  0
   15.1233  -14.7248   19.6243 C   0  0  0  0  0  0  0  0  0  0  0  0
   13.9249  -14.3934   18.8107 C   0  0  0  0  0  0  0  0  0  0  0  0
   12.7455  -15.2527   19.1593 C   0  0  2  0  0  0  0  0  0  0  0  0
   11.6217  -14.9292   18.2575 N   0  0  0  0  0  0  0  0  0  0  0  0
   12.3036  -15.0817   20.5452 C   0  0  0  0  0  0  0  0  0  0  0  0
   11.9947  -13.9531   20.9866 O   0  0  0  0  0  0  0  0  0  0  0  0
   10.2018  -16.5229   24.3875 O   0  0  0  0  0  0  0  0  0  0  0  0
   10.5786  -16.6932   23.0668 C   0  0  0  0  0  0  0  0  0  0  0  0
   11.9098  -15.9952   22.7964 C   0  0  2  0  0  0  0  0  0  0  0  0
   12.2254  -16.2298   21.4061 N   0  0  0  0  0  0  0  0  0  0  0  0
   12.9145  -16.6339   23.6877 C   0  0  0  0  0  0  0  0  0  0  0  0
   13.6967  -17.5033   23.2544 O   0  0  0  0  0  0  0  0  0  0  0  0
   12.9526  -16.2311   25.0149 O   0  0  0  0  0  0  0  0  0  0  0  0
  1  2  1  0
  2  4  1  0
  3  2  2  0
  4  5  1  0
  5  7  1  0
  5  6  1  6
  7  8  2  0
  9 10  1  0
 10 11  2  0
 10 12  1  0
 12 13  1  0
 14 13  1  6
 14 16  1  0
 15 14  1  0
 15  7  1  0
 16 17  2  0
 18 19  1  0
 20 19  1  1
 20 22  1  0
 21 20  1  0
 21 16  1  0
 22 23  2  0
 22 24  1  0
M  END
$$$$
