NQS.pdb
     RDKit          3D

 24 23  0  0  1  0  0  0  0  0999 V2000
    1.3311  -19.3137   20.6217 N   0  0  0  0  0  0  0  0  0  0  0  0
    2.7445  -19.2316   20.5294 C   0  0  0  0  0  0  0  0  0  0  0  0
    3.3255  -19.8315   19.6119 O   0  0  0  0  0  0  0  0  0  0  0  0
    3.4700  -18.4253   21.5428 C   0  0  0  0  0  0  0  0  0  0  0  0
    4.8889  -18.9522   21.5999 C   0  0  2  0  0  0  0  0  0  0  0  0
    4.8239  -20.1998   22.3396 N   0  0  0  0  0  0  0  0  0  0  0  0
    5.8059  -18.0032   22.2890 C   0  0  0  0  0  0  0  0  0  0  0  0
    5.8829  -16.7913   21.9261 O   0  0  0  0  0  0  0  0  0  0  0  0
    8.5878  -19.3064   27.6939 N   0  0  0  0  0  0  0  0  0  0  0  0
    7.3294  -18.6917   27.5864 C   0  0  0  0  0  0  0  0  0  0  0  0
    6.5303  -18.6692   28.5479 O   0  0  0  0  0  0  0  0  0  0  0  0
    6.9143  -18.0369   26.2851 C   0  0  0  0  0  0  0  0  0  0  0  0
    8.0089  -18.1492   25.2864 C   0  0  0  0  0  0  0  0  0  0  0  0
    7.6110  -17.6111   23.9436 C   0  0  2  0  0  0  0  0  0  0  0  0
    6.5817  -18.4888   23.3510 N   0  0  0  0  0  0  0  0  0  0  0  0
    8.7371  -17.5081   23.0127 C   0  0  0  0  0  0  0  0  0  0  0  0
    9.2123  -18.5264   22.4637 O   0  0  0  0  0  0  0  0  0  0  0  0
   11.5539  -14.6262   20.3923 O   0  0  0  0  0  0  0  0  0  0  0  0
   10.4686  -14.7674   21.2395 C   0  0  0  0  0  0  0  0  0  0  0  0
   10.4389  -16.1710   21.8407 C   0  0  2  0  0  0  0  0  0  0  0  0
    9.3005  -16.2167   22.7293 N   0  0  0  0  0  0  0  0  0  0  0  0
   11.7110  -16.3394   22.5927 C   0  0  0  0  0  0  0  0  0  0  0  0
   12.8065  -16.3875   21.9986 O   0  0  0  0  0  0  0  0  0  0  0  0
   11.6384  -16.4410   23.9745 O   0  0  0  0  0  0  0  0  0  0  0  0
  1  2  1  0
  2  4  1  0
  3  2  2  0
  4  5  1  0
  5  7  1  0
  5  6  1  1
  7  8  2  0
  9 10  1  0
 10 11  2  0
 10 12  1  0
 12 13  1  0
 14 13  1  1
 14 16  1  0
 15 14  1  0
 15  7  1  0
 16 17  2  0
 18 19  1  0
 20 19  1  1
 20 22  1  0
 21 20  1  0
 21 16  1  0
 22 23  2  0
 22 24  1  0
M  END
$$$$
