NQS.pdb
     RDKit          3D

 24 23  0  0  1  0  0  0  0  0999 V2000
    9.8934  -16.8826   17.2715 N   0  0  0  0  0  0  0  0  0  0  0  0
   10.4052  -16.8996   18.5946 C   0  0  0  0  0  0  0  0  0  0  0  0
   11.6339  -16.8983   18.7669 O   0  0  0  0  0  0  0  0  0  0  0  0
    9.4398  -16.9183   19.7221 C   0  0  0  0  0  0  0  0  0  0  0  0
   10.1981  -17.3749   20.9513 C   0  0  2  0  0  0  0  0  0  0  0  0
   10.4046  -18.8027   20.7876 N   0  0  0  0  0  0  0  0  0  0  0  0
    9.4346  -17.1148   22.2026 C   0  0  0  0  0  0  0  0  0  0  0  0
    8.2257  -17.4782   22.3161 O   0  0  0  0  0  0  0  0  0  0  0  0
   12.0761  -18.4949   27.1360 N   0  0  0  0  0  0  0  0  0  0  0  0
   10.7693  -18.9831   26.9723 C   0  0  0  0  0  0  0  0  0  0  0  0
   10.3250  -19.9092   27.6855 O   0  0  0  0  0  0  0  0  0  0  0  0
    9.8644  -18.3870   25.9139 C   0  0  0  0  0  0  0  0  0  0  0  0
   10.2824  -16.9932   25.6125 C   0  0  0  0  0  0  0  0  0  0  0  0
    9.4203  -16.3553   24.5632 C   0  0  2  0  0  0  0  0  0  0  0  0
   10.0915  -16.4564   23.2517 N   0  0  0  0  0  0  0  0  0  0  0  0
    9.1325  -14.9460   24.8394 C   0  0  0  0  0  0  0  0  0  0  0  0
   10.0057  -14.0667   24.6702 O   0  0  0  0  0  0  0  0  0  0  0  0
    5.4003  -13.9092   26.1877 O   0  0  0  0  0  0  0  0  0  0  0  0
    6.1169  -12.9261   25.5278 C   0  0  0  0  0  0  0  0  0  0  0  0
    7.6172  -13.1846   25.6509 C   0  0  2  0  0  0  0  0  0  0  0  0
    7.8273  -14.5731   25.3110 N   0  0  0  0  0  0  0  0  0  0  0  0
    7.9800  -12.9205   27.0688 C   0  0  0  0  0  0  0  0  0  0  0  0
    8.3516  -13.8447   27.8193 O   0  0  0  0  0  0  0  0  0  0  0  0
    7.8915  -11.6142   27.5279 O   0  0  0  0  0  0  0  0  0  0  0  0
  1  2  1  0
  2  4  1  0
  3  2  2  0
  4  5  1  0
  5  7  1  0
  5  6  1  6
  7  8  2  0
  9 10  1  0
 10 11  2  0
 10 12  1  0
 12 13  1  0
 14 13  1  1
 14 16  1  0
 15 14  1  0
 15  7  1  0
 16 17  2  0
 18 19  1  0
 20 19  1  1
 20 22  1  0
 21 20  1  0
 21 16  1  0
 22 23  2  0
 22 24  1  0
M  END
$$$$
