NQS.pdb
     RDKit          3D

 24 23  0  0  1  0  0  0  0  0999 V2000
   13.7052  -19.4003   16.7983 N   0  0  0  0  0  0  0  0  0  0  0  0
   14.0600  -19.8549   18.0946 C   0  0  0  0  0  0  0  0  0  0  0  0
   14.3265  -19.0220   18.9746 O   0  0  0  0  0  0  0  0  0  0  0  0
   14.0966  -21.3182   18.3413 C   0  0  0  0  0  0  0  0  0  0  0  0
   12.7873  -21.6917   19.0051 C   0  0  2  0  0  0  0  0  0  0  0  0
   11.7405  -21.2792   18.0875 N   0  0  0  0  0  0  0  0  0  0  0  0
   12.6125  -21.0036   20.3137 C   0  0  0  0  0  0  0  0  0  0  0  0
   11.7292  -20.1075   20.4660 O   0  0  0  0  0  0  0  0  0  0  0  0
   14.4810  -23.1021   26.1116 N   0  0  0  0  0  0  0  0  0  0  0  0
   14.5620  -21.6998   26.1200 C   0  0  0  0  0  0  0  0  0  0  0  0
   15.2523  -21.0915   26.9668 O   0  0  0  0  0  0  0  0  0  0  0  0
   13.8035  -20.8905   25.0884 C   0  0  0  0  0  0  0  0  0  0  0  0
   13.9838  -21.4874   23.7396 C   0  0  0  0  0  0  0  0  0  0  0  0
   13.3286  -20.6713   22.6644 C   0  0  2  0  0  0  0  0  0  0  0  0
   13.4529  -21.3755   21.3724 N   0  0  0  0  0  0  0  0  0  0  0  0
   13.9074  -19.3325   22.5305 C   0  0  0  0  0  0  0  0  0  0  0  0
   14.9541  -19.1479   21.8713 O   0  0  0  0  0  0  0  0  0  0  0  0
   12.0114  -16.1632   24.3169 O   0  0  0  0  0  0  0  0  0  0  0  0
   12.6782  -15.9066   23.1316 C   0  0  0  0  0  0  0  0  0  0  0  0
   13.8158  -16.9059   22.9312 C   0  0  2  0  0  0  0  0  0  0  0  0
   13.2600  -18.2186   23.1671 N   0  0  0  0  0  0  0  0  0  0  0  0
   14.8556  -16.5761   23.9421 C   0  0  0  0  0  0  0  0  0  0  0  0
   15.4769  -15.4958   23.8952 O   0  0  0  0  0  0  0  0  0  0  0  0
   15.1109  -17.5086   24.9372 O   0  0  0  0  0  0  0  0  0  0  0  0
  1  2  1  0
  2  4  1  0
  3  2  2  0
  4  5  1  0
  5  7  1  0
  5  6  1  6
  7  8  2  0
  9 10  1  0
 10 11  2  0
 10 12  1  0
 12 13  1  0
 14 13  1  1
 14 16  1  0
 15 14  1  0
 15  7  1  0
 16 17  2  0
 18 19  1  0
 20 19  1  1
 20 22  1  0
 21 20  1  0
 21 16  1  0
 22 23  2  0
 22 24  1  0
M  END
$$$$
