NQS.pdb
     RDKit          3D

 24 23  0  0  1  0  0  0  0  0999 V2000
    7.6801  -12.1658   17.5507 N   0  0  0  0  0  0  0  0  0  0  0  0
    7.7948  -13.5797   17.5302 C   0  0  0  0  0  0  0  0  0  0  0  0
    8.1951  -14.1381   16.4970 O   0  0  0  0  0  0  0  0  0  0  0  0
    7.4279  -14.3331   18.7553 C   0  0  0  0  0  0  0  0  0  0  0  0
    8.4996  -14.0540   19.7887 C   0  0  2  0  0  0  0  0  0  0  0  0
    9.7695  -14.2482   19.1120 N   0  0  0  0  0  0  0  0  0  0  0  0
    8.4013  -14.9761   20.9533 C   0  0  0  0  0  0  0  0  0  0  0  0
    7.3161  -15.1011   21.5960 O   0  0  0  0  0  0  0  0  0  0  0  0
   10.1102  -21.3595   22.7949 N   0  0  0  0  0  0  0  0  0  0  0  0
    9.7294  -20.0538   23.1456 C   0  0  0  0  0  0  0  0  0  0  0  0
    9.6571  -19.6944   24.3411 O   0  0  0  0  0  0  0  0  0  0  0  0
    9.3955  -19.0457   22.0655 C   0  0  0  0  0  0  0  0  0  0  0  0
   10.2633  -17.8471   22.2014 C   0  0  0  0  0  0  0  0  0  0  0  0
    9.4744  -16.6032   22.4865 C   0  0  2  0  0  0  0  0  0  0  0  0
    9.5436  -15.7023   21.3184 N   0  0  0  0  0  0  0  0  0  0  0  0
    9.9520  -15.8819   23.6684 C   0  0  0  0  0  0  0  0  0  0  0  0
   10.9781  -15.1688   23.6150 O   0  0  0  0  0  0  0  0  0  0  0  0
    8.9706  -13.4895   27.4939 O   0  0  0  0  0  0  0  0  0  0  0  0
    8.6144  -14.2282   26.3791 C   0  0  0  0  0  0  0  0  0  0  0  0
    9.7114  -15.2318   26.0300 C   0  0  2  0  0  0  0  0  0  0  0  0
    9.2282  -15.9983   24.9045 N   0  0  0  0  0  0  0  0  0  0  0  0
    9.8944  -16.0962   27.2263 C   0  0  0  0  0  0  0  0  0  0  0  0
    9.5031  -17.2804   27.2288 O   0  0  0  0  0  0  0  0  0  0  0  0
   10.5139  -15.5424   28.3374 O   0  0  0  0  0  0  0  0  0  0  0  0
  1  2  1  0
  2  4  1  0
  3  2  2  0
  4  5  1  0
  5  7  1  0
  5  6  1  6
  7  8  2  0
  9 10  1  0
 10 11  2  0
 10 12  1  0
 12 13  1  0
 14 13  1  6
 14 16  1  0
 15 14  1  0
 15  7  1  0
 16 17  2  0
 18 19  1  0
 20 19  1  1
 20 22  1  0
 21 20  1  0
 21 16  1  0
 22 23  2  0
 22 24  1  0
M  END
$$$$
