NQS.pdb
     RDKit          3D

 24 23  0  0  1  0  0  0  0  0999 V2000
    7.5454  -12.6878   17.5173 N   0  0  0  0  0  0  0  0  0  0  0  0
    8.2875  -13.5048   18.4087 C   0  0  0  0  0  0  0  0  0  0  0  0
    9.3152  -14.0666   17.9991 O   0  0  0  0  0  0  0  0  0  0  0  0
    7.7971  -13.6519   19.8020 C   0  0  0  0  0  0  0  0  0  0  0  0
    8.1146  -15.0667   20.2399 C   0  0  2  0  0  0  0  0  0  0  0  0
    7.2410  -15.9312   19.4669 N   0  0  0  0  0  0  0  0  0  0  0  0
    7.8657  -15.2666   21.6940 C   0  0  0  0  0  0  0  0  0  0  0  0
    6.6891  -15.2367   22.1641 O   0  0  0  0  0  0  0  0  0  0  0  0
   11.6677  -18.7372   24.9863 N   0  0  0  0  0  0  0  0  0  0  0  0
   10.6559  -19.1519   24.1048 C   0  0  0  0  0  0  0  0  0  0  0  0
   10.5918  -20.3313   23.6941 O   0  0  0  0  0  0  0  0  0  0  0  0
    9.6113  -18.1628   23.6306 C   0  0  0  0  0  0  0  0  0  0  0  0
    9.7610  -16.8758   24.3582 C   0  0  0  0  0  0  0  0  0  0  0  0
    8.7375  -15.8625   23.9377 C   0  0  2  0  0  0  0  0  0  0  0  0
    8.9704  -15.4887   22.5282 N   0  0  0  0  0  0  0  0  0  0  0  0
    8.7633  -14.6498   24.7586 C   0  0  0  0  0  0  0  0  0  0  0  0
    9.7648  -13.9008   24.7674 O   0  0  0  0  0  0  0  0  0  0  0  0
    5.4121  -13.5564   26.9197 O   0  0  0  0  0  0  0  0  0  0  0  0
    6.2878  -12.5737   26.4923 C   0  0  0  0  0  0  0  0  0  0  0  0
    7.7051  -13.1320   26.3816 C   0  0  2  0  0  0  0  0  0  0  0  0
    7.6193  -14.3199   25.5636 N   0  0  0  0  0  0  0  0  0  0  0  0
    8.1408  -13.4653   27.7640 C   0  0  0  0  0  0  0  0  0  0  0  0
    8.3770  -14.6439   28.0962 O   0  0  0  0  0  0  0  0  0  0  0  0
    8.2754  -12.4232   28.6700 O   0  0  0  0  0  0  0  0  0  0  0  0
  1  2  1  0
  2  4  1  0
  3  2  2  0
  4  5  1  0
  5  7  1  0
  5  6  1  6
  7  8  2  0
  9 10  1  0
 10 11  2  0
 10 12  1  0
 12 13  1  0
 14 13  1  1
 14 16  1  0
 15 14  1  0
 15  7  1  0
 16 17  2  0
 18 19  1  0
 20 19  1  1
 20 22  1  0
 21 20  1  0
 21 16  1  0
 22 23  2  0
 22 24  1  0
M  END
$$$$
