NQS.pdb
     RDKit          3D

 24 23  0  0  1  0  0  0  0  0999 V2000
   10.8290  -19.0181   13.2318 N   0  0  0  0  0  0  0  0  0  0  0  0
    9.5773  -18.8657   13.8820 C   0  0  0  0  0  0  0  0  0  0  0  0
    8.8803  -17.8720   13.6250 O   0  0  0  0  0  0  0  0  0  0  0  0
    9.1546  -19.9105   14.8480 C   0  0  0  0  0  0  0  0  0  0  0  0
   10.2645  -20.9396   14.9065 C   0  0  2  0  0  0  0  0  0  0  0  0
   10.0720  -21.8028   13.7550 N   0  0  0  0  0  0  0  0  0  0  0  0
   10.2089  -21.7453   16.1571 C   0  0  0  0  0  0  0  0  0  0  0  0
    9.3754  -22.6913   16.2866 O   0  0  0  0  0  0  0  0  0  0  0  0
   14.9359  -22.8255   20.6245 N   0  0  0  0  0  0  0  0  0  0  0  0
   14.6596  -21.7525   19.7613 C   0  0  0  0  0  0  0  0  0  0  0  0
   15.5764  -21.0624   19.2643 O   0  0  0  0  0  0  0  0  0  0  0  0
   13.2258  -21.4091   19.4136 C   0  0  0  0  0  0  0  0  0  0  0  0
   12.5704  -22.5676   18.7530 C   0  0  0  0  0  0  0  0  0  0  0  0
   11.1426  -22.2826   18.3907 C   0  0  2  0  0  0  0  0  0  0  0  0
   11.1051  -21.4275   17.1873 N   0  0  0  0  0  0  0  0  0  0  0  0
   10.4020  -21.6182   19.4657 C   0  0  0  0  0  0  0  0  0  0  0  0
   10.2885  -20.3730   19.4936 O   0  0  0  0  0  0  0  0  0  0  0  0
    6.8482  -21.7132   22.4672 O   0  0  0  0  0  0  0  0  0  0  0  0
    7.6249  -22.2765   21.4698 C   0  0  0  0  0  0  0  0  0  0  0  0
    9.0445  -21.7149   21.5164 C   0  0  2  0  0  0  0  0  0  0  0  0
    9.7990  -22.4124   20.5006 N   0  0  0  0  0  0  0  0  0  0  0  0
    9.5752  -22.0105   22.8739 C   0  0  0  0  0  0  0  0  0  0  0  0
    8.9666  -21.6373   23.8965 O   0  0  0  0  0  0  0  0  0  0  0  0
   10.7676  -22.7140   22.9646 O   0  0  0  0  0  0  0  0  0  0  0  0
  1  2  1  0
  2  4  1  0
  3  2  2  0
  4  5  1  0
  5  7  1  0
  5  6  1  6
  7  8  2  0
  9 10  1  0
 10 11  2  0
 10 12  1  0
 12 13  1  0
 14 13  1  1
 14 16  1  0
 15 14  1  0
 15  7  1  0
 16 17  2  0
 18 19  1  0
 20 19  1  1
 20 22  1  0
 21 20  1  0
 21 16  1  0
 22 23  2  0
 22 24  1  0
M  END
$$$$
