NQS.pdb
     RDKit          3D

 24 23  0  0  1  0  0  0  0  0999 V2000
   17.1959  -14.4740   18.7558 N   0  0  0  0  0  0  0  0  0  0  0  0
   16.1096  -13.9163   18.0335 C   0  0  0  0  0  0  0  0  0  0  0  0
   16.3424  -13.2395   17.0200 O   0  0  0  0  0  0  0  0  0  0  0  0
   14.7327  -14.1697   18.5267 C   0  0  0  0  0  0  0  0  0  0  0  0
   14.4536  -15.6457   18.3323 C   0  0  2  0  0  0  0  0  0  0  0  0
   14.2471  -15.8305   16.9071 N   0  0  0  0  0  0  0  0  0  0  0  0
   13.2431  -16.0847   19.0795 C   0  0  0  0  0  0  0  0  0  0  0  0
   12.0925  -16.0213   18.5516 O   0  0  0  0  0  0  0  0  0  0  0  0
   13.2002  -21.1930   22.1296 N   0  0  0  0  0  0  0  0  0  0  0  0
   11.9073  -20.7394   22.4389 C   0  0  0  0  0  0  0  0  0  0  0  0
   11.0595  -21.4940   22.9639 O   0  0  0  0  0  0  0  0  0  0  0  0
   11.5138  -19.3082   22.1371 C   0  0  0  0  0  0  0  0  0  0  0  0
   12.6062  -18.6246   21.3972 C   0  0  0  0  0  0  0  0  0  0  0  0
   12.2650  -17.2017   21.0658 C   0  0  2  0  0  0  0  0  0  0  0  0
   13.4125  -16.5701   20.3838 N   0  0  0  0  0  0  0  0  0  0  0  0
   11.9211  -16.4065   22.2468 C   0  0  0  0  0  0  0  0  0  0  0  0
   12.8075  -16.0106   23.0353 O   0  0  0  0  0  0  0  0  0  0  0  0
    8.3590  -14.4722   24.8882 O   0  0  0  0  0  0  0  0  0  0  0  0
    8.7451  -15.0941   23.7137 C   0  0  0  0  0  0  0  0  0  0  0  0
   10.2415  -15.3988   23.7370 C   0  0  2  0  0  0  0  0  0  0  0  0
   10.5447  -16.0791   22.4989 N   0  0  0  0  0  0  0  0  0  0  0  0
   10.4773  -16.2868   24.9065 C   0  0  0  0  0  0  0  0  0  0  0  0
   10.4921  -17.5272   24.7782 O   0  0  0  0  0  0  0  0  0  0  0  0
   10.6798  -15.6903   26.1427 O   0  0  0  0  0  0  0  0  0  0  0  0
  1  2  1  0
  2  4  1  0
  3  2  2  0
  4  5  1  0
  5  7  1  0
  5  6  1  6
  7  8  2  0
  9 10  1  0
 10 11  2  0
 10 12  1  0
 12 13  1  0
 14 13  1  1
 14 16  1  0
 15 14  1  0
 15  7  1  0
 16 17  2  0
 18 19  1  0
 20 19  1  6
 20 22  1  0
 21 20  1  0
 21 16  1  0
 22 23  2  0
 22 24  1  0
M  END
$$$$
