NQS.pdb
     RDKit          3D

 24 23  0  0  1  0  0  0  0  0999 V2000
   13.7121  -14.6440   12.9103 N   0  0  0  0  0  0  0  0  0  0  0  0
   14.0575  -15.0979   14.2094 C   0  0  0  0  0  0  0  0  0  0  0  0
   15.2552  -15.1701   14.5251 O   0  0  0  0  0  0  0  0  0  0  0  0
   12.9617  -15.4688   15.1394 C   0  0  0  0  0  0  0  0  0  0  0  0
   13.1561  -16.9273   15.4990 C   0  0  2  0  0  0  0  0  0  0  0  0
   12.7545  -17.6860   14.3281 N   0  0  0  0  0  0  0  0  0  0  0  0
   12.3258  -17.3259   16.6687 C   0  0  0  0  0  0  0  0  0  0  0  0
   11.0651  -17.4145   16.5733 O   0  0  0  0  0  0  0  0  0  0  0  0
   13.4800  -21.6759   21.0914 N   0  0  0  0  0  0  0  0  0  0  0  0
   14.2744  -20.9984   20.1518 C   0  0  0  0  0  0  0  0  0  0  0  0
   15.2436  -21.5573   19.5932 O   0  0  0  0  0  0  0  0  0  0  0  0
   13.9653  -19.5590   19.7951 C   0  0  0  0  0  0  0  0  0  0  0  0
   12.5338  -19.4232   19.4204 C   0  0  0  0  0  0  0  0  0  0  0  0
   12.1751  -18.0153   19.0460 C   0  0  2  0  0  0  0  0  0  0  0  0
   12.9788  -17.6003   17.8787 N   0  0  0  0  0  0  0  0  0  0  0  0
   12.3954  -17.0606   20.1348 C   0  0  0  0  0  0  0  0  0  0  0  0
   13.4924  -16.4739   20.2629 O   0  0  0  0  0  0  0  0  0  0  0  0
    9.3258  -16.2793   22.7307 O   0  0  0  0  0  0  0  0  0  0  0  0
   10.2795  -15.2876   22.5811 C   0  0  0  0  0  0  0  0  0  0  0  0
   11.6163  -15.8914   22.1555 C   0  0  2  0  0  0  0  0  0  0  0  0
   11.3332  -16.7977   21.0664 N   0  0  0  0  0  0  0  0  0  0  0  0
   12.1480  -16.6236   23.3358 C   0  0  0  0  0  0  0  0  0  0  0  0
   12.1042  -17.8687   23.3922 O   0  0  0  0  0  0  0  0  0  0  0  0
   12.6934  -15.8768   24.3701 O   0  0  0  0  0  0  0  0  0  0  0  0
  1  2  1  0
  2  4  1  0
  3  2  2  0
  4  5  1  0
  5  7  1  0
  5  6  1  6
  7  8  2  0
  9 10  1  0
 10 11  2  0
 10 12  1  0
 12 13  1  0
 14 13  1  1
 14 16  1  0
 15 14  1  0
 15  7  1  0
 16 17  2  0
 18 19  1  0
 20 19  1  1
 20 22  1  0
 21 20  1  0
 21 16  1  0
 22 23  2  0
 22 24  1  0
M  END
$$$$
