NQS.pdb
     RDKit          3D

 24 23  0  0  1  0  0  0  0  0999 V2000
    6.6434  -12.9278   16.5921 N   0  0  0  0  0  0  0  0  0  0  0  0
    7.2868  -13.8959   15.7788 C   0  0  0  0  0  0  0  0  0  0  0  0
    6.9450  -14.0106   14.5916 O   0  0  0  0  0  0  0  0  0  0  0  0
    8.3484  -14.7345   16.3897 C   0  0  0  0  0  0  0  0  0  0  0  0
    8.3923  -14.3943   17.8650 C   0  0  2  0  0  0  0  0  0  0  0  0
    8.7471  -12.9884   17.9419 N   0  0  0  0  0  0  0  0  0  0  0  0
    9.4019  -15.2109   18.5931 C   0  0  0  0  0  0  0  0  0  0  0  0
    9.3484  -16.4772   18.5799 O   0  0  0  0  0  0  0  0  0  0  0  0
   15.2772  -13.7482   18.8460 N   0  0  0  0  0  0  0  0  0  0  0  0
   15.2654  -14.7593   19.8208 C   0  0  0  0  0  0  0  0  0  0  0  0
   16.3191  -15.1470   20.3713 O   0  0  0  0  0  0  0  0  0  0  0  0
   13.9569  -15.4057   20.2267 C   0  0  0  0  0  0  0  0  0  0  0  0
   12.8164  -14.6724   19.6189 C   0  0  0  0  0  0  0  0  0  0  0  0
   11.4985  -15.3267   19.9123 C   0  0  2  0  0  0  0  0  0  0  0  0
   10.4134  -14.5389   19.2936 N   0  0  0  0  0  0  0  0  0  0  0  0
   11.2309  -15.4546   21.3467 C   0  0  0  0  0  0  0  0  0  0  0  0
   11.2540  -14.4539   22.0965 O   0  0  0  0  0  0  0  0  0  0  0  0
    8.6825  -17.9033   23.1107 O   0  0  0  0  0  0  0  0  0  0  0  0
    9.9589  -18.0788   23.6161 C   0  0  0  0  0  0  0  0  0  0  0  0
   10.8200  -16.8498   23.3321 C   0  0  2  0  0  0  0  0  0  0  0  0
   10.9380  -16.7501   21.8956 N   0  0  0  0  0  0  0  0  0  0  0  0
   12.1438  -17.1026   23.9610 C   0  0  0  0  0  0  0  0  0  0  0  0
   13.1711  -17.2305   23.2655 O   0  0  0  0  0  0  0  0  0  0  0  0
   12.1977  -17.1914   25.3445 O   0  0  0  0  0  0  0  0  0  0  0  0
  1  2  1  0
  2  4  1  0
  3  2  2  0
  4  5  1  0
  5  7  1  0
  5  6  1  6
  7  8  2  0
  9 10  1  0
 10 11  2  0
 10 12  1  0
 12 13  1  0
 14 13  1  1
 14 16  1  0
 15 14  1  0
 15  7  1  0
 16 17  2  0
 18 19  1  0
 20 19  1  6
 20 22  1  0
 21 20  1  0
 21 16  1  0
 22 23  2  0
 22 24  1  0
M  END
$$$$
