EER.pdb
     RDKit          3D

 30 29  0  0  1  0  0  0  0  0999 V2000
   10.8676  -15.3740   17.2507 N   0  0  0  0  0  0  0  0  0  0  0  0
   11.6554  -15.9943   18.2908 C   0  0  1  0  0  0  0  0  0  0  0  0
   12.6936  -14.9610   18.7978 C   0  0  0  0  0  0  0  0  0  0  0  0
   13.7355  -14.7494   17.7167 C   0  0  0  0  0  0  0  0  0  0  0  0
   14.7465  -13.7866   18.2065 C   0  0  0  0  0  0  0  0  0  0  0  0
   15.7836  -13.5614   17.4995 O   0  0  0  0  0  0  0  0  0  0  0  0
   10.8880  -16.5369   19.4130 C   0  0  0  0  0  0  0  0  0  0  0  0
    9.7402  -16.0660   19.6499 O   0  0  0  0  0  0  0  0  0  0  0  0
   14.6655  -13.0865   19.3992 O   0  0  0  0  0  0  0  0  0  0  0  0
   11.2742  -17.5621   20.3022 N   0  0  0  0  0  0  0  0  0  0  0  0
   10.5148  -18.0901   21.3805 C   0  0  1  0  0  0  0  0  0  0  0  0
   10.7546  -19.4865   21.7927 C   0  0  0  0  0  0  0  0  0  0  0  0
   10.0138  -20.4229   20.8395 C   0  0  0  0  0  0  0  0  0  0  0  0
   10.7869  -21.6351   20.5330 C   0  0  0  0  0  0  0  0  0  0  0  0
   10.6860  -22.6490   21.2527 O   0  0  0  0  0  0  0  0  0  0  0  0
   10.6421  -17.1968   22.5503 C   0  0  0  0  0  0  0  0  0  0  0  0
   11.7804  -16.6499   22.7747 O   0  0  0  0  0  0  0  0  0  0  0  0
   11.6412  -21.6820   19.4448 O   0  0  0  0  0  0  0  0  0  0  0  0
    4.7304  -12.0569   26.8663 N   0  0  0  0  0  0  0  0  0  0  0  0
    6.0129  -11.5254   26.5928 C   0  0  0  0  0  0  0  0  0  0  0  0
    6.2388  -10.2620   26.5955 N   0  0  0  0  0  0  0  0  0  0  0  0
    7.1229  -12.3829   26.2984 N   0  0  0  0  0  0  0  0  0  0  0  0
    6.9610  -13.8230   26.1660 C   0  0  0  0  0  0  0  0  0  0  0  0
    8.3298  -14.4165   25.9637 C   0  0  0  0  0  0  0  0  0  0  0  0
    8.4121  -15.3704   24.8284 C   0  0  0  0  0  0  0  0  0  0  0  0
    9.7973  -15.9508   24.5910 C   0  0  2  0  0  0  0  0  0  0  0  0
    9.6082  -16.8834   23.4612 N   0  0  0  0  0  0  0  0  0  0  0  0
   10.1811  -16.7500   25.7641 C   0  0  0  0  0  0  0  0  0  0  0  0
   10.5103  -16.1589   26.8310 O   0  0  0  0  0  0  0  0  0  0  0  0
   10.2143  -18.1280   25.7991 O   0  0  0  0  0  0  0  0  0  0  0  0
  2  1  1  6
  2  3  1  0
  4  3  1  0
  4  5  1  0
  5  6  2  0
  7  2  1  0
  8  7  2  0
  9  5  1  0
 10  7  1  0
 11 10  1  0
 12 13  1  0
 11 12  1  1
 13 14  1  0
 14 18  1  0
 14 15  2  0
 16 11  1  0
 16 17  2  0
 20 19  1  0
 21 20  2  0
 22 20  1  0
 23 22  1  0
 24 23  1  0
 25 24  1  0
 26 25  1  1
 26 27  1  0
 27 16  1  0
 28 26  1  0
 29 28  2  0
 30 28  1  0
M  END
$$$$
