EER.pdb
     RDKit          3D

 30 29  0  0  1  0  0  0  0  0999 V2000
   13.6689  -18.8635   18.3718 N   0  0  0  0  0  0  0  0  0  0  0  0
   13.8898  -19.8107   19.4402 C   0  0  1  0  0  0  0  0  0  0  0  0
   15.3901  -19.7675   19.8274 C   0  0  0  0  0  0  0  0  0  0  0  0
   16.0588  -18.6474   19.0545 C   0  0  0  0  0  0  0  0  0  0  0  0
   17.4718  -18.5470   19.4813 C   0  0  0  0  0  0  0  0  0  0  0  0
   18.3794  -18.4061   18.5967 O   0  0  0  0  0  0  0  0  0  0  0  0
   13.0528  -19.6182   20.6255 C   0  0  0  0  0  0  0  0  0  0  0  0
   12.6678  -18.4508   20.9159 O   0  0  0  0  0  0  0  0  0  0  0  0
   17.9110  -18.5932   20.7945 O   0  0  0  0  0  0  0  0  0  0  0  0
   12.5961  -20.6053   21.5243 N   0  0  0  0  0  0  0  0  0  0  0  0
   11.7085  -20.4211   22.6182 C   0  0  1  0  0  0  0  0  0  0  0  0
   10.8561  -21.5527   23.0308 C   0  0  0  0  0  0  0  0  0  0  0  0
    9.9410  -21.1003   24.1674 C   0  0  0  0  0  0  0  0  0  0  0  0
    9.0816  -22.1866   24.6598 C   0  0  0  0  0  0  0  0  0  0  0  0
    8.9990  -22.4240   25.8816 O   0  0  0  0  0  0  0  0  0  0  0  0
   12.4665  -19.9184   23.7822 C   0  0  0  0  0  0  0  0  0  0  0  0
   11.9351  -18.9980   24.5005 O   0  0  0  0  0  0  0  0  0  0  0  0
    8.3467  -22.9688   23.7856 O   0  0  0  0  0  0  0  0  0  0  0  0
   12.4988  -21.9864   31.5700 N   0  0  0  0  0  0  0  0  0  0  0  0
   13.6017  -21.1021   31.5096 C   0  0  0  0  0  0  0  0  0  0  0  0
   14.2060  -20.6976   32.5672 N   0  0  0  0  0  0  0  0  0  0  0  0
   14.0943  -20.6166   30.2544 N   0  0  0  0  0  0  0  0  0  0  0  0
   13.3560  -20.8152   29.0162 C   0  0  0  0  0  0  0  0  0  0  0  0
   14.2267  -20.3330   27.8866 C   0  0  0  0  0  0  0  0  0  0  0  0
   13.6196  -20.5027   26.5419 C   0  0  0  0  0  0  0  0  0  0  0  0
   14.4124  -19.8727   25.4076 C   0  0  2  0  0  0  0  0  0  0  0  0
   13.7452  -20.3650   24.1852 N   0  0  0  0  0  0  0  0  0  0  0  0
   15.7748  -20.4257   25.4205 C   0  0  0  0  0  0  0  0  0  0  0  0
   16.6717  -19.8380   26.0886 O   0  0  0  0  0  0  0  0  0  0  0  0
   16.1678  -21.5621   24.7458 O   0  0  0  0  0  0  0  0  0  0  0  0
  2  1  1  6
  2  3  1  0
  4  3  1  0
  4  5  1  0
  5  6  2  0
  7  2  1  0
  8  7  2  0
  9  5  1  0
 10  7  1  0
 11 10  1  0
 12 13  1  0
 11 12  1  1
 13 14  1  0
 14 18  1  0
 14 15  2  0
 16 11  1  0
 16 17  2  0
 20 19  1  0
 21 20  2  0
 22 20  1  0
 23 22  1  0
 24 23  1  0
 25 24  1  0
 26 25  1  1
 26 27  1  0
 27 16  1  0
 28 26  1  0
 29 28  2  0
 30 28  1  0
M  END
$$$$
