EER.pdb
     RDKit          3D

 30 29  0  0  1  0  0  0  0  0999 V2000
    9.2183  -13.5585   17.7581 N   0  0  0  0  0  0  0  0  0  0  0  0
    9.9938  -14.7685   17.9058 C   0  0  1  0  0  0  0  0  0  0  0  0
   11.4948  -14.3837   17.9455 C   0  0  0  0  0  0  0  0  0  0  0  0
   11.8344  -13.8973   19.3409 C   0  0  0  0  0  0  0  0  0  0  0  0
   13.2394  -13.4341   19.3588 C   0  0  0  0  0  0  0  0  0  0  0  0
   13.5837  -12.4651   18.6048 O   0  0  0  0  0  0  0  0  0  0  0  0
    9.6487  -15.5911   19.0664 C   0  0  0  0  0  0  0  0  0  0  0  0
    8.9427  -15.0847   19.9832 O   0  0  0  0  0  0  0  0  0  0  0  0
   14.2446  -13.9740   20.1446 O   0  0  0  0  0  0  0  0  0  0  0  0
   10.0122  -16.9330   19.3070 N   0  0  0  0  0  0  0  0  0  0  0  0
    9.7191  -17.7043   20.4636 C   0  0  1  0  0  0  0  0  0  0  0  0
   10.2272  -19.0878   20.5339 C   0  0  0  0  0  0  0  0  0  0  0  0
    9.6528  -19.7684   21.7753 C   0  0  0  0  0  0  0  0  0  0  0  0
   10.1588  -21.1379   21.9470 C   0  0  0  0  0  0  0  0  0  0  0  0
    9.3680  -22.0899   22.1034 O   0  0  0  0  0  0  0  0  0  0  0  0
   10.1392  -16.9578   21.6671 C   0  0  0  0  0  0  0  0  0  0  0  0
   11.3085  -16.4304   21.6764 O   0  0  0  0  0  0  0  0  0  0  0  0
   11.5171  -21.4044   21.9393 O   0  0  0  0  0  0  0  0  0  0  0  0
    6.7647  -10.6255   28.2070 N   0  0  0  0  0  0  0  0  0  0  0  0
    6.4674  -11.6523   27.2800 C   0  0  0  0  0  0  0  0  0  0  0  0
    5.2682  -11.8850   26.8863 N   0  0  0  0  0  0  0  0  0  0  0  0
    7.5017  -12.4830   26.7375 N   0  0  0  0  0  0  0  0  0  0  0  0
    7.2374  -13.4264   25.6614 C   0  0  0  0  0  0  0  0  0  0  0  0
    8.5364  -14.1111   25.3294 C   0  0  0  0  0  0  0  0  0  0  0  0
    8.4333  -15.0971   24.2236 C   0  0  0  0  0  0  0  0  0  0  0  0
    9.7335  -15.8129   23.8932 C   0  0  2  0  0  0  0  0  0  0  0  0
    9.3590  -16.7673   22.8299 N   0  0  0  0  0  0  0  0  0  0  0  0
   10.1505  -16.5979   25.0646 C   0  0  0  0  0  0  0  0  0  0  0  0
   10.7657  -16.0210   26.0052 O   0  0  0  0  0  0  0  0  0  0  0  0
    9.9216  -17.9478   25.2276 O   0  0  0  0  0  0  0  0  0  0  0  0
  2  1  1  1
  2  3  1  0
  4  3  1  0
  4  5  1  0
  5  6  2  0
  7  2  1  0
  8  7  2  0
  9  5  1  0
 10  7  1  0
 11 10  1  0
 12 13  1  0
 11 12  1  6
 13 14  1  0
 14 18  1  0
 14 15  2  0
 16 11  1  0
 16 17  2  0
 20 19  1  0
 21 20  2  0
 22 20  1  0
 23 22  1  0
 24 23  1  0
 25 24  1  0
 26 25  1  1
 26 27  1  0
 27 16  1  0
 28 26  1  0
 29 28  2  0
 30 28  1  0
M  END
$$$$
