EER.pdb
     RDKit          3D

 30 29  0  0  1  0  0  0  0  0999 V2000
   13.3795  -13.8842   16.9700 N   0  0  0  0  0  0  0  0  0  0  0  0
   13.7733  -14.9638   17.8456 C   0  0  1  0  0  0  0  0  0  0  0  0
   15.0822  -14.5532   18.5674 C   0  0  0  0  0  0  0  0  0  0  0  0
   16.1350  -14.2394   17.5222 C   0  0  0  0  0  0  0  0  0  0  0  0
   17.3827  -13.8325   18.2050 C   0  0  0  0  0  0  0  0  0  0  0  0
   17.3620  -12.8275   18.9897 O   0  0  0  0  0  0  0  0  0  0  0  0
   12.7620  -15.3747   18.8208 C   0  0  0  0  0  0  0  0  0  0  0  0
   12.3118  -14.5155   19.6298 O   0  0  0  0  0  0  0  0  0  0  0  0
   18.6080  -14.4638   18.0651 O   0  0  0  0  0  0  0  0  0  0  0  0
   12.1959  -16.6569   18.9832 N   0  0  0  0  0  0  0  0  0  0  0  0
   11.2062  -17.0416   19.9269 C   0  0  1  0  0  0  0  0  0  0  0  0
   10.4902  -18.3145   19.7162 C   0  0  0  0  0  0  0  0  0  0  0  0
    9.4033  -18.4583   20.7802 C   0  0  0  0  0  0  0  0  0  0  0  0
    8.6570  -19.7182   20.6508 C   0  0  0  0  0  0  0  0  0  0  0  0
    7.7200  -19.9818   21.4308 O   0  0  0  0  0  0  0  0  0  0  0  0
   11.7902  -17.0176   21.2836 C   0  0  0  0  0  0  0  0  0  0  0  0
   13.0120  -17.3822   21.4246 O   0  0  0  0  0  0  0  0  0  0  0  0
    8.9731  -20.6383   19.6661 O   0  0  0  0  0  0  0  0  0  0  0  0
    8.6161  -14.0952   29.2673 N   0  0  0  0  0  0  0  0  0  0  0  0
    9.8900  -14.6786   29.4646 C   0  0  0  0  0  0  0  0  0  0  0  0
   10.4375  -14.7373   30.6239 N   0  0  0  0  0  0  0  0  0  0  0  0
   10.6288  -15.2330   28.3687 N   0  0  0  0  0  0  0  0  0  0  0  0
   10.1105  -15.2097   27.0091 C   0  0  0  0  0  0  0  0  0  0  0  0
   11.1378  -15.8597   26.1210 C   0  0  0  0  0  0  0  0  0  0  0  0
   10.7206  -15.9756   24.7004 C   0  0  0  0  0  0  0  0  0  0  0  0
   11.7936  -16.5188   23.7700 C   0  0  2  0  0  0  0  0  0  0  0  0
   11.1163  -16.6234   22.4615 N   0  0  0  0  0  0  0  0  0  0  0  0
   12.1423  -17.8819   24.1972 C   0  0  0  0  0  0  0  0  0  0  0  0
   13.2065  -18.0688   24.8518 O   0  0  0  0  0  0  0  0  0  0  0  0
   11.3861  -19.0047   23.9357 O   0  0  0  0  0  0  0  0  0  0  0  0
  2  1  1  1
  2  3  1  0
  4  3  1  0
  4  5  1  0
  5  6  2  0
  7  2  1  0
  8  7  2  0
  9  5  1  0
 10  7  1  0
 11 10  1  0
 12 13  1  0
 11 12  1  6
 13 14  1  0
 14 18  1  0
 14 15  2  0
 16 11  1  0
 16 17  2  0
 20 19  1  0
 21 20  2  0
 22 20  1  0
 23 22  1  0
 24 23  1  0
 25 24  1  0
 26 25  1  1
 26 27  1  0
 27 16  1  0
 28 26  1  0
 29 28  2  0
 30 28  1  0
M  END
$$$$
