EER.pdb
     RDKit          3D

 30 29  0  0  1  0  0  0  0  0999 V2000
    9.5557  -17.9789   13.8176 N   0  0  0  0  0  0  0  0  0  0  0  0
    9.4178  -18.9543   14.8743 C   0  0  1  0  0  0  0  0  0  0  0  0
    9.3920  -20.3659   14.2344 C   0  0  0  0  0  0  0  0  0  0  0  0
   10.5665  -20.4892   13.2833 C   0  0  0  0  0  0  0  0  0  0  0  0
   10.5444  -21.8332   12.6653 C   0  0  0  0  0  0  0  0  0  0  0  0
    9.4216  -22.3808   12.4095 O   0  0  0  0  0  0  0  0  0  0  0  0
   10.4404  -18.8883   15.9196 C   0  0  0  0  0  0  0  0  0  0  0  0
   11.4194  -18.1053   15.7648 O   0  0  0  0  0  0  0  0  0  0  0  0
   11.6669  -22.5723   12.3290 O   0  0  0  0  0  0  0  0  0  0  0  0
   10.4791  -19.6111   17.1307 N   0  0  0  0  0  0  0  0  0  0  0  0
   11.3178  -19.3607   18.2497 C   0  0  1  0  0  0  0  0  0  0  0  0
   10.7647  -19.5629   19.6027 C   0  0  0  0  0  0  0  0  0  0  0  0
   11.7995  -19.1219   20.6365 C   0  0  0  0  0  0  0  0  0  0  0  0
   11.3024  -19.2471   22.0143 C   0  0  0  0  0  0  0  0  0  0  0  0
   12.0837  -19.5245   22.9463 O   0  0  0  0  0  0  0  0  0  0  0  0
   12.5696  -20.1313   18.1034 C   0  0  0  0  0  0  0  0  0  0  0  0
   12.4836  -21.3931   17.8891 O   0  0  0  0  0  0  0  0  0  0  0  0
    9.9631  -19.0615   22.3105 O   0  0  0  0  0  0  0  0  0  0  0  0
   17.9456  -18.5263   13.9889 N   0  0  0  0  0  0  0  0  0  0  0  0
   19.1422  -19.0415   14.5409 C   0  0  0  0  0  0  0  0  0  0  0  0
   20.0986  -19.4750   13.8029 N   0  0  0  0  0  0  0  0  0  0  0  0
   19.3380  -19.1018   15.9594 N   0  0  0  0  0  0  0  0  0  0  0  0
   18.3237  -18.6313   16.8908 C   0  0  0  0  0  0  0  0  0  0  0  0
   17.2663  -19.6987   16.9869 C   0  0  0  0  0  0  0  0  0  0  0  0
   16.2285  -19.4291   18.0145 C   0  0  0  0  0  0  0  0  0  0  0  0
   15.0866  -20.4329   18.0365 C   0  0  2  0  0  0  0  0  0  0  0  0
   13.8762  -19.5983   18.1789 N   0  0  0  0  0  0  0  0  0  0  0  0
   15.2031  -21.2531   19.2513 C   0  0  0  0  0  0  0  0  0  0  0  0
   15.6822  -22.4188   19.1637 O   0  0  0  0  0  0  0  0  0  0  0  0
   14.8224  -20.8472   20.5128 O   0  0  0  0  0  0  0  0  0  0  0  0
  2  1  1  6
  2  3  1  0
  4  3  1  0
  4  5  1  0
  5  6  2  0
  7  2  1  0
  8  7  2  0
  9  5  1  0
 10  7  1  0
 11 10  1  0
 12 13  1  0
 11 12  1  1
 13 14  1  0
 14 18  1  0
 14 15  2  0
 16 11  1  0
 16 17  2  0
 20 19  1  0
 21 20  2  0
 22 20  1  0
 23 22  1  0
 24 23  1  0
 25 24  1  0
 26 25  1  1
 26 27  1  0
 27 16  1  0
 28 26  1  0
 29 28  2  0
 30 28  1  0
M  END
$$$$
