EER.pdb
     RDKit          3D

 30 29  0  0  1  0  0  0  0  0999 V2000
    8.7786  -15.3288   16.9595 N   0  0  0  0  0  0  0  0  0  0  0  0
    9.7167  -14.3167   17.3873 C   0  0  1  0  0  0  0  0  0  0  0  0
    8.9779  -13.3360   18.3334 C   0  0  0  0  0  0  0  0  0  0  0  0
    8.5032  -14.1025   19.5526 C   0  0  0  0  0  0  0  0  0  0  0  0
    7.8976  -13.1521   20.5110 C   0  0  0  0  0  0  0  0  0  0  0  0
    7.5795  -13.5625   21.6757 O   0  0  0  0  0  0  0  0  0  0  0  0
   10.9307  -14.8245   18.0284 C   0  0  0  0  0  0  0  0  0  0  0  0
   10.8882  -15.9436   18.6125 O   0  0  0  0  0  0  0  0  0  0  0  0
    7.6376  -11.8166   20.2498 O   0  0  0  0  0  0  0  0  0  0  0  0
   12.1978  -14.2060   18.0808 N   0  0  0  0  0  0  0  0  0  0  0  0
   13.3854  -14.7362   18.6523 C   0  0  1  0  0  0  0  0  0  0  0  0
   14.6848  -14.2250   18.1752 C   0  0  0  0  0  0  0  0  0  0  0  0
   15.8048  -15.0823   18.7623 C   0  0  0  0  0  0  0  0  0  0  0  0
   17.1390  -14.5485   18.4522 C   0  0  0  0  0  0  0  0  0  0  0  0
   17.6967  -13.7479   19.2294 O   0  0  0  0  0  0  0  0  0  0  0  0
   13.3138  -14.6186   20.1231 C   0  0  0  0  0  0  0  0  0  0  0  0
   13.2978  -13.4436   20.6375 O   0  0  0  0  0  0  0  0  0  0  0  0
   17.8061  -14.9183   17.2971 O   0  0  0  0  0  0  0  0  0  0  0  0
    6.6821  -16.3922   21.4716 N   0  0  0  0  0  0  0  0  0  0  0  0
    7.4552  -15.2418   21.7562 C   0  0  0  0  0  0  0  0  0  0  0  0
    7.1543  -14.0875   21.2826 N   0  0  0  0  0  0  0  0  0  0  0  0
    8.6170  -15.3180   22.5920 N   0  0  0  0  0  0  0  0  0  0  0  0
    9.7962  -16.0717   22.1933 C   0  0  0  0  0  0  0  0  0  0  0  0
   10.8254  -15.9122   23.2805 C   0  0  0  0  0  0  0  0  0  0  0  0
   12.1458  -16.5083   22.9536 C   0  0  0  0  0  0  0  0  0  0  0  0
   13.1941  -15.5069   22.4953 C   0  0  2  0  0  0  0  0  0  0  0  0
   13.2604  -15.6991   21.0322 N   0  0  0  0  0  0  0  0  0  0  0  0
   14.4971  -15.9000   23.0520 C   0  0  0  0  0  0  0  0  0  0  0  0
   15.2774  -16.6064   22.3534 O   0  0  0  0  0  0  0  0  0  0  0  0
   14.9516  -15.5544   24.3070 O   0  0  0  0  0  0  0  0  0  0  0  0
  2  1  1  1
  2  3  1  0
  4  3  1  0
  4  5  1  0
  5  6  2  0
  7  2  1  0
  8  7  2  0
  9  5  1  0
 10  7  1  0
 11 10  1  0
 12 13  1  0
 11 12  1  6
 13 14  1  0
 14 18  1  0
 14 15  2  0
 16 11  1  0
 16 17  2  0
 20 19  1  0
 21 20  2  0
 22 20  1  0
 23 22  1  0
 24 23  1  0
 25 24  1  0
 26 25  1  1
 26 27  1  0
 27 16  1  0
 28 26  1  0
 29 28  2  0
 30 28  1  0
M  END
$$$$
