EER.pdb
     RDKit          3D

 30 29  0  0  1  0  0  0  0  0999 V2000
    9.3328  -13.0825   18.1445 N   0  0  0  0  0  0  0  0  0  0  0  0
    9.6143  -14.4143   18.6287 C   0  0  1  0  0  0  0  0  0  0  0  0
   11.0919  -14.4612   19.0950 C   0  0  0  0  0  0  0  0  0  0  0  0
   11.9886  -14.2987   17.8831 C   0  0  0  0  0  0  0  0  0  0  0  0
   13.4005  -14.3940   18.3148 C   0  0  0  0  0  0  0  0  0  0  0  0
   13.9690  -13.3663   18.8114 O   0  0  0  0  0  0  0  0  0  0  0  0
    8.7295  -14.8893   19.6936 C   0  0  0  0  0  0  0  0  0  0  0  0
    8.2842  -14.0562   20.5320 O   0  0  0  0  0  0  0  0  0  0  0  0
   14.1839  -15.5332   18.2259 O   0  0  0  0  0  0  0  0  0  0  0  0
    8.2858  -16.2099   19.9169 N   0  0  0  0  0  0  0  0  0  0  0  0
    7.4518  -16.6650   20.9732 C   0  0  1  0  0  0  0  0  0  0  0  0
    6.7730  -17.9665   20.8228 C   0  0  0  0  0  0  0  0  0  0  0  0
    5.8914  -18.2142   22.0458 C   0  0  0  0  0  0  0  0  0  0  0  0
    5.1790  -19.4979   21.9709 C   0  0  0  0  0  0  0  0  0  0  0  0
    5.7153  -20.5447   22.3866 O   0  0  0  0  0  0  0  0  0  0  0  0
    8.2127  -16.6436   22.2392 C   0  0  0  0  0  0  0  0  0  0  0  0
    9.4282  -17.0533   22.2234 O   0  0  0  0  0  0  0  0  0  0  0  0
    3.9028  -19.5773   21.4406 O   0  0  0  0  0  0  0  0  0  0  0  0
    5.0540  -11.2415   27.9510 N   0  0  0  0  0  0  0  0  0  0  0  0
    5.7981  -10.8408   26.8162 C   0  0  0  0  0  0  0  0  0  0  0  0
    5.8433   -9.6171   26.4317 N   0  0  0  0  0  0  0  0  0  0  0  0
    6.5386  -11.7926   26.0418 N   0  0  0  0  0  0  0  0  0  0  0  0
    6.6967  -13.1724   26.4761 C   0  0  0  0  0  0  0  0  0  0  0  0
    7.5659  -13.8697   25.4637 C   0  0  0  0  0  0  0  0  0  0  0  0
    7.6952  -15.3326   25.6849 C   0  0  0  0  0  0  0  0  0  0  0  0
    8.5805  -16.0475   24.6764 C   0  0  2  0  0  0  0  0  0  0  0  0
    7.7174  -16.2062   23.4883 N   0  0  0  0  0  0  0  0  0  0  0  0
    8.8836  -17.3933   25.1854 C   0  0  0  0  0  0  0  0  0  0  0  0
    8.0851  -18.3401   24.9365 O   0  0  0  0  0  0  0  0  0  0  0  0
    9.9956  -17.7185   25.9329 O   0  0  0  0  0  0  0  0  0  0  0  0
  2  1  1  1
  2  3  1  0
  4  3  1  0
  4  5  1  0
  5  6  2  0
  7  2  1  0
  8  7  2  0
  9  5  1  0
 10  7  1  0
 11 10  1  0
 12 13  1  0
 11 12  1  6
 13 14  1  0
 14 18  1  0
 14 15  2  0
 16 11  1  0
 16 17  2  0
 20 19  1  0
 21 20  2  0
 22 20  1  0
 23 22  1  0
 24 23  1  0
 25 24  1  0
 26 25  1  1
 26 27  1  0
 27 16  1  0
 28 26  1  0
 29 28  2  0
 30 28  1  0
M  END
$$$$
