EER.pdb
     RDKit          3D

 30 29  0  0  1  0  0  0  0  0999 V2000
   13.1388  -19.0720   18.7333 N   0  0  0  0  0  0  0  0  0  0  0  0
   13.7738  -19.4512   19.9744 C   0  0  1  0  0  0  0  0  0  0  0  0
   15.2878  -19.1381   19.8628 C   0  0  0  0  0  0  0  0  0  0  0  0
   15.4541  -17.7411   19.2973 C   0  0  0  0  0  0  0  0  0  0  0  0
   16.8614  -17.5569   18.8798 C   0  0  0  0  0  0  0  0  0  0  0  0
   17.3087  -18.2262   17.8909 O   0  0  0  0  0  0  0  0  0  0  0  0
   13.2130  -18.8304   21.1755 C   0  0  0  0  0  0  0  0  0  0  0  0
   13.8894  -18.8477   22.2421 O   0  0  0  0  0  0  0  0  0  0  0  0
   17.7640  -16.6968   19.4841 O   0  0  0  0  0  0  0  0  0  0  0  0
   11.9655  -18.1845   21.3063 N   0  0  0  0  0  0  0  0  0  0  0  0
   11.4569  -17.5323   22.4614 C   0  0  1  0  0  0  0  0  0  0  0  0
   10.2676  -16.6709   22.3168 C   0  0  0  0  0  0  0  0  0  0  0  0
    9.9898  -15.9754   23.6484 C   0  0  0  0  0  0  0  0  0  0  0  0
    8.9414  -14.9509   23.5363 C   0  0  0  0  0  0  0  0  0  0  0  0
    8.3458  -14.7704   22.4553 O   0  0  0  0  0  0  0  0  0  0  0  0
   11.2210  -18.5328   23.5224 C   0  0  0  0  0  0  0  0  0  0  0  0
   10.4017  -19.4900   23.2822 O   0  0  0  0  0  0  0  0  0  0  0  0
    8.5908  -14.1653   24.6208 O   0  0  0  0  0  0  0  0  0  0  0  0
   14.4991  -19.8943   32.0011 N   0  0  0  0  0  0  0  0  0  0  0  0
   13.9929  -21.0585   31.3762 C   0  0  0  0  0  0  0  0  0  0  0  0
   14.2630  -22.2350   31.8124 N   0  0  0  0  0  0  0  0  0  0  0  0
   13.1504  -20.9721   30.2200 N   0  0  0  0  0  0  0  0  0  0  0  0
   13.4821  -20.1088   29.0965 C   0  0  0  0  0  0  0  0  0  0  0  0
   12.3580  -20.2092   28.1001 C   0  0  0  0  0  0  0  0  0  0  0  0
   12.5501  -19.3737   26.8874 C   0  0  0  0  0  0  0  0  0  0  0  0
   11.4238  -19.4693   25.8703 C   0  0  2  0  0  0  0  0  0  0  0  0
   11.8247  -18.5334   24.8002 N   0  0  0  0  0  0  0  0  0  0  0  0
   10.1929  -18.9434   26.4790 C   0  0  0  0  0  0  0  0  0  0  0  0
    9.9646  -17.7018   26.4323 O   0  0  0  0  0  0  0  0  0  0  0  0
    9.2407  -19.7116   27.1149 O   0  0  0  0  0  0  0  0  0  0  0  0
  2  1  1  6
  2  3  1  0
  4  3  1  0
  4  5  1  0
  5  6  2  0
  7  2  1  0
  8  7  2  0
  9  5  1  0
 10  7  1  0
 11 10  1  0
 12 13  1  0
 11 12  1  6
 13 14  1  0
 14 18  1  0
 14 15  2  0
 16 11  1  0
 16 17  2  0
 20 19  1  0
 21 20  2  0
 22 20  1  0
 23 22  1  0
 24 23  1  0
 25 24  1  0
 26 25  1  1
 26 27  1  0
 27 16  1  0
 28 26  1  0
 29 28  2  0
 30 28  1  0
M  END
$$$$
