EER.pdb
     RDKit          3D

 30 29  0  0  1  0  0  0  0  0999 V2000
   11.4428  -19.5575   18.8556 N   0  0  0  0  0  0  0  0  0  0  0  0
   11.5752  -20.8262   19.5340 C   0  0  1  0  0  0  0  0  0  0  0  0
   13.0848  -21.1209   19.7264 C   0  0  0  0  0  0  0  0  0  0  0  0
   13.8464  -19.8110   19.6674 C   0  0  0  0  0  0  0  0  0  0  0  0
   15.2810  -20.0788   19.9103 C   0  0  0  0  0  0  0  0  0  0  0  0
   15.9079  -19.3738   20.7683 O   0  0  0  0  0  0  0  0  0  0  0  0
   10.8707  -20.9244   20.8133 C   0  0  0  0  0  0  0  0  0  0  0  0
   10.4330  -19.8680   21.3499 O   0  0  0  0  0  0  0  0  0  0  0  0
   16.0269  -21.0557   19.2711 O   0  0  0  0  0  0  0  0  0  0  0  0
   10.6006  -22.0919   21.5581 N   0  0  0  0  0  0  0  0  0  0  0  0
    9.8290  -22.1885   22.7471 C   0  0  1  0  0  0  0  0  0  0  0  0
    9.3081  -23.5114   23.1422 C   0  0  0  0  0  0  0  0  0  0  0  0
    8.2767  -23.9699   22.1126 C   0  0  0  0  0  0  0  0  0  0  0  0
    7.6786  -25.2672   22.4595 C   0  0  0  0  0  0  0  0  0  0  0  0
    6.4637  -25.3522   22.7292 O   0  0  0  0  0  0  0  0  0  0  0  0
   10.5855  -21.5960   23.8691 C   0  0  0  0  0  0  0  0  0  0  0  0
   11.8548  -21.7775   23.9078 O   0  0  0  0  0  0  0  0  0  0  0  0
    8.4436  -26.4203   22.4953 O   0  0  0  0  0  0  0  0  0  0  0  0
    9.0721  -14.2117   28.6895 N   0  0  0  0  0  0  0  0  0  0  0  0
   10.1385  -14.9108   29.3027 C   0  0  0  0  0  0  0  0  0  0  0  0
   10.7319  -14.4620   30.3485 N   0  0  0  0  0  0  0  0  0  0  0  0
   10.6050  -16.1599   28.7770 N   0  0  0  0  0  0  0  0  0  0  0  0
    9.9593  -16.7984   27.6399 C   0  0  0  0  0  0  0  0  0  0  0  0
   10.6902  -18.0862   27.3678 C   0  0  0  0  0  0  0  0  0  0  0  0
   10.1145  -18.8831   26.2546 C   0  0  0  0  0  0  0  0  0  0  0  0
   10.8612  -20.1720   25.9493 C   0  0  2  0  0  0  0  0  0  0  0  0
   10.0312  -20.8344   24.9226 N   0  0  0  0  0  0  0  0  0  0  0  0
   10.8432  -21.0229   27.1484 C   0  0  0  0  0  0  0  0  0  0  0  0
    9.8722  -21.8103   27.3303 O   0  0  0  0  0  0  0  0  0  0  0  0
   11.8229  -21.0338   28.1186 O   0  0  0  0  0  0  0  0  0  0  0  0
  2  1  1  1
  2  3  1  0
  4  3  1  0
  4  5  1  0
  5  6  2  0
  7  2  1  0
  8  7  2  0
  9  5  1  0
 10  7  1  0
 11 10  1  0
 12 13  1  0
 11 12  1  1
 13 14  1  0
 14 18  1  0
 14 15  2  0
 16 11  1  0
 16 17  2  0
 20 19  1  0
 21 20  2  0
 22 20  1  0
 23 22  1  0
 24 23  1  0
 25 24  1  0
 26 25  1  1
 26 27  1  0
 27 16  1  0
 28 26  1  0
 29 28  2  0
 30 28  1  0
M  END
$$$$
