EER.pdb
     RDKit          3D

 30 29  0  0  1  0  0  0  0  0999 V2000
   11.1529  -13.7886   17.2044 N   0  0  0  0  0  0  0  0  0  0  0  0
    9.8630  -13.7616   17.8546 C   0  0  1  0  0  0  0  0  0  0  0  0
    8.7652  -13.7872   16.7606 C   0  0  0  0  0  0  0  0  0  0  0  0
    8.4824  -15.2302   16.3903 C   0  0  0  0  0  0  0  0  0  0  0  0
    7.4694  -15.2593   15.3126 C   0  0  0  0  0  0  0  0  0  0  0  0
    7.0921  -14.1615   14.7849 O   0  0  0  0  0  0  0  0  0  0  0  0
    9.6349  -14.8296   18.8293 C   0  0  0  0  0  0  0  0  0  0  0  0
    8.5431  -14.8514   19.4641 O   0  0  0  0  0  0  0  0  0  0  0  0
    6.8762  -16.4059   14.8097 O   0  0  0  0  0  0  0  0  0  0  0  0
   10.5077  -15.8854   19.1671 N   0  0  0  0  0  0  0  0  0  0  0  0
   10.3068  -16.8746   20.1668 C   0  0  1  0  0  0  0  0  0  0  0  0
   11.1050  -18.1139   20.1008 C   0  0  0  0  0  0  0  0  0  0  0  0
   12.5870  -17.7600   20.2124 C   0  0  0  0  0  0  0  0  0  0  0  0
   13.4522  -18.9465   20.1434 C   0  0  0  0  0  0  0  0  0  0  0  0
   14.5659  -18.9513   20.7053 O   0  0  0  0  0  0  0  0  0  0  0  0
   10.4551  -16.2573   21.5007 C   0  0  0  0  0  0  0  0  0  0  0  0
   11.3762  -15.3797   21.6639 O   0  0  0  0  0  0  0  0  0  0  0  0
   13.0555  -20.0815   19.4576 O   0  0  0  0  0  0  0  0  0  0  0  0
    5.1482  -13.2725   27.4371 N   0  0  0  0  0  0  0  0  0  0  0  0
    5.9303  -12.1840   26.9839 C   0  0  0  0  0  0  0  0  0  0  0  0
    5.9343  -11.0524   27.5896 N   0  0  0  0  0  0  0  0  0  0  0  0
    6.7578  -12.3000   25.8195 N   0  0  0  0  0  0  0  0  0  0  0  0
    6.6949  -13.4663   24.9515 C   0  0  0  0  0  0  0  0  0  0  0  0
    8.0479  -14.1260   24.9796 C   0  0  0  0  0  0  0  0  0  0  0  0
    8.3131  -15.0088   23.8152 C   0  0  0  0  0  0  0  0  0  0  0  0
    9.6646  -15.7051   23.8461 C   0  0  2  0  0  0  0  0  0  0  0  0
    9.6626  -16.5490   22.6338 N   0  0  0  0  0  0  0  0  0  0  0  0
    9.7059  -16.6032   25.0096 C   0  0  0  0  0  0  0  0  0  0  0  0
    9.4751  -17.8344   24.8456 O   0  0  0  0  0  0  0  0  0  0  0  0
    9.9817  -16.2045   26.3003 O   0  0  0  0  0  0  0  0  0  0  0  0
  2  1  1  6
  2  3  1  0
  4  3  1  0
  4  5  1  0
  5  6  2  0
  7  2  1  0
  8  7  2  0
  9  5  1  0
 10  7  1  0
 11 10  1  0
 12 13  1  0
 11 12  1  6
 13 14  1  0
 14 18  1  0
 14 15  2  0
 16 11  1  0
 16 17  2  0
 20 19  1  0
 21 20  2  0
 22 20  1  0
 23 22  1  0
 24 23  1  0
 25 24  1  0
 26 25  1  1
 26 27  1  0
 27 16  1  0
 28 26  1  0
 29 28  2  0
 30 28  1  0
M  END
$$$$
