EER.pdb
     RDKit          3D

 30 29  0  0  1  0  0  0  0  0999 V2000
   11.6619  -14.0541   17.8896 N   0  0  0  0  0  0  0  0  0  0  0  0
   12.1174  -15.4110   18.0860 C   0  0  1  0  0  0  0  0  0  0  0  0
   13.6592  -15.4352   17.9286 C   0  0  0  0  0  0  0  0  0  0  0  0
   13.9963  -15.8822   16.5195 C   0  0  0  0  0  0  0  0  0  0  0  0
   15.4622  -16.0457   16.4057 C   0  0  0  0  0  0  0  0  0  0  0  0
   16.0752  -16.7658   17.2612 O   0  0  0  0  0  0  0  0  0  0  0  0
   11.7263  -16.0208   19.3580 C   0  0  0  0  0  0  0  0  0  0  0  0
   11.5936  -15.2805   20.3727 O   0  0  0  0  0  0  0  0  0  0  0  0
   16.2527  -15.4704   15.4241 O   0  0  0  0  0  0  0  0  0  0  0  0
   11.4632  -17.3835   19.6126 N   0  0  0  0  0  0  0  0  0  0  0  0
   11.1439  -17.9734   20.8650 C   0  0  1  0  0  0  0  0  0  0  0  0
   10.4573  -19.2795   20.8727 C   0  0  0  0  0  0  0  0  0  0  0  0
   10.1004  -19.6476   22.3119 C   0  0  0  0  0  0  0  0  0  0  0  0
    9.4231  -20.9490   22.4049 C   0  0  0  0  0  0  0  0  0  0  0  0
    9.1257  -21.4298   23.5168 O   0  0  0  0  0  0  0  0  0  0  0  0
   12.3639  -18.0473   21.6947 C   0  0  0  0  0  0  0  0  0  0  0  0
   13.3795  -18.6748   21.2254 O   0  0  0  0  0  0  0  0  0  0  0  0
    9.1000  -21.6695   21.2679 O   0  0  0  0  0  0  0  0  0  0  0  0
   17.6077  -12.3511   21.3706 N   0  0  0  0  0  0  0  0  0  0  0  0
   16.9423  -13.1884   20.4443 C   0  0  0  0  0  0  0  0  0  0  0  0
   16.9008  -12.9156   19.1908 N   0  0  0  0  0  0  0  0  0  0  0  0
   16.2807  -14.3862   20.8704 N   0  0  0  0  0  0  0  0  0  0  0  0
   15.6855  -14.5002   22.1934 C   0  0  0  0  0  0  0  0  0  0  0  0
   15.1073  -15.8852   22.3127 C   0  0  0  0  0  0  0  0  0  0  0  0
   14.3585  -16.1199   23.5736 C   0  0  0  0  0  0  0  0  0  0  0  0
   13.7960  -17.5248   23.7212 C   0  0  2  0  0  0  0  0  0  0  0  0
   12.5190  -17.4811   22.9801 N   0  0  0  0  0  0  0  0  0  0  0  0
   13.4770  -17.7587   25.1375 C   0  0  0  0  0  0  0  0  0  0  0  0
   12.2994  -17.5523   25.5458 O   0  0  0  0  0  0  0  0  0  0  0  0
   14.3794  -18.1952   26.0842 O   0  0  0  0  0  0  0  0  0  0  0  0
  2  1  1  1
  2  3  1  0
  4  3  1  0
  4  5  1  0
  5  6  2  0
  7  2  1  0
  8  7  2  0
  9  5  1  0
 10  7  1  0
 11 10  1  0
 12 13  1  0
 11 12  1  6
 13 14  1  0
 14 18  1  0
 14 15  2  0
 16 11  1  0
 16 17  2  0
 20 19  1  0
 21 20  2  0
 22 20  1  0
 23 22  1  0
 24 23  1  0
 25 24  1  0
 26 25  1  1
 26 27  1  0
 27 16  1  0
 28 26  1  0
 29 28  2  0
 30 28  1  0
M  END
$$$$
