EER.pdb
     RDKit          3D

 30 29  0  0  1  0  0  0  0  0999 V2000
    8.1179  -18.9027   19.7944 N   0  0  0  0  0  0  0  0  0  0  0  0
    9.1635  -17.9066   19.7515 C   0  0  1  0  0  0  0  0  0  0  0  0
    8.5564  -16.5857   19.2136 C   0  0  0  0  0  0  0  0  0  0  0  0
    7.4443  -16.1473   20.1464 C   0  0  0  0  0  0  0  0  0  0  0  0
    6.8369  -14.9058   19.6188 C   0  0  0  0  0  0  0  0  0  0  0  0
    7.2610  -14.4269   18.5156 O   0  0  0  0  0  0  0  0  0  0  0  0
    9.8504  -17.6702   21.0223 C   0  0  0  0  0  0  0  0  0  0  0  0
    9.3345  -18.1164   22.0854 O   0  0  0  0  0  0  0  0  0  0  0  0
    5.8183  -14.1955   20.2331 O   0  0  0  0  0  0  0  0  0  0  0  0
   11.0659  -16.9837   21.2273 N   0  0  0  0  0  0  0  0  0  0  0  0
   11.8111  -16.9057   22.4342 C   0  0  1  0  0  0  0  0  0  0  0  0
   13.1802  -16.3576   22.3817 C   0  0  0  0  0  0  0  0  0  0  0  0
   13.7666  -16.3424   23.7923 C   0  0  0  0  0  0  0  0  0  0  0  0
   15.1426  -15.8258   23.8205 C   0  0  0  0  0  0  0  0  0  0  0  0
   16.1000  -16.5567   23.4961 O   0  0  0  0  0  0  0  0  0  0  0  0
   11.0219  -16.1776   23.4487 C   0  0  0  0  0  0  0  0  0  0  0  0
   10.6633  -14.9737   23.1889 O   0  0  0  0  0  0  0  0  0  0  0  0
   15.4093  -14.5231   24.2052 O   0  0  0  0  0  0  0  0  0  0  0  0
    7.5877  -20.3720   27.3277 N   0  0  0  0  0  0  0  0  0  0  0  0
    6.6445  -20.4255   26.2743 C   0  0  0  0  0  0  0  0  0  0  0  0
    5.7185  -21.3136   26.2367 N   0  0  0  0  0  0  0  0  0  0  0  0
    6.6839  -19.4825   25.1958 N   0  0  0  0  0  0  0  0  0  0  0  0
    6.7170  -18.0478   25.4370 C   0  0  0  0  0  0  0  0  0  0  0  0
    8.1408  -17.6737   25.7526 C   0  0  0  0  0  0  0  0  0  0  0  0
    8.4512  -16.2386   25.5297 C   0  0  0  0  0  0  0  0  0  0  0  0
    9.9163  -15.8744   25.7107 C   0  0  2  0  0  0  0  0  0  0  0  0
   10.6182  -16.6929   24.7011 N   0  0  0  0  0  0  0  0  0  0  0  0
   10.3564  -16.3345   27.0361 C   0  0  0  0  0  0  0  0  0  0  0  0
   11.0597  -17.3804   27.1226 O   0  0  0  0  0  0  0  0  0  0  0  0
   10.0575  -15.7046   28.2256 O   0  0  0  0  0  0  0  0  0  0  0  0
  2  1  1  1
  2  3  1  0
  4  3  1  0
  4  5  1  0
  5  6  2  0
  7  2  1  0
  8  7  2  0
  9  5  1  0
 10  7  1  0
 11 10  1  0
 12 13  1  0
 11 12  1  6
 13 14  1  0
 14 18  1  0
 14 15  2  0
 16 11  1  0
 16 17  2  0
 20 19  1  0
 21 20  2  0
 22 20  1  0
 23 22  1  0
 24 23  1  0
 25 24  1  0
 26 25  1  1
 26 27  1  0
 27 16  1  0
 28 26  1  0
 29 28  2  0
 30 28  1  0
M  END
$$$$
