EER.pdb
     RDKit          3D

 30 29  0  0  1  0  0  0  0  0999 V2000
   11.6862  -16.3498   15.8939 N   0  0  0  0  0  0  0  0  0  0  0  0
   12.2868  -17.3498   16.7463 C   0  0  1  0  0  0  0  0  0  0  0  0
   13.7719  -16.9683   16.9734 C   0  0  0  0  0  0  0  0  0  0  0  0
   14.2882  -16.2670   15.7322 C   0  0  0  0  0  0  0  0  0  0  0  0
   15.7265  -15.9706   15.9118 C   0  0  0  0  0  0  0  0  0  0  0  0
   16.3296  -16.4208   16.9413 O   0  0  0  0  0  0  0  0  0  0  0  0
   11.6136  -17.5599   18.0290 C   0  0  0  0  0  0  0  0  0  0  0  0
   10.8816  -16.6397   18.4903 O   0  0  0  0  0  0  0  0  0  0  0  0
   16.5004  -15.2263   15.0363 O   0  0  0  0  0  0  0  0  0  0  0  0
   11.6729  -18.7034   18.8533 N   0  0  0  0  0  0  0  0  0  0  0  0
   10.9006  -18.9592   20.0180 C   0  0  1  0  0  0  0  0  0  0  0  0
   10.6761  -20.3614   20.4193 C   0  0  0  0  0  0  0  0  0  0  0  0
    9.6880  -20.3954   21.5840 C   0  0  0  0  0  0  0  0  0  0  0  0
    9.4666  -21.7578   22.0900 C   0  0  0  0  0  0  0  0  0  0  0  0
    9.2833  -21.9589   23.3074 O   0  0  0  0  0  0  0  0  0  0  0  0
   11.4639  -18.2004   21.1534 C   0  0  0  0  0  0  0  0  0  0  0  0
   12.7400  -18.1193   21.2552 O   0  0  0  0  0  0  0  0  0  0  0  0
    9.4558  -22.8454   21.2337 O   0  0  0  0  0  0  0  0  0  0  0  0
    8.6497  -13.1564   27.3457 N   0  0  0  0  0  0  0  0  0  0  0  0
    9.7580  -13.7757   27.9703 C   0  0  0  0  0  0  0  0  0  0  0  0
   10.5205  -13.1408   28.7844 N   0  0  0  0  0  0  0  0  0  0  0  0
   10.0787  -15.1495   27.7176 N   0  0  0  0  0  0  0  0  0  0  0  0
    9.5391  -15.8605   26.5683 C   0  0  0  0  0  0  0  0  0  0  0  0
   10.6576  -16.0321   25.5752 C   0  0  0  0  0  0  0  0  0  0  0  0
   10.2506  -16.7130   24.3197 C   0  0  0  0  0  0  0  0  0  0  0  0
   11.3464  -16.8085   23.2699 C   0  0  2  0  0  0  0  0  0  0  0  0
   10.7145  -17.5441   22.1556 N   0  0  0  0  0  0  0  0  0  0  0  0
   12.4314  -17.6501   23.7958 C   0  0  0  0  0  0  0  0  0  0  0  0
   13.5464  -17.1206   24.0648 O   0  0  0  0  0  0  0  0  0  0  0  0
   12.3328  -19.0061   24.0256 O   0  0  0  0  0  0  0  0  0  0  0  0
  2  1  1  1
  2  3  1  0
  4  3  1  0
  4  5  1  0
  5  6  2  0
  7  2  1  0
  8  7  2  0
  9  5  1  0
 10  7  1  0
 11 10  1  0
 12 13  1  0
 11 12  1  1
 13 14  1  0
 14 18  1  0
 14 15  2  0
 16 11  1  0
 16 17  2  0
 20 19  1  0
 21 20  2  0
 22 20  1  0
 23 22  1  0
 24 23  1  0
 25 24  1  0
 26 25  1  1
 26 27  1  0
 27 16  1  0
 28 26  1  0
 29 28  2  0
 30 28  1  0
M  END
$$$$
