EER.pdb
     RDKit          3D

 30 29  0  0  1  0  0  0  0  0999 V2000
    9.2269  -12.6180   18.3877 N   0  0  0  0  0  0  0  0  0  0  0  0
    9.4251  -14.0456   18.2872 C   0  0  1  0  0  0  0  0  0  0  0  0
   10.9061  -14.3069   17.9116 C   0  0  0  0  0  0  0  0  0  0  0  0
   11.7827  -13.8941   19.0780 C   0  0  0  0  0  0  0  0  0  0  0  0
   13.1940  -14.1873   18.7449 C   0  0  0  0  0  0  0  0  0  0  0  0
   13.7063  -15.2905   19.1278 O   0  0  0  0  0  0  0  0  0  0  0  0
    9.0605  -14.8101   19.4810 C   0  0  0  0  0  0  0  0  0  0  0  0
    9.2619  -14.2971   20.6175 O   0  0  0  0  0  0  0  0  0  0  0  0
   14.0341  -13.3467   18.0328 O   0  0  0  0  0  0  0  0  0  0  0  0
    8.4866  -16.0980   19.5346 N   0  0  0  0  0  0  0  0  0  0  0  0
    8.1681  -16.8446   20.7005 C   0  0  1  0  0  0  0  0  0  0  0  0
    7.5164  -18.1585   20.5383 C   0  0  0  0  0  0  0  0  0  0  0  0
    6.9024  -18.2426   19.1418 C   0  0  0  0  0  0  0  0  0  0  0  0
    7.1555  -19.5390   18.4966 C   0  0  0  0  0  0  0  0  0  0  0  0
    7.7472  -19.5954   17.3999 O   0  0  0  0  0  0  0  0  0  0  0  0
    9.3797  -16.9893   21.5332 C   0  0  0  0  0  0  0  0  0  0  0  0
   10.3621  -16.1930   21.3182 O   0  0  0  0  0  0  0  0  0  0  0  0
    6.7464  -20.7227   19.0860 O   0  0  0  0  0  0  0  0  0  0  0  0
    8.1646  -14.6515   28.9298 N   0  0  0  0  0  0  0  0  0  0  0  0
    9.5698  -14.7978   29.0074 C   0  0  0  0  0  0  0  0  0  0  0  0
   10.1989  -14.7276   30.1239 N   0  0  0  0  0  0  0  0  0  0  0  0
   10.3563  -15.0321   27.8324 N   0  0  0  0  0  0  0  0  0  0  0  0
    9.7498  -15.1186   26.5125 C   0  0  0  0  0  0  0  0  0  0  0  0
   10.3948  -16.2724   25.7918 C   0  0  0  0  0  0  0  0  0  0  0  0
    9.8313  -16.5320   24.4425 C   0  0  0  0  0  0  0  0  0  0  0  0
   10.4588  -17.7089   23.7123 C   0  0  2  0  0  0  0  0  0  0  0  0
    9.5603  -17.9402   22.5629 N   0  0  0  0  0  0  0  0  0  0  0  0
   10.3835  -18.8953   24.5777 C   0  0  0  0  0  0  0  0  0  0  0  0
    9.3372  -19.6032   24.5625 O   0  0  0  0  0  0  0  0  0  0  0  0
   11.3851  -19.3118   25.4287 O   0  0  0  0  0  0  0  0  0  0  0  0
  2  1  1  1
  2  3  1  0
  4  3  1  0
  4  5  1  0
  5  6  2  0
  7  2  1  0
  8  7  2  0
  9  5  1  0
 10  7  1  0
 11 10  1  0
 12 13  1  0
 11 12  1  6
 13 14  1  0
 14 18  1  0
 14 15  2  0
 16 11  1  0
 16 17  2  0
 20 19  1  0
 21 20  2  0
 22 20  1  0
 23 22  1  0
 24 23  1  0
 25 24  1  0
 26 25  1  1
 26 27  1  0
 27 16  1  0
 28 26  1  0
 29 28  2  0
 30 28  1  0
M  END
$$$$
