PCF.pdb
     RDKit          3D

 25 26  0  0  1  0  0  0  0  0999 V2000
    8.7383  -14.8735   18.5230 N   0  0  0  0  0  0  0  0  0  0  0  0
    7.5306  -14.5504   17.8348 C   0  0  0  0  0  0  0  0  0  0  0  0
    7.0780  -13.2180   18.3826 C   0  0  0  0  0  0  0  0  0  0  0  0
    8.2848  -12.6698   19.1337 C   0  0  0  0  0  0  0  0  0  0  0  0
    8.9807  -13.9231   19.5593 C   0  0  1  0  0  0  0  0  0  0  0  0
    8.3688  -14.3845   20.8477 C   0  0  0  0  0  0  0  0  0  0  0  0
    8.2865  -13.6173   21.8422 O   0  0  0  0  0  0  0  0  0  0  0  0
    7.8513  -15.6997   21.0214 N   0  0  0  0  0  0  0  0  0  0  0  0
    7.1860  -16.0687   22.2811 C   0  0  1  0  0  0  0  0  0  0  0  0
    6.5239  -17.4129   22.0227 C   0  0  0  0  0  0  0  0  0  0  0  0
    5.8185  -18.0539   23.5560 S   0  0  0  0  0  0  0  0  0  0  0  0
    8.2450  -16.2173   23.3106 C   0  0  0  0  0  0  0  0  0  0  0  0
    9.3954  -16.6488   23.0585 O   0  0  0  0  0  0  0  0  0  0  0  0
    7.9570  -15.8581   24.6485 N   0  0  0  0  0  0  0  0  0  0  0  0
    8.9677  -16.0167   25.6918 C   0  0  1  0  0  0  0  0  0  0  0  0
    9.2122  -14.7045   26.3986 C   0  0  0  0  0  0  0  0  0  0  0  0
    8.0482  -13.8272   26.4871 C   0  0  0  0  0  0  0  0  0  0  0  0
    6.7856  -14.4042   26.6036 C   0  0  0  0  0  0  0  0  0  0  0  0
    5.7034  -13.5613   26.6962 C   0  0  0  0  0  0  0  0  0  0  0  0
    5.8413  -12.1838   26.6765 C   0  0  0  0  0  0  0  0  0  0  0  0
    7.0969  -11.6193   26.5608 C   0  0  0  0  0  0  0  0  0  0  0  0
    8.1945  -12.4486   26.4668 C   0  0  0  0  0  0  0  0  0  0  0  0
    8.4836  -17.0644   26.6200 C   0  0  0  0  0  0  0  0  0  0  0  0
    7.3123  -17.5623   26.5131 O   0  0  0  0  0  0  0  0  0  0  0  0
    9.3116  -17.5254   27.6324 O   0  0  0  0  0  0  0  0  0  0  0  0
  1  2  1  0
  2  3  1  0
  4  3  1  0
  5  1  1  0
  5  4  1  0
  5  6  1  1
  7  6  2  0
  8  6  1  0
  9  8  1  0
  9 10  1  6
 11 10  1  0
 12  9  1  0
 12 13  2  0
 14 12  1  0
 15 14  1  0
 15 16  1  1
 16 17  1  0
 17 22  1  0
 17 18  2  0
 18 19  1  0
 19 20  2  0
 21 20  1  0
 22 21  2  0
 23 15  1  0
 24 23  2  0
 25 23  1  0
M  END
$$$$
