PCF.pdb
     RDKit          3D

 25 26  0  0  1  0  0  0  0  0999 V2000
    9.0201  -14.3522   18.8822 N   0  0  0  0  0  0  0  0  0  0  0  0
    7.9333  -14.0240   18.0176 C   0  0  0  0  0  0  0  0  0  0  0  0
    7.1605  -12.9276   18.7111 C   0  0  0  0  0  0  0  0  0  0  0  0
    8.0847  -12.4318   19.8160 C   0  0  0  0  0  0  0  0  0  0  0  0
    8.8884  -13.6556   20.1205 C   0  0  1  0  0  0  0  0  0  0  0  0
    8.1246  -14.4838   21.1095 C   0  0  0  0  0  0  0  0  0  0  0  0
    7.0226  -14.0921   21.5749 O   0  0  0  0  0  0  0  0  0  0  0  0
    8.5932  -15.7452   21.5752 N   0  0  0  0  0  0  0  0  0  0  0  0
    7.8990  -16.4266   22.6794 C   0  0  1  0  0  0  0  0  0  0  0  0
    7.8526  -17.8972   22.2961 C   0  0  0  0  0  0  0  0  0  0  0  0
    6.9568  -18.8312   23.5551 S   0  0  0  0  0  0  0  0  0  0  0  0
    8.7288  -16.2482   23.8972 C   0  0  0  0  0  0  0  0  0  0  0  0
    9.9819  -16.1983   23.8759 O   0  0  0  0  0  0  0  0  0  0  0  0
    8.0881  -16.1269   25.1529 N   0  0  0  0  0  0  0  0  0  0  0  0
    8.8718  -15.9031   26.3656 C   0  0  1  0  0  0  0  0  0  0  0  0
    8.0499  -15.1747   27.4025 C   0  0  0  0  0  0  0  0  0  0  0  0
    7.5701  -13.8576   26.9930 C   0  0  0  0  0  0  0  0  0  0  0  0
    8.4732  -12.7973   26.9675 C   0  0  0  0  0  0  0  0  0  0  0  0
    8.0045  -11.5677   26.5691 C   0  0  0  0  0  0  0  0  0  0  0  0
    6.6845  -11.3684   26.2019 C   0  0  0  0  0  0  0  0  0  0  0  0
    5.7951  -12.4251   26.2299 C   0  0  0  0  0  0  0  0  0  0  0  0
    6.2468  -13.6660   26.6266 C   0  0  0  0  0  0  0  0  0  0  0  0
    9.3260  -17.2274   26.8487 C   0  0  0  0  0  0  0  0  0  0  0  0
   10.1836  -17.3375   27.7887 O   0  0  0  0  0  0  0  0  0  0  0  0
    8.8153  -18.3829   26.2765 O   0  0  0  0  0  0  0  0  0  0  0  0
  1  2  1  0
  2  3  1  0
  4  3  1  0
  5  1  1  0
  5  4  1  0
  5  6  1  1
  7  6  2  0
  8  6  1  0
  9  8  1  0
  9 10  1  6
 11 10  1  0
 12  9  1  0
 12 13  2  0
 14 12  1  0
 15 14  1  0
 15 16  1  1
 16 17  1  0
 17 22  1  0
 17 18  2  0
 18 19  1  0
 19 20  2  0
 21 20  1  0
 22 21  2  0
 23 15  1  0
 24 23  2  0
 25 23  1  0
M  END
$$$$
