PCF.pdb
     RDKit          3D

 25 26  0  0  1  0  0  0  0  0999 V2000
    8.2520  -14.3350   18.5433 N   0  0  0  0  0  0  0  0  0  0  0  0
    7.0691  -13.5396   18.4753 C   0  0  0  0  0  0  0  0  0  0  0  0
    7.1432  -12.5757   19.6353 C   0  0  0  0  0  0  0  0  0  0  0  0
    8.5874  -12.6464   20.1152 C   0  0  0  0  0  0  0  0  0  0  0  0
    8.9707  -14.0425   19.7407 C   0  0  1  0  0  0  0  0  0  0  0  0
    8.5418  -14.9589   20.8469 C   0  0  0  0  0  0  0  0  0  0  0  0
    7.3236  -15.1593   21.0923 O   0  0  0  0  0  0  0  0  0  0  0  0
    9.4735  -15.6478   21.6746 N   0  0  0  0  0  0  0  0  0  0  0  0
    8.9936  -16.5993   22.6894 C   0  0  1  0  0  0  0  0  0  0  0  0
    9.6732  -17.9221   22.3726 C   0  0  0  0  0  0  0  0  0  0  0  0
    9.1942  -19.1651   23.5913 S   0  0  0  0  0  0  0  0  0  0  0  0
    9.4508  -16.1007   24.0107 C   0  0  0  0  0  0  0  0  0  0  0  0
   10.5143  -15.4562   24.1736 O   0  0  0  0  0  0  0  0  0  0  0  0
    8.6572  -16.3578   25.1536 N   0  0  0  0  0  0  0  0  0  0  0  0
    9.1045  -15.9302   26.4772 C   0  0  1  0  0  0  0  0  0  0  0  0
    7.9505  -15.3654   27.2712 C   0  0  0  0  0  0  0  0  0  0  0  0
    7.4714  -14.0623   26.8184 C   0  0  0  0  0  0  0  0  0  0  0  0
    6.2373  -13.9921   26.1761 C   0  0  0  0  0  0  0  0  0  0  0  0
    5.7991  -12.7549   25.7667 C   0  0  0  0  0  0  0  0  0  0  0  0
    6.5428  -11.6059   25.9756 C   0  0  0  0  0  0  0  0  0  0  0  0
    7.7657  -11.6840   26.6135 C   0  0  0  0  0  0  0  0  0  0  0  0
    8.2219  -12.9162   27.0314 C   0  0  0  0  0  0  0  0  0  0  0  0
    9.7099  -17.1079   27.1406 C   0  0  0  0  0  0  0  0  0  0  0  0
    9.5549  -18.2882   26.6779 O   0  0  0  0  0  0  0  0  0  0  0  0
   10.4659  -16.9390   28.2908 O   0  0  0  0  0  0  0  0  0  0  0  0
  1  2  1  0
  2  3  1  0
  4  3  1  0
  5  1  1  0
  5  4  1  0
  5  6  1  1
  7  6  2  0
  8  6  1  0
  9  8  1  0
  9 10  1  6
 11 10  1  0
 12  9  1  0
 12 13  2  0
 14 12  1  0
 15 14  1  0
 15 16  1  1
 16 17  1  0
 17 22  1  0
 17 18  2  0
 18 19  1  0
 19 20  2  0
 21 20  1  0
 22 21  2  0
 23 15  1  0
 24 23  2  0
 25 23  1  0
M  END
$$$$
