PCF.pdb
     RDKit          3D

 25 26  0  0  1  0  0  0  0  0999 V2000
    8.7183  -15.0668   18.1480 N   0  0  0  0  0  0  0  0  0  0  0  0
    7.5396  -14.6907   17.4368 C   0  0  0  0  0  0  0  0  0  0  0  0
    7.1858  -13.3023   17.9137 C   0  0  0  0  0  0  0  0  0  0  0  0
    8.4282  -12.8073   18.6434 C   0  0  0  0  0  0  0  0  0  0  0  0
    9.0281  -14.0854   19.1362 C   0  0  1  0  0  0  0  0  0  0  0  0
    8.3806  -14.4339   20.4426 C   0  0  0  0  0  0  0  0  0  0  0  0
    8.4102  -13.6387   21.4178 O   0  0  0  0  0  0  0  0  0  0  0  0
    7.7028  -15.6680   20.6556 N   0  0  0  0  0  0  0  0  0  0  0  0
    7.0969  -15.9588   21.9647 C   0  0  1  0  0  0  0  0  0  0  0  0
    6.4177  -17.3110   21.8167 C   0  0  0  0  0  0  0  0  0  0  0  0
    7.6534  -18.6265   21.8640 S   0  0  0  0  0  0  0  0  0  0  0  0
    8.2033  -16.0547   22.9498 C   0  0  0  0  0  0  0  0  0  0  0  0
    9.3990  -16.2512   22.6260 O   0  0  0  0  0  0  0  0  0  0  0  0
    7.9097  -15.9198   24.3273 N   0  0  0  0  0  0  0  0  0  0  0  0
    8.9870  -15.8777   25.3134 C   0  0  1  0  0  0  0  0  0  0  0  0
    9.3030  -14.4508   25.6946 C   0  0  0  0  0  0  0  0  0  0  0  0
    8.1629  -13.6757   26.1760 C   0  0  0  0  0  0  0  0  0  0  0  0
    7.1132  -13.4177   25.2973 C   0  0  0  0  0  0  0  0  0  0  0  0
    6.0442  -12.6955   25.7726 C   0  0  0  0  0  0  0  0  0  0  0  0
    5.9926  -12.2312   27.0760 C   0  0  0  0  0  0  0  0  0  0  0  0
    7.0376  -12.4913   27.9413 C   0  0  0  0  0  0  0  0  0  0  0  0
    8.1185  -13.2143   27.4827 C   0  0  0  0  0  0  0  0  0  0  0  0
    8.5498  -16.6790   26.4797 C   0  0  0  0  0  0  0  0  0  0  0  0
    9.3121  -16.8623   27.4879 O   0  0  0  0  0  0  0  0  0  0  0  0
    7.2852  -17.2481   26.4908 O   0  0  0  0  0  0  0  0  0  0  0  0
  1  2  1  0
  2  3  1  0
  4  3  1  0
  5  1  1  0
  5  4  1  0
  5  6  1  1
  7  6  2  0
  8  6  1  0
  9  8  1  0
  9 10  1  6
 11 10  1  0
 12  9  1  0
 12 13  2  0
 14 12  1  0
 15 14  1  0
 15 16  1  1
 16 17  1  0
 17 22  1  0
 17 18  2  0
 18 19  1  0
 19 20  2  0
 21 20  1  0
 22 21  2  0
 23 15  1  0
 24 23  2  0
 25 23  1  0
M  END
$$$$
