PCF.pdb
     RDKit          3D

 25 26  0  0  1  0  0  0  0  0999 V2000
    9.0091  -14.5825   18.9489 N   0  0  0  0  0  0  0  0  0  0  0  0
    7.9051  -14.5056   18.0480 C   0  0  0  0  0  0  0  0  0  0  0  0
    7.0291  -13.3832   18.5511 C   0  0  0  0  0  0  0  0  0  0  0  0
    7.8938  -12.6257   19.5508 C   0  0  0  0  0  0  0  0  0  0  0  0
    8.8028  -13.7020   20.0526 C   0  0  1  0  0  0  0  0  0  0  0  0
    8.1083  -14.4178   21.1719 C   0  0  0  0  0  0  0  0  0  0  0  0
    7.4671  -13.7859   22.0516 O   0  0  0  0  0  0  0  0  0  0  0  0
    8.1321  -15.8353   21.3051 N   0  0  0  0  0  0  0  0  0  0  0  0
    7.4765  -16.4778   22.4553 C   0  0  1  0  0  0  0  0  0  0  0  0
    7.3873  -17.9559   22.1100 C   0  0  0  0  0  0  0  0  0  0  0  0
    6.4116  -18.8198   23.3597 S   0  0  0  0  0  0  0  0  0  0  0  0
    8.3633  -16.2865   23.6303 C   0  0  0  0  0  0  0  0  0  0  0  0
    9.6130  -16.2197   23.5467 O   0  0  0  0  0  0  0  0  0  0  0  0
    7.7841  -16.1721   24.9161 N   0  0  0  0  0  0  0  0  0  0  0  0
    8.6262  -15.9626   26.0917 C   0  0  1  0  0  0  0  0  0  0  0  0
    7.8894  -15.1585   27.1366 C   0  0  0  0  0  0  0  0  0  0  0  0
    7.5518  -13.7947   26.7383 C   0  0  0  0  0  0  0  0  0  0  0  0
    6.2183  -13.4867   26.4790 C   0  0  0  0  0  0  0  0  0  0  0  0
    5.9194  -12.1948   26.1157 C   0  0  0  0  0  0  0  0  0  0  0  0
    6.8948  -11.2183   26.0054 C   0  0  0  0  0  0  0  0  0  0  0  0
    8.2151  -11.5319   26.2644 C   0  0  0  0  0  0  0  0  0  0  0  0
    8.5342  -12.8224   26.6302 C   0  0  0  0  0  0  0  0  0  0  0  0
    9.0205  -17.2981   26.5963 C   0  0  0  0  0  0  0  0  0  0  0  0
    9.8577  -17.4308   27.5516 O   0  0  0  0  0  0  0  0  0  0  0  0
    8.4744  -18.4391   26.0280 O   0  0  0  0  0  0  0  0  0  0  0  0
  1  2  1  0
  2  3  1  0
  4  3  1  0
  5  1  1  0
  5  4  1  0
  5  6  1  1
  7  6  2  0
  8  6  1  0
  9  8  1  0
  9 10  1  6
 11 10  1  0
 12  9  1  0
 12 13  2  0
 14 12  1  0
 15 14  1  0
 15 16  1  1
 16 17  1  0
 17 22  1  0
 17 18  2  0
 18 19  1  0
 19 20  2  0
 21 20  1  0
 22 21  2  0
 23 15  1  0
 24 23  2  0
 25 23  1  0
M  END
$$$$
