PCF.pdb
     RDKit          3D

 25 26  0  0  1  0  0  0  0  0999 V2000
    8.1511  -14.6300   18.5900 N   0  0  0  0  0  0  0  0  0  0  0  0
    7.1232  -13.6753   18.3284 C   0  0  0  0  0  0  0  0  0  0  0  0
    7.2649  -12.6049   19.3840 C   0  0  0  0  0  0  0  0  0  0  0  0
    8.6368  -12.8405   20.0030 C   0  0  0  0  0  0  0  0  0  0  0  0
    8.8140  -14.3132   19.8132 C   0  0  1  0  0  0  0  0  0  0  0  0
    8.1572  -15.0162   20.9629 C   0  0  0  0  0  0  0  0  0  0  0  0
    6.9965  -14.7070   21.3392 O   0  0  0  0  0  0  0  0  0  0  0  0
    8.7978  -16.0609   21.6880 N   0  0  0  0  0  0  0  0  0  0  0  0
    8.1173  -16.6875   22.8324 C   0  0  1  0  0  0  0  0  0  0  0  0
    8.2646  -18.1876   22.6326 C   0  0  0  0  0  0  0  0  0  0  0  0
    7.3858  -19.0696   23.9401 S   0  0  0  0  0  0  0  0  0  0  0  0
    8.8416  -16.2680   24.0583 C   0  0  0  0  0  0  0  0  0  0  0  0
   10.0778  -16.0585   24.0905 O   0  0  0  0  0  0  0  0  0  0  0  0
    8.1142  -16.0914   25.2590 N   0  0  0  0  0  0  0  0  0  0  0  0
    8.7887  -15.6396   26.4738 C   0  0  1  0  0  0  0  0  0  0  0  0
    7.8442  -14.8403   27.3400 C   0  0  0  0  0  0  0  0  0  0  0  0
    7.3508  -13.6059   26.7357 C   0  0  0  0  0  0  0  0  0  0  0  0
    6.0208  -13.5497   26.3252 C   0  0  0  0  0  0  0  0  0  0  0  0
    5.5725  -12.3754   25.7683 C   0  0  0  0  0  0  0  0  0  0  0  0
    6.3977  -11.2746   25.6116 C   0  0  0  0  0  0  0  0  0  0  0  0
    7.7155  -11.3383   26.0213 C   0  0  0  0  0  0  0  0  0  0  0  0
    8.1832  -12.5078   26.5823 C   0  0  0  0  0  0  0  0  0  0  0  0
    9.2957  -16.8437   27.1714 C   0  0  0  0  0  0  0  0  0  0  0  0
   10.0070  -16.7535   28.2283 O   0  0  0  0  0  0  0  0  0  0  0  0
    8.9974  -18.1044   26.6768 O   0  0  0  0  0  0  0  0  0  0  0  0
  1  2  1  0
  2  3  1  0
  4  3  1  0
  5  1  1  0
  5  4  1  0
  5  6  1  1
  7  6  2  0
  8  6  1  0
  9  8  1  0
  9 10  1  6
 11 10  1  0
 12  9  1  0
 12 13  2  0
 14 12  1  0
 15 14  1  0
 15 16  1  1
 16 17  1  0
 17 22  1  0
 17 18  2  0
 18 19  1  0
 19 20  2  0
 21 20  1  0
 22 21  2  0
 23 15  1  0
 24 23  2  0
 25 23  1  0
M  END
$$$$
