PCF.pdb
     RDKit          3D

 25 26  0  0  1  0  0  0  0  0999 V2000
    7.9990  -14.1807   18.6038 N   0  0  0  0  0  0  0  0  0  0  0  0
    6.9123  -13.2834   18.8282 C   0  0  0  0  0  0  0  0  0  0  0  0
    7.3117  -12.4252   20.0047 C   0  0  0  0  0  0  0  0  0  0  0  0
    8.8078  -12.6582   20.1730 C   0  0  0  0  0  0  0  0  0  0  0  0
    8.9667  -14.0478   19.6439 C   0  0  1  0  0  0  0  0  0  0  0  0
    8.6759  -15.0091   20.7568 C   0  0  0  0  0  0  0  0  0  0  0  0
    7.4956  -15.2364   21.1305 O   0  0  0  0  0  0  0  0  0  0  0  0
    9.7028  -15.7128   21.4482 N   0  0  0  0  0  0  0  0  0  0  0  0
    9.3513  -16.7555   22.4253 C   0  0  1  0  0  0  0  0  0  0  0  0
   10.2965  -17.9150   22.1532 C   0  0  0  0  0  0  0  0  0  0  0  0
    9.9099  -19.2927   23.2542 S   0  0  0  0  0  0  0  0  0  0  0  0
    9.6120  -16.1981   23.7762 C   0  0  0  0  0  0  0  0  0  0  0  0
   10.5404  -15.3911   24.0212 O   0  0  0  0  0  0  0  0  0  0  0  0
    8.7795  -16.5875   24.8519 N   0  0  0  0  0  0  0  0  0  0  0  0
    8.9426  -15.9816   26.1715 C   0  0  1  0  0  0  0  0  0  0  0  0
    7.6048  -15.5599   26.7316 C   0  0  0  0  0  0  0  0  0  0  0  0
    7.2122  -14.1883   26.4200 C   0  0  0  0  0  0  0  0  0  0  0  0
    6.0242  -13.9766   25.7241 C   0  0  0  0  0  0  0  0  0  0  0  0
    5.6667  -12.6777   25.4496 C   0  0  0  0  0  0  0  0  0  0  0  0
    6.4460  -11.6026   25.8422 C   0  0  0  0  0  0  0  0  0  0  0  0
    7.6228  -11.8210   26.5321 C   0  0  0  0  0  0  0  0  0  0  0  0
    7.9978  -13.1170   26.8167 C   0  0  0  0  0  0  0  0  0  0  0  0
    9.6155  -16.9790   27.0353 C   0  0  0  0  0  0  0  0  0  0  0  0
   10.0486  -16.6726   28.1971 O   0  0  0  0  0  0  0  0  0  0  0  0
    9.7846  -18.2796   26.5848 O   0  0  0  0  0  0  0  0  0  0  0  0
  1  2  1  0
  2  3  1  0
  4  3  1  0
  5  1  1  0
  5  4  1  0
  5  6  1  1
  7  6  2  0
  8  6  1  0
  9  8  1  0
  9 10  1  6
 11 10  1  0
 12  9  1  0
 12 13  2  0
 14 12  1  0
 15 14  1  0
 15 16  1  1
 16 17  1  0
 17 22  1  0
 17 18  2  0
 18 19  1  0
 19 20  2  0
 21 20  1  0
 22 21  2  0
 23 15  1  0
 24 23  2  0
 25 23  1  0
M  END
$$$$
