PCF.pdb
     RDKit          3D

 25 26  0  0  1  0  0  0  0  0999 V2000
    8.8052  -14.7003   19.0792 N   0  0  0  0  0  0  0  0  0  0  0  0
    7.6357  -14.6977   18.2613 C   0  0  0  0  0  0  0  0  0  0  0  0
    6.7774  -13.5592   18.7583 C   0  0  0  0  0  0  0  0  0  0  0  0
    7.6989  -12.7264   19.6405 C   0  0  0  0  0  0  0  0  0  0  0  0
    8.6641  -13.7545   20.1383 C   0  0  1  0  0  0  0  0  0  0  0  0
    8.0695  -14.4081   21.3493 C   0  0  0  0  0  0  0  0  0  0  0  0
    7.5703  -13.7241   22.2806 O   0  0  0  0  0  0  0  0  0  0  0  0
    8.0342  -15.8217   21.5164 N   0  0  0  0  0  0  0  0  0  0  0  0
    7.4348  -16.4053   22.7271 C   0  0  1  0  0  0  0  0  0  0  0  0
    7.3000  -17.8938   22.4476 C   0  0  0  0  0  0  0  0  0  0  0  0
    6.4487  -18.7009   23.8200 S   0  0  0  0  0  0  0  0  0  0  0  0
    8.3911  -16.1855   23.8410 C   0  0  0  0  0  0  0  0  0  0  0  0
    9.6352  -16.1535   23.6849 O   0  0  0  0  0  0  0  0  0  0  0  0
    7.8886  -16.0011   25.1508 N   0  0  0  0  0  0  0  0  0  0  0  0
    8.8026  -15.8029   26.2734 C   0  0  1  0  0  0  0  0  0  0  0  0
    8.1583  -14.9473   27.3384 C   0  0  0  0  0  0  0  0  0  0  0  0
    7.6090  -13.6811   26.8615 C   0  0  0  0  0  0  0  0  0  0  0  0
    8.4866  -12.6341   26.5890 C   0  0  0  0  0  0  0  0  0  0  0  0
    7.9510  -11.4537   26.1308 C   0  0  0  0  0  0  0  0  0  0  0  0
    6.5894  -11.2899   25.9398 C   0  0  0  0  0  0  0  0  0  0  0  0
    5.7257  -12.3332   26.2123 C   0  0  0  0  0  0  0  0  0  0  0  0
    6.2444  -13.5250   26.6725 C   0  0  0  0  0  0  0  0  0  0  0  0
    9.1697  -17.1430   26.7861 C   0  0  0  0  0  0  0  0  0  0  0  0
   10.0194  -17.2879   27.7286 O   0  0  0  0  0  0  0  0  0  0  0  0
    8.5838  -18.2750   26.2398 O   0  0  0  0  0  0  0  0  0  0  0  0
  1  2  1  0
  2  3  1  0
  4  3  1  0
  5  1  1  0
  5  4  1  0
  5  6  1  1
  7  6  2  0
  8  6  1  0
  9  8  1  0
  9 10  1  6
 11 10  1  0
 12  9  1  0
 12 13  2  0
 14 12  1  0
 15 14  1  0
 15 16  1  1
 16 17  1  0
 17 22  1  0
 17 18  2  0
 18 19  1  0
 19 20  2  0
 21 20  1  0
 22 21  2  0
 23 15  1  0
 24 23  2  0
 25 23  1  0
M  END
$$$$
