PCF.pdb
     RDKit          3D

 25 26  0  0  1  0  0  0  0  0999 V2000
    9.1688  -14.4537   18.9458 N   0  0  0  0  0  0  0  0  0  0  0  0
    8.0414  -14.4275   18.0713 C   0  0  0  0  0  0  0  0  0  0  0  0
    7.1414  -13.3260   18.5784 C   0  0  0  0  0  0  0  0  0  0  0  0
    8.0048  -12.5245   19.5444 C   0  0  0  0  0  0  0  0  0  0  0  0
    8.9605  -13.5623   20.0403 C   0  0  1  0  0  0  0  0  0  0  0  0
    8.3173  -14.2817   21.1875 C   0  0  0  0  0  0  0  0  0  0  0  0
    7.7279  -13.6520   22.1042 O   0  0  0  0  0  0  0  0  0  0  0  0
    8.3343  -15.7005   21.3074 N   0  0  0  0  0  0  0  0  0  0  0  0
    7.6831  -16.3503   22.4560 C   0  0  1  0  0  0  0  0  0  0  0  0
    7.5914  -17.8259   22.1012 C   0  0  0  0  0  0  0  0  0  0  0  0
    6.6552  -18.7048   23.3704 S   0  0  0  0  0  0  0  0  0  0  0  0
    8.5751  -16.1674   23.6284 C   0  0  0  0  0  0  0  0  0  0  0  0
    9.8180  -16.0283   23.5336 O   0  0  0  0  0  0  0  0  0  0  0  0
    8.0091  -16.1471   24.9250 N   0  0  0  0  0  0  0  0  0  0  0  0
    8.8489  -15.9046   26.0959 C   0  0  1  0  0  0  0  0  0  0  0  0
    8.0572  -15.2203   27.1850 C   0  0  0  0  0  0  0  0  0  0  0  0
    7.4696  -13.9384   26.8057 C   0  0  0  0  0  0  0  0  0  0  0  0
    8.3117  -12.8405   26.6446 C   0  0  0  0  0  0  0  0  0  0  0  0
    7.7407  -11.6451   26.2769 C   0  0  0  0  0  0  0  0  0  0  0  0
    6.3780  -11.5152   26.0689 C   0  0  0  0  0  0  0  0  0  0  0  0
    5.5495  -12.6088   26.2306 C   0  0  0  0  0  0  0  0  0  0  0  0
    6.1041  -13.8163   26.5990 C   0  0  0  0  0  0  0  0  0  0  0  0
    9.3807  -17.2146   26.5369 C   0  0  0  0  0  0  0  0  0  0  0  0
   10.2424  -17.3041   27.4754 O   0  0  0  0  0  0  0  0  0  0  0  0
    8.9402  -18.3791   25.9261 O   0  0  0  0  0  0  0  0  0  0  0  0
  1  2  1  0
  2  3  1  0
  4  3  1  0
  5  1  1  0
  5  4  1  0
  5  6  1  1
  7  6  2  0
  8  6  1  0
  9  8  1  0
  9 10  1  6
 11 10  1  0
 12  9  1  0
 12 13  2  0
 14 12  1  0
 15 14  1  0
 15 16  1  1
 16 17  1  0
 17 22  1  0
 17 18  2  0
 18 19  1  0
 19 20  2  0
 21 20  1  0
 22 21  2  0
 23 15  1  0
 24 23  2  0
 25 23  1  0
M  END
$$$$
