PCF.pdb
     RDKit          3D

 25 26  0  0  1  0  0  0  0  0999 V2000
    8.0306  -15.4813   18.9339 N   0  0  0  0  0  0  0  0  0  0  0  0
    6.8875  -14.6673   18.6747 C   0  0  0  0  0  0  0  0  0  0  0  0
    7.3268  -13.2406   18.9022 C   0  0  0  0  0  0  0  0  0  0  0  0
    8.8486  -13.2982   18.9430 C   0  0  0  0  0  0  0  0  0  0  0  0
    9.0930  -14.6826   19.4530 C   0  0  1  0  0  0  0  0  0  0  0  0
    9.0386  -14.6467   20.9507 C   0  0  0  0  0  0  0  0  0  0  0  0
    9.8716  -13.9791   21.6177 O   0  0  0  0  0  0  0  0  0  0  0  0
    8.0554  -15.3556   21.6980 N   0  0  0  0  0  0  0  0  0  0  0  0
    8.0589  -15.2896   23.1681 C   0  0  1  0  0  0  0  0  0  0  0  0
    6.7056  -15.8227   23.6109 C   0  0  0  0  0  0  0  0  0  0  0  0
    6.9129  -17.4187   24.4292 S   0  0  0  0  0  0  0  0  0  0  0  0
    9.1374  -16.1906   23.6462 C   0  0  0  0  0  0  0  0  0  0  0  0
    9.5287  -17.1964   23.0072 O   0  0  0  0  0  0  0  0  0  0  0  0
    9.7651  -15.9137   24.8836 N   0  0  0  0  0  0  0  0  0  0  0  0
   10.9247  -16.6905   25.3159 C   0  0  1  0  0  0  0  0  0  0  0  0
   11.7978  -15.8733   26.2384 C   0  0  0  0  0  0  0  0  0  0  0  0
   11.1117  -15.3149   27.4004 C   0  0  0  0  0  0  0  0  0  0  0  0
   11.3131  -15.9106   28.6434 C   0  0  0  0  0  0  0  0  0  0  0  0
   10.6667  -15.3638   29.7267 C   0  0  0  0  0  0  0  0  0  0  0  0
    9.8398  -14.2596   29.6083 C   0  0  0  0  0  0  0  0  0  0  0  0
    9.6453  -13.6746   28.3720 C   0  0  0  0  0  0  0  0  0  0  0  0
   10.2854  -14.2089   27.2738 C   0  0  0  0  0  0  0  0  0  0  0  0
   10.4152  -17.9149   25.9755 C   0  0  0  0  0  0  0  0  0  0  0  0
    9.1693  -18.0829   26.2011 O   0  0  0  0  0  0  0  0  0  0  0  0
   11.3004  -18.9103   26.3609 O   0  0  0  0  0  0  0  0  0  0  0  0
  1  2  1  0
  2  3  1  0
  4  3  1  0
  5  1  1  0
  5  4  1  0
  5  6  1  1
  7  6  2  0
  8  6  1  0
  9  8  1  0
  9 10  1  1
 11 10  1  0
 12  9  1  0
 12 13  2  0
 14 12  1  0
 15 14  1  0
 15 16  1  1
 16 17  1  0
 17 22  1  0
 17 18  2  0
 18 19  1  0
 19 20  2  0
 21 20  1  0
 22 21  2  0
 23 15  1  0
 24 23  2  0
 25 23  1  0
M  END
$$$$
