MCA.pdb
     RDKit          3D

 20 19  0  0  1  0  0  0  0  0999 V2000
    7.9673  -12.0065   20.5870 C   0  0  0  0  0  0  0  0  0  0  0  0
    8.4046  -12.8857   19.0606 S   0  0  0  0  0  0  0  0  0  0  0  0
    8.0166  -14.6365   19.2713 C   0  0  0  0  0  0  0  0  0  0  0  0
    7.4562  -14.8400   20.6582 C   0  0  0  0  0  0  0  0  0  0  0  0
    7.2204  -16.2890   20.9887 C   0  0  2  0  0  0  0  0  0  0  0  0
    6.2504  -16.9245   20.1385 N   0  0  0  0  0  0  0  0  0  0  0  0
    6.8470  -16.3670   22.4228 C   0  0  0  0  0  0  0  0  0  0  0  0
    5.6505  -16.2534   22.7928 O   0  0  0  0  0  0  0  0  0  0  0  0
    7.8452  -16.5755   23.4357 N   0  0  0  0  0  0  0  0  0  0  0  0
    7.4715  -16.5063   24.8422 C   0  0  1  0  0  0  0  0  0  0  0  0
    7.3722  -17.9307   25.3710 C   0  0  0  0  0  0  0  0  0  0  0  0
    8.8516  -18.2904   26.3302 S   0  0  0  0  0  0  0  0  0  0  0  0
    8.5506  -15.7684   25.5479 C   0  0  0  0  0  0  0  0  0  0  0  0
    9.7571  -15.8352   25.1422 O   0  0  0  0  0  0  0  0  0  0  0  0
    8.8128  -12.9271   27.8088 C   0  0  0  0  0  0  0  0  0  0  0  0
    9.3764  -14.2426   27.3149 C   0  0  2  0  0  0  0  0  0  0  0  0
    8.3004  -14.9716   26.6807 N   0  0  0  0  0  0  0  0  0  0  0  0
    9.8976  -15.0527   28.4367 C   0  0  0  0  0  0  0  0  0  0  0  0
   11.0199  -14.6025   29.1149 O   0  0  0  0  0  0  0  0  0  0  0  0
    9.3527  -16.1237   28.7825 O   0  0  0  0  0  0  0  0  0  0  0  0
  2  1  1  0
  3  2  1  0
  4  3  1  0
  4  5  1  0
  5  6  1  6
  7  5  1  0
  7  9  1  0
  8  7  2  0
 10  9  1  0
 10 13  1  0
 10 11  1  1
 12 11  1  0
 13 17  1  0
 13 14  2  0
 16 15  1  1
 16 18  1  0
 17 16  1  0
 18 19  1  0
 20 18  2  0
M  END
$$$$
