MCA.pdb
     RDKit          3D

 20 19  0  0  1  0  0  0  0  0999 V2000
    8.4689  -12.8060   17.3005 C   0  0  0  0  0  0  0  0  0  0  0  0
    7.3901  -12.3729   18.6942 S   0  0  0  0  0  0  0  0  0  0  0  0
    7.0328  -13.8719   19.6354 C   0  0  0  0  0  0  0  0  0  0  0  0
    8.3408  -14.5016   20.0492 C   0  0  0  0  0  0  0  0  0  0  0  0
    8.1578  -15.7741   20.8311 C   0  0  2  0  0  0  0  0  0  0  0  0
    6.7872  -16.1967   20.9331 N   0  0  0  0  0  0  0  0  0  0  0  0
    8.7853  -15.5775   22.1614 C   0  0  0  0  0  0  0  0  0  0  0  0
   10.0174  -15.3527   22.2749 O   0  0  0  0  0  0  0  0  0  0  0  0
    8.0011  -15.6381   23.3643 N   0  0  0  0  0  0  0  0  0  0  0  0
    8.6388  -15.4077   24.6539 C   0  0  1  0  0  0  0  0  0  0  0  0
    7.5855  -14.8565   25.6054 C   0  0  0  0  0  0  0  0  0  0  0  0
    7.1978  -13.1689   25.1158 S   0  0  0  0  0  0  0  0  0  0  0  0
    9.1357  -16.7207   25.1394 C   0  0  0  0  0  0  0  0  0  0  0  0
    8.3253  -17.6752   25.3779 O   0  0  0  0  0  0  0  0  0  0  0  0
   12.3635  -18.4704   25.4752 C   0  0  0  0  0  0  0  0  0  0  0  0
   10.9338  -18.2364   25.9152 C   0  0  2  0  0  0  0  0  0  0  0  0
   10.5030  -16.9738   25.3570 N   0  0  0  0  0  0  0  0  0  0  0  0
   10.8367  -18.1581   27.3886 C   0  0  0  0  0  0  0  0  0  0  0  0
   10.9639  -19.3259   28.1249 O   0  0  0  0  0  0  0  0  0  0  0  0
   10.6444  -17.0720   27.9775 O   0  0  0  0  0  0  0  0  0  0  0  0
  2  1  1  0
  3  2  1  0
  4  3  1  0
  4  5  1  0
  5  6  1  1
  7  5  1  0
  7  9  1  0
  8  7  2  0
 10  9  1  0
 10 13  1  0
 10 11  1  1
 12 11  1  0
 13 17  1  0
 13 14  2  0
 16 15  1  1
 16 18  1  0
 17 16  1  0
 18 19  1  0
 20 18  2  0
M  END
$$$$
