MCA.pdb
     RDKit          3D

 20 19  0  0  1  0  0  0  0  0999 V2000
    7.2848  -12.4627   28.4895 C   0  0  0  0  0  0  0  0  0  0  0  0
    6.9406  -11.9356   26.7873 S   0  0  0  0  0  0  0  0  0  0  0  0
    6.1184  -13.2885   25.9188 C   0  0  0  0  0  0  0  0  0  0  0  0
    7.0974  -14.4279   25.7698 C   0  0  0  0  0  0  0  0  0  0  0  0
    6.5407  -15.5798   24.9778 C   0  0  2  0  0  0  0  0  0  0  0  0
    5.8678  -16.5624   25.7835 N   0  0  0  0  0  0  0  0  0  0  0  0
    7.6558  -16.1652   24.1929 C   0  0  0  0  0  0  0  0  0  0  0  0
    8.3076  -17.1517   24.6209 O   0  0  0  0  0  0  0  0  0  0  0  0
    8.0255  -15.6205   22.9153 N   0  0  0  0  0  0  0  0  0  0  0  0
    8.9960  -16.3218   22.0853 C   0  0  1  0  0  0  0  0  0  0  0  0
    8.9055  -15.7522   20.6761 C   0  0  0  0  0  0  0  0  0  0  0  0
    7.2562  -16.0742   20.0326 S   0  0  0  0  0  0  0  0  0  0  0  0
   10.3394  -16.0591   22.6624 C   0  0  0  0  0  0  0  0  0  0  0  0
   10.7427  -14.8653   22.8546 O   0  0  0  0  0  0  0  0  0  0  0  0
   13.0181  -18.0153   24.3007 C   0  0  0  0  0  0  0  0  0  0  0  0
   12.5312  -16.7937   23.5504 C   0  0  2  0  0  0  0  0  0  0  0  0
   11.2203  -17.0967   23.0203 N   0  0  0  0  0  0  0  0  0  0  0  0
   13.4315  -16.4675   22.4237 C   0  0  0  0  0  0  0  0  0  0  0  0
   14.6231  -15.8127   22.6948 O   0  0  0  0  0  0  0  0  0  0  0  0
   13.1431  -16.7668   21.2444 O   0  0  0  0  0  0  0  0  0  0  0  0
  2  1  1  0
  3  2  1  0
  4  3  1  0
  4  5  1  0
  5  6  1  1
  7  5  1  0
  7  9  1  0
  8  7  2  0
 10  9  1  0
 10 13  1  0
 10 11  1  6
 12 11  1  0
 13 17  1  0
 13 14  2  0
 16 15  1  6
 16 18  1  0
 17 16  1  0
 18 19  1  0
 20 18  2  0
M  END
$$$$
