MCA.pdb
     RDKit          3D

 20 19  0  0  1  0  0  0  0  0999 V2000
    7.6558  -11.9783   20.0859 C   0  0  0  0  0  0  0  0  0  0  0  0
    8.5390  -12.8807   18.7823 S   0  0  0  0  0  0  0  0  0  0  0  0
    8.2454  -14.6485   19.0031 C   0  0  0  0  0  0  0  0  0  0  0  0
    7.5841  -14.8611   20.3434 C   0  0  0  0  0  0  0  0  0  0  0  0
    7.2952  -16.3094   20.6318 C   0  0  2  0  0  0  0  0  0  0  0  0
    6.3823  -16.9128   19.6989 N   0  0  0  0  0  0  0  0  0  0  0  0
    6.8096  -16.4001   22.0311 C   0  0  0  0  0  0  0  0  0  0  0  0
    5.5950  -16.2358   22.3124 O   0  0  0  0  0  0  0  0  0  0  0  0
    7.7161  -16.6795   23.1109 N   0  0  0  0  0  0  0  0  0  0  0  0
    7.2368  -16.6328   24.4859 C   0  0  1  0  0  0  0  0  0  0  0  0
    7.6146  -17.9455   25.1585 C   0  0  0  0  0  0  0  0  0  0  0  0
    7.3125  -17.7917   26.9257 S   0  0  0  0  0  0  0  0  0  0  0  0
    7.9229  -15.4960   25.1521 C   0  0  0  0  0  0  0  0  0  0  0  0
    9.1874  -15.3600   25.0683 O   0  0  0  0  0  0  0  0  0  0  0  0
    6.8967  -12.4535   27.0397 C   0  0  0  0  0  0  0  0  0  0  0  0
    7.9303  -13.4230   26.5069 C   0  0  2  0  0  0  0  0  0  0  0  0
    7.2239  -14.5277   25.8970 N   0  0  0  0  0  0  0  0  0  0  0  0
    8.7777  -13.9501   27.5980 C   0  0  0  0  0  0  0  0  0  0  0  0
    9.7423  -13.1205   28.1488 O   0  0  0  0  0  0  0  0  0  0  0  0
    8.6434  -15.1160   28.0294 O   0  0  0  0  0  0  0  0  0  0  0  0
  2  1  1  0
  3  2  1  0
  4  3  1  0
  4  5  1  0
  5  6  1  6
  7  5  1  0
  7  9  1  0
  8  7  2  0
 10  9  1  0
 10 13  1  0
 10 11  1  1
 12 11  1  0
 13 17  1  0
 13 14  2  0
 16 15  1  1
 16 18  1  0
 17 16  1  0
 18 19  1  0
 20 18  2  0
M  END
$$$$
