MCA.pdb
     RDKit          3D

 20 19  0  0  1  0  0  0  0  0999 V2000
    8.0902  -11.7202   19.8545 C   0  0  0  0  0  0  0  0  0  0  0  0
    7.6556  -13.2815   19.0376 S   0  0  0  0  0  0  0  0  0  0  0  0
    7.8284  -14.6254   20.2312 C   0  0  0  0  0  0  0  0  0  0  0  0
    9.2991  -14.8787   20.4586 C   0  0  0  0  0  0  0  0  0  0  0  0
    9.5581  -15.9676   21.4643 C   0  0  2  0  0  0  0  0  0  0  0  0
    8.8856  -17.2026   21.1638 N   0  0  0  0  0  0  0  0  0  0  0  0
    9.1915  -15.4395   22.8017 C   0  0  0  0  0  0  0  0  0  0  0  0
    9.6428  -14.3412   23.2158 O   0  0  0  0  0  0  0  0  0  0  0  0
    8.3064  -16.1698   23.6672 N   0  0  0  0  0  0  0  0  0  0  0  0
    7.8405  -15.5586   24.9049 C   0  0  1  0  0  0  0  0  0  0  0  0
    6.6760  -16.3888   25.4277 C   0  0  0  0  0  0  0  0  0  0  0  0
    7.2563  -18.0657   25.7265 S   0  0  0  0  0  0  0  0  0  0  0  0
    8.9723  -15.5951   25.8664 C   0  0  0  0  0  0  0  0  0  0  0  0
    9.9915  -16.3275   25.6440 O   0  0  0  0  0  0  0  0  0  0  0  0
    9.9412  -13.7283   28.9381 C   0  0  0  0  0  0  0  0  0  0  0  0
   10.1486  -14.8100   27.8992 C   0  0  2  0  0  0  0  0  0  0  0  0
    8.9773  -14.8359   27.0515 N   0  0  0  0  0  0  0  0  0  0  0  0
   10.2997  -16.1363   28.5351 C   0  0  0  0  0  0  0  0  0  0  0  0
    9.2035  -16.9844   28.5695 O   0  0  0  0  0  0  0  0  0  0  0  0
   11.3842  -16.5046   29.0369 O   0  0  0  0  0  0  0  0  0  0  0  0
  2  1  1  0
  3  2  1  0
  4  3  1  0
  4  5  1  0
  5  6  1  6
  7  5  1  0
  7  9  1  0
  8  7  2  0
 10  9  1  0
 10 13  1  0
 10 11  1  1
 12 11  1  0
 13 17  1  0
 13 14  2  0
 16 15  1  1
 16 18  1  0
 17 16  1  0
 18 19  1  0
 20 18  2  0
M  END
$$$$
