MCA.pdb
     RDKit          3D

 20 19  0  0  1  0  0  0  0  0999 V2000
   10.5605  -13.1024   29.8159 C   0  0  0  0  0  0  0  0  0  0  0  0
   10.2623  -14.0285   28.2839 S   0  0  0  0  0  0  0  0  0  0  0  0
    9.7169  -15.6954   28.7135 C   0  0  0  0  0  0  0  0  0  0  0  0
    9.3588  -16.4256   27.4418 C   0  0  0  0  0  0  0  0  0  0  0  0
   10.5293  -16.5908   26.5108 C   0  0  2  0  0  0  0  0  0  0  0  0
   11.3615  -15.4219   26.4168 N   0  0  0  0  0  0  0  0  0  0  0  0
    9.9967  -17.0087   25.1902 C   0  0  0  0  0  0  0  0  0  0  0  0
    9.1773  -17.9570   25.0875 O   0  0  0  0  0  0  0  0  0  0  0  0
   10.4027  -16.3397   23.9847 N   0  0  0  0  0  0  0  0  0  0  0  0
    9.8644  -16.7736   22.7023 C   0  0  1  0  0  0  0  0  0  0  0  0
    9.3734  -15.5390   21.9586 C   0  0  0  0  0  0  0  0  0  0  0  0
    8.0414  -14.7898   22.9086 S   0  0  0  0  0  0  0  0  0  0  0  0
   10.9748  -17.4181   21.9548 C   0  0  0  0  0  0  0  0  0  0  0  0
   12.0760  -16.8039   21.7682 O   0  0  0  0  0  0  0  0  0  0  0  0
   11.6348  -20.7429   20.4106 C   0  0  0  0  0  0  0  0  0  0  0  0
   11.9551  -19.2833   20.6539 C   0  0  2  0  0  0  0  0  0  0  0  0
   10.8697  -18.7172   21.4238 N   0  0  0  0  0  0  0  0  0  0  0  0
   12.0646  -18.5429   19.3786 C   0  0  0  0  0  0  0  0  0  0  0  0
   13.3069  -18.4494   18.7702 O   0  0  0  0  0  0  0  0  0  0  0  0
   11.0705  -18.0055   18.8435 O   0  0  0  0  0  0  0  0  0  0  0  0
  2  1  1  0
  3  2  1  0
  4  3  1  0
  4  5  1  0
  5  6  1  6
  7  5  1  0
  7  9  1  0
  8  7  2  0
 10  9  1  0
 10 13  1  0
 10 11  1  6
 12 11  1  0
 13 17  1  0
 13 14  2  0
 16 15  1  6
 16 18  1  0
 17 16  1  0
 18 19  1  0
 20 18  2  0
M  END
$$$$
