MCA.pdb
     RDKit          3D

 20 19  0  0  1  0  0  0  0  0999 V2000
    8.5463  -12.3087   27.0560 C   0  0  0  0  0  0  0  0  0  0  0  0
    6.7560  -12.0393   26.9289 S   0  0  0  0  0  0  0  0  0  0  0  0
    6.0696  -13.2521   25.7807 C   0  0  0  0  0  0  0  0  0  0  0  0
    7.0496  -14.3924   25.6451 C   0  0  0  0  0  0  0  0  0  0  0  0
    6.6052  -15.4329   24.6531 C   0  0  2  0  0  0  0  0  0  0  0  0
    5.3213  -16.0061   24.9541 N   0  0  0  0  0  0  0  0  0  0  0  0
    7.6734  -16.4597   24.5710 C   0  0  0  0  0  0  0  0  0  0  0  0
    7.6406  -17.4940   25.2855 O   0  0  0  0  0  0  0  0  0  0  0  0
    8.7815  -16.3024   23.6693 N   0  0  0  0  0  0  0  0  0  0  0  0
    9.7240  -17.3982   23.4862 C   0  0  1  0  0  0  0  0  0  0  0  0
   10.5317  -17.1157   22.2267 C   0  0  0  0  0  0  0  0  0  0  0  0
   11.1868  -15.4429   22.3292 S   0  0  0  0  0  0  0  0  0  0  0  0
   10.6135  -17.4164   24.6758 C   0  0  0  0  0  0  0  0  0  0  0  0
   10.8948  -16.3379   25.2942 O   0  0  0  0  0  0  0  0  0  0  0  0
   11.7085  -19.7320   27.2136 C   0  0  0  0  0  0  0  0  0  0  0  0
   12.0702  -18.5703   26.3126 C   0  0  2  0  0  0  0  0  0  0  0  0
   11.1812  -18.6046   25.1725 N   0  0  0  0  0  0  0  0  0  0  0  0
   13.4625  -18.6859   25.8284 C   0  0  0  0  0  0  0  0  0  0  0  0
   14.4968  -18.5172   26.7361 O   0  0  0  0  0  0  0  0  0  0  0  0
   13.7232  -18.9302   24.6301 O   0  0  0  0  0  0  0  0  0  0  0  0
  2  1  1  0
  3  2  1  0
  4  3  1  0
  4  5  1  0
  5  6  1  1
  7  5  1  0
  7  9  1  0
  8  7  2  0
 10  9  1  0
 10 13  1  0
 10 11  1  6
 12 11  1  0
 13 17  1  0
 13 14  2  0
 16 15  1  1
 16 18  1  0
 17 16  1  0
 18 19  1  0
 20 18  2  0
M  END
$$$$
