MCA.pdb
     RDKit          3D

 20 19  0  0  1  0  0  0  0  0999 V2000
    9.4055  -11.7681   19.4957 C   0  0  0  0  0  0  0  0  0  0  0  0
    8.4141  -13.0418   20.3256 S   0  0  0  0  0  0  0  0  0  0  0  0
    7.2514  -13.7374   19.1320 C   0  0  0  0  0  0  0  0  0  0  0  0
    6.3589  -14.7211   19.8492 C   0  0  0  0  0  0  0  0  0  0  0  0
    7.1075  -15.9140   20.3792 C   0  0  2  0  0  0  0  0  0  0  0  0
    6.9339  -17.1023   19.5885 N   0  0  0  0  0  0  0  0  0  0  0  0
    6.6933  -16.1129   21.7903 C   0  0  0  0  0  0  0  0  0  0  0  0
    5.5152  -16.4398   22.0847 O   0  0  0  0  0  0  0  0  0  0  0  0
    7.6294  -15.9373   22.8667 N   0  0  0  0  0  0  0  0  0  0  0  0
    7.1851  -16.1047   24.2440 C   0  0  1  0  0  0  0  0  0  0  0  0
    7.8112  -17.3824   24.7862 C   0  0  0  0  0  0  0  0  0  0  0  0
    7.5001  -17.4666   26.5565 S   0  0  0  0  0  0  0  0  0  0  0  0
    7.6711  -14.9276   25.0088 C   0  0  0  0  0  0  0  0  0  0  0  0
    8.8814  -14.5408   24.9080 O   0  0  0  0  0  0  0  0  0  0  0  0
    6.1873  -12.3457   27.2431 C   0  0  0  0  0  0  0  0  0  0  0  0
    7.3600  -13.0742   26.6215 C   0  0  2  0  0  0  0  0  0  0  0  0
    6.8346  -14.1917   25.8689 N   0  0  0  0  0  0  0  0  0  0  0  0
    8.2748  -13.5938   27.6604 C   0  0  0  0  0  0  0  0  0  0  0  0
    9.0795  -12.6962   28.3452 O   0  0  0  0  0  0  0  0  0  0  0  0
    8.3367  -14.8130   27.9311 O   0  0  0  0  0  0  0  0  0  0  0  0
  2  1  1  0
  3  2  1  0
  4  3  1  0
  4  5  1  0
  5  6  1  6
  7  5  1  0
  7  9  1  0
  8  7  2  0
 10  9  1  0
 10 13  1  0
 10 11  1  1
 12 11  1  0
 13 17  1  0
 13 14  2  0
 16 15  1  1
 16 18  1  0
 17 16  1  0
 18 19  1  0
 20 18  2  0
M  END
$$$$
