MCA.pdb
     RDKit          3D

 20 19  0  0  1  0  0  0  0  0999 V2000
    8.0348  -11.6984   20.7512 C   0  0  0  0  0  0  0  0  0  0  0  0
    7.8784  -12.4646   19.1134 S   0  0  0  0  0  0  0  0  0  0  0  0
    8.4648  -14.1693   19.2149 C   0  0  0  0  0  0  0  0  0  0  0  0
    8.2083  -14.6825   20.6113 C   0  0  0  0  0  0  0  0  0  0  0  0
    8.6036  -16.1235   20.7885 C   0  0  2  0  0  0  0  0  0  0  0  0
    7.9274  -17.0219   19.8923 N   0  0  0  0  0  0  0  0  0  0  0  0
    8.3816  -16.4777   22.2123 C   0  0  0  0  0  0  0  0  0  0  0  0
    7.2380  -16.7809   22.6387 O   0  0  0  0  0  0  0  0  0  0  0  0
    9.4706  -16.4853   23.1502 N   0  0  0  0  0  0  0  0  0  0  0  0
    9.2191  -16.8206   24.5455 C   0  0  1  0  0  0  0  0  0  0  0  0
    9.9446  -18.1238   24.8521 C   0  0  0  0  0  0  0  0  0  0  0  0
   11.6157  -18.0181   24.1931 S   0  0  0  0  0  0  0  0  0  0  0  0
    9.7730  -15.7159   25.3698 C   0  0  0  0  0  0  0  0  0  0  0  0
   10.8250  -15.0959   25.0043 O   0  0  0  0  0  0  0  0  0  0  0  0
    8.7825  -13.2262   27.6904 C   0  0  0  0  0  0  0  0  0  0  0  0
    9.8091  -14.3011   27.4019 C   0  0  2  0  0  0  0  0  0  0  0  0
    9.1750  -15.3043   26.5756 N   0  0  0  0  0  0  0  0  0  0  0  0
   10.2725  -14.9430   28.6507 C   0  0  0  0  0  0  0  0  0  0  0  0
   11.0328  -14.1967   29.5379 O   0  0  0  0  0  0  0  0  0  0  0  0
    9.9956  -16.1323   28.9200 O   0  0  0  0  0  0  0  0  0  0  0  0
  2  1  1  0
  3  2  1  0
  4  3  1  0
  4  5  1  0
  5  6  1  6
  7  5  1  0
  7  9  1  0
  8  7  2  0
 10  9  1  0
 10 13  1  0
 10 11  1  1
 12 11  1  0
 13 17  1  0
 13 14  2  0
 16 15  1  1
 16 18  1  0
 17 16  1  0
 18 19  1  0
 20 18  2  0
M  END
$$$$
