MCA.pdb
     RDKit          3D

 20 19  0  0  1  0  0  0  0  0999 V2000
    5.3980  -11.4894   27.3737 C   0  0  0  0  0  0  0  0  0  0  0  0
    6.5103  -12.5257   26.3825 S   0  0  0  0  0  0  0  0  0  0  0  0
    7.0433  -13.9272   27.3885 C   0  0  0  0  0  0  0  0  0  0  0  0
    7.8515  -14.8610   26.5202 C   0  0  0  0  0  0  0  0  0  0  0  0
    7.0031  -15.6528   25.5624 C   0  0  2  0  0  0  0  0  0  0  0  0
    6.2813  -16.7294   26.1850 N   0  0  0  0  0  0  0  0  0  0  0  0
    7.8860  -16.1275   24.4681 C   0  0  0  0  0  0  0  0  0  0  0  0
    8.4418  -17.2543   24.5203 O   0  0  0  0  0  0  0  0  0  0  0  0
    8.1331  -15.3109   23.3115 N   0  0  0  0  0  0  0  0  0  0  0  0
    8.8892  -15.8557   22.1916 C   0  0  1  0  0  0  0  0  0  0  0  0
    8.6926  -14.9296   20.9990 C   0  0  0  0  0  0  0  0  0  0  0  0
    6.9468  -14.9196   20.5630 S   0  0  0  0  0  0  0  0  0  0  0  0
   10.3184  -15.8791   22.5961 C   0  0  0  0  0  0  0  0  0  0  0  0
   10.8428  -14.8806   23.1900 O   0  0  0  0  0  0  0  0  0  0  0  0
   12.9250  -18.4424   23.0194 C   0  0  0  0  0  0  0  0  0  0  0  0
   12.5155  -16.9971   22.8307 C   0  0  2  0  0  0  0  0  0  0  0  0
   11.1521  -16.9856   22.3487 N   0  0  0  0  0  0  0  0  0  0  0  0
   13.3746  -16.3269   21.8312 C   0  0  0  0  0  0  0  0  0  0  0  0
   14.6318  -15.8922   22.2216 O   0  0  0  0  0  0  0  0  0  0  0  0
   12.9944  -16.1461   20.6537 O   0  0  0  0  0  0  0  0  0  0  0  0
  2  1  1  0
  3  2  1  0
  4  3  1  0
  4  5  1  0
  5  6  1  1
  7  5  1  0
  7  9  1  0
  8  7  2  0
 10  9  1  0
 10 13  1  0
 10 11  1  6
 12 11  1  0
 13 17  1  0
 13 14  2  0
 16 15  1  6
 16 18  1  0
 17 16  1  0
 18 19  1  0
 20 18  2  0
M  END
$$$$
