MCA.pdb
     RDKit          3D

 20 19  0  0  1  0  0  0  0  0999 V2000
    8.0587  -11.8240   26.3304 C   0  0  0  0  0  0  0  0  0  0  0  0
    6.4949  -12.1998   27.1713 S   0  0  0  0  0  0  0  0  0  0  0  0
    5.8708  -13.7770   26.5522 C   0  0  0  0  0  0  0  0  0  0  0  0
    6.9719  -14.4565   25.7745 C   0  0  0  0  0  0  0  0  0  0  0  0
    6.5441  -15.7700   25.1780 C   0  0  2  0  0  0  0  0  0  0  0  0
    6.2151  -16.7692   26.1583 N   0  0  0  0  0  0  0  0  0  0  0  0
    7.6205  -16.2174   24.2596 C   0  0  0  0  0  0  0  0  0  0  0  0
    8.3430  -17.2091   24.5349 O   0  0  0  0  0  0  0  0  0  0  0  0
    7.8703  -15.5283   23.0232 N   0  0  0  0  0  0  0  0  0  0  0  0
    8.8423  -16.0665   22.0808 C   0  0  1  0  0  0  0  0  0  0  0  0
    8.8106  -15.1998   20.8293 C   0  0  0  0  0  0  0  0  0  0  0  0
   10.0078  -15.8483   19.6527 S   0  0  0  0  0  0  0  0  0  0  0  0
   10.1758  -15.9855   22.7304 C   0  0  0  0  0  0  0  0  0  0  0  0
   10.5638  -14.9066   23.2871 O   0  0  0  0  0  0  0  0  0  0  0  0
   12.8986  -18.3755   23.5776 C   0  0  0  0  0  0  0  0  0  0  0  0
   12.3132  -16.9823   23.4856 C   0  0  2  0  0  0  0  0  0  0  0  0
   11.0637  -17.0770   22.7638 N   0  0  0  0  0  0  0  0  0  0  0  0
   13.2163  -16.0735   22.7475 C   0  0  0  0  0  0  0  0  0  0  0  0
   14.1460  -15.3358   23.4641 O   0  0  0  0  0  0  0  0  0  0  0  0
   13.1592  -15.9580   21.5037 O   0  0  0  0  0  0  0  0  0  0  0  0
  2  1  1  0
  3  2  1  0
  4  3  1  0
  4  5  1  0
  5  6  1  1
  7  5  1  0
  7  9  1  0
  8  7  2  0
 10  9  1  0
 10 13  1  0
 10 11  1  6
 12 11  1  0
 13 17  1  0
 13 14  2  0
 16 15  1  6
 16 18  1  0
 17 16  1  0
 18 19  1  0
 20 18  2  0
M  END
$$$$
