MCA.pdb
     RDKit          3D

 20 19  0  0  1  0  0  0  0  0999 V2000
    7.4686  -12.1567   21.1729 C   0  0  0  0  0  0  0  0  0  0  0  0
    8.2671  -12.9159   19.7307 S   0  0  0  0  0  0  0  0  0  0  0  0
    7.8807  -14.6797   19.7185 C   0  0  0  0  0  0  0  0  0  0  0  0
    8.9448  -15.4092   20.5024 C   0  0  0  0  0  0  0  0  0  0  0  0
    8.3906  -16.1692   21.6769 C   0  0  2  0  0  0  0  0  0  0  0  0
    6.9538  -16.1799   21.7314 N   0  0  0  0  0  0  0  0  0  0  0  0
    8.9950  -15.5984   22.9061 C   0  0  0  0  0  0  0  0  0  0  0  0
   10.2406  -15.4701   23.0219 O   0  0  0  0  0  0  0  0  0  0  0  0
    8.1721  -15.1734   24.0052 N   0  0  0  0  0  0  0  0  0  0  0  0
    8.7944  -14.6227   25.2019 C   0  0  1  0  0  0  0  0  0  0  0  0
    7.7954  -13.6789   25.8572 C   0  0  0  0  0  0  0  0  0  0  0  0
    8.5502  -12.9807   27.3340 S   0  0  0  0  0  0  0  0  0  0  0  0
    9.0955  -15.7630   26.1052 C   0  0  0  0  0  0  0  0  0  0  0  0
    8.1806  -16.5828   26.4451 O   0  0  0  0  0  0  0  0  0  0  0  0
   11.8146  -17.8956   26.8404 C   0  0  0  0  0  0  0  0  0  0  0  0
   10.6452  -17.1507   27.4487 C   0  0  2  0  0  0  0  0  0  0  0  0
   10.3839  -15.9926   26.6229 N   0  0  0  0  0  0  0  0  0  0  0  0
   10.9614  -16.6915   28.8182 C   0  0  0  0  0  0  0  0  0  0  0  0
   10.9543  -15.3300   29.0797 O   0  0  0  0  0  0  0  0  0  0  0  0
   11.2321  -17.4973   29.7352 O   0  0  0  0  0  0  0  0  0  0  0  0
  2  1  1  0
  3  2  1  0
  4  3  1  0
  4  5  1  0
  5  6  1  1
  7  5  1  0
  7  9  1  0
  8  7  2  0
 10  9  1  0
 10 13  1  0
 10 11  1  1
 12 11  1  0
 13 17  1  0
 13 14  2  0
 16 15  1  6
 16 18  1  0
 17 16  1  0
 18 19  1  0
 20 18  2  0
M  END
$$$$
