MCA.pdb
     RDKit          3D

 20 19  0  0  1  0  0  0  0  0999 V2000
    8.2922  -12.3256   28.2532 C   0  0  0  0  0  0  0  0  0  0  0  0
    6.9346  -11.9945   27.0951 S   0  0  0  0  0  0  0  0  0  0  0  0
    6.2072  -13.5689   26.5926 C   0  0  0  0  0  0  0  0  0  0  0  0
    7.2515  -14.3632   25.8460 C   0  0  0  0  0  0  0  0  0  0  0  0
    6.7020  -15.6210   25.2294 C   0  0  2  0  0  0  0  0  0  0  0  0
    6.2353  -16.5801   26.1936 N   0  0  0  0  0  0  0  0  0  0  0  0
    7.7514  -16.1814   24.3424 C   0  0  0  0  0  0  0  0  0  0  0  0
    8.4011  -17.2077   24.6677 O   0  0  0  0  0  0  0  0  0  0  0  0
    8.0577  -15.5659   23.0802 N   0  0  0  0  0  0  0  0  0  0  0  0
    9.0679  -16.1594   22.2142 C   0  0  1  0  0  0  0  0  0  0  0  0
    8.9518  -15.5067   20.8435 C   0  0  0  0  0  0  0  0  0  0  0  0
    7.4159  -14.5711   20.7825 S   0  0  0  0  0  0  0  0  0  0  0  0
   10.3929  -15.8619   22.8164 C   0  0  0  0  0  0  0  0  0  0  0  0
   10.6447  -14.7087   23.2975 O   0  0  0  0  0  0  0  0  0  0  0  0
   13.2727  -17.7976   24.0391 C   0  0  0  0  0  0  0  0  0  0  0  0
   12.6768  -16.5034   23.5269 C   0  0  2  0  0  0  0  0  0  0  0  0
   11.4203  -16.8213   22.8855 N   0  0  0  0  0  0  0  0  0  0  0  0
   13.5657  -15.8654   22.5323 C   0  0  0  0  0  0  0  0  0  0  0  0
   14.6855  -15.1840   22.9838 O   0  0  0  0  0  0  0  0  0  0  0  0
   13.3305  -15.9272   21.3058 O   0  0  0  0  0  0  0  0  0  0  0  0
  2  1  1  0
  3  2  1  0
  4  3  1  0
  4  5  1  0
  5  6  1  1
  7  5  1  0
  7  9  1  0
  8  7  2  0
 10  9  1  0
 10 13  1  0
 10 11  1  6
 12 11  1  0
 13 17  1  0
 13 14  2  0
 16 15  1  6
 16 18  1  0
 17 16  1  0
 18 19  1  0
 20 18  2  0
M  END
$$$$
