MCA.pdb
     RDKit          3D

 20 19  0  0  1  0  0  0  0  0999 V2000
    8.0397  -11.8102   19.6683 C   0  0  0  0  0  0  0  0  0  0  0  0
    7.3095  -13.3700   19.0957 S   0  0  0  0  0  0  0  0  0  0  0  0
    7.3498  -14.5594   20.4537 C   0  0  0  0  0  0  0  0  0  0  0  0
    8.7620  -15.0720   20.6005 C   0  0  0  0  0  0  0  0  0  0  0  0
    8.9408  -15.9634   21.7995 C   0  0  2  0  0  0  0  0  0  0  0  0
    7.9929  -17.0428   21.8627 N   0  0  0  0  0  0  0  0  0  0  0  0
    8.8944  -15.1039   23.0084 C   0  0  0  0  0  0  0  0  0  0  0  0
    9.7488  -14.2014   23.2006 O   0  0  0  0  0  0  0  0  0  0  0  0
    7.8680  -15.2775   23.9993 N   0  0  0  0  0  0  0  0  0  0  0  0
    7.8830  -14.4595   25.2049 C   0  0  1  0  0  0  0  0  0  0  0  0
    6.5215  -14.5872   25.8744 C   0  0  0  0  0  0  0  0  0  0  0  0
    6.2437  -13.1285   26.8908 S   0  0  0  0  0  0  0  0  0  0  0  0
    8.9458  -15.0011   26.0903 C   0  0  0  0  0  0  0  0  0  0  0  0
    9.4588  -16.1461   25.8656 O   0  0  0  0  0  0  0  0  0  0  0  0
   10.7929  -13.8490   29.1188 C   0  0  0  0  0  0  0  0  0  0  0  0
   10.4440  -14.8711   28.0577 C   0  0  2  0  0  0  0  0  0  0  0  0
    9.4324  -14.2901   27.2032 N   0  0  0  0  0  0  0  0  0  0  0  0
    9.8971  -16.1032   28.6654 C   0  0  0  0  0  0  0  0  0  0  0  0
   10.7824  -17.0477   29.1615 O   0  0  0  0  0  0  0  0  0  0  0  0
    8.6659  -16.3082   28.7400 O   0  0  0  0  0  0  0  0  0  0  0  0
  2  1  1  0
  3  2  1  0
  4  3  1  0
  4  5  1  0
  5  6  1  1
  7  5  1  0
  7  9  1  0
  8  7  2  0
 10  9  1  0
 10 13  1  0
 10 11  1  1
 12 11  1  0
 13 17  1  0
 13 14  2  0
 16 15  1  1
 16 18  1  0
 17 16  1  0
 18 19  1  0
 20 18  2  0
M  END
$$$$
