NMM.pdb
     RDKit          3D

 25 24  0  0  1  0  0  0  0  0999 V2000
    6.9138  -21.5568   19.3679 N   0  0  0  0  0  0  0  0  0  0  0  0
    6.5697  -20.2438   18.9735 C   0  0  0  0  0  0  0  0  0  0  0  0
    5.4100  -19.9972   18.5669 O   0  0  0  0  0  0  0  0  0  0  0  0
    7.5746  -19.1741   19.0426 C   0  0  0  0  0  0  0  0  0  0  0  0
    8.2097  -19.1690   20.4148 C   0  0  2  0  0  0  0  0  0  0  0  0
    7.1879  -19.3440   21.4038 N   0  0  0  0  0  0  0  0  0  0  0  0
    8.9732  -17.9002   20.6410 C   0  0  0  0  0  0  0  0  0  0  0  0
   10.0854  -17.7677   20.0447 O   0  0  0  0  0  0  0  0  0  0  0  0
    7.1139  -12.4569   18.9265 C   0  0  0  0  0  0  0  0  0  0  0  0
    7.5514  -11.9990   20.6251 S   0  0  0  0  0  0  0  0  0  0  0  0
    8.7221  -13.1759   21.2966 C   0  0  0  0  0  0  0  0  0  0  0  0
    8.3160  -14.5848   21.1700 C   0  0  0  0  0  0  0  0  0  0  0  0
    9.2452  -15.6378   21.6663 C   0  0  2  0  0  0  0  0  0  0  0  0
    8.4512  -16.9012   21.4936 N   0  0  0  0  0  0  0  0  0  0  0  0
    9.5719  -15.4926   23.0836 C   0  0  0  0  0  0  0  0  0  0  0  0
   10.1893  -14.4473   23.5209 O   0  0  0  0  0  0  0  0  0  0  0  0
    6.2275  -12.0303   26.1720 C   0  0  0  0  0  0  0  0  0  0  0  0
    7.7003  -12.7916   26.9139 S   0  0  0  0  0  0  0  0  0  0  0  0
    7.5237  -14.6229   26.7691 C   0  0  0  0  0  0  0  0  0  0  0  0
    7.8523  -15.0257   25.3642 C   0  0  0  0  0  0  0  0  0  0  0  0
    8.9830  -16.0796   25.4052 C   0  0  2  0  0  0  0  0  0  0  0  0
    9.1974  -16.5045   24.0067 N   0  0  0  0  0  0  0  0  0  0  0  0
    8.6186  -17.2427   26.2087 C   0  0  0  0  0  0  0  0  0  0  0  0
    8.9377  -17.2815   27.5683 O   0  0  0  0  0  0  0  0  0  0  0  0
    8.0146  -18.2363   25.7022 O   0  0  0  0  0  0  0  0  0  0  0  0
  1  2  1  0
  2  4  1  0
  2  3  2  0
  4  5  1  0
  5  7  1  0
  5  6  1  1
  7  8  2  0
 10  9  1  0
 10 11  1  0
 12 11  1  0
 13 12  1  1
 14 13  1  0
 14  7  1  0
 15 16  2  0
 15 13  1  0
 17 18  1  0
 19 18  1  0
 19 20  1  0
 21 20  1  6
 21 22  1  0
 21 23  1  0
 22 15  1  0
 23 24  1  0
 25 23  2  0
M  END
$$$$
