NMM.pdb
     RDKit          3D

 25 24  0  0  1  0  0  0  0  0999 V2000
    8.3604  -17.9033   17.2038 N   0  0  0  0  0  0  0  0  0  0  0  0
    9.3419  -17.2540   17.9868 C   0  0  0  0  0  0  0  0  0  0  0  0
   10.5553  -17.3817   17.6997 O   0  0  0  0  0  0  0  0  0  0  0  0
    8.9337  -16.4321   19.1343 C   0  0  0  0  0  0  0  0  0  0  0  0
    9.3941  -17.0921   20.4144 C   0  0  2  0  0  0  0  0  0  0  0  0
    8.5411  -18.2079   20.6984 N   0  0  0  0  0  0  0  0  0  0  0  0
    9.3987  -16.1101   21.5455 C   0  0  0  0  0  0  0  0  0  0  0  0
   10.0918  -15.0562   21.4077 O   0  0  0  0  0  0  0  0  0  0  0  0
    6.4430  -12.0849   26.7422 C   0  0  0  0  0  0  0  0  0  0  0  0
    7.1487  -12.9971   25.3436 S   0  0  0  0  0  0  0  0  0  0  0  0
    6.7009  -14.7277   25.4499 C   0  0  0  0  0  0  0  0  0  0  0  0
    7.1456  -15.5470   24.3111 C   0  0  0  0  0  0  0  0  0  0  0  0
    8.4737  -15.2545   23.7033 C   0  0  2  0  0  0  0  0  0  0  0  0
    8.6489  -16.3718   22.7146 N   0  0  0  0  0  0  0  0  0  0  0  0
    9.5717  -15.3190   24.6662 C   0  0  0  0  0  0  0  0  0  0  0  0
    9.7586  -14.3763   25.5271 O   0  0  0  0  0  0  0  0  0  0  0  0
    9.7800  -13.5048   28.9852 C   0  0  0  0  0  0  0  0  0  0  0  0
   11.1875  -14.5745   29.4024 S   0  0  0  0  0  0  0  0  0  0  0  0
   11.0948  -16.0741   28.3307 C   0  0  0  0  0  0  0  0  0  0  0  0
   10.7832  -15.6430   26.9303 C   0  0  0  0  0  0  0  0  0  0  0  0
   10.9821  -16.8515   25.9865 C   0  0  2  0  0  0  0  0  0  0  0  0
   10.4456  -16.4382   24.6737 N   0  0  0  0  0  0  0  0  0  0  0  0
   10.2593  -18.0324   26.4492 C   0  0  0  0  0  0  0  0  0  0  0  0
   10.8011  -18.8340   27.4572 O   0  0  0  0  0  0  0  0  0  0  0  0
    9.1385  -18.3605   25.9545 O   0  0  0  0  0  0  0  0  0  0  0  0
  1  2  1  0
  2  4  1  0
  2  3  2  0
  4  5  1  0
  5  7  1  0
  5  6  1  1
  7  8  2  0
 10  9  1  0
 10 11  1  0
 12 11  1  0
 13 12  1  1
 14 13  1  0
 14  7  1  0
 15 16  2  0
 15 13  1  0
 17 18  1  0
 19 18  1  0
 19 20  1  0
 21 20  1  1
 21 22  1  0
 21 23  1  0
 22 15  1  0
 23 24  1  0
 25 23  2  0
M  END
$$$$
