NMM.pdb
     RDKit          3D

 25 24  0  0  1  0  0  0  0  0999 V2000
   11.6436  -18.5994   17.9853 N   0  0  0  0  0  0  0  0  0  0  0  0
   12.0995  -17.2616   18.0071 C   0  0  0  0  0  0  0  0  0  0  0  0
   12.8904  -16.8565   17.1231 O   0  0  0  0  0  0  0  0  0  0  0  0
   11.6431  -16.3523   19.0671 C   0  0  0  0  0  0  0  0  0  0  0  0
   10.8006  -17.1206   20.0602 C   0  0  2  0  0  0  0  0  0  0  0  0
    9.6150  -17.5877   19.4052 N   0  0  0  0  0  0  0  0  0  0  0  0
   10.4664  -16.2669   21.2448 C   0  0  0  0  0  0  0  0  0  0  0  0
   11.3442  -15.4411   21.6421 O   0  0  0  0  0  0  0  0  0  0  0  0
    6.3959  -12.5059   26.0173 C   0  0  0  0  0  0  0  0  0  0  0  0
    7.3411  -13.1900   24.6298 S   0  0  0  0  0  0  0  0  0  0  0  0
    6.7867  -14.8543   24.2699 C   0  0  0  0  0  0  0  0  0  0  0  0
    7.4380  -15.4793   23.1075 C   0  0  0  0  0  0  0  0  0  0  0  0
    8.9264  -15.5155   23.0634 C   0  0  2  0  0  0  0  0  0  0  0  0
    9.2105  -16.3959   21.8798 N   0  0  0  0  0  0  0  0  0  0  0  0
    9.5203  -16.1343   24.2471 C   0  0  0  0  0  0  0  0  0  0  0  0
    9.8498  -17.3818   24.2520 O   0  0  0  0  0  0  0  0  0  0  0  0
   10.1038  -13.0087   29.7681 C   0  0  0  0  0  0  0  0  0  0  0  0
   10.8975  -14.5351   30.3506 S   0  0  0  0  0  0  0  0  0  0  0  0
   10.9886  -15.7041   28.9254 C   0  0  0  0  0  0  0  0  0  0  0  0
   10.3743  -15.0469   27.7276 C   0  0  0  0  0  0  0  0  0  0  0  0
   10.4032  -16.0461   26.5479 C   0  0  2  0  0  0  0  0  0  0  0  0
    9.7560  -15.3577   25.4124 N   0  0  0  0  0  0  0  0  0  0  0  0
    9.6667  -17.2701   26.8488 C   0  0  0  0  0  0  0  0  0  0  0  0
   10.3551  -18.4266   27.2239 O   0  0  0  0  0  0  0  0  0  0  0  0
    8.4015  -17.3181   26.7761 O   0  0  0  0  0  0  0  0  0  0  0  0
  1  2  1  0
  2  4  1  0
  2  3  2  0
  4  5  1  0
  5  7  1  0
  5  6  1  6
  7  8  2  0
 10  9  1  0
 10 11  1  0
 12 11  1  0
 13 12  1  1
 14 13  1  0
 14  7  1  0
 15 16  2  0
 15 13  1  0
 17 18  1  0
 19 18  1  0
 19 20  1  0
 21 20  1  1
 21 22  1  0
 21 23  1  0
 22 15  1  0
 23 24  1  0
 25 23  2  0
M  END
$$$$
