NMM.pdb
     RDKit          3D

 25 24  0  0  1  0  0  0  0  0999 V2000
    9.1868  -17.6280   17.8201 N   0  0  0  0  0  0  0  0  0  0  0  0
    7.8391  -17.9219   18.1290 C   0  0  0  0  0  0  0  0  0  0  0  0
    7.1746  -18.6716   17.3758 O   0  0  0  0  0  0  0  0  0  0  0  0
    7.2241  -17.3461   19.3328 C   0  0  0  0  0  0  0  0  0  0  0  0
    8.0542  -17.7083   20.5436 C   0  0  2  0  0  0  0  0  0  0  0  0
    7.2568  -18.4914   21.4402 N   0  0  0  0  0  0  0  0  0  0  0  0
    8.5766  -16.4760   21.2163 C   0  0  0  0  0  0  0  0  0  0  0  0
    9.4861  -15.8209   20.6216 O   0  0  0  0  0  0  0  0  0  0  0  0
    6.5430  -11.3705   26.8609 C   0  0  0  0  0  0  0  0  0  0  0  0
    6.1626  -12.7751   25.7797 S   0  0  0  0  0  0  0  0  0  0  0  0
    7.5774  -13.1599   24.7516 C   0  0  0  0  0  0  0  0  0  0  0  0
    7.3891  -14.3127   23.8564 C   0  0  0  0  0  0  0  0  0  0  0  0
    8.5539  -14.7892   23.0596 C   0  0  2  0  0  0  0  0  0  0  0  0
    8.0579  -16.0785   22.4694 N   0  0  0  0  0  0  0  0  0  0  0  0
    9.7279  -15.0828   23.8795 C   0  0  0  0  0  0  0  0  0  0  0  0
   10.5342  -14.1452   24.2479 O   0  0  0  0  0  0  0  0  0  0  0  0
   10.0818  -13.4081   28.8701 C   0  0  0  0  0  0  0  0  0  0  0  0
   10.0720  -15.1781   29.2782 S   0  0  0  0  0  0  0  0  0  0  0  0
   10.9108  -16.0796   27.9036 C   0  0  0  0  0  0  0  0  0  0  0  0
   10.0922  -15.9230   26.6589 C   0  0  0  0  0  0  0  0  0  0  0  0
   10.8509  -16.5816   25.4837 C   0  0  2  0  0  0  0  0  0  0  0  0
    9.9892  -16.4152   24.2955 N   0  0  0  0  0  0  0  0  0  0  0  0
   11.0836  -18.0048   25.7110 C   0  0  0  0  0  0  0  0  0  0  0  0
   12.0708  -18.4176   26.6094 O   0  0  0  0  0  0  0  0  0  0  0  0
   10.4090  -18.8924   25.1064 O   0  0  0  0  0  0  0  0  0  0  0  0
  1  2  1  0
  2  4  1  0
  2  3  2  0
  4  5  1  0
  5  7  1  0
  5  6  1  1
  7  8  2  0
 10  9  1  0
 10 11  1  0
 12 11  1  0
 13 12  1  1
 14 13  1  0
 14  7  1  0
 15 16  2  0
 15 13  1  0
 17 18  1  0
 19 18  1  0
 19 20  1  0
 21 20  1  1
 21 22  1  0
 21 23  1  0
 22 15  1  0
 23 24  1  0
 25 23  2  0
M  END
$$$$
