NMM.pdb
     RDKit          3D

 25 24  0  0  1  0  0  0  0  0999 V2000
    7.9124  -18.0950   16.7937 N   0  0  0  0  0  0  0  0  0  0  0  0
    8.7846  -18.2202   17.8990 C   0  0  0  0  0  0  0  0  0  0  0  0
    9.3581  -19.3122   18.1218 O   0  0  0  0  0  0  0  0  0  0  0  0
    9.0144  -17.0681   18.7814 C   0  0  0  0  0  0  0  0  0  0  0  0
    8.9287  -17.5145   20.2235 C   0  0  2  0  0  0  0  0  0  0  0  0
    7.5963  -17.9659   20.4950 N   0  0  0  0  0  0  0  0  0  0  0  0
    9.3248  -16.4036   21.1470 C   0  0  0  0  0  0  0  0  0  0  0  0
   10.4737  -15.8885   20.9900 O   0  0  0  0  0  0  0  0  0  0  0  0
    6.3701  -11.7849   26.8622 C   0  0  0  0  0  0  0  0  0  0  0  0
    6.1654  -13.1559   25.6939 S   0  0  0  0  0  0  0  0  0  0  0  0
    7.7167  -13.4943   24.8658 C   0  0  0  0  0  0  0  0  0  0  0  0
    7.6295  -14.4865   23.7824 C   0  0  0  0  0  0  0  0  0  0  0  0
    8.8720  -14.8346   23.0382 C   0  0  2  0  0  0  0  0  0  0  0  0
    8.4317  -15.9631   22.1499 N   0  0  0  0  0  0  0  0  0  0  0  0
    9.9415  -15.3252   23.9055 C   0  0  0  0  0  0  0  0  0  0  0  0
   10.9943  -14.6143   24.1317 O   0  0  0  0  0  0  0  0  0  0  0  0
   11.3342  -14.2377   30.1391 C   0  0  0  0  0  0  0  0  0  0  0  0
    9.9235  -14.2811   28.9956 S   0  0  0  0  0  0  0  0  0  0  0  0
    9.8868  -15.9490   28.2065 C   0  0  0  0  0  0  0  0  0  0  0  0
    9.4693  -15.7926   26.7764 C   0  0  0  0  0  0  0  0  0  0  0  0
   10.3513  -16.7135   25.9018 C   0  0  2  0  0  0  0  0  0  0  0  0
    9.8262  -16.5972   24.5260 N   0  0  0  0  0  0  0  0  0  0  0  0
   10.2765  -18.1082   26.3268 C   0  0  0  0  0  0  0  0  0  0  0  0
   10.9680  -18.5309   27.4648 O   0  0  0  0  0  0  0  0  0  0  0  0
    9.5952  -18.9624   25.6829 O   0  0  0  0  0  0  0  0  0  0  0  0
  1  2  1  0
  2  4  1  0
  2  3  2  0
  4  5  1  0
  5  7  1  0
  5  6  1  1
  7  8  2  0
 10  9  1  0
 10 11  1  0
 12 11  1  0
 13 12  1  1
 14 13  1  0
 14  7  1  0
 15 16  2  0
 15 13  1  0
 17 18  1  0
 19 18  1  0
 19 20  1  0
 21 20  1  1
 21 22  1  0
 21 23  1  0
 22 15  1  0
 23 24  1  0
 25 23  2  0
M  END
$$$$
