NMM.pdb
     RDKit          3D

 25 24  0  0  1  0  0  0  0  0999 V2000
    6.2838  -18.7554   19.0893 N   0  0  0  0  0  0  0  0  0  0  0  0
    7.2114  -19.4479   19.9004 C   0  0  0  0  0  0  0  0  0  0  0  0
    7.1465  -20.6958   19.9983 O   0  0  0  0  0  0  0  0  0  0  0  0
    8.2480  -18.7000   20.6251 C   0  0  0  0  0  0  0  0  0  0  0  0
    8.0530  -17.2185   20.3941 C   0  0  2  0  0  0  0  0  0  0  0  0
    8.6746  -16.8524   19.1561 N   0  0  0  0  0  0  0  0  0  0  0  0
    8.6097  -16.4258   21.5367 C   0  0  0  0  0  0  0  0  0  0  0  0
    9.8314  -16.0879   21.4793 O   0  0  0  0  0  0  0  0  0  0  0  0
    6.3496  -11.0210   25.4288 C   0  0  0  0  0  0  0  0  0  0  0  0
    5.9977  -12.7175   25.9621 S   0  0  0  0  0  0  0  0  0  0  0  0
    7.3751  -13.7874   25.5561 C   0  0  0  0  0  0  0  0  0  0  0  0
    7.1833  -14.6004   24.3445 C   0  0  0  0  0  0  0  0  0  0  0  0
    8.3767  -15.2405   23.7240 C   0  0  2  0  0  0  0  0  0  0  0  0
    7.7821  -16.0791   22.6286 N   0  0  0  0  0  0  0  0  0  0  0  0
    9.0938  -16.1256   24.6400 C   0  0  0  0  0  0  0  0  0  0  0  0
    8.4927  -17.1047   25.2273 O   0  0  0  0  0  0  0  0  0  0  0  0
   10.0260  -13.2112   29.3599 C   0  0  0  0  0  0  0  0  0  0  0  0
   11.1521  -14.6126   29.6192 S   0  0  0  0  0  0  0  0  0  0  0  0
   10.5272  -16.0323   28.6193 C   0  0  0  0  0  0  0  0  0  0  0  0
   10.1739  -15.5351   27.2511 C   0  0  0  0  0  0  0  0  0  0  0  0
   10.9838  -16.3410   26.2093 C   0  0  2  0  0  0  0  0  0  0  0  0
   10.4778  -15.9238   24.8856 N   0  0  0  0  0  0  0  0  0  0  0  0
   10.7943  -17.7803   26.3626 C   0  0  0  0  0  0  0  0  0  0  0  0
   11.9026  -18.6253   26.4618 O   0  0  0  0  0  0  0  0  0  0  0  0
    9.6366  -18.2963   26.4062 O   0  0  0  0  0  0  0  0  0  0  0  0
  1  2  1  0
  2  4  1  0
  2  3  2  0
  4  5  1  0
  5  7  1  0
  5  6  1  6
  7  8  2  0
 10  9  1  0
 10 11  1  0
 12 11  1  0
 13 12  1  1
 14 13  1  0
 14  7  1  0
 15 16  2  0
 15 13  1  0
 17 18  1  0
 19 18  1  0
 19 20  1  0
 21 20  1  1
 21 22  1  0
 21 23  1  0
 22 15  1  0
 23 24  1  0
 25 23  2  0
M  END
$$$$
