NMM.pdb
     RDKit          3D

 25 24  0  0  1  0  0  0  0  0999 V2000
    9.2441  -22.6290   19.5236 N   0  0  0  0  0  0  0  0  0  0  0  0
    8.4532  -21.7649   20.3147 C   0  0  0  0  0  0  0  0  0  0  0  0
    8.7223  -21.6080   21.5288 O   0  0  0  0  0  0  0  0  0  0  0  0
    7.3186  -21.0548   19.7087 C   0  0  0  0  0  0  0  0  0  0  0  0
    6.7838  -20.0340   20.6876 C   0  0  2  0  0  0  0  0  0  0  0  0
    5.4179  -19.7464   20.3639 N   0  0  0  0  0  0  0  0  0  0  0  0
    7.6200  -18.7914   20.6680 C   0  0  0  0  0  0  0  0  0  0  0  0
    8.8263  -18.8992   20.2895 O   0  0  0  0  0  0  0  0  0  0  0  0
    7.9068  -11.1662   19.5317 C   0  0  0  0  0  0  0  0  0  0  0  0
    7.1863  -12.8134   19.2994 S   0  0  0  0  0  0  0  0  0  0  0  0
    7.9856  -13.9924   20.3847 C   0  0  0  0  0  0  0  0  0  0  0  0
    7.3622  -15.3253   20.4072 C   0  0  0  0  0  0  0  0  0  0  0  0
    7.9901  -16.3877   21.2414 C   0  0  2  0  0  0  0  0  0  0  0  0
    7.0612  -17.5546   21.0622 N   0  0  0  0  0  0  0  0  0  0  0  0
    8.0323  -16.0503   22.6630 C   0  0  0  0  0  0  0  0  0  0  0  0
    6.9799  -15.6283   23.2788 O   0  0  0  0  0  0  0  0  0  0  0  0
    7.2071  -11.9318   28.0658 C   0  0  0  0  0  0  0  0  0  0  0  0
    6.9008  -13.3287   26.9459 S   0  0  0  0  0  0  0  0  0  0  0  0
    8.4920  -13.7387   26.1057 C   0  0  0  0  0  0  0  0  0  0  0  0
    8.2179  -14.7365   25.0225 C   0  0  0  0  0  0  0  0  0  0  0  0
    9.5609  -15.1354   24.3682 C   0  0  2  0  0  0  0  0  0  0  0  0
    9.2414  -16.1980   23.3929 N   0  0  0  0  0  0  0  0  0  0  0  0
   10.5139  -15.6529   25.3455 C   0  0  0  0  0  0  0  0  0  0  0  0
   11.0935  -14.7924   26.2811 O   0  0  0  0  0  0  0  0  0  0  0  0
   10.8397  -16.8784   25.3700 O   0  0  0  0  0  0  0  0  0  0  0  0
  1  2  1  0
  2  4  1  0
  2  3  2  0
  4  5  1  0
  5  7  1  0
  5  6  1  6
  7  8  2  0
 10  9  1  0
 10 11  1  0
 12 11  1  0
 13 12  1  6
 14 13  1  0
 14  7  1  0
 15 16  2  0
 15 13  1  0
 17 18  1  0
 19 18  1  0
 19 20  1  0
 21 20  1  1
 21 22  1  0
 21 23  1  0
 22 15  1  0
 23 24  1  0
 25 23  2  0
M  END
$$$$
