NMM.pdb
     RDKit          3D

 25 24  0  0  1  0  0  0  0  0999 V2000
    9.0304  -16.8817   16.9085 N   0  0  0  0  0  0  0  0  0  0  0  0
   10.0550  -16.8317   17.8810 C   0  0  0  0  0  0  0  0  0  0  0  0
   11.1114  -17.4842   17.7097 O   0  0  0  0  0  0  0  0  0  0  0  0
    9.8757  -16.0143   19.0886 C   0  0  0  0  0  0  0  0  0  0  0  0
    9.9642  -16.8986   20.3119 C   0  0  2  0  0  0  0  0  0  0  0  0
    8.8411  -17.7882   20.3282 N   0  0  0  0  0  0  0  0  0  0  0  0
   10.0213  -16.0728   21.5603 C   0  0  0  0  0  0  0  0  0  0  0  0
   11.0235  -15.3105   21.7170 O   0  0  0  0  0  0  0  0  0  0  0  0
    6.1112  -13.1976   26.3484 C   0  0  0  0  0  0  0  0  0  0  0  0
    7.0073  -12.5647   24.9052 S   0  0  0  0  0  0  0  0  0  0  0  0
    7.2454  -13.8740   23.7070 C   0  0  0  0  0  0  0  0  0  0  0  0
    7.8176  -15.1127   24.2582 C   0  0  0  0  0  0  0  0  0  0  0  0
    9.1962  -15.5005   23.8484 C   0  0  2  0  0  0  0  0  0  0  0  0
    8.9825  -16.1580   22.5148 N   0  0  0  0  0  0  0  0  0  0  0  0
    9.8084  -16.4771   24.7474 C   0  0  0  0  0  0  0  0  0  0  0  0
    9.9614  -17.7073   24.3896 O   0  0  0  0  0  0  0  0  0  0  0  0
   10.1640  -13.1304   28.3725 C   0  0  0  0  0  0  0  0  0  0  0  0
   10.8779  -14.2639   29.5992 S   0  0  0  0  0  0  0  0  0  0  0  0
   10.6733  -15.9849   28.9650 C   0  0  0  0  0  0  0  0  0  0  0  0
   11.7334  -16.2460   27.9393 C   0  0  0  0  0  0  0  0  0  0  0  0
   11.1036  -17.0373   26.7697 C   0  0  2  0  0  0  0  0  0  0  0  0
   10.2586  -16.0754   26.0328 N   0  0  0  0  0  0  0  0  0  0  0  0
   10.2732  -18.1419   27.2403 C   0  0  0  0  0  0  0  0  0  0  0  0
   10.8690  -19.3234   27.6886 O   0  0  0  0  0  0  0  0  0  0  0  0
    9.0075  -18.0624   27.2519 O   0  0  0  0  0  0  0  0  0  0  0  0
  1  2  1  0
  2  4  1  0
  2  3  2  0
  4  5  1  0
  5  7  1  0
  5  6  1  1
  7  8  2  0
 10  9  1  0
 10 11  1  0
 12 11  1  0
 13 12  1  1
 14 13  1  0
 14  7  1  0
 15 16  2  0
 15 13  1  0
 17 18  1  0
 19 18  1  0
 19 20  1  0
 21 20  1  1
 21 22  1  0
 21 23  1  0
 22 15  1  0
 23 24  1  0
 25 23  2  0
M  END
$$$$
