NMM.pdb
     RDKit          3D

 25 24  0  0  1  0  0  0  0  0999 V2000
   11.0082  -18.5568   17.5868 N   0  0  0  0  0  0  0  0  0  0  0  0
    9.8004  -18.3033   18.2760 C   0  0  0  0  0  0  0  0  0  0  0  0
    8.8387  -19.0994   18.1649 O   0  0  0  0  0  0  0  0  0  0  0  0
    9.6791  -17.1066   19.1198 C   0  0  0  0  0  0  0  0  0  0  0  0
    9.5187  -17.5242   20.5642 C   0  0  2  0  0  0  0  0  0  0  0  0
    8.2774  -18.2242   20.7136 N   0  0  0  0  0  0  0  0  0  0  0  0
    9.5836  -16.3336   21.4708 C   0  0  0  0  0  0  0  0  0  0  0  0
   10.6295  -15.6164   21.4273 O   0  0  0  0  0  0  0  0  0  0  0  0
    7.5721  -11.9372   26.5934 C   0  0  0  0  0  0  0  0  0  0  0  0
    6.3726  -13.0677   25.8386 S   0  0  0  0  0  0  0  0  0  0  0  0
    6.8011  -13.3638   24.1253 C   0  0  0  0  0  0  0  0  0  0  0  0
    7.2838  -14.7246   23.8406 C   0  0  0  0  0  0  0  0  0  0  0  0
    8.6566  -14.8883   23.2861 C   0  0  2  0  0  0  0  0  0  0  0  0
    8.5043  -16.0411   22.3351 N   0  0  0  0  0  0  0  0  0  0  0  0
    9.6438  -15.2577   24.2989 C   0  0  0  0  0  0  0  0  0  0  0  0
   10.5860  -14.4442   24.6384 O   0  0  0  0  0  0  0  0  0  0  0  0
    9.9568  -13.1061   28.9941 C   0  0  0  0  0  0  0  0  0  0  0  0
    9.9844  -14.7617   29.7409 S   0  0  0  0  0  0  0  0  0  0  0  0
   10.6263  -15.9419   28.4755 C   0  0  0  0  0  0  0  0  0  0  0  0
    9.8048  -15.8020   27.2307 C   0  0  0  0  0  0  0  0  0  0  0  0
   10.4083  -16.7132   26.1369 C   0  0  2  0  0  0  0  0  0  0  0  0
    9.5677  -16.5241   24.9369 N   0  0  0  0  0  0  0  0  0  0  0  0
   10.3834  -18.1212   26.5220 C   0  0  0  0  0  0  0  0  0  0  0  0
    9.5721  -19.0222   25.8279 O   0  0  0  0  0  0  0  0  0  0  0  0
   11.0842  -18.5583   27.4844 O   0  0  0  0  0  0  0  0  0  0  0  0
  1  2  1  0
  2  4  1  0
  2  3  2  0
  4  5  1  0
  5  7  1  0
  5  6  1  6
  7  8  2  0
 10  9  1  0
 10 11  1  0
 12 11  1  0
 13 12  1  1
 14 13  1  0
 14  7  1  0
 15 16  2  0
 15 13  1  0
 17 18  1  0
 19 18  1  0
 19 20  1  0
 21 20  1  1
 21 22  1  0
 21 23  1  0
 22 15  1  0
 23 24  1  0
 25 23  2  0
M  END
$$$$
