NMM.pdb
     RDKit          3D

 25 24  0  0  1  0  0  0  0  0999 V2000
    8.3016  -21.9415   18.1085 N   0  0  0  0  0  0  0  0  0  0  0  0
    7.6802  -20.8157   18.6953 C   0  0  0  0  0  0  0  0  0  0  0  0
    6.4595  -20.8521   18.9775 O   0  0  0  0  0  0  0  0  0  0  0  0
    8.4697  -19.6078   18.9716 C   0  0  0  0  0  0  0  0  0  0  0  0
    8.8079  -19.5543   20.4444 C   0  0  2  0  0  0  0  0  0  0  0  0
    7.5944  -19.6011   21.2049 N   0  0  0  0  0  0  0  0  0  0  0  0
    9.6010  -18.3239   20.7621 C   0  0  0  0  0  0  0  0  0  0  0  0
   10.8346  -18.3253   20.4648 O   0  0  0  0  0  0  0  0  0  0  0  0
    6.2536  -12.5144   21.3031 C   0  0  0  0  0  0  0  0  0  0  0  0
    7.5784  -12.5293   20.0656 S   0  0  0  0  0  0  0  0  0  0  0  0
    8.9391  -13.5450   20.6343 C   0  0  0  0  0  0  0  0  0  0  0  0
    8.6071  -14.9667   20.8194 C   0  0  0  0  0  0  0  0  0  0  0  0
    9.6733  -15.8862   21.3059 C   0  0  2  0  0  0  0  0  0  0  0  0
    8.9737  -17.2139   21.3717 N   0  0  0  0  0  0  0  0  0  0  0  0
   10.1498  -15.5529   22.6470 C   0  0  0  0  0  0  0  0  0  0  0  0
   10.8145  -14.4691   22.8673 O   0  0  0  0  0  0  0  0  0  0  0  0
    6.8257  -11.7188   26.7792 C   0  0  0  0  0  0  0  0  0  0  0  0
    6.5252  -13.4109   26.1910 S   0  0  0  0  0  0  0  0  0  0  0  0
    8.1187  -14.3363   26.2942 C   0  0  0  0  0  0  0  0  0  0  0  0
    8.4348  -14.8970   24.9416 C   0  0  0  0  0  0  0  0  0  0  0  0
    9.6933  -15.7876   25.0590 C   0  0  2  0  0  0  0  0  0  0  0  0
    9.8717  -16.4205   23.7361 N   0  0  0  0  0  0  0  0  0  0  0  0
    9.5353  -16.8283   26.0705 C   0  0  0  0  0  0  0  0  0  0  0  0
    9.4589  -18.1699   25.6881 O   0  0  0  0  0  0  0  0  0  0  0  0
    9.4607  -16.5478   27.3051 O   0  0  0  0  0  0  0  0  0  0  0  0
  1  2  1  0
  2  4  1  0
  2  3  2  0
  4  5  1  0
  5  7  1  0
  5  6  1  1
  7  8  2  0
 10  9  1  0
 10 11  1  0
 12 11  1  0
 13 12  1  1
 14 13  1  0
 14  7  1  0
 15 16  2  0
 15 13  1  0
 17 18  1  0
 19 18  1  0
 19 20  1  0
 21 20  1  6
 21 22  1  0
 21 23  1  0
 22 15  1  0
 23 24  1  0
 25 23  2  0
M  END
$$$$
