NMM.pdb
     RDKit          3D

 25 24  0  0  1  0  0  0  0  0999 V2000
   13.3514  -17.6243   17.0734 N   0  0  0  0  0  0  0  0  0  0  0  0
   13.6077  -17.0935   18.3581 C   0  0  0  0  0  0  0  0  0  0  0  0
   14.7793  -17.0722   18.8030 O   0  0  0  0  0  0  0  0  0  0  0  0
   12.4980  -16.5689   19.1657 C   0  0  0  0  0  0  0  0  0  0  0  0
   12.3481  -17.4044   20.4169 C   0  0  2  0  0  0  0  0  0  0  0  0
   11.5066  -18.5283   20.1308 N   0  0  0  0  0  0  0  0  0  0  0  0
   11.7940  -16.5828   21.5401 C   0  0  0  0  0  0  0  0  0  0  0  0
   12.5743  -15.7589   22.1079 O   0  0  0  0  0  0  0  0  0  0  0  0
    7.2220  -13.3776   19.5512 C   0  0  0  0  0  0  0  0  0  0  0  0
    6.7635  -13.9399   21.2126 S   0  0  0  0  0  0  0  0  0  0  0  0
    8.2301  -14.1388   22.2206 C   0  0  0  0  0  0  0  0  0  0  0  0
    8.5439  -15.5315   22.5782 C   0  0  0  0  0  0  0  0  0  0  0  0
    9.9261  -15.8530   23.0308 C   0  0  2  0  0  0  0  0  0  0  0  0
   10.4458  -16.7388   21.9345 N   0  0  0  0  0  0  0  0  0  0  0  0
    9.9587  -16.6070   24.2827 C   0  0  0  0  0  0  0  0  0  0  0  0
   10.1860  -17.8771   24.2893 O   0  0  0  0  0  0  0  0  0  0  0  0
    9.4246  -12.7375   28.2656 C   0  0  0  0  0  0  0  0  0  0  0  0
   10.8493  -13.5455   29.0510 S   0  0  0  0  0  0  0  0  0  0  0  0
   11.0970  -15.1789   28.2284 C   0  0  0  0  0  0  0  0  0  0  0  0
    9.7545  -15.7727   27.9299 C   0  0  0  0  0  0  0  0  0  0  0  0
    9.9020  -16.7535   26.7436 C   0  0  2  0  0  0  0  0  0  0  0  0
    9.7519  -15.9405   25.5194 N   0  0  0  0  0  0  0  0  0  0  0  0
    8.8743  -17.7902   26.7592 C   0  0  0  0  0  0  0  0  0  0  0  0
    9.0972  -18.9860   27.4465 O   0  0  0  0  0  0  0  0  0  0  0  0
    7.7691  -17.6381   26.1559 O   0  0  0  0  0  0  0  0  0  0  0  0
  1  2  1  0
  2  4  1  0
  2  3  2  0
  4  5  1  0
  5  7  1  0
  5  6  1  6
  7  8  2  0
 10  9  1  0
 10 11  1  0
 12 11  1  0
 13 12  1  6
 14 13  1  0
 14  7  1  0
 15 16  2  0
 15 13  1  0
 17 18  1  0
 19 18  1  0
 19 20  1  0
 21 20  1  1
 21 22  1  0
 21 23  1  0
 22 15  1  0
 23 24  1  0
 25 23  2  0
M  END
$$$$
