NMM.pdb
     RDKit          3D

 25 24  0  0  1  0  0  0  0  0999 V2000
    9.0652  -16.3144   16.4991 N   0  0  0  0  0  0  0  0  0  0  0  0
    9.7067  -16.9813   17.5676 C   0  0  0  0  0  0  0  0  0  0  0  0
    9.9796  -18.2007   17.4692 O   0  0  0  0  0  0  0  0  0  0  0  0
   10.0505  -16.2405   18.7890 C   0  0  0  0  0  0  0  0  0  0  0  0
    9.6321  -17.0446   19.9992 C   0  0  2  0  0  0  0  0  0  0  0  0
    8.2631  -17.4396   19.8478 N   0  0  0  0  0  0  0  0  0  0  0  0
    9.8340  -16.2553   21.2562 C   0  0  0  0  0  0  0  0  0  0  0  0
   10.9586  -15.6922   21.4238 O   0  0  0  0  0  0  0  0  0  0  0  0
    5.7173  -12.0128   26.3645 C   0  0  0  0  0  0  0  0  0  0  0  0
    5.7726  -13.2774   25.0667 S   0  0  0  0  0  0  0  0  0  0  0  0
    7.4607  -13.8129   24.8021 C   0  0  0  0  0  0  0  0  0  0  0  0
    7.6425  -14.7262   23.6625 C   0  0  0  0  0  0  0  0  0  0  0  0
    9.0059  -15.2630   23.3947 C   0  0  2  0  0  0  0  0  0  0  0  0
    8.7924  -16.1568   22.2063 N   0  0  0  0  0  0  0  0  0  0  0  0
    9.5275  -16.0766   24.4914 C   0  0  0  0  0  0  0  0  0  0  0  0
    9.2437  -17.3320   24.5827 O   0  0  0  0  0  0  0  0  0  0  0  0
   11.3607  -13.4610   30.0288 C   0  0  0  0  0  0  0  0  0  0  0  0
   12.1526  -15.0777   30.2706 S   0  0  0  0  0  0  0  0  0  0  0  0
   11.5410  -16.2101   28.9479 C   0  0  0  0  0  0  0  0  0  0  0  0
   11.2222  -15.3965   27.7312 C   0  0  0  0  0  0  0  0  0  0  0  0
   10.7708  -16.3527   26.6031 C   0  0  2  0  0  0  0  0  0  0  0  0
   10.3722  -15.4911   25.4712 N   0  0  0  0  0  0  0  0  0  0  0  0
    9.6323  -17.1739   27.0040 C   0  0  0  0  0  0  0  0  0  0  0  0
    8.3526  -16.6159   27.0606 O   0  0  0  0  0  0  0  0  0  0  0  0
    9.7713  -18.3966   27.3106 O   0  0  0  0  0  0  0  0  0  0  0  0
  1  2  1  0
  2  4  1  0
  2  3  2  0
  4  5  1  0
  5  7  1  0
  5  6  1  6
  7  8  2  0
 10  9  1  0
 10 11  1  0
 12 11  1  0
 13 12  1  1
 14 13  1  0
 14  7  1  0
 15 16  2  0
 15 13  1  0
 17 18  1  0
 19 18  1  0
 19 20  1  0
 21 20  1  1
 21 22  1  0
 21 23  1  0
 22 15  1  0
 23 24  1  0
 25 23  2  0
M  END
$$$$
