NMM.pdb
     RDKit          3D

 25 24  0  0  1  0  0  0  0  0999 V2000
    7.5939  -13.2107   18.3256 N   0  0  0  0  0  0  0  0  0  0  0  0
    7.8073  -14.6068   18.2688 C   0  0  0  0  0  0  0  0  0  0  0  0
    6.8696  -15.3692   17.9361 O   0  0  0  0  0  0  0  0  0  0  0  0
    9.1285  -15.1573   18.6006 C   0  0  0  0  0  0  0  0  0  0  0  0
    9.0009  -16.0938   19.7808 C   0  0  2  0  0  0  0  0  0  0  0  0
    7.6788  -16.6458   19.7991 N   0  0  0  0  0  0  0  0  0  0  0  0
    9.3090  -15.3792   21.0607 C   0  0  0  0  0  0  0  0  0  0  0  0
   10.3651  -14.6771   21.1039 O   0  0  0  0  0  0  0  0  0  0  0  0
    6.1601  -11.4243   26.8737 C   0  0  0  0  0  0  0  0  0  0  0  0
    5.9986  -12.4622   25.3962 S   0  0  0  0  0  0  0  0  0  0  0  0
    7.5489  -13.2910   25.0550 C   0  0  0  0  0  0  0  0  0  0  0  0
    7.5562  -14.0939   23.8217 C   0  0  0  0  0  0  0  0  0  0  0  0
    8.8140  -14.7941   23.4390 C   0  0  2  0  0  0  0  0  0  0  0  0
    8.4376  -15.4989   22.1670 N   0  0  0  0  0  0  0  0  0  0  0  0
    9.2295  -15.8005   24.4143 C   0  0  0  0  0  0  0  0  0  0  0  0
    8.5733  -16.9026   24.5547 O   0  0  0  0  0  0  0  0  0  0  0  0
    9.5867  -13.4006   28.6496 C   0  0  0  0  0  0  0  0  0  0  0  0
   10.0950  -14.8405   29.6333 S   0  0  0  0  0  0  0  0  0  0  0  0
   10.9505  -16.0230   28.5038 C   0  0  0  0  0  0  0  0  0  0  0  0
    9.9878  -16.4479   27.4376 C   0  0  0  0  0  0  0  0  0  0  0  0
   10.7740  -16.6758   26.1258 C   0  0  2  0  0  0  0  0  0  0  0  0
   10.3800  -15.5800   25.2169 N   0  0  0  0  0  0  0  0  0  0  0  0
   10.4442  -17.9552   25.5049 C   0  0  0  0  0  0  0  0  0  0  0  0
    9.3230  -18.0634   24.6784 O   0  0  0  0  0  0  0  0  0  0  0  0
   11.1533  -18.9888   25.6981 O   0  0  0  0  0  0  0  0  0  0  0  0
  1  2  1  0
  2  4  1  0
  2  3  2  0
  4  5  1  0
  5  7  1  0
  5  6  1  1
  7  8  2  0
 10  9  1  0
 10 11  1  0
 12 11  1  0
 13 12  1  1
 14 13  1  0
 14  7  1  0
 15 16  2  0
 15 13  1  0
 17 18  1  0
 19 18  1  0
 19 20  1  0
 21 20  1  1
 21 22  1  0
 21 23  1  0
 22 15  1  0
 23 24  1  0
 25 23  2  0
M  END
$$$$
