NMM.pdb
     RDKit          3D

 25 24  0  0  1  0  0  0  0  0999 V2000
    9.7976  -16.1907   16.8212 N   0  0  0  0  0  0  0  0  0  0  0  0
   10.4843  -16.5067   18.0156 C   0  0  0  0  0  0  0  0  0  0  0  0
   11.3321  -17.4299   18.0233 O   0  0  0  0  0  0  0  0  0  0  0  0
   10.2001  -15.7503   19.2428 C   0  0  0  0  0  0  0  0  0  0  0  0
   10.0014  -16.7129   20.3918 C   0  0  2  0  0  0  0  0  0  0  0  0
    8.8027  -17.4656   20.1695 N   0  0  0  0  0  0  0  0  0  0  0  0
    9.9476  -15.9781   21.6960 C   0  0  0  0  0  0  0  0  0  0  0  0
   10.9429  -15.2547   22.0060 O   0  0  0  0  0  0  0  0  0  0  0  0
    5.9888  -11.9009   25.6758 C   0  0  0  0  0  0  0  0  0  0  0  0
    7.1401  -13.3007   25.7126 S   0  0  0  0  0  0  0  0  0  0  0  0
    6.6600  -14.5234   24.4955 C   0  0  0  0  0  0  0  0  0  0  0  0
    7.5240  -15.7139   24.4489 C   0  0  0  0  0  0  0  0  0  0  0  0
    8.9127  -15.5622   23.9320 C   0  0  2  0  0  0  0  0  0  0  0  0
    8.8163  -16.1030   22.5338 N   0  0  0  0  0  0  0  0  0  0  0  0
    9.8889  -16.3645   24.6668 C   0  0  0  0  0  0  0  0  0  0  0  0
   11.1190  -16.4323   24.2832 O   0  0  0  0  0  0  0  0  0  0  0  0
   11.2854  -14.6298   30.4929 C   0  0  0  0  0  0  0  0  0  0  0  0
   10.5536  -13.9815   28.9620 S   0  0  0  0  0  0  0  0  0  0  0  0
    9.9162  -15.4145   27.9894 C   0  0  0  0  0  0  0  0  0  0  0  0
   11.0812  -16.1483   27.3991 C   0  0  0  0  0  0  0  0  0  0  0  0
   10.5673  -17.4629   26.7679 C   0  0  2  0  0  0  0  0  0  0  0  0
    9.4931  -17.0746   25.8311 N   0  0  0  0  0  0  0  0  0  0  0  0
   10.0230  -18.3751   27.7693 C   0  0  0  0  0  0  0  0  0  0  0  0
   10.8831  -19.0758   28.6184 O   0  0  0  0  0  0  0  0  0  0  0  0
    8.7738  -18.5566   27.8923 O   0  0  0  0  0  0  0  0  0  0  0  0
  1  2  1  0
  2  4  1  0
  2  3  2  0
  4  5  1  0
  5  7  1  0
  5  6  1  6
  7  8  2  0
 10  9  1  0
 10 11  1  0
 12 11  1  0
 13 12  1  1
 14 13  1  0
 14  7  1  0
 15 16  2  0
 15 13  1  0
 17 18  1  0
 19 18  1  0
 19 20  1  0
 21 20  1  1
 21 22  1  0
 21 23  1  0
 22 15  1  0
 23 24  1  0
 25 23  2  0
M  END
$$$$
