HHA.pdb
     RDKit          3D

 26 27  0  0  1  0  0  0  0  0999 V2000
    9.0519  -15.5680   20.5275 N   0  0  0  0  0  0  0  0  0  0  0  0
    8.2295  -14.5748   21.1861 C   0  0  1  0  0  0  0  0  0  0  0  0
    7.0338  -14.3211   20.3124 C   0  0  0  0  0  0  0  0  0  0  0  0
    7.5389  -14.0525   18.9373 C   0  0  0  0  0  0  0  0  0  0  0  0
    8.3106  -12.9646   18.5289 C   0  0  0  0  0  0  0  0  0  0  0  0
    8.5456  -13.1129   17.2061 N   0  0  0  0  0  0  0  0  0  0  0  0
    7.9653  -14.2285   16.7697 C   0  0  0  0  0  0  0  0  0  0  0  0
    7.3639  -14.7834   17.8198 N   0  0  0  0  0  0  0  0  0  0  0  0
    7.8476  -15.0200   22.5534 C   0  0  0  0  0  0  0  0  0  0  0  0
    6.9808  -14.3843   23.1833 O   0  0  0  0  0  0  0  0  0  0  0  0
    8.4337  -16.1504   23.1800 N   0  0  0  0  0  0  0  0  0  0  0  0
    8.1223  -16.6195   24.5132 C   0  0  1  0  0  0  0  0  0  0  0  0
    8.1618  -18.0675   24.7086 C   0  0  0  0  0  0  0  0  0  0  0  0
    7.9309  -18.5566   26.0854 C   0  0  0  0  0  0  0  0  0  0  0  0
    7.5891  -17.9178   27.2322 C   0  0  0  0  0  0  0  0  0  0  0  0
    7.5193  -18.8272   28.2119 N   0  0  0  0  0  0  0  0  0  0  0  0
    7.8117  -20.0394   27.7100 C   0  0  0  0  0  0  0  0  0  0  0  0
    8.0615  -19.8801   26.4232 N   0  0  0  0  0  0  0  0  0  0  0  0
    8.9270  -15.8277   25.4635 C   0  0  0  0  0  0  0  0  0  0  0  0
   10.1694  -15.8301   25.3220 O   0  0  0  0  0  0  0  0  0  0  0  0
    8.4594  -13.0891   27.9898 C   0  0  0  0  0  0  0  0  0  0  0  0
    9.1672  -14.2774   27.4280 C   0  0  2  0  0  0  0  0  0  0  0  0
    8.3906  -15.0649   26.5248 N   0  0  0  0  0  0  0  0  0  0  0  0
    9.6813  -15.0855   28.5833 C   0  0  0  0  0  0  0  0  0  0  0  0
   10.5935  -14.5057   29.4365 O   0  0  0  0  0  0  0  0  0  0  0  0
    9.2732  -16.2616   28.7464 O   0  0  0  0  0  0  0  0  0  0  0  0
  2  1  1  6
  2  3  1  0
  4  8  1  0
  4  3  1  0
  5  4  2  0
  6  5  1  0
  6  7  1  0
  7  8  2  0
  9  2  1  0
  9 10  2  0
 11  9  1  0
 12 11  1  0
 13 14  1  0
 12 13  1  6
 14 18  1  0
 15 14  2  0
 15 16  1  0
 16 17  1  0
 18 17  2  0
 19 12  1  0
 20 19  2  0
 22 23  1  0
 22 21  1  1
 23 19  1  0
 24 22  1  0
 25 24  1  0
 26 24  2  0
M  END
$$$$
