HHA.pdb
     RDKit          3D

 26 27  0  0  1  0  0  0  0  0999 V2000
   10.0305  -16.7831   20.9530 N   0  0  0  0  0  0  0  0  0  0  0  0
    9.0635  -15.7124   21.0758 C   0  0  1  0  0  0  0  0  0  0  0  0
    8.0200  -15.9168   20.0143 C   0  0  0  0  0  0  0  0  0  0  0  0
    8.0744  -14.7373   19.1066 C   0  0  0  0  0  0  0  0  0  0  0  0
    8.9967  -13.6917   19.1504 C   0  0  0  0  0  0  0  0  0  0  0  0
    8.6834  -12.8376   18.1508 N   0  0  0  0  0  0  0  0  0  0  0  0
    7.6211  -13.2915   17.4893 C   0  0  0  0  0  0  0  0  0  0  0  0
    7.2653  -14.4335   18.0739 N   0  0  0  0  0  0  0  0  0  0  0  0
    8.4801  -15.6749   22.4439 C   0  0  0  0  0  0  0  0  0  0  0  0
    7.5046  -14.9343   22.6722 O   0  0  0  0  0  0  0  0  0  0  0  0
    8.9913  -16.4547   23.5137 N   0  0  0  0  0  0  0  0  0  0  0  0
    8.3797  -16.5818   24.8192 C   0  0  1  0  0  0  0  0  0  0  0  0
    7.9335  -17.9234   25.1900 C   0  0  0  0  0  0  0  0  0  0  0  0
    6.9138  -18.5467   24.3183 C   0  0  0  0  0  0  0  0  0  0  0  0
    5.6928  -18.1267   23.9027 C   0  0  0  0  0  0  0  0  0  0  0  0
    5.1642  -19.0814   23.1278 N   0  0  0  0  0  0  0  0  0  0  0  0
    6.0282  -20.1074   23.0406 C   0  0  0  0  0  0  0  0  0  0  0  0
    7.0886  -19.7879   23.7598 N   0  0  0  0  0  0  0  0  0  0  0  0
    9.2652  -15.9147   25.7930 C   0  0  0  0  0  0  0  0  0  0  0  0
   10.4962  -16.1110   25.6948 O   0  0  0  0  0  0  0  0  0  0  0  0
    9.0374  -13.4016   28.6293 C   0  0  0  0  0  0  0  0  0  0  0  0
    9.6648  -14.4941   27.8283 C   0  0  2  0  0  0  0  0  0  0  0  0
    8.8184  -15.0673   26.8314 N   0  0  0  0  0  0  0  0  0  0  0  0
   10.1793  -15.5230   28.7920 C   0  0  0  0  0  0  0  0  0  0  0  0
   11.1491  -15.1503   29.6956 O   0  0  0  0  0  0  0  0  0  0  0  0
    9.7194  -16.6907   28.7547 O   0  0  0  0  0  0  0  0  0  0  0  0
  2  1  1  1
  2  3  1  0
  4  8  1  0
  4  3  1  0
  5  4  2  0
  6  5  1  0
  6  7  1  0
  7  8  2  0
  9  2  1  0
  9 10  2  0
 11  9  1  0
 12 11  1  0
 13 14  1  0
 12 13  1  1
 14 18  1  0
 15 14  2  0
 15 16  1  0
 16 17  1  0
 18 17  2  0
 19 12  1  0
 20 19  2  0
 22 23  1  0
 22 21  1  1
 23 19  1  0
 24 22  1  0
 25 24  1  0
 26 24  2  0
M  END
$$$$
