HHA.pdb
     RDKit          3D

 26 27  0  0  1  0  0  0  0  0999 V2000
   13.1424  -16.4927   18.6067 N   0  0  0  0  0  0  0  0  0  0  0  0
   13.5184  -15.1929   19.1221 C   0  0  1  0  0  0  0  0  0  0  0  0
   13.6022  -14.2476   17.9573 C   0  0  0  0  0  0  0  0  0  0  0  0
   14.5168  -14.8603   16.9543 C   0  0  0  0  0  0  0  0  0  0  0  0
   15.8781  -15.1195   17.1140 C   0  0  0  0  0  0  0  0  0  0  0  0
   16.3183  -15.6778   15.9645 N   0  0  0  0  0  0  0  0  0  0  0  0
   15.3105  -15.7802   15.1009 C   0  0  0  0  0  0  0  0  0  0  0  0
   14.2340  -15.2855   15.7081 N   0  0  0  0  0  0  0  0  0  0  0  0
   12.5560  -14.7311   20.1584 C   0  0  0  0  0  0  0  0  0  0  0  0
   12.7439  -13.6361   20.7223 O   0  0  0  0  0  0  0  0  0  0  0  0
   11.4193  -15.4913   20.5379 N   0  0  0  0  0  0  0  0  0  0  0  0
   10.4175  -15.0721   21.4946 C   0  0  1  0  0  0  0  0  0  0  0  0
    9.0577  -14.9301   20.9777 C   0  0  0  0  0  0  0  0  0  0  0  0
    8.8896  -14.0759   19.7818 C   0  0  0  0  0  0  0  0  0  0  0  0
    9.7637  -13.3137   19.0783 C   0  0  0  0  0  0  0  0  0  0  0  0
    9.0945  -12.7244   18.0800 N   0  0  0  0  0  0  0  0  0  0  0  0
    7.8042  -13.0976   18.1333 C   0  0  0  0  0  0  0  0  0  0  0  0
    7.6759  -13.9156   19.1619 N   0  0  0  0  0  0  0  0  0  0  0  0
   10.5574  -15.9265   22.6895 C   0  0  0  0  0  0  0  0  0  0  0  0
    9.6883  -15.8293   23.5834 O   0  0  0  0  0  0  0  0  0  0  0  0
   10.7628  -18.8477   24.0563 C   0  0  0  0  0  0  0  0  0  0  0  0
   11.7218  -17.7037   24.0334 C   0  0  2  0  0  0  0  0  0  0  0  0
   11.6072  -16.8493   22.8951 N   0  0  0  0  0  0  0  0  0  0  0  0
   13.1042  -18.2696   24.1779 C   0  0  0  0  0  0  0  0  0  0  0  0
   14.0357  -17.9854   23.2045 O   0  0  0  0  0  0  0  0  0  0  0  0
   13.3799  -18.9833   25.1735 O   0  0  0  0  0  0  0  0  0  0  0  0
  2  1  1  6
  2  3  1  0
  4  8  1  0
  4  3  1  0
  5  4  2  0
  6  5  1  0
  6  7  1  0
  7  8  2  0
  9  2  1  0
  9 10  2  0
 11  9  1  0
 12 11  1  0
 13 14  1  0
 12 13  1  6
 14 18  1  0
 15 14  2  0
 15 16  1  0
 16 17  1  0
 18 17  2  0
 19 12  1  0
 20 19  2  0
 22 23  1  0
 22 21  1  6
 23 19  1  0
 24 22  1  0
 25 24  1  0
 26 24  2  0
M  END
$$$$
