HHA.pdb
     RDKit          3D

 26 27  0  0  1  0  0  0  0  0999 V2000
   10.6981  -16.5081   19.6252 N   0  0  0  0  0  0  0  0  0  0  0  0
   11.1878  -15.8799   20.8344 C   0  0  1  0  0  0  0  0  0  0  0  0
   11.5099  -14.4495   20.5064 C   0  0  0  0  0  0  0  0  0  0  0  0
   12.9002  -14.4193   19.9733 C   0  0  0  0  0  0  0  0  0  0  0  0
   13.2912  -14.0731   18.6798 C   0  0  0  0  0  0  0  0  0  0  0  0
   14.6374  -14.1802   18.6248 N   0  0  0  0  0  0  0  0  0  0  0  0
   15.1049  -14.5724   19.8079 C   0  0  0  0  0  0  0  0  0  0  0  0
   14.0507  -14.7124   20.6088 N   0  0  0  0  0  0  0  0  0  0  0  0
   10.1958  -15.9988   21.9367 C   0  0  0  0  0  0  0  0  0  0  0  0
    8.9794  -15.9451   21.6726 O   0  0  0  0  0  0  0  0  0  0  0  0
   10.5778  -16.1728   23.2924 N   0  0  0  0  0  0  0  0  0  0  0  0
    9.6775  -16.5026   24.3764 C   0  0  1  0  0  0  0  0  0  0  0  0
    9.3861  -17.9234   24.5577 C   0  0  0  0  0  0  0  0  0  0  0  0
    8.5759  -18.2877   25.7405 C   0  0  0  0  0  0  0  0  0  0  0  0
    7.5740  -17.6439   26.3900 C   0  0  0  0  0  0  0  0  0  0  0  0
    7.1848  -18.4072   27.4183 N   0  0  0  0  0  0  0  0  0  0  0  0
    7.9226  -19.5307   27.4377 C   0  0  0  0  0  0  0  0  0  0  0  0
    8.7659  -19.4623   26.4239 N   0  0  0  0  0  0  0  0  0  0  0  0
   10.1503  -15.7920   25.5801 C   0  0  0  0  0  0  0  0  0  0  0  0
   11.3647  -15.8719   25.8677 O   0  0  0  0  0  0  0  0  0  0  0  0
    8.8543  -13.3053   28.1283 C   0  0  0  0  0  0  0  0  0  0  0  0
    9.7775  -14.3586   27.6116 C   0  0  2  0  0  0  0  0  0  0  0  0
    9.3249  -15.0255   26.4329 N   0  0  0  0  0  0  0  0  0  0  0  0
   10.0446  -15.3167   28.7353 C   0  0  0  0  0  0  0  0  0  0  0  0
   10.6950  -14.8504   29.8559 O   0  0  0  0  0  0  0  0  0  0  0  0
    9.6732  -16.5115   28.6315 O   0  0  0  0  0  0  0  0  0  0  0  0
  2  1  1  6
  2  3  1  0
  4  8  1  0
  4  3  1  0
  5  4  2  0
  6  5  1  0
  6  7  1  0
  7  8  2  0
  9  2  1  0
  9 10  2  0
 11  9  1  0
 12 11  1  0
 13 14  1  0
 12 13  1  1
 14 18  1  0
 15 14  2  0
 15 16  1  0
 16 17  1  0
 18 17  2  0
 19 12  1  0
 20 19  2  0
 22 23  1  0
 22 21  1  1
 23 19  1  0
 24 22  1  0
 25 24  1  0
 26 24  2  0
M  END
$$$$
