HHA.pdb
     RDKit          3D

 26 27  0  0  1  0  0  0  0  0999 V2000
    9.6641  -14.3746   19.5938 N   0  0  0  0  0  0  0  0  0  0  0  0
    8.6586  -13.4771   20.1228 C   0  0  1  0  0  0  0  0  0  0  0  0
    7.7253  -13.1253   18.9992 C   0  0  0  0  0  0  0  0  0  0  0  0
    8.1631  -13.8953   17.8019 C   0  0  0  0  0  0  0  0  0  0  0  0
    7.3412  -14.5316   16.8717 C   0  0  0  0  0  0  0  0  0  0  0  0
    8.1465  -15.1079   15.9518 N   0  0  0  0  0  0  0  0  0  0  0  0
    9.4198  -14.8666   16.2563 C   0  0  0  0  0  0  0  0  0  0  0  0
    9.4156  -14.1372   17.3700 N   0  0  0  0  0  0  0  0  0  0  0  0
    7.9492  -14.0916   21.2771 C   0  0  0  0  0  0  0  0  0  0  0  0
    6.8521  -13.6250   21.6389 O   0  0  0  0  0  0  0  0  0  0  0  0
    8.4727  -15.1992   21.9934 N   0  0  0  0  0  0  0  0  0  0  0  0
    7.9411  -15.7143   23.2371 C   0  0  1  0  0  0  0  0  0  0  0  0
    8.2757  -17.1021   23.5510 C   0  0  0  0  0  0  0  0  0  0  0  0
    7.9258  -17.5771   24.9074 C   0  0  0  0  0  0  0  0  0  0  0  0
    8.6573  -17.7076   26.0423 C   0  0  0  0  0  0  0  0  0  0  0  0
    7.8606  -18.2005   26.9983 N   0  0  0  0  0  0  0  0  0  0  0  0
    6.6293  -18.3882   26.4929 C   0  0  0  0  0  0  0  0  0  0  0  0
    6.6644  -18.0122   25.2276 N   0  0  0  0  0  0  0  0  0  0  0  0
    8.2486  -14.7316   24.2941 C   0  0  0  0  0  0  0  0  0  0  0  0
    9.4270  -14.3241   24.3893 O   0  0  0  0  0  0  0  0  0  0  0  0
    6.4565  -12.4661   26.7160 C   0  0  0  0  0  0  0  0  0  0  0  0
    7.6081  -13.2982   26.2576 C   0  0  2  0  0  0  0  0  0  0  0  0
    7.3024  -14.2174   25.2085 N   0  0  0  0  0  0  0  0  0  0  0  0
    8.1770  -13.9865   27.4637 C   0  0  0  0  0  0  0  0  0  0  0  0
    8.7062  -13.2136   28.4729 O   0  0  0  0  0  0  0  0  0  0  0  0
    8.1588  -15.2404   27.5269 O   0  0  0  0  0  0  0  0  0  0  0  0
  2  1  1  6
  2  3  1  0
  4  8  1  0
  4  3  1  0
  5  4  2  0
  6  5  1  0
  6  7  1  0
  7  8  2  0
  9  2  1  0
  9 10  2  0
 11  9  1  0
 12 11  1  0
 13 14  1  0
 12 13  1  1
 14 18  1  0
 15 14  2  0
 15 16  1  0
 16 17  1  0
 18 17  2  0
 19 12  1  0
 20 19  2  0
 22 23  1  0
 22 21  1  1
 23 19  1  0
 24 22  1  0
 25 24  1  0
 26 24  2  0
M  END
$$$$
