HHA.pdb
     RDKit          3D

 26 27  0  0  1  0  0  0  0  0999 V2000
    9.0287  -17.8380   20.6268 N   0  0  0  0  0  0  0  0  0  0  0  0
    8.8235  -16.4577   21.0132 C   0  0  1  0  0  0  0  0  0  0  0  0
    7.9218  -15.8273   19.9899 C   0  0  0  0  0  0  0  0  0  0  0  0
    8.5936  -15.9575   18.6672 C   0  0  0  0  0  0  0  0  0  0  0  0
    9.9323  -15.6900   18.3805 C   0  0  0  0  0  0  0  0  0  0  0  0
   10.1189  -15.9388   17.0651 N   0  0  0  0  0  0  0  0  0  0  0  0
    8.9750  -16.3448   16.5187 C   0  0  0  0  0  0  0  0  0  0  0  0
    8.0668  -16.3516   17.4921 N   0  0  0  0  0  0  0  0  0  0  0  0
    8.2685  -16.3661   22.3904 C   0  0  0  0  0  0  0  0  0  0  0  0
    7.0743  -16.0479   22.5481 O   0  0  0  0  0  0  0  0  0  0  0  0
    9.0480  -16.6282   23.5470 N   0  0  0  0  0  0  0  0  0  0  0  0
    8.5420  -16.6664   24.9024 C   0  0  1  0  0  0  0  0  0  0  0  0
    8.3506  -17.9964   25.4777 C   0  0  0  0  0  0  0  0  0  0  0  0
    7.3676  -18.8737   24.8053 C   0  0  0  0  0  0  0  0  0  0  0  0
    6.0113  -18.8908   24.8096 C   0  0  0  0  0  0  0  0  0  0  0  0
    5.6040  -19.9065   24.0390 N   0  0  0  0  0  0  0  0  0  0  0  0
    6.6793  -20.5410   23.5410 C   0  0  0  0  0  0  0  0  0  0  0  0
    7.7489  -19.9191   24.0023 N   0  0  0  0  0  0  0  0  0  0  0  0
    9.3561  -15.7363   25.7083 C   0  0  0  0  0  0  0  0  0  0  0  0
   10.5999  -15.8582   25.6639 O   0  0  0  0  0  0  0  0  0  0  0  0
    8.8591  -12.8079   28.0835 C   0  0  0  0  0  0  0  0  0  0  0  0
    9.5910  -13.9518   27.4634 C   0  0  2  0  0  0  0  0  0  0  0  0
    8.8275  -14.7150   26.5288 N   0  0  0  0  0  0  0  0  0  0  0  0
   10.1316  -14.7998   28.5772 C   0  0  0  0  0  0  0  0  0  0  0  0
    9.7124  -16.1082   28.6699 O   0  0  0  0  0  0  0  0  0  0  0  0
   10.9466  -14.3038   29.3934 O   0  0  0  0  0  0  0  0  0  0  0  0
  2  1  1  6
  2  3  1  0
  4  8  1  0
  4  3  1  0
  5  4  2  0
  6  5  1  0
  6  7  1  0
  7  8  2  0
  9  2  1  0
  9 10  2  0
 11  9  1  0
 12 11  1  0
 13 14  1  0
 12 13  1  1
 14 18  1  0
 15 14  2  0
 15 16  1  0
 16 17  1  0
 18 17  2  0
 19 12  1  0
 20 19  2  0
 22 23  1  0
 22 21  1  1
 23 19  1  0
 24 22  1  0
 25 24  1  0
 26 24  2  0
M  END
$$$$
