HHA.pdb
     RDKit          3D

 26 27  0  0  1  0  0  0  0  0999 V2000
   13.4567  -16.0852   18.1064 N   0  0  0  0  0  0  0  0  0  0  0  0
   13.8158  -14.9523   18.9335 C   0  0  1  0  0  0  0  0  0  0  0  0
   14.0627  -13.7831   18.0227 C   0  0  0  0  0  0  0  0  0  0  0  0
   15.1356  -14.1824   17.0701 C   0  0  0  0  0  0  0  0  0  0  0  0
   16.5003  -14.2793   17.3422 C   0  0  0  0  0  0  0  0  0  0  0  0
   17.1104  -14.6721   16.2019 N   0  0  0  0  0  0  0  0  0  0  0  0
   16.2048  -14.8246   15.2382 C   0  0  0  0  0  0  0  0  0  0  0  0
   15.0226  -14.5272   15.7732 N   0  0  0  0  0  0  0  0  0  0  0  0
   12.7585  -14.6715   19.9418 C   0  0  0  0  0  0  0  0  0  0  0  0
   12.9079  -13.7233   20.7360 O   0  0  0  0  0  0  0  0  0  0  0  0
   11.5728  -15.4449   20.0406 N   0  0  0  0  0  0  0  0  0  0  0  0
   10.5451  -15.2707   21.0446 C   0  0  1  0  0  0  0  0  0  0  0  0
    9.1654  -15.3914   20.5771 C   0  0  0  0  0  0  0  0  0  0  0  0
    8.7870  -14.5649   19.4102 C   0  0  0  0  0  0  0  0  0  0  0  0
    8.9527  -13.2466   19.1371 C   0  0  0  0  0  0  0  0  0  0  0  0
    8.4126  -12.9974   17.9381 N   0  0  0  0  0  0  0  0  0  0  0  0
    7.9029  -14.1365   17.4385 C   0  0  0  0  0  0  0  0  0  0  0  0
    8.1273  -15.0878   18.3264 N   0  0  0  0  0  0  0  0  0  0  0  0
   10.9015  -16.1182   22.1988 C   0  0  0  0  0  0  0  0  0  0  0  0
   11.5069  -17.1890   21.9737 O   0  0  0  0  0  0  0  0  0  0  0  0
   10.5290  -16.0883   25.9871 C   0  0  0  0  0  0  0  0  0  0  0  0
   10.8699  -16.6643   24.6526 C   0  0  2  0  0  0  0  0  0  0  0  0
   10.6061  -15.8038   23.5441 N   0  0  0  0  0  0  0  0  0  0  0  0
   10.1543  -17.9777   24.5309 C   0  0  0  0  0  0  0  0  0  0  0  0
   10.4749  -18.9850   25.4132 O   0  0  0  0  0  0  0  0  0  0  0  0
    9.2867  -18.1293   23.6360 O   0  0  0  0  0  0  0  0  0  0  0  0
  2  1  1  6
  2  3  1  0
  4  8  1  0
  4  3  1  0
  5  4  2  0
  6  5  1  0
  6  7  1  0
  7  8  2  0
  9  2  1  0
  9 10  2  0
 11  9  1  0
 12 11  1  0
 13 14  1  0
 12 13  1  6
 14 18  1  0
 15 14  2  0
 15 16  1  0
 16 17  1  0
 18 17  2  0
 19 12  1  0
 20 19  2  0
 22 23  1  0
 22 21  1  1
 23 19  1  0
 24 22  1  0
 25 24  1  0
 26 24  2  0
M  END
$$$$
