HHA.pdb
     RDKit          3D

 26 27  0  0  1  0  0  0  0  0999 V2000
   14.8069  -16.0054   18.4451 N   0  0  0  0  0  0  0  0  0  0  0  0
   14.4752  -14.6160   18.2079 C   0  0  1  0  0  0  0  0  0  0  0  0
   14.5885  -14.3663   16.7306 C   0  0  0  0  0  0  0  0  0  0  0  0
   16.0107  -14.5922   16.3509 C   0  0  0  0  0  0  0  0  0  0  0  0
   17.0899  -13.7490   16.6160 C   0  0  0  0  0  0  0  0  0  0  0  0
   18.1931  -14.3336   16.0982 N   0  0  0  0  0  0  0  0  0  0  0  0
   17.8622  -15.4898   15.5275 C   0  0  0  0  0  0  0  0  0  0  0  0
   16.5482  -15.6330   15.6864 N   0  0  0  0  0  0  0  0  0  0  0  0
   13.1218  -14.2932   18.7347 C   0  0  0  0  0  0  0  0  0  0  0  0
   12.6616  -13.1465   18.5755 O   0  0  0  0  0  0  0  0  0  0  0  0
   12.3217  -15.2448   19.4190 N   0  0  0  0  0  0  0  0  0  0  0  0
   11.0058  -14.9893   19.9646 C   0  0  1  0  0  0  0  0  0  0  0  0
    9.8765  -15.4197   19.1423 C   0  0  0  0  0  0  0  0  0  0  0  0
    8.5255  -15.1044   19.6554 C   0  0  0  0  0  0  0  0  0  0  0  0
    8.1029  -14.5045   20.7963 C   0  0  0  0  0  0  0  0  0  0  0  0
    6.7649  -14.4750   20.7817 N   0  0  0  0  0  0  0  0  0  0  0  0
    6.3234  -15.0472   19.6483 C   0  0  0  0  0  0  0  0  0  0  0  0
    7.3858  -15.4296   18.9638 N   0  0  0  0  0  0  0  0  0  0  0  0
   10.9991  -15.4751   21.3580 C   0  0  0  0  0  0  0  0  0  0  0  0
   11.6564  -16.5058   21.6215 O   0  0  0  0  0  0  0  0  0  0  0  0
    9.4304  -14.5379   24.6978 C   0  0  0  0  0  0  0  0  0  0  0  0
   10.2283  -15.3691   23.7485 C   0  0  2  0  0  0  0  0  0  0  0  0
   10.3003  -14.8557   22.4181 N   0  0  0  0  0  0  0  0  0  0  0  0
    9.6698  -16.7614   23.7872 C   0  0  0  0  0  0  0  0  0  0  0  0
    9.7891  -17.4853   24.9524 O   0  0  0  0  0  0  0  0  0  0  0  0
    9.1109  -17.2327   22.7664 O   0  0  0  0  0  0  0  0  0  0  0  0
  2  1  1  6
  2  3  1  0
  4  8  1  0
  4  3  1  0
  5  4  2  0
  6  5  1  0
  6  7  1  0
  7  8  2  0
  9  2  1  0
  9 10  2  0
 11  9  1  0
 12 11  1  0
 13 14  1  0
 12 13  1  6
 14 18  1  0
 15 14  2  0
 15 16  1  0
 16 17  1  0
 18 17  2  0
 19 12  1  0
 20 19  2  0
 22 23  1  0
 22 21  1  1
 23 19  1  0
 24 22  1  0
 25 24  1  0
 26 24  2  0
M  END
$$$$
