HHA.pdb
     RDKit          3D

 26 27  0  0  1  0  0  0  0  0999 V2000
    9.5428  -14.8008   20.5600 N   0  0  0  0  0  0  0  0  0  0  0  0
    8.1739  -14.6088   20.9910 C   0  0  1  0  0  0  0  0  0  0  0  0
    7.2773  -15.1776   19.9279 C   0  0  0  0  0  0  0  0  0  0  0  0
    7.4916  -14.3751   18.6917 C   0  0  0  0  0  0  0  0  0  0  0  0
    8.4315  -13.3611   18.5068 C   0  0  0  0  0  0  0  0  0  0  0  0
    8.2840  -12.9021   17.2441 N   0  0  0  0  0  0  0  0  0  0  0  0
    7.3081  -13.5715   16.6346 C   0  0  0  0  0  0  0  0  0  0  0  0
    6.8405  -14.4534   17.5154 N   0  0  0  0  0  0  0  0  0  0  0  0
    7.9411  -15.2325   22.3215 C   0  0  0  0  0  0  0  0  0  0  0  0
    6.8014  -15.1941   22.8234 O   0  0  0  0  0  0  0  0  0  0  0  0
    8.9718  -15.8771   23.0536 N   0  0  0  0  0  0  0  0  0  0  0  0
    8.8280  -16.4340   24.3817 C   0  0  1  0  0  0  0  0  0  0  0  0
    9.0389  -17.8757   24.4983 C   0  0  0  0  0  0  0  0  0  0  0  0
   10.1819  -18.4406   23.7483 C   0  0  0  0  0  0  0  0  0  0  0  0
   11.1145  -17.8697   22.9457 C   0  0  0  0  0  0  0  0  0  0  0  0
   11.9278  -18.8343   22.4988 N   0  0  0  0  0  0  0  0  0  0  0  0
   11.5301  -20.0152   23.0029 C   0  0  0  0  0  0  0  0  0  0  0  0
   10.4736  -19.7814   23.7597 N   0  0  0  0  0  0  0  0  0  0  0  0
    9.6220  -15.5989   25.3034 C   0  0  0  0  0  0  0  0  0  0  0  0
   10.6852  -15.1009   24.8731 O   0  0  0  0  0  0  0  0  0  0  0  0
    9.3307  -13.2511   27.9695 C   0  0  0  0  0  0  0  0  0  0  0  0
   10.0226  -14.4981   27.5279 C   0  0  2  0  0  0  0  0  0  0  0  0
    9.2641  -15.3217   26.6417 N   0  0  0  0  0  0  0  0  0  0  0  0
   10.4497  -15.2391   28.7610 C   0  0  0  0  0  0  0  0  0  0  0  0
   11.3389  -14.6306   29.6183 O   0  0  0  0  0  0  0  0  0  0  0  0
    9.9921  -16.3870   28.9831 O   0  0  0  0  0  0  0  0  0  0  0  0
  2  1  1  6
  2  3  1  0
  4  8  1  0
  4  3  1  0
  5  4  2  0
  6  5  1  0
  6  7  1  0
  7  8  2  0
  9  2  1  0
  9 10  2  0
 11  9  1  0
 12 11  1  0
 13 14  1  0
 12 13  1  6
 14 18  1  0
 15 14  2  0
 15 16  1  0
 16 17  1  0
 18 17  2  0
 19 12  1  0
 20 19  2  0
 22 23  1  0
 22 21  1  1
 23 19  1  0
 24 22  1  0
 25 24  1  0
 26 24  2  0
M  END
$$$$
