HHA.pdb
     RDKit          3D

 26 27  0  0  1  0  0  0  0  0999 V2000
   15.5260  -14.3576   16.5762 N   0  0  0  0  0  0  0  0  0  0  0  0
   15.0012  -15.3229   17.5191 C   0  0  1  0  0  0  0  0  0  0  0  0
   16.1197  -15.7108   18.4443 C   0  0  0  0  0  0  0  0  0  0  0  0
   16.8898  -16.7972   17.7774 C   0  0  0  0  0  0  0  0  0  0  0  0
   16.5301  -18.1420   17.6879 C   0  0  0  0  0  0  0  0  0  0  0  0
   17.5083  -18.7747   17.0025 N   0  0  0  0  0  0  0  0  0  0  0  0
   18.4538  -17.9018   16.6615 C   0  0  0  0  0  0  0  0  0  0  0  0
   18.0697  -16.7176   17.1332 N   0  0  0  0  0  0  0  0  0  0  0  0
   13.8276  -14.7721   18.2490 C   0  0  0  0  0  0  0  0  0  0  0  0
   13.9929  -13.8352   19.0534 O   0  0  0  0  0  0  0  0  0  0  0  0
   12.5120  -15.2723   18.0678 N   0  0  0  0  0  0  0  0  0  0  0  0
   11.3296  -14.7689   18.7334 C   0  0  1  0  0  0  0  0  0  0  0  0
   10.0819  -14.8570   17.9770 C   0  0  0  0  0  0  0  0  0  0  0  0
    8.8979  -14.2013   18.5739 C   0  0  0  0  0  0  0  0  0  0  0  0
    8.7337  -13.4821   19.7122 C   0  0  0  0  0  0  0  0  0  0  0  0
    7.4474  -13.1218   19.7966 N   0  0  0  0  0  0  0  0  0  0  0  0
    6.7845  -13.5997   18.7293 C   0  0  0  0  0  0  0  0  0  0  0  0
    7.6588  -14.2538   17.9867 N   0  0  0  0  0  0  0  0  0  0  0  0
   11.2956  -15.3567   20.0864 C   0  0  0  0  0  0  0  0  0  0  0  0
   11.7288  -16.5210   20.2297 O   0  0  0  0  0  0  0  0  0  0  0  0
    9.9495  -14.4750   23.5307 C   0  0  0  0  0  0  0  0  0  0  0  0
   10.6908  -15.2931   22.5258 C   0  0  2  0  0  0  0  0  0  0  0  0
   10.8066  -14.6945   21.2346 N   0  0  0  0  0  0  0  0  0  0  0  0
   10.0336  -16.6409   22.4666 C   0  0  0  0  0  0  0  0  0  0  0  0
   10.3654  -17.5763   23.4210 O   0  0  0  0  0  0  0  0  0  0  0  0
    9.2032  -16.8853   21.5571 O   0  0  0  0  0  0  0  0  0  0  0  0
  2  1  1  6
  2  3  1  0
  4  8  1  0
  4  3  1  0
  5  4  2  0
  6  5  1  0
  6  7  1  0
  7  8  2  0
  9  2  1  0
  9 10  2  0
 11  9  1  0
 12 11  1  0
 13 14  1  0
 12 13  1  6
 14 18  1  0
 15 14  2  0
 15 16  1  0
 16 17  1  0
 18 17  2  0
 19 12  1  0
 20 19  2  0
 22 23  1  0
 22 21  1  1
 23 19  1  0
 24 22  1  0
 25 24  1  0
 26 24  2  0
M  END
$$$$
