HHA.pdb
     RDKit          3D

 26 27  0  0  1  0  0  0  0  0999 V2000
   12.4096  -17.1248   18.2085 N   0  0  0  0  0  0  0  0  0  0  0  0
   11.3983  -17.5839   19.1375 C   0  0  1  0  0  0  0  0  0  0  0  0
   12.0436  -18.5818   20.0570 C   0  0  0  0  0  0  0  0  0  0  0  0
   12.1947  -19.8528   19.2956 C   0  0  0  0  0  0  0  0  0  0  0  0
   11.2684  -20.4153   18.4173 C   0  0  0  0  0  0  0  0  0  0  0  0
   11.8056  -21.5634   17.9480 N   0  0  0  0  0  0  0  0  0  0  0  0
   13.0105  -21.7465   18.4834 C   0  0  0  0  0  0  0  0  0  0  0  0
   13.2320  -20.7116   19.2910 N   0  0  0  0  0  0  0  0  0  0  0  0
   10.7938  -16.4421   19.8752 C   0  0  0  0  0  0  0  0  0  0  0  0
   11.5373  -15.5886   20.3957 O   0  0  0  0  0  0  0  0  0  0  0  0
    9.3909  -16.2796   20.0142 N   0  0  0  0  0  0  0  0  0  0  0  0
    8.7417  -15.1639   20.6686 C   0  0  1  0  0  0  0  0  0  0  0  0
    7.5250  -14.6660   20.0297 C   0  0  0  0  0  0  0  0  0  0  0  0
    7.6529  -14.2054   18.6298 C   0  0  0  0  0  0  0  0  0  0  0  0
    8.0217  -13.0151   18.0940 C   0  0  0  0  0  0  0  0  0  0  0  0
    7.9579  -13.1195   16.7611 N   0  0  0  0  0  0  0  0  0  0  0  0
    7.5534  -14.3591   16.4346 C   0  0  0  0  0  0  0  0  0  0  0  0
    7.3676  -15.0197   17.5628 N   0  0  0  0  0  0  0  0  0  0  0  0
    8.6167  -15.4983   22.1003 C   0  0  0  0  0  0  0  0  0  0  0  0
    8.5732  -16.7073   22.4172 O   0  0  0  0  0  0  0  0  0  0  0  0
    8.2007  -13.6923   25.4236 C   0  0  0  0  0  0  0  0  0  0  0  0
    8.3862  -14.8687   24.5232 C   0  0  2  0  0  0  0  0  0  0  0  0
    8.5424  -14.5459   23.1411 N   0  0  0  0  0  0  0  0  0  0  0  0
    7.2362  -15.8037   24.7583 C   0  0  0  0  0  0  0  0  0  0  0  0
    6.2907  -15.9448   23.7673 O   0  0  0  0  0  0  0  0  0  0  0  0
    7.1607  -16.4317   25.8429 O   0  0  0  0  0  0  0  0  0  0  0  0
  2  1  1  6
  2  3  1  0
  4  8  1  0
  4  3  1  0
  5  4  2  0
  6  5  1  0
  6  7  1  0
  7  8  2  0
  9  2  1  0
  9 10  2  0
 11  9  1  0
 12 11  1  0
 13 14  1  0
 12 13  1  6
 14 18  1  0
 15 14  2  0
 15 16  1  0
 16 17  1  0
 18 17  2  0
 19 12  1  0
 20 19  2  0
 22 23  1  0
 22 21  1  1
 23 19  1  0
 24 22  1  0
 25 24  1  0
 26 24  2  0
M  END
$$$$
