HHA.pdb
     RDKit          3D

 26 27  0  0  1  0  0  0  0  0999 V2000
   10.2224  -15.9808   16.6509 N   0  0  0  0  0  0  0  0  0  0  0  0
   10.4563  -15.4021   17.9574 C   0  0  1  0  0  0  0  0  0  0  0  0
    9.1992  -15.5716   18.7626 C   0  0  0  0  0  0  0  0  0  0  0  0
    8.4222  -14.3067   18.6426 C   0  0  0  0  0  0  0  0  0  0  0  0
    8.7882  -13.1665   17.9273 C   0  0  0  0  0  0  0  0  0  0  0  0
    7.8000  -12.2581   18.0862 N   0  0  0  0  0  0  0  0  0  0  0  0
    6.8424  -12.7674   18.8580 C   0  0  0  0  0  0  0  0  0  0  0  0
    7.2288  -13.9986   19.1853 N   0  0  0  0  0  0  0  0  0  0  0  0
   11.6374  -16.0252   18.6132 C   0  0  0  0  0  0  0  0  0  0  0  0
   11.9004  -17.2221   18.3885 O   0  0  0  0  0  0  0  0  0  0  0  0
   12.4883  -15.3085   19.4942 N   0  0  0  0  0  0  0  0  0  0  0  0
   13.6659  -15.8488   20.1392 C   0  0  1  0  0  0  0  0  0  0  0  0
   14.8638  -15.0128   20.0902 C   0  0  0  0  0  0  0  0  0  0  0  0
   15.5260  -14.8809   18.7740 C   0  0  0  0  0  0  0  0  0  0  0  0
   15.6765  -13.8273   17.9331 C   0  0  0  0  0  0  0  0  0  0  0  0
   16.3508  -14.2461   16.8554 N   0  0  0  0  0  0  0  0  0  0  0  0
   16.6346  -15.5528   16.9930 C   0  0  0  0  0  0  0  0  0  0  0  0
   16.1371  -15.9410   18.1530 N   0  0  0  0  0  0  0  0  0  0  0  0
   13.2663  -16.3088   21.4831 C   0  0  0  0  0  0  0  0  0  0  0  0
   12.8791  -15.4492   22.3047 O   0  0  0  0  0  0  0  0  0  0  0  0
   12.3767  -19.5356   23.2067 C   0  0  0  0  0  0  0  0  0  0  0  0
   12.8253  -18.1119   23.1786 C   0  0  2  0  0  0  0  0  0  0  0  0
   13.2905  -17.6560   21.9079 N   0  0  0  0  0  0  0  0  0  0  0  0
   13.8595  -17.9424   24.2527 C   0  0  0  0  0  0  0  0  0  0  0  0
   13.5134  -18.2419   25.5513 O   0  0  0  0  0  0  0  0  0  0  0  0
   15.0074  -17.5352   23.9480 O   0  0  0  0  0  0  0  0  0  0  0  0
  2  1  1  6
  2  3  1  0
  4  8  1  0
  4  3  1  0
  5  4  2  0
  6  5  1  0
  6  7  1  0
  7  8  2  0
  9  2  1  0
  9 10  2  0
 11  9  1  0
 12 11  1  0
 13 14  1  0
 12 13  1  1
 14 18  1  0
 15 14  2  0
 15 16  1  0
 16 17  1  0
 18 17  2  0
 19 12  1  0
 20 19  2  0
 22 23  1  0
 22 21  1  6
 23 19  1  0
 24 22  1  0
 25 24  1  0
 26 24  2  0
M  END
$$$$
