HHA.pdb
     RDKit          3D

 26 27  0  0  1  0  0  0  0  0999 V2000
    8.9983  -15.5367   20.3993 N   0  0  0  0  0  0  0  0  0  0  0  0
    7.9932  -14.6125   20.8811 C   0  0  1  0  0  0  0  0  0  0  0  0
    6.8439  -14.6444   19.9139 C   0  0  0  0  0  0  0  0  0  0  0  0
    7.3742  -14.2407   18.5820 C   0  0  0  0  0  0  0  0  0  0  0  0
    8.3395  -13.2662   18.3280 C   0  0  0  0  0  0  0  0  0  0  0  0
    8.5238  -13.2227   16.9897 N   0  0  0  0  0  0  0  0  0  0  0  0
    7.7298  -14.1126   16.3983 C   0  0  0  0  0  0  0  0  0  0  0  0
    7.0446  -14.7173   17.3664 N   0  0  0  0  0  0  0  0  0  0  0  0
    7.5761  -14.9533   22.2679 C   0  0  0  0  0  0  0  0  0  0  0  0
    6.5839  -14.3865   22.7643 O   0  0  0  0  0  0  0  0  0  0  0  0
    8.2663  -15.9069   23.0604 N   0  0  0  0  0  0  0  0  0  0  0  0
    7.9271  -16.2615   24.4219 C   0  0  1  0  0  0  0  0  0  0  0  0
    8.0334  -17.6795   24.7603 C   0  0  0  0  0  0  0  0  0  0  0  0
    9.3335  -18.3300   24.4867 C   0  0  0  0  0  0  0  0  0  0  0  0
   10.0402  -18.5045   23.3421 C   0  0  0  0  0  0  0  0  0  0  0  0
   11.1589  -19.1761   23.6404 N   0  0  0  0  0  0  0  0  0  0  0  0
   11.1796  -19.4349   24.9593 C   0  0  0  0  0  0  0  0  0  0  0  0
   10.0765  -18.9245   25.4753 N   0  0  0  0  0  0  0  0  0  0  0  0
    8.6519  -15.3385   25.3165 C   0  0  0  0  0  0  0  0  0  0  0  0
    9.8594  -15.1190   25.0769 O   0  0  0  0  0  0  0  0  0  0  0  0
    7.9704  -12.6330   27.7839 C   0  0  0  0  0  0  0  0  0  0  0  0
    8.7766  -13.7895   27.2927 C   0  0  2  0  0  0  0  0  0  0  0  0
    8.0756  -14.6835   26.4277 N   0  0  0  0  0  0  0  0  0  0  0  0
    9.3394  -14.4911   28.4939 C   0  0  0  0  0  0  0  0  0  0  0  0
   10.2137  -13.8043   29.3064 O   0  0  0  0  0  0  0  0  0  0  0  0
    9.0049  -15.6778   28.7309 O   0  0  0  0  0  0  0  0  0  0  0  0
  2  1  1  6
  2  3  1  0
  4  8  1  0
  4  3  1  0
  5  4  2  0
  6  5  1  0
  6  7  1  0
  7  8  2  0
  9  2  1  0
  9 10  2  0
 11  9  1  0
 12 11  1  0
 13 14  1  0
 12 13  1  1
 14 18  1  0
 15 14  2  0
 15 16  1  0
 16 17  1  0
 18 17  2  0
 19 12  1  0
 20 19  2  0
 22 23  1  0
 22 21  1  1
 23 19  1  0
 24 22  1  0
 25 24  1  0
 26 24  2  0
M  END
$$$$
