HHA.pdb
     RDKit          3D

 26 27  0  0  1  0  0  0  0  0999 V2000
   13.5563  -16.3951   14.2059 N   0  0  0  0  0  0  0  0  0  0  0  0
   13.3802  -16.7963   15.5859 C   0  0  1  0  0  0  0  0  0  0  0  0
   14.7386  -16.8325   16.2268 C   0  0  0  0  0  0  0  0  0  0  0  0
   15.4108  -18.0806   15.7704 C   0  0  0  0  0  0  0  0  0  0  0  0
   16.6063  -18.1725   15.0574 C   0  0  0  0  0  0  0  0  0  0  0  0
   16.8511  -19.4857   14.8513 N   0  0  0  0  0  0  0  0  0  0  0  0
   15.8782  -20.2140   15.3943 C   0  0  0  0  0  0  0  0  0  0  0  0
   15.0194  -19.3575   15.9431 N   0  0  0  0  0  0  0  0  0  0  0  0
   12.4447  -15.8805   16.2925 C   0  0  0  0  0  0  0  0  0  0  0  0
   12.6321  -14.6502   16.2329 O   0  0  0  0  0  0  0  0  0  0  0  0
   11.3344  -16.3513   17.0406 N   0  0  0  0  0  0  0  0  0  0  0  0
   10.4337  -15.5190   17.8090 C   0  0  1  0  0  0  0  0  0  0  0  0
    9.0342  -15.5299   17.3873 C   0  0  0  0  0  0  0  0  0  0  0  0
    8.0903  -14.7357   18.2036 C   0  0  0  0  0  0  0  0  0  0  0  0
    7.0670  -15.0952   19.0182 C   0  0  0  0  0  0  0  0  0  0  0  0
    6.5166  -13.9804   19.5140 N   0  0  0  0  0  0  0  0  0  0  0  0
    7.1718  -12.9116   19.0291 C   0  0  0  0  0  0  0  0  0  0  0  0
    8.1251  -13.3643   18.2355 N   0  0  0  0  0  0  0  0  0  0  0  0
   10.6695  -15.8071   19.2369 C   0  0  0  0  0  0  0  0  0  0  0  0
   11.0416  -16.9599   19.5475 O   0  0  0  0  0  0  0  0  0  0  0  0
   10.2231  -14.0671   22.5897 C   0  0  0  0  0  0  0  0  0  0  0  0
   10.6032  -15.1804   21.6706 C   0  0  2  0  0  0  0  0  0  0  0  0
   10.5039  -14.8694   20.2806 N   0  0  0  0  0  0  0  0  0  0  0  0
    9.7760  -16.3760   22.0424 C   0  0  0  0  0  0  0  0  0  0  0  0
   10.0014  -16.9783   23.2600 O   0  0  0  0  0  0  0  0  0  0  0  0
    8.9042  -16.7982   21.2435 O   0  0  0  0  0  0  0  0  0  0  0  0
  2  1  1  6
  2  3  1  0
  4  8  1  0
  4  3  1  0
  5  4  2  0
  6  5  1  0
  6  7  1  0
  7  8  2  0
  9  2  1  0
  9 10  2  0
 11  9  1  0
 12 11  1  0
 13 14  1  0
 12 13  1  6
 14 18  1  0
 15 14  2  0
 15 16  1  0
 16 17  1  0
 18 17  2  0
 19 12  1  0
 20 19  2  0
 22 23  1  0
 22 21  1  1
 23 19  1  0
 24 22  1  0
 25 24  1  0
 26 24  2  0
M  END
$$$$
