LWP.pdb
     RDKit          3D

 30 32  0  0  1  0  0  0  0  0999 V2000
    7.9427  -13.0356   18.2318 C   0  0  0  0  0  0  0  0  0  0  0  0
    8.3878  -14.3024   18.9311 C   0  0  1  0  0  0  0  0  0  0  0  0
    9.2368  -15.1401   18.0216 C   0  0  0  0  0  0  0  0  0  0  0  0
    9.0736  -13.9185   20.2128 C   0  0  0  0  0  0  0  0  0  0  0  0
    9.4545  -15.1208   21.0406 C   0  0  2  0  0  0  0  0  0  0  0  0
    8.6081  -16.2603   20.8202 N   0  0  0  0  0  0  0  0  0  0  0  0
    9.5741  -14.8287   22.4678 C   0  0  0  0  0  0  0  0  0  0  0  0
   10.2069  -13.7884   22.8431 O   0  0  0  0  0  0  0  0  0  0  0  0
    9.0124  -15.6602   23.4332 N   0  0  0  0  0  0  0  0  0  0  0  0
    8.9967  -15.3382   24.8913 C   0  0  1  0  0  0  0  0  0  0  0  0
    7.6362  -15.8698   25.3109 C   0  0  0  0  0  0  0  0  0  0  0  0
    6.6583  -14.8906   25.7513 C   0  0  0  0  0  0  0  0  0  0  0  0
    5.3360  -15.1594   26.0603 C   0  0  0  0  0  0  0  0  0  0  0  0
    4.7173  -13.9967   26.4050 N   0  0  0  0  0  0  0  0  0  0  0  0
    5.6193  -13.0089   26.3192 C   0  0  0  0  0  0  0  0  0  0  0  0
    5.5153  -11.6557   26.5567 C   0  0  0  0  0  0  0  0  0  0  0  0
    6.6053  -10.8304   26.3957 C   0  0  0  0  0  0  0  0  0  0  0  0
    7.8180  -11.3371   25.9956 C   0  0  0  0  0  0  0  0  0  0  0  0
    7.9162  -12.6971   25.7586 C   0  0  0  0  0  0  0  0  0  0  0  0
    6.8104  -13.5323   25.9222 C   0  0  0  0  0  0  0  0  0  0  0  0
   10.1212  -15.9967   25.5549 C   0  0  0  0  0  0  0  0  0  0  0  0
   10.9395  -16.6162   24.7744 O   0  0  0  0  0  0  0  0  0  0  0  0
   10.4341  -16.0432   26.9110 N   0  0  0  0  0  0  0  0  0  0  0  0
    9.6909  -15.5021   28.0339 C   0  0  0  0  0  0  0  0  0  0  0  0
   10.7304  -15.1145   29.0598 C   0  0  0  0  0  0  0  0  0  0  0  0
   12.0365  -15.4690   28.4080 C   0  0  0  0  0  0  0  0  0  0  0  0
   11.6453  -16.6308   27.5187 C   0  0  1  0  0  0  0  0  0  0  0  0
   11.3414  -17.7751   28.3861 C   0  0  0  0  0  0  0  0  0  0  0  0
   10.1300  -18.0722   28.5397 O   0  0  0  0  0  0  0  0  0  0  0  0
   12.2831  -18.5487   29.0453 O   0  0  0  0  0  0  0  0  0  0  0  0
  2  3  1  6
  2  1  1  0
  4  2  1  0
  5  4  1  0
  5  6  1  1
  7  8  2  0
  7  5  1  0
  9  7  1  0
 10  9  1  0
 10 11  1  1
 11 12  1  0
 12 13  2  0
 12 20  1  0
 13 14  1  0
 14 15  1  0
 15 16  2  0
 16 17  1  0
 18 17  2  0
 19 18  1  0
 20 19  2  0
 20 15  1  0
 21 10  1  0
 22 21  2  0
 23 27  1  0
 23 21  1  0
 24 23  1  0
 25 26  1  0
 25 24  1  0
 26 27  1  0
 27 28  1  1
 28 29  2  0
 28 30  1  0
M  END
$$$$
