LWP.pdb
     RDKit          3D

 30 32  0  0  1  0  0  0  0  0999 V2000
    7.3233  -14.7281   20.7651 C   0  0  0  0  0  0  0  0  0  0  0  0
    8.4773  -13.9753   20.1378 C   0  0  1  0  0  0  0  0  0  0  0  0
    8.6700  -12.6466   20.8065 C   0  0  0  0  0  0  0  0  0  0  0  0
    9.6953  -14.8555   20.1822 C   0  0  0  0  0  0  0  0  0  0  0  0
    9.6046  -15.9046   21.2625 C   0  0  2  0  0  0  0  0  0  0  0  0
    8.4417  -16.7408   21.1536 N   0  0  0  0  0  0  0  0  0  0  0  0
    9.7300  -15.3596   22.6129 C   0  0  0  0  0  0  0  0  0  0  0  0
   10.4271  -14.3100   22.8024 O   0  0  0  0  0  0  0  0  0  0  0  0
    9.1051  -15.9590   23.7035 N   0  0  0  0  0  0  0  0  0  0  0  0
    9.2639  -15.4825   25.1097 C   0  0  1  0  0  0  0  0  0  0  0  0
    7.9141  -15.8378   25.7112 C   0  0  0  0  0  0  0  0  0  0  0  0
    6.8656  -14.8390   25.6017 C   0  0  0  0  0  0  0  0  0  0  0  0
    5.5644  -15.0823   25.1966 C   0  0  0  0  0  0  0  0  0  0  0  0
    4.8771  -13.9071   25.1877 N   0  0  0  0  0  0  0  0  0  0  0  0
    5.7157  -12.9365   25.5769 C   0  0  0  0  0  0  0  0  0  0  0  0
    5.5298  -11.5807   25.7374 C   0  0  0  0  0  0  0  0  0  0  0  0
    6.5656  -10.7763   26.1560 C   0  0  0  0  0  0  0  0  0  0  0  0
    7.8047  -11.3068   26.4222 C   0  0  0  0  0  0  0  0  0  0  0  0
    7.9852  -12.6692   26.2590 C   0  0  0  0  0  0  0  0  0  0  0  0
    6.9343  -13.4833   25.8346 C   0  0  0  0  0  0  0  0  0  0  0  0
   10.3924  -16.1673   25.7391 C   0  0  0  0  0  0  0  0  0  0  0  0
   11.1597  -16.8231   24.9367 O   0  0  0  0  0  0  0  0  0  0  0  0
   10.7565  -16.2054   27.0826 N   0  0  0  0  0  0  0  0  0  0  0  0
   10.0904  -15.6016   28.2218 C   0  0  0  0  0  0  0  0  0  0  0  0
   11.1904  -15.2537   29.1977 C   0  0  0  0  0  0  0  0  0  0  0  0
   12.4474  -15.6940   28.5031 C   0  0  0  0  0  0  0  0  0  0  0  0
   11.9565  -16.8487   27.6549 C   0  0  1  0  0  0  0  0  0  0  0  0
   11.6245  -17.9571   28.5580 C   0  0  0  0  0  0  0  0  0  0  0  0
   10.4064  -18.2240   28.7142 O   0  0  0  0  0  0  0  0  0  0  0  0
   12.5465  -18.7275   29.2479 O   0  0  0  0  0  0  0  0  0  0  0  0
  2  3  1  1
  2  1  1  0
  4  2  1  0
  5  4  1  0
  5  6  1  1
  7  8  2  0
  7  5  1  0
  9  7  1  0
 10  9  1  0
 10 11  1  1
 11 12  1  0
 12 13  2  0
 12 20  1  0
 13 14  1  0
 14 15  1  0
 15 16  2  0
 16 17  1  0
 18 17  2  0
 19 18  1  0
 20 19  2  0
 20 15  1  0
 21 10  1  0
 22 21  2  0
 23 27  1  0
 23 21  1  0
 24 23  1  0
 25 26  1  0
 25 24  1  0
 26 27  1  0
 27 28  1  1
 28 29  2  0
 28 30  1  0
M  END
$$$$
