LWP.pdb
     RDKit          3D

 30 32  0  0  1  0  0  0  0  0999 V2000
   14.1303  -20.3172   21.0934 C   0  0  0  0  0  0  0  0  0  0  0  0
   13.0926  -19.4109   20.4659 C   0  0  1  0  0  0  0  0  0  0  0  0
   11.9781  -20.2159   19.8663 C   0  0  0  0  0  0  0  0  0  0  0  0
   12.6342  -18.4266   21.5058 C   0  0  0  0  0  0  0  0  0  0  0  0
   11.6448  -17.4302   20.9543 C   0  0  2  0  0  0  0  0  0  0  0  0
   12.0874  -16.7911   19.7463 N   0  0  0  0  0  0  0  0  0  0  0  0
   11.2080  -16.4407   21.9375 C   0  0  0  0  0  0  0  0  0  0  0  0
   11.9063  -15.3911   22.1222 O   0  0  0  0  0  0  0  0  0  0  0  0
   10.0437  -16.6145   22.6813 N   0  0  0  0  0  0  0  0  0  0  0  0
    9.6515  -15.7298   23.8184 C   0  0  1  0  0  0  0  0  0  0  0  0
    8.1497  -15.6132   23.6160 C   0  0  0  0  0  0  0  0  0  0  0  0
    7.3867  -15.0242   24.7022 C   0  0  0  0  0  0  0  0  0  0  0  0
    6.6549  -15.7280   25.6432 C   0  0  0  0  0  0  0  0  0  0  0  0
    6.0512  -14.8445   26.4849 N   0  0  0  0  0  0  0  0  0  0  0  0
    6.3873  -13.6073   26.0937 C   0  0  0  0  0  0  0  0  0  0  0  0
    6.0508  -12.3691   26.5957 C   0  0  0  0  0  0  0  0  0  0  0  0
    6.5316  -11.2207   26.0081 C   0  0  0  0  0  0  0  0  0  0  0  0
    7.3557  -11.2842   24.9107 C   0  0  0  0  0  0  0  0  0  0  0  0
    7.6900  -12.5308   24.4111 C   0  0  0  0  0  0  0  0  0  0  0  0
    7.2019  -13.6939   25.0077 C   0  0  0  0  0  0  0  0  0  0  0  0
   10.0326  -16.3542   25.0847 C   0  0  0  0  0  0  0  0  0  0  0  0
   10.4812  -17.5597   24.9949 O   0  0  0  0  0  0  0  0  0  0  0  0
    9.9836  -15.8265   26.3723 N   0  0  0  0  0  0  0  0  0  0  0  0
    9.2361  -14.6809   26.8569 C   0  0  0  0  0  0  0  0  0  0  0  0
   10.0753  -14.0876   27.9647 C   0  0  0  0  0  0  0  0  0  0  0  0
   11.2888  -14.9714   28.0166 C   0  0  0  0  0  0  0  0  0  0  0  0
   10.7356  -16.3022   27.5513 C   0  0  1  0  0  0  0  0  0  0  0  0
    9.8575  -16.8157   28.6094 C   0  0  0  0  0  0  0  0  0  0  0  0
   10.3211  -16.8403   29.7773 O   0  0  0  0  0  0  0  0  0  0  0  0
    8.5634  -17.2731   28.4201 O   0  0  0  0  0  0  0  0  0  0  0  0
  2  3  1  1
  2  1  1  0
  4  2  1  0
  5  4  1  0
  5  6  1  6
  7  8  2  0
  7  5  1  0
  9  7  1  0
 10  9  1  0
 10 11  1  1
 11 12  1  0
 12 13  2  0
 12 20  1  0
 13 14  1  0
 14 15  1  0
 15 16  2  0
 16 17  1  0
 18 17  2  0
 19 18  1  0
 20 19  2  0
 20 15  1  0
 21 10  1  0
 22 21  2  0
 23 27  1  0
 23 21  1  0
 24 23  1  0
 25 26  1  0
 25 24  1  0
 26 27  1  0
 27 28  1  1
 28 29  2  0
 28 30  1  0
M  END
$$$$
