LWP.pdb
     RDKit          3D

 30 32  0  0  1  0  0  0  0  0999 V2000
    7.8051  -13.0341   18.3285 C   0  0  0  0  0  0  0  0  0  0  0  0
    8.3968  -14.2601   18.9910 C   0  0  1  0  0  0  0  0  0  0  0  0
    9.7012  -14.6318   18.3506 C   0  0  0  0  0  0  0  0  0  0  0  0
    8.5032  -13.9946   20.4670 C   0  0  0  0  0  0  0  0  0  0  0  0
    9.0926  -15.1628   21.2178 C   0  0  2  0  0  0  0  0  0  0  0  0
    8.3419  -16.3784   21.0678 N   0  0  0  0  0  0  0  0  0  0  0  0
    9.3462  -14.8777   22.6288 C   0  0  0  0  0  0  0  0  0  0  0  0
   10.0368  -13.8553   22.9467 O   0  0  0  0  0  0  0  0  0  0  0  0
    8.8509  -15.6969   23.6401 N   0  0  0  0  0  0  0  0  0  0  0  0
    8.9776  -15.3809   25.0940 C   0  0  1  0  0  0  0  0  0  0  0  0
    7.6573  -15.8997   25.6396 C   0  0  0  0  0  0  0  0  0  0  0  0
    6.5883  -14.9296   25.7979 C   0  0  0  0  0  0  0  0  0  0  0  0
    5.2351  -15.2021   25.6930 C   0  0  0  0  0  0  0  0  0  0  0  0
    4.5364  -14.0473   25.8717 N   0  0  0  0  0  0  0  0  0  0  0  0
    5.4186  -13.0610   26.0855 C   0  0  0  0  0  0  0  0  0  0  0  0
    5.2424  -11.7147   26.3199 C   0  0  0  0  0  0  0  0  0  0  0  0
    6.3272  -10.8894   26.5130 C   0  0  0  0  0  0  0  0  0  0  0  0
    7.6064  -11.3892   26.4763 C   0  0  0  0  0  0  0  0  0  0  0  0
    7.7769  -12.7422   26.2403 C   0  0  0  0  0  0  0  0  0  0  0  0
    6.6764  -13.5775   26.0448 C   0  0  0  0  0  0  0  0  0  0  0  0
   10.1528  -16.0542   25.6455 C   0  0  0  0  0  0  0  0  0  0  0  0
   10.9366  -16.5992   24.7788 O   0  0  0  0  0  0  0  0  0  0  0  0
   10.5458  -16.1839   26.9750 N   0  0  0  0  0  0  0  0  0  0  0  0
    9.8375  -15.7793   28.1753 C   0  0  0  0  0  0  0  0  0  0  0  0
   10.9094  -15.4049   29.1725 C   0  0  0  0  0  0  0  0  0  0  0  0
   12.1946  -15.6235   28.4262 C   0  0  0  0  0  0  0  0  0  0  0  0
   11.8233  -16.7368   27.4689 C   0  0  1  0  0  0  0  0  0  0  0  0
   11.6395  -17.9613   28.2571 C   0  0  0  0  0  0  0  0  0  0  0  0
   12.6672  -18.4743   28.7670 O   0  0  0  0  0  0  0  0  0  0  0  0
   10.4260  -18.5914   28.4806 O   0  0  0  0  0  0  0  0  0  0  0  0
  2  3  1  6
  2  1  1  0
  4  2  1  0
  5  4  1  0
  5  6  1  1
  7  8  2  0
  7  5  1  0
  9  7  1  0
 10  9  1  0
 10 11  1  1
 11 12  1  0
 12 13  2  0
 12 20  1  0
 13 14  1  0
 14 15  1  0
 15 16  2  0
 16 17  1  0
 18 17  2  0
 19 18  1  0
 20 19  2  0
 20 15  1  0
 21 10  1  0
 22 21  2  0
 23 27  1  0
 23 21  1  0
 24 23  1  0
 25 26  1  0
 25 24  1  0
 26 27  1  0
 27 28  1  1
 28 29  2  0
 28 30  1  0
M  END
$$$$
