LWP.pdb
     RDKit          3D

 30 32  0  0  1  0  0  0  0  0999 V2000
    5.8641  -22.3274   22.2185 C   0  0  0  0  0  0  0  0  0  0  0  0
    6.0983  -21.2188   21.2144 C   0  0  1  0  0  0  0  0  0  0  0  0
    5.9520  -21.7327   19.8129 C   0  0  0  0  0  0  0  0  0  0  0  0
    5.1698  -20.0822   21.5403 C   0  0  0  0  0  0  0  0  0  0  0  0
    5.3758  -19.5578   22.9398 C   0  0  2  0  0  0  0  0  0  0  0  0
    4.1619  -19.4668   23.7025 N   0  0  0  0  0  0  0  0  0  0  0  0
    6.1151  -18.2978   22.9846 C   0  0  0  0  0  0  0  0  0  0  0  0
    5.6617  -17.2833   22.3613 O   0  0  0  0  0  0  0  0  0  0  0  0
    7.3073  -18.1751   23.6937 N   0  0  0  0  0  0  0  0  0  0  0  0
    8.1364  -16.9332   23.7049 C   0  0  1  0  0  0  0  0  0  0  0  0
    8.2051  -16.6205   25.1907 C   0  0  0  0  0  0  0  0  0  0  0  0
    7.2776  -15.6223   25.6929 C   0  0  0  0  0  0  0  0  0  0  0  0
    5.9706  -15.8635   26.0800 C   0  0  0  0  0  0  0  0  0  0  0  0
    5.3998  -14.6893   26.4658 N   0  0  0  0  0  0  0  0  0  0  0  0
    6.3169  -13.7212   26.3297 C   0  0  0  0  0  0  0  0  0  0  0  0
    6.2575  -12.3673   26.5782 C   0  0  0  0  0  0  0  0  0  0  0  0
    7.3541  -11.5653   26.3551 C   0  0  0  0  0  0  0  0  0  0  0  0
    8.5289  -12.0966   25.8807 C   0  0  0  0  0  0  0  0  0  0  0  0
    8.5823  -13.4571   25.6329 C   0  0  0  0  0  0  0  0  0  0  0  0
    7.4700  -14.2687   25.8596 C   0  0  0  0  0  0  0  0  0  0  0  0
    9.4378  -17.2023   23.0947 C   0  0  0  0  0  0  0  0  0  0  0  0
    9.8235  -18.4321   23.1321 O   0  0  0  0  0  0  0  0  0  0  0  0
   10.3154  -16.3168   22.4744 N   0  0  0  0  0  0  0  0  0  0  0  0
   10.2426  -14.8695   22.3982 C   0  0  0  0  0  0  0  0  0  0  0  0
   10.8697  -14.5006   21.0737 C   0  0  0  0  0  0  0  0  0  0  0  0
   11.2542  -15.8219   20.4714 C   0  0  0  0  0  0  0  0  0  0  0  0
   11.5228  -16.6671   21.6991 C   0  0  1  0  0  0  0  0  0  0  0  0
   12.7556  -16.1711   22.3223 C   0  0  0  0  0  0  0  0  0  0  0  0
   12.6306  -15.4287   23.3286 O   0  0  0  0  0  0  0  0  0  0  0  0
   14.0398  -16.4572   21.8883 O   0  0  0  0  0  0  0  0  0  0  0  0
  2  3  1  6
  2  1  1  0
  4  2  1  0
  5  4  1  0
  5  6  1  6
  7  8  2  0
  7  5  1  0
  9  7  1  0
 10  9  1  0
 10 11  1  1
 11 12  1  0
 12 13  2  0
 12 20  1  0
 13 14  1  0
 14 15  1  0
 15 16  2  0
 16 17  1  0
 18 17  2  0
 19 18  1  0
 20 19  2  0
 20 15  1  0
 21 10  1  0
 22 21  2  0
 23 27  1  0
 23 21  1  0
 24 23  1  0
 25 26  1  0
 25 24  1  0
 26 27  1  0
 27 28  1  1
 28 29  2  0
 28 30  1  0
M  END
$$$$
