LWP.pdb
     RDKit          3D

 30 32  0  0  1  0  0  0  0  0999 V2000
   12.9235  -16.2819   17.4030 C   0  0  0  0  0  0  0  0  0  0  0  0
   12.7704  -17.1450   18.6373 C   0  0  1  0  0  0  0  0  0  0  0  0
   14.0021  -17.9706   18.8634 C   0  0  0  0  0  0  0  0  0  0  0  0
   12.4201  -16.2540   19.7965 C   0  0  0  0  0  0  0  0  0  0  0  0
   11.7135  -17.0015   20.9001 C   0  0  2  0  0  0  0  0  0  0  0  0
   10.6534  -17.8496   20.4307 N   0  0  0  0  0  0  0  0  0  0  0  0
   11.2481  -16.1359   21.9820 C   0  0  0  0  0  0  0  0  0  0  0  0
   11.9334  -15.1106   22.3023 O   0  0  0  0  0  0  0  0  0  0  0  0
   10.0703  -16.4023   22.6754 N   0  0  0  0  0  0  0  0  0  0  0  0
    9.6116  -15.6121   23.8565 C   0  0  1  0  0  0  0  0  0  0  0  0
    8.1023  -15.6411   23.6810 C   0  0  0  0  0  0  0  0  0  0  0  0
    7.3067  -15.0908   24.7641 C   0  0  0  0  0  0  0  0  0  0  0  0
    6.6064  -15.8303   25.7017 C   0  0  0  0  0  0  0  0  0  0  0  0
    5.9565  -14.9781   26.5413 N   0  0  0  0  0  0  0  0  0  0  0  0
    6.2331  -13.7256   26.1520 C   0  0  0  0  0  0  0  0  0  0  0  0
    5.8341  -12.5057   26.6531 C   0  0  0  0  0  0  0  0  0  0  0  0
    6.2604  -11.3347   26.0680 C   0  0  0  0  0  0  0  0  0  0  0  0
    7.0912  -11.3570   24.9741 C   0  0  0  0  0  0  0  0  0  0  0  0
    7.4884  -12.5854   24.4753 C   0  0  0  0  0  0  0  0  0  0  0  0
    7.0555  -13.7715   25.0694 C   0  0  0  0  0  0  0  0  0  0  0  0
   10.0779  -16.2482   25.0880 C   0  0  0  0  0  0  0  0  0  0  0  0
   10.6318  -17.4031   24.9395 O   0  0  0  0  0  0  0  0  0  0  0  0
   10.0117  -15.7784   26.3971 N   0  0  0  0  0  0  0  0  0  0  0  0
    9.2664  -14.6484   26.9202 C   0  0  0  0  0  0  0  0  0  0  0  0
   10.0919  -14.1136   28.0673 C   0  0  0  0  0  0  0  0  0  0  0  0
   11.2963  -15.0106   28.0997 C   0  0  0  0  0  0  0  0  0  0  0  0
   10.7391  -16.3138   27.5658 C   0  0  1  0  0  0  0  0  0  0  0  0
    9.8385  -16.8656   28.5850 C   0  0  0  0  0  0  0  0  0  0  0  0
    8.6046  -16.7996   28.3559 O   0  0  0  0  0  0  0  0  0  0  0  0
   10.2426  -17.4505   29.7742 O   0  0  0  0  0  0  0  0  0  0  0  0
  2  3  1  1
  2  1  1  0
  4  2  1  0
  5  4  1  0
  5  6  1  6
  7  8  2  0
  7  5  1  0
  9  7  1  0
 10  9  1  0
 10 11  1  1
 11 12  1  0
 12 13  2  0
 12 20  1  0
 13 14  1  0
 14 15  1  0
 15 16  2  0
 16 17  1  0
 18 17  2  0
 19 18  1  0
 20 19  2  0
 20 15  1  0
 21 10  1  0
 22 21  2  0
 23 27  1  0
 23 21  1  0
 24 23  1  0
 25 26  1  0
 25 24  1  0
 26 27  1  0
 27 28  1  1
 28 29  2  0
 28 30  1  0
M  END
$$$$
