LWP.pdb
     RDKit          3D

 30 32  0  0  1  0  0  0  0  0999 V2000
    8.2192  -13.2474   17.2592 C   0  0  0  0  0  0  0  0  0  0  0  0
    8.8505  -14.4509   17.9265 C   0  0  1  0  0  0  0  0  0  0  0  0
    9.7798  -15.1542   16.9823 C   0  0  0  0  0  0  0  0  0  0  0  0
    9.5128  -13.9937   19.1964 C   0  0  0  0  0  0  0  0  0  0  0  0
    9.9774  -15.1491   20.0479 C   0  0  2  0  0  0  0  0  0  0  0  0
    9.2461  -16.3634   19.8151 N   0  0  0  0  0  0  0  0  0  0  0  0
   10.0268  -14.8358   21.4747 C   0  0  0  0  0  0  0  0  0  0  0  0
   10.7538  -13.8707   21.8790 O   0  0  0  0  0  0  0  0  0  0  0  0
    9.2971  -15.5667   22.4088 N   0  0  0  0  0  0  0  0  0  0  0  0
    9.0484  -15.1038   23.8065 C   0  0  1  0  0  0  0  0  0  0  0  0
    7.5433  -15.2773   23.9267 C   0  0  0  0  0  0  0  0  0  0  0  0
    6.9181  -14.7536   25.1283 C   0  0  0  0  0  0  0  0  0  0  0  0
    6.2517  -15.5064   26.0798 C   0  0  0  0  0  0  0  0  0  0  0  0
    5.7739  -14.6750   27.0462 N   0  0  0  0  0  0  0  0  0  0  0  0
    6.1249  -13.4225   26.7225 C   0  0  0  0  0  0  0  0  0  0  0  0
    5.8952  -12.2191   27.3531 C   0  0  0  0  0  0  0  0  0  0  0  0
    6.3667  -11.0439   26.8128 C   0  0  0  0  0  0  0  0  0  0  0  0
    7.0751  -11.0455   25.6357 C   0  0  0  0  0  0  0  0  0  0  0  0
    7.3025  -12.2574   25.0071 C   0  0  0  0  0  0  0  0  0  0  0  0
    6.8239  -13.4477   25.5559 C   0  0  0  0  0  0  0  0  0  0  0  0
    9.8166  -15.9236   24.7426 C   0  0  0  0  0  0  0  0  0  0  0  0
   10.4774  -16.8964   24.2138 O   0  0  0  0  0  0  0  0  0  0  0  0
    9.9380  -15.7967   26.1240 N   0  0  0  0  0  0  0  0  0  0  0  0
    9.1225  -15.0211   27.0402 C   0  0  0  0  0  0  0  0  0  0  0  0
   10.0551  -14.5898   28.1482 C   0  0  0  0  0  0  0  0  0  0  0  0
   11.3841  -15.1673   27.7523 C   0  0  0  0  0  0  0  0  0  0  0  0
   10.9777  -16.4045   26.9791 C   0  0  1  0  0  0  0  0  0  0  0  0
   10.4251  -17.3691   27.9376 C   0  0  0  0  0  0  0  0  0  0  0  0
    9.2030  -17.6434   27.8348 O   0  0  0  0  0  0  0  0  0  0  0  0
   11.1442  -17.9969   28.9418 O   0  0  0  0  0  0  0  0  0  0  0  0
  2  3  1  6
  2  1  1  0
  4  2  1  0
  5  4  1  0
  5  6  1  1
  7  8  2  0
  7  5  1  0
  9  7  1  0
 10  9  1  0
 10 11  1  1
 11 12  1  0
 12 13  2  0
 12 20  1  0
 13 14  1  0
 14 15  1  0
 15 16  2  0
 16 17  1  0
 18 17  2  0
 19 18  1  0
 20 19  2  0
 20 15  1  0
 21 10  1  0
 22 21  2  0
 23 27  1  0
 23 21  1  0
 24 23  1  0
 25 26  1  0
 25 24  1  0
 26 27  1  0
 27 28  1  1
 28 29  2  0
 28 30  1  0
M  END
$$$$
