LWP.pdb
     RDKit          3D

 30 32  0  0  1  0  0  0  0  0999 V2000
    8.6011  -14.9304   18.1684 C   0  0  0  0  0  0  0  0  0  0  0  0
    8.9661  -13.7886   19.0931 C   0  0  1  0  0  0  0  0  0  0  0  0
    8.7915  -12.4692   18.4013 C   0  0  0  0  0  0  0  0  0  0  0  0
    8.1546  -13.9219   20.3516 C   0  0  0  0  0  0  0  0  0  0  0  0
    8.6357  -15.0533   21.2259 C   0  0  2  0  0  0  0  0  0  0  0  0
    7.9527  -16.2940   20.9857 N   0  0  0  0  0  0  0  0  0  0  0  0
    8.6366  -14.7262   22.6505 C   0  0  0  0  0  0  0  0  0  0  0  0
    8.1406  -13.6187   23.0389 O   0  0  0  0  0  0  0  0  0  0  0  0
    9.1671  -15.5962   23.5995 N   0  0  0  0  0  0  0  0  0  0  0  0
    9.1962  -15.3023   25.0632 C   0  0  1  0  0  0  0  0  0  0  0  0
    7.8878  -15.9198   25.5288 C   0  0  0  0  0  0  0  0  0  0  0  0
    6.7824  -15.0087   25.7672 C   0  0  0  0  0  0  0  0  0  0  0  0
    5.4427  -15.3077   25.5882 C   0  0  0  0  0  0  0  0  0  0  0  0
    4.7005  -14.2044   25.8805 N   0  0  0  0  0  0  0  0  0  0  0  0
    5.5423  -13.2243   26.2374 C   0  0  0  0  0  0  0  0  0  0  0  0
    5.3140  -11.9218   26.6241 C   0  0  0  0  0  0  0  0  0  0  0  0
    6.3644  -11.0928   26.9478 C   0  0  0  0  0  0  0  0  0  0  0  0
    7.6603  -11.5453   26.8924 C   0  0  0  0  0  0  0  0  0  0  0  0
    7.8832  -12.8546   26.5032 C   0  0  0  0  0  0  0  0  0  0  0  0
    6.8176  -13.6937   26.1754 C   0  0  0  0  0  0  0  0  0  0  0  0
   10.3843  -15.9061   25.6651 C   0  0  0  0  0  0  0  0  0  0  0  0
   11.2513  -16.3718   24.8321 O   0  0  0  0  0  0  0  0  0  0  0  0
   10.7119  -16.0431   27.0115 N   0  0  0  0  0  0  0  0  0  0  0  0
    9.9374  -15.6625   28.1782 C   0  0  0  0  0  0  0  0  0  0  0  0
   10.9514  -15.2811   29.2318 C   0  0  0  0  0  0  0  0  0  0  0  0
   12.2759  -15.4710   28.5493 C   0  0  0  0  0  0  0  0  0  0  0  0
   11.9721  -16.5802   27.5640 C   0  0  1  0  0  0  0  0  0  0  0  0
   11.7694  -17.8156   28.3302 C   0  0  0  0  0  0  0  0  0  0  0  0
   10.5904  -18.2378   28.4357 O   0  0  0  0  0  0  0  0  0  0  0  0
   12.7733  -18.5479   28.9429 O   0  0  0  0  0  0  0  0  0  0  0  0
  2  3  1  6
  2  1  1  0
  4  2  1  0
  5  4  1  0
  5  6  1  1
  7  8  2  0
  7  5  1  0
  9  7  1  0
 10  9  1  0
 10 11  1  1
 11 12  1  0
 12 13  2  0
 12 20  1  0
 13 14  1  0
 14 15  1  0
 15 16  2  0
 16 17  1  0
 18 17  2  0
 19 18  1  0
 20 19  2  0
 20 15  1  0
 21 10  1  0
 22 21  2  0
 23 27  1  0
 23 21  1  0
 24 23  1  0
 25 26  1  0
 25 24  1  0
 26 27  1  0
 27 28  1  1
 28 29  2  0
 28 30  1  0
M  END
$$$$
