LWP.pdb
     RDKit          3D

 30 32  0  0  1  0  0  0  0  0999 V2000
   12.8411  -18.2482   19.2333 C   0  0  0  0  0  0  0  0  0  0  0  0
   12.0651  -18.7049   20.4504 C   0  0  1  0  0  0  0  0  0  0  0  0
   12.7022  -19.9175   21.0615 C   0  0  0  0  0  0  0  0  0  0  0  0
   11.9460  -17.5436   21.3979 C   0  0  0  0  0  0  0  0  0  0  0  0
   10.5313  -17.0295   21.4985 C   0  0  2  0  0  0  0  0  0  0  0  0
   10.0808  -16.3545   20.3132 N   0  0  0  0  0  0  0  0  0  0  0  0
   10.2940  -16.2113   22.6862 C   0  0  0  0  0  0  0  0  0  0  0  0
   10.6465  -14.9869   22.6837 O   0  0  0  0  0  0  0  0  0  0  0  0
    9.6901  -16.7359   23.8260 N   0  0  0  0  0  0  0  0  0  0  0  0
    9.5016  -15.9631   25.0897 C   0  0  1  0  0  0  0  0  0  0  0  0
    8.1038  -16.3892   25.5075 C   0  0  0  0  0  0  0  0  0  0  0  0
    7.0395  -15.4200   25.3161 C   0  0  0  0  0  0  0  0  0  0  0  0
    5.7844  -15.6969   24.8019 C   0  0  0  0  0  0  0  0  0  0  0  0
    5.0664  -14.5417   24.7421 N   0  0  0  0  0  0  0  0  0  0  0  0
    5.8409  -13.5508   25.2058 C   0  0  0  0  0  0  0  0  0  0  0  0
    5.6028  -12.2023   25.3579 C   0  0  0  0  0  0  0  0  0  0  0  0
    6.5762  -11.3721   25.8665 C   0  0  0  0  0  0  0  0  0  0  0  0
    7.8035  -11.8692   26.2326 C   0  0  0  0  0  0  0  0  0  0  0  0
    8.0366  -13.2245   26.0773 C   0  0  0  0  0  0  0  0  0  0  0  0
    7.0490  -14.0647   25.5617 C   0  0  0  0  0  0  0  0  0  0  0  0
   10.5436  -16.3242   26.0500 C   0  0  0  0  0  0  0  0  0  0  0  0
   11.5210  -17.0167   25.5726 O   0  0  0  0  0  0  0  0  0  0  0  0
   10.6300  -16.0201   27.4061 N   0  0  0  0  0  0  0  0  0  0  0  0
    9.7095  -15.2539   28.2257 C   0  0  0  0  0  0  0  0  0  0  0  0
   10.5644  -14.5771   29.2719 C   0  0  0  0  0  0  0  0  0  0  0  0
   11.9618  -15.0202   28.9440 C   0  0  0  0  0  0  0  0  0  0  0  0
   11.7284  -16.3825   28.3247 C   0  0  1  0  0  0  0  0  0  0  0  0
   11.2928  -17.2902   29.3926 C   0  0  0  0  0  0  0  0  0  0  0  0
   10.0721  -17.5865   29.4307 O   0  0  0  0  0  0  0  0  0  0  0  0
   12.1202  -17.8424   30.3570 O   0  0  0  0  0  0  0  0  0  0  0  0
  2  3  1  1
  2  1  1  0
  4  2  1  0
  5  4  1  0
  5  6  1  6
  7  8  2  0
  7  5  1  0
  9  7  1  0
 10  9  1  0
 10 11  1  1
 11 12  1  0
 12 13  2  0
 12 20  1  0
 13 14  1  0
 14 15  1  0
 15 16  2  0
 16 17  1  0
 18 17  2  0
 19 18  1  0
 20 19  2  0
 20 15  1  0
 21 10  1  0
 22 21  2  0
 23 27  1  0
 23 21  1  0
 24 23  1  0
 25 26  1  0
 25 24  1  0
 26 27  1  0
 27 28  1  1
 28 29  2  0
 28 30  1  0
M  END
$$$$
