LWP.pdb
     RDKit          3D

 30 32  0  0  1  0  0  0  0  0999 V2000
    8.0102  -12.8697   18.0422 C   0  0  0  0  0  0  0  0  0  0  0  0
    8.5094  -14.1424   18.6925 C   0  0  1  0  0  0  0  0  0  0  0  0
    9.4485  -14.8721   17.7785 C   0  0  0  0  0  0  0  0  0  0  0  0
    9.1153  -13.7874   20.0219 C   0  0  0  0  0  0  0  0  0  0  0  0
    9.4973  -15.0084   20.8214 C   0  0  2  0  0  0  0  0  0  0  0  0
    8.6601  -16.1470   20.5644 N   0  0  0  0  0  0  0  0  0  0  0  0
    9.6033  -14.7528   22.2565 C   0  0  0  0  0  0  0  0  0  0  0  0
   10.2820  -13.7554   22.6664 O   0  0  0  0  0  0  0  0  0  0  0  0
    8.9796  -15.5735   23.1928 N   0  0  0  0  0  0  0  0  0  0  0  0
    8.9180  -15.2620   24.6519 C   0  0  1  0  0  0  0  0  0  0  0  0
    7.5593  -15.8270   25.0318 C   0  0  0  0  0  0  0  0  0  0  0  0
    6.5674  -14.8804   25.5104 C   0  0  0  0  0  0  0  0  0  0  0  0
    5.2552  -15.1851   25.8294 C   0  0  0  0  0  0  0  0  0  0  0  0
    4.6172  -14.0450   26.2126 N   0  0  0  0  0  0  0  0  0  0  0  0
    5.4974  -13.0365   26.1411 C   0  0  0  0  0  0  0  0  0  0  0  0
    5.3685  -11.6925   26.4154 C   0  0  0  0  0  0  0  0  0  0  0  0
    6.4390  -10.8404   26.2621 C   0  0  0  0  0  0  0  0  0  0  0  0
    7.6564  -11.3109   25.8332 C   0  0  0  0  0  0  0  0  0  0  0  0
    7.7795  -12.6619   25.5592 C   0  0  0  0  0  0  0  0  0  0  0  0
    6.6936  -13.5242   25.7150 C   0  0  0  0  0  0  0  0  0  0  0  0
   10.0393  -15.8993   25.3411 C   0  0  0  0  0  0  0  0  0  0  0  0
   10.8601  -16.5445   24.5844 O   0  0  0  0  0  0  0  0  0  0  0  0
   10.3466  -15.9020   26.6992 N   0  0  0  0  0  0  0  0  0  0  0  0
    9.6042  -15.3159   27.7998 C   0  0  0  0  0  0  0  0  0  0  0  0
   10.6435  -14.9026   28.8160 C   0  0  0  0  0  0  0  0  0  0  0  0
   11.9487  -15.2911   28.1820 C   0  0  0  0  0  0  0  0  0  0  0  0
   11.5502  -16.4792   27.3316 C   0  0  1  0  0  0  0  0  0  0  0  0
   11.2326  -17.5902   28.2367 C   0  0  0  0  0  0  0  0  0  0  0  0
   12.1957  -18.1449   28.8233 O   0  0  0  0  0  0  0  0  0  0  0  0
    9.9589  -18.0717   28.4923 O   0  0  0  0  0  0  0  0  0  0  0  0
  2  3  1  6
  2  1  1  0
  4  2  1  0
  5  4  1  0
  5  6  1  1
  7  8  2  0
  7  5  1  0
  9  7  1  0
 10  9  1  0
 10 11  1  1
 11 12  1  0
 12 13  2  0
 12 20  1  0
 13 14  1  0
 14 15  1  0
 15 16  2  0
 16 17  1  0
 18 17  2  0
 19 18  1  0
 20 19  2  0
 20 15  1  0
 21 10  1  0
 22 21  2  0
 23 27  1  0
 23 21  1  0
 24 23  1  0
 25 26  1  0
 25 24  1  0
 26 27  1  0
 27 28  1  1
 28 29  2  0
 28 30  1  0
M  END
$$$$
