LWP.pdb
     RDKit          3D

 30 32  0  0  1  0  0  0  0  0999 V2000
    7.8253  -12.8667   18.1013 C   0  0  0  0  0  0  0  0  0  0  0  0
    8.3844  -14.0575   18.8506 C   0  0  1  0  0  0  0  0  0  0  0  0
    9.7128  -14.4641   18.2850 C   0  0  0  0  0  0  0  0  0  0  0  0
    8.4308  -13.7156   20.3139 C   0  0  0  0  0  0  0  0  0  0  0  0
    8.9282  -14.8650   21.1550 C   0  0  2  0  0  0  0  0  0  0  0  0
    8.2435  -16.1015   20.8985 N   0  0  0  0  0  0  0  0  0  0  0  0
    8.9517  -14.5694   22.5862 C   0  0  0  0  0  0  0  0  0  0  0  0
    8.6922  -13.3878   22.9859 O   0  0  0  0  0  0  0  0  0  0  0  0
    9.2513  -15.5489   23.5296 N   0  0  0  0  0  0  0  0  0  0  0  0
    9.2069  -15.3155   25.0038 C   0  0  1  0  0  0  0  0  0  0  0  0
    7.8539  -15.9033   25.3695 C   0  0  0  0  0  0  0  0  0  0  0  0
    6.7942  -14.9611   25.6833 C   0  0  0  0  0  0  0  0  0  0  0  0
    5.4491  -15.2713   25.7873 C   0  0  0  0  0  0  0  0  0  0  0  0
    4.7533  -14.1342   26.0638 N   0  0  0  0  0  0  0  0  0  0  0  0
    5.6294  -13.1222   26.1352 C   0  0  0  0  0  0  0  0  0  0  0  0
    5.4527  -11.7790   26.3861 C   0  0  0  0  0  0  0  0  0  0  0  0
    6.5305  -10.9226   26.4070 C   0  0  0  0  0  0  0  0  0  0  0  0
    7.8029  -11.3878   26.1787 C   0  0  0  0  0  0  0  0  0  0  0  0
    7.9738  -12.7379   25.9272 C   0  0  0  0  0  0  0  0  0  0  0  0
    6.8805  -13.6047   25.9063 C   0  0  0  0  0  0  0  0  0  0  0  0
   10.3376  -15.9858   25.6446 C   0  0  0  0  0  0  0  0  0  0  0  0
   11.1554  -16.5800   24.8442 O   0  0  0  0  0  0  0  0  0  0  0  0
   10.6567  -16.0671   26.9976 N   0  0  0  0  0  0  0  0  0  0  0  0
    9.9296  -15.5367   28.1360 C   0  0  0  0  0  0  0  0  0  0  0  0
   10.9816  -15.1903   29.1640 C   0  0  0  0  0  0  0  0  0  0  0  0
   12.2774  -15.5545   28.4973 C   0  0  0  0  0  0  0  0  0  0  0  0
   11.8602  -16.6897   27.5856 C   0  0  1  0  0  0  0  0  0  0  0  0
   11.5399  -17.8466   28.4302 C   0  0  0  0  0  0  0  0  0  0  0  0
   10.3287  -18.1674   28.5277 O   0  0  0  0  0  0  0  0  0  0  0  0
   12.4660  -18.6080   29.1247 O   0  0  0  0  0  0  0  0  0  0  0  0
  2  3  1  6
  2  1  1  0
  4  2  1  0
  5  4  1  0
  5  6  1  1
  7  8  2  0
  7  5  1  0
  9  7  1  0
 10  9  1  0
 10 11  1  1
 11 12  1  0
 12 13  2  0
 12 20  1  0
 13 14  1  0
 14 15  1  0
 15 16  2  0
 16 17  1  0
 18 17  2  0
 19 18  1  0
 20 19  2  0
 20 15  1  0
 21 10  1  0
 22 21  2  0
 23 27  1  0
 23 21  1  0
 24 23  1  0
 25 26  1  0
 25 24  1  0
 26 27  1  0
 27 28  1  1
 28 29  2  0
 28 30  1  0
M  END
$$$$
