LWP.pdb
     RDKit          3D

 30 32  0  0  1  0  0  0  0  0999 V2000
   14.5374  -19.2038   20.3323 C   0  0  0  0  0  0  0  0  0  0  0  0
   13.1921  -18.6201   19.9560 C   0  0  1  0  0  0  0  0  0  0  0  0
   12.2007  -19.7101   19.6754 C   0  0  0  0  0  0  0  0  0  0  0  0
   12.7627  -17.6804   21.0481 C   0  0  0  0  0  0  0  0  0  0  0  0
   11.4467  -17.0094   20.7415 C   0  0  2  0  0  0  0  0  0  0  0  0
   11.4272  -16.3390   19.4712 N   0  0  0  0  0  0  0  0  0  0  0  0
   10.9859  -16.1210   21.8068 C   0  0  0  0  0  0  0  0  0  0  0  0
   11.4715  -14.9465   21.8964 O   0  0  0  0  0  0  0  0  0  0  0  0
   10.0258  -16.5252   22.7309 N   0  0  0  0  0  0  0  0  0  0  0  0
    9.5996  -15.6929   23.8951 C   0  0  1  0  0  0  0  0  0  0  0  0
    8.0860  -15.8082   23.8203 C   0  0  0  0  0  0  0  0  0  0  0  0
    7.3269  -15.1502   24.8689 C   0  0  0  0  0  0  0  0  0  0  0  0
    6.6260  -15.7916   25.8757 C   0  0  0  0  0  0  0  0  0  0  0  0
    6.0156  -14.8565   26.6545 N   0  0  0  0  0  0  0  0  0  0  0  0
    6.3174  -13.6478   26.1598 C   0  0  0  0  0  0  0  0  0  0  0  0
    5.9607  -12.3807   26.5669 C   0  0  0  0  0  0  0  0  0  0  0  0
    6.4062  -11.2732   25.8811 C   0  0  0  0  0  0  0  0  0  0  0  0
    7.2143  -11.4071   24.7781 C   0  0  0  0  0  0  0  0  0  0  0  0
    7.5690  -12.6824   24.3741 C   0  0  0  0  0  0  0  0  0  0  0  0
    7.1167  -13.8039   25.0702 C   0  0  0  0  0  0  0  0  0  0  0  0
   10.1754  -16.2332   25.1260 C   0  0  0  0  0  0  0  0  0  0  0  0
   10.8683  -17.3117   24.9866 O   0  0  0  0  0  0  0  0  0  0  0  0
   10.0842  -15.7425   26.4259 N   0  0  0  0  0  0  0  0  0  0  0  0
    9.2251  -14.6933   26.9427 C   0  0  0  0  0  0  0  0  0  0  0  0
   10.0083  -14.0395   28.0575 C   0  0  0  0  0  0  0  0  0  0  0  0
   11.3087  -14.7912   28.0795 C   0  0  0  0  0  0  0  0  0  0  0  0
   10.8940  -16.1623   27.5877 C   0  0  1  0  0  0  0  0  0  0  0  0
   10.0857  -16.7891   28.6403 C   0  0  0  0  0  0  0  0  0  0  0  0
    8.8446  -16.8482   28.4514 O   0  0  0  0  0  0  0  0  0  0  0  0
   10.5837  -17.3178   29.8202 O   0  0  0  0  0  0  0  0  0  0  0  0
  2  3  1  1
  2  1  1  0
  4  2  1  0
  5  4  1  0
  5  6  1  6
  7  8  2  0
  7  5  1  0
  9  7  1  0
 10  9  1  0
 10 11  1  1
 11 12  1  0
 12 13  2  0
 12 20  1  0
 13 14  1  0
 14 15  1  0
 15 16  2  0
 16 17  1  0
 18 17  2  0
 19 18  1  0
 20 19  2  0
 20 15  1  0
 21 10  1  0
 22 21  2  0
 23 27  1  0
 23 21  1  0
 24 23  1  0
 25 26  1  0
 25 24  1  0
 26 27  1  0
 27 28  1  1
 28 29  2  0
 28 30  1  0
M  END
$$$$
