LWP.pdb
     RDKit          3D

 30 32  0  0  1  0  0  0  0  0999 V2000
   12.6159  -17.9586   18.8390 C   0  0  0  0  0  0  0  0  0  0  0  0
   12.2768  -18.5414   20.1945 C   0  0  1  0  0  0  0  0  0  0  0  0
   13.3320  -19.5128   20.6333 C   0  0  0  0  0  0  0  0  0  0  0  0
   12.0639  -17.4062   21.1570 C   0  0  0  0  0  0  0  0  0  0  0  0
   10.6649  -16.8467   21.0822 C   0  0  2  0  0  0  0  0  0  0  0  0
   10.3984  -16.1297   19.8663 N   0  0  0  0  0  0  0  0  0  0  0  0
   10.2956  -16.0485   22.2495 C   0  0  0  0  0  0  0  0  0  0  0  0
   10.6420  -14.8236   22.3055 O   0  0  0  0  0  0  0  0  0  0  0  0
    9.5719  -16.5927   23.3074 N   0  0  0  0  0  0  0  0  0  0  0  0
    9.2738  -15.8531   24.5699 C   0  0  1  0  0  0  0  0  0  0  0  0
    7.8883  -16.3743   24.9141 C   0  0  0  0  0  0  0  0  0  0  0  0
    6.9093  -15.3935   25.3483 C   0  0  0  0  0  0  0  0  0  0  0  0
    5.5802  -15.6569   25.6316 C   0  0  0  0  0  0  0  0  0  0  0  0
    4.9630  -14.4940   25.9784 N   0  0  0  0  0  0  0  0  0  0  0  0
    5.8728  -13.5113   25.9190 C   0  0  0  0  0  0  0  0  0  0  0  0
    5.7733  -12.1601   26.1695 C   0  0  0  0  0  0  0  0  0  0  0  0
    6.8713  -11.3403   26.0363 C   0  0  0  0  0  0  0  0  0  0  0  0
    8.0874  -11.8506   25.6516 C   0  0  0  0  0  0  0  0  0  0  0  0
    8.1809  -13.2086   25.4014 C   0  0  0  0  0  0  0  0  0  0  0  0
    7.0672  -14.0382   25.5367 C   0  0  0  0  0  0  0  0  0  0  0  0
   10.2902  -16.1615   25.5751 C   0  0  0  0  0  0  0  0  0  0  0  0
   11.3123  -16.8197   25.1454 O   0  0  0  0  0  0  0  0  0  0  0  0
   10.3103  -15.8390   26.9295 N   0  0  0  0  0  0  0  0  0  0  0  0
    9.3165  -15.1230   27.7077 C   0  0  0  0  0  0  0  0  0  0  0  0
   10.0911  -14.3841   28.7742 C   0  0  0  0  0  0  0  0  0  0  0  0
   11.5236  -14.7431   28.4996 C   0  0  0  0  0  0  0  0  0  0  0  0
   11.3962  -16.1234   27.8894 C   0  0  1  0  0  0  0  0  0  0  0  0
   10.9803  -17.0455   28.9529 C   0  0  0  0  0  0  0  0  0  0  0  0
    9.7739  -17.3970   28.9674 O   0  0  0  0  0  0  0  0  0  0  0  0
   11.8118  -17.5553   29.9369 O   0  0  0  0  0  0  0  0  0  0  0  0
  2  3  1  1
  2  1  1  0
  4  2  1  0
  5  4  1  0
  5  6  1  6
  7  8  2  0
  7  5  1  0
  9  7  1  0
 10  9  1  0
 10 11  1  1
 11 12  1  0
 12 13  2  0
 12 20  1  0
 13 14  1  0
 14 15  1  0
 15 16  2  0
 16 17  1  0
 18 17  2  0
 19 18  1  0
 20 19  2  0
 20 15  1  0
 21 10  1  0
 22 21  2  0
 23 27  1  0
 23 21  1  0
 24 23  1  0
 25 26  1  0
 25 24  1  0
 26 27  1  0
 27 28  1  1
 28 29  2  0
 28 30  1  0
M  END
$$$$
