LWP.pdb
     RDKit          3D

 30 32  0  0  1  0  0  0  0  0999 V2000
   12.8344  -20.9096   21.0090 C   0  0  0  0  0  0  0  0  0  0  0  0
   12.3324  -19.6318   20.3708 C   0  0  1  0  0  0  0  0  0  0  0  0
   11.0547  -19.8778   19.6247 C   0  0  0  0  0  0  0  0  0  0  0  0
   12.2133  -18.5838   21.4422 C   0  0  0  0  0  0  0  0  0  0  0  0
   11.6401  -17.2908   20.9172 C   0  0  2  0  0  0  0  0  0  0  0  0
   12.4871  -16.6349   19.9601 N   0  0  0  0  0  0  0  0  0  0  0  0
   11.2324  -16.3656   21.9726 C   0  0  0  0  0  0  0  0  0  0  0  0
   12.0500  -15.4750   22.3749 O   0  0  0  0  0  0  0  0  0  0  0  0
    9.9684  -16.4311   22.5534 N   0  0  0  0  0  0  0  0  0  0  0  0
    9.5517  -15.5954   23.7186 C   0  0  1  0  0  0  0  0  0  0  0  0
    8.0465  -15.5196   23.5224 C   0  0  0  0  0  0  0  0  0  0  0  0
    7.2679  -14.9929   24.6294 C   0  0  0  0  0  0  0  0  0  0  0  0
    6.5015  -15.7462   25.5020 C   0  0  0  0  0  0  0  0  0  0  0  0
    5.8931  -14.9119   26.3894 N   0  0  0  0  0  0  0  0  0  0  0  0
    6.2600  -13.6572   26.0932 C   0  0  0  0  0  0  0  0  0  0  0  0
    5.9330  -12.4506   26.6725 C   0  0  0  0  0  0  0  0  0  0  0  0
    6.4477  -11.2735   26.1776 C   0  0  0  0  0  0  0  0  0  0  0  0
    7.2968  -11.2765   25.0975 C   0  0  0  0  0  0  0  0  0  0  0  0
    7.6213  -12.4915   24.5199 C   0  0  0  0  0  0  0  0  0  0  0  0
    7.0988  -13.6837   25.0226 C   0  0  0  0  0  0  0  0  0  0  0  0
    9.9554  -16.2473   24.9638 C   0  0  0  0  0  0  0  0  0  0  0  0
   10.4188  -17.4439   24.8376 O   0  0  0  0  0  0  0  0  0  0  0  0
    9.9142  -15.7540   26.2653 N   0  0  0  0  0  0  0  0  0  0  0  0
    9.1769  -14.6160   26.7826 C   0  0  0  0  0  0  0  0  0  0  0  0
   10.0238  -14.0591   27.9033 C   0  0  0  0  0  0  0  0  0  0  0  0
   11.2306  -14.9531   27.9279 C   0  0  0  0  0  0  0  0  0  0  0  0
   10.6657  -16.2668   27.4288 C   0  0  1  0  0  0  0  0  0  0  0  0
    9.7867  -16.8017   28.4755 C   0  0  0  0  0  0  0  0  0  0  0  0
   10.3104  -17.0557   29.5893 O   0  0  0  0  0  0  0  0  0  0  0  0
    8.4309  -17.0470   28.3300 O   0  0  0  0  0  0  0  0  0  0  0  0
  2  3  1  1
  2  1  1  0
  4  2  1  0
  5  4  1  0
  5  6  1  6
  7  8  2  0
  7  5  1  0
  9  7  1  0
 10  9  1  0
 10 11  1  1
 11 12  1  0
 12 13  2  0
 12 20  1  0
 13 14  1  0
 14 15  1  0
 15 16  2  0
 16 17  1  0
 18 17  2  0
 19 18  1  0
 20 19  2  0
 20 15  1  0
 21 10  1  0
 22 21  2  0
 23 27  1  0
 23 21  1  0
 24 23  1  0
 25 26  1  0
 25 24  1  0
 26 27  1  0
 27 28  1  1
 28 29  2  0
 28 30  1  0
M  END
$$$$
