NKS.pdb
     RDKit          3D

 24 23  0  0  1  0  0  0  0  0999 V2000
   11.1950  -12.3063  -13.7537 N   0  0  0  0  0  0  0  0  0  0  0  0
   12.2190  -12.2862  -14.7397 C   0  0  0  0  0  0  0  0  0  0  0  0
   12.0279  -12.5989  -15.9343 O   0  0  0  0  0  0  0  0  0  0  0  0
   13.5824  -11.8765  -14.3439 C   0  0  0  0  0  0  0  0  0  0  0  0
   14.6471  -12.6174  -15.1268 C   0  0  2  0  0  0  0  0  0  0  0  0
   14.7082  -14.0004  -14.7132 N   0  0  0  0  0  0  0  0  0  0  0  0
   15.9820  -12.0161  -14.9536 C   0  0  0  0  0  0  0  0  0  0  0  0
   16.4844  -11.8537  -13.8032 O   0  0  0  0  0  0  0  0  0  0  0  0
   16.7598  -11.5945  -16.0606 N   0  0  0  0  0  0  0  0  0  0  0  0
   18.1041  -10.9781  -15.8829 C   0  0  1  0  0  0  0  0  0  0  0  0
   18.9742  -11.5195  -17.0256 C   0  0  0  0  0  0  0  0  0  0  0  0
   20.3510  -10.9746  -17.0218 C   0  0  0  0  0  0  0  0  0  0  0  0
   21.2214  -11.5356  -18.1534 C   0  0  0  0  0  0  0  0  0  0  0  0
   22.5881  -10.9095  -18.0552 C   0  0  0  0  0  0  0  0  0  0  0  0
   23.4813  -11.6240  -18.9769 N   0  0  0  0  0  0  0  0  0  0  0  0
   17.9409   -9.5316  -16.0741 C   0  0  0  0  0  0  0  0  0  0  0  0
   17.2479   -9.1292  -17.0677 O   0  0  0  0  0  0  0  0  0  0  0  0
   17.1088   -5.2897  -14.6417 O   0  0  0  0  0  0  0  0  0  0  0  0
   17.2809   -6.6426  -14.4528 C   0  0  0  0  0  0  0  0  0  0  0  0
   18.2329   -7.1339  -15.5525 C   0  0  2  0  0  0  0  0  0  0  0  0
   18.4814   -8.5312  -15.2465 N   0  0  0  0  0  0  0  0  0  0  0  0
   19.4972   -6.3967  -15.5357 C   0  0  0  0  0  0  0  0  0  0  0  0
   19.5783   -5.0783  -15.9451 O   0  0  0  0  0  0  0  0  0  0  0  0
   20.5587   -6.9471  -15.1445 O   0  0  0  0  0  0  0  0  0  0  0  0
  2  1  1  0
  2  3  2  0
  4  5  1  0
  4  2  1  0
  5  6  1  1
  7  5  1  0
  8  7  2  0
  9  7  1  0
 10  9  1  0
 10 11  1  6
 11 12  1  0
 12 13  1  0
 13 14  1  0
 14 15  1  0
 16 21  1  0
 16 10  1  0
 17 16  2  0
 18 19  1  0
 20 19  1  1
 20 21  1  0
 22 20  1  0
 23 22  1  0
 24 22  2  0
M  END
$$$$
