NKS.pdb
     RDKit          3D

 24 23  0  0  1  0  0  0  0  0999 V2000
   29.2016  -20.8293  -17.8560 N   0  0  0  0  0  0  0  0  0  0  0  0
   27.9365  -21.2879  -18.3148 C   0  0  0  0  0  0  0  0  0  0  0  0
   27.6706  -21.4758  -19.5211 O   0  0  0  0  0  0  0  0  0  0  0  0
   26.8742  -21.5596  -17.3242 C   0  0  0  0  0  0  0  0  0  0  0  0
   27.2868  -21.1533  -15.9242 C   0  0  2  0  0  0  0  0  0  0  0  0
   28.4208  -21.9335  -15.4850 N   0  0  0  0  0  0  0  0  0  0  0  0
   26.1926  -21.3265  -14.9514 C   0  0  0  0  0  0  0  0  0  0  0  0
   25.1322  -21.9452  -15.2596 O   0  0  0  0  0  0  0  0  0  0  0  0
   26.2770  -20.8113  -13.6340 N   0  0  0  0  0  0  0  0  0  0  0  0
   25.1664  -20.9791  -12.6556 C   0  0  1  0  0  0  0  0  0  0  0  0
   25.5711  -20.1761  -11.4117 C   0  0  0  0  0  0  0  0  0  0  0  0
   24.4886  -20.0677  -10.4072 C   0  0  0  0  0  0  0  0  0  0  0  0
   24.5131  -21.2012   -9.3740 C   0  0  0  0  0  0  0  0  0  0  0  0
   23.3918  -20.9736   -8.3940 C   0  0  0  0  0  0  0  0  0  0  0  0
   23.4494  -22.0388   -7.3841 N   0  0  0  0  0  0  0  0  0  0  0  0
   23.9781  -20.3490  -13.2440 C   0  0  0  0  0  0  0  0  0  0  0  0
   24.1015  -19.1829  -13.7486 O   0  0  0  0  0  0  0  0  0  0  0  0
   22.1007  -20.9028  -16.0392 O   0  0  0  0  0  0  0  0  0  0  0  0
   21.1152  -20.9791  -15.0809 C   0  0  0  0  0  0  0  0  0  0  0  0
   21.5959  -20.1615  -13.8736 C   0  0  2  0  0  0  0  0  0  0  0  0
   22.6960  -20.9230  -13.3099 N   0  0  0  0  0  0  0  0  0  0  0  0
   20.5393  -20.0128  -12.8718 C   0  0  0  0  0  0  0  0  0  0  0  0
   19.6545  -18.9504  -12.8971 O   0  0  0  0  0  0  0  0  0  0  0  0
   20.4042  -20.8562  -11.9481 O   0  0  0  0  0  0  0  0  0  0  0  0
  2  1  1  0
  2  3  2  0
  4  5  1  0
  4  2  1  0
  5  6  1  1
  7  5  1  0
  8  7  2  0
  9  7  1  0
 10  9  1  0
 10 11  1  1
 11 12  1  0
 12 13  1  0
 13 14  1  0
 14 15  1  0
 16 21  1  0
 16 10  1  0
 17 16  2  0
 18 19  1  0
 20 19  1  6
 20 21  1  0
 22 20  1  0
 23 22  1  0
 24 22  2  0
M  END
$$$$
