NKS.pdb
     RDKit          3D

 24 23  0  0  1  0  0  0  0  0999 V2000
   24.8738  -18.8040  -15.6639 N   0  0  0  0  0  0  0  0  0  0  0  0
   24.4260  -19.6777  -16.6922 C   0  0  0  0  0  0  0  0  0  0  0  0
   24.8649  -19.6434  -17.8616 O   0  0  0  0  0  0  0  0  0  0  0  0
   23.3893  -20.6814  -16.3740 C   0  0  0  0  0  0  0  0  0  0  0  0
   22.8925  -20.5516  -14.9486 C   0  0  2  0  0  0  0  0  0  0  0  0
   23.8817  -21.0504  -14.0211 N   0  0  0  0  0  0  0  0  0  0  0  0
   21.6327  -21.2860  -14.7313 C   0  0  0  0  0  0  0  0  0  0  0  0
   20.8876  -21.6122  -15.7013 O   0  0  0  0  0  0  0  0  0  0  0  0
   21.2003  -21.6584  -13.4343 N   0  0  0  0  0  0  0  0  0  0  0  0
   19.9638  -22.4615  -13.2223 C   0  0  1  0  0  0  0  0  0  0  0  0
   20.0901  -23.0737  -11.8205 C   0  0  0  0  0  0  0  0  0  0  0  0
   18.9516  -23.9489  -11.4592 C   0  0  0  0  0  0  0  0  0  0  0  0
   19.0314  -24.4739  -10.0201 C   0  0  0  0  0  0  0  0  0  0  0  0
   17.8979  -25.4426   -9.8054 C   0  0  0  0  0  0  0  0  0  0  0  0
   18.0533  -26.0330   -8.4693 N   0  0  0  0  0  0  0  0  0  0  0  0
   18.8374  -21.5198  -13.2138 C   0  0  0  0  0  0  0  0  0  0  0  0
   19.0062  -20.3832  -12.6580 O   0  0  0  0  0  0  0  0  0  0  0  0
   15.3272  -19.4323  -15.3046 O   0  0  0  0  0  0  0  0  0  0  0  0
   16.3206  -20.3844  -15.2581 C   0  0  0  0  0  0  0  0  0  0  0  0
   16.5765  -20.6972  -13.7770 C   0  0  2  0  0  0  0  0  0  0  0  0
   17.5702  -21.7556  -13.7760 N   0  0  0  0  0  0  0  0  0  0  0  0
   15.3608  -21.1663  -13.1104 C   0  0  0  0  0  0  0  0  0  0  0  0
   14.5240  -20.3029  -12.4273 O   0  0  0  0  0  0  0  0  0  0  0  0
   15.0385  -22.3821  -13.1394 O   0  0  0  0  0  0  0  0  0  0  0  0
  2  1  1  0
  2  3  2  0
  4  5  1  0
  4  2  1  0
  5  6  1  1
  7  5  1  0
  8  7  2  0
  9  7  1  0
 10  9  1  0
 10 11  1  1
 11 12  1  0
 12 13  1  0
 13 14  1  0
 14 15  1  0
 16 21  1  0
 16 10  1  0
 17 16  2  0
 18 19  1  0
 20 19  1  6
 20 21  1  0
 22 20  1  0
 23 22  1  0
 24 22  2  0
M  END
$$$$
