NKS.pdb
     RDKit          3D

 24 23  0  0  1  0  0  0  0  0999 V2000
   25.8609  -18.2119  -20.9688 N   0  0  0  0  0  0  0  0  0  0  0  0
   25.4059  -17.8756  -19.6645 C   0  0  0  0  0  0  0  0  0  0  0  0
   25.5811  -16.7530  -19.1445 O   0  0  0  0  0  0  0  0  0  0  0  0
   24.6881  -18.8971  -18.8741 C   0  0  0  0  0  0  0  0  0  0  0  0
   25.3689  -19.1702  -17.5485 C   0  0  2  0  0  0  0  0  0  0  0  0
   26.6167  -19.8686  -17.7554 N   0  0  0  0  0  0  0  0  0  0  0  0
   24.5244  -19.9748  -16.6467 C   0  0  0  0  0  0  0  0  0  0  0  0
   24.0821  -21.1074  -16.9987 O   0  0  0  0  0  0  0  0  0  0  0  0
   24.1711  -19.5201  -15.3520 N   0  0  0  0  0  0  0  0  0  0  0  0
   23.3621  -20.3571  -14.4225 C   0  0  1  0  0  0  0  0  0  0  0  0
   23.6356  -19.8129  -13.0137 C   0  0  0  0  0  0  0  0  0  0  0  0
   22.8002  -20.4474  -11.9687 C   0  0  0  0  0  0  0  0  0  0  0  0
   23.5433  -20.6385  -10.6404 C   0  0  0  0  0  0  0  0  0  0  0  0
   22.6239  -21.3477   -9.6806 C   0  0  0  0  0  0  0  0  0  0  0  0
   23.2781  -21.3790   -8.3657 N   0  0  0  0  0  0  0  0  0  0  0  0
   21.9506  -20.1129  -14.7444 C   0  0  0  0  0  0  0  0  0  0  0  0
   21.5741  -18.9072  -14.9286 O   0  0  0  0  0  0  0  0  0  0  0  0
   19.7376  -22.2302  -16.9464 O   0  0  0  0  0  0  0  0  0  0  0  0
   18.9594  -21.9334  -15.8501 C   0  0  0  0  0  0  0  0  0  0  0  0
   19.5908  -20.7124  -15.1662 C   0  0  2  0  0  0  0  0  0  0  0  0
   20.9592  -21.1015  -14.8770 N   0  0  0  0  0  0  0  0  0  0  0  0
   18.9018  -20.3810  -13.9181 C   0  0  0  0  0  0  0  0  0  0  0  0
   17.7450  -19.6236  -13.9025 O   0  0  0  0  0  0  0  0  0  0  0  0
   19.3470  -20.7797  -12.8111 O   0  0  0  0  0  0  0  0  0  0  0  0
  2  1  1  0
  2  3  2  0
  4  5  1  0
  4  2  1  0
  5  6  1  6
  7  5  1  0
  8  7  2  0
  9  7  1  0
 10  9  1  0
 10 11  1  1
 11 12  1  0
 12 13  1  0
 13 14  1  0
 14 15  1  0
 16 21  1  0
 16 10  1  0
 17 16  2  0
 18 19  1  0
 20 19  1  1
 20 21  1  0
 22 20  1  0
 23 22  1  0
 24 22  2  0
M  END
$$$$
