NKS.pdb
     RDKit          3D

 24 23  0  0  1  0  0  0  0  0999 V2000
   28.2972  -21.5737  -16.7099 N   0  0  0  0  0  0  0  0  0  0  0  0
   28.5982  -20.2491  -17.1294 C   0  0  0  0  0  0  0  0  0  0  0  0
   29.6227  -19.9510  -17.7796 O   0  0  0  0  0  0  0  0  0  0  0  0
   27.6594  -19.1612  -16.7850 C   0  0  0  0  0  0  0  0  0  0  0  0
   26.5181  -19.6504  -15.9171 C   0  0  2  0  0  0  0  0  0  0  0  0
   26.0814  -20.9590  -16.3464 N   0  0  0  0  0  0  0  0  0  0  0  0
   25.3628  -18.7351  -15.9522 C   0  0  0  0  0  0  0  0  0  0  0  0
   25.4376  -17.5654  -15.4739 O   0  0  0  0  0  0  0  0  0  0  0  0
   24.1228  -19.1201  -16.5196 N   0  0  0  0  0  0  0  0  0  0  0  0
   22.9223  -18.2412  -16.4465 C   0  0  1  0  0  0  0  0  0  0  0  0
   22.4384  -18.0619  -17.8920 C   0  0  0  0  0  0  0  0  0  0  0  0
   22.6412  -16.6901  -18.4112 C   0  0  0  0  0  0  0  0  0  0  0  0
   21.8653  -15.6286  -17.6211 C   0  0  0  0  0  0  0  0  0  0  0  0
   22.0802  -14.2930  -18.2839 C   0  0  0  0  0  0  0  0  0  0  0  0
   21.2857  -13.2935  -17.5575 N   0  0  0  0  0  0  0  0  0  0  0  0
   21.8938  -18.9815  -15.7051 C   0  0  0  0  0  0  0  0  0  0  0  0
   21.6392  -20.1804  -16.0617 O   0  0  0  0  0  0  0  0  0  0  0  0
   19.4511  -17.3913  -12.8648 O   0  0  0  0  0  0  0  0  0  0  0  0
   19.8802  -18.6767  -12.6218 C   0  0  0  0  0  0  0  0  0  0  0  0
   20.1528  -19.3265  -13.9857 C   0  0  2  0  0  0  0  0  0  0  0  0
   21.1548  -18.4859  -14.6161 N   0  0  0  0  0  0  0  0  0  0  0  0
   18.9474  -19.3575  -14.8154 C   0  0  0  0  0  0  0  0  0  0  0  0
   17.9402  -20.2812  -14.6043 O   0  0  0  0  0  0  0  0  0  0  0  0
   18.7910  -18.5358  -15.7551 O   0  0  0  0  0  0  0  0  0  0  0  0
  2  1  1  0
  2  3  2  0
  4  5  1  0
  4  2  1  0
  5  6  1  6
  7  5  1  0
  8  7  2  0
  9  7  1  0
 10  9  1  0
 10 11  1  6
 11 12  1  0
 12 13  1  0
 13 14  1  0
 14 15  1  0
 16 21  1  0
 16 10  1  0
 17 16  2  0
 18 19  1  0
 20 19  1  1
 20 21  1  0
 22 20  1  0
 23 22  1  0
 24 22  2  0
M  END
$$$$
