NKS.pdb
     RDKit          3D

 24 23  0  0  1  0  0  0  0  0999 V2000
   17.5737  -12.8682  -16.9704 N   0  0  0  0  0  0  0  0  0  0  0  0
   18.1766  -13.3008  -15.7577 C   0  0  0  0  0  0  0  0  0  0  0  0
   17.8279  -14.3342  -15.1481 O   0  0  0  0  0  0  0  0  0  0  0  0
   19.2722  -12.4956  -15.1791 C   0  0  0  0  0  0  0  0  0  0  0  0
   19.5895  -11.2789  -16.0243 C   0  0  2  0  0  0  0  0  0  0  0  0
   20.1899  -11.6762  -17.2770 N   0  0  0  0  0  0  0  0  0  0  0  0
   20.5063  -10.3505  -15.3378 C   0  0  0  0  0  0  0  0  0  0  0  0
   20.2517   -9.9157  -14.1766 O   0  0  0  0  0  0  0  0  0  0  0  0
   21.7077   -9.9048  -15.9426 N   0  0  0  0  0  0  0  0  0  0  0  0
   22.6393   -8.9774  -15.2419 C   0  0  1  0  0  0  0  0  0  0  0  0
   23.9958   -9.1271  -15.9441 C   0  0  0  0  0  0  0  0  0  0  0  0
   24.7485  -10.3275  -15.5137 C   0  0  0  0  0  0  0  0  0  0  0  0
   26.0344  -10.5503  -16.3198 C   0  0  0  0  0  0  0  0  0  0  0  0
   26.6941  -11.8096  -15.8213 C   0  0  0  0  0  0  0  0  0  0  0  0
   27.9486  -11.9887  -16.5643 N   0  0  0  0  0  0  0  0  0  0  0  0
   22.1461   -7.6149  -15.4785 C   0  0  0  0  0  0  0  0  0  0  0  0
   21.8922   -7.2659  -16.6798 O   0  0  0  0  0  0  0  0  0  0  0  0
   19.6187   -3.9361  -14.8685 O   0  0  0  0  0  0  0  0  0  0  0  0
   20.0182   -5.2228  -14.5850 C   0  0  0  0  0  0  0  0  0  0  0  0
   21.5241   -5.3012  -14.8735 C   0  0  2  0  0  0  0  0  0  0  0  0
   21.9178   -6.6441  -14.4870 N   0  0  0  0  0  0  0  0  0  0  0  0
   22.2733   -4.3244  -14.0817 C   0  0  0  0  0  0  0  0  0  0  0  0
   22.9767   -4.6896  -12.9485 O   0  0  0  0  0  0  0  0  0  0  0  0
   22.2990   -3.1109  -14.4123 O   0  0  0  0  0  0  0  0  0  0  0  0
  2  1  1  0
  2  3  2  0
  4  5  1  0
  4  2  1  0
  5  6  1  6
  7  5  1  0
  8  7  2  0
  9  7  1  0
 10  9  1  0
 10 11  1  6
 11 12  1  0
 12 13  1  0
 13 14  1  0
 14 15  1  0
 16 21  1  0
 16 10  1  0
 17 16  2  0
 18 19  1  0
 20 19  1  1
 20 21  1  0
 22 20  1  0
 23 22  1  0
 24 22  2  0
M  END
$$$$
