NKS.pdb
     RDKit          3D

 24 23  0  0  1  0  0  0  0  0999 V2000
   26.0848  -13.1297  -16.2598 N   0  0  0  0  0  0  0  0  0  0  0  0
   26.3532  -11.8126  -15.7967 C   0  0  0  0  0  0  0  0  0  0  0  0
   27.4142  -11.4904  -15.2207 O   0  0  0  0  0  0  0  0  0  0  0  0
   25.3335  -10.7631  -16.0010 C   0  0  0  0  0  0  0  0  0  0  0  0
   24.0365  -11.3299  -16.5413 C   0  0  2  0  0  0  0  0  0  0  0  0
   24.2292  -11.8507  -17.8752 N   0  0  0  0  0  0  0  0  0  0  0  0
   22.9640  -10.3190  -16.5824 C   0  0  0  0  0  0  0  0  0  0  0  0
   22.8726   -9.4979  -17.5414 O   0  0  0  0  0  0  0  0  0  0  0  0
   21.9918  -10.2206  -15.5563 N   0  0  0  0  0  0  0  0  0  0  0  0
   20.8761   -9.2362  -15.6272 C   0  0  1  0  0  0  0  0  0  0  0  0
   19.6739   -9.9069  -14.9486 C   0  0  0  0  0  0  0  0  0  0  0  0
   18.7341  -10.5318  -15.9072 C   0  0  0  0  0  0  0  0  0  0  0  0
   17.5709  -11.2583  -15.2201 C   0  0  0  0  0  0  0  0  0  0  0  0
   16.6800  -11.8410  -16.2860 C   0  0  0  0  0  0  0  0  0  0  0  0
   15.6479  -12.6486  -15.6224 N   0  0  0  0  0  0  0  0  0  0  0  0
   21.2746   -8.0778  -14.8179 C   0  0  0  0  0  0  0  0  0  0  0  0
   21.7540   -8.2917  -13.6543 O   0  0  0  0  0  0  0  0  0  0  0  0
   23.1421   -3.8436  -14.4631 O   0  0  0  0  0  0  0  0  0  0  0  0
   22.7203   -4.9238  -15.2054 C   0  0  0  0  0  0  0  0  0  0  0  0
   21.7023   -5.6897  -14.3487 C   0  0  2  0  0  0  0  0  0  0  0  0
   21.1812   -6.7319  -15.2148 N   0  0  0  0  0  0  0  0  0  0  0  0
   20.6070   -4.8218  -13.9135 C   0  0  0  0  0  0  0  0  0  0  0  0
   20.6978   -4.0513  -12.7688 O   0  0  0  0  0  0  0  0  0  0  0  0
   19.5393   -4.7510  -14.5751 O   0  0  0  0  0  0  0  0  0  0  0  0
  2  1  1  0
  2  3  2  0
  4  5  1  0
  4  2  1  0
  5  6  1  6
  7  5  1  0
  8  7  2  0
  9  7  1  0
 10  9  1  0
 10 11  1  1
 11 12  1  0
 12 13  1  0
 13 14  1  0
 14 15  1  0
 16 21  1  0
 16 10  1  0
 17 16  2  0
 18 19  1  0
 20 19  1  6
 20 21  1  0
 22 20  1  0
 23 22  1  0
 24 22  2  0
M  END
$$$$
