NKS.pdb
     RDKit          3D

 24 23  0  0  1  0  0  0  0  0999 V2000
   19.4986  -10.8800  -13.1162 N   0  0  0  0  0  0  0  0  0  0  0  0
   19.7332   -9.4913  -13.3104 C   0  0  0  0  0  0  0  0  0  0  0  0
   20.7627   -9.0386  -13.8549 O   0  0  0  0  0  0  0  0  0  0  0  0
   18.7153   -8.5246  -12.8492 C   0  0  0  0  0  0  0  0  0  0  0  0
   17.5603   -9.2089  -12.1470 C   0  0  2  0  0  0  0  0  0  0  0  0
   16.8684  -10.0933  -13.0561 N   0  0  0  0  0  0  0  0  0  0  0  0
   16.5897   -8.2410  -11.6038 C   0  0  0  0  0  0  0  0  0  0  0  0
   16.1042   -7.3225  -12.3269 O   0  0  0  0  0  0  0  0  0  0  0  0
   16.1582   -8.2941  -10.2552 N   0  0  0  0  0  0  0  0  0  0  0  0
   15.0780   -7.4050   -9.7437 C   0  0  1  0  0  0  0  0  0  0  0  0
   14.3298   -8.2160   -8.6768 C   0  0  0  0  0  0  0  0  0  0  0  0
   13.1431   -7.5158   -8.1346 C   0  0  0  0  0  0  0  0  0  0  0  0
   12.3023   -8.3952   -7.2005 C   0  0  0  0  0  0  0  0  0  0  0  0
   11.0585   -7.6332   -6.8242 C   0  0  0  0  0  0  0  0  0  0  0  0
   10.2994   -8.4489   -5.8669 N   0  0  0  0  0  0  0  0  0  0  0  0
   15.7342   -6.2699   -9.0831 C   0  0  0  0  0  0  0  0  0  0  0  0
   16.9316   -6.4237   -8.6685 O   0  0  0  0  0  0  0  0  0  0  0  0
   17.5366   -2.5775   -9.9618 O   0  0  0  0  0  0  0  0  0  0  0  0
   16.8110   -3.7463  -10.0161 C   0  0  0  0  0  0  0  0  0  0  0  0
   16.0144   -3.8437   -8.7073 C   0  0  2  0  0  0  0  0  0  0  0  0
   15.1582   -5.0053   -8.8665 N   0  0  0  0  0  0  0  0  0  0  0  0
   15.1899   -2.6537   -8.4916 C   0  0  0  0  0  0  0  0  0  0  0  0
   15.6179   -1.6036   -7.7002 O   0  0  0  0  0  0  0  0  0  0  0  0
   14.0554   -2.5507   -9.0254 O   0  0  0  0  0  0  0  0  0  0  0  0
  2  1  1  0
  2  3  2  0
  4  5  1  0
  4  2  1  0
  5  6  1  6
  7  5  1  0
  8  7  2  0
  9  7  1  0
 10  9  1  0
 10 11  1  1
 11 12  1  0
 12 13  1  0
 13 14  1  0
 14 15  1  0
 16 21  1  0
 16 10  1  0
 17 16  2  0
 18 19  1  0
 20 19  1  6
 20 21  1  0
 22 20  1  0
 23 22  1  0
 24 22  2  0
M  END
$$$$
