NKS.pdb
     RDKit          3D

 24 23  0  0  1  0  0  0  0  0999 V2000
   20.0203  -13.1077  -16.4917 N   0  0  0  0  0  0  0  0  0  0  0  0
   19.1181  -13.2080  -15.3976 C   0  0  0  0  0  0  0  0  0  0  0  0
   19.2044  -14.0884  -14.5151 O   0  0  0  0  0  0  0  0  0  0  0  0
   18.0184  -12.2272  -15.2878 C   0  0  0  0  0  0  0  0  0  0  0  0
   16.7932  -12.8207  -14.6231 C   0  0  2  0  0  0  0  0  0  0  0  0
   16.2178  -13.8534  -15.4537 N   0  0  0  0  0  0  0  0  0  0  0  0
   15.7600  -11.8036  -14.3553 C   0  0  0  0  0  0  0  0  0  0  0  0
   14.9603  -11.4262  -15.2610 O   0  0  0  0  0  0  0  0  0  0  0  0
   15.6153  -11.2051  -13.0790 N   0  0  0  0  0  0  0  0  0  0  0  0
   14.5871  -10.1596  -12.8172 C   0  0  1  0  0  0  0  0  0  0  0  0
   13.9775  -10.4963  -11.4494 C   0  0  0  0  0  0  0  0  0  0  0  0
   12.8919   -9.5725  -11.0489 C   0  0  0  0  0  0  0  0  0  0  0  0
   12.2153   -9.9765   -9.7328 C   0  0  0  0  0  0  0  0  0  0  0  0
   11.0629   -9.0384   -9.4847 C   0  0  0  0  0  0  0  0  0  0  0  0
   10.4581   -9.3948   -8.1943 N   0  0  0  0  0  0  0  0  0  0  0  0
   15.2971   -8.8796  -12.7023 C   0  0  0  0  0  0  0  0  0  0  0  0
   16.3582   -8.8403  -11.9939 O   0  0  0  0  0  0  0  0  0  0  0  0
   15.9844   -6.4169  -15.4208 O   0  0  0  0  0  0  0  0  0  0  0  0
   16.7095   -6.4335  -14.2506 C   0  0  0  0  0  0  0  0  0  0  0  0
   15.6996   -6.4734  -13.0949 C   0  0  2  0  0  0  0  0  0  0  0  0
   14.9134   -7.6737  -13.3158 N   0  0  0  0  0  0  0  0  0  0  0  0
   14.8210   -5.3029  -13.1101 C   0  0  0  0  0  0  0  0  0  0  0  0
   15.2853   -4.0383  -12.7981 O   0  0  0  0  0  0  0  0  0  0  0  0
   13.6044   -5.4146  -13.4102 O   0  0  0  0  0  0  0  0  0  0  0  0
  2  1  1  0
  2  3  2  0
  4  5  1  0
  4  2  1  0
  5  6  1  6
  7  5  1  0
  8  7  2  0
  9  7  1  0
 10  9  1  0
 10 11  1  1
 11 12  1  0
 12 13  1  0
 13 14  1  0
 14 15  1  0
 16 21  1  0
 16 10  1  0
 17 16  2  0
 18 19  1  0
 20 19  1  6
 20 21  1  0
 22 20  1  0
 23 22  1  0
 24 22  2  0
M  END
$$$$
