NKS.pdb
     RDKit          3D

 24 23  0  0  1  0  0  0  0  0999 V2000
   17.4669  -13.3685  -16.3658 N   0  0  0  0  0  0  0  0  0  0  0  0
   17.4999  -12.4179  -15.3092 C   0  0  0  0  0  0  0  0  0  0  0  0
   16.6541  -12.3834  -14.3901 O   0  0  0  0  0  0  0  0  0  0  0  0
   18.5847  -11.4148  -15.2860 C   0  0  0  0  0  0  0  0  0  0  0  0
   19.4730  -11.5116  -16.5094 C   0  0  2  0  0  0  0  0  0  0  0  0
   20.2511  -12.7285  -16.4742 N   0  0  0  0  0  0  0  0  0  0  0  0
   20.3962  -10.3670  -16.6164 C   0  0  0  0  0  0  0  0  0  0  0  0
   21.5379  -10.3915  -16.0702 O   0  0  0  0  0  0  0  0  0  0  0  0
   20.0501   -9.1936  -17.3313 N   0  0  0  0  0  0  0  0  0  0  0  0
   20.9927   -8.0470  -17.4566 C   0  0  1  0  0  0  0  0  0  0  0  0
   20.6281   -7.3386  -18.7685 C   0  0  0  0  0  0  0  0  0  0  0  0
   21.4522   -6.1373  -19.0337 C   0  0  0  0  0  0  0  0  0  0  0  0
   21.1351   -5.4779  -20.3819 C   0  0  0  0  0  0  0  0  0  0  0  0
   22.0444   -4.2892  -20.5538 C   0  0  0  0  0  0  0  0  0  0  0  0
   21.6938   -3.6295  -21.8186 N   0  0  0  0  0  0  0  0  0  0  0  0
   20.7055   -7.1326  -16.3443 C   0  0  0  0  0  0  0  0  0  0  0  0
   19.5737   -7.2288  -15.7618 O   0  0  0  0  0  0  0  0  0  0  0  0
   21.4679   -6.2016  -12.2791 O   0  0  0  0  0  0  0  0  0  0  0  0
   21.5716   -6.7292  -13.5465 C   0  0  0  0  0  0  0  0  0  0  0  0
   21.3455   -5.5763  -14.5348 C   0  0  2  0  0  0  0  0  0  0  0  0
   21.5788   -6.1480  -15.8488 N   0  0  0  0  0  0  0  0  0  0  0  0
   22.2870   -4.4797  -14.3038 C   0  0  0  0  0  0  0  0  0  0  0  0
   22.0078   -3.4524  -13.4213 O   0  0  0  0  0  0  0  0  0  0  0  0
   23.3895   -4.4392  -14.9084 O   0  0  0  0  0  0  0  0  0  0  0  0
  2  1  1  0
  2  3  2  0
  4  5  1  0
  4  2  1  0
  5  6  1  1
  7  5  1  0
  8  7  2  0
  9  7  1  0
 10  9  1  0
 10 11  1  6
 11 12  1  0
 12 13  1  0
 13 14  1  0
 14 15  1  0
 16 21  1  0
 16 10  1  0
 17 16  2  0
 18 19  1  0
 20 19  1  1
 20 21  1  0
 22 20  1  0
 23 22  1  0
 24 22  2  0
M  END
$$$$
