NKS.pdb
     RDKit          3D

 24 23  0  0  1  0  0  0  0  0999 V2000
   18.9986  -11.0777  -14.1983 N   0  0  0  0  0  0  0  0  0  0  0  0
   19.4279   -9.8163  -13.7025 C   0  0  0  0  0  0  0  0  0  0  0  0
   20.6009   -9.3993  -13.8106 O   0  0  0  0  0  0  0  0  0  0  0  0
   18.4464   -8.9454  -13.0231 C   0  0  0  0  0  0  0  0  0  0  0  0
   17.1038   -9.6270  -12.8553 C   0  0  2  0  0  0  0  0  0  0  0  0
   16.6092  -10.0906  -14.1312 N   0  0  0  0  0  0  0  0  0  0  0  0
   16.0970   -8.7298  -12.2594 C   0  0  0  0  0  0  0  0  0  0  0  0
   15.5195   -7.8404  -12.9506 O   0  0  0  0  0  0  0  0  0  0  0  0
   15.7316   -8.8211  -10.8933 N   0  0  0  0  0  0  0  0  0  0  0  0
   14.6313   -7.9962  -10.3209 C   0  0  1  0  0  0  0  0  0  0  0  0
   13.8318   -8.9318   -9.4038 C   0  0  0  0  0  0  0  0  0  0  0  0
   12.7084   -8.2568   -8.7147 C   0  0  0  0  0  0  0  0  0  0  0  0
   11.8351   -9.2222   -7.9032 C   0  0  0  0  0  0  0  0  0  0  0  0
   10.7955   -8.4172   -7.1681 C   0  0  0  0  0  0  0  0  0  0  0  0
   10.0142   -9.3399   -6.3339 N   0  0  0  0  0  0  0  0  0  0  0  0
   15.2592   -6.9620   -9.4891 C   0  0  0  0  0  0  0  0  0  0  0  0
   16.4427   -7.1710   -9.0587 O   0  0  0  0  0  0  0  0  0  0  0  0
   17.1919   -3.2353   -9.4631 O   0  0  0  0  0  0  0  0  0  0  0  0
   16.4794   -4.3623   -9.8062 C   0  0  0  0  0  0  0  0  0  0  0  0
   15.5082   -4.6502   -8.6526 C   0  0  2  0  0  0  0  0  0  0  0  0
   14.6701   -5.7392   -9.1213 N   0  0  0  0  0  0  0  0  0  0  0  0
   14.6744   -3.4859   -8.3504 C   0  0  0  0  0  0  0  0  0  0  0  0
   15.0406   -2.5545   -7.3961 O   0  0  0  0  0  0  0  0  0  0  0  0
   13.5883   -3.2967   -8.9563 O   0  0  0  0  0  0  0  0  0  0  0  0
  2  1  1  0
  2  3  2  0
  4  5  1  0
  4  2  1  0
  5  6  1  6
  7  5  1  0
  8  7  2  0
  9  7  1  0
 10  9  1  0
 10 11  1  1
 11 12  1  0
 12 13  1  0
 13 14  1  0
 14 15  1  0
 16 21  1  0
 16 10  1  0
 17 16  2  0
 18 19  1  0
 20 19  1  6
 20 21  1  0
 22 20  1  0
 23 22  1  0
 24 22  2  0
M  END
$$$$
