NKS.pdb
     RDKit          3D

 24 23  0  0  1  0  0  0  0  0999 V2000
   14.4827   -6.1301   -6.3191 N   0  0  0  0  0  0  0  0  0  0  0  0
   14.2930   -7.3058   -7.0956 C   0  0  0  0  0  0  0  0  0  0  0  0
   13.2709   -8.0206   -7.0206 O   0  0  0  0  0  0  0  0  0  0  0  0
   15.3513   -7.7132   -8.0430 C   0  0  0  0  0  0  0  0  0  0  0  0
   15.2155   -7.0140   -9.3801 C   0  0  2  0  0  0  0  0  0  0  0  0
   14.0206   -7.4551  -10.0622 N   0  0  0  0  0  0  0  0  0  0  0  0
   16.3750   -7.2625  -10.2562 C   0  0  0  0  0  0  0  0  0  0  0  0
   17.5476   -6.9479   -9.8978 O   0  0  0  0  0  0  0  0  0  0  0  0
   16.2312   -7.8615  -11.5323 N   0  0  0  0  0  0  0  0  0  0  0  0
   17.3745   -7.9644  -12.4817 C   0  0  1  0  0  0  0  0  0  0  0  0
   17.2405   -9.3341  -13.1612 C   0  0  0  0  0  0  0  0  0  0  0  0
   18.2992   -9.5969  -14.1625 C   0  0  0  0  0  0  0  0  0  0  0  0
   18.1988  -10.9933  -14.7895 C   0  0  0  0  0  0  0  0  0  0  0  0
   19.3751  -11.1850  -15.7108 C   0  0  0  0  0  0  0  0  0  0  0  0
   19.3026  -12.5449  -16.2615 N   0  0  0  0  0  0  0  0  0  0  0  0
   17.1810   -6.9244  -13.4998 C   0  0  0  0  0  0  0  0  0  0  0  0
   16.0630   -6.8833  -14.1145 O   0  0  0  0  0  0  0  0  0  0  0  0
   17.8147   -3.2837  -13.3237 O   0  0  0  0  0  0  0  0  0  0  0  0
   16.9904   -3.8984  -14.2393 C   0  0  0  0  0  0  0  0  0  0  0  0
   17.8141   -5.0023  -14.9177 C   0  0  2  0  0  0  0  0  0  0  0  0
   18.1268   -5.9490  -13.8624 N   0  0  0  0  0  0  0  0  0  0  0  0
   19.0554   -4.4733  -15.4846 C   0  0  0  0  0  0  0  0  0  0  0  0
   19.0532   -3.5920  -16.5503 O   0  0  0  0  0  0  0  0  0  0  0  0
   20.1729   -4.8089  -15.0140 O   0  0  0  0  0  0  0  0  0  0  0  0
  2  1  1  0
  2  3  2  0
  4  5  1  0
  4  2  1  0
  5  6  1  6
  7  5  1  0
  8  7  2  0
  9  7  1  0
 10  9  1  0
 10 11  1  6
 11 12  1  0
 12 13  1  0
 13 14  1  0
 14 15  1  0
 16 21  1  0
 16 10  1  0
 17 16  2  0
 18 19  1  0
 20 19  1  1
 20 21  1  0
 22 20  1  0
 23 22  1  0
 24 22  2  0
M  END
$$$$
