NKS.pdb
     RDKit          3D

 24 23  0  0  1  0  0  0  0  0999 V2000
   26.1690  -20.1760   -8.6434 N   0  0  0  0  0  0  0  0  0  0  0  0
   24.9908  -20.6873   -9.2529 C   0  0  0  0  0  0  0  0  0  0  0  0
   24.2040  -21.4690   -8.6775 O   0  0  0  0  0  0  0  0  0  0  0  0
   24.6698  -20.2809  -10.6368 C   0  0  0  0  0  0  0  0  0  0  0  0
   24.8378  -21.4238  -11.6171 C   0  0  2  0  0  0  0  0  0  0  0  0
   26.2169  -21.8521  -11.6626 N   0  0  0  0  0  0  0  0  0  0  0  0
   24.4165  -21.0518  -12.9801 C   0  0  0  0  0  0  0  0  0  0  0  0
   25.1784  -20.3913  -13.7453 O   0  0  0  0  0  0  0  0  0  0  0  0
   23.1465  -21.4145  -13.4935 N   0  0  0  0  0  0  0  0  0  0  0  0
   22.7835  -21.1823  -14.9194 C   0  0  1  0  0  0  0  0  0  0  0  0
   21.8261  -22.3184  -15.3045 C   0  0  0  0  0  0  0  0  0  0  0  0
   21.3370  -22.2243  -16.6990 C   0  0  0  0  0  0  0  0  0  0  0  0
   20.4271  -23.3938  -17.0959 C   0  0  0  0  0  0  0  0  0  0  0  0
   19.9699  -23.1783  -18.5150 C   0  0  0  0  0  0  0  0  0  0  0  0
   19.1296  -24.3204  -18.8988 N   0  0  0  0  0  0  0  0  0  0  0  0
   22.0412  -19.9167  -14.9720 C   0  0  0  0  0  0  0  0  0  0  0  0
   21.2934  -19.6148  -13.9825 O   0  0  0  0  0  0  0  0  0  0  0  0
   21.2603  -15.5950  -16.7923 O   0  0  0  0  0  0  0  0  0  0  0  0
   22.0053  -16.7524  -16.8248 C   0  0  0  0  0  0  0  0  0  0  0  0
   21.2718  -17.7853  -15.9576 C   0  0  2  0  0  0  0  0  0  0  0  0
   22.0829  -18.9874  -16.0267 N   0  0  0  0  0  0  0  0  0  0  0  0
   19.9329  -18.0676  -16.4771 C   0  0  0  0  0  0  0  0  0  0  0  0
   19.7352  -18.8663  -17.5885 O   0  0  0  0  0  0  0  0  0  0  0  0
   18.9118  -17.5862  -15.9218 O   0  0  0  0  0  0  0  0  0  0  0  0
  2  1  1  0
  2  3  2  0
  4  5  1  0
  4  2  1  0
  5  6  1  6
  7  5  1  0
  8  7  2  0
  9  7  1  0
 10  9  1  0
 10 11  1  1
 11 12  1  0
 12 13  1  0
 13 14  1  0
 14 15  1  0
 16 21  1  0
 16 10  1  0
 17 16  2  0
 18 19  1  0
 20 19  1  6
 20 21  1  0
 22 20  1  0
 23 22  1  0
 24 22  2  0
M  END
$$$$
