NKS.pdb
     RDKit          3D

 24 23  0  0  1  0  0  0  0  0999 V2000
   20.0564   -9.7710  -14.1041 N   0  0  0  0  0  0  0  0  0  0  0  0
   18.8183  -10.0290  -14.7535 C   0  0  0  0  0  0  0  0  0  0  0  0
   18.7290  -10.3565  -15.9561 O   0  0  0  0  0  0  0  0  0  0  0  0
   17.5668   -9.9069  -13.9775 C   0  0  0  0  0  0  0  0  0  0  0  0
   17.8253   -9.4741  -12.5488 C   0  0  2  0  0  0  0  0  0  0  0  0
   17.8990  -10.6244  -11.6776 N   0  0  0  0  0  0  0  0  0  0  0  0
   16.7755   -8.5699  -12.0447 C   0  0  0  0  0  0  0  0  0  0  0  0
   16.4502   -7.5239  -12.6790 O   0  0  0  0  0  0  0  0  0  0  0  0
   16.0862   -8.8286  -10.8340 N   0  0  0  0  0  0  0  0  0  0  0  0
   14.9980   -7.9355  -10.3469 C   0  0  1  0  0  0  0  0  0  0  0  0
   14.1416   -8.7870   -9.3997 C   0  0  0  0  0  0  0  0  0  0  0  0
   12.9935   -8.0487   -8.8255 C   0  0  0  0  0  0  0  0  0  0  0  0
   12.0681   -8.9379   -7.9853 C   0  0  0  0  0  0  0  0  0  0  0  0
   11.0202   -8.0630   -7.3481 C   0  0  0  0  0  0  0  0  0  0  0  0
   10.1358   -8.9228   -6.5504 N   0  0  0  0  0  0  0  0  0  0  0  0
   15.6360   -6.8724   -9.5605 C   0  0  0  0  0  0  0  0  0  0  0  0
   16.8212   -7.0699   -9.1296 O   0  0  0  0  0  0  0  0  0  0  0  0
   17.5784   -3.1703   -9.8052 O   0  0  0  0  0  0  0  0  0  0  0  0
   16.8352   -4.2991  -10.0679 C   0  0  0  0  0  0  0  0  0  0  0  0
   15.9048   -4.5162   -8.8662 C   0  0  2  0  0  0  0  0  0  0  0  0
   15.0549   -5.6331   -9.2377 N   0  0  0  0  0  0  0  0  0  0  0  0
   15.0778   -3.3363   -8.6084 C   0  0  0  0  0  0  0  0  0  0  0  0
   15.4622   -2.3585   -7.7094 O   0  0  0  0  0  0  0  0  0  0  0  0
   13.9810   -3.1760   -9.2035 O   0  0  0  0  0  0  0  0  0  0  0  0
  2  1  1  0
  2  3  2  0
  4  5  1  0
  4  2  1  0
  5  6  1  1
  7  5  1  0
  8  7  2  0
  9  7  1  0
 10  9  1  0
 10 11  1  1
 11 12  1  0
 12 13  1  0
 13 14  1  0
 14 15  1  0
 16 21  1  0
 16 10  1  0
 17 16  2  0
 18 19  1  0
 20 19  1  6
 20 21  1  0
 22 20  1  0
 23 22  1  0
 24 22  2  0
M  END
$$$$
