NKS.pdb
     RDKit          3D

 24 23  0  0  1  0  0  0  0  0999 V2000
   24.6207  -19.2546  -14.8713 N   0  0  0  0  0  0  0  0  0  0  0  0
   23.3728  -18.6151  -15.1064 C   0  0  0  0  0  0  0  0  0  0  0  0
   23.2701  -17.4304  -15.4902 O   0  0  0  0  0  0  0  0  0  0  0  0
   22.1274  -19.3799  -14.8893 C   0  0  0  0  0  0  0  0  0  0  0  0
   22.4037  -20.7863  -14.3982 C   0  0  2  0  0  0  0  0  0  0  0  0
   23.0478  -21.5649  -15.4308 N   0  0  0  0  0  0  0  0  0  0  0  0
   21.1709  -21.4819  -13.9859 C   0  0  0  0  0  0  0  0  0  0  0  0
   20.3888  -21.9930  -14.8399 O   0  0  0  0  0  0  0  0  0  0  0  0
   20.8067  -21.6097  -12.6224 N   0  0  0  0  0  0  0  0  0  0  0  0
   19.6300  -22.4191  -12.1993 C   0  0  1  0  0  0  0  0  0  0  0  0
   19.8634  -22.7687  -10.7231 C   0  0  0  0  0  0  0  0  0  0  0  0
   18.7727  -23.5783  -10.1337 C   0  0  0  0  0  0  0  0  0  0  0  0
   19.0512  -23.9956   -8.6841 C   0  0  0  0  0  0  0  0  0  0  0  0
   17.8746  -24.7937   -8.1862 C   0  0  0  0  0  0  0  0  0  0  0  0
   18.1416  -25.1733   -6.7925 N   0  0  0  0  0  0  0  0  0  0  0  0
   18.4545  -21.5436  -12.2850 C   0  0  0  0  0  0  0  0  0  0  0  0
   18.5317  -20.3787  -11.7688 O   0  0  0  0  0  0  0  0  0  0  0  0
   14.9954  -19.7722  -14.7297 O   0  0  0  0  0  0  0  0  0  0  0  0
   15.9569  -20.7413  -14.5510 C   0  0  0  0  0  0  0  0  0  0  0  0
   16.2037  -20.8584  -13.0402 C   0  0  2  0  0  0  0  0  0  0  0  0
   17.2328  -21.8727  -12.8986 N   0  0  0  0  0  0  0  0  0  0  0  0
   14.9961  -21.2838  -12.3311 C   0  0  0  0  0  0  0  0  0  0  0  0
   14.0818  -20.3721  -11.8359 O   0  0  0  0  0  0  0  0  0  0  0  0
   14.7523  -22.5045  -12.1490 O   0  0  0  0  0  0  0  0  0  0  0  0
  2  1  1  0
  2  3  2  0
  4  5  1  0
  4  2  1  0
  5  6  1  6
  7  5  1  0
  8  7  2  0
  9  7  1  0
 10  9  1  0
 10 11  1  1
 11 12  1  0
 12 13  1  0
 13 14  1  0
 14 15  1  0
 16 21  1  0
 16 10  1  0
 17 16  2  0
 18 19  1  0
 20 19  1  6
 20 21  1  0
 22 20  1  0
 23 22  1  0
 24 22  2  0
M  END
$$$$
