NKS.pdb
     RDKit          3D

 24 23  0  0  1  0  0  0  0  0999 V2000
   29.0885  -22.2364  -16.8668 N   0  0  0  0  0  0  0  0  0  0  0  0
   28.0821  -22.9580  -16.1685 C   0  0  0  0  0  0  0  0  0  0  0  0
   28.1016  -24.1991  -16.0252 O   0  0  0  0  0  0  0  0  0  0  0  0
   26.9506  -22.2136  -15.5778 C   0  0  0  0  0  0  0  0  0  0  0  0
   27.0914  -20.7179  -15.7742 C   0  0  2  0  0  0  0  0  0  0  0  0
   28.2820  -20.2315  -15.1160 N   0  0  0  0  0  0  0  0  0  0  0  0
   25.9292  -19.9779  -15.2494 C   0  0  0  0  0  0  0  0  0  0  0  0
   25.9994  -19.3298  -14.1643 O   0  0  0  0  0  0  0  0  0  0  0  0
   24.6873  -19.9580  -15.9315 N   0  0  0  0  0  0  0  0  0  0  0  0
   23.5457  -19.1287  -15.4542 C   0  0  1  0  0  0  0  0  0  0  0  0
   23.1247  -18.2589  -16.6466 C   0  0  0  0  0  0  0  0  0  0  0  0
   22.0599  -17.2852  -16.3139 C   0  0  0  0  0  0  0  0  0  0  0  0
   21.7127  -16.3532  -17.4817 C   0  0  0  0  0  0  0  0  0  0  0  0
   20.6379  -15.4015  -17.0254 C   0  0  0  0  0  0  0  0  0  0  0  0
   20.2945  -14.5295  -18.1567 N   0  0  0  0  0  0  0  0  0  0  0  0
   22.4456  -20.0509  -15.1459 C   0  0  0  0  0  0  0  0  0  0  0  0
   22.0915  -20.8879  -16.0422 O   0  0  0  0  0  0  0  0  0  0  0  0
   20.2677  -19.9074  -11.7672 O   0  0  0  0  0  0  0  0  0  0  0  0
   20.4540  -21.1827  -12.2514 C   0  0  0  0  0  0  0  0  0  0  0  0
   20.6617  -21.0633  -13.7679 C   0  0  2  0  0  0  0  0  0  0  0  0
   21.7379  -20.1027  -13.9317 N   0  0  0  0  0  0  0  0  0  0  0  0
   19.4576  -20.5682  -14.4366 C   0  0  0  0  0  0  0  0  0  0  0  0
   19.4015  -19.3052  -14.9969 O   0  0  0  0  0  0  0  0  0  0  0  0
   18.4272  -21.2849  -14.5217 O   0  0  0  0  0  0  0  0  0  0  0  0
  2  1  1  0
  2  3  2  0
  4  5  1  0
  4  2  1  0
  5  6  1  1
  7  5  1  0
  8  7  2  0
  9  7  1  0
 10  9  1  0
 10 11  1  6
 11 12  1  0
 12 13  1  0
 13 14  1  0
 14 15  1  0
 16 21  1  0
 16 10  1  0
 17 16  2  0
 18 19  1  0
 20 19  1  1
 20 21  1  0
 22 20  1  0
 23 22  1  0
 24 22  2  0
M  END
$$$$
