KCG.pdb
     RDKit          3D

 20 19  0  0  1  0  0  0  0  0999 V2000
    6.5007  -15.9660   21.7600 N   0  0  0  0  0  0  0  0  0  0  0  0
    7.6151  -15.1086   21.3541 C   0  0  1  0  0  0  0  0  0  0  0  0
    7.0096  -13.8014   20.9059 C   0  0  0  0  0  0  0  0  0  0  0  0
    7.8466  -13.2388   19.7771 C   0  0  0  0  0  0  0  0  0  0  0  0
    7.6512  -13.9857   18.4820 C   0  0  0  0  0  0  0  0  0  0  0  0
    8.5196  -13.3895   17.4045 C   0  0  0  0  0  0  0  0  0  0  0  0
    8.3413  -14.1610   16.2011 N   0  0  0  0  0  0  0  0  0  0  0  0
    8.5226  -14.9371   22.5084 C   0  0  0  0  0  0  0  0  0  0  0  0
    8.5624  -13.8531   23.1487 O   0  0  0  0  0  0  0  0  0  0  0  0
    9.3736  -15.9744   22.9344 N   0  0  0  0  0  0  0  0  0  0  0  0
   10.4355  -15.7526   23.8660 C   0  0  1  0  0  0  0  0  0  0  0  0
   10.2273  -16.4719   25.1819 C   0  0  0  0  0  0  0  0  0  0  0  0
    8.4687  -16.5309   25.6221 S   0  0  0  0  0  0  0  0  0  0  0  0
   11.7727  -16.0267   23.3064 C   0  0  0  0  0  0  0  0  0  0  0  0
   11.9086  -16.9525   22.4788 O   0  0  0  0  0  0  0  0  0  0  0  0
   12.8804  -15.2616   23.6943 N   0  0  0  0  0  0  0  0  0  0  0  0
   14.1426  -15.5233   23.0444 C   0  0  0  0  0  0  0  0  0  0  0  0
   14.9754  -16.4829   23.8110 C   0  0  0  0  0  0  0  0  0  0  0  0
   16.2863  -16.7749   23.5057 O   0  0  0  0  0  0  0  0  0  0  0  0
   14.4398  -17.0549   24.7935 O   0  0  0  0  0  0  0  0  0  0  0  0
  2  8  1  0
  2  1  1  1
  3  2  1  0
  4  3  1  0
  5  4  1  0
  6  5  1  0
  7  6  1  0
  8  9  2  0
 10  8  1  0
 11 10  1  0
 11 12  1  1
 13 12  1  0
 14 11  1  0
 15 14  2  0
 16 14  1  0
 17 16  1  0
 18 17  1  0
 19 18  1  0
 20 18  2  0
M  END
$$$$
