KCG.pdb
     RDKit          3D

 20 19  0  0  1  0  0  0  0  0999 V2000
    8.2787  -13.8537   21.0270 N   0  0  0  0  0  0  0  0  0  0  0  0
    7.5611  -14.6644   22.0116 C   0  0  1  0  0  0  0  0  0  0  0  0
    7.8059  -16.1062   21.6407 C   0  0  0  0  0  0  0  0  0  0  0  0
    6.8043  -16.5133   20.5815 C   0  0  0  0  0  0  0  0  0  0  0  0
    6.8172  -17.9965   20.3102 C   0  0  0  0  0  0  0  0  0  0  0  0
    5.7478  -18.3489   19.3088 C   0  0  0  0  0  0  0  0  0  0  0  0
    5.7860  -19.7720   19.0880 N   0  0  0  0  0  0  0  0  0  0  0  0
    8.0784  -14.3384   23.3576 C   0  0  0  0  0  0  0  0  0  0  0  0
    9.3165  -14.2973   23.5859 O   0  0  0  0  0  0  0  0  0  0  0  0
    7.2107  -14.0625   24.4312 N   0  0  0  0  0  0  0  0  0  0  0  0
    7.6894  -13.8619   25.7636 C   0  0  1  0  0  0  0  0  0  0  0  0
    6.7831  -12.9741   26.5899 C   0  0  0  0  0  0  0  0  0  0  0  0
    6.6242  -11.3287   25.8432 S   0  0  0  0  0  0  0  0  0  0  0  0
    8.0033  -15.1190   26.4690 C   0  0  0  0  0  0  0  0  0  0  0  0
    7.1474  -16.0282   26.5035 O   0  0  0  0  0  0  0  0  0  0  0  0
    9.2443  -15.2970   27.0944 N   0  0  0  0  0  0  0  0  0  0  0  0
    9.5175  -16.5788   27.6998 C   0  0  0  0  0  0  0  0  0  0  0  0
   10.8377  -16.6050   28.3768 C   0  0  0  0  0  0  0  0  0  0  0  0
   11.2929  -17.6653   29.1289 O   0  0  0  0  0  0  0  0  0  0  0  0
   11.5725  -15.5937   28.2474 O   0  0  0  0  0  0  0  0  0  0  0  0
  2  8  1  0
  2  1  1  6
  3  2  1  0
  4  3  1  0
  5  4  1  0
  6  5  1  0
  7  6  1  0
  8  9  2  0
 10  8  1  0
 11 10  1  0
 11 12  1  1
 13 12  1  0
 14 11  1  0
 15 14  2  0
 16 14  1  0
 17 16  1  0
 18 17  1  0
 19 18  1  0
 20 18  2  0
M  END
$$$$
