KCG.pdb
     RDKit          3D

 20 19  0  0  1  0  0  0  0  0999 V2000
    7.6487  -13.7759   20.2045 N   0  0  0  0  0  0  0  0  0  0  0  0
    7.0680  -14.5528   21.3004 C   0  0  1  0  0  0  0  0  0  0  0  0
    7.2900  -16.0060   20.9609 C   0  0  0  0  0  0  0  0  0  0  0  0
    5.9704  -16.6140   20.5366 C   0  0  0  0  0  0  0  0  0  0  0  0
    6.0919  -18.0745   20.1819 C   0  0  0  0  0  0  0  0  0  0  0  0
    4.7305  -18.6517   19.8920 C   0  0  0  0  0  0  0  0  0  0  0  0
    4.9017  -20.0073   19.4357 N   0  0  0  0  0  0  0  0  0  0  0  0
    7.7380  -14.1648   22.5598 C   0  0  0  0  0  0  0  0  0  0  0  0
    8.9871  -14.0112   22.6112 O   0  0  0  0  0  0  0  0  0  0  0  0
    7.0085  -13.9531   23.7450 N   0  0  0  0  0  0  0  0  0  0  0  0
    7.6501  -13.7170   25.0009 C   0  0  1  0  0  0  0  0  0  0  0  0
    6.9254  -12.6959   25.8522 C   0  0  0  0  0  0  0  0  0  0  0  0
    7.6687  -12.5769   27.5025 S   0  0  0  0  0  0  0  0  0  0  0  0
    7.9278  -14.9521   25.7584 C   0  0  0  0  0  0  0  0  0  0  0  0
    6.9723  -15.6604   26.1400 O   0  0  0  0  0  0  0  0  0  0  0  0
    9.2449  -15.3314   26.0492 N   0  0  0  0  0  0  0  0  0  0  0  0
    9.4489  -16.5706   26.7610 C   0  0  0  0  0  0  0  0  0  0  0  0
    9.9627  -16.3456   28.1349 C   0  0  0  0  0  0  0  0  0  0  0  0
   10.2043  -17.3566   29.0384 O   0  0  0  0  0  0  0  0  0  0  0  0
   10.1856  -15.1579   28.4801 O   0  0  0  0  0  0  0  0  0  0  0  0
  2  8  1  0
  2  1  1  6
  3  2  1  0
  4  3  1  0
  5  4  1  0
  6  5  1  0
  7  6  1  0
  8  9  2  0
 10  8  1  0
 11 10  1  0
 11 12  1  1
 13 12  1  0
 14 11  1  0
 15 14  2  0
 16 14  1  0
 17 16  1  0
 18 17  1  0
 19 18  1  0
 20 18  2  0
M  END
$$$$
