KCG.pdb
     RDKit          3D

 20 19  0  0  1  0  0  0  0  0999 V2000
    5.0316  -19.6859   22.4913 N   0  0  0  0  0  0  0  0  0  0  0  0
    5.6355  -19.3930   23.7917 C   0  0  1  0  0  0  0  0  0  0  0  0
    6.4339  -20.6133   24.1788 C   0  0  0  0  0  0  0  0  0  0  0  0
    5.8071  -21.8303   23.5331 C   0  0  0  0  0  0  0  0  0  0  0  0
    6.5890  -23.0929   23.7939 C   0  0  0  0  0  0  0  0  0  0  0  0
    5.8528  -24.2825   23.2339 C   0  0  0  0  0  0  0  0  0  0  0  0
    6.6677  -25.4536   23.4331 N   0  0  0  0  0  0  0  0  0  0  0  0
    6.4841  -18.1900   23.6571 C   0  0  0  0  0  0  0  0  0  0  0  0
    7.0794  -17.9317   22.5776 O   0  0  0  0  0  0  0  0  0  0  0  0
    6.6585  -17.2906   24.7260 N   0  0  0  0  0  0  0  0  0  0  0  0
    7.4846  -16.1287   24.6151 C   0  0  1  0  0  0  0  0  0  0  0  0
    6.9153  -14.9274   25.3398 C   0  0  0  0  0  0  0  0  0  0  0  0
    8.0263  -13.4996   25.2087 S   0  0  0  0  0  0  0  0  0  0  0  0
    8.8901  -16.3708   24.9922 C   0  0  0  0  0  0  0  0  0  0  0  0
    9.1567  -16.7075   26.1651 O   0  0  0  0  0  0  0  0  0  0  0  0
    9.9177  -16.2264   24.0508 N   0  0  0  0  0  0  0  0  0  0  0  0
   11.2768  -16.4100   24.5016 C   0  0  0  0  0  0  0  0  0  0  0  0
   12.2604  -16.1740   23.4158 C   0  0  0  0  0  0  0  0  0  0  0  0
   13.6253  -16.2052   23.5975 O   0  0  0  0  0  0  0  0  0  0  0  0
   11.8068  -15.9329   22.2689 O   0  0  0  0  0  0  0  0  0  0  0  0
  2  8  1  0
  2  1  1  6
  3  2  1  0
  4  3  1  0
  5  4  1  0
  6  5  1  0
  7  6  1  0
  8  9  2  0
 10  8  1  0
 11 10  1  0
 11 12  1  1
 13 12  1  0
 14 11  1  0
 15 14  2  0
 16 14  1  0
 17 16  1  0
 18 17  1  0
 19 18  1  0
 20 18  2  0
M  END
$$$$
