KCG.pdb
     RDKit          3D

 20 19  0  0  1  0  0  0  0  0999 V2000
    8.3139  -12.5983   20.4923 N   0  0  0  0  0  0  0  0  0  0  0  0
    7.4714  -13.5413   21.2289 C   0  0  1  0  0  0  0  0  0  0  0  0
    7.6468  -14.8839   20.5634 C   0  0  0  0  0  0  0  0  0  0  0  0
    7.2337  -14.7656   19.1121 C   0  0  0  0  0  0  0  0  0  0  0  0
    7.3655  -16.0678   18.3634 C   0  0  0  0  0  0  0  0  0  0  0  0
    6.6023  -17.1542   19.0762 C   0  0  0  0  0  0  0  0  0  0  0  0
    6.6612  -18.3493   18.2740 N   0  0  0  0  0  0  0  0  0  0  0  0
    7.9061  -13.5573   22.6418 C   0  0  0  0  0  0  0  0  0  0  0  0
    9.1269  -13.5028   22.9472 O   0  0  0  0  0  0  0  0  0  0  0  0
    6.9760  -13.6336   23.6958 N   0  0  0  0  0  0  0  0  0  0  0  0
    7.3815  -13.7927   25.0578 C   0  0  1  0  0  0  0  0  0  0  0  0
    6.4126  -13.1687   26.0397 C   0  0  0  0  0  0  0  0  0  0  0  0
    6.8837  -11.4599   26.4246 S   0  0  0  0  0  0  0  0  0  0  0  0
    7.6906  -15.1895   25.4178 C   0  0  0  0  0  0  0  0  0  0  0  0
    6.8742  -16.0888   25.1260 O   0  0  0  0  0  0  0  0  0  0  0  0
    8.8836  -15.5100   26.0789 N   0  0  0  0  0  0  0  0  0  0  0  0
    9.1491  -16.9017   26.3559 C   0  0  0  0  0  0  0  0  0  0  0  0
   10.6031  -17.1977   26.3780 C   0  0  0  0  0  0  0  0  0  0  0  0
   11.2814  -17.6263   27.4974 O   0  0  0  0  0  0  0  0  0  0  0  0
   11.2394  -17.0437   25.3053 O   0  0  0  0  0  0  0  0  0  0  0  0
  2  8  1  0
  2  1  1  6
  3  2  1  0
  4  3  1  0
  5  4  1  0
  6  5  1  0
  7  6  1  0
  8  9  2  0
 10  8  1  0
 11 10  1  0
 11 12  1  1
 13 12  1  0
 14 11  1  0
 15 14  2  0
 16 14  1  0
 17 16  1  0
 18 17  1  0
 19 18  1  0
 20 18  2  0
M  END
$$$$
