KCG.pdb
     RDKit          3D

 20 19  0  0  1  0  0  0  0  0999 V2000
   11.1672  -21.2433   27.6254 N   0  0  0  0  0  0  0  0  0  0  0  0
   11.5251  -19.8278   27.7254 C   0  0  1  0  0  0  0  0  0  0  0  0
   12.7430  -19.7548   28.6130 C   0  0  0  0  0  0  0  0  0  0  0  0
   12.5374  -20.6733   29.7984 C   0  0  0  0  0  0  0  0  0  0  0  0
   13.7321  -20.7105   30.7176 C   0  0  0  0  0  0  0  0  0  0  0  0
   13.4451  -21.5945   31.9037 C   0  0  0  0  0  0  0  0  0  0  0  0
   14.5842  -21.5533   32.7847 N   0  0  0  0  0  0  0  0  0  0  0  0
   11.7930  -19.3122   26.3661 C   0  0  0  0  0  0  0  0  0  0  0  0
   12.2552  -20.0620   25.4657 O   0  0  0  0  0  0  0  0  0  0  0  0
   11.5428  -17.9689   26.0274 N   0  0  0  0  0  0  0  0  0  0  0  0
   11.7846  -17.4582   24.7138 C   0  0  1  0  0  0  0  0  0  0  0  0
   10.7227  -16.4814   24.2547 C   0  0  0  0  0  0  0  0  0  0  0  0
   11.0341  -15.9307   22.5547 S   0  0  0  0  0  0  0  0  0  0  0  0
   13.1402  -16.9025   24.5414 C   0  0  0  0  0  0  0  0  0  0  0  0
   13.5718  -16.0793   25.3759 O   0  0  0  0  0  0  0  0  0  0  0  0
   13.9388  -17.2895   23.4572 N   0  0  0  0  0  0  0  0  0  0  0  0
   15.2123  -16.6312   23.2879 C   0  0  0  0  0  0  0  0  0  0  0  0
   15.6477  -16.6167   21.8693 C   0  0  0  0  0  0  0  0  0  0  0  0
   15.5320  -15.5211   21.0428 O   0  0  0  0  0  0  0  0  0  0  0  0
   16.1493  -17.6731   21.4091 O   0  0  0  0  0  0  0  0  0  0  0  0
  2  8  1  0
  2  1  1  6
  3  2  1  0
  4  3  1  0
  5  4  1  0
  6  5  1  0
  7  6  1  0
  8  9  2  0
 10  8  1  0
 11 10  1  0
 11 12  1  1
 13 12  1  0
 14 11  1  0
 15 14  2  0
 16 14  1  0
 17 16  1  0
 18 17  1  0
 19 18  1  0
 20 18  2  0
M  END
$$$$
