KCG.pdb
     RDKit          3D

 20 19  0  0  1  0  0  0  0  0999 V2000
    6.3719  -19.2278   19.6457 N   0  0  0  0  0  0  0  0  0  0  0  0
    6.1492  -18.4697   20.8775 C   0  0  1  0  0  0  0  0  0  0  0  0
    6.1279  -19.4751   22.0023 C   0  0  0  0  0  0  0  0  0  0  0  0
    4.7882  -20.1794   22.0006 C   0  0  0  0  0  0  0  0  0  0  0  0
    4.6441  -21.1550   23.1413 C   0  0  0  0  0  0  0  0  0  0  0  0
    3.2585  -21.7472   23.1439 C   0  0  0  0  0  0  0  0  0  0  0  0
    3.1385  -22.6123   24.2896 N   0  0  0  0  0  0  0  0  0  0  0  0
    7.2415  -17.4852   21.0291 C   0  0  0  0  0  0  0  0  0  0  0  0
    8.4474  -17.8280   20.9069 O   0  0  0  0  0  0  0  0  0  0  0  0
    6.9769  -16.1324   21.3146 N   0  0  0  0  0  0  0  0  0  0  0  0
    8.0212  -15.1641   21.4439 C   0  0  1  0  0  0  0  0  0  0  0  0
    7.5446  -13.7460   21.2109 C   0  0  0  0  0  0  0  0  0  0  0  0
    7.0208  -13.5082   19.4906 S   0  0  0  0  0  0  0  0  0  0  0  0
    8.7746  -15.2799   22.7070 C   0  0  0  0  0  0  0  0  0  0  0  0
    8.1539  -15.2566   23.7907 O   0  0  0  0  0  0  0  0  0  0  0  0
   10.1691  -15.4146   22.6976 N   0  0  0  0  0  0  0  0  0  0  0  0
   10.8343  -15.6363   23.9595 C   0  0  0  0  0  0  0  0  0  0  0  0
   12.3063  -15.7399   23.8025 C   0  0  0  0  0  0  0  0  0  0  0  0
   13.1784  -15.9232   24.8526 O   0  0  0  0  0  0  0  0  0  0  0  0
   12.7697  -15.6534   22.6375 O   0  0  0  0  0  0  0  0  0  0  0  0
  2  8  1  0
  2  1  1  6
  3  2  1  0
  4  3  1  0
  5  4  1  0
  6  5  1  0
  7  6  1  0
  8  9  2  0
 10  8  1  0
 11 10  1  0
 11 12  1  1
 13 12  1  0
 14 11  1  0
 15 14  2  0
 16 14  1  0
 17 16  1  0
 18 17  1  0
 19 18  1  0
 20 18  2  0
M  END
$$$$
