KCG.pdb
     RDKit          3D

 20 19  0  0  1  0  0  0  0  0999 V2000
    5.5578  -19.4158   23.0287 N   0  0  0  0  0  0  0  0  0  0  0  0
    6.6056  -19.2257   24.0326 C   0  0  1  0  0  0  0  0  0  0  0  0
    7.4318  -20.4882   24.0349 C   0  0  0  0  0  0  0  0  0  0  0  0
    8.3975  -20.4359   25.1992 C   0  0  0  0  0  0  0  0  0  0  0  0
    7.7638  -20.8651   26.4984 C   0  0  0  0  0  0  0  0  0  0  0  0
    8.7435  -20.7002   27.6314 C   0  0  0  0  0  0  0  0  0  0  0  0
    8.0358  -20.8871   28.8721 N   0  0  0  0  0  0  0  0  0  0  0  0
    7.4029  -18.0371   23.6625 C   0  0  0  0  0  0  0  0  0  0  0  0
    7.6319  -17.7578   22.4558 O   0  0  0  0  0  0  0  0  0  0  0  0
    7.9347  -17.1756   24.6406 N   0  0  0  0  0  0  0  0  0  0  0  0
    8.7152  -16.0271   24.2991 C   0  0  1  0  0  0  0  0  0  0  0  0
    8.0739  -14.7262   24.7333 C   0  0  0  0  0  0  0  0  0  0  0  0
    7.6098  -14.7806   26.4860 S   0  0  0  0  0  0  0  0  0  0  0  0
   10.1167  -16.1157   24.7512 C   0  0  0  0  0  0  0  0  0  0  0  0
   10.3625  -16.1209   25.9758 O   0  0  0  0  0  0  0  0  0  0  0  0
   11.1635  -16.1931   23.8231 N   0  0  0  0  0  0  0  0  0  0  0  0
   12.5140  -16.2379   24.3312 C   0  0  0  0  0  0  0  0  0  0  0  0
   13.5184  -16.2863   23.2398 C   0  0  0  0  0  0  0  0  0  0  0  0
   14.8795  -16.2924   23.4500 O   0  0  0  0  0  0  0  0  0  0  0  0
   13.0868  -16.3237   22.0601 O   0  0  0  0  0  0  0  0  0  0  0  0
  2  8  1  0
  2  1  1  6
  3  2  1  0
  4  3  1  0
  5  4  1  0
  6  5  1  0
  7  6  1  0
  8  9  2  0
 10  8  1  0
 11 10  1  0
 11 12  1  1
 13 12  1  0
 14 11  1  0
 15 14  2  0
 16 14  1  0
 17 16  1  0
 18 17  1  0
 19 18  1  0
 20 18  2  0
M  END
$$$$
