KCG.pdb
     RDKit          3D

 20 19  0  0  1  0  0  0  0  0999 V2000
    6.4052  -15.4605   21.8713 N   0  0  0  0  0  0  0  0  0  0  0  0
    6.0087  -15.5112   23.2791 C   0  0  1  0  0  0  0  0  0  0  0  0
    5.7164  -16.9582   23.5908 C   0  0  0  0  0  0  0  0  0  0  0  0
    6.6942  -17.8274   22.8296 C   0  0  0  0  0  0  0  0  0  0  0  0
    6.0258  -18.9982   22.1543 C   0  0  0  0  0  0  0  0  0  0  0  0
    7.0552  -19.8518   21.4597 C   0  0  0  0  0  0  0  0  0  0  0  0
    6.3692  -20.9054   20.7564 N   0  0  0  0  0  0  0  0  0  0  0  0
    7.1153  -14.9756   24.1001 C   0  0  0  0  0  0  0  0  0  0  0  0
    8.3125  -15.0733   23.7209 O   0  0  0  0  0  0  0  0  0  0  0  0
    6.8744  -14.3385   25.3321 N   0  0  0  0  0  0  0  0  0  0  0  0
    7.9254  -13.7477   26.1010 C   0  0  1  0  0  0  0  0  0  0  0  0
    7.4493  -12.6055   26.9733 C   0  0  0  0  0  0  0  0  0  0  0  0
    6.2195  -11.5917   26.1072 S   0  0  0  0  0  0  0  0  0  0  0  0
    8.7075  -14.7295   26.8760 C   0  0  0  0  0  0  0  0  0  0  0  0
    8.1145  -15.4922   27.6677 O   0  0  0  0  0  0  0  0  0  0  0  0
   10.0987  -14.8102   26.7303 N   0  0  0  0  0  0  0  0  0  0  0  0
   10.8007  -15.8118   27.4972 C   0  0  0  0  0  0  0  0  0  0  0  0
   11.3808  -16.8695   26.6331 C   0  0  0  0  0  0  0  0  0  0  0  0
   12.7215  -17.1834   26.6005 O   0  0  0  0  0  0  0  0  0  0  0  0
   10.5905  -17.5078   25.8932 O   0  0  0  0  0  0  0  0  0  0  0  0
  2  8  1  0
  2  1  1  6
  3  2  1  0
  4  3  1  0
  5  4  1  0
  6  5  1  0
  7  6  1  0
  8  9  2  0
 10  8  1  0
 11 10  1  0
 11 12  1  1
 13 12  1  0
 14 11  1  0
 15 14  2  0
 16 14  1  0
 17 16  1  0
 18 17  1  0
 19 18  1  0
 20 18  2  0
M  END
$$$$
