KCG.pdb
     RDKit          3D

 20 19  0  0  1  0  0  0  0  0999 V2000
    6.5069  -15.4549   19.9935 N   0  0  0  0  0  0  0  0  0  0  0  0
    7.9514  -15.4600   19.7588 C   0  0  1  0  0  0  0  0  0  0  0  0
    8.1807  -14.6971   18.4775 C   0  0  0  0  0  0  0  0  0  0  0  0
    6.9070  -14.7241   17.6601 C   0  0  0  0  0  0  0  0  0  0  0  0
    7.0323  -13.9616   16.3653 C   0  0  0  0  0  0  0  0  0  0  0  0
    8.2117  -14.4701   15.5773 C   0  0  0  0  0  0  0  0  0  0  0  0
    8.3136  -13.6970   14.3660 N   0  0  0  0  0  0  0  0  0  0  0  0
    8.6189  -14.8241   20.9145 C   0  0  0  0  0  0  0  0  0  0  0  0
    9.1342  -13.6788   20.8183 O   0  0  0  0  0  0  0  0  0  0  0  0
    8.7039  -15.4717   22.1615 N   0  0  0  0  0  0  0  0  0  0  0  0
    9.5543  -14.9970   23.2085 C   0  0  1  0  0  0  0  0  0  0  0  0
    8.7942  -14.3014   24.3179 C   0  0  0  0  0  0  0  0  0  0  0  0
    7.3879  -15.3036   24.8730 S   0  0  0  0  0  0  0  0  0  0  0  0
   10.4611  -16.0315   23.7414 C   0  0  0  0  0  0  0  0  0  0  0  0
    9.9796  -17.1022   24.1682 O   0  0  0  0  0  0  0  0  0  0  0  0
   11.8460  -15.8216   23.7710 N   0  0  0  0  0  0  0  0  0  0  0  0
   12.6745  -16.8617   24.3331 C   0  0  0  0  0  0  0  0  0  0  0  0
   14.0947  -16.4452   24.4410 C   0  0  0  0  0  0  0  0  0  0  0  0
   15.0930  -17.2484   24.9461 O   0  0  0  0  0  0  0  0  0  0  0  0
   14.3886  -15.2894   24.0445 O   0  0  0  0  0  0  0  0  0  0  0  0
  2  8  1  0
  2  1  1  1
  3  2  1  0
  4  3  1  0
  5  4  1  0
  6  5  1  0
  7  6  1  0
  8  9  2  0
 10  8  1  0
 11 10  1  0
 11 12  1  1
 13 12  1  0
 14 11  1  0
 15 14  2  0
 16 14  1  0
 17 16  1  0
 18 17  1  0
 19 18  1  0
 20 18  2  0
M  END
$$$$
