KCG.pdb
     RDKit          3D

 20 19  0  0  1  0  0  0  0  0999 V2000
    6.5525  -16.2528   23.5483 N   0  0  0  0  0  0  0  0  0  0  0  0
    7.9454  -15.9739   23.1964 C   0  0  1  0  0  0  0  0  0  0  0  0
    7.9452  -15.5467   21.7494 C   0  0  0  0  0  0  0  0  0  0  0  0
    7.7979  -16.7760   20.8787 C   0  0  0  0  0  0  0  0  0  0  0  0
    7.9751  -16.4731   19.4123 C   0  0  0  0  0  0  0  0  0  0  0  0
    7.8483  -17.7381   18.6034 C   0  0  0  0  0  0  0  0  0  0  0  0
    7.7230  -17.3764   17.2147 N   0  0  0  0  0  0  0  0  0  0  0  0
    8.4544  -14.9134   24.0917 C   0  0  0  0  0  0  0  0  0  0  0  0
    9.6133  -14.4413   23.9472 O   0  0  0  0  0  0  0  0  0  0  0  0
    7.6668  -14.3927   25.1358 N   0  0  0  0  0  0  0  0  0  0  0  0
    8.1981  -13.4957   26.1146 C   0  0  1  0  0  0  0  0  0  0  0  0
    7.4516  -12.1800   26.1775 C   0  0  0  0  0  0  0  0  0  0  0  0
    5.6607  -12.4501   26.2773 S   0  0  0  0  0  0  0  0  0  0  0  0
    8.3364  -14.1027   27.4520 C   0  0  0  0  0  0  0  0  0  0  0  0
    7.6271  -13.6797   28.3892 O   0  0  0  0  0  0  0  0  0  0  0  0
    9.2503  -15.1411   27.6746 N   0  0  0  0  0  0  0  0  0  0  0  0
   10.1283  -15.0345   28.8155 C   0  0  0  0  0  0  0  0  0  0  0  0
   11.0497  -16.1931   28.9194 C   0  0  0  0  0  0  0  0  0  0  0  0
   11.8813  -16.4175   29.9941 O   0  0  0  0  0  0  0  0  0  0  0  0
   11.0608  -17.0088   27.9634 O   0  0  0  0  0  0  0  0  0  0  0  0
  2  8  1  0
  2  1  1  1
  3  2  1  0
  4  3  1  0
  5  4  1  0
  6  5  1  0
  7  6  1  0
  8  9  2  0
 10  8  1  0
 11 10  1  0
 11 12  1  1
 13 12  1  0
 14 11  1  0
 15 14  2  0
 16 14  1  0
 17 16  1  0
 18 17  1  0
 19 18  1  0
 20 18  2  0
M  END
$$$$
