REH.pdb
     RDKit          3D

 31 31  0  0  1  0  0  0  0  0999 V2000
   18.4648  -25.7664   -6.9777 N   0  0  0  0  0  0  0  0  0  0  0  0
   18.0772  -27.1152   -6.6809 C   0  0  0  0  0  0  0  0  0  0  0  0
   18.3212  -28.0367   -7.5435 N   0  0  0  0  0  0  0  0  0  0  0  0
   17.4365  -27.4726   -5.4764 N   0  0  0  0  0  0  0  0  0  0  0  0
   16.4538  -26.6357   -4.8670 C   0  0  0  0  0  0  0  0  0  0  0  0
   16.7936  -25.1751   -4.8500 C   0  0  0  0  0  0  0  0  0  0  0  0
   16.5378  -24.5004   -3.5372 C   0  0  0  0  0  0  0  0  0  0  0  0
   15.1667  -23.8609   -3.5655 C   0  0  2  0  0  0  0  0  0  0  0  0
   15.0563  -23.1745   -4.8629 N   0  0  0  0  0  0  0  0  0  0  0  0
   15.0139  -22.8030   -2.5354 C   0  0  0  0  0  0  0  0  0  0  0  0
   15.4613  -21.6286   -2.6672 O   0  0  0  0  0  0  0  0  0  0  0  0
   18.0315  -29.0205   -7.3754 N   0  0  0  0  0  0  0  0  0  0  0  0
   14.3243  -23.1004   -1.3124 C   0  0  2  0  0  0  0  0  0  0  0  0
   14.0879  -22.1479   -0.2841 C   0  0  0  0  0  0  0  0  0  0  0  0
   12.7194  -22.0216    0.2636 C   0  0  0  0  0  0  0  0  0  0  0  0
   11.5877  -21.8064   -0.6519 C   0  0  0  0  0  0  0  0  0  0  0  0
   10.2493  -21.7269   -0.1047 O   0  0  0  0  0  0  0  0  0  0  0  0
   10.0212  -21.7863    1.1169 C   0  0  0  0  0  0  0  0  0  0  0  0
   15.0520  -22.3828    0.8133 O   0  0  0  0  0  0  0  0  0  0  0  0
   15.4926  -23.5265    1.0909 O   0  0  0  0  0  0  0  0  0  0  0  0
    9.1666  -21.5790   -0.9553 N   0  0  0  0  0  0  0  0  0  0  0  0
   15.5150  -21.2909    1.6006 C   0  0  2  0  0  0  0  0  0  0  0  0
   16.4404  -21.5091    2.7237 C   0  0  0  0  0  0  0  0  0  0  0  0
   17.7540  -20.8460    2.3387 C   0  0  0  0  0  0  0  0  0  0  0  0
   18.6787  -20.9380    3.4781 C   0  0  0  0  0  0  0  0  0  0  0  0
   19.1398  -22.1341    4.0287 N   0  0  0  0  0  0  0  0  0  0  0  0
   19.9628  -21.8702    5.0498 C   0  0  0  0  0  0  0  0  0  0  0  0
   20.0380  -20.5396    5.1640 N   0  0  0  0  0  0  0  0  0  0  0  0
   19.2547  -19.9867    4.2052 C   0  0  0  0  0  0  0  0  0  0  0  0
   15.8927  -20.7951    3.8923 O   0  0  0  0  0  0  0  0  0  0  0  0
   14.8849  -19.8478    3.6852 O   0  0  0  0  0  0  0  0  0  0  0  0
  1  2  1  0
  2  3  2  0
  4  5  1  0
  4  2  1  0
  6  5  1  0
  7  6  1  0
  8  7  1  0
  8  9  1  6
 10  8  1  0
 10 11  2  0
 12 10  1  0
 13 12  1  0
 13 14  1  6
 14 15  1  0
 15 16  1  0
 16 20  1  0
 16 17  2  0
 18 13  1  0
 19 18  2  0
 21 18  1  0
 22 29  1  0
 22 21  1  0
 22 23  1  6
 24 23  1  0
 25 24  2  0
 26 27  1  0
 26 25  1  0
 27 28  2  0
 28 24  1  0
 29 30  1  0
 31 29  2  0
M  END
$$$$
