REH.pdb
     RDKit          3D

 31 31  0  0  1  0  0  0  0  0999 V2000
   23.3755  -15.1531  -18.8116 N   0  0  0  0  0  0  0  0  0  0  0  0
   23.4608  -13.9652  -19.6109 C   0  0  0  0  0  0  0  0  0  0  0  0
   22.3756  -13.4178  -20.0297 N   0  0  0  0  0  0  0  0  0  0  0  0
   24.6921  -13.3712  -19.9576 N   0  0  0  0  0  0  0  0  0  0  0  0
   25.9285  -13.8170  -19.4007 C   0  0  0  0  0  0  0  0  0  0  0  0
   26.3453  -13.1097  -18.1457 C   0  0  0  0  0  0  0  0  0  0  0  0
   27.7165  -13.4719  -17.6632 C   0  0  0  0  0  0  0  0  0  0  0  0
   27.9992  -12.7371  -16.3710 C   0  0  2  0  0  0  0  0  0  0  0  0
   26.7669  -12.8182  -15.5700 N   0  0  0  0  0  0  0  0  0  0  0  0
   28.2462  -11.2892  -16.5853 C   0  0  0  0  0  0  0  0  0  0  0  0
   27.3667  -10.3973  -16.4185 O   0  0  0  0  0  0  0  0  0  0  0  0
   22.3980  -12.5637  -20.6213 N   0  0  0  0  0  0  0  0  0  0  0  0
   29.5458  -10.8475  -17.0045 C   0  0  2  0  0  0  0  0  0  0  0  0
   29.9344   -9.4819  -17.0742 C   0  0  0  0  0  0  0  0  0  0  0  0
   31.3134   -9.1167  -16.6821 C   0  0  0  0  0  0  0  0  0  0  0  0
   31.7161   -7.7014  -16.6763 C   0  0  0  0  0  0  0  0  0  0  0  0
   33.0596   -7.3571  -16.2599 O   0  0  0  0  0  0  0  0  0  0  0  0
   33.9107   -8.2163  -15.9680 C   0  0  0  0  0  0  0  0  0  0  0  0
   29.6435   -8.9728  -18.4326 O   0  0  0  0  0  0  0  0  0  0  0  0
   29.9715   -9.5984  -19.4720 O   0  0  0  0  0  0  0  0  0  0  0  0
   33.4335   -6.0263  -16.1764 N   0  0  0  0  0  0  0  0  0  0  0  0
   28.9678   -7.7309  -18.5984 C   0  0  2  0  0  0  0  0  0  0  0  0
   28.3043   -7.3962  -19.8685 C   0  0  0  0  0  0  0  0  0  0  0  0
   27.1666   -8.3912  -20.0391 C   0  0  0  0  0  0  0  0  0  0  0  0
   26.4727   -8.0998  -21.3021 C   0  0  0  0  0  0  0  0  0  0  0  0
   27.1069   -7.9349  -22.5338 N   0  0  0  0  0  0  0  0  0  0  0  0
   26.1941   -7.6802  -23.4780 C   0  0  0  0  0  0  0  0  0  0  0  0
   24.9970   -7.6785  -22.8813 N   0  0  0  0  0  0  0  0  0  0  0  0
   25.1804   -7.9341  -21.5623 C   0  0  0  0  0  0  0  0  0  0  0  0
   27.7175   -6.0513  -19.7192 O   0  0  0  0  0  0  0  0  0  0  0  0
   27.3935   -5.6019  -18.4350 O   0  0  0  0  0  0  0  0  0  0  0  0
  1  2  1  0
  2  3  2  0
  4  5  1  0
  4  2  1  0
  6  5  1  0
  7  6  1  0
  8  7  1  0
  8  9  1  1
 10  8  1  0
 10 11  2  0
 12 10  1  0
 13 12  1  0
 13 14  1  6
 14 15  1  0
 15 16  1  0
 16 20  1  0
 16 17  2  0
 18 13  1  0
 19 18  2  0
 21 18  1  0
 22 29  1  0
 22 21  1  0
 22 23  1  1
 24 23  1  0
 25 24  2  0
 26 27  1  0
 26 25  1  0
 27 28  2  0
 28 24  1  0
 29 30  1  0
 31 29  2  0
M  END
$$$$
