REH.pdb
     RDKit          3D

 31 31  0  0  1  0  0  0  0  0999 V2000
   19.5388  -13.8615  -21.5865 N   0  0  0  0  0  0  0  0  0  0  0  0
   20.0559  -15.1955  -21.6875 C   0  0  0  0  0  0  0  0  0  0  0  0
   19.2415  -16.1624  -21.9213 N   0  0  0  0  0  0  0  0  0  0  0  0
   21.4271  -15.4906  -21.5400 N   0  0  0  0  0  0  0  0  0  0  0  0
   22.3886  -14.4797  -21.2385 C   0  0  0  0  0  0  0  0  0  0  0  0
   22.1966  -13.8031  -19.9139 C   0  0  0  0  0  0  0  0  0  0  0  0
   23.2524  -12.7937  -19.5813 C   0  0  0  0  0  0  0  0  0  0  0  0
   22.9232  -12.1492  -18.2524 C   0  0  2  0  0  0  0  0  0  0  0  0
   21.7747  -12.8900  -17.7057 N   0  0  0  0  0  0  0  0  0  0  0  0
   22.4633  -10.7458  -18.4022 C   0  0  0  0  0  0  0  0  0  0  0  0
   23.1158   -9.8581  -19.0211 O   0  0  0  0  0  0  0  0  0  0  0  0
   19.5839  -17.1361  -22.0427 N   0  0  0  0  0  0  0  0  0  0  0  0
   21.2125  -10.3454  -17.8234 C   0  0  1  0  0  0  0  0  0  0  0  0
   20.6174   -9.0705  -18.0263 C   0  0  0  0  0  0  0  0  0  0  0  0
   19.1436   -8.9584  -17.9637 C   0  0  0  0  0  0  0  0  0  0  0  0
   18.3183   -9.6743  -18.9494 C   0  0  0  0  0  0  0  0  0  0  0  0
   16.8761   -9.5927  -18.8469 O   0  0  0  0  0  0  0  0  0  0  0  0
   16.2529   -9.9890  -17.8457 C   0  0  0  0  0  0  0  0  0  0  0  0
   21.2380   -8.1018  -17.0960 O   0  0  0  0  0  0  0  0  0  0  0  0
   21.5411   -8.4013  -15.9137 O   0  0  0  0  0  0  0  0  0  0  0  0
   16.1420   -9.0565  -19.8915 N   0  0  0  0  0  0  0  0  0  0  0  0
   21.5135   -6.7741  -17.5292 C   0  0  2  0  0  0  0  0  0  0  0  0
   22.0468   -5.7705  -16.5945 C   0  0  0  0  0  0  0  0  0  0  0  0
   22.9319   -4.8427  -17.4126 C   0  0  0  0  0  0  0  0  0  0  0  0
   24.1755   -5.5525  -17.7463 C   0  0  0  0  0  0  0  0  0  0  0  0
   24.6502   -6.6774  -17.0714 N   0  0  0  0  0  0  0  0  0  0  0  0
   25.8025   -7.0774  -17.6210 C   0  0  0  0  0  0  0  0  0  0  0  0
   26.0738   -6.2383  -18.6266 N   0  0  0  0  0  0  0  0  0  0  0  0
   25.0795   -5.3186  -18.6915 C   0  0  0  0  0  0  0  0  0  0  0  0
   20.9044   -4.9859  -16.0899 O   0  0  0  0  0  0  0  0  0  0  0  0
   21.1533   -3.9463  -15.1880 O   0  0  0  0  0  0  0  0  0  0  0  0
  1  2  1  0
  2  3  2  0
  4  5  1  0
  4  2  1  0
  6  5  1  0
  7  6  1  0
  8  7  1  0
  8  9  1  6
 10  8  1  0
 10 11  2  0
 12 10  1  0
 13 12  1  0
 13 14  1  6
 14 15  1  0
 15 16  1  0
 16 20  1  0
 16 17  2  0
 18 13  1  0
 19 18  2  0
 21 18  1  0
 22 29  1  0
 22 21  1  0
 22 23  1  1
 24 23  1  0
 25 24  2  0
 26 27  1  0
 26 25  1  0
 27 28  2  0
 28 24  1  0
 29 30  1  0
 31 29  2  0
M  END
$$$$
