REH.pdb
     RDKit          3D

 31 31  0  0  1  0  0  0  0  0999 V2000
   32.5060  -21.3442  -10.6259 N   0  0  0  0  0  0  0  0  0  0  0  0
   31.7365  -22.5534  -10.5690 C   0  0  0  0  0  0  0  0  0  0  0  0
   32.3506  -23.6766  -10.4510 N   0  0  0  0  0  0  0  0  0  0  0  0
   30.3279  -22.5598  -10.6377 N   0  0  0  0  0  0  0  0  0  0  0  0
   29.6221  -21.9492  -11.7177 C   0  0  0  0  0  0  0  0  0  0  0  0
   29.5477  -20.4527  -11.6552 C   0  0  0  0  0  0  0  0  0  0  0  0
   28.1531  -19.9060  -11.6710 C   0  0  0  0  0  0  0  0  0  0  0  0
   27.3143  -20.7108  -12.6396 C   0  0  2  0  0  0  0  0  0  0  0  0
   28.0941  -20.8047  -13.8844 N   0  0  0  0  0  0  0  0  0  0  0  0
   26.0524  -20.0199  -13.0055 C   0  0  0  0  0  0  0  0  0  0  0  0
   25.2381  -19.5554  -12.1581 O   0  0  0  0  0  0  0  0  0  0  0  0
   31.8261  -24.5707  -10.3760 N   0  0  0  0  0  0  0  0  0  0  0  0
   25.7118  -19.8547  -14.3899 C   0  0  2  0  0  0  0  0  0  0  0  0
   24.5446  -19.1824  -14.8441 C   0  0  0  0  0  0  0  0  0  0  0  0
   24.4944  -18.7204  -16.2486 C   0  0  0  0  0  0  0  0  0  0  0  0
   25.4034  -17.6528  -16.6948 C   0  0  0  0  0  0  0  0  0  0  0  0
   25.2001  -17.0598  -18.0002 O   0  0  0  0  0  0  0  0  0  0  0  0
   25.9366  -17.3103  -18.9711 C   0  0  0  0  0  0  0  0  0  0  0  0
   23.3643  -20.0234  -14.5460 O   0  0  0  0  0  0  0  0  0  0  0  0
   23.3833  -21.2752  -14.6548 O   0  0  0  0  0  0  0  0  0  0  0  0
   24.1516  -16.1771  -18.1984 N   0  0  0  0  0  0  0  0  0  0  0  0
   22.1487  -19.4189  -14.1181 C   0  0  2  0  0  0  0  0  0  0  0  0
   20.9652  -20.2381  -13.8121 C   0  0  0  0  0  0  0  0  0  0  0  0
   20.0701  -19.3914  -12.9202 C   0  0  0  0  0  0  0  0  0  0  0  0
   18.7941  -20.0964  -12.7298 C   0  0  0  0  0  0  0  0  0  0  0  0
   18.4800  -21.3317  -13.2972 N   0  0  0  0  0  0  0  0  0  0  0  0
   17.2457  -21.6937  -12.9293 C   0  0  0  0  0  0  0  0  0  0  0  0
   16.7661  -20.7231  -12.1437 N   0  0  0  0  0  0  0  0  0  0  0  0
   17.7149  -19.7609  -12.0312 C   0  0  0  0  0  0  0  0  0  0  0  0
   20.2527  -20.4760  -15.0815 O   0  0  0  0  0  0  0  0  0  0  0  0
   19.5555  -21.6778  -15.2419 O   0  0  0  0  0  0  0  0  0  0  0  0
  1  2  1  0
  2  3  2  0
  4  5  1  0
  4  2  1  0
  6  5  1  0
  7  6  1  0
  8  7  1  0
  8  9  1  6
 10  8  1  0
 10 11  2  0
 12 10  1  0
 13 12  1  0
 13 14  1  1
 14 15  1  0
 15 16  1  0
 16 20  1  0
 16 17  2  0
 18 13  1  0
 19 18  2  0
 21 18  1  0
 22 29  1  0
 22 21  1  0
 22 23  1  1
 24 23  1  0
 25 24  2  0
 26 27  1  0
 26 25  1  0
 27 28  2  0
 28 24  1  0
 29 30  1  0
 31 29  2  0
M  END
$$$$
