REH.pdb
     RDKit          3D

 31 31  0  0  1  0  0  0  0  0999 V2000
   20.7871   -8.3218  -21.6795 N   0  0  0  0  0  0  0  0  0  0  0  0
   22.1919   -8.2947  -21.9679 C   0  0  0  0  0  0  0  0  0  0  0  0
   22.6922   -7.2508  -22.5270 N   0  0  0  0  0  0  0  0  0  0  0  0
   23.0499   -9.3715  -21.6617 N   0  0  0  0  0  0  0  0  0  0  0  0
   22.5703  -10.5681  -21.0490 C   0  0  0  0  0  0  0  0  0  0  0  0
   23.0115  -10.7695  -19.6299 C   0  0  0  0  0  0  0  0  0  0  0  0
   22.3438  -11.9172  -18.9363 C   0  0  0  0  0  0  0  0  0  0  0  0
   23.1281  -13.1835  -19.2027 C   0  0  2  0  0  0  0  0  0  0  0  0
   23.2849  -13.2743  -20.6634 N   0  0  0  0  0  0  0  0  0  0  0  0
   22.3859  -14.4044  -18.8002 C   0  0  0  0  0  0  0  0  0  0  0  0
   21.3951  -14.8625  -19.4368 O   0  0  0  0  0  0  0  0  0  0  0  0
   23.7019   -7.2021  -22.7684 N   0  0  0  0  0  0  0  0  0  0  0  0
   22.7931  -15.1260  -17.6283 C   0  0  1  0  0  0  0  0  0  0  0  0
   22.1794  -16.3293  -17.1854 C   0  0  0  0  0  0  0  0  0  0  0  0
   22.9794  -17.2777  -16.3797 C   0  0  0  0  0  0  0  0  0  0  0  0
   22.3645  -18.5287  -15.9082 C   0  0  0  0  0  0  0  0  0  0  0  0
   23.1580  -19.4435  -15.1142 O   0  0  0  0  0  0  0  0  0  0  0  0
   24.1300  -20.0644  -15.5805 C   0  0  0  0  0  0  0  0  0  0  0  0
   20.9277  -15.9910  -16.4728 O   0  0  0  0  0  0  0  0  0  0  0  0
   20.8503  -15.0329  -15.6632 O   0  0  0  0  0  0  0  0  0  0  0  0
   22.8408  -19.6505  -13.7822 N   0  0  0  0  0  0  0  0  0  0  0  0
   19.7518  -16.7625  -16.6930 C   0  0  1  0  0  0  0  0  0  0  0  0
   18.4964  -16.4405  -15.9961 C   0  0  0  0  0  0  0  0  0  0  0  0
   17.7282  -15.4909  -16.9025 C   0  0  0  0  0  0  0  0  0  0  0  0
   16.5082  -15.0591  -16.2049 C   0  0  0  0  0  0  0  0  0  0  0  0
   16.1877  -15.3950  -14.8892 N   0  0  0  0  0  0  0  0  0  0  0  0
   15.0136  -14.8454  -14.5589 C   0  0  0  0  0  0  0  0  0  0  0  0
   14.5784  -14.1692  -15.6278 N   0  0  0  0  0  0  0  0  0  0  0  0
   15.4938  -14.3072  -16.6186 C   0  0  0  0  0  0  0  0  0  0  0  0
   17.7219  -17.6905  -15.8815 O   0  0  0  0  0  0  0  0  0  0  0  0
   17.6086  -18.5126  -17.0074 O   0  0  0  0  0  0  0  0  0  0  0  0
  1  2  1  0
  2  3  2  0
  4  5  1  0
  4  2  1  0
  6  5  1  0
  7  6  1  0
  8  7  1  0
  8  9  1  6
 10  8  1  0
 10 11  2  0
 12 10  1  0
 13 12  1  0
 13 14  1  6
 14 15  1  0
 15 16  1  0
 16 20  1  0
 16 17  2  0
 18 13  1  0
 19 18  2  0
 21 18  1  0
 22 29  1  0
 22 21  1  0
 22 23  1  6
 24 23  1  0
 25 24  2  0
 26 27  1  0
 26 25  1  0
 27 28  2  0
 28 24  1  0
 29 30  1  0
 31 29  2  0
M  END
$$$$
