REH.pdb
     RDKit          3D

 31 31  0  0  1  0  0  0  0  0999 V2000
   13.9121  -13.4941  -15.5409 N   0  0  0  0  0  0  0  0  0  0  0  0
   14.7978  -14.6093  -15.7125 C   0  0  0  0  0  0  0  0  0  0  0  0
   14.2986  -15.7677  -15.9604 N   0  0  0  0  0  0  0  0  0  0  0  0
   16.1997  -14.4857  -15.6195 N   0  0  0  0  0  0  0  0  0  0  0  0
   16.8329  -13.2271  -15.3913 C   0  0  0  0  0  0  0  0  0  0  0  0
   16.6299  -12.2137  -16.4779 C   0  0  0  0  0  0  0  0  0  0  0  0
   17.1927  -10.8604  -16.1685 C   0  0  0  0  0  0  0  0  0  0  0  0
   16.8924   -9.9223  -17.3172 C   0  0  2  0  0  0  0  0  0  0  0  0
   17.1619  -10.6785  -18.5510 N   0  0  0  0  0  0  0  0  0  0  0  0
   17.8101   -8.7560  -17.3506 C   0  0  0  0  0  0  0  0  0  0  0  0
   18.7888   -8.6585  -18.1440 O   0  0  0  0  0  0  0  0  0  0  0  0
   14.9080  -16.6009  -16.0811 N   0  0  0  0  0  0  0  0  0  0  0  0
   17.5991   -7.6634  -16.4443 C   0  0  2  0  0  0  0  0  0  0  0  0
   18.3968   -6.4871  -16.4217 C   0  0  0  0  0  0  0  0  0  0  0  0
   17.7264   -5.1739  -16.5433 C   0  0  0  0  0  0  0  0  0  0  0  0
   17.0317   -4.8260  -17.7929 C   0  0  0  0  0  0  0  0  0  0  0  0
   16.3808   -3.5367  -17.8969 O   0  0  0  0  0  0  0  0  0  0  0  0
   16.4081   -2.6972  -16.9792 C   0  0  0  0  0  0  0  0  0  0  0  0
   19.2462   -6.5109  -15.2105 O   0  0  0  0  0  0  0  0  0  0  0  0
   18.7760   -6.7004  -14.0606 O   0  0  0  0  0  0  0  0  0  0  0  0
   15.6956   -3.2040  -19.0535 N   0  0  0  0  0  0  0  0  0  0  0  0
   20.6517   -6.3148  -15.3221 C   0  0  2  0  0  0  0  0  0  0  0  0
   21.5176   -6.3653  -14.1333 C   0  0  0  0  0  0  0  0  0  0  0  0
   22.8651   -6.8943  -14.6001 C   0  0  0  0  0  0  0  0  0  0  0  0
   22.6920   -8.2793  -15.0621 C   0  0  0  0  0  0  0  0  0  0  0  0
   21.5401   -9.0413  -14.8649 N   0  0  0  0  0  0  0  0  0  0  0  0
   21.7067  -10.2543  -15.4041 C   0  0  0  0  0  0  0  0  0  0  0  0
   22.9323  -10.2849  -15.9388 N   0  0  0  0  0  0  0  0  0  0  0  0
   23.5188   -9.0813  -15.7243 C   0  0  0  0  0  0  0  0  0  0  0  0
   21.7071   -4.9793  -13.6659 O   0  0  0  0  0  0  0  0  0  0  0  0
   22.1195   -4.7691  -12.3461 O   0  0  0  0  0  0  0  0  0  0  0  0
  1  2  1  0
  2  3  2  0
  4  5  1  0
  4  2  1  0
  6  5  1  0
  7  6  1  0
  8  7  1  0
  8  9  1  6
 10  8  1  0
 10 11  2  0
 12 10  1  0
 13 12  1  0
 13 14  1  6
 14 15  1  0
 15 16  1  0
 16 20  1  0
 16 17  2  0
 18 13  1  0
 19 18  2  0
 21 18  1  0
 22 29  1  0
 22 21  1  0
 22 23  1  1
 24 23  1  0
 25 24  2  0
 26 27  1  0
 26 25  1  0
 27 28  2  0
 28 24  1  0
 29 30  1  0
 31 29  2  0
M  END
$$$$
