REH.pdb
     RDKit          3D

 31 31  0  0  1  0  0  0  0  0999 V2000
   16.5069  -18.6974  -18.3929 N   0  0  0  0  0  0  0  0  0  0  0  0
   17.3890  -19.7154  -17.9001 C   0  0  0  0  0  0  0  0  0  0  0  0
   16.8845  -20.7840  -17.3938 N   0  0  0  0  0  0  0  0  0  0  0  0
   18.7930  -19.5909  -17.9486 N   0  0  0  0  0  0  0  0  0  0  0  0
   19.4300  -18.4405  -18.5038 C   0  0  0  0  0  0  0  0  0  0  0  0
   20.9259  -18.5211  -18.5734 C   0  0  0  0  0  0  0  0  0  0  0  0
   21.5229  -19.6014  -17.7246 C   0  0  0  0  0  0  0  0  0  0  0  0
   22.1972  -18.9748  -16.5236 C   0  0  2  0  0  0  0  0  0  0  0  0
   23.0698  -17.9109  -17.0465 N   0  0  0  0  0  0  0  0  0  0  0  0
   23.0958  -19.9236  -15.8196 C   0  0  0  0  0  0  0  0  0  0  0  0
   22.6970  -20.9926  -15.2764 O   0  0  0  0  0  0  0  0  0  0  0  0
   17.4914  -21.5357  -17.0109 N   0  0  0  0  0  0  0  0  0  0  0  0
   24.4999  -19.6385  -15.7355 C   0  0  1  0  0  0  0  0  0  0  0  0
   25.4377  -20.4668  -15.0608 C   0  0  0  0  0  0  0  0  0  0  0  0
   26.8220  -20.5366  -15.5780 C   0  0  0  0  0  0  0  0  0  0  0  0
   27.0560  -20.9339  -16.9754 C   0  0  0  0  0  0  0  0  0  0  0  0
   28.4163  -20.9938  -17.4682 O   0  0  0  0  0  0  0  0  0  0  0  0
   29.3945  -20.6619  -16.7748 C   0  0  0  0  0  0  0  0  0  0  0  0
   25.4515  -20.1008  -13.6274 O   0  0  0  0  0  0  0  0  0  0  0  0
   25.5561  -18.9111  -13.2359 O   0  0  0  0  0  0  0  0  0  0  0  0
   28.6614  -21.4346  -18.7580 N   0  0  0  0  0  0  0  0  0  0  0  0
   25.3437  -21.1132  -12.6326 C   0  0  1  0  0  0  0  0  0  0  0  0
   25.5242  -20.7935  -11.2076 C   0  0  0  0  0  0  0  0  0  0  0  0
   24.4318  -21.5370  -10.4543 C   0  0  0  0  0  0  0  0  0  0  0  0
   23.1415  -20.8929  -10.7404 C   0  0  0  0  0  0  0  0  0  0  0  0
   22.9755  -19.7932  -11.5827 N   0  0  0  0  0  0  0  0  0  0  0  0
   21.6824  -19.4526  -11.6265 C   0  0  0  0  0  0  0  0  0  0  0  0
   21.0215  -20.3051  -10.8356 N   0  0  0  0  0  0  0  0  0  0  0  0
   21.9180  -21.1729  -10.3046 C   0  0  0  0  0  0  0  0  0  0  0  0
   26.8258  -21.3487  -10.7918 O   0  0  0  0  0  0  0  0  0  0  0  0
   27.2485  -21.1474   -9.4739 O   0  0  0  0  0  0  0  0  0  0  0  0
  1  2  1  0
  2  3  2  0
  4  5  1  0
  4  2  1  0
  6  5  1  0
  7  6  1  0
  8  7  1  0
  8  9  1  6
 10  8  1  0
 10 11  2  0
 12 10  1  0
 13 12  1  0
 13 14  1  1
 14 15  1  0
 15 16  1  0
 16 20  1  0
 16 17  2  0
 18 13  1  0
 19 18  2  0
 21 18  1  0
 22 29  1  0
 22 21  1  0
 22 23  1  6
 24 23  1  0
 25 24  2  0
 26 27  1  0
 26 25  1  0
 27 28  2  0
 28 24  1  0
 29 30  1  0
 31 29  2  0
M  END
$$$$
