REH.pdb
     RDKit          3D

 31 31  0  0  1  0  0  0  0  0999 V2000
   28.3299  -27.4666  -15.7646 N   0  0  0  0  0  0  0  0  0  0  0  0
   29.1524  -27.6245  -16.9291 C   0  0  0  0  0  0  0  0  0  0  0  0
   30.1274  -28.4616  -16.8932 N   0  0  0  0  0  0  0  0  0  0  0  0
   28.9340  -26.8954  -18.1164 N   0  0  0  0  0  0  0  0  0  0  0  0
   28.1652  -25.6929  -18.1331 C   0  0  0  0  0  0  0  0  0  0  0  0
   28.6874  -24.5993  -17.2498 C   0  0  0  0  0  0  0  0  0  0  0  0
   27.6501  -23.9735  -16.3686 C   0  0  0  0  0  0  0  0  0  0  0  0
   26.6515  -23.2288  -17.2275 C   0  0  2  0  0  0  0  0  0  0  0  0
   27.1565  -21.8517  -17.3507 N   0  0  0  0  0  0  0  0  0  0  0  0
   25.3212  -23.1138  -16.5789 C   0  0  0  0  0  0  0  0  0  0  0  0
   24.6578  -24.1056  -16.1628 O   0  0  0  0  0  0  0  0  0  0  0  0
   30.7221  -28.6302  -17.7286 N   0  0  0  0  0  0  0  0  0  0  0  0
   24.7307  -21.8180  -16.4002 C   0  0  1  0  0  0  0  0  0  0  0  0
   23.4209  -21.6076  -15.8893 C   0  0  0  0  0  0  0  0  0  0  0  0
   23.0127  -20.2316  -15.5311 C   0  0  0  0  0  0  0  0  0  0  0  0
   21.6671  -19.9918  -14.9861 C   0  0  0  0  0  0  0  0  0  0  0  0
   21.2457  -18.6295  -14.7343 O   0  0  0  0  0  0  0  0  0  0  0  0
   20.1117  -18.3478  -14.3070 C   0  0  0  0  0  0  0  0  0  0  0  0
   22.4426  -22.1965  -16.8301 O   0  0  0  0  0  0  0  0  0  0  0  0
   22.3737  -21.8500  -18.0362 O   0  0  0  0  0  0  0  0  0  0  0  0
   22.1224  -17.5839  -14.9711 N   0  0  0  0  0  0  0  0  0  0  0  0
   21.5332  -23.1948  -16.3799 C   0  0  2  0  0  0  0  0  0  0  0  0
   20.5104  -23.7465  -17.2826 C   0  0  0  0  0  0  0  0  0  0  0  0
   19.9433  -24.9788  -16.5944 C   0  0  0  0  0  0  0  0  0  0  0  0
   18.9989  -25.6357  -17.5099 C   0  0  0  0  0  0  0  0  0  0  0  0
   19.3694  -26.4759  -18.5603 N   0  0  0  0  0  0  0  0  0  0  0  0
   18.2750  -26.9063  -19.1981 C   0  0  0  0  0  0  0  0  0  0  0  0
   17.2189  -26.3633  -18.5827 N   0  0  0  0  0  0  0  0  0  0  0  0
   17.6719  -25.5952  -17.5611 C   0  0  0  0  0  0  0  0  0  0  0  0
   19.4319  -22.7464  -17.3917 O   0  0  0  0  0  0  0  0  0  0  0  0
   18.7165  -22.6624  -18.5906 O   0  0  0  0  0  0  0  0  0  0  0  0
  1  2  1  0
  2  3  2  0
  4  5  1  0
  4  2  1  0
  6  5  1  0
  7  6  1  0
  8  7  1  0
  8  9  1  1
 10  8  1  0
 10 11  2  0
 12 10  1  0
 13 12  1  0
 13 14  1  6
 14 15  1  0
 15 16  1  0
 16 20  1  0
 16 17  2  0
 18 13  1  0
 19 18  2  0
 21 18  1  0
 22 29  1  0
 22 21  1  0
 22 23  1  1
 24 23  1  0
 25 24  2  0
 26 27  1  0
 26 25  1  0
 27 28  2  0
 28 24  1  0
 29 30  1  0
 31 29  2  0
M  END
$$$$
