REH.pdb
     RDKit          3D

 31 31  0  0  1  0  0  0  0  0999 V2000
   16.5621  -17.3377  -15.3556 N   0  0  0  0  0  0  0  0  0  0  0  0
   16.1272  -16.1962  -16.1074 C   0  0  0  0  0  0  0  0  0  0  0  0
   15.1666  -16.3356  -16.9503 N   0  0  0  0  0  0  0  0  0  0  0  0
   16.7133  -14.9220  -15.9588 N   0  0  0  0  0  0  0  0  0  0  0  0
   18.0847  -14.6809  -16.2725 C   0  0  0  0  0  0  0  0  0  0  0  0
   18.3127  -13.7485  -17.4247 C   0  0  0  0  0  0  0  0  0  0  0  0
   18.7828  -12.3831  -17.0261 C   0  0  0  0  0  0  0  0  0  0  0  0
   20.2229  -12.4667  -16.5692 C   0  0  2  0  0  0  0  0  0  0  0  0
   20.2204  -13.2705  -15.3360 N   0  0  0  0  0  0  0  0  0  0  0  0
   20.7732  -11.1424  -16.1861 C   0  0  0  0  0  0  0  0  0  0  0  0
   20.4383  -10.5226  -15.1370 O   0  0  0  0  0  0  0  0  0  0  0  0
   14.7988  -15.5240  -17.4851 N   0  0  0  0  0  0  0  0  0  0  0  0
   21.7411  -10.5062  -17.0336 C   0  0  2  0  0  0  0  0  0  0  0  0
   22.3900   -9.2821  -16.7157 C   0  0  0  0  0  0  0  0  0  0  0  0
   23.8450   -9.1678  -16.9577 C   0  0  0  0  0  0  0  0  0  0  0  0
   24.5330   -7.9009  -16.6630 C   0  0  0  0  0  0  0  0  0  0  0  0
   25.9586   -7.8066  -16.8989 O   0  0  0  0  0  0  0  0  0  0  0  0
   26.5608   -6.7184  -16.9321 C   0  0  0  0  0  0  0  0  0  0  0  0
   21.6767   -8.1757  -17.3909 O   0  0  0  0  0  0  0  0  0  0  0  0
   21.4906   -8.1521  -18.6336 O   0  0  0  0  0  0  0  0  0  0  0  0
   26.7002   -8.9591  -17.0977 N   0  0  0  0  0  0  0  0  0  0  0  0
   21.1716   -7.0841  -16.6296 C   0  0  2  0  0  0  0  0  0  0  0  0
   20.4864   -5.9592  -17.2857 C   0  0  0  0  0  0  0  0  0  0  0  0
   19.1238   -5.8341  -16.6216 C   0  0  0  0  0  0  0  0  0  0  0  0
   18.3899   -4.7308  -17.2585 C   0  0  0  0  0  0  0  0  0  0  0  0
   18.7122   -4.1772  -18.4978 N   0  0  0  0  0  0  0  0  0  0  0  0
   17.8520   -3.1945  -18.7877 C   0  0  0  0  0  0  0  0  0  0  0  0
   16.9915   -3.1077  -17.7674 N   0  0  0  0  0  0  0  0  0  0  0  0
   17.3291   -4.0447  -16.8471 C   0  0  0  0  0  0  0  0  0  0  0  0
   21.2559   -4.7374  -16.9849 O   0  0  0  0  0  0  0  0  0  0  0  0
   20.9669   -3.5717  -17.7017 O   0  0  0  0  0  0  0  0  0  0  0  0
  1  2  1  0
  2  3  2  0
  4  5  1  0
  4  2  1  0
  6  5  1  0
  7  6  1  0
  8  7  1  0
  8  9  1  1
 10  8  1  0
 10 11  2  0
 12 10  1  0
 13 12  1  0
 13 14  1  6
 14 15  1  0
 15 16  1  0
 16 20  1  0
 16 17  2  0
 18 13  1  0
 19 18  2  0
 21 18  1  0
 22 29  1  0
 22 21  1  0
 22 23  1  1
 24 23  1  0
 25 24  2  0
 26 27  1  0
 26 25  1  0
 27 28  2  0
 28 24  1  0
 29 30  1  0
 31 29  2  0
M  END
$$$$
