REH.pdb
     RDKit          3D

 31 31  0  0  1  0  0  0  0  0999 V2000
   29.1046  -21.9421  -17.5358 N   0  0  0  0  0  0  0  0  0  0  0  0
   29.2861  -23.1049  -16.7159 C   0  0  0  0  0  0  0  0  0  0  0  0
   29.8307  -22.9716  -15.5590 N   0  0  0  0  0  0  0  0  0  0  0  0
   28.8898  -24.3937  -17.1293 N   0  0  0  0  0  0  0  0  0  0  0  0
   28.2438  -24.6192  -18.3820 C   0  0  0  0  0  0  0  0  0  0  0  0
   26.8551  -24.0623  -18.4836 C   0  0  0  0  0  0  0  0  0  0  0  0
   26.0534  -24.1778  -17.2235 C   0  0  0  0  0  0  0  0  0  0  0  0
   24.6938  -23.5498  -17.4396 C   0  0  2  0  0  0  0  0  0  0  0  0
   24.6710  -23.0807  -18.8347 N   0  0  0  0  0  0  0  0  0  0  0  0
   24.4895  -22.3400  -16.6041 C   0  0  0  0  0  0  0  0  0  0  0  0
   24.5515  -22.3430  -15.3420 O   0  0  0  0  0  0  0  0  0  0  0  0
   30.0348  -23.7978  -14.9626 N   0  0  0  0  0  0  0  0  0  0  0  0
   24.2050  -21.0833  -17.2361 C   0  0  1  0  0  0  0  0  0  0  0  0
   23.9354  -19.8820  -16.5255 C   0  0  0  0  0  0  0  0  0  0  0  0
   23.9767  -18.5992  -17.2612 C   0  0  0  0  0  0  0  0  0  0  0  0
   23.0071  -18.3486  -18.3393 C   0  0  0  0  0  0  0  0  0  0  0  0
   22.7166  -16.9810  -18.7162 O   0  0  0  0  0  0  0  0  0  0  0  0
   21.9973  -16.2353  -18.0273 C   0  0  0  0  0  0  0  0  0  0  0  0
   22.6386  -20.0227  -15.8272 O   0  0  0  0  0  0  0  0  0  0  0  0
   21.6200  -20.5017  -16.3860 O   0  0  0  0  0  0  0  0  0  0  0  0
   23.2492  -16.4619  -19.8844 N   0  0  0  0  0  0  0  0  0  0  0  0
   22.5111  -19.6083  -14.4713 C   0  0  2  0  0  0  0  0  0  0  0  0
   21.2627  -19.8367  -13.7265 C   0  0  0  0  0  0  0  0  0  0  0  0
   21.4524  -19.2030  -12.3568 C   0  0  0  0  0  0  0  0  0  0  0  0
   20.2524  -19.4630  -11.5482 C   0  0  0  0  0  0  0  0  0  0  0  0
   19.1410  -20.1816  -11.9897 N   0  0  0  0  0  0  0  0  0  0  0  0
   18.2255  -20.2354  -11.0156 C   0  0  0  0  0  0  0  0  0  0  0  0
   18.7237  -19.5711   -9.9670 N   0  0  0  0  0  0  0  0  0  0  0  0
   19.9529  -19.1079  -10.3034 C   0  0  0  0  0  0  0  0  0  0  0  0
   20.1909  -19.1033  -14.4255 O   0  0  0  0  0  0  0  0  0  0  0  0
   18.9729  -19.7529  -14.6506 O   0  0  0  0  0  0  0  0  0  0  0  0
  1  2  1  0
  2  3  2  0
  4  5  1  0
  4  2  1  0
  6  5  1  0
  7  6  1  0
  8  7  1  0
  8  9  1  6
 10  8  1  0
 10 11  2  0
 12 10  1  0
 13 12  1  0
 13 14  1  1
 14 15  1  0
 15 16  1  0
 16 20  1  0
 16 17  2  0
 18 13  1  0
 19 18  2  0
 21 18  1  0
 22 29  1  0
 22 21  1  0
 22 23  1  1
 24 23  1  0
 25 24  2  0
 26 27  1  0
 26 25  1  0
 27 28  2  0
 28 24  1  0
 29 30  1  0
 31 29  2  0
M  END
$$$$
