REH.pdb
     RDKit          3D

 31 31  0  0  1  0  0  0  0  0999 V2000
   18.7612  -13.0385  -15.6592 N   0  0  0  0  0  0  0  0  0  0  0  0
   17.3594  -13.3426  -15.6648 C   0  0  0  0  0  0  0  0  0  0  0  0
   16.7896  -13.6708  -14.5601 N   0  0  0  0  0  0  0  0  0  0  0  0
   16.5780  -13.2963  -16.8379 N   0  0  0  0  0  0  0  0  0  0  0  0
   17.1580  -13.0730  -18.1229 C   0  0  0  0  0  0  0  0  0  0  0  0
   17.3581  -11.6307  -18.4815 C   0  0  0  0  0  0  0  0  0  0  0  0
   16.0873  -10.8478  -18.6093 C   0  0  0  0  0  0  0  0  0  0  0  0
   16.4174   -9.4249  -19.0045 C   0  0  2  0  0  0  0  0  0  0  0  0
   17.7502   -9.4665  -19.6279 N   0  0  0  0  0  0  0  0  0  0  0  0
   16.5496   -8.5271  -17.8298 C   0  0  0  0  0  0  0  0  0  0  0  0
   15.6165   -8.3120  -17.0053 O   0  0  0  0  0  0  0  0  0  0  0  0
   15.7687  -13.8603  -14.5175 N   0  0  0  0  0  0  0  0  0  0  0  0
   17.7938   -7.8527  -17.5910 C   0  0  1  0  0  0  0  0  0  0  0  0
   18.0310   -6.9969  -16.4811 C   0  0  0  0  0  0  0  0  0  0  0  0
   19.3282   -7.0936  -15.7763 C   0  0  0  0  0  0  0  0  0  0  0  0
   19.5748   -8.2183  -14.8600 C   0  0  0  0  0  0  0  0  0  0  0  0
   20.8357   -8.2803  -14.1506 O   0  0  0  0  0  0  0  0  0  0  0  0
   21.9319   -8.3287  -14.7371 C   0  0  0  0  0  0  0  0  0  0  0  0
   17.7846   -5.5986  -16.8968 O   0  0  0  0  0  0  0  0  0  0  0  0
   18.1569   -5.1503  -18.0103 O   0  0  0  0  0  0  0  0  0  0  0  0
   20.8456   -8.2871  -12.7658 N   0  0  0  0  0  0  0  0  0  0  0  0
   17.1025   -4.7053  -16.0232 C   0  0  2  0  0  0  0  0  0  0  0  0
   16.9757   -3.2768  -16.3529 C   0  0  0  0  0  0  0  0  0  0  0  0
   15.9902   -2.6871  -15.3556 C   0  0  0  0  0  0  0  0  0  0  0  0
   15.7403   -1.2836  -15.7155 C   0  0  0  0  0  0  0  0  0  0  0  0
   15.2739   -0.8564  -16.9590 N   0  0  0  0  0  0  0  0  0  0  0  0
   15.1551    0.4761  -16.9601 C   0  0  0  0  0  0  0  0  0  0  0  0
   15.5329    0.9083  -15.7520 N   0  0  0  0  0  0  0  0  0  0  0  0
   15.8854   -0.1688  -15.0074 C   0  0  0  0  0  0  0  0  0  0  0  0
   18.2912   -2.6515  -16.1205 O   0  0  0  0  0  0  0  0  0  0  0  0
   18.7013   -1.6205  -16.9719 O   0  0  0  0  0  0  0  0  0  0  0  0
  1  2  1  0
  2  3  2  0
  4  5  1  0
  4  2  1  0
  6  5  1  0
  7  6  1  0
  8  7  1  0
  8  9  1  1
 10  8  1  0
 10 11  2  0
 12 10  1  0
 13 12  1  0
 13 14  1  1
 14 15  1  0
 15 16  1  0
 16 20  1  0
 16 17  2  0
 18 13  1  0
 19 18  2  0
 21 18  1  0
 22 29  1  0
 22 21  1  0
 22 23  1  1
 24 23  1  0
 25 24  2  0
 26 27  1  0
 26 25  1  0
 27 28  2  0
 28 24  1  0
 29 30  1  0
 31 29  2  0
M  END
$$$$
