REH.pdb
     RDKit          3D

 31 31  0  0  1  0  0  0  0  0999 V2000
   28.9971  -26.7556  -15.8606 N   0  0  0  0  0  0  0  0  0  0  0  0
   28.3689  -26.4269  -17.1075 C   0  0  0  0  0  0  0  0  0  0  0  0
   27.8565  -27.3709  -17.8139 N   0  0  0  0  0  0  0  0  0  0  0  0
   28.2906  -25.1046  -17.5918 N   0  0  0  0  0  0  0  0  0  0  0  0
   28.7238  -23.9890  -16.8140 C   0  0  0  0  0  0  0  0  0  0  0  0
   28.4912  -22.6504  -17.4488 C   0  0  0  0  0  0  0  0  0  0  0  0
   28.8561  -21.4865  -16.5791 C   0  0  0  0  0  0  0  0  0  0  0  0
   27.7739  -20.4336  -16.6774 C   0  0  2  0  0  0  0  0  0  0  0  0
   28.2735  -19.2564  -15.9485 N   0  0  0  0  0  0  0  0  0  0  0  0
   26.5257  -20.8379  -15.9831 C   0  0  0  0  0  0  0  0  0  0  0  0
   25.6921  -21.6573  -16.4632 O   0  0  0  0  0  0  0  0  0  0  0  0
   27.4442  -27.1796  -18.7485 N   0  0  0  0  0  0  0  0  0  0  0  0
   26.2221  -20.2849  -14.6939 C   0  0  1  0  0  0  0  0  0  0  0  0
   25.0212  -20.5496  -13.9809 C   0  0  0  0  0  0  0  0  0  0  0  0
   24.9976  -20.3140  -12.5206 C   0  0  0  0  0  0  0  0  0  0  0  0
   24.1954  -21.1938  -11.6559 C   0  0  0  0  0  0  0  0  0  0  0  0
   24.2683  -21.0206  -10.2201 O   0  0  0  0  0  0  0  0  0  0  0  0
   25.0294  -20.1957   -9.6832 C   0  0  0  0  0  0  0  0  0  0  0  0
   23.9112  -19.8169  -14.6292 O   0  0  0  0  0  0  0  0  0  0  0  0
   24.0081  -18.6119  -14.9725 O   0  0  0  0  0  0  0  0  0  0  0  0
   23.4689  -21.7921   -9.3932 N   0  0  0  0  0  0  0  0  0  0  0  0
   22.6762  -20.4765  -14.8859 C   0  0  2  0  0  0  0  0  0  0  0  0
   21.5321  -19.7434  -15.4507 C   0  0  0  0  0  0  0  0  0  0  0  0
   21.0144  -20.5760  -16.6135 C   0  0  0  0  0  0  0  0  0  0  0  0
   19.8763  -19.8739  -17.2246 C   0  0  0  0  0  0  0  0  0  0  0  0
   19.5942  -18.5192  -17.0468 N   0  0  0  0  0  0  0  0  0  0  0  0
   18.4938  -18.1958  -17.7354 C   0  0  0  0  0  0  0  0  0  0  0  0
   18.0682  -19.3070  -18.3462 N   0  0  0  0  0  0  0  0  0  0  0  0
   18.9153  -20.3169  -18.0279 C   0  0  0  0  0  0  0  0  0  0  0  0
   20.4817  -19.6993  -14.4161 O   0  0  0  0  0  0  0  0  0  0  0  0
   19.6788  -18.5576  -14.3265 O   0  0  0  0  0  0  0  0  0  0  0  0
  1  2  1  0
  2  3  2  0
  4  5  1  0
  4  2  1  0
  6  5  1  0
  7  6  1  0
  8  7  1  0
  8  9  1  1
 10  8  1  0
 10 11  2  0
 12 10  1  0
 13 12  1  0
 13 14  1  6
 14 15  1  0
 15 16  1  0
 16 20  1  0
 16 17  2  0
 18 13  1  0
 19 18  2  0
 21 18  1  0
 22 29  1  0
 22 21  1  0
 22 23  1  6
 24 23  1  0
 25 24  2  0
 26 27  1  0
 26 25  1  0
 27 28  2  0
 28 24  1  0
 29 30  1  0
 31 29  2  0
M  END
$$$$
