REH.pdb
     RDKit          3D

 31 31  0  0  1  0  0  0  0  0999 V2000
   30.6472  -25.7618  -17.6184 N   0  0  0  0  0  0  0  0  0  0  0  0
   29.2957  -25.7591  -17.1381 C   0  0  0  0  0  0  0  0  0  0  0  0
   28.6277  -26.8574  -17.1539 N   0  0  0  0  0  0  0  0  0  0  0  0
   28.6674  -24.5957  -16.6474 N   0  0  0  0  0  0  0  0  0  0  0  0
   29.3660  -23.3575  -16.5194 C   0  0  0  0  0  0  0  0  0  0  0  0
   28.5654  -22.2422  -15.9159 C   0  0  0  0  0  0  0  0  0  0  0  0
   27.2962  -21.9312  -16.6484 C   0  0  0  0  0  0  0  0  0  0  0  0
   26.6079  -20.7629  -15.9769 C   0  0  2  0  0  0  0  0  0  0  0  0
   27.5192  -20.2974  -14.9188 N   0  0  0  0  0  0  0  0  0  0  0  0
   25.3577  -21.1641  -15.2844 C   0  0  0  0  0  0  0  0  0  0  0  0
   24.6103  -22.1038  -15.6786 O   0  0  0  0  0  0  0  0  0  0  0  0
   27.6556  -26.9006  -16.7889 N   0  0  0  0  0  0  0  0  0  0  0  0
   24.9497  -20.4653  -14.0991 C   0  0  1  0  0  0  0  0  0  0  0  0
   23.8518  -20.8578  -13.2860 C   0  0  0  0  0  0  0  0  0  0  0  0
   23.9957  -20.7803  -11.8156 C   0  0  0  0  0  0  0  0  0  0  0  0
   25.2048  -21.3209  -11.1747 C   0  0  0  0  0  0  0  0  0  0  0  0
   25.4202  -21.0739   -9.7642 O   0  0  0  0  0  0  0  0  0  0  0  0
   24.5632  -20.5354   -9.0407 C   0  0  0  0  0  0  0  0  0  0  0  0
   22.6495  -20.1106  -13.7164 O   0  0  0  0  0  0  0  0  0  0  0  0
   22.6728  -18.8781  -13.9607 O   0  0  0  0  0  0  0  0  0  0  0  0
   26.6187  -21.4430   -9.1768 N   0  0  0  0  0  0  0  0  0  0  0  0
   21.4064  -20.7875  -13.8678 C   0  0  1  0  0  0  0  0  0  0  0  0
   20.1934  -20.0574  -14.2691 C   0  0  0  0  0  0  0  0  0  0  0  0
   19.4413  -20.9622  -15.2331 C   0  0  0  0  0  0  0  0  0  0  0  0
   19.9739  -20.7522  -16.5873 C   0  0  0  0  0  0  0  0  0  0  0  0
   20.9462  -19.8078  -16.9178 N   0  0  0  0  0  0  0  0  0  0  0  0
   21.2075  -19.8724  -18.2283 C   0  0  0  0  0  0  0  0  0  0  0  0
   20.4286  -20.8316  -18.7404 N   0  0  0  0  0  0  0  0  0  0  0  0
   19.6857  -21.3566  -17.7349 C   0  0  0  0  0  0  0  0  0  0  0  0
   19.3631  -19.8838  -13.0625 O   0  0  0  0  0  0  0  0  0  0  0  0
   18.3483  -18.9216  -13.0818 O   0  0  0  0  0  0  0  0  0  0  0  0
  1  2  1  0
  2  3  2  0
  4  5  1  0
  4  2  1  0
  6  5  1  0
  7  6  1  0
  8  7  1  0
  8  9  1  1
 10  8  1  0
 10 11  2  0
 12 10  1  0
 13 12  1  0
 13 14  1  6
 14 15  1  0
 15 16  1  0
 16 20  1  0
 16 17  2  0
 18 13  1  0
 19 18  2  0
 21 18  1  0
 22 29  1  0
 22 21  1  0
 22 23  1  6
 24 23  1  0
 25 24  2  0
 26 27  1  0
 26 25  1  0
 27 28  2  0
 28 24  1  0
 29 30  1  0
 31 29  2  0
M  END
$$$$
