MQC.pdb
     RDKit          3D

 24 23  0  0  1  0  0  0  0  0999 V2000
   17.7098  -28.5894   -0.7009 C   0  0  0  0  0  0  0  0  0  0  0  0
   17.8641  -29.4342   -2.3149 S   0  0  0  0  0  0  0  0  0  0  0  0
   17.2520  -28.2685   -3.5689 C   0  0  0  0  0  0  0  0  0  0  0  0
   17.0399  -26.8959   -2.9202 C   0  0  0  0  0  0  0  0  0  0  0  0
   16.5527  -25.9917   -4.0479 C   0  0  2  0  0  0  0  0  0  0  0  0
   17.6117  -25.7621   -5.0132 N   0  0  0  0  0  0  0  0  0  0  0  0
   16.1519  -24.6858   -3.4574 C   0  0  0  0  0  0  0  0  0  0  0  0
   16.9669  -23.7035   -3.4633 O   0  0  0  0  0  0  0  0  0  0  0  0
   10.7422  -22.1752   -3.5756 N   0  0  0  0  0  0  0  0  0  0  0  0
   11.7951  -21.7176   -4.3952 C   0  0  0  0  0  0  0  0  0  0  0  0
   11.6177  -21.0733   -5.4376 O   0  0  0  0  0  0  0  0  0  0  0  0
   13.1987  -22.0348   -3.9705 C   0  0  0  0  0  0  0  0  0  0  0  0
   13.1894  -22.8285   -2.7088 C   0  0  0  0  0  0  0  0  0  0  0  0
   14.5731  -23.1560   -2.2583 C   0  0  2  0  0  0  0  0  0  0  0  0
   14.8903  -24.4548   -2.8733 N   0  0  0  0  0  0  0  0  0  0  0  0
   14.8112  -23.1792   -0.8196 C   0  0  0  0  0  0  0  0  0  0  0  0
   14.7728  -24.2476   -0.1719 O   0  0  0  0  0  0  0  0  0  0  0  0
   15.1017  -22.0015   -0.0553 N   0  0  0  0  0  0  0  0  0  0  0  0
   15.3629  -22.0878    1.3663 C   0  0  1  0  0  0  0  0  0  0  0  0
   16.2138  -20.9408    1.8590 C   0  0  0  0  0  0  0  0  0  0  0  0
   17.5163  -21.4560    2.9782 S   0  0  0  0  0  0  0  0  0  0  0  0
   14.1038  -22.0546    2.1348 C   0  0  0  0  0  0  0  0  0  0  0  0
   14.0015  -22.6112    3.3886 O   0  0  0  0  0  0  0  0  0  0  0  0
   13.1040  -21.5065    1.6339 O   0  0  0  0  0  0  0  0  0  0  0  0
  1  2  1  0
  3  2  1  0
  4  3  1  0
  5  6  1  6
  5  7  1  0
  5  4  1  0
  7  8  2  0
  7 15  1  0
 10  9  1  0
 11 10  2  0
 12 10  1  0
 13 12  1  0
 14 13  1  1
 15 14  1  0
 16 14  1  0
 17 16  2  0
 18 16  1  0
 19 22  1  0
 19 18  1  0
 20 21  1  0
 19 20  1  1
 22 23  1  0
 24 22  2  0
M  END
$$$$
