MQC.pdb
     RDKit          3D

 24 23  0  0  1  0  0  0  0  0999 V2000
   20.6172  -17.5464  -14.9318 C   0  0  0  0  0  0  0  0  0  0  0  0
   19.4164  -18.3907  -16.0217 S   0  0  0  0  0  0  0  0  0  0  0  0
   18.4828  -17.0829  -16.8729 C   0  0  0  0  0  0  0  0  0  0  0  0
   18.3565  -15.8688  -15.9455 C   0  0  0  0  0  0  0  0  0  0  0  0
   17.6530  -14.8016  -16.7779 C   0  0  2  0  0  0  0  0  0  0  0  0
   17.7751  -15.0945  -18.1940 N   0  0  0  0  0  0  0  0  0  0  0  0
   18.3039  -13.4920  -16.5022 C   0  0  0  0  0  0  0  0  0  0  0  0
   18.3992  -13.0642  -15.3034 O   0  0  0  0  0  0  0  0  0  0  0  0
   21.9235  -10.3568  -20.3849 N   0  0  0  0  0  0  0  0  0  0  0  0
   21.8947   -9.4251  -19.3262 C   0  0  0  0  0  0  0  0  0  0  0  0
   22.4917   -8.3407  -19.3552 O   0  0  0  0  0  0  0  0  0  0  0  0
   21.0952   -9.7785  -18.1067 C   0  0  0  0  0  0  0  0  0  0  0  0
   20.3704  -11.0636  -18.3194 C   0  0  0  0  0  0  0  0  0  0  0  0
   19.4699  -11.3798  -17.1731 C   0  0  2  0  0  0  0  0  0  0  0  0
   18.8397  -12.6663  -17.5107 N   0  0  0  0  0  0  0  0  0  0  0  0
   18.4707  -10.3770  -16.8218 C   0  0  0  0  0  0  0  0  0  0  0  0
   17.3806  -10.3054  -17.4293 O   0  0  0  0  0  0  0  0  0  0  0  0
   18.6601   -9.4172  -15.7738 N   0  0  0  0  0  0  0  0  0  0  0  0
   17.6690   -8.3921  -15.5214 C   0  0  1  0  0  0  0  0  0  0  0  0
   17.6164   -7.9985  -14.0638 C   0  0  0  0  0  0  0  0  0  0  0  0
   17.1958   -9.3616  -12.9777 S   0  0  0  0  0  0  0  0  0  0  0  0
   17.9705   -7.1692  -16.2899 C   0  0  0  0  0  0  0  0  0  0  0  0
   17.1230   -6.0858  -16.2958 O   0  0  0  0  0  0  0  0  0  0  0  0
   19.0234   -7.1159  -16.9529 O   0  0  0  0  0  0  0  0  0  0  0  0
  1  2  1  0
  3  2  1  0
  4  3  1  0
  5  6  1  6
  5  7  1  0
  5  4  1  0
  7  8  2  0
  7 15  1  0
 10  9  1  0
 11 10  2  0
 12 10  1  0
 13 12  1  0
 14 13  1  6
 15 14  1  0
 16 14  1  0
 17 16  2  0
 18 16  1  0
 19 22  1  0
 19 18  1  0
 20 21  1  0
 19 20  1  1
 22 23  1  0
 24 22  2  0
M  END
$$$$
