MQC.pdb
     RDKit          3D

 24 23  0  0  1  0  0  0  0  0999 V2000
   29.1718  -13.6347  -15.4284 C   0  0  0  0  0  0  0  0  0  0  0  0
   27.6325  -12.6702  -15.6357 S   0  0  0  0  0  0  0  0  0  0  0  0
   28.0084  -11.3463  -16.8240 C   0  0  0  0  0  0  0  0  0  0  0  0
   26.7959  -10.4156  -16.9419 C   0  0  0  0  0  0  0  0  0  0  0  0
   25.6666  -11.2953  -17.4687 C   0  0  2  0  0  0  0  0  0  0  0  0
   25.9656  -11.7631  -18.8095 N   0  0  0  0  0  0  0  0  0  0  0  0
   24.4228  -10.4794  -17.5127 C   0  0  0  0  0  0  0  0  0  0  0  0
   24.1470   -9.7880  -18.5495 O   0  0  0  0  0  0  0  0  0  0  0  0
   19.0172  -12.1389  -16.2228 N   0  0  0  0  0  0  0  0  0  0  0  0
   18.7025  -10.7734  -16.3851 C   0  0  0  0  0  0  0  0  0  0  0  0
   17.5444  -10.3480  -16.4898 O   0  0  0  0  0  0  0  0  0  0  0  0
   19.8396   -9.7957  -16.4317 C   0  0  0  0  0  0  0  0  0  0  0  0
   21.1430  -10.5173  -16.3852 C   0  0  0  0  0  0  0  0  0  0  0  0
   22.2926   -9.5813  -16.5500 C   0  0  2  0  0  0  0  0  0  0  0  0
   23.4992  -10.4181  -16.4500 N   0  0  0  0  0  0  0  0  0  0  0  0
   22.3576   -8.4474  -15.6349 C   0  0  0  0  0  0  0  0  0  0  0  0
   23.0836   -8.4740  -14.6178 O   0  0  0  0  0  0  0  0  0  0  0  0
   21.6084   -7.2406  -15.8299 N   0  0  0  0  0  0  0  0  0  0  0  0
   21.6720   -6.1657  -14.8617 C   0  0  1  0  0  0  0  0  0  0  0  0
   22.7728   -5.1804  -15.1773 C   0  0  0  0  0  0  0  0  0  0  0  0
   22.7930   -3.7656  -14.0761 S   0  0  0  0  0  0  0  0  0  0  0  0
   20.4065   -5.4075  -14.8345 C   0  0  0  0  0  0  0  0  0  0  0  0
   19.9931   -4.7213  -13.7163 O   0  0  0  0  0  0  0  0  0  0  0  0
   19.6913   -5.3881  -15.8538 O   0  0  0  0  0  0  0  0  0  0  0  0
  1  2  1  0
  3  2  1  0
  4  3  1  0
  5  6  1  6
  5  7  1  0
  5  4  1  0
  7  8  2  0
  7 15  1  0
 10  9  1  0
 11 10  2  0
 12 10  1  0
 13 12  1  0
 14 13  1  1
 15 14  1  0
 16 14  1  0
 17 16  2  0
 18 16  1  0
 19 22  1  0
 19 18  1  0
 20 21  1  0
 19 20  1  6
 22 23  1  0
 24 22  2  0
M  END
$$$$
