MQC.pdb
     RDKit          3D

 24 23  0  0  1  0  0  0  0  0999 V2000
   14.2906  -24.0859   -3.3871 C   0  0  0  0  0  0  0  0  0  0  0  0
   15.7688  -23.8766   -4.4424 S   0  0  0  0  0  0  0  0  0  0  0  0
   15.8771  -25.3651   -5.4810 C   0  0  0  0  0  0  0  0  0  0  0  0
   16.0634  -26.5936   -4.5832 C   0  0  0  0  0  0  0  0  0  0  0  0
   17.5403  -26.5897   -4.2017 C   0  0  2  0  0  0  0  0  0  0  0  0
   18.3732  -26.7507   -5.3793 N   0  0  0  0  0  0  0  0  0  0  0  0
   17.7865  -27.7329   -3.2814 C   0  0  0  0  0  0  0  0  0  0  0  0
   17.3795  -27.6809   -2.0728 O   0  0  0  0  0  0  0  0  0  0  0  0
   15.5608  -32.6628   -3.3664 N   0  0  0  0  0  0  0  0  0  0  0  0
   15.2872  -31.6311   -2.4442 C   0  0  0  0  0  0  0  0  0  0  0  0
   14.2062  -31.5145   -1.8517 O   0  0  0  0  0  0  0  0  0  0  0  0
   16.3712  -30.6290   -2.1759 C   0  0  0  0  0  0  0  0  0  0  0  0
   17.6002  -30.9803   -2.9429 C   0  0  0  0  0  0  0  0  0  0  0  0
   18.6940  -29.9946   -2.7048 C   0  0  2  0  0  0  0  0  0  0  0  0
   18.4614  -28.9077   -3.6694 N   0  0  0  0  0  0  0  0  0  0  0  0
   20.0621  -30.4930   -2.7886 C   0  0  0  0  0  0  0  0  0  0  0  0
   20.7193  -30.4119   -3.8487 O   0  0  0  0  0  0  0  0  0  0  0  0
   20.7425  -31.1011   -1.6828 N   0  0  0  0  0  0  0  0  0  0  0  0
   22.1596  -31.3905   -1.7546 C   0  0  1  0  0  0  0  0  0  0  0  0
   22.9780  -30.1555   -2.0498 C   0  0  0  0  0  0  0  0  0  0  0  0
   24.6868  -30.5190   -2.4531 S   0  0  0  0  0  0  0  0  0  0  0  0
   22.6492  -31.9394   -0.4756 C   0  0  0  0  0  0  0  0  0  0  0  0
   23.5428  -32.9840   -0.4263 O   0  0  0  0  0  0  0  0  0  0  0  0
   22.2415  -31.4425    0.5911 O   0  0  0  0  0  0  0  0  0  0  0  0
  1  2  1  0
  3  2  1  0
  4  3  1  0
  5  6  1  6
  5  7  1  0
  5  4  1  0
  7  8  2  0
  7 15  1  0
 10  9  1  0
 11 10  2  0
 12 10  1  0
 13 12  1  0
 14 13  1  6
 15 14  1  0
 16 14  1  0
 17 16  2  0
 18 16  1  0
 19 22  1  0
 19 18  1  0
 20 21  1  0
 19 20  1  1
 22 23  1  0
 24 22  2  0
M  END
$$$$
