MQC.pdb
     RDKit          3D

 24 23  0  0  1  0  0  0  0  0999 V2000
   28.6406  -11.0942  -17.2969 C   0  0  0  0  0  0  0  0  0  0  0  0
   28.1439  -12.0660  -15.8300 S   0  0  0  0  0  0  0  0  0  0  0  0
   26.4302  -12.6001  -16.1202 C   0  0  0  0  0  0  0  0  0  0  0  0
   25.5688  -11.3748  -16.4464 C   0  0  0  0  0  0  0  0  0  0  0  0
   24.1595  -11.9205  -16.6533 C   0  0  2  0  0  0  0  0  0  0  0  0
   24.0978  -12.7365  -17.8519 N   0  0  0  0  0  0  0  0  0  0  0  0
   23.2322  -10.7674  -16.8111 C   0  0  0  0  0  0  0  0  0  0  0  0
   23.2101  -10.1085  -17.9040 O   0  0  0  0  0  0  0  0  0  0  0  0
   18.3669  -12.8914  -16.9411 N   0  0  0  0  0  0  0  0  0  0  0  0
   18.6529  -11.7291  -16.1947 C   0  0  0  0  0  0  0  0  0  0  0  0
   18.1475  -11.4856  -15.0909 O   0  0  0  0  0  0  0  0  0  0  0  0
   19.6218  -10.7444  -16.7802 C   0  0  0  0  0  0  0  0  0  0  0  0
   20.0595   -9.7703  -15.7402 C   0  0  0  0  0  0  0  0  0  0  0  0
   21.4164   -9.2265  -16.0367 C   0  0  2  0  0  0  0  0  0  0  0  0
   22.3477  -10.3412  -15.8000 N   0  0  0  0  0  0  0  0  0  0  0  0
   21.8236   -8.0321  -15.3054 C   0  0  0  0  0  0  0  0  0  0  0  0
   22.4027   -8.1126  -14.2006 O   0  0  0  0  0  0  0  0  0  0  0  0
   21.5949   -6.7021  -15.7895 N   0  0  0  0  0  0  0  0  0  0  0  0
   21.9924   -5.5510  -15.0060 C   0  0  1  0  0  0  0  0  0  0  0  0
   22.9859   -4.6800  -15.7387 C   0  0  0  0  0  0  0  0  0  0  0  0
   23.3714   -3.1606  -14.8682 S   0  0  0  0  0  0  0  0  0  0  0  0
   20.8267   -4.7046  -14.6870 C   0  0  0  0  0  0  0  0  0  0  0  0
   20.7527   -3.9768  -13.5221 O   0  0  0  0  0  0  0  0  0  0  0  0
   19.8817   -4.6473  -15.4960 O   0  0  0  0  0  0  0  0  0  0  0  0
  1  2  1  0
  3  2  1  0
  4  3  1  0
  5  6  1  6
  5  7  1  0
  5  4  1  0
  7  8  2  0
  7 15  1  0
 10  9  1  0
 11 10  2  0
 12 10  1  0
 13 12  1  0
 14 13  1  1
 15 14  1  0
 16 14  1  0
 17 16  2  0
 18 16  1  0
 19 22  1  0
 19 18  1  0
 20 21  1  0
 19 20  1  6
 22 23  1  0
 24 22  2  0
M  END
$$$$
