MQC.pdb
     RDKit          3D

 24 23  0  0  1  0  0  0  0  0999 V2000
   20.0913  -15.7086  -16.3782 C   0  0  0  0  0  0  0  0  0  0  0  0
   20.8479  -17.0423  -17.3740 S   0  0  0  0  0  0  0  0  0  0  0  0
   21.5347  -16.2512  -18.8602 C   0  0  0  0  0  0  0  0  0  0  0  0
   22.1990  -14.9274  -18.4652 C   0  0  0  0  0  0  0  0  0  0  0  0
   22.6986  -14.3246  -19.7742 C   0  0  2  0  0  0  0  0  0  0  0  0
   23.8314  -15.0753  -20.2835 N   0  0  0  0  0  0  0  0  0  0  0  0
   23.1321  -12.9262  -19.5074 C   0  0  0  0  0  0  0  0  0  0  0  0
   24.2851  -12.6972  -19.0103 O   0  0  0  0  0  0  0  0  0  0  0  0
   20.8221   -7.8674  -22.0874 N   0  0  0  0  0  0  0  0  0  0  0  0
   21.7125   -7.2442  -21.1881 C   0  0  0  0  0  0  0  0  0  0  0  0
   21.9412   -6.0274  -21.1876 O   0  0  0  0  0  0  0  0  0  0  0  0
   22.4126   -8.1126  -20.1846 C   0  0  0  0  0  0  0  0  0  0  0  0
   22.0406   -9.5414  -20.3898 C   0  0  0  0  0  0  0  0  0  0  0  0
   22.8117  -10.4427  -19.4853 C   0  0  2  0  0  0  0  0  0  0  0  0
   22.3268  -11.8013  -19.7765 N   0  0  0  0  0  0  0  0  0  0  0  0
   22.7514  -10.1539  -18.0569 C   0  0  0  0  0  0  0  0  0  0  0  0
   21.7692  -10.4990  -17.3651 O   0  0  0  0  0  0  0  0  0  0  0  0
   23.7940   -9.4663  -17.3529 N   0  0  0  0  0  0  0  0  0  0  0  0
   23.6715   -9.1872  -15.9373 C   0  0  1  0  0  0  0  0  0  0  0  0
   25.0179   -9.0474  -15.2665 C   0  0  0  0  0  0  0  0  0  0  0  0
   25.9274  -10.5900  -15.1773 S   0  0  0  0  0  0  0  0  0  0  0  0
   22.9419   -7.9247  -15.7119 C   0  0  0  0  0  0  0  0  0  0  0  0
   22.4119   -7.5994  -14.4850 O   0  0  0  0  0  0  0  0  0  0  0  0
   22.8016   -7.1299  -16.6603 O   0  0  0  0  0  0  0  0  0  0  0  0
  1  2  1  0
  3  2  1  0
  4  3  1  0
  5  6  1  1
  5  7  1  0
  5  4  1  0
  7  8  2  0
  7 15  1  0
 10  9  1  0
 11 10  2  0
 12 10  1  0
 13 12  1  0
 14 13  1  6
 15 14  1  0
 16 14  1  0
 17 16  2  0
 18 16  1  0
 19 22  1  0
 19 18  1  0
 20 21  1  0
 19 20  1  6
 22 23  1  0
 24 22  2  0
M  END
$$$$
