MQC.pdb
     RDKit          3D

 24 23  0  0  1  0  0  0  0  0999 V2000
   19.8833  -17.1087  -16.6953 C   0  0  0  0  0  0  0  0  0  0  0  0
   18.0638  -16.9917  -16.5606 S   0  0  0  0  0  0  0  0  0  0  0  0
   17.6104  -15.3225  -17.1213 C   0  0  0  0  0  0  0  0  0  0  0  0
   18.4591  -14.2906  -16.3699 C   0  0  0  0  0  0  0  0  0  0  0  0
   18.0297  -12.9374  -16.9277 C   0  0  2  0  0  0  0  0  0  0  0  0
   18.1175  -12.9301  -18.3763 N   0  0  0  0  0  0  0  0  0  0  0  0
   18.9478  -11.8984  -16.3872 C   0  0  0  0  0  0  0  0  0  0  0  0
   19.1801  -11.8388  -15.1336 O   0  0  0  0  0  0  0  0  0  0  0  0
   23.2537   -9.0525  -19.6741 N   0  0  0  0  0  0  0  0  0  0  0  0
   23.4902   -8.4058  -18.4430 C   0  0  0  0  0  0  0  0  0  0  0  0
   24.4127   -7.6000  -18.2618 O   0  0  0  0  0  0  0  0  0  0  0  0
   22.5686   -8.7195  -17.3013 C   0  0  0  0  0  0  0  0  0  0  0  0
   21.5070   -9.6690  -17.7408 C   0  0  0  0  0  0  0  0  0  0  0  0
   20.5901  -10.0221  -16.6185 C   0  0  2  0  0  0  0  0  0  0  0  0
   19.5991  -10.9449  -17.1951 N   0  0  0  0  0  0  0  0  0  0  0  0
   19.9417   -8.9165  -15.9225 C   0  0  0  0  0  0  0  0  0  0  0  0
   18.9647   -8.3179  -16.4221 O   0  0  0  0  0  0  0  0  0  0  0  0
   20.3679   -8.4428  -14.6382 N   0  0  0  0  0  0  0  0  0  0  0  0
   19.7630   -7.2686  -14.0446 C   0  0  1  0  0  0  0  0  0  0  0  0
   19.8077   -7.3072  -12.5351 C   0  0  0  0  0  0  0  0  0  0  0  0
   18.8999   -8.6861  -11.8356 S   0  0  0  0  0  0  0  0  0  0  0  0
   20.4682   -6.0436  -14.4678 C   0  0  0  0  0  0  0  0  0  0  0  0
   20.0065   -4.7891  -14.1432 O   0  0  0  0  0  0  0  0  0  0  0  0
   21.5121   -6.1480  -15.1387 O   0  0  0  0  0  0  0  0  0  0  0  0
  1  2  1  0
  3  2  1  0
  4  3  1  0
  5  6  1  6
  5  7  1  0
  5  4  1  0
  7  8  2  0
  7 15  1  0
 10  9  1  0
 11 10  2  0
 12 10  1  0
 13 12  1  0
 14 13  1  6
 15 14  1  0
 16 14  1  0
 17 16  2  0
 18 16  1  0
 19 22  1  0
 19 18  1  0
 20 21  1  0
 19 20  1  1
 22 23  1  0
 24 22  2  0
M  END
$$$$
