MQC.pdb
     RDKit          3D

 24 23  0  0  1  0  0  0  0  0999 V2000
   29.3060  -12.3576  -16.9561 C   0  0  0  0  0  0  0  0  0  0  0  0
   28.8180  -13.2375  -15.4296 S   0  0  0  0  0  0  0  0  0  0  0  0
   27.0390  -13.5826  -15.5783 C   0  0  0  0  0  0  0  0  0  0  0  0
   26.3258  -12.3331  -16.1076 C   0  0  0  0  0  0  0  0  0  0  0  0
   24.8739  -12.7560  -16.3073 C   0  0  2  0  0  0  0  0  0  0  0  0
   24.7852  -13.8452  -17.2622 N   0  0  0  0  0  0  0  0  0  0  0  0
   24.1184  -11.5897  -16.8399 C   0  0  0  0  0  0  0  0  0  0  0  0
   23.8985  -11.4876  -18.0930 O   0  0  0  0  0  0  0  0  0  0  0  0
   19.2488  -10.8107  -18.1581 N   0  0  0  0  0  0  0  0  0  0  0  0
   19.4791  -11.1099  -16.7989 C   0  0  0  0  0  0  0  0  0  0  0  0
   18.6247  -11.6122  -16.0567 O   0  0  0  0  0  0  0  0  0  0  0  0
   20.8344  -10.7986  -16.2355 C   0  0  0  0  0  0  0  0  0  0  0  0
   21.6520  -10.0571  -17.2373 C   0  0  0  0  0  0  0  0  0  0  0  0
   22.8563   -9.4390  -16.6109 C   0  0  2  0  0  0  0  0  0  0  0  0
   23.6129  -10.5570  -16.0249 N   0  0  0  0  0  0  0  0  0  0  0  0
   22.6232   -8.3856  -15.6294 C   0  0  0  0  0  0  0  0  0  0  0  0
   22.4883   -8.6476  -14.4147 O   0  0  0  0  0  0  0  0  0  0  0  0
   22.5333   -6.9977  -15.9775 N   0  0  0  0  0  0  0  0  0  0  0  0
   22.3071   -5.9928  -14.9597 C   0  0  1  0  0  0  0  0  0  0  0  0
   22.9082   -4.6584  -15.3345 C   0  0  0  0  0  0  0  0  0  0  0  0
   22.6741   -3.3996  -14.0793 S   0  0  0  0  0  0  0  0  0  0  0  0
   20.8632   -5.7739  -14.7493 C   0  0  0  0  0  0  0  0  0  0  0  0
   20.3257   -5.6221  -13.4922 O   0  0  0  0  0  0  0  0  0  0  0  0
   20.1086   -5.7251  -15.7387 O   0  0  0  0  0  0  0  0  0  0  0  0
  1  2  1  0
  3  2  1  0
  4  3  1  0
  5  6  1  6
  5  7  1  0
  5  4  1  0
  7  8  2  0
  7 15  1  0
 10  9  1  0
 11 10  2  0
 12 10  1  0
 13 12  1  0
 14 13  1  1
 15 14  1  0
 16 14  1  0
 17 16  2  0
 18 16  1  0
 19 22  1  0
 19 18  1  0
 20 21  1  0
 19 20  1  6
 22 23  1  0
 24 22  2  0
M  END
$$$$
