MQC.pdb
     RDKit          3D

 24 23  0  0  1  0  0  0  0  0999 V2000
   29.3409  -24.3803  -17.9856 C   0  0  0  0  0  0  0  0  0  0  0  0
   29.8102  -23.9610  -16.2691 S   0  0  0  0  0  0  0  0  0  0  0  0
   28.9255  -22.4284  -15.8513 C   0  0  0  0  0  0  0  0  0  0  0  0
   28.0361  -22.0220  -17.0319 C   0  0  0  0  0  0  0  0  0  0  0  0
   27.2176  -20.8381  -16.5268 C   0  0  2  0  0  0  0  0  0  0  0  0
   28.0385  -19.9571  -15.7168 N   0  0  0  0  0  0  0  0  0  0  0  0
   26.1074  -21.3642  -15.6869 C   0  0  0  0  0  0  0  0  0  0  0  0
   25.1758  -22.0567  -16.2177 O   0  0  0  0  0  0  0  0  0  0  0  0
   25.7092  -21.7910   -9.4751 N   0  0  0  0  0  0  0  0  0  0  0  0
   25.5962  -20.4900  -10.0083 C   0  0  0  0  0  0  0  0  0  0  0  0
   25.6561  -19.4628   -9.3195 O   0  0  0  0  0  0  0  0  0  0  0  0
   25.3930  -20.3576  -11.4890 C   0  0  0  0  0  0  0  0  0  0  0  0
   25.3052  -21.7050  -12.1204 C   0  0  0  0  0  0  0  0  0  0  0  0
   24.8478  -21.6163  -13.5373 C   0  0  2  0  0  0  0  0  0  0  0  0
   26.0141  -21.1408  -14.2986 N   0  0  0  0  0  0  0  0  0  0  0  0
   23.6722  -20.7945  -13.8018 C   0  0  0  0  0  0  0  0  0  0  0  0
   23.7438  -19.5468  -13.8259 O   0  0  0  0  0  0  0  0  0  0  0  0
   22.3719  -21.3453  -14.0491 N   0  0  0  0  0  0  0  0  0  0  0  0
   21.2494  -20.4835  -14.3560 C   0  0  1  0  0  0  0  0  0  0  0  0
   20.7704  -20.6582  -15.7781 C   0  0  0  0  0  0  0  0  0  0  0  0
   22.0727  -20.4537  -16.9933 S   0  0  0  0  0  0  0  0  0  0  0  0
   20.1041  -20.7782  -13.4737 C   0  0  0  0  0  0  0  0  0  0  0  0
   18.9776  -19.9890  -13.4552 O   0  0  0  0  0  0  0  0  0  0  0  0
   20.1586  -21.7706  -12.7234 O   0  0  0  0  0  0  0  0  0  0  0  0
  1  2  1  0
  3  2  1  0
  4  3  1  0
  5  6  1  1
  5  7  1  0
  5  4  1  0
  7  8  2  0
  7 15  1  0
 10  9  1  0
 11 10  2  0
 12 10  1  0
 13 12  1  0
 14 13  1  1
 15 14  1  0
 16 14  1  0
 17 16  2  0
 18 16  1  0
 19 22  1  0
 19 18  1  0
 20 21  1  0
 19 20  1  6
 22 23  1  0
 24 22  2  0
M  END
$$$$
