MQC.pdb
     RDKit          3D

 24 23  0  0  1  0  0  0  0  0999 V2000
   28.0662  -18.7197   -6.5778 C   0  0  0  0  0  0  0  0  0  0  0  0
   27.2008  -20.3268   -6.4718 S   0  0  0  0  0  0  0  0  0  0  0  0
   27.2833  -21.0683   -8.1300 C   0  0  0  0  0  0  0  0  0  0  0  0
   26.5538  -20.1591   -9.1256 C   0  0  0  0  0  0  0  0  0  0  0  0
   25.9196  -21.1050  -10.1403 C   0  0  2  0  0  0  0  0  0  0  0  0
   26.9371  -21.8958  -10.8078 N   0  0  0  0  0  0  0  0  0  0  0  0
   25.2059  -20.2861  -11.1575 C   0  0  0  0  0  0  0  0  0  0  0  0
   25.5350  -19.0671  -11.3436 O   0  0  0  0  0  0  0  0  0  0  0  0
   27.6682  -20.0777  -14.8991 N   0  0  0  0  0  0  0  0  0  0  0  0
   27.0887  -21.3595  -14.7928 C   0  0  0  0  0  0  0  0  0  0  0  0
   27.6989  -22.4070  -15.0446 O   0  0  0  0  0  0  0  0  0  0  0  0
   25.6575  -21.4440  -14.3504 C   0  0  0  0  0  0  0  0  0  0  0  0
   25.1514  -20.0921  -13.9788 C   0  0  0  0  0  0  0  0  0  0  0  0
   23.8479  -20.1750  -13.2585 C   0  0  2  0  0  0  0  0  0  0  0  0
   24.1564  -20.7846  -11.9550 N   0  0  0  0  0  0  0  0  0  0  0  0
   22.7653  -20.8838  -13.9315 C   0  0  0  0  0  0  0  0  0  0  0  0
   22.4605  -20.6299  -15.1168 O   0  0  0  0  0  0  0  0  0  0  0  0
   21.9848  -21.9051  -13.2963 N   0  0  0  0  0  0  0  0  0  0  0  0
   20.6925  -22.2862  -13.8269 C   0  0  1  0  0  0  0  0  0  0  0  0
   20.2913  -23.6791  -13.4013 C   0  0  0  0  0  0  0  0  0  0  0  0
   18.5417  -24.0076  -13.6149 S   0  0  0  0  0  0  0  0  0  0  0  0
   19.6388  -21.3681  -13.3538 C   0  0  0  0  0  0  0  0  0  0  0  0
   18.5722  -21.0140  -14.1469 O   0  0  0  0  0  0  0  0  0  0  0  0
   19.7171  -20.8999  -12.2025 O   0  0  0  0  0  0  0  0  0  0  0  0
  1  2  1  0
  3  2  1  0
  4  3  1  0
  5  6  1  6
  5  7  1  0
  5  4  1  0
  7  8  2  0
  7 15  1  0
 10  9  1  0
 11 10  2  0
 12 10  1  0
 13 12  1  0
 14 13  1  6
 15 14  1  0
 16 14  1  0
 17 16  2  0
 18 16  1  0
 19 22  1  0
 19 18  1  0
 20 21  1  0
 19 20  1  1
 22 23  1  0
 24 22  2  0
M  END
$$$$
