MQC.pdb
     RDKit          3D

 24 23  0  0  1  0  0  0  0  0999 V2000
   28.4313  -12.6371  -14.9775 C   0  0  0  0  0  0  0  0  0  0  0  0
   27.7209  -13.2134  -16.5604 S   0  0  0  0  0  0  0  0  0  0  0  0
   26.0072  -13.7085  -16.2078 C   0  0  0  0  0  0  0  0  0  0  0  0
   25.0510  -12.6506  -16.7705 C   0  0  0  0  0  0  0  0  0  0  0  0
   24.5902  -11.8444  -15.5604 C   0  0  2  0  0  0  0  0  0  0  0  0
   23.9056  -12.6983  -14.6074 N   0  0  0  0  0  0  0  0  0  0  0  0
   23.6431  -10.7976  -16.0316 C   0  0  0  0  0  0  0  0  0  0  0  0
   23.9954   -9.9807  -16.9468 O   0  0  0  0  0  0  0  0  0  0  0  0
   17.5475  -10.9323  -15.6135 N   0  0  0  0  0  0  0  0  0  0  0  0
   17.6770   -9.5896  -16.0259 C   0  0  0  0  0  0  0  0  0  0  0  0
   16.7107   -8.8522  -16.2622 O   0  0  0  0  0  0  0  0  0  0  0  0
   19.0635   -9.0381  -16.1828 C   0  0  0  0  0  0  0  0  0  0  0  0
   20.0748  -10.0868  -15.8673 C   0  0  0  0  0  0  0  0  0  0  0  0
   21.4651   -9.5623  -15.9963 C   0  0  2  0  0  0  0  0  0  0  0  0
   22.3402  -10.6442  -15.5170 N   0  0  0  0  0  0  0  0  0  0  0  0
   21.7616   -8.3036  -15.3218 C   0  0  0  0  0  0  0  0  0  0  0  0
   21.9465   -8.2563  -14.0864 O   0  0  0  0  0  0  0  0  0  0  0  0
   21.8613   -7.0506  -16.0115 N   0  0  0  0  0  0  0  0  0  0  0  0
   22.2408   -5.8451  -15.3047 C   0  0  1  0  0  0  0  0  0  0  0  0
   23.4056   -5.1429  -15.9624 C   0  0  0  0  0  0  0  0  0  0  0  0
   23.8516   -3.6052  -15.1556 S   0  0  0  0  0  0  0  0  0  0  0  0
   21.1216   -4.8845  -15.2659 C   0  0  0  0  0  0  0  0  0  0  0  0
   20.9798   -3.9730  -14.2455 O   0  0  0  0  0  0  0  0  0  0  0  0
   20.2802   -4.8991  -16.1838 O   0  0  0  0  0  0  0  0  0  0  0  0
  1  2  1  0
  3  2  1  0
  4  3  1  0
  5  6  1  1
  5  7  1  0
  5  4  1  0
  7  8  2  0
  7 15  1  0
 10  9  1  0
 11 10  2  0
 12 10  1  0
 13 12  1  0
 14 13  1  1
 15 14  1  0
 16 14  1  0
 17 16  2  0
 18 16  1  0
 19 22  1  0
 19 18  1  0
 20 21  1  0
 19 20  1  6
 22 23  1  0
 24 22  2  0
M  END
$$$$
