MQC.pdb
     RDKit          3D

 24 23  0  0  1  0  0  0  0  0999 V2000
   10.4788   -8.7756  -10.1709 C   0  0  0  0  0  0  0  0  0  0  0  0
   11.5957   -9.7345   -9.0866 S   0  0  0  0  0  0  0  0  0  0  0  0
   12.3715   -8.5392   -7.9573 C   0  0  0  0  0  0  0  0  0  0  0  0
   13.0689   -7.4490   -8.7789 C   0  0  0  0  0  0  0  0  0  0  0  0
   14.3759   -8.0784   -9.2505 C   0  0  2  0  0  0  0  0  0  0  0  0
   15.0952   -8.6615   -8.1330 N   0  0  0  0  0  0  0  0  0  0  0  0
   15.2161   -7.0091   -9.8549 C   0  0  0  0  0  0  0  0  0  0  0  0
   14.8605   -6.4575  -10.9496 O   0  0  0  0  0  0  0  0  0  0  0  0
   17.0197   -2.1998   -7.4245 N   0  0  0  0  0  0  0  0  0  0  0  0
   15.9259   -2.3558   -8.3016 C   0  0  0  0  0  0  0  0  0  0  0  0
   14.9652   -1.5756   -8.3395 O   0  0  0  0  0  0  0  0  0  0  0  0
   15.9396   -3.5327   -9.2321 C   0  0  0  0  0  0  0  0  0  0  0  0
   17.1822   -4.3321   -9.0350 C   0  0  0  0  0  0  0  0  0  0  0  0
   17.2226   -5.5135   -9.9447 C   0  0  2  0  0  0  0  0  0  0  0  0
   16.4179   -6.5505   -9.2791 N   0  0  0  0  0  0  0  0  0  0  0  0
   18.5402   -6.0201  -10.3114 C   0  0  0  0  0  0  0  0  0  0  0  0
   19.2731   -6.5903   -9.4746 O   0  0  0  0  0  0  0  0  0  0  0  0
   19.0829   -5.9045  -11.6334 N   0  0  0  0  0  0  0  0  0  0  0  0
   20.3982   -6.4259  -11.9414 C   0  0  1  0  0  0  0  0  0  0  0  0
   20.3334   -7.7997  -12.5665 C   0  0  0  0  0  0  0  0  0  0  0  0
   21.9270   -8.3953  -13.1323 S   0  0  0  0  0  0  0  0  0  0  0  0
   21.1010   -5.5480  -12.8965 C   0  0  0  0  0  0  0  0  0  0  0  0
   22.4631   -5.3623  -12.8480 O   0  0  0  0  0  0  0  0  0  0  0  0
   20.4418   -4.9574  -13.7726 O   0  0  0  0  0  0  0  0  0  0  0  0
  1  2  1  0
  3  2  1  0
  4  3  1  0
  5  6  1  1
  5  7  1  0
  5  4  1  0
  7  8  2  0
  7 15  1  0
 10  9  1  0
 11 10  2  0
 12 10  1  0
 13 12  1  0
 14 13  1  1
 15 14  1  0
 16 14  1  0
 17 16  2  0
 18 16  1  0
 19 22  1  0
 19 18  1  0
 20 21  1  0
 19 20  1  6
 22 23  1  0
 24 22  2  0
M  END
$$$$
