MQC.pdb
     RDKit          3D

 24 23  0  0  1  0  0  0  0  0999 V2000
   20.8688  -17.2622  -19.4398 C   0  0  0  0  0  0  0  0  0  0  0  0
   19.0832  -17.0018  -19.1460 S   0  0  0  0  0  0  0  0  0  0  0  0
   18.9519  -15.8962  -17.7084 C   0  0  0  0  0  0  0  0  0  0  0  0
   20.1542  -14.9454  -17.6924 C   0  0  0  0  0  0  0  0  0  0  0  0
   20.0132  -14.1444  -16.4020 C   0  0  2  0  0  0  0  0  0  0  0  0
   18.8237  -14.5496  -15.6758 N   0  0  0  0  0  0  0  0  0  0  0  0
   19.8889  -12.7050  -16.7587 C   0  0  0  0  0  0  0  0  0  0  0  0
   20.8190  -12.1249  -17.4126 O   0  0  0  0  0  0  0  0  0  0  0  0
   14.7624   -9.5173  -17.8271 N   0  0  0  0  0  0  0  0  0  0  0  0
   15.4500  -10.2624  -18.8079 C   0  0  0  0  0  0  0  0  0  0  0  0
   14.9667  -10.5473  -19.9116 O   0  0  0  0  0  0  0  0  0  0  0  0
   16.8391  -10.7282  -18.4841 C   0  0  0  0  0  0  0  0  0  0  0  0
   17.2286  -10.2792  -17.1171 C   0  0  0  0  0  0  0  0  0  0  0  0
   18.6781  -10.5151  -16.8562 C   0  0  2  0  0  0  0  0  0  0  0  0
   18.7753  -11.9145  -16.4108 N   0  0  0  0  0  0  0  0  0  0  0  0
   19.3354   -9.6137  -15.9166 C   0  0  0  0  0  0  0  0  0  0  0  0
   18.8383   -9.3674  -14.7965 O   0  0  0  0  0  0  0  0  0  0  0  0
   20.5768   -8.9556  -16.2018 N   0  0  0  0  0  0  0  0  0  0  0  0
   21.1849   -8.0702  -15.2307 C   0  0  1  0  0  0  0  0  0  0  0  0
   22.6778   -8.2779  -15.1279 C   0  0  0  0  0  0  0  0  0  0  0  0
   23.1245   -9.8781  -14.4538 S   0  0  0  0  0  0  0  0  0  0  0  0
   20.9683   -6.6580  -15.5993 C   0  0  0  0  0  0  0  0  0  0  0  0
   21.2579   -5.6276  -14.7353 O   0  0  0  0  0  0  0  0  0  0  0  0
   20.5096   -6.3907  -16.7258 O   0  0  0  0  0  0  0  0  0  0  0  0
  1  2  1  0
  3  2  1  0
  4  3  1  0
  5  6  1  6
  5  7  1  0
  5  4  1  0
  7  8  2  0
  7 15  1  0
 10  9  1  0
 11 10  2  0
 12 10  1  0
 13 12  1  0
 14 13  1  1
 15 14  1  0
 16 14  1  0
 17 16  2  0
 18 16  1  0
 19 22  1  0
 19 18  1  0
 20 21  1  0
 19 20  1  6
 22 23  1  0
 24 22  2  0
M  END
$$$$
