MQC.pdb
     RDKit          3D

 24 23  0  0  1  0  0  0  0  0999 V2000
   29.6051  -14.6779  -16.1580 C   0  0  0  0  0  0  0  0  0  0  0  0
   27.8811  -14.0713  -16.1073 S   0  0  0  0  0  0  0  0  0  0  0  0
   27.6747  -12.9805  -17.5473 C   0  0  0  0  0  0  0  0  0  0  0  0
   26.2693  -12.3689  -17.5189 C   0  0  0  0  0  0  0  0  0  0  0  0
   26.4687  -10.9304  -17.0521 C   0  0  2  0  0  0  0  0  0  0  0  0
   26.8989  -10.8973  -15.6665 N   0  0  0  0  0  0  0  0  0  0  0  0
   25.1665  -10.2192  -17.1662 C   0  0  0  0  0  0  0  0  0  0  0  0
   24.6052  -10.0898  -18.3051 O   0  0  0  0  0  0  0  0  0  0  0  0
   19.8387  -10.5894  -16.8967 N   0  0  0  0  0  0  0  0  0  0  0  0
   19.7334   -9.5742  -15.9229 C   0  0  0  0  0  0  0  0  0  0  0  0
   18.6673   -9.0157  -15.6321 O   0  0  0  0  0  0  0  0  0  0  0  0
   20.9863   -9.1587  -15.2095 C   0  0  0  0  0  0  0  0  0  0  0  0
   22.1615   -9.8907  -15.7615 C   0  0  0  0  0  0  0  0  0  0  0  0
   23.2140   -8.9506  -16.2445 C   0  0  2  0  0  0  0  0  0  0  0  0
   24.4900   -9.6611  -16.0630 N   0  0  0  0  0  0  0  0  0  0  0  0
   23.2519   -7.6288  -15.6290 C   0  0  0  0  0  0  0  0  0  0  0  0
   23.7656   -7.4507  -14.5035 O   0  0  0  0  0  0  0  0  0  0  0  0
   22.7135   -6.4576  -16.2567 N   0  0  0  0  0  0  0  0  0  0  0  0
   22.7450   -5.1763  -15.5828 C   0  0  1  0  0  0  0  0  0  0  0  0
   22.2760   -4.0521  -16.4764 C   0  0  0  0  0  0  0  0  0  0  0  0
   22.2393   -2.4608  -15.6510 S   0  0  0  0  0  0  0  0  0  0  0  0
   21.8655   -5.1840  -14.3982 C   0  0  0  0  0  0  0  0  0  0  0  0
   22.2370   -4.5946  -13.2121 O   0  0  0  0  0  0  0  0  0  0  0  0
   20.7541   -5.7405  -14.4739 O   0  0  0  0  0  0  0  0  0  0  0  0
  1  2  1  0
  3  2  1  0
  4  3  1  0
  5  6  1  1
  5  7  1  0
  5  4  1  0
  7  8  2  0
  7 15  1  0
 10  9  1  0
 11 10  2  0
 12 10  1  0
 13 12  1  0
 14 13  1  1
 15 14  1  0
 16 14  1  0
 17 16  2  0
 18 16  1  0
 19 22  1  0
 19 18  1  0
 20 21  1  0
 19 20  1  6
 22 23  1  0
 24 22  2  0
M  END
$$$$
