MQC.pdb
     RDKit          3D

 24 23  0  0  1  0  0  0  0  0999 V2000
   26.9642  -19.6256   -4.0596 C   0  0  0  0  0  0  0  0  0  0  0  0
   28.6210  -19.3940   -4.7969 S   0  0  0  0  0  0  0  0  0  0  0  0
   28.6805  -20.4497   -6.2761 C   0  0  0  0  0  0  0  0  0  0  0  0
   27.5169  -20.0829   -7.2042 C   0  0  0  0  0  0  0  0  0  0  0  0
   27.6449  -21.0249   -8.3971 C   0  0  2  0  0  0  0  0  0  0  0  0
   28.9996  -21.0101   -8.9174 N   0  0  0  0  0  0  0  0  0  0  0  0
   26.7178  -20.5555   -9.4625 C   0  0  0  0  0  0  0  0  0  0  0  0
   26.9621  -19.4726  -10.0922 O   0  0  0  0  0  0  0  0  0  0  0  0
   27.2782  -21.4120  -13.6943 N   0  0  0  0  0  0  0  0  0  0  0  0
   26.0242  -21.7101  -14.2676 C   0  0  0  0  0  0  0  0  0  0  0  0
   25.7705  -21.5588  -15.4700 O   0  0  0  0  0  0  0  0  0  0  0  0
   24.9503  -22.2375  -13.3621 C   0  0  0  0  0  0  0  0  0  0  0  0
   25.4373  -22.2798  -11.9539 C   0  0  0  0  0  0  0  0  0  0  0  0
   24.9756  -21.0915  -11.1796 C   0  0  2  0  0  0  0  0  0  0  0  0
   25.5498  -21.2511   -9.8339 N   0  0  0  0  0  0  0  0  0  0  0  0
   23.5366  -20.8620  -11.1173 C   0  0  0  0  0  0  0  0  0  0  0  0
   22.8446  -21.3249  -10.1849 O   0  0  0  0  0  0  0  0  0  0  0  0
   22.8219  -20.1030  -12.1015 N   0  0  0  0  0  0  0  0  0  0  0  0
   21.3945  -19.8918  -11.9798 C   0  0  1  0  0  0  0  0  0  0  0  0
   21.0069  -18.4567  -12.2492 C   0  0  0  0  0  0  0  0  0  0  0  0
   19.2653  -18.1309  -11.9744 S   0  0  0  0  0  0  0  0  0  0  0  0
   20.6555  -20.7286  -12.9445 C   0  0  0  0  0  0  0  0  0  0  0  0
   19.4459  -21.3041  -12.6319 O   0  0  0  0  0  0  0  0  0  0  0  0
   21.1410  -20.9198  -14.0753 O   0  0  0  0  0  0  0  0  0  0  0  0
  1  2  1  0
  3  2  1  0
  4  3  1  0
  5  6  1  6
  5  7  1  0
  5  4  1  0
  7  8  2  0
  7 15  1  0
 10  9  1  0
 11 10  2  0
 12 10  1  0
 13 12  1  0
 14 13  1  6
 15 14  1  0
 16 14  1  0
 17 16  2  0
 18 16  1  0
 19 22  1  0
 19 18  1  0
 20 21  1  0
 19 20  1  6
 22 23  1  0
 24 22  2  0
M  END
$$$$
