MQC.pdb
     RDKit          3D

 24 23  0  0  1  0  0  0  0  0999 V2000
   32.1647  -21.9506   -9.1237 C   0  0  0  0  0  0  0  0  0  0  0  0
   32.2680  -22.2942  -10.9164 S   0  0  0  0  0  0  0  0  0  0  0  0
   31.2745  -21.0168  -11.7454 C   0  0  0  0  0  0  0  0  0  0  0  0
   29.7893  -21.3770  -11.6260 C   0  0  0  0  0  0  0  0  0  0  0  0
   29.1801  -21.0140  -12.9765 C   0  0  2  0  0  0  0  0  0  0  0  0
   29.4405  -19.6228  -13.2976 N   0  0  0  0  0  0  0  0  0  0  0  0
   27.7084  -21.2187  -12.8935 C   0  0  0  0  0  0  0  0  0  0  0  0
   27.2270  -22.4004  -12.8649 O   0  0  0  0  0  0  0  0  0  0  0  0
   24.2650  -19.8780   -8.7685 N   0  0  0  0  0  0  0  0  0  0  0  0
   23.5060  -20.8397   -9.4677 C   0  0  0  0  0  0  0  0  0  0  0  0
   22.5835  -21.4861   -8.9537 O   0  0  0  0  0  0  0  0  0  0  0  0
   23.8444  -21.0827  -10.9092 C   0  0  0  0  0  0  0  0  0  0  0  0
   24.9708  -20.2020  -11.3304 C   0  0  0  0  0  0  0  0  0  0  0  0
   25.3364  -20.4271  -12.7589 C   0  0  2  0  0  0  0  0  0  0  0  0
   26.7810  -20.1587  -12.8426 N   0  0  0  0  0  0  0  0  0  0  0  0
   24.5974  -19.6637  -13.7581 C   0  0  0  0  0  0  0  0  0  0  0  0
   24.0799  -18.5603  -13.4806 O   0  0  0  0  0  0  0  0  0  0  0  0
   24.4128  -20.1129  -15.1070 N   0  0  0  0  0  0  0  0  0  0  0  0
   23.6337  -19.3334  -16.0463 C   0  0  1  0  0  0  0  0  0  0  0  0
   24.3163  -19.2122  -17.3886 C   0  0  0  0  0  0  0  0  0  0  0  0
   25.3948  -17.7848  -17.5075 S   0  0  0  0  0  0  0  0  0  0  0  0
   22.3184  -19.9583  -16.2839 C   0  0  0  0  0  0  0  0  0  0  0  0
   22.1072  -21.3042  -16.0943 O   0  0  0  0  0  0  0  0  0  0  0  0
   21.3713  -19.2465  -16.6674 O   0  0  0  0  0  0  0  0  0  0  0  0
  1  2  1  0
  3  2  1  0
  4  3  1  0
  5  6  1  1
  5  7  1  0
  5  4  1  0
  7  8  2  0
  7 15  1  0
 10  9  1  0
 11 10  2  0
 12 10  1  0
 13 12  1  0
 14 13  1  1
 15 14  1  0
 16 14  1  0
 17 16  2  0
 18 16  1  0
 19 22  1  0
 19 18  1  0
 20 21  1  0
 19 20  1  6
 22 23  1  0
 24 22  2  0
M  END
$$$$
