YWH.pdb
     RDKit          3D

 37 40  0  0  1  0  0  0  0  0999 V2000
   30.6060  -16.9733  -18.9613 O   0  0  0  0  0  0  0  0  0  0  0  0
   29.8002  -17.4653  -17.9270 C   0  0  0  0  0  0  0  0  0  0  0  0
   30.4219  -17.7684  -16.7358 C   0  0  0  0  0  0  0  0  0  0  0  0
   29.6586  -18.2545  -15.6977 C   0  0  0  0  0  0  0  0  0  0  0  0
   28.2972  -18.4260  -15.8726 C   0  0  0  0  0  0  0  0  0  0  0  0
   27.5152  -18.9577  -14.7109 C   0  0  0  0  0  0  0  0  0  0  0  0
   27.9075  -20.3794  -14.4004 C   0  0  2  0  0  0  0  0  0  0  0  0
   27.5792  -21.1973  -15.5481 N   0  0  0  0  0  0  0  0  0  0  0  0
   27.2972  -20.9145  -13.1803 C   0  0  0  0  0  0  0  0  0  0  0  0
   26.1641  -21.4621  -13.2510 O   0  0  0  0  0  0  0  0  0  0  0  0
   27.6719  -18.1217  -17.0691 C   0  0  0  0  0  0  0  0  0  0  0  0
   28.4430  -17.6372  -18.0985 C   0  0  0  0  0  0  0  0  0  0  0  0
   27.8969  -20.8625  -11.8984 N   0  0  0  0  0  0  0  0  0  0  0  0
   27.1693  -21.0796  -10.6935 C   0  0  1  0  0  0  0  0  0  0  0  0
   27.9287  -20.8740   -9.4383 C   0  0  0  0  0  0  0  0  0  0  0  0
   27.1703  -20.8886   -8.1887 C   0  0  0  0  0  0  0  0  0  0  0  0
   25.9070  -21.2936   -7.8430 C   0  0  0  0  0  0  0  0  0  0  0  0
   25.6917  -21.0937   -6.5069 N   0  0  0  0  0  0  0  0  0  0  0  0
   26.8170  -20.5618   -6.0020 C   0  0  0  0  0  0  0  0  0  0  0  0
   27.1307  -20.1684   -4.6967 C   0  0  0  0  0  0  0  0  0  0  0  0
   28.3496  -19.6439   -4.3941 C   0  0  0  0  0  0  0  0  0  0  0  0
   29.2915  -19.4951   -5.3796 C   0  0  0  0  0  0  0  0  0  0  0  0
   28.9693  -19.8875   -6.6645 C   0  0  0  0  0  0  0  0  0  0  0  0
   27.7400  -20.4225   -6.9978 C   0  0  0  0  0  0  0  0  0  0  0  0
   25.9068  -20.2674  -10.6294 C   0  0  0  0  0  0  0  0  0  0  0  0
   25.9933  -18.9931  -10.6436 O   0  0  0  0  0  0  0  0  0  0  0  0
   24.6264  -20.8268  -10.5538 N   0  0  0  0  0  0  0  0  0  0  0  0
   23.4343  -20.2062  -11.1399 C   0  0  1  0  0  0  0  0  0  0  0  0
   23.6747  -20.1656  -12.6221 C   0  0  0  0  0  0  0  0  0  0  0  0
   22.5649  -19.6387  -13.4153 C   0  0  0  0  0  0  0  0  0  0  0  0
   21.3395  -19.2479  -12.9264 C   0  0  0  0  0  0  0  0  0  0  0  0
   20.6035  -18.8288  -13.9718 N   0  0  0  0  0  0  0  0  0  0  0  0
   21.3256  -18.9433  -15.1019 C   0  0  0  0  0  0  0  0  0  0  0  0
   22.5335  -19.4451  -14.7378 N   0  0  0  0  0  0  0  0  0  0  0  0
   22.2261  -21.0209  -10.8478 C   0  0  0  0  0  0  0  0  0  0  0  0
   21.0413  -20.3660  -10.5756 O   0  0  0  0  0  0  0  0  0  0  0  0
   22.2681  -22.2749  -10.8450 O   0  0  0  0  0  0  0  0  0  0  0  0
  2  1  1  0
  3  2  2  0
  4  3  1  0
  5 11  1  0
  5  4  2  0
  6  5  1  0
  7  8  1  6
  7  9  1  0
  7  6  1  0
  9 10  2  0
 11 12  2  0
 12  2  1  0
 13 14  1  0
 13  9  1  0
 14 25  1  0
 14 15  1  1
 16 15  1  0
 17 16  2  0
 18 17  1  0
 19 18  1  0
 19 24  2  0
 20 19  1  0
 21 20  2  0
 21 22  1  0
 22 23  2  0
 23 24  1  0
 24 16  1  0
 25 27  1  0
 25 26  2  0
 27 28  1  0
 28 29  1  6
 29 30  1  0
 30 31  2  0
 31 32  1  0
 33 32  1  0
 34 30  1  0
 34 33  2  0
 35 28  1  0
 35 36  1  0
 37 35  2  0
M  END
$$$$
