YWH.pdb
     RDKit          3D

 37 40  0  0  1  0  0  0  0  0999 V2000
   31.3946  -16.3970  -18.8262 O   0  0  0  0  0  0  0  0  0  0  0  0
   30.4449  -17.0577  -18.0370 C   0  0  0  0  0  0  0  0  0  0  0  0
   30.7243  -17.1879  -16.6945 C   0  0  0  0  0  0  0  0  0  0  0  0
   29.8113  -17.8324  -15.8897 C   0  0  0  0  0  0  0  0  0  0  0  0
   28.6449  -18.3301  -16.4422 C   0  0  0  0  0  0  0  0  0  0  0  0
   27.6872  -19.0220  -15.5214 C   0  0  0  0  0  0  0  0  0  0  0  0
   28.2239  -20.3633  -15.0915 C   0  0  2  0  0  0  0  0  0  0  0  0
   28.3968  -21.1785  -16.2746 N   0  0  0  0  0  0  0  0  0  0  0  0
   27.3937  -21.0478  -14.0968 C   0  0  0  0  0  0  0  0  0  0  0  0
   26.4159  -21.7409  -14.4868 O   0  0  0  0  0  0  0  0  0  0  0  0
   28.3636  -18.1997  -17.7909 C   0  0  0  0  0  0  0  0  0  0  0  0
   29.2815  -17.5548  -18.5850 C   0  0  0  0  0  0  0  0  0  0  0  0
   27.6113  -20.9891  -12.6985 N   0  0  0  0  0  0  0  0  0  0  0  0
   26.7334  -21.5912  -11.7522 C   0  0  1  0  0  0  0  0  0  0  0  0
   27.3094  -21.8423  -10.4107 C   0  0  0  0  0  0  0  0  0  0  0  0
   26.8515  -20.9880   -9.3165 C   0  0  0  0  0  0  0  0  0  0  0  0
   25.7347  -20.2207   -9.1072 C   0  0  0  0  0  0  0  0  0  0  0  0
   25.7963  -19.6143   -7.8825 N   0  0  0  0  0  0  0  0  0  0  0  0
   26.9514  -19.9950   -7.3122 C   0  0  0  0  0  0  0  0  0  0  0  0
   27.5029  -19.6676   -6.0690 C   0  0  0  0  0  0  0  0  0  0  0  0
   28.7057  -20.1711   -5.6787 C   0  0  0  0  0  0  0  0  0  0  0  0
   29.3948  -21.0141   -6.5123 C   0  0  0  0  0  0  0  0  0  0  0  0
   28.8392  -21.3297   -7.7373 C   0  0  0  0  0  0  0  0  0  0  0  0
   27.6206  -20.8325   -8.1571 C   0  0  0  0  0  0  0  0  0  0  0  0
   25.4511  -20.8254  -11.5885 C   0  0  0  0  0  0  0  0  0  0  0  0
   25.5072  -19.5616  -11.4113 O   0  0  0  0  0  0  0  0  0  0  0  0
   24.1836  -21.4175  -11.6181 N   0  0  0  0  0  0  0  0  0  0  0  0
   22.9448  -20.6705  -11.8570 C   0  0  1  0  0  0  0  0  0  0  0  0
   23.0617  -20.1073  -13.2446 C   0  0  0  0  0  0  0  0  0  0  0  0
   21.9102  -19.3267  -13.6952 C   0  0  0  0  0  0  0  0  0  0  0  0
   21.4048  -18.2062  -13.0769 C   0  0  0  0  0  0  0  0  0  0  0  0
   20.3487  -17.7893  -13.7987 N   0  0  0  0  0  0  0  0  0  0  0  0
   20.1733  -18.6107  -14.8505 C   0  0  0  0  0  0  0  0  0  0  0  0
   21.1469  -19.5534  -14.7693 N   0  0  0  0  0  0  0  0  0  0  0  0
   21.7680  -21.5749  -11.7780 C   0  0  0  0  0  0  0  0  0  0  0  0
   20.6041  -21.0918  -11.2134 O   0  0  0  0  0  0  0  0  0  0  0  0
   21.8176  -22.7517  -12.2103 O   0  0  0  0  0  0  0  0  0  0  0  0
  2  1  1  0
  3  2  2  0
  4  3  1  0
  5 11  1  0
  5  4  2  0
  6  5  1  0
  7  8  1  6
  7  9  1  0
  7  6  1  0
  9 10  2  0
 11 12  2  0
 12  2  1  0
 13 14  1  0
 13  9  1  0
 14 25  1  0
 14 15  1  1
 16 15  1  0
 17 16  2  0
 18 17  1  0
 19 18  1  0
 19 24  2  0
 20 19  1  0
 21 20  2  0
 21 22  1  0
 22 23  2  0
 23 24  1  0
 24 16  1  0
 25 27  1  0
 25 26  2  0
 27 28  1  0
 28 29  1  6
 29 30  1  0
 30 31  2  0
 31 32  1  0
 33 32  1  0
 34 30  1  0
 34 33  2  0
 35 28  1  0
 35 36  1  0
 37 35  2  0
M  END
$$$$
