YWH.pdb
     RDKit          3D

 37 40  0  0  1  0  0  0  0  0999 V2000
   28.6044  -22.5717  -19.1413 O   0  0  0  0  0  0  0  0  0  0  0  0
   27.4336  -22.5650  -18.3730 C   0  0  0  0  0  0  0  0  0  0  0  0
   26.6572  -21.4283  -18.4203 C   0  0  0  0  0  0  0  0  0  0  0  0
   25.4987  -21.3885  -17.6766 C   0  0  0  0  0  0  0  0  0  0  0  0
   25.1439  -22.4808  -16.9058 C   0  0  0  0  0  0  0  0  0  0  0  0
   23.8742  -22.3838  -16.1169 C   0  0  0  0  0  0  0  0  0  0  0  0
   24.0692  -21.5456  -14.8795 C   0  0  2  0  0  0  0  0  0  0  0  0
   25.1223  -22.1472  -14.0903 N   0  0  0  0  0  0  0  0  0  0  0  0
   22.8524  -21.3639  -14.0835 C   0  0  0  0  0  0  0  0  0  0  0  0
   22.6046  -22.1729  -13.1492 O   0  0  0  0  0  0  0  0  0  0  0  0
   25.9234  -23.6233  -16.8577 C   0  0  0  0  0  0  0  0  0  0  0  0
   27.0773  -23.6524  -17.6037 C   0  0  0  0  0  0  0  0  0  0  0  0
   21.9122  -20.3247  -14.2878 N   0  0  0  0  0  0  0  0  0  0  0  0
   20.7547  -20.1566  -13.4751 C   0  0  1  0  0  0  0  0  0  0  0  0
   20.3150  -18.7577  -13.2648 C   0  0  0  0  0  0  0  0  0  0  0  0
   20.3407  -17.8679  -14.4243 C   0  0  0  0  0  0  0  0  0  0  0  0
   20.5793  -18.0493  -15.7621 C   0  0  0  0  0  0  0  0  0  0  0  0
   20.4670  -16.8613  -16.4312 N   0  0  0  0  0  0  0  0  0  0  0  0
   20.1570  -15.9241  -15.5202 C   0  0  0  0  0  0  0  0  0  0  0  0
   19.9310  -14.5516  -15.6686 C   0  0  0  0  0  0  0  0  0  0  0  0
   19.6244  -13.7696  -14.5976 C   0  0  0  0  0  0  0  0  0  0  0  0
   19.5337  -14.3289  -13.3488 C   0  0  0  0  0  0  0  0  0  0  0  0
   19.7591  -15.6855  -13.2158 C   0  0  0  0  0  0  0  0  0  0  0  0
   20.0716  -16.5010  -14.2862 C   0  0  0  0  0  0  0  0  0  0  0  0
   19.5840  -20.9590  -13.9683 C   0  0  0  0  0  0  0  0  0  0  0  0
   19.4750  -21.1827  -15.2212 O   0  0  0  0  0  0  0  0  0  0  0  0
   18.5931  -21.4827  -13.1304 N   0  0  0  0  0  0  0  0  0  0  0  0
   17.4410  -22.2480  -13.6168 C   0  0  1  0  0  0  0  0  0  0  0  0
   17.1160  -23.2393  -12.5360 C   0  0  0  0  0  0  0  0  0  0  0  0
   17.9833  -24.4159  -12.4935 C   0  0  0  0  0  0  0  0  0  0  0  0
   18.9261  -24.7562  -13.4362 C   0  0  0  0  0  0  0  0  0  0  0  0
   19.5042  -25.9020  -13.0326 N   0  0  0  0  0  0  0  0  0  0  0  0
   18.9561  -26.2935  -11.8672 C   0  0  0  0  0  0  0  0  0  0  0  0
   18.0192  -25.3633  -11.5508 N   0  0  0  0  0  0  0  0  0  0  0  0
   16.2781  -21.3508  -13.8435 C   0  0  0  0  0  0  0  0  0  0  0  0
   16.3497  -20.0516  -13.3811 O   0  0  0  0  0  0  0  0  0  0  0  0
   15.2493  -21.7518  -14.4395 O   0  0  0  0  0  0  0  0  0  0  0  0
  2  1  1  0
  3  2  2  0
  4  3  1  0
  5 11  1  0
  5  4  2  0
  6  5  1  0
  7  8  1  1
  7  9  1  0
  7  6  1  0
  9 10  2  0
 11 12  2  0
 12  2  1  0
 13 14  1  0
 13  9  1  0
 14 25  1  0
 14 15  1  6
 16 15  1  0
 17 16  2  0
 18 17  1  0
 19 18  1  0
 19 24  2  0
 20 19  1  0
 21 20  2  0
 21 22  1  0
 22 23  2  0
 23 24  1  0
 24 16  1  0
 25 27  1  0
 25 26  2  0
 27 28  1  0
 28 29  1  1
 29 30  1  0
 30 31  2  0
 31 32  1  0
 33 32  1  0
 34 30  1  0
 34 33  2  0
 35 28  1  0
 35 36  1  0
 37 35  2  0
M  END
$$$$
