YWH.pdb
     RDKit          3D

 37 40  0  0  1  0  0  0  0  0999 V2000
   38.1201  -40.7596   -7.2610 O   0  0  0  0  0  0  0  0  0  0  0  0
   37.1386  -39.9885   -6.6260 C   0  0  0  0  0  0  0  0  0  0  0  0
   37.3328  -39.6969   -5.2939 C   0  0  0  0  0  0  0  0  0  0  0  0
   36.3866  -38.9403   -4.6389 C   0  0  0  0  0  0  0  0  0  0  0  0
   35.2726  -38.4942   -5.3269 C   0  0  0  0  0  0  0  0  0  0  0  0
   34.2755  -37.6753   -4.5661 C   0  0  0  0  0  0  0  0  0  0  0  0
   34.1720  -36.2836   -5.1353 C   0  0  2  0  0  0  0  0  0  0  0  0
   35.4194  -35.5977   -4.8756 N   0  0  0  0  0  0  0  0  0  0  0  0
   33.0323  -35.5144   -4.6285 C   0  0  0  0  0  0  0  0  0  0  0  0
   32.9560  -35.2731   -3.3937 O   0  0  0  0  0  0  0  0  0  0  0  0
   35.0769  -38.7868   -6.6653 C   0  0  0  0  0  0  0  0  0  0  0  0
   36.0272  -39.5424   -7.3093 C   0  0  0  0  0  0  0  0  0  0  0  0
   31.9862  -35.0093   -5.4386 N   0  0  0  0  0  0  0  0  0  0  0  0
   30.9077  -34.2378   -4.9189 C   0  0  1  0  0  0  0  0  0  0  0  0
   30.1167  -33.4838   -5.9190 C   0  0  0  0  0  0  0  0  0  0  0  0
   28.8646  -32.8817   -5.4642 C   0  0  0  0  0  0  0  0  0  0  0  0
   28.3957  -32.4571   -4.2479 C   0  0  0  0  0  0  0  0  0  0  0  0
   27.1316  -31.9498   -4.3755 N   0  0  0  0  0  0  0  0  0  0  0  0
   26.7958  -32.0511   -5.6722 C   0  0  0  0  0  0  0  0  0  0  0  0
   25.6226  -31.6826   -6.3390 C   0  0  0  0  0  0  0  0  0  0  0  0
   25.4854  -31.8754   -7.6794 C   0  0  0  0  0  0  0  0  0  0  0  0
   26.5097  -32.4398   -8.3953 C   0  0  0  0  0  0  0  0  0  0  0  0
   27.6630  -32.7993   -7.7250 C   0  0  0  0  0  0  0  0  0  0  0  0
   27.8276  -32.6143   -6.3659 C   0  0  0  0  0  0  0  0  0  0  0  0
   29.9668  -35.0558   -4.0803 C   0  0  0  0  0  0  0  0  0  0  0  0
   29.5298  -36.1618   -4.5466 O   0  0  0  0  0  0  0  0  0  0  0  0
   29.5340  -34.6769   -2.8047 N   0  0  0  0  0  0  0  0  0  0  0  0
   28.6308  -35.4865   -1.9810 C   0  0  1  0  0  0  0  0  0  0  0  0
   29.1680  -35.4110   -0.5803 C   0  0  0  0  0  0  0  0  0  0  0  0
   28.4534  -36.2254    0.4018 C   0  0  0  0  0  0  0  0  0  0  0  0
   27.4370  -37.1112    0.1273 C   0  0  0  0  0  0  0  0  0  0  0  0
   27.0485  -37.6536    1.2956 N   0  0  0  0  0  0  0  0  0  0  0  0
   27.7871  -37.1381    2.2958 C   0  0  0  0  0  0  0  0  0  0  0  0
   28.6487  -36.2583    1.7241 N   0  0  0  0  0  0  0  0  0  0  0  0
   27.2520  -34.9332   -2.0222 C   0  0  0  0  0  0  0  0  0  0  0  0
   27.0517  -33.6343   -1.5987 O   0  0  0  0  0  0  0  0  0  0  0  0
   26.2840  -35.6196   -2.4297 O   0  0  0  0  0  0  0  0  0  0  0  0
  2  1  1  0
  3  2  2  0
  4  3  1  0
  5 11  1  0
  5  4  2  0
  6  5  1  0
  7  8  1  1
  7  9  1  0
  7  6  1  0
  9 10  2  0
 11 12  2  0
 12  2  1  0
 13 14  1  0
 13  9  1  0
 14 25  1  0
 14 15  1  6
 16 15  1  0
 17 16  2  0
 18 17  1  0
 19 18  1  0
 19 24  2  0
 20 19  1  0
 21 20  2  0
 21 22  1  0
 22 23  2  0
 23 24  1  0
 24 16  1  0
 25 27  1  0
 25 26  2  0
 27 28  1  0
 28 29  1  1
 29 30  1  0
 30 31  2  0
 31 32  1  0
 33 32  1  0
 34 30  1  0
 34 33  2  0
 35 28  1  0
 35 36  1  0
 37 35  2  0
M  END
$$$$
