YWH.pdb
     RDKit          3D

 37 40  0  0  1  0  0  0  0  0999 V2000
   30.1097  -15.4890  -18.4298 O   0  0  0  0  0  0  0  0  0  0  0  0
   29.1929  -16.4694  -18.0307 C   0  0  0  0  0  0  0  0  0  0  0  0
   28.5145  -16.2528  -16.8517 C   0  0  0  0  0  0  0  0  0  0  0  0
   27.6052  -17.1973  -16.4300 C   0  0  0  0  0  0  0  0  0  0  0  0
   27.3955  -18.3321  -17.1927 C   0  0  0  0  0  0  0  0  0  0  0  0
   26.3957  -19.3264  -16.6873 C   0  0  0  0  0  0  0  0  0  0  0  0
   27.0324  -20.2879  -15.7168 C   0  0  2  0  0  0  0  0  0  0  0  0
   28.0289  -21.0552  -16.4325 N   0  0  0  0  0  0  0  0  0  0  0  0
   26.0790  -21.1678  -15.0356 C   0  0  0  0  0  0  0  0  0  0  0  0
   25.6795  -22.2096  -15.6218 O   0  0  0  0  0  0  0  0  0  0  0  0
   28.0768  -18.5504  -18.3773 C   0  0  0  0  0  0  0  0  0  0  0  0
   28.9818  -17.6015  -18.7889 C   0  0  0  0  0  0  0  0  0  0  0  0
   25.5605  -20.9320  -13.7389 N   0  0  0  0  0  0  0  0  0  0  0  0
   24.6707  -21.8317  -13.0852 C   0  0  1  0  0  0  0  0  0  0  0  0
   25.0797  -22.2685  -11.7300 C   0  0  0  0  0  0  0  0  0  0  0  0
   25.7044  -21.2683  -10.8660 C   0  0  0  0  0  0  0  0  0  0  0  0
   25.2312  -20.3860   -9.9294 C   0  0  0  0  0  0  0  0  0  0  0  0
   26.2616  -19.6650   -9.3910 N   0  0  0  0  0  0  0  0  0  0  0  0
   27.3903  -20.0878   -9.9842 C   0  0  0  0  0  0  0  0  0  0  0  0
   28.7178  -19.6855   -9.8039 C   0  0  0  0  0  0  0  0  0  0  0  0
   29.7277  -20.2527  -10.5187 C   0  0  0  0  0  0  0  0  0  0  0  0
   29.4474  -21.2357  -11.4329 C   0  0  0  0  0  0  0  0  0  0  0  0
   28.1323  -21.6240  -11.6014 C   0  0  0  0  0  0  0  0  0  0  0  0
   27.0894  -21.0646  -10.8888 C   0  0  0  0  0  0  0  0  0  0  0  0
   23.2660  -21.3029  -13.0157 C   0  0  0  0  0  0  0  0  0  0  0  0
   23.0764  -20.1134  -12.5908 O   0  0  0  0  0  0  0  0  0  0  0  0
   22.1386  -22.0415  -13.3919 N   0  0  0  0  0  0  0  0  0  0  0  0
   20.7648  -21.5450  -13.2665 C   0  0  1  0  0  0  0  0  0  0  0  0
   20.1060  -21.8103  -14.5901 C   0  0  0  0  0  0  0  0  0  0  0  0
   20.5119  -20.9167  -15.6741 C   0  0  0  0  0  0  0  0  0  0  0  0
   21.3600  -21.2387  -16.7087 C   0  0  0  0  0  0  0  0  0  0  0  0
   21.4788  -20.1477  -17.4869 N   0  0  0  0  0  0  0  0  0  0  0  0
   20.7334  -19.1502  -16.9758 C   0  0  0  0  0  0  0  0  0  0  0  0
   20.1443  -19.6442  -15.8568 N   0  0  0  0  0  0  0  0  0  0  0  0
   20.0440  -22.2736  -12.1901 C   0  0  0  0  0  0  0  0  0  0  0  0
   19.1048  -21.5870  -11.4463 O   0  0  0  0  0  0  0  0  0  0  0  0
   20.2741  -23.4839  -11.9525 O   0  0  0  0  0  0  0  0  0  0  0  0
  2  1  1  0
  3  2  2  0
  4  3  1  0
  5 11  1  0
  5  4  2  0
  6  5  1  0
  7  8  1  6
  7  9  1  0
  7  6  1  0
  9 10  2  0
 11 12  2  0
 12  2  1  0
 13 14  1  0
 13  9  1  0
 14 25  1  0
 14 15  1  1
 16 15  1  0
 17 16  2  0
 18 17  1  0
 19 18  1  0
 19 24  2  0
 20 19  1  0
 21 20  2  0
 21 22  1  0
 22 23  2  0
 23 24  1  0
 24 16  1  0
 25 27  1  0
 25 26  2  0
 27 28  1  0
 28 29  1  6
 29 30  1  0
 30 31  2  0
 31 32  1  0
 33 32  1  0
 34 30  1  0
 34 33  2  0
 35 28  1  0
 35 36  1  0
 37 35  2  0
M  END
$$$$
