YWH.pdb
     RDKit          3D

 37 40  0  0  1  0  0  0  0  0999 V2000
   31.9470  -16.9499  -18.9760 O   0  0  0  0  0  0  0  0  0  0  0  0
   30.9268  -17.4957  -18.1870 C   0  0  0  0  0  0  0  0  0  0  0  0
   31.1147  -17.4869  -16.8225 C   0  0  0  0  0  0  0  0  0  0  0  0
   30.1307  -18.0159  -16.0172 C   0  0  0  0  0  0  0  0  0  0  0  0
   28.9863  -18.5396  -16.5912 C   0  0  0  0  0  0  0  0  0  0  0  0
   27.9486  -19.1020  -15.6688 C   0  0  0  0  0  0  0  0  0  0  0  0
   28.3313  -20.4832  -15.2023 C   0  0  2  0  0  0  0  0  0  0  0  0
   28.2095  -21.3870  -16.3258 N   0  0  0  0  0  0  0  0  0  0  0  0
   27.5563  -20.9619  -14.0545 C   0  0  0  0  0  0  0  0  0  0  0  0
   26.4312  -21.4940  -14.2535 O   0  0  0  0  0  0  0  0  0  0  0  0
   28.7969  -18.5488  -17.9620 C   0  0  0  0  0  0  0  0  0  0  0  0
   29.7850  -18.0184  -18.7564 C   0  0  0  0  0  0  0  0  0  0  0  0
   27.9849  -20.8709  -12.7077 N   0  0  0  0  0  0  0  0  0  0  0  0
   27.1565  -21.2279  -11.6055 C   0  0  1  0  0  0  0  0  0  0  0  0
   27.8196  -21.2402  -10.2809 C   0  0  0  0  0  0  0  0  0  0  0  0
   27.0023  -20.8868   -9.1215 C   0  0  0  0  0  0  0  0  0  0  0  0
   25.6535  -20.8533   -8.8784 C   0  0  0  0  0  0  0  0  0  0  0  0
   25.4109  -20.4496   -7.5940 N   0  0  0  0  0  0  0  0  0  0  0  0
   26.6044  -20.2262   -7.0194 C   0  0  0  0  0  0  0  0  0  0  0  0
   26.9255  -19.8012   -5.7260 C   0  0  0  0  0  0  0  0  0  0  0  0
   28.2205  -19.6355   -5.3414 C   0  0  0  0  0  0  0  0  0  0  0  0
   29.2334  -19.8872   -6.2309 C   0  0  0  0  0  0  0  0  0  0  0  0
   28.9030  -20.3064   -7.5052 C   0  0  0  0  0  0  0  0  0  0  0  0
   27.5972  -20.4824   -7.9204 C   0  0  0  0  0  0  0  0  0  0  0  0
   25.9204  -20.3783  -11.5158 C   0  0  0  0  0  0  0  0  0  0  0  0
   26.0494  -19.1096  -11.4440 O   0  0  0  0  0  0  0  0  0  0  0  0
   24.6207  -20.8967  -11.5056 N   0  0  0  0  0  0  0  0  0  0  0  0
   23.4568  -20.1783  -12.0338 C   0  0  1  0  0  0  0  0  0  0  0  0
   23.7030  -20.0166  -13.5067 C   0  0  0  0  0  0  0  0  0  0  0  0
   22.6164  -19.3801  -14.2500 C   0  0  0  0  0  0  0  0  0  0  0  0
   21.4185  -18.9569  -13.7216 C   0  0  0  0  0  0  0  0  0  0  0  0
   20.6971  -18.4314  -14.7282 N   0  0  0  0  0  0  0  0  0  0  0  0
   21.4018  -18.5101  -15.8724 C   0  0  0  0  0  0  0  0  0  0  0  0
   22.5837  -19.0988  -15.5567 N   0  0  0  0  0  0  0  0  0  0  0  0
   22.2153  -20.9654  -11.8141 C   0  0  0  0  0  0  0  0  0  0  0  0
   21.0309  -20.2837  -11.6159 O   0  0  0  0  0  0  0  0  0  0  0  0
   22.2294  -22.2200  -11.8063 O   0  0  0  0  0  0  0  0  0  0  0  0
  2  1  1  0
  3  2  2  0
  4  3  1  0
  5 11  1  0
  5  4  2  0
  6  5  1  0
  7  8  1  6
  7  9  1  0
  7  6  1  0
  9 10  2  0
 11 12  2  0
 12  2  1  0
 13 14  1  0
 13  9  1  0
 14 25  1  0
 14 15  1  1
 16 15  1  0
 17 16  2  0
 18 17  1  0
 19 18  1  0
 19 24  2  0
 20 19  1  0
 21 20  2  0
 21 22  1  0
 22 23  2  0
 23 24  1  0
 24 16  1  0
 25 27  1  0
 25 26  2  0
 27 28  1  0
 28 29  1  6
 29 30  1  0
 30 31  2  0
 31 32  1  0
 33 32  1  0
 34 30  1  0
 34 33  2  0
 35 28  1  0
 35 36  1  0
 37 35  2  0
M  END
$$$$
