YWH.pdb
     RDKit          3D

 37 40  0  0  1  0  0  0  0  0999 V2000
   29.6809  -20.6805  -20.9079 O   0  0  0  0  0  0  0  0  0  0  0  0
   28.8136  -20.8989  -19.8303 C   0  0  0  0  0  0  0  0  0  0  0  0
   28.9069  -20.0332  -18.7630 C   0  0  0  0  0  0  0  0  0  0  0  0
   28.0683  -20.2196  -17.6865 C   0  0  0  0  0  0  0  0  0  0  0  0
   27.1596  -21.2623  -17.7009 C   0  0  0  0  0  0  0  0  0  0  0  0
   26.2720  -21.4189  -16.5043 C   0  0  0  0  0  0  0  0  0  0  0  0
   27.0239  -22.0300  -15.3498 C   0  0  2  0  0  0  0  0  0  0  0  0
   27.3535  -23.3948  -15.6999 N   0  0  0  0  0  0  0  0  0  0  0  0
   26.3074  -21.9719  -14.0729 C   0  0  0  0  0  0  0  0  0  0  0  0
   25.4371  -22.8472  -13.8180 O   0  0  0  0  0  0  0  0  0  0  0  0
   27.0653  -22.1324  -18.7729 C   0  0  0  0  0  0  0  0  0  0  0  0
   27.9067  -21.9374  -19.8419 C   0  0  0  0  0  0  0  0  0  0  0  0
   26.5234  -20.9851  -13.0802 N   0  0  0  0  0  0  0  0  0  0  0  0
   25.6615  -20.8122  -11.9596 C   0  0  1  0  0  0  0  0  0  0  0  0
   26.2182  -20.0226  -10.8367 C   0  0  0  0  0  0  0  0  0  0  0  0
   27.4345  -20.5283  -10.2029 C   0  0  0  0  0  0  0  0  0  0  0  0
   28.5476  -21.1849  -10.6606 C   0  0  0  0  0  0  0  0  0  0  0  0
   29.4153  -21.4262   -9.6308 N   0  0  0  0  0  0  0  0  0  0  0  0
   28.8552  -20.9235   -8.5181 C   0  0  0  0  0  0  0  0  0  0  0  0
   29.3174  -20.9012   -7.1979 C   0  0  0  0  0  0  0  0  0  0  0  0
   28.5812  -20.3319   -6.2047 C   0  0  0  0  0  0  0  0  0  0  0  0
   27.3650  -19.7687   -6.4948 C   0  0  0  0  0  0  0  0  0  0  0  0
   26.9200  -19.7973   -7.8024 C   0  0  0  0  0  0  0  0  0  0  0  0
   27.6476  -20.3684   -8.8285 C   0  0  0  0  0  0  0  0  0  0  0  0
   24.3300  -20.2303  -12.3421 C   0  0  0  0  0  0  0  0  0  0  0  0
   24.3019  -19.2099  -13.1099 O   0  0  0  0  0  0  0  0  0  0  0  0
   23.1037  -20.7427  -11.9042 N   0  0  0  0  0  0  0  0  0  0  0  0
   21.8063  -20.1679  -12.2730 C   0  0  1  0  0  0  0  0  0  0  0  0
   21.6413  -20.4270  -13.7434 C   0  0  0  0  0  0  0  0  0  0  0  0
   20.3725  -19.9756  -14.3131 C   0  0  0  0  0  0  0  0  0  0  0  0
   20.0848  -18.6947  -14.7253 C   0  0  0  0  0  0  0  0  0  0  0  0
   18.8195  -18.6931  -15.1827 N   0  0  0  0  0  0  0  0  0  0  0  0
   18.3020  -19.9307  -15.0718 C   0  0  0  0  0  0  0  0  0  0  0  0
   19.2758  -20.7082  -14.5328 N   0  0  0  0  0  0  0  0  0  0  0  0
   20.7101  -20.8301  -11.5188 C   0  0  0  0  0  0  0  0  0  0  0  0
   19.4498  -20.2676  -11.5608 O   0  0  0  0  0  0  0  0  0  0  0  0
   20.9118  -21.8758  -10.8554 O   0  0  0  0  0  0  0  0  0  0  0  0
  2  1  1  0
  3  2  2  0
  4  3  1  0
  5 11  1  0
  5  4  2  0
  6  5  1  0
  7  8  1  6
  7  9  1  0
  7  6  1  0
  9 10  2  0
 11 12  2  0
 12  2  1  0
 13 14  1  0
 13  9  1  0
 14 25  1  0
 14 15  1  1
 16 15  1  0
 17 16  2  0
 18 17  1  0
 19 18  1  0
 19 24  2  0
 20 19  1  0
 21 20  2  0
 21 22  1  0
 22 23  2  0
 23 24  1  0
 24 16  1  0
 25 27  1  0
 25 26  2  0
 27 28  1  0
 28 29  1  6
 29 30  1  0
 30 31  2  0
 31 32  1  0
 33 32  1  0
 34 30  1  0
 34 33  2  0
 35 28  1  0
 35 36  1  0
 37 35  2  0
M  END
$$$$
