YWH.pdb
     RDKit          3D

 37 40  0  0  1  0  0  0  0  0999 V2000
   13.1459  -12.7644  -16.2396 O   0  0  0  0  0  0  0  0  0  0  0  0
   13.5795  -13.9511  -16.8436 C   0  0  0  0  0  0  0  0  0  0  0  0
   13.2864  -14.1202  -18.1788 C   0  0  0  0  0  0  0  0  0  0  0  0
   13.6986  -15.2761  -18.8040 C   0  0  0  0  0  0  0  0  0  0  0  0
   14.3912  -16.2327  -18.0838 C   0  0  0  0  0  0  0  0  0  0  0  0
   14.8155  -17.4704  -18.8132 C   0  0  0  0  0  0  0  0  0  0  0  0
   16.3061  -17.4823  -19.0361 C   0  0  2  0  0  0  0  0  0  0  0  0
   16.6239  -16.4562  -20.0057 N   0  0  0  0  0  0  0  0  0  0  0  0
   16.8373  -18.7831  -19.4522 C   0  0  0  0  0  0  0  0  0  0  0  0
   16.8392  -19.0811  -20.6769 O   0  0  0  0  0  0  0  0  0  0  0  0
   14.6860  -16.0634  -16.7424 C   0  0  0  0  0  0  0  0  0  0  0  0
   14.2701  -14.9063  -16.1284 C   0  0  0  0  0  0  0  0  0  0  0  0
   17.3611  -19.7531  -18.5632 N   0  0  0  0  0  0  0  0  0  0  0  0
   17.8515  -21.0176  -18.9981 C   0  0  1  0  0  0  0  0  0  0  0  0
   19.3085  -21.2316  -18.8367 C   0  0  0  0  0  0  0  0  0  0  0  0
   20.1903  -20.5828  -19.8054 C   0  0  0  0  0  0  0  0  0  0  0  0
   20.6291  -19.2965  -19.9854 C   0  0  0  0  0  0  0  0  0  0  0  0
   21.4692  -19.2263  -21.0629 N   0  0  0  0  0  0  0  0  0  0  0  0
   21.5653  -20.4670  -21.5687 C   0  0  0  0  0  0  0  0  0  0  0  0
   22.2900  -20.9487  -22.6639 C   0  0  0  0  0  0  0  0  0  0  0  0
   22.2478  -22.2640  -23.0115 C   0  0  0  0  0  0  0  0  0  0  0  0
   21.4845  -23.1381  -22.2808 C   0  0  0  0  0  0  0  0  0  0  0  0
   20.7737  -22.6497  -21.2015 C   0  0  0  0  0  0  0  0  0  0  0  0
   20.7994  -21.3200  -20.8279 C   0  0  0  0  0  0  0  0  0  0  0  0
   17.1238  -22.1673  -18.3607 C   0  0  0  0  0  0  0  0  0  0  0  0
   17.0688  -22.2303  -17.0861 O   0  0  0  0  0  0  0  0  0  0  0  0
   16.4949  -23.1859  -19.0852 N   0  0  0  0  0  0  0  0  0  0  0  0
   15.7791  -24.3025  -18.4604 C   0  0  1  0  0  0  0  0  0  0  0  0
   15.6932  -25.3770  -19.5065 C   0  0  0  0  0  0  0  0  0  0  0  0
   14.8984  -26.5454  -19.1305 C   0  0  0  0  0  0  0  0  0  0  0  0
   15.2361  -27.4757  -18.1745 C   0  0  0  0  0  0  0  0  0  0  0  0
   14.2483  -28.3882  -18.1334 N   0  0  0  0  0  0  0  0  0  0  0  0
   13.3005  -28.0624  -19.0320 C   0  0  0  0  0  0  0  0  0  0  0  0
   13.7200  -26.9220  -19.6376 N   0  0  0  0  0  0  0  0  0  0  0  0
   16.5292  -24.8071  -17.2806 C   0  0  0  0  0  0  0  0  0  0  0  0
   15.9145  -24.7685  -16.0448 O   0  0  0  0  0  0  0  0  0  0  0  0
   17.6942  -25.2597  -17.3913 O   0  0  0  0  0  0  0  0  0  0  0  0
  2  1  1  0
  3  2  2  0
  4  3  1  0
  5 11  1  0
  5  4  2  0
  6  5  1  0
  7  8  1  6
  7  9  1  0
  7  6  1  0
  9 10  2  0
 11 12  2  0
 12  2  1  0
 13 14  1  0
 13  9  1  0
 14 25  1  0
 14 15  1  1
 16 15  1  0
 17 16  2  0
 18 17  1  0
 19 18  1  0
 19 24  2  0
 20 19  1  0
 21 20  2  0
 21 22  1  0
 22 23  2  0
 23 24  1  0
 24 16  1  0
 25 27  1  0
 25 26  2  0
 27 28  1  0
 28 29  1  6
 29 30  1  0
 30 31  2  0
 31 32  1  0
 33 32  1  0
 34 30  1  0
 34 33  2  0
 35 28  1  0
 35 36  1  0
 37 35  2  0
M  END
$$$$
