YWH.pdb
     RDKit          3D

 37 40  0  0  1  0  0  0  0  0999 V2000
    9.5300  -16.2253  -19.4589 O   0  0  0  0  0  0  0  0  0  0  0  0
   10.3834  -15.4256  -18.6884 C   0  0  0  0  0  0  0  0  0  0  0  0
   11.1087  -16.0522  -17.6992 C   0  0  0  0  0  0  0  0  0  0  0  0
   11.9578  -15.2951  -16.9229 C   0  0  0  0  0  0  0  0  0  0  0  0
   12.0624  -13.9349  -17.1518 C   0  0  0  0  0  0  0  0  0  0  0  0
   13.0006  -13.1597  -16.2785 C   0  0  0  0  0  0  0  0  0  0  0  0
   14.2852  -12.8520  -17.0043 C   0  0  2  0  0  0  0  0  0  0  0  0
   15.1016  -14.0467  -16.9995 N   0  0  0  0  0  0  0  0  0  0  0  0
   15.0209  -11.7088  -16.4575 C   0  0  0  0  0  0  0  0  0  0  0  0
   15.7369  -11.8737  -15.4333 O   0  0  0  0  0  0  0  0  0  0  0  0
   11.3340  -13.3048  -18.1456 C   0  0  0  0  0  0  0  0  0  0  0  0
   10.4897  -14.0697  -18.9143 C   0  0  0  0  0  0  0  0  0  0  0  0
   14.9888  -10.4029  -17.0046 N   0  0  0  0  0  0  0  0  0  0  0  0
   15.6290   -9.2894  -16.3891 C   0  0  1  0  0  0  0  0  0  0  0  0
   16.9494   -8.9176  -16.9484 C   0  0  0  0  0  0  0  0  0  0  0  0
   17.9044   -9.9995  -17.1823 C   0  0  0  0  0  0  0  0  0  0  0  0
   18.5551  -10.8912  -16.3693 C   0  0  0  0  0  0  0  0  0  0  0  0
   19.3501  -11.7205  -17.1122 N   0  0  0  0  0  0  0  0  0  0  0  0
   19.2056  -11.3573  -18.3974 C   0  0  0  0  0  0  0  0  0  0  0  0
   19.7889  -11.8738  -19.5592 C   0  0  0  0  0  0  0  0  0  0  0  0
   19.5016  -11.3510  -20.7825 C   0  0  0  0  0  0  0  0  0  0  0  0
   18.6266  -10.3001  -20.8864 C   0  0  0  0  0  0  0  0  0  0  0  0
   18.0574   -9.7993  -19.7315 C   0  0  0  0  0  0  0  0  0  0  0  0
   18.3320  -10.3117  -18.4783 C   0  0  0  0  0  0  0  0  0  0  0  0
   14.7569   -8.0662  -16.3633 C   0  0  0  0  0  0  0  0  0  0  0  0
   14.2435   -7.6530  -17.4575 O   0  0  0  0  0  0  0  0  0  0  0  0
   14.4685   -7.3422  -15.2010 N   0  0  0  0  0  0  0  0  0  0  0  0
   13.5789   -6.1772  -15.1709 C   0  0  1  0  0  0  0  0  0  0  0  0
   12.5861   -6.4422  -14.0753 C   0  0  0  0  0  0  0  0  0  0  0  0
   11.7725   -7.6440  -14.2541 C   0  0  0  0  0  0  0  0  0  0  0  0
   12.0400   -8.8845  -13.7222 C   0  0  0  0  0  0  0  0  0  0  0  0
   11.0587   -9.7141  -14.1207 N   0  0  0  0  0  0  0  0  0  0  0  0
   10.1829   -9.0363  -14.8858 C   0  0  0  0  0  0  0  0  0  0  0  0
   10.6408   -7.7602  -14.9566 N   0  0  0  0  0  0  0  0  0  0  0  0
   14.3480   -4.9425  -14.8659 C   0  0  0  0  0  0  0  0  0  0  0  0
   13.6783   -3.7349  -14.8613 O   0  0  0  0  0  0  0  0  0  0  0  0
   15.5770   -4.9826  -14.6169 O   0  0  0  0  0  0  0  0  0  0  0  0
  2  1  1  0
  3  2  2  0
  4  3  1  0
  5 11  1  0
  5  4  2  0
  6  5  1  0
  7  8  1  1
  7  9  1  0
  7  6  1  0
  9 10  2  0
 11 12  2  0
 12  2  1  0
 13 14  1  0
 13  9  1  0
 14 25  1  0
 14 15  1  6
 16 15  1  0
 17 16  2  0
 18 17  1  0
 19 18  1  0
 19 24  2  0
 20 19  1  0
 21 20  2  0
 21 22  1  0
 22 23  2  0
 23 24  1  0
 24 16  1  0
 25 27  1  0
 25 26  2  0
 27 28  1  0
 28 29  1  1
 29 30  1  0
 30 31  2  0
 31 32  1  0
 33 32  1  0
 34 30  1  0
 34 33  2  0
 35 28  1  0
 35 36  1  0
 37 35  2  0
M  END
$$$$
