KFN.pdb
     RDKit          3D

 29 29  0  0  1  0  0  0  0  0999 V2000
    7.8437  -16.3724   19.5032 N   0  0  0  0  0  0  0  0  0  0  0  0
    8.8949  -15.3780   19.4801 C   0  0  1  0  0  0  0  0  0  0  0  0
    8.5578  -14.2775   18.5003 C   0  0  0  0  0  0  0  0  0  0  0  0
    8.2202  -14.8213   17.1392 C   0  0  0  0  0  0  0  0  0  0  0  0
    7.9082  -13.6984   16.1847 C   0  0  0  0  0  0  0  0  0  0  0  0
    7.6048  -14.2658   14.7902 C   0  0  0  0  0  0  0  0  0  0  0  0
    7.2093  -13.1534   13.9658 N   0  0  0  0  0  0  0  0  0  0  0  0
    9.0239  -14.7228   20.8305 C   0  0  0  0  0  0  0  0  0  0  0  0
    9.8965  -13.8295   21.0433 O   0  0  0  0  0  0  0  0  0  0  0  0
    8.1844  -15.0674   21.9234 N   0  0  0  0  0  0  0  0  0  0  0  0
    8.3025  -14.4901   23.2294 C   0  0  1  0  0  0  0  0  0  0  0  0
    7.0001  -14.1743   23.8914 C   0  0  0  0  0  0  0  0  0  0  0  0
    7.1249  -13.5184   25.1941 C   0  0  0  0  0  0  0  0  0  0  0  0
    6.6028  -14.0578   26.3549 C   0  0  0  0  0  0  0  0  0  0  0  0
    6.7301  -13.4207   27.5783 C   0  0  0  0  0  0  0  0  0  0  0  0
    7.3871  -12.2144   27.6897 C   0  0  0  0  0  0  0  0  0  0  0  0
    7.9119  -11.6672   26.5378 C   0  0  0  0  0  0  0  0  0  0  0  0
    7.7813  -12.3116   25.3098 C   0  0  0  0  0  0  0  0  0  0  0  0
    9.2051  -15.3320   24.0683 C   0  0  0  0  0  0  0  0  0  0  0  0
    9.5893  -14.9093   25.1849 O   0  0  0  0  0  0  0  0  0  0  0  0
   13.5097  -18.4997   24.5172 N   0  0  0  0  0  0  0  0  0  0  0  0
   13.2336  -17.0796   24.6571 C   0  0  0  0  0  0  0  0  0  0  0  0
   14.0256  -16.4354   25.3858 O   0  0  0  0  0  0  0  0  0  0  0  0
   12.0675  -16.5381   23.9418 C   0  0  0  0  0  0  0  0  0  0  0  0
   10.8292  -17.2817   24.2586 C   0  0  2  0  0  0  0  0  0  0  0  0
    9.6517  -16.6084   23.6479 N   0  0  0  0  0  0  0  0  0  0  0  0
   10.5762  -17.4155   25.7187 C   0  0  0  0  0  0  0  0  0  0  0  0
   10.4050  -18.5998   26.1745 O   0  0  0  0  0  0  0  0  0  0  0  0
   10.5131  -16.3802   26.6090 O   0  0  0  0  0  0  0  0  0  0  0  0
  2  1  1  1
  2  3  1  0
  3  4  1  0
  4  5  1  0
  6  5  1  0
  7  6  1  0
  8  9  2  0
  8  2  1  0
 10  8  1  0
 11 10  1  0
 11 12  1  1
 13 14  2  0
 13 12  1  0
 15 14  1  0
 16 15  2  0
 17 16  1  0
 17 18  2  0
 18 13  1  0
 19 26  1  0
 19 11  1  0
 20 19  2  0
 21 22  1  0
 22 23  2  0
 22 24  1  0
 25 24  1  1
 25 26  1  0
 25 27  1  0
 27 29  1  0
 28 27  2  0
M  END
$$$$
