KFN.pdb
     RDKit          3D

 29 29  0  0  1  0  0  0  0  0999 V2000
    9.5061  -17.2185   19.5913 N   0  0  0  0  0  0  0  0  0  0  0  0
    9.2187  -17.6819   20.9319 C   0  0  1  0  0  0  0  0  0  0  0  0
   10.2732  -18.6643   21.3874 C   0  0  0  0  0  0  0  0  0  0  0  0
   10.7451  -19.5436   20.2620 C   0  0  0  0  0  0  0  0  0  0  0  0
   11.3573  -20.8095   20.8025 C   0  0  0  0  0  0  0  0  0  0  0  0
   11.9333  -21.6458   19.6503 C   0  0  0  0  0  0  0  0  0  0  0  0
   12.4668  -22.8483   20.2357 N   0  0  0  0  0  0  0  0  0  0  0  0
    9.2599  -16.5305   21.9025 C   0  0  0  0  0  0  0  0  0  0  0  0
   10.2052  -15.6876   21.8775 O   0  0  0  0  0  0  0  0  0  0  0  0
    8.2536  -16.3311   22.8852 N   0  0  0  0  0  0  0  0  0  0  0  0
    8.2755  -15.2634   23.8402 C   0  0  1  0  0  0  0  0  0  0  0  0
    7.0494  -15.1609   24.6889 C   0  0  0  0  0  0  0  0  0  0  0  0
    6.9967  -13.9695   25.5377 C   0  0  0  0  0  0  0  0  0  0  0  0
    6.3079  -12.8261   25.1781 C   0  0  0  0  0  0  0  0  0  0  0  0
    6.2713  -11.7079   25.9949 C   0  0  0  0  0  0  0  0  0  0  0  0
    6.9246  -11.6887   27.2082 C   0  0  0  0  0  0  0  0  0  0  0  0
    7.6150  -12.8241   27.5768 C   0  0  0  0  0  0  0  0  0  0  0  0
    7.6489  -13.9462   26.7521 C   0  0  0  0  0  0  0  0  0  0  0  0
    9.5400  -15.3255   24.6305 C   0  0  0  0  0  0  0  0  0  0  0  0
   10.2837  -14.3176   24.6936 O   0  0  0  0  0  0  0  0  0  0  0  0
   10.4034  -16.5468   30.0053 N   0  0  0  0  0  0  0  0  0  0  0  0
   10.8141  -15.7116   28.8891 C   0  0  0  0  0  0  0  0  0  0  0  0
   11.8208  -14.9894   29.0848 O   0  0  0  0  0  0  0  0  0  0  0  0
   10.0221  -15.7896   27.6516 C   0  0  0  0  0  0  0  0  0  0  0  0
   10.7688  -16.4457   26.5567 C   0  0  2  0  0  0  0  0  0  0  0  0
    9.9397  -16.4945   25.3227 N   0  0  0  0  0  0  0  0  0  0  0  0
   11.1946  -17.8343   26.8798 C   0  0  0  0  0  0  0  0  0  0  0  0
   10.5624  -18.7869   26.3031 O   0  0  0  0  0  0  0  0  0  0  0  0
   12.2027  -18.1732   27.7384 O   0  0  0  0  0  0  0  0  0  0  0  0
  2  1  1  6
  2  3  1  0
  3  4  1  0
  4  5  1  0
  6  5  1  0
  7  6  1  0
  8  9  2  0
  8  2  1  0
 10  8  1  0
 11 10  1  0
 11 12  1  1
 13 14  2  0
 13 12  1  0
 15 14  1  0
 16 15  2  0
 17 16  1  0
 17 18  2  0
 18 13  1  0
 19 26  1  0
 19 11  1  0
 20 19  2  0
 21 22  1  0
 22 23  2  0
 22 24  1  0
 25 24  1  1
 25 26  1  0
 25 27  1  0
 27 29  1  0
 28 27  2  0
M  END
$$$$
