KFN.pdb
     RDKit          3D

 29 29  0  0  1  0  0  0  0  0999 V2000
    9.9608  -16.5824   19.0282 N   0  0  0  0  0  0  0  0  0  0  0  0
    8.7844  -16.7216   19.8595 C   0  0  1  0  0  0  0  0  0  0  0  0
    8.5598  -18.1732   20.2162 C   0  0  0  0  0  0  0  0  0  0  0  0
    9.8414  -18.9603   20.1993 C   0  0  0  0  0  0  0  0  0  0  0  0
    9.6549  -20.2562   19.4543 C   0  0  0  0  0  0  0  0  0  0  0  0
   10.9472  -21.0842   19.5125 C   0  0  0  0  0  0  0  0  0  0  0  0
   10.6609  -22.3465   18.8817 N   0  0  0  0  0  0  0  0  0  0  0  0
    8.9744  -15.9866   21.1607 C   0  0  0  0  0  0  0  0  0  0  0  0
   10.1063  -15.9432   21.7281 O   0  0  0  0  0  0  0  0  0  0  0  0
    7.9081  -15.3114   21.8127 N   0  0  0  0  0  0  0  0  0  0  0  0
    8.0318  -14.6790   23.0923 C   0  0  1  0  0  0  0  0  0  0  0  0
    6.8597  -13.8407   23.4893 C   0  0  0  0  0  0  0  0  0  0  0  0
    6.9869  -13.2016   24.8000 C   0  0  0  0  0  0  0  0  0  0  0  0
    6.3617  -13.6891   25.9325 C   0  0  0  0  0  0  0  0  0  0  0  0
    6.4933  -13.0688   27.1640 C   0  0  0  0  0  0  0  0  0  0  0  0
    7.2582  -11.9320   27.3124 C   0  0  0  0  0  0  0  0  0  0  0  0
    7.8864  -11.4370   26.1890 C   0  0  0  0  0  0  0  0  0  0  0  0
    7.7511  -12.0643   24.9526 C   0  0  0  0  0  0  0  0  0  0  0  0
    8.4081  -15.6957   24.1181 C   0  0  0  0  0  0  0  0  0  0  0  0
    7.7376  -16.7505   24.2229 O   0  0  0  0  0  0  0  0  0  0  0  0
   13.6882  -18.0247   25.7535 N   0  0  0  0  0  0  0  0  0  0  0  0
   12.2759  -17.8267   26.0337 C   0  0  0  0  0  0  0  0  0  0  0  0
   11.7708  -18.5999   26.8825 O   0  0  0  0  0  0  0  0  0  0  0  0
   11.5804  -16.7536   25.3061 C   0  0  0  0  0  0  0  0  0  0  0  0
   10.1587  -16.6493   25.6995 C   0  0  2  0  0  0  0  0  0  0  0  0
    9.5085  -15.5145   24.9907 N   0  0  0  0  0  0  0  0  0  0  0  0
    9.9619  -16.4518   27.1611 C   0  0  0  0  0  0  0  0  0  0  0  0
    9.7865  -15.2506   27.5686 O   0  0  0  0  0  0  0  0  0  0  0  0
    9.9525  -17.4456   28.0996 O   0  0  0  0  0  0  0  0  0  0  0  0
  2  1  1  6
  2  3  1  0
  3  4  1  0
  4  5  1  0
  6  5  1  0
  7  6  1  0
  8  9  2  0
  8  2  1  0
 10  8  1  0
 11 10  1  0
 11 12  1  1
 13 14  2  0
 13 12  1  0
 15 14  1  0
 16 15  2  0
 17 16  1  0
 17 18  2  0
 18 13  1  0
 19 26  1  0
 19 11  1  0
 20 19  2  0
 21 22  1  0
 22 23  2  0
 22 24  1  0
 25 24  1  1
 25 26  1  0
 25 27  1  0
 27 29  1  0
 28 27  2  0
M  END
$$$$
