KFN.pdb
     RDKit          3D

 29 29  0  0  1  0  0  0  0  0999 V2000
    8.1529  -16.5976   19.3286 N   0  0  0  0  0  0  0  0  0  0  0  0
    9.2215  -15.6337   19.4820 C   0  0  1  0  0  0  0  0  0  0  0  0
    8.9942  -14.4462   18.5749 C   0  0  0  0  0  0  0  0  0  0  0  0
    8.8420  -14.8591   17.1367 C   0  0  0  0  0  0  0  0  0  0  0  0
    8.5262  -13.6644   16.2752 C   0  0  0  0  0  0  0  0  0  0  0  0
    8.4588  -14.0859   14.7999 C   0  0  0  0  0  0  0  0  0  0  0  0
    7.0634  -14.1744   14.4561 N   0  0  0  0  0  0  0  0  0  0  0  0
    9.2433  -15.0978   20.8898 C   0  0  0  0  0  0  0  0  0  0  0  0
   10.1962  -14.3693   21.2976 O   0  0  0  0  0  0  0  0  0  0  0  0
    8.2097  -15.3772   21.8233 N   0  0  0  0  0  0  0  0  0  0  0  0
    8.2032  -14.8916   23.1713 C   0  0  1  0  0  0  0  0  0  0  0  0
    6.9131  -14.2743   23.6053 C   0  0  0  0  0  0  0  0  0  0  0  0
    6.9565  -13.6421   24.9249 C   0  0  0  0  0  0  0  0  0  0  0  0
    6.3256  -14.1791   26.0315 C   0  0  0  0  0  0  0  0  0  0  0  0
    6.3773  -13.5646   27.2718 C   0  0  0  0  0  0  0  0  0  0  0  0
    7.0644  -12.3842   27.4554 C   0  0  0  0  0  0  0  0  0  0  0  0
    7.6975  -11.8396   26.3580 C   0  0  0  0  0  0  0  0  0  0  0  0
    7.6428  -12.4612   25.1126 C   0  0  0  0  0  0  0  0  0  0  0  0
    8.6867  -15.9632   24.0909 C   0  0  0  0  0  0  0  0  0  0  0  0
    8.1411  -17.0923   24.0707 O   0  0  0  0  0  0  0  0  0  0  0  0
   12.4053  -17.0065   23.1672 N   0  0  0  0  0  0  0  0  0  0  0  0
   12.0704  -17.7468   24.3723 C   0  0  0  0  0  0  0  0  0  0  0  0
   12.0624  -18.9965   24.2646 O   0  0  0  0  0  0  0  0  0  0  0  0
   11.7759  -16.9727   25.5883 C   0  0  0  0  0  0  0  0  0  0  0  0
   10.3218  -16.8494   25.8275 C   0  0  2  0  0  0  0  0  0  0  0  0
    9.7530  -15.7530   24.9986 N   0  0  0  0  0  0  0  0  0  0  0  0
    9.9767  -16.5775   27.2491 C   0  0  0  0  0  0  0  0  0  0  0  0
   10.3218  -17.4587   28.1116 O   0  0  0  0  0  0  0  0  0  0  0  0
    9.3243  -15.4667   27.7064 O   0  0  0  0  0  0  0  0  0  0  0  0
  2  1  1  1
  2  3  1  0
  3  4  1  0
  4  5  1  0
  6  5  1  0
  7  6  1  0
  8  9  2  0
  8  2  1  0
 10  8  1  0
 11 10  1  0
 11 12  1  1
 13 14  2  0
 13 12  1  0
 15 14  1  0
 16 15  2  0
 17 16  1  0
 17 18  2  0
 18 13  1  0
 19 26  1  0
 19 11  1  0
 20 19  2  0
 21 22  1  0
 22 23  2  0
 22 24  1  0
 25 24  1  1
 25 26  1  0
 25 27  1  0
 27 29  1  0
 28 27  2  0
M  END
$$$$
