KFN.pdb
     RDKit          3D

 29 29  0  0  1  0  0  0  0  0999 V2000
    7.1987  -15.6914   20.5228 N   0  0  0  0  0  0  0  0  0  0  0  0
    8.4456  -14.9609   20.4441 C   0  0  1  0  0  0  0  0  0  0  0  0
    8.2207  -13.5992   19.8279 C   0  0  0  0  0  0  0  0  0  0  0  0
    7.6078  -13.6971   18.4578 C   0  0  0  0  0  0  0  0  0  0  0  0
    8.6553  -13.4900   17.3951 C   0  0  0  0  0  0  0  0  0  0  0  0
    8.0024  -13.5126   16.0051 C   0  0  0  0  0  0  0  0  0  0  0  0
    9.0458  -13.2395   15.0512 N   0  0  0  0  0  0  0  0  0  0  0  0
    8.9972  -14.7190   21.8249 C   0  0  0  0  0  0  0  0  0  0  0  0
   10.1339  -14.1847   21.9908 O   0  0  0  0  0  0  0  0  0  0  0  0
    8.2813  -15.0726   22.9998 N   0  0  0  0  0  0  0  0  0  0  0  0
    8.8525  -15.0571   24.3137 C   0  0  1  0  0  0  0  0  0  0  0  0
    7.9247  -14.5968   25.3914 C   0  0  0  0  0  0  0  0  0  0  0  0
    8.5363  -14.4986   26.7177 C   0  0  0  0  0  0  0  0  0  0  0  0
    8.7164  -15.5950   27.5402 C   0  0  0  0  0  0  0  0  0  0  0  0
    9.2961  -15.4811   28.7930 C   0  0  0  0  0  0  0  0  0  0  0  0
    9.7204  -14.2617   29.2749 C   0  0  0  0  0  0  0  0  0  0  0  0
    9.5456  -13.1611   28.4625 C   0  0  0  0  0  0  0  0  0  0  0  0
    8.9620  -13.2805   27.2033 C   0  0  0  0  0  0  0  0  0  0  0  0
    9.4840  -16.3788   24.5998 C   0  0  0  0  0  0  0  0  0  0  0  0
    8.7896  -17.4223   24.5544 O   0  0  0  0  0  0  0  0  0  0  0  0
   13.0637  -16.9999   22.1254 N   0  0  0  0  0  0  0  0  0  0  0  0
   12.3709  -17.9778   22.9475 C   0  0  0  0  0  0  0  0  0  0  0  0
   11.5512  -18.7156   22.3500 O   0  0  0  0  0  0  0  0  0  0  0  0
   12.6906  -18.0106   24.3833 C   0  0  0  0  0  0  0  0  0  0  0  0
   11.4886  -17.8170   25.2227 C   0  0  2  0  0  0  0  0  0  0  0  0
   10.8566  -16.5038   24.9249 N   0  0  0  0  0  0  0  0  0  0  0  0
   11.7712  -17.8708   26.6826 C   0  0  0  0  0  0  0  0  0  0  0  0
   11.2669  -18.8482   27.3383 O   0  0  0  0  0  0  0  0  0  0  0  0
   12.5235  -16.9649   27.3768 O   0  0  0  0  0  0  0  0  0  0  0  0
  2  1  1  1
  2  3  1  0
  3  4  1  0
  4  5  1  0
  6  5  1  0
  7  6  1  0
  8  9  2  0
  8  2  1  0
 10  8  1  0
 11 10  1  0
 11 12  1  1
 13 14  2  0
 13 12  1  0
 15 14  1  0
 16 15  2  0
 17 16  1  0
 17 18  2  0
 18 13  1  0
 19 26  1  0
 19 11  1  0
 20 19  2  0
 21 22  1  0
 22 23  2  0
 22 24  1  0
 25 24  1  6
 25 26  1  0
 25 27  1  0
 27 29  1  0
 28 27  2  0
M  END
$$$$
