KFN.pdb
     RDKit          3D

 29 29  0  0  1  0  0  0  0  0999 V2000
    7.9837  -12.8292   19.1340 N   0  0  0  0  0  0  0  0  0  0  0  0
    7.6923  -14.1309   19.6953 C   0  0  1  0  0  0  0  0  0  0  0  0
    8.3906  -15.2138   18.9051 C   0  0  0  0  0  0  0  0  0  0  0  0
    7.7850  -15.3919   17.5399 C   0  0  0  0  0  0  0  0  0  0  0  0
    8.8632  -15.5809   16.5049 C   0  0  0  0  0  0  0  0  0  0  0  0
    8.2326  -15.7205   15.1115 C   0  0  0  0  0  0  0  0  0  0  0  0
    9.3183  -15.7708   14.1670 N   0  0  0  0  0  0  0  0  0  0  0  0
    8.2197  -14.2223   21.1035 C   0  0  0  0  0  0  0  0  0  0  0  0
    9.3702  -13.7832   21.4008 O   0  0  0  0  0  0  0  0  0  0  0  0
    7.4646  -14.7985   22.1598 N   0  0  0  0  0  0  0  0  0  0  0  0
    7.8843  -14.7973   23.5297 C   0  0  1  0  0  0  0  0  0  0  0  0
    6.7685  -14.7600   24.5235 C   0  0  0  0  0  0  0  0  0  0  0  0
    6.6984  -13.5281   25.3112 C   0  0  0  0  0  0  0  0  0  0  0  0
    7.7141  -12.5905   25.3232 C   0  0  0  0  0  0  0  0  0  0  0  0
    7.6295  -11.4313   26.0767 C   0  0  0  0  0  0  0  0  0  0  0  0
    6.5215  -11.1627   26.8511 C   0  0  0  0  0  0  0  0  0  0  0  0
    5.5021  -12.0915   26.8465 C   0  0  0  0  0  0  0  0  0  0  0  0
    5.5918  -13.2558   26.0871 C   0  0  0  0  0  0  0  0  0  0  0  0
    8.8452  -15.9160   23.7590 C   0  0  0  0  0  0  0  0  0  0  0  0
    8.5055  -17.0925   23.4882 O   0  0  0  0  0  0  0  0  0  0  0  0
   11.9477  -17.5211   22.2065 N   0  0  0  0  0  0  0  0  0  0  0  0
   12.9106  -16.8544   23.0671 C   0  0  0  0  0  0  0  0  0  0  0  0
   14.0558  -16.6871   22.5835 O   0  0  0  0  0  0  0  0  0  0  0  0
   12.4591  -16.4441   24.4060 C   0  0  0  0  0  0  0  0  0  0  0  0
   11.0500  -16.8179   24.6538 C   0  0  2  0  0  0  0  0  0  0  0  0
   10.1449  -15.6989   24.2777 N   0  0  0  0  0  0  0  0  0  0  0  0
   10.7732  -17.1766   26.0710 C   0  0  0  0  0  0  0  0  0  0  0  0
   11.4222  -18.1667   26.5591 O   0  0  0  0  0  0  0  0  0  0  0  0
    9.8861  -16.5363   26.8906 O   0  0  0  0  0  0  0  0  0  0  0  0
  2  1  1  6
  2  3  1  0
  3  4  1  0
  4  5  1  0
  6  5  1  0
  7  6  1  0
  8  9  2  0
  8  2  1  0
 10  8  1  0
 11 10  1  0
 11 12  1  1
 13 14  2  0
 13 12  1  0
 15 14  1  0
 16 15  2  0
 17 16  1  0
 17 18  2  0
 18 13  1  0
 19 26  1  0
 19 11  1  0
 20 19  2  0
 21 22  1  0
 22 23  2  0
 22 24  1  0
 25 24  1  1
 25 26  1  0
 25 27  1  0
 27 29  1  0
 28 27  2  0
M  END
$$$$
