KFN.pdb
     RDKit          3D

 29 29  0  0  1  0  0  0  0  0999 V2000
    7.5996  -17.9820   20.3355 N   0  0  0  0  0  0  0  0  0  0  0  0
    9.0069  -17.6677   20.4594 C   0  0  1  0  0  0  0  0  0  0  0  0
    9.5484  -17.1486   19.1472 C   0  0  0  0  0  0  0  0  0  0  0  0
   11.0488  -17.0444   19.1607 C   0  0  0  0  0  0  0  0  0  0  0  0
   11.6674  -18.2493   18.5014 C   0  0  0  0  0  0  0  0  0  0  0  0
   13.1945  -18.0928   18.4520 C   0  0  0  0  0  0  0  0  0  0  0  0
   13.7207  -19.3183   17.9093 N   0  0  0  0  0  0  0  0  0  0  0  0
    9.2096  -16.5688   21.4697 C   0  0  0  0  0  0  0  0  0  0  0  0
   10.3727  -16.2020   21.8126 O   0  0  0  0  0  0  0  0  0  0  0  0
    8.1212  -15.8936   22.0841 N   0  0  0  0  0  0  0  0  0  0  0  0
    8.2447  -15.1030   23.2725 C   0  0  1  0  0  0  0  0  0  0  0  0
    7.1188  -14.1480   23.5057 C   0  0  0  0  0  0  0  0  0  0  0  0
    7.2099  -13.3969   24.7588 C   0  0  0  0  0  0  0  0  0  0  0  0
    8.1381  -12.3927   24.9620 C   0  0  0  0  0  0  0  0  0  0  0  0
    8.2093  -11.6943   26.1560 C   0  0  0  0  0  0  0  0  0  0  0  0
    7.3520  -11.9734   27.1983 C   0  0  0  0  0  0  0  0  0  0  0  0
    6.4219  -12.9733   27.0064 C   0  0  0  0  0  0  0  0  0  0  0  0
    6.3541  -13.6730   25.8038 C   0  0  0  0  0  0  0  0  0  0  0  0
    8.5184  -15.9931   24.4388 C   0  0  0  0  0  0  0  0  0  0  0  0
    7.6843  -16.8739   24.7576 O   0  0  0  0  0  0  0  0  0  0  0  0
   11.3809  -19.8399   26.3750 N   0  0  0  0  0  0  0  0  0  0  0  0
   12.0763  -18.5645   26.3274 C   0  0  0  0  0  0  0  0  0  0  0  0
   13.1236  -18.4842   27.0130 O   0  0  0  0  0  0  0  0  0  0  0  0
   11.4952  -17.5018   25.4921 C   0  0  0  0  0  0  0  0  0  0  0  0
   10.2172  -17.0014   26.0426 C   0  0  2  0  0  0  0  0  0  0  0  0
    9.6999  -15.8815   25.2113 N   0  0  0  0  0  0  0  0  0  0  0  0
   10.3254  -16.5201   27.4464 C   0  0  0  0  0  0  0  0  0  0  0  0
   10.4465  -17.4093   28.3598 O   0  0  0  0  0  0  0  0  0  0  0  0
   10.3068  -15.2104   27.8375 O   0  0  0  0  0  0  0  0  0  0  0  0
  2  1  1  6
  2  3  1  0
  3  4  1  0
  4  5  1  0
  6  5  1  0
  7  6  1  0
  8  9  2  0
  8  2  1  0
 10  8  1  0
 11 10  1  0
 11 12  1  1
 13 14  2  0
 13 12  1  0
 15 14  1  0
 16 15  2  0
 17 16  1  0
 17 18  2  0
 18 13  1  0
 19 26  1  0
 19 11  1  0
 20 19  2  0
 21 22  1  0
 22 23  2  0
 22 24  1  0
 25 24  1  6
 25 26  1  0
 25 27  1  0
 27 29  1  0
 28 27  2  0
M  END
$$$$
