KFN.pdb
     RDKit          3D

 29 29  0  0  1  0  0  0  0  0999 V2000
    7.9737  -15.6632   19.0796 N   0  0  0  0  0  0  0  0  0  0  0  0
    8.9601  -14.6302   19.3131 C   0  0  1  0  0  0  0  0  0  0  0  0
    8.5872  -13.3678   18.5703 C   0  0  0  0  0  0  0  0  0  0  0  0
    8.8959  -13.4683   17.1017 C   0  0  0  0  0  0  0  0  0  0  0  0
    7.8309  -14.2628   16.3918 C   0  0  0  0  0  0  0  0  0  0  0  0
    8.1748  -14.3832   14.8998 C   0  0  0  0  0  0  0  0  0  0  0  0
    7.1274  -15.1633   14.2934 N   0  0  0  0  0  0  0  0  0  0  0  0
    9.0020  -14.2690   20.7751 C   0  0  0  0  0  0  0  0  0  0  0  0
    9.9340  -13.5510   21.2449 O   0  0  0  0  0  0  0  0  0  0  0  0
    8.0112  -14.7086   21.6932 N   0  0  0  0  0  0  0  0  0  0  0  0
    8.0183  -14.3808   23.0879 C   0  0  1  0  0  0  0  0  0  0  0  0
    6.9594  -13.4123   23.5060 C   0  0  0  0  0  0  0  0  0  0  0  0
    6.9845  -13.0618   24.9270 C   0  0  0  0  0  0  0  0  0  0  0  0
    6.0634  -13.5523   25.8337 C   0  0  0  0  0  0  0  0  0  0  0  0
    6.1032  -13.2074   27.1746 C   0  0  0  0  0  0  0  0  0  0  0  0
    7.0692  -12.3551   27.6640 C   0  0  0  0  0  0  0  0  0  0  0  0
    7.9933  -11.8597   26.7681 C   0  0  0  0  0  0  0  0  0  0  0  0
    7.9493  -12.2095   25.4204 C   0  0  0  0  0  0  0  0  0  0  0  0
    8.0267  -15.6355   23.8962 C   0  0  0  0  0  0  0  0  0  0  0  0
    7.1039  -16.4728   23.7537 O   0  0  0  0  0  0  0  0  0  0  0  0
    9.3665  -20.2130   25.1879 N   0  0  0  0  0  0  0  0  0  0  0  0
   10.2032  -19.4524   24.2749 C   0  0  0  0  0  0  0  0  0  0  0  0
   11.2112  -20.0496   23.8270 O   0  0  0  0  0  0  0  0  0  0  0  0
    9.7962  -18.0727   23.9658 C   0  0  0  0  0  0  0  0  0  0  0  0
    9.4397  -17.3144   25.1843 C   0  0  2  0  0  0  0  0  0  0  0  0
    9.0504  -15.9228   24.8314 N   0  0  0  0  0  0  0  0  0  0  0  0
   10.5417  -17.2447   26.1816 C   0  0  0  0  0  0  0  0  0  0  0  0
   10.4036  -17.9337   27.2520 O   0  0  0  0  0  0  0  0  0  0  0  0
   11.6852  -16.5079   26.0471 O   0  0  0  0  0  0  0  0  0  0  0  0
  2  1  1  1
  2  3  1  0
  3  4  1  0
  4  5  1  0
  6  5  1  0
  7  6  1  0
  8  9  2  0
  8  2  1  0
 10  8  1  0
 11 10  1  0
 11 12  1  1
 13 14  2  0
 13 12  1  0
 15 14  1  0
 16 15  2  0
 17 16  1  0
 17 18  2  0
 18 13  1  0
 19 26  1  0
 19 11  1  0
 20 19  2  0
 21 22  1  0
 22 23  2  0
 22 24  1  0
 25 24  1  6
 25 26  1  0
 25 27  1  0
 27 29  1  0
 28 27  2  0
M  END
$$$$
