KFN.pdb
     RDKit          3D

 29 29  0  0  1  0  0  0  0  0999 V2000
    7.3123  -16.2632   18.6103 N   0  0  0  0  0  0  0  0  0  0  0  0
    8.5474  -16.5375   19.3129 C   0  0  1  0  0  0  0  0  0  0  0  0
    9.7346  -16.2638   18.4183 C   0  0  0  0  0  0  0  0  0  0  0  0
    9.4977  -16.7371   17.0104 C   0  0  0  0  0  0  0  0  0  0  0  0
   10.6375  -16.3243   16.1161 C   0  0  0  0  0  0  0  0  0  0  0  0
   10.3921  -16.8316   14.6874 C   0  0  0  0  0  0  0  0  0  0  0  0
   11.4756  -16.3365   13.8785 N   0  0  0  0  0  0  0  0  0  0  0  0
    8.6873  -15.6211   20.5005 C   0  0  0  0  0  0  0  0  0  0  0  0
    9.6391  -14.7885   20.5754 O   0  0  0  0  0  0  0  0  0  0  0  0
    7.7711  -15.6416   21.5858 N   0  0  0  0  0  0  0  0  0  0  0  0
    8.0051  -14.9828   22.8364 C   0  0  1  0  0  0  0  0  0  0  0  0
    7.0101  -13.9208   23.1773 C   0  0  0  0  0  0  0  0  0  0  0  0
    7.2251  -13.2825   24.4770 C   0  0  0  0  0  0  0  0  0  0  0  0
    8.2223  -12.3503   24.6954 C   0  0  0  0  0  0  0  0  0  0  0  0
    8.4107  -11.7585   25.9335 C   0  0  0  0  0  0  0  0  0  0  0  0
    7.6063  -12.0766   27.0064 C   0  0  0  0  0  0  0  0  0  0  0  0
    6.6083  -13.0055   26.7996 C   0  0  0  0  0  0  0  0  0  0  0  0
    6.4227  -13.5980   25.5527 C   0  0  0  0  0  0  0  0  0  0  0  0
    8.1774  -16.0015   23.9134 C   0  0  0  0  0  0  0  0  0  0  0  0
    7.4938  -17.0528   23.8897 O   0  0  0  0  0  0  0  0  0  0  0  0
   11.5287  -19.6051   24.5942 N   0  0  0  0  0  0  0  0  0  0  0  0
   11.9630  -18.2182   24.5839 C   0  0  0  0  0  0  0  0  0  0  0  0
   13.1649  -18.0169   24.8809 O   0  0  0  0  0  0  0  0  0  0  0  0
   10.9669  -17.1943   24.2317 C   0  0  0  0  0  0  0  0  0  0  0  0
   10.0736  -16.8772   25.3668 C   0  0  2  0  0  0  0  0  0  0  0  0
    9.0959  -15.8262   24.9768 N   0  0  0  0  0  0  0  0  0  0  0  0
   10.7991  -16.4042   26.5767 C   0  0  0  0  0  0  0  0  0  0  0  0
   10.9848  -17.2555   27.5150 O   0  0  0  0  0  0  0  0  0  0  0  0
   11.2818  -15.1394   26.7658 O   0  0  0  0  0  0  0  0  0  0  0  0
  2  1  1  6
  2  3  1  0
  3  4  1  0
  4  5  1  0
  6  5  1  0
  7  6  1  0
  8  9  2  0
  8  2  1  0
 10  8  1  0
 11 10  1  0
 11 12  1  1
 13 14  2  0
 13 12  1  0
 15 14  1  0
 16 15  2  0
 17 16  1  0
 17 18  2  0
 18 13  1  0
 19 26  1  0
 19 11  1  0
 20 19  2  0
 21 22  1  0
 22 23  2  0
 22 24  1  0
 25 24  1  6
 25 26  1  0
 25 27  1  0
 27 29  1  0
 28 27  2  0
M  END
$$$$
