KFN.pdb
     RDKit          3D

 29 29  0  0  1  0  0  0  0  0999 V2000
    7.6891  -17.9366   20.3885 N   0  0  0  0  0  0  0  0  0  0  0  0
    8.9390  -17.2194   20.2555 C   0  0  1  0  0  0  0  0  0  0  0  0
    8.9486  -16.4094   18.9794 C   0  0  0  0  0  0  0  0  0  0  0  0
    9.0454  -17.2842   17.7597 C   0  0  0  0  0  0  0  0  0  0  0  0
    7.9020  -17.0066   16.8190 C   0  0  0  0  0  0  0  0  0  0  0  0
    8.4085  -16.2315   15.5937 C   0  0  0  0  0  0  0  0  0  0  0  0
    9.1943  -17.1529   14.8146 N   0  0  0  0  0  0  0  0  0  0  0  0
    9.1003  -16.2369   21.3861 C   0  0  0  0  0  0  0  0  0  0  0  0
   10.2035  -15.6478   21.5882 O   0  0  0  0  0  0  0  0  0  0  0  0
    8.0375  -15.9227   22.2746 N   0  0  0  0  0  0  0  0  0  0  0  0
    8.1580  -14.9988   23.3631 C   0  0  1  0  0  0  0  0  0  0  0  0
    6.8580  -14.4794   23.8868 C   0  0  0  0  0  0  0  0  0  0  0  0
    6.9853  -13.5335   24.9967 C   0  0  0  0  0  0  0  0  0  0  0  0
    6.1077  -13.5127   26.0646 C   0  0  0  0  0  0  0  0  0  0  0  0
    6.2444  -12.6084   27.1050 C   0  0  0  0  0  0  0  0  0  0  0  0
    7.2678  -11.6855   27.1186 C   0  0  0  0  0  0  0  0  0  0  0  0
    8.1492  -11.6975   26.0580 C   0  0  0  0  0  0  0  0  0  0  0  0
    8.0077  -12.6088   25.0141 C   0  0  0  0  0  0  0  0  0  0  0  0
    9.0319  -15.5848   24.4216 C   0  0  0  0  0  0  0  0  0  0  0  0
    9.7361  -14.8303   25.1343 O   0  0  0  0  0  0  0  0  0  0  0  0
    8.6191  -19.7076   28.6757 N   0  0  0  0  0  0  0  0  0  0  0  0
    9.3824  -18.7515   27.8912 C   0  0  0  0  0  0  0  0  0  0  0  0
   10.2806  -18.1288   28.5068 O   0  0  0  0  0  0  0  0  0  0  0  0
    9.0354  -18.6048   26.4690 C   0  0  0  0  0  0  0  0  0  0  0  0
    9.8442  -17.5588   25.8067 C   0  0  2  0  0  0  0  0  0  0  0  0
    9.0985  -16.9795   24.6573 N   0  0  0  0  0  0  0  0  0  0  0  0
   11.1538  -18.0536   25.3028 C   0  0  0  0  0  0  0  0  0  0  0  0
   11.9481  -18.5770   26.1599 O   0  0  0  0  0  0  0  0  0  0  0  0
   11.5748  -17.9955   24.0036 O   0  0  0  0  0  0  0  0  0  0  0  0
  2  1  1  1
  2  3  1  0
  3  4  1  0
  4  5  1  0
  6  5  1  0
  7  6  1  0
  8  9  2  0
  8  2  1  0
 10  8  1  0
 11 10  1  0
 11 12  1  1
 13 14  2  0
 13 12  1  0
 15 14  1  0
 16 15  2  0
 17 16  1  0
 17 18  2  0
 18 13  1  0
 19 26  1  0
 19 11  1  0
 20 19  2  0
 21 22  1  0
 22 23  2  0
 22 24  1  0
 25 24  1  6
 25 26  1  0
 25 27  1  0
 27 29  1  0
 28 27  2  0
M  END
$$$$
