KFN.pdb
     RDKit          3D

 29 29  0  0  1  0  0  0  0  0999 V2000
    7.1522  -15.9243   21.2903 N   0  0  0  0  0  0  0  0  0  0  0  0
    8.3924  -15.1794   21.2510 C   0  0  1  0  0  0  0  0  0  0  0  0
    8.1590  -13.7966   20.6872 C   0  0  0  0  0  0  0  0  0  0  0  0
    7.4387  -13.8425   19.3675 C   0  0  0  0  0  0  0  0  0  0  0  0
    8.3525  -13.4063   18.2522 C   0  0  0  0  0  0  0  0  0  0  0  0
    7.5638  -13.3060   16.9381 C   0  0  0  0  0  0  0  0  0  0  0  0
    8.4845  -12.8371   15.9353 N   0  0  0  0  0  0  0  0  0  0  0  0
    8.9304  -14.9870   22.6449 C   0  0  0  0  0  0  0  0  0  0  0  0
   10.0144  -14.3634   22.8473 O   0  0  0  0  0  0  0  0  0  0  0  0
    8.2595  -15.4882   23.7923 N   0  0  0  0  0  0  0  0  0  0  0  0
    8.7842  -15.3987   25.1226 C   0  0  1  0  0  0  0  0  0  0  0  0
    7.7553  -15.1847   26.1854 C   0  0  0  0  0  0  0  0  0  0  0  0
    7.2598  -13.8107   26.2824 C   0  0  0  0  0  0  0  0  0  0  0  0
    5.9767  -13.5070   26.6978 C   0  0  0  0  0  0  0  0  0  0  0  0
    5.5261  -12.1998   26.7816 C   0  0  0  0  0  0  0  0  0  0  0  0
    6.3438  -11.1406   26.4521 C   0  0  0  0  0  0  0  0  0  0  0  0
    7.6259  -11.4321   26.0364 C   0  0  0  0  0  0  0  0  0  0  0  0
    8.0746  -12.7483   25.9537 C   0  0  0  0  0  0  0  0  0  0  0  0
    9.6764  -16.5654   25.3875 C   0  0  0  0  0  0  0  0  0  0  0  0
   10.1488  -16.7383   26.5364 O   0  0  0  0  0  0  0  0  0  0  0  0
   11.3103  -21.9310   23.0681 N   0  0  0  0  0  0  0  0  0  0  0  0
   11.0723  -21.0982   24.2352 C   0  0  0  0  0  0  0  0  0  0  0  0
   11.6126  -21.4793   25.3011 O   0  0  0  0  0  0  0  0  0  0  0  0
   10.2318  -19.9033   24.0603 C   0  0  0  0  0  0  0  0  0  0  0  0
   10.8527  -18.6984   24.6514 C   0  0  2  0  0  0  0  0  0  0  0  0
   10.0157  -17.4993   24.3786 N   0  0  0  0  0  0  0  0  0  0  0  0
   12.2238  -18.4279   24.1409 C   0  0  0  0  0  0  0  0  0  0  0  0
   13.1323  -19.2830   24.4290 O   0  0  0  0  0  0  0  0  0  0  0  0
   12.5897  -17.3449   23.3914 O   0  0  0  0  0  0  0  0  0  0  0  0
  2  1  1  1
  2  3  1  0
  3  4  1  0
  4  5  1  0
  6  5  1  0
  7  6  1  0
  8  9  2  0
  8  2  1  0
 10  8  1  0
 11 10  1  0
 11 12  1  1
 13 14  2  0
 13 12  1  0
 15 14  1  0
 16 15  2  0
 17 16  1  0
 17 18  2  0
 18 13  1  0
 19 26  1  0
 19 11  1  0
 20 19  2  0
 21 22  1  0
 22 23  2  0
 22 24  1  0
 25 24  1  6
 25 26  1  0
 25 27  1  0
 27 29  1  0
 28 27  2  0
M  END
$$$$
