KFN.pdb
     RDKit          3D

 29 29  0  0  1  0  0  0  0  0999 V2000
    9.9689  -16.2768   19.1075 N   0  0  0  0  0  0  0  0  0  0  0  0
    9.0220  -16.7361   20.1009 C   0  0  1  0  0  0  0  0  0  0  0  0
    9.2723  -18.1886   20.4358 C   0  0  0  0  0  0  0  0  0  0  0  0
    9.0082  -19.0894   19.2606 C   0  0  0  0  0  0  0  0  0  0  0  0
    8.2774  -20.3309   19.7010 C   0  0  0  0  0  0  0  0  0  0  0  0
    7.9754  -21.2196   18.4854 C   0  0  0  0  0  0  0  0  0  0  0  0
    7.1662  -22.3121   18.9598 N   0  0  0  0  0  0  0  0  0  0  0  0
    9.1962  -15.9659   21.3839 C   0  0  0  0  0  0  0  0  0  0  0  0
   10.3402  -15.8174   21.9073 O   0  0  0  0  0  0  0  0  0  0  0  0
    8.1008  -15.3725   22.0665 N   0  0  0  0  0  0  0  0  0  0  0  0
    8.2226  -14.6814   23.3156 C   0  0  1  0  0  0  0  0  0  0  0  0
    7.0509  -13.8239   23.6705 C   0  0  0  0  0  0  0  0  0  0  0  0
    7.1420  -13.1854   24.9845 C   0  0  0  0  0  0  0  0  0  0  0  0
    8.0673  -12.1997   25.2734 C   0  0  0  0  0  0  0  0  0  0  0  0
    8.1387  -11.6085   26.5240 C   0  0  0  0  0  0  0  0  0  0  0  0
    7.2843  -11.9809   27.5392 C   0  0  0  0  0  0  0  0  0  0  0  0
    6.3572  -12.9634   27.2619 C   0  0  0  0  0  0  0  0  0  0  0  0
    6.2892  -13.5551   26.0027 C   0  0  0  0  0  0  0  0  0  0  0  0
    8.5949  -15.6499   24.3884 C   0  0  0  0  0  0  0  0  0  0  0  0
    7.9450  -16.7149   24.5173 O   0  0  0  0  0  0  0  0  0  0  0  0
   12.2789  -19.1202   25.9477 N   0  0  0  0  0  0  0  0  0  0  0  0
   12.3515  -17.7603   26.4554 C   0  0  0  0  0  0  0  0  0  0  0  0
   12.9759  -17.6090   27.5327 O   0  0  0  0  0  0  0  0  0  0  0  0
   11.6952  -16.7033   25.6701 C   0  0  0  0  0  0  0  0  0  0  0  0
   10.2914  -16.4953   26.0861 C   0  0  2  0  0  0  0  0  0  0  0  0
    9.6689  -15.4112   25.2799 N   0  0  0  0  0  0  0  0  0  0  0  0
   10.1464  -16.1403   27.5237 C   0  0  0  0  0  0  0  0  0  0  0  0
    9.9844  -17.1058   28.3491 O   0  0  0  0  0  0  0  0  0  0  0  0
   10.1731  -14.8717   28.0321 O   0  0  0  0  0  0  0  0  0  0  0  0
  2  1  1  6
  2  3  1  0
  3  4  1  0
  4  5  1  0
  6  5  1  0
  7  6  1  0
  8  9  2  0
  8  2  1  0
 10  8  1  0
 11 10  1  0
 11 12  1  1
 13 14  2  0
 13 12  1  0
 15 14  1  0
 16 15  2  0
 17 16  1  0
 17 18  2  0
 18 13  1  0
 19 26  1  0
 19 11  1  0
 20 19  2  0
 21 22  1  0
 22 23  2  0
 22 24  1  0
 25 24  1  6
 25 26  1  0
 25 27  1  0
 27 29  1  0
 28 27  2  0
M  END
$$$$
