PNA.pdb
     RDKit          3D

 21 21  0  0  1  0  0  0  0  0999 V2000
   22.9189   -9.9559  -14.2314 N   0  0  0  0  0  0  0  0  0  0  0  0
   23.5994  -11.1661  -14.6501 C   0  0  0  0  0  0  0  0  0  0  0  0
   22.5419  -12.2017  -14.9111 C   0  0  0  0  0  0  0  0  0  0  0  0
   21.2741  -11.5310  -14.4963 C   0  0  0  0  0  0  0  0  0  0  0  0
   21.5653  -10.0605  -14.7386 C   0  0  1  0  0  0  0  0  0  0  0  0
   20.6162   -9.2256  -13.9916 C   0  0  0  0  0  0  0  0  0  0  0  0
   19.3998   -9.2258  -14.3002 O   0  0  0  0  0  0  0  0  0  0  0  0
   19.8404   -5.7448   -9.2571 N   0  0  0  0  0  0  0  0  0  0  0  0
   19.5305   -7.0058   -9.8324 C   0  0  0  0  0  0  0  0  0  0  0  0
   18.4077   -7.4974   -9.6194 O   0  0  0  0  0  0  0  0  0  0  0  0
   20.5166   -7.7102  -10.6595 C   0  0  0  0  0  0  0  0  0  0  0  0
   20.1841   -7.5692  -12.1475 C   0  0  2  0  0  0  0  0  0  0  0  0
   21.0533   -8.4203  -12.9283 N   0  0  0  0  0  0  0  0  0  0  0  0
   20.3474   -6.1604  -12.5347 C   0  0  0  0  0  0  0  0  0  0  0  0
   21.4176   -5.5158  -12.3925 O   0  0  0  0  0  0  0  0  0  0  0  0
   18.0541   -3.7243  -14.2630 C   0  0  0  0  0  0  0  0  0  0  0  0
   19.3887   -4.1605  -13.7073 C   0  0  2  0  0  0  0  0  0  0  0  0
   19.2459   -5.4673  -13.1042 N   0  0  0  0  0  0  0  0  0  0  0  0
   19.8977   -3.1768  -12.7217 C   0  0  0  0  0  0  0  0  0  0  0  0
   19.4071   -3.1155  -11.5623 O   0  0  0  0  0  0  0  0  0  0  0  0
   20.9161   -2.2969  -13.0237 O   0  0  0  0  0  0  0  0  0  0  0  0
  2  1  1  0
  3  4  1  0
  3  2  1  0
  4  5  1  0
  5  1  1  0
  5  6  1  1
  6 13  1  0
  7  6  2  0
  9  8  1  0
 10  9  2  0
 11  9  1  0
 12 11  1  1
 12 13  1  0
 12 14  1  0
 14 15  2  0
 14 18  1  0
 17 16  1  1
 17 19  1  0
 18 17  1  0
 19 21  1  0
 20 19  2  0
M  END
$$$$
