PNA.pdb
     RDKit          3D

 21 21  0  0  1  0  0  0  0  0999 V2000
   26.4462  -12.1551  -17.5289 N   0  0  0  0  0  0  0  0  0  0  0  0
   27.6744  -12.7443  -17.0319 C   0  0  0  0  0  0  0  0  0  0  0  0
   28.0274  -12.0265  -15.7595 C   0  0  0  0  0  0  0  0  0  0  0  0
   27.0015  -10.9459  -15.6619 C   0  0  0  0  0  0  0  0  0  0  0  0
   25.8048  -11.5386  -16.3847 C   0  0  1  0  0  0  0  0  0  0  0  0
   24.8663  -10.4764  -16.7677 C   0  0  0  0  0  0  0  0  0  0  0  0
   25.0618   -9.8112  -17.8137 O   0  0  0  0  0  0  0  0  0  0  0  0
   21.8254  -10.9663  -18.1625 N   0  0  0  0  0  0  0  0  0  0  0  0
   20.9473  -10.6650  -17.0878 C   0  0  0  0  0  0  0  0  0  0  0  0
   19.8306  -11.2129  -17.0602 O   0  0  0  0  0  0  0  0  0  0  0  0
   21.3524   -9.7271  -16.0347 C   0  0  0  0  0  0  0  0  0  0  0  0
   22.7597   -9.1836  -16.2970 C   0  0  2  0  0  0  0  0  0  0  0  0
   23.7441  -10.1918  -15.9743 N   0  0  0  0  0  0  0  0  0  0  0  0
   22.9587   -7.9785  -15.4788 C   0  0  0  0  0  0  0  0  0  0  0  0
   23.0598   -7.9933  -14.2256 O   0  0  0  0  0  0  0  0  0  0  0  0
   23.5556   -4.3732  -16.3706 C   0  0  0  0  0  0  0  0  0  0  0  0
   23.3382   -5.5003  -15.3893 C   0  0  2  0  0  0  0  0  0  0  0  0
   23.0446   -6.7136  -16.1197 N   0  0  0  0  0  0  0  0  0  0  0  0
   22.2430   -5.1745  -14.4445 C   0  0  0  0  0  0  0  0  0  0  0  0
   21.0615   -5.5468  -14.6769 O   0  0  0  0  0  0  0  0  0  0  0  0
   22.4636   -4.4601  -13.2855 O   0  0  0  0  0  0  0  0  0  0  0  0
  2  1  1  0
  3  4  1  0
  3  2  1  0
  4  5  1  0
  5  1  1  0
  5  6  1  6
  6 13  1  0
  7  6  2  0
  9  8  1  0
 10  9  2  0
 11  9  1  0
 12 11  1  1
 12 13  1  0
 12 14  1  0
 14 15  2  0
 14 18  1  0
 17 16  1  6
 17 19  1  0
 18 17  1  0
 19 21  1  0
 20 19  2  0
M  END
$$$$
