PNA.pdb
     RDKit          3D

 21 21  0  0  1  0  0  0  0  0999 V2000
   24.2106  -33.2193  -11.5658 N   0  0  0  0  0  0  0  0  0  0  0  0
   24.6814  -33.6243  -12.8762 C   0  0  0  0  0  0  0  0  0  0  0  0
   25.9279  -34.4378  -12.6676 C   0  0  0  0  0  0  0  0  0  0  0  0
   26.1721  -34.3478  -11.1973 C   0  0  0  0  0  0  0  0  0  0  0  0
   24.7772  -34.1655  -10.6255 C   0  0  1  0  0  0  0  0  0  0  0  0
   24.8544  -33.6284   -9.2611 C   0  0  0  0  0  0  0  0  0  0  0  0
   25.1686  -32.4279   -9.0744 O   0  0  0  0  0  0  0  0  0  0  0  0
   22.3434  -32.5544   -7.3306 N   0  0  0  0  0  0  0  0  0  0  0  0
   22.2184  -33.5870   -6.3637 C   0  0  0  0  0  0  0  0  0  0  0  0
   21.1217  -33.7423   -5.7971 O   0  0  0  0  0  0  0  0  0  0  0  0
   23.3608  -34.4499   -6.0427 C   0  0  0  0  0  0  0  0  0  0  0  0
   24.6200  -33.9892   -6.7821 C   0  0  2  0  0  0  0  0  0  0  0  0
   24.5796  -34.4451   -8.1532 N   0  0  0  0  0  0  0  0  0  0  0  0
   25.7977  -34.5285   -6.0868 C   0  0  0  0  0  0  0  0  0  0  0  0
   26.1117  -35.7461   -6.0849 O   0  0  0  0  0  0  0  0  0  0  0  0
   28.5718  -32.9118   -4.1232 C   0  0  0  0  0  0  0  0  0  0  0  0
   27.8111  -34.1045   -4.6515 C   0  0  2  0  0  0  0  0  0  0  0  0
   26.6442  -33.6414   -5.3695 N   0  0  0  0  0  0  0  0  0  0  0  0
   27.4248  -35.0160   -3.5478 C   0  0  0  0  0  0  0  0  0  0  0  0
   26.2478  -35.0171   -3.0970 O   0  0  0  0  0  0  0  0  0  0  0  0
   28.3221  -35.8915   -2.9726 O   0  0  0  0  0  0  0  0  0  0  0  0
  2  1  1  0
  3  4  1  0
  3  2  1  0
  4  5  1  0
  5  1  1  0
  5  6  1  1
  6 13  1  0
  7  6  2  0
  9  8  1  0
 10  9  2  0
 11  9  1  0
 12 11  1  1
 12 13  1  0
 12 14  1  0
 14 15  2  0
 14 18  1  0
 17 16  1  1
 17 19  1  0
 18 17  1  0
 19 21  1  0
 20 19  2  0
M  END
$$$$
