PNA.pdb
     RDKit          3D

 21 21  0  0  1  0  0  0  0  0999 V2000
   22.7107  -19.9273  -19.1172 N   0  0  0  0  0  0  0  0  0  0  0  0
   23.2747  -21.0807  -19.7913 C   0  0  0  0  0  0  0  0  0  0  0  0
   22.2056  -22.1361  -19.8339 C   0  0  0  0  0  0  0  0  0  0  0  0
   21.0852  -21.5425  -19.0453 C   0  0  0  0  0  0  0  0  0  0  0  0
   21.2725  -20.0493  -19.2481 C   0  0  1  0  0  0  0  0  0  0  0  0
   20.5458  -19.3018  -18.2141 C   0  0  0  0  0  0  0  0  0  0  0  0
   19.2928  -19.3494  -18.1670 O   0  0  0  0  0  0  0  0  0  0  0  0
   20.0936  -20.1388  -14.9700 N   0  0  0  0  0  0  0  0  0  0  0  0
   20.9932  -19.2588  -14.3119 C   0  0  0  0  0  0  0  0  0  0  0  0
   21.4879  -19.6150  -13.2273 O   0  0  0  0  0  0  0  0  0  0  0  0
   21.3291  -17.9581  -14.9019 C   0  0  0  0  0  0  0  0  0  0  0  0
   20.5968  -17.7540  -16.2311 C   0  0  2  0  0  0  0  0  0  0  0  0
   21.2383  -18.5282  -17.2697 N   0  0  0  0  0  0  0  0  0  0  0  0
   20.6126  -16.3217  -16.5620 C   0  0  0  0  0  0  0  0  0  0  0  0
   20.0532  -15.4371  -15.8652 O   0  0  0  0  0  0  0  0  0  0  0  0
   22.4955  -14.2564  -19.0314 C   0  0  0  0  0  0  0  0  0  0  0  0
   21.2915  -14.5063  -18.1548 C   0  0  2  0  0  0  0  0  0  0  0  0
   21.2930  -15.8893  -17.7316 N   0  0  0  0  0  0  0  0  0  0  0  0
   20.0373  -14.1751  -18.8728 C   0  0  0  0  0  0  0  0  0  0  0  0
   19.3769  -15.0731  -19.4611 O   0  0  0  0  0  0  0  0  0  0  0  0
   19.5430  -12.8886  -18.9288 O   0  0  0  0  0  0  0  0  0  0  0  0
  2  1  1  0
  3  4  1  0
  3  2  1  0
  4  5  1  0
  5  1  1  0
  5  6  1  1
  6 13  1  0
  7  6  2  0
  9  8  1  0
 10  9  2  0
 11  9  1  0
 12 11  1  1
 12 13  1  0
 12 14  1  0
 14 15  2  0
 14 18  1  0
 17 16  1  6
 17 19  1  0
 18 17  1  0
 19 21  1  0
 20 19  2  0
M  END
$$$$
