PNA.pdb
     RDKit          3D

 21 21  0  0  1  0  0  0  0  0999 V2000
   23.6142  -12.4182  -17.5953 N   0  0  0  0  0  0  0  0  0  0  0  0
   24.8077  -13.1941  -17.3189 C   0  0  0  0  0  0  0  0  0  0  0  0
   25.4142  -12.6414  -16.0597 C   0  0  0  0  0  0  0  0  0  0  0  0
   24.5616  -11.4576  -15.7416 C   0  0  0  0  0  0  0  0  0  0  0  0
   23.2136  -11.8336  -16.3311 C   0  0  1  0  0  0  0  0  0  0  0  0
   22.3822  -10.6353  -16.5011 C   0  0  0  0  0  0  0  0  0  0  0  0
   22.2326  -10.1299  -17.6399 O   0  0  0  0  0  0  0  0  0  0  0  0
   17.5832   -9.4778  -16.0969 N   0  0  0  0  0  0  0  0  0  0  0  0
   18.7268   -9.9773  -15.4188 C   0  0  0  0  0  0  0  0  0  0  0  0
   18.9478  -11.2013  -15.4467 O   0  0  0  0  0  0  0  0  0  0  0  0
   19.6255   -9.0657  -14.7019 C   0  0  0  0  0  0  0  0  0  0  0  0
   20.9268   -8.8545  -15.4808 C   0  0  2  0  0  0  0  0  0  0  0  0
   21.7469  -10.0420  -15.3992 N   0  0  0  0  0  0  0  0  0  0  0  0
   21.6304   -7.6940  -14.9157 C   0  0  0  0  0  0  0  0  0  0  0  0
   22.1896   -7.6959  -13.7895 O   0  0  0  0  0  0  0  0  0  0  0  0
   22.4625   -4.3026  -16.3198 C   0  0  0  0  0  0  0  0  0  0  0  0
   22.4899   -5.3597  -15.2418 C   0  0  2  0  0  0  0  0  0  0  0  0
   21.6949   -6.4905  -15.6676 N   0  0  0  0  0  0  0  0  0  0  0  0
   21.9894   -4.8166  -13.9563 C   0  0  0  0  0  0  0  0  0  0  0  0
   20.7703   -4.9092  -13.6502 O   0  0  0  0  0  0  0  0  0  0  0  0
   22.8225   -4.1945  -13.0499 O   0  0  0  0  0  0  0  0  0  0  0  0
  2  1  1  0
  3  4  1  0
  3  2  1  0
  4  5  1  0
  5  1  1  0
  5  6  1  6
  6 13  1  0
  7  6  2  0
  9  8  1  0
 10  9  2  0
 11  9  1  0
 12 11  1  1
 12 13  1  0
 12 14  1  0
 14 15  2  0
 14 18  1  0
 17 16  1  6
 17 19  1  0
 18 17  1  0
 19 21  1  0
 20 19  2  0
M  END
$$$$
