PNA.pdb
     RDKit          3D

 21 21  0  0  1  0  0  0  0  0999 V2000
   17.8090   -9.0427  -12.9549 N   0  0  0  0  0  0  0  0  0  0  0  0
   18.0821  -10.4276  -13.2871 C   0  0  0  0  0  0  0  0  0  0  0  0
   16.8064  -11.0151  -13.8224 C   0  0  0  0  0  0  0  0  0  0  0  0
   15.8071   -9.9195  -13.6478 C   0  0  0  0  0  0  0  0  0  0  0  0
   16.6527   -8.6617  -13.7413 C   0  0  1  0  0  0  0  0  0  0  0  0
   15.9298   -7.5204  -13.1661 C   0  0  0  0  0  0  0  0  0  0  0  0
   14.9128   -7.0646  -13.7430 O   0  0  0  0  0  0  0  0  0  0  0  0
   15.5874   -7.7004   -8.0657 N   0  0  0  0  0  0  0  0  0  0  0  0
   15.0914   -6.9338   -9.1535 C   0  0  0  0  0  0  0  0  0  0  0  0
   13.9306   -7.1434   -9.5489 O   0  0  0  0  0  0  0  0  0  0  0  0
   15.9334   -5.9174   -9.7942 C   0  0  0  0  0  0  0  0  0  0  0  0
   15.6646   -5.8534  -11.3003 C   0  0  2  0  0  0  0  0  0  0  0  0
   16.3632   -6.9269  -11.9704 N   0  0  0  0  0  0  0  0  0  0  0  0
   16.1109   -4.5460  -11.8028 C   0  0  0  0  0  0  0  0  0  0  0  0
   17.3140   -4.1815  -11.8311 O   0  0  0  0  0  0  0  0  0  0  0  0
   14.3982   -1.7529  -13.6081 C   0  0  0  0  0  0  0  0  0  0  0  0
   15.5049   -2.2979  -12.7370 C   0  0  2  0  0  0  0  0  0  0  0  0
   15.1448   -3.6252  -12.2895 N   0  0  0  0  0  0  0  0  0  0  0  0
   15.7588   -1.4023  -11.5831 C   0  0  0  0  0  0  0  0  0  0  0  0
   15.3430   -1.7032  -10.4320 O   0  0  0  0  0  0  0  0  0  0  0  0
   16.4513   -0.2167  -11.7144 O   0  0  0  0  0  0  0  0  0  0  0  0
  2  1  1  0
  3  4  1  0
  3  2  1  0
  4  5  1  0
  5  1  1  0
  5  6  1  1
  6 13  1  0
  7  6  2  0
  9  8  1  0
 10  9  2  0
 11  9  1  0
 12 11  1  1
 12 13  1  0
 12 14  1  0
 14 15  2  0
 14 18  1  0
 17 16  1  1
 17 19  1  0
 18 17  1  0
 19 21  1  0
 20 19  2  0
M  END
$$$$
