PNA.pdb
     RDKit          3D

 21 21  0  0  1  0  0  0  0  0999 V2000
   20.5708  -12.3144  -16.2432 N   0  0  0  0  0  0  0  0  0  0  0  0
   20.3673  -13.6742  -16.7041 C   0  0  0  0  0  0  0  0  0  0  0  0
   19.6529  -13.5929  -18.0239 C   0  0  0  0  0  0  0  0  0  0  0  0
   19.3741  -12.1355  -18.1906 C   0  0  0  0  0  0  0  0  0  0  0  0
   20.5073  -11.4766  -17.4241 C   0  0  1  0  0  0  0  0  0  0  0  0
   20.1649  -10.0836  -17.1104 C   0  0  0  0  0  0  0  0  0  0  0  0
   20.0382   -9.2436  -18.0341 O   0  0  0  0  0  0  0  0  0  0  0  0
   16.5040  -10.0723  -14.4599 N   0  0  0  0  0  0  0  0  0  0  0  0
   17.1851   -8.9534  -15.0087 C   0  0  0  0  0  0  0  0  0  0  0  0
   16.7222   -8.4181  -16.0319 O   0  0  0  0  0  0  0  0  0  0  0  0
   18.4082   -8.4431  -14.3791 C   0  0  0  0  0  0  0  0  0  0  0  0
   19.5490   -8.3481  -15.3960 C   0  0  2  0  0  0  0  0  0  0  0  0
   19.9759   -9.6743  -15.7813 N   0  0  0  0  0  0  0  0  0  0  0  0
   20.6585   -7.5979  -14.7897 C   0  0  0  0  0  0  0  0  0  0  0  0
   21.4351   -8.0761  -13.9240 O   0  0  0  0  0  0  0  0  0  0  0  0
   22.1710   -4.2668  -15.6361 C   0  0  0  0  0  0  0  0  0  0  0  0
   22.0818   -5.5322  -14.8169 C   0  0  2  0  0  0  0  0  0  0  0  0
   20.8850   -6.2538  -15.1896 N   0  0  0  0  0  0  0  0  0  0  0  0
   22.0825   -5.2240  -13.3667 C   0  0  0  0  0  0  0  0  0  0  0  0
   23.1091   -4.7490  -12.8108 O   0  0  0  0  0  0  0  0  0  0  0  0
   20.9764   -5.4396  -12.5714 O   0  0  0  0  0  0  0  0  0  0  0  0
  2  1  1  0
  3  4  1  0
  3  2  1  0
  4  5  1  0
  5  1  1  0
  5  6  1  1
  6 13  1  0
  7  6  2  0
  9  8  1  0
 10  9  2  0
 11  9  1  0
 12 11  1  1
 12 13  1  0
 12 14  1  0
 14 15  2  0
 14 18  1  0
 17 16  1  6
 17 19  1  0
 18 17  1  0
 19 21  1  0
 20 19  2  0
M  END
$$$$
