PNA.pdb
     RDKit          3D

 21 21  0  0  1  0  0  0  0  0999 V2000
   18.3052  -15.7030    3.3875 N   0  0  0  0  0  0  0  0  0  0  0  0
   17.9886  -15.0213    2.1474 C   0  0  0  0  0  0  0  0  0  0  0  0
   16.8019  -14.1393    2.4167 C   0  0  0  0  0  0  0  0  0  0  0  0
   16.4213  -14.4707    3.8220 C   0  0  0  0  0  0  0  0  0  0  0  0
   17.7394  -14.8922    4.4472 C   0  0  1  0  0  0  0  0  0  0  0  0
   17.4961  -15.6583    5.6760 C   0  0  0  0  0  0  0  0  0  0  0  0
   16.9158  -15.1189    6.6491 O   0  0  0  0  0  0  0  0  0  0  0  0
   15.8600  -17.7982    4.9305 N   0  0  0  0  0  0  0  0  0  0  0  0
   16.2191  -19.0730    5.4433 C   0  0  0  0  0  0  0  0  0  0  0  0
   15.7070  -20.0856    4.9331 O   0  0  0  0  0  0  0  0  0  0  0  0
   17.1740  -19.1888    6.5512 C   0  0  0  0  0  0  0  0  0  0  0  0
   17.7135  -17.8139    6.9552 C   0  0  2  0  0  0  0  0  0  0  0  0
   17.9067  -16.9965    5.7788 N   0  0  0  0  0  0  0  0  0  0  0  0
   18.9812  -17.9992    7.6762 C   0  0  0  0  0  0  0  0  0  0  0  0
   20.1036  -18.0598    7.1127 O   0  0  0  0  0  0  0  0  0  0  0  0
   19.8777  -17.8881   11.3069 C   0  0  0  0  0  0  0  0  0  0  0  0
   20.1737  -18.2449    9.8698 C   0  0  2  0  0  0  0  0  0  0  0  0
   18.9610  -18.1192    9.0916 N   0  0  0  0  0  0  0  0  0  0  0  0
   20.7260  -19.6171    9.7689 C   0  0  0  0  0  0  0  0  0  0  0  0
   20.0123  -20.5684    9.3517 O   0  0  0  0  0  0  0  0  0  0  0  0
   22.0267  -19.9110   10.1216 O   0  0  0  0  0  0  0  0  0  0  0  0
  2  1  1  0
  3  4  1  0
  3  2  1  0
  4  5  1  0
  5  1  1  0
  5  6  1  1
  6 13  1  0
  7  6  2  0
  9  8  1  0
 10  9  2  0
 11  9  1  0
 12 11  1  6
 12 13  1  0
 12 14  1  0
 14 15  2  0
 14 18  1  0
 17 16  1  1
 17 19  1  0
 18 17  1  0
 19 21  1  0
 20 19  2  0
M  END
$$$$
