PNA.pdb
     RDKit          3D

 21 21  0  0  1  0  0  0  0  0999 V2000
   21.2570  -10.2736  -18.3496 N   0  0  0  0  0  0  0  0  0  0  0  0
   21.7271  -11.4143  -19.1116 C   0  0  0  0  0  0  0  0  0  0  0  0
   21.1699  -12.6462  -18.4552 C   0  0  0  0  0  0  0  0  0  0  0  0
   20.4821  -12.1228  -17.2376 C   0  0  0  0  0  0  0  0  0  0  0  0
   20.0695  -10.7205  -17.6492 C   0  0  1  0  0  0  0  0  0  0  0  0
   19.7755   -9.9090  -16.4613 C   0  0  0  0  0  0  0  0  0  0  0  0
   18.9745  -10.3321  -15.5929 O   0  0  0  0  0  0  0  0  0  0  0  0
   19.4626   -6.6582  -12.7370 N   0  0  0  0  0  0  0  0  0  0  0  0
   20.1519   -7.8967  -12.6486 C   0  0  0  0  0  0  0  0  0  0  0  0
   20.3322   -8.3986  -11.5246 O   0  0  0  0  0  0  0  0  0  0  0  0
   20.6394   -8.5666  -13.8596 C   0  0  0  0  0  0  0  0  0  0  0  0
   20.1856   -7.8215  -15.1180 C   0  0  2  0  0  0  0  0  0  0  0  0
   20.3825   -8.6564  -16.2815 N   0  0  0  0  0  0  0  0  0  0  0  0
   20.9585   -6.5762  -15.2319 C   0  0  0  0  0  0  0  0  0  0  0  0
   22.1925   -6.5386  -15.4704 O   0  0  0  0  0  0  0  0  0  0  0  0
   19.9561   -2.9496  -15.1811 C   0  0  0  0  0  0  0  0  0  0  0  0
   20.9673   -4.0677  -15.2679 C   0  0  2  0  0  0  0  0  0  0  0  0
   20.2937   -5.3317  -15.0667 N   0  0  0  0  0  0  0  0  0  0  0  0
   22.0485   -3.8809  -14.2707 C   0  0  0  0  0  0  0  0  0  0  0  0
   22.9459   -3.0143  -14.4501 O   0  0  0  0  0  0  0  0  0  0  0  0
   22.1207   -4.6355  -13.1184 O   0  0  0  0  0  0  0  0  0  0  0  0
  2  1  1  0
  3  4  1  0
  3  2  1  0
  4  5  1  0
  5  1  1  0
  5  6  1  1
  6 13  1  0
  7  6  2  0
  9  8  1  0
 10  9  2  0
 11  9  1  0
 12 11  1  1
 12 13  1  0
 12 14  1  0
 14 15  2  0
 14 18  1  0
 17 16  1  1
 17 19  1  0
 18 17  1  0
 19 21  1  0
 20 19  2  0
M  END
$$$$
