PNA.pdb
     RDKit          3D

 21 21  0  0  1  0  0  0  0  0999 V2000
   26.2345  -20.9104  -15.6960 N   0  0  0  0  0  0  0  0  0  0  0  0
   27.3656  -20.7120  -16.5814 C   0  0  0  0  0  0  0  0  0  0  0  0
   28.1502  -19.5479  -16.0444 C   0  0  0  0  0  0  0  0  0  0  0  0
   27.3231  -19.0549  -14.9032 C   0  0  0  0  0  0  0  0  0  0  0  0
   26.6037  -20.3061  -14.4314 C   0  0  1  0  0  0  0  0  0  0  0  0
   25.4370  -19.9439  -13.6167 C   0  0  0  0  0  0  0  0  0  0  0  0
   25.5888  -19.2899  -12.5565 O   0  0  0  0  0  0  0  0  0  0  0  0
   22.5777  -18.2404  -16.4542 N   0  0  0  0  0  0  0  0  0  0  0  0
   22.2415  -18.2451  -15.0743 C   0  0  0  0  0  0  0  0  0  0  0  0
   22.2578  -17.1667  -14.4541 O   0  0  0  0  0  0  0  0  0  0  0  0
   21.8834  -19.4972  -14.3987 C   0  0  0  0  0  0  0  0  0  0  0  0
   22.9358  -19.8757  -13.3528 C   0  0  2  0  0  0  0  0  0  0  0  0
   24.1437  -20.3216  -14.0098 N   0  0  0  0  0  0  0  0  0  0  0  0
   22.3864  -20.9354  -12.4946 C   0  0  0  0  0  0  0  0  0  0  0  0
   22.1515  -22.1051  -12.8918 O   0  0  0  0  0  0  0  0  0  0  0  0
   21.7167  -21.1649   -8.8142 C   0  0  0  0  0  0  0  0  0  0  0  0
   21.5377  -21.6321  -10.2390 C   0  0  2  0  0  0  0  0  0  0  0  0
   22.0967  -20.6438  -11.1348 N   0  0  0  0  0  0  0  0  0  0  0  0
   20.1057  -21.8691  -10.5414 C   0  0  0  0  0  0  0  0  0  0  0  0
   19.4913  -22.8401  -10.0235 O   0  0  0  0  0  0  0  0  0  0  0  0
   19.3910  -21.0501  -11.3905 O   0  0  0  0  0  0  0  0  0  0  0  0
  2  1  1  0
  3  4  1  0
  3  2  1  0
  4  5  1  0
  5  1  1  0
  5  6  1  1
  6 13  1  0
  7  6  2  0
  9  8  1  0
 10  9  2  0
 11  9  1  0
 12 11  1  6
 12 13  1  0
 12 14  1  0
 14 15  2  0
 14 18  1  0
 17 16  1  1
 17 19  1  0
 18 17  1  0
 19 21  1  0
 20 19  2  0
M  END
$$$$
