PNA.pdb
     RDKit          3D

 21 21  0  0  1  0  0  0  0  0999 V2000
   20.8184  -11.4473  -17.3635 N   0  0  0  0  0  0  0  0  0  0  0  0
   20.6352  -12.7436  -17.9870 C   0  0  0  0  0  0  0  0  0  0  0  0
   19.2427  -12.7712  -18.5519 C   0  0  0  0  0  0  0  0  0  0  0  0
   18.6465  -11.4800  -18.0970 C   0  0  0  0  0  0  0  0  0  0  0  0
   19.8517  -10.5633  -17.9836 C   0  0  1  0  0  0  0  0  0  0  0  0
   19.5288   -9.4021  -17.1450 C   0  0  0  0  0  0  0  0  0  0  0  0
   18.6895   -8.5561  -17.5380 O   0  0  0  0  0  0  0  0  0  0  0  0
   17.4394   -9.0453  -14.1309 N   0  0  0  0  0  0  0  0  0  0  0  0
   18.5081   -9.1092  -13.1978 C   0  0  0  0  0  0  0  0  0  0  0  0
   18.2869   -9.5890  -12.0714 O   0  0  0  0  0  0  0  0  0  0  0  0
   19.8430   -8.6186  -13.5586 C   0  0  0  0  0  0  0  0  0  0  0  0
   19.8709   -8.1213  -15.0065 C   0  0  2  0  0  0  0  0  0  0  0  0
   20.1506   -9.2231  -15.8994 N   0  0  0  0  0  0  0  0  0  0  0  0
   20.8999   -7.0781  -15.1259 C   0  0  0  0  0  0  0  0  0  0  0  0
   22.1343   -7.3146  -15.1616 O   0  0  0  0  0  0  0  0  0  0  0  0
   20.7065   -3.3531  -15.6171 C   0  0  0  0  0  0  0  0  0  0  0  0
   21.4533   -4.6450  -15.3857 C   0  0  2  0  0  0  0  0  0  0  0  0
   20.4996   -5.7175  -15.2072 N   0  0  0  0  0  0  0  0  0  0  0  0
   22.3494   -4.5340  -14.2098 C   0  0  0  0  0  0  0  0  0  0  0  0
   21.9874   -4.9662  -13.0825 O   0  0  0  0  0  0  0  0  0  0  0  0
   23.6015   -3.9616  -14.2942 O   0  0  0  0  0  0  0  0  0  0  0  0
  2  1  1  0
  3  4  1  0
  3  2  1  0
  4  5  1  0
  5  1  1  0
  5  6  1  1
  6 13  1  0
  7  6  2  0
  9  8  1  0
 10  9  2  0
 11  9  1  0
 12 11  1  1
 12 13  1  0
 12 14  1  0
 14 15  2  0
 14 18  1  0
 17 16  1  1
 17 19  1  0
 18 17  1  0
 19 21  1  0
 20 19  2  0
M  END
$$$$
