PNA.pdb
     RDKit          3D

 21 21  0  0  1  0  0  0  0  0999 V2000
   27.2062  -18.4493  -16.5830 N   0  0  0  0  0  0  0  0  0  0  0  0
   28.2428  -17.7657  -17.3319 C   0  0  0  0  0  0  0  0  0  0  0  0
   29.4150  -18.7020  -17.4225 C   0  0  0  0  0  0  0  0  0  0  0  0
   29.0066  -19.8687  -16.5850 C   0  0  0  0  0  0  0  0  0  0  0  0
   27.4926  -19.8651  -16.7014 C   0  0  1  0  0  0  0  0  0  0  0  0
   26.8983  -20.6543  -15.6151 C   0  0  0  0  0  0  0  0  0  0  0  0
   27.0377  -21.9012  -15.5945 O   0  0  0  0  0  0  0  0  0  0  0  0
   24.8709  -22.2322  -11.2738 N   0  0  0  0  0  0  0  0  0  0  0  0
   25.4861  -20.9727  -11.0454 C   0  0  0  0  0  0  0  0  0  0  0  0
   25.5457  -20.5421   -9.8797 O   0  0  0  0  0  0  0  0  0  0  0  0
   26.0381  -20.1991  -12.1632 C   0  0  0  0  0  0  0  0  0  0  0  0
   25.5313  -20.7366  -13.5044 C   0  0  2  0  0  0  0  0  0  0  0  0
   26.1705  -20.0290  -14.5908 N   0  0  0  0  0  0  0  0  0  0  0  0
   24.0720  -20.5674  -13.5579 C   0  0  0  0  0  0  0  0  0  0  0  0
   23.4909  -19.4609  -13.4192 O   0  0  0  0  0  0  0  0  0  0  0  0
   21.3341  -22.8182  -14.7208 C   0  0  0  0  0  0  0  0  0  0  0  0
   21.8233  -21.5961  -13.9809 C   0  0  2  0  0  0  0  0  0  0  0  0
   23.2511  -21.7057  -13.7780 N   0  0  0  0  0  0  0  0  0  0  0  0
   21.1162  -21.4438  -12.6867 C   0  0  0  0  0  0  0  0  0  0  0  0
   21.5957  -21.9361  -11.6302 O   0  0  0  0  0  0  0  0  0  0  0  0
   19.9193  -20.7664  -12.5811 O   0  0  0  0  0  0  0  0  0  0  0  0
  2  1  1  0
  3  4  1  0
  3  2  1  0
  4  5  1  0
  5  1  1  0
  5  6  1  1
  6 13  1  0
  7  6  2  0
  9  8  1  0
 10  9  2  0
 11  9  1  0
 12 11  1  1
 12 13  1  0
 12 14  1  0
 14 15  2  0
 14 18  1  0
 17 16  1  1
 17 19  1  0
 18 17  1  0
 19 21  1  0
 20 19  2  0
M  END
$$$$
