VDM.pdb
     RDKit          3D

 24 23  0  0  1  0  0  0  0  0999 V2000
    7.6466  -12.7965   18.2721 C   0  0  0  0  0  0  0  0  0  0  0  0
    7.9118  -13.5646   19.5414 C   0  0  2  0  0  0  0  0  0  0  0  0
    9.0130  -12.8453   20.3214 C   0  0  0  0  0  0  0  0  0  0  0  0
    8.3816  -14.9500   19.2019 C   0  0  2  0  0  0  0  0  0  0  0  0
    7.3408  -15.6080   18.4353 N   0  0  0  0  0  0  0  0  0  0  0  0
    8.7272  -15.7344   20.4188 C   0  0  0  0  0  0  0  0  0  0  0  0
    7.7741  -16.1527   21.1282 O   0  0  0  0  0  0  0  0  0  0  0  0
   10.0554  -16.0051   20.7781 N   0  0  0  0  0  0  0  0  0  0  0  0
   10.3827  -16.8011   21.9489 C   0  0  1  0  0  0  0  0  0  0  0  0
   11.8144  -17.3447   21.8034 C   0  0  0  0  0  0  0  0  0  0  0  0
   12.0687  -18.2670   22.9292 C   0  0  0  0  0  0  0  0  0  0  0  0
   11.1760  -18.6522   23.7319 O   0  0  0  0  0  0  0  0  0  0  0  0
   10.4050  -15.9355   23.1721 C   0  0  0  0  0  0  0  0  0  0  0  0
   11.2628  -15.0319   23.3305 O   0  0  0  0  0  0  0  0  0  0  0  0
   13.3614  -18.7364   23.1191 O   0  0  0  0  0  0  0  0  0  0  0  0
    5.8683  -12.2118   27.8459 C   0  0  0  0  0  0  0  0  0  0  0  0
    6.9230  -12.3041   26.3648 S   0  0  0  0  0  0  0  0  0  0  0  0
    8.2446  -13.5467   26.6384 C   0  0  0  0  0  0  0  0  0  0  0  0
    8.3584  -14.3474   25.3551 C   0  0  0  0  0  0  0  0  0  0  0  0
    9.4434  -15.4014   25.4382 C   0  0  2  0  0  0  0  0  0  0  0  0
    9.4245  -16.1436   24.1913 N   0  0  0  0  0  0  0  0  0  0  0  0
    9.0927  -16.2791   26.5982 C   0  0  0  0  0  0  0  0  0  0  0  0
    8.6263  -17.4179   26.4610 O   0  0  0  0  0  0  0  0  0  0  0  0
    9.2976  -15.7926   27.8797 O   0  0  0  0  0  0  0  0  0  0  0  0
  2  3  1  6
  2  1  1  0
  4  2  1  0
  4  5  1  1
  6  7  2  0
  6  4  1  0
  8  6  1  0
  9  8  1  0
  9 10  1  6
 10 11  1  0
 11 12  2  0
 11 15  1  0
 13  9  1  0
 14 13  2  0
 17 16  1  0
 17 18  1  0
 18 19  1  0
 20 19  1  6
 20 21  1  0
 21 13  1  0
 22 20  1  0
 22 24  1  0
 23 22  2  0
M  END
$$$$
