VDM.pdb
     RDKit          3D

 24 23  0  0  1  0  0  0  0  0999 V2000
    7.8784  -14.2191   17.2005 C   0  0  0  0  0  0  0  0  0  0  0  0
    7.7552  -13.9468   18.6777 C   0  0  2  0  0  0  0  0  0  0  0  0
    7.2804  -12.5056   18.8663 C   0  0  0  0  0  0  0  0  0  0  0  0
    9.0975  -14.1064   19.3321 C   0  0  2  0  0  0  0  0  0  0  0  0
   10.0130  -14.6722   18.3597 N   0  0  0  0  0  0  0  0  0  0  0  0
    9.0239  -14.9532   20.5540 C   0  0  0  0  0  0  0  0  0  0  0  0
    8.2007  -14.6140   21.4450 O   0  0  0  0  0  0  0  0  0  0  0  0
    9.8323  -16.0862   20.7248 N   0  0  0  0  0  0  0  0  0  0  0  0
    9.7183  -16.9360   21.8980 C   0  0  1  0  0  0  0  0  0  0  0  0
   10.8564  -17.9707   21.8823 C   0  0  0  0  0  0  0  0  0  0  0  0
   10.4947  -19.0320   20.9202 C   0  0  0  0  0  0  0  0  0  0  0  0
    9.3061  -19.3511   20.6465 O   0  0  0  0  0  0  0  0  0  0  0  0
    9.9281  -16.1284   23.1429 C   0  0  0  0  0  0  0  0  0  0  0  0
   10.9532  -15.4225   23.3117 O   0  0  0  0  0  0  0  0  0  0  0  0
   11.5171  -19.7203   20.2811 O   0  0  0  0  0  0  0  0  0  0  0  0
    6.5247  -11.0266   27.6379 C   0  0  0  0  0  0  0  0  0  0  0  0
    6.4461  -12.3281   26.3673 S   0  0  0  0  0  0  0  0  0  0  0  0
    7.9059  -13.4267   26.5340 C   0  0  0  0  0  0  0  0  0  0  0  0
    7.8726  -14.3736   25.3495 C   0  0  0  0  0  0  0  0  0  0  0  0
    9.0375  -15.3420   25.3641 C   0  0  2  0  0  0  0  0  0  0  0  0
    8.9357  -16.1622   24.1713 N   0  0  0  0  0  0  0  0  0  0  0  0
    8.8874  -16.1657   26.6043 C   0  0  0  0  0  0  0  0  0  0  0  0
    8.4519  -17.3247   26.5912 O   0  0  0  0  0  0  0  0  0  0  0  0
    9.2500  -15.6033   27.8180 O   0  0  0  0  0  0  0  0  0  0  0  0
  2  3  1  6
  2  1  1  0
  4  2  1  0
  4  5  1  6
  6  7  2  0
  6  4  1  0
  8  6  1  0
  9  8  1  0
  9 10  1  6
 10 11  1  0
 11 12  2  0
 11 15  1  0
 13  9  1  0
 14 13  2  0
 17 16  1  0
 17 18  1  0
 18 19  1  0
 20 19  1  6
 20 21  1  0
 21 13  1  0
 22 20  1  0
 22 24  1  0
 23 22  2  0
M  END
$$$$
