VDM.pdb
     RDKit          3D

 24 23  0  0  1  0  0  0  0  0999 V2000
    8.2619  -12.9592   26.8216 C   0  0  0  0  0  0  0  0  0  0  0  0
    7.3832  -12.6437   25.6385 C   0  0  2  0  0  0  0  0  0  0  0  0
    6.4602  -11.4846   26.0164 C   0  0  0  0  0  0  0  0  0  0  0  0
    6.5447  -13.8430   25.3008 C   0  0  2  0  0  0  0  0  0  0  0  0
    5.7610  -14.1937   26.4699 N   0  0  0  0  0  0  0  0  0  0  0  0
    7.3746  -14.9928   24.8483 C   0  0  0  0  0  0  0  0  0  0  0  0
    7.5073  -15.9601   25.6441 O   0  0  0  0  0  0  0  0  0  0  0  0
    7.9936  -15.0150   23.5902 N   0  0  0  0  0  0  0  0  0  0  0  0
    8.8748  -16.0995   23.1916 C   0  0  1  0  0  0  0  0  0  0  0  0
    9.3875  -15.8331   21.7659 C   0  0  0  0  0  0  0  0  0  0  0  0
   10.0167  -17.0737   21.2682 C   0  0  0  0  0  0  0  0  0  0  0  0
   10.1292  -18.1244   21.9560 O   0  0  0  0  0  0  0  0  0  0  0  0
   10.0963  -16.1181   24.0598 C   0  0  0  0  0  0  0  0  0  0  0  0
   11.1199  -15.4461   23.7802 O   0  0  0  0  0  0  0  0  0  0  0  0
   10.5152  -17.0873   19.9725 O   0  0  0  0  0  0  0  0  0  0  0  0
    9.6919  -12.9089   29.2236 C   0  0  0  0  0  0  0  0  0  0  0  0
   10.2910  -14.6273   29.1714 S   0  0  0  0  0  0  0  0  0  0  0  0
   10.6426  -15.0939   27.4323 C   0  0  0  0  0  0  0  0  0  0  0  0
   10.9705  -16.5749   27.4394 C   0  0  0  0  0  0  0  0  0  0  0  0
   11.2917  -17.0916   26.0519 C   0  0  2  0  0  0  0  0  0  0  0  0
   10.1006  -16.9250   25.2398 N   0  0  0  0  0  0  0  0  0  0  0  0
   11.6438  -18.5373   26.2097 C   0  0  0  0  0  0  0  0  0  0  0  0
   12.7292  -18.9173   26.6686 O   0  0  0  0  0  0  0  0  0  0  0  0
   10.7137  -19.4891   25.8225 O   0  0  0  0  0  0  0  0  0  0  0  0
  2  3  1  1
  2  1  1  0
  4  2  1  0
  4  5  1  1
  6  7  2  0
  6  4  1  0
  8  6  1  0
  9  8  1  0
  9 10  1  6
 10 11  1  0
 11 12  2  0
 11 15  1  0
 13  9  1  0
 14 13  2  0
 17 16  1  0
 17 18  1  0
 18 19  1  0
 20 19  1  1
 20 21  1  0
 21 13  1  0
 22 20  1  0
 22 24  1  0
 23 22  2  0
M  END
$$$$
