VDM.pdb
     RDKit          3D

 24 23  0  0  1  0  0  0  0  0999 V2000
    7.5620  -12.7683   18.2339 C   0  0  0  0  0  0  0  0  0  0  0  0
    7.8199  -13.5175   19.5159 C   0  0  2  0  0  0  0  0  0  0  0  0
    8.8981  -12.7723   20.3036 C   0  0  0  0  0  0  0  0  0  0  0  0
    8.3160  -14.8993   19.1997 C   0  0  2  0  0  0  0  0  0  0  0  0
    7.3288  -15.5569   18.3649 N   0  0  0  0  0  0  0  0  0  0  0  0
    8.5867  -15.6891   20.4319 C   0  0  0  0  0  0  0  0  0  0  0  0
    7.5970  -16.0166   21.1390 O   0  0  0  0  0  0  0  0  0  0  0  0
    9.8855  -16.0612   20.8078 N   0  0  0  0  0  0  0  0  0  0  0  0
   10.1396  -16.8395   22.0083 C   0  0  1  0  0  0  0  0  0  0  0  0
   11.5429  -17.4628   21.9160 C   0  0  0  0  0  0  0  0  0  0  0  0
   11.7019  -18.3983   23.0484 C   0  0  0  0  0  0  0  0  0  0  0  0
   10.7637  -18.7169   23.8281 O   0  0  0  0  0  0  0  0  0  0  0  0
   10.1780  -15.9414   23.2075 C   0  0  0  0  0  0  0  0  0  0  0  0
   11.0115  -15.0077   23.3113 O   0  0  0  0  0  0  0  0  0  0  0  0
   12.9524  -18.9584   23.2716 O   0  0  0  0  0  0  0  0  0  0  0  0
    6.1772  -11.3716   27.7270 C   0  0  0  0  0  0  0  0  0  0  0  0
    6.2809  -12.6550   26.4399 S   0  0  0  0  0  0  0  0  0  0  0  0
    7.8595  -13.5714   26.6235 C   0  0  0  0  0  0  0  0  0  0  0  0
    7.9670  -14.4931   25.4237 C   0  0  0  0  0  0  0  0  0  0  0  0
    9.2321  -15.3259   25.4595 C   0  0  2  0  0  0  0  0  0  0  0  0
    9.2418  -16.1528   24.2669 N   0  0  0  0  0  0  0  0  0  0  0  0
    9.1540  -16.1609   26.6987 C   0  0  0  0  0  0  0  0  0  0  0  0
    8.7825  -17.3421   26.6896 O   0  0  0  0  0  0  0  0  0  0  0  0
    9.5111  -15.5837   27.9071 O   0  0  0  0  0  0  0  0  0  0  0  0
  2  3  1  1
  2  1  1  0
  4  2  1  0
  4  5  1  6
  6  7  2  0
  6  4  1  0
  8  6  1  0
  9  8  1  0
  9 10  1  6
 10 11  1  0
 11 12  2  0
 11 15  1  0
 13  9  1  0
 14 13  2  0
 17 16  1  0
 17 18  1  0
 18 19  1  0
 20 19  1  6
 20 21  1  0
 21 13  1  0
 22 20  1  0
 22 24  1  0
 23 22  2  0
M  END
$$$$
