VDM.pdb
     RDKit          3D

 24 23  0  0  1  0  0  0  0  0999 V2000
    7.7001  -12.4700   18.7684 C   0  0  0  0  0  0  0  0  0  0  0  0
    7.7958  -13.4672   19.8945 C   0  0  2  0  0  0  0  0  0  0  0  0
    8.6688  -12.8688   20.9981 C   0  0  0  0  0  0  0  0  0  0  0  0
    8.4394  -14.7289   19.3954 C   0  0  2  0  0  0  0  0  0  0  0  0
    7.5813  -15.3054   18.3779 N   0  0  0  0  0  0  0  0  0  0  0  0
    8.6904  -15.6988   20.4962 C   0  0  0  0  0  0  0  0  0  0  0  0
    7.6909  -16.2835   20.9922 O   0  0  0  0  0  0  0  0  0  0  0  0
    9.9812  -15.9625   20.9766 N   0  0  0  0  0  0  0  0  0  0  0  0
   10.2041  -16.7713   22.1631 C   0  0  1  0  0  0  0  0  0  0  0  0
   11.6624  -17.2609   22.1715 C   0  0  0  0  0  0  0  0  0  0  0  0
   11.7960  -18.3135   21.1435 C   0  0  0  0  0  0  0  0  0  0  0  0
   11.1374  -19.3886   21.1549 O   0  0  0  0  0  0  0  0  0  0  0  0
   10.0562  -15.9316   23.3957 C   0  0  0  0  0  0  0  0  0  0  0  0
   10.8278  -14.9717   23.6418 O   0  0  0  0  0  0  0  0  0  0  0  0
   12.6971  -18.1130   20.1065 O   0  0  0  0  0  0  0  0  0  0  0  0
    7.4612  -11.1910   25.9366 C   0  0  0  0  0  0  0  0  0  0  0  0
    6.2643  -12.5388   26.1920 S   0  0  0  0  0  0  0  0  0  0  0  0
    7.1547  -14.0424   26.7506 C   0  0  0  0  0  0  0  0  0  0  0  0
    7.4507  -14.8576   25.5061 C   0  0  0  0  0  0  0  0  0  0  0  0
    8.8316  -15.4790   25.5500 C   0  0  2  0  0  0  0  0  0  0  0  0
    9.0089  -16.2310   24.3215 N   0  0  0  0  0  0  0  0  0  0  0  0
    8.8530  -16.3787   26.7454 C   0  0  0  0  0  0  0  0  0  0  0  0
    8.7737  -15.9544   27.9059 O   0  0  0  0  0  0  0  0  0  0  0  0
    8.9691  -17.7447   26.5414 O   0  0  0  0  0  0  0  0  0  0  0  0
  2  3  1  1
  2  1  1  0
  4  2  1  0
  4  5  1  6
  6  7  2  0
  6  4  1  0
  8  6  1  0
  9  8  1  0
  9 10  1  6
 10 11  1  0
 11 12  2  0
 11 15  1  0
 13  9  1  0
 14 13  2  0
 17 16  1  0
 17 18  1  0
 18 19  1  0
 20 19  1  6
 20 21  1  0
 21 13  1  0
 22 20  1  0
 22 24  1  0
 23 22  2  0
M  END
$$$$
