VDM.pdb
     RDKit          3D

 24 23  0  0  1  0  0  0  0  0999 V2000
    7.8085  -12.8667   17.7511 C   0  0  0  0  0  0  0  0  0  0  0  0
    7.6799  -13.7598   18.9583 C   0  0  2  0  0  0  0  0  0  0  0  0
    6.8504  -13.0292   20.0149 C   0  0  0  0  0  0  0  0  0  0  0  0
    9.0430  -14.0441   19.5209 C   0  0  2  0  0  0  0  0  0  0  0  0
    9.8440  -14.6625   18.4817 N   0  0  0  0  0  0  0  0  0  0  0  0
    8.9766  -14.9081   20.7311 C   0  0  0  0  0  0  0  0  0  0  0  0
    8.3243  -14.4742   21.7175 O   0  0  0  0  0  0  0  0  0  0  0  0
    9.6103  -16.1577   20.7898 N   0  0  0  0  0  0  0  0  0  0  0  0
    9.5983  -16.9641   21.9986 C   0  0  1  0  0  0  0  0  0  0  0  0
   10.6455  -18.0832   21.8672 C   0  0  0  0  0  0  0  0  0  0  0  0
   10.2690  -18.9270   20.7145 C   0  0  0  0  0  0  0  0  0  0  0  0
    9.0927  -19.3232   20.4935 O   0  0  0  0  0  0  0  0  0  0  0  0
   10.0359  -16.1415   23.1725 C   0  0  0  0  0  0  0  0  0  0  0  0
   10.6741  -15.0691   23.0308 O   0  0  0  0  0  0  0  0  0  0  0  0
   11.2628  -19.3092   19.8235 O   0  0  0  0  0  0  0  0  0  0  0  0
    6.7414  -11.2419   27.0967 C   0  0  0  0  0  0  0  0  0  0  0  0
    6.9160  -12.6066   25.9043 S   0  0  0  0  0  0  0  0  0  0  0  0
    8.3120  -13.6821   26.4143 C   0  0  0  0  0  0  0  0  0  0  0  0
    8.4868  -14.7141   25.3165 C   0  0  0  0  0  0  0  0  0  0  0  0
    9.6239  -15.6704   25.6125 C   0  0  2  0  0  0  0  0  0  0  0  0
    9.7215  -16.5890   24.4932 N   0  0  0  0  0  0  0  0  0  0  0  0
    9.2563  -16.3875   26.8733 C   0  0  0  0  0  0  0  0  0  0  0  0
    9.2993  -15.8498   27.9878 O   0  0  0  0  0  0  0  0  0  0  0  0
    8.8534  -17.7108   26.7865 O   0  0  0  0  0  0  0  0  0  0  0  0
  2  3  1  1
  2  1  1  0
  4  2  1  0
  4  5  1  6
  6  7  2  0
  6  4  1  0
  8  6  1  0
  9  8  1  0
  9 10  1  6
 10 11  1  0
 11 12  2  0
 11 15  1  0
 13  9  1  0
 14 13  2  0
 17 16  1  0
 17 18  1  0
 18 19  1  0
 20 19  1  6
 20 21  1  0
 21 13  1  0
 22 20  1  0
 22 24  1  0
 23 22  2  0
M  END
$$$$
