VDM.pdb
     RDKit          3D

 24 23  0  0  1  0  0  0  0  0999 V2000
    7.6019  -12.4304   18.6208 C   0  0  0  0  0  0  0  0  0  0  0  0
    7.8423  -13.3529   19.7881 C   0  0  2  0  0  0  0  0  0  0  0  0
    8.8870  -12.7134   20.7034 C   0  0  0  0  0  0  0  0  0  0  0  0
    8.3713  -14.6671   19.2897 C   0  0  2  0  0  0  0  0  0  0  0  0
    7.4380  -15.1912   18.3109 N   0  0  0  0  0  0  0  0  0  0  0  0
    8.5857  -15.6372   20.3980 C   0  0  0  0  0  0  0  0  0  0  0  0
    7.5645  -16.1760   20.9017 O   0  0  0  0  0  0  0  0  0  0  0  0
    9.8660  -15.9499   20.8771 N   0  0  0  0  0  0  0  0  0  0  0  0
   10.0602  -16.8052   22.0357 C   0  0  1  0  0  0  0  0  0  0  0  0
   11.4291  -17.4982   21.9256 C   0  0  0  0  0  0  0  0  0  0  0  0
   11.4951  -18.5454   22.9656 C   0  0  0  0  0  0  0  0  0  0  0  0
   12.5742  -19.0325   23.3989 O   0  0  0  0  0  0  0  0  0  0  0  0
   10.1291  -15.9774   23.2830 C   0  0  0  0  0  0  0  0  0  0  0  0
   11.0447  -15.1391   23.4739 O   0  0  0  0  0  0  0  0  0  0  0  0
   10.3051  -19.0245   23.4966 O   0  0  0  0  0  0  0  0  0  0  0  0
    6.3915  -11.0118   26.1796 C   0  0  0  0  0  0  0  0  0  0  0  0
    6.0893  -12.7715   26.5356 S   0  0  0  0  0  0  0  0  0  0  0  0
    7.6961  -13.6422   26.6953 C   0  0  0  0  0  0  0  0  0  0  0  0
    7.7756  -14.6196   25.5380 C   0  0  0  0  0  0  0  0  0  0  0  0
    9.1067  -15.3419   25.4958 C   0  0  2  0  0  0  0  0  0  0  0  0
    9.1264  -16.1461   24.2879 N   0  0  0  0  0  0  0  0  0  0  0  0
    9.1617  -16.1998   26.7205 C   0  0  0  0  0  0  0  0  0  0  0  0
    8.9814  -17.4244   26.6905 O   0  0  0  0  0  0  0  0  0  0  0  0
    9.4235  -15.5941   27.9394 O   0  0  0  0  0  0  0  0  0  0  0  0
  2  3  1  1
  2  1  1  0
  4  2  1  0
  4  5  1  6
  6  7  2  0
  6  4  1  0
  8  6  1  0
  9  8  1  0
  9 10  1  6
 10 11  1  0
 11 12  2  0
 11 15  1  0
 13  9  1  0
 14 13  2  0
 17 16  1  0
 17 18  1  0
 18 19  1  0
 20 19  1  1
 20 21  1  0
 21 13  1  0
 22 20  1  0
 22 24  1  0
 23 22  2  0
M  END
$$$$
