VDM.pdb
     RDKit          3D

 24 23  0  0  1  0  0  0  0  0999 V2000
    7.3549  -12.5289   19.1876 C   0  0  0  0  0  0  0  0  0  0  0  0
    7.6818  -13.4487   20.3359 C   0  0  2  0  0  0  0  0  0  0  0  0
    8.7893  -12.8054   21.1714 C   0  0  0  0  0  0  0  0  0  0  0  0
    8.1758  -14.7628   19.8025 C   0  0  2  0  0  0  0  0  0  0  0  0
    7.1273  -15.3457   18.9871 N   0  0  0  0  0  0  0  0  0  0  0  0
    8.5823  -15.6893   20.8943 C   0  0  0  0  0  0  0  0  0  0  0  0
    7.6644  -16.2592   21.5420 O   0  0  0  0  0  0  0  0  0  0  0  0
    9.9285  -15.9290   21.2051 N   0  0  0  0  0  0  0  0  0  0  0  0
   10.3159  -16.8159   22.2891 C   0  0  1  0  0  0  0  0  0  0  0  0
   11.7841  -17.2330   22.0976 C   0  0  0  0  0  0  0  0  0  0  0  0
   12.0310  -18.4280   22.9304 C   0  0  0  0  0  0  0  0  0  0  0  0
   11.1997  -18.8844   23.7612 O   0  0  0  0  0  0  0  0  0  0  0  0
   10.2745  -16.0830   23.5957 C   0  0  0  0  0  0  0  0  0  0  0  0
   11.1571  -15.2494   23.9177 O   0  0  0  0  0  0  0  0  0  0  0  0
   13.2455  -19.0872   22.7956 O   0  0  0  0  0  0  0  0  0  0  0  0
    6.3675  -11.1406   25.5960 C   0  0  0  0  0  0  0  0  0  0  0  0
    6.3615  -12.8918   26.0938 S   0  0  0  0  0  0  0  0  0  0  0  0
    7.9641  -13.6578   25.6348 C   0  0  0  0  0  0  0  0  0  0  0  0
    7.8958  -15.1055   26.0825 C   0  0  0  0  0  0  0  0  0  0  0  0
    9.2085  -15.8295   25.8639 C   0  0  2  0  0  0  0  0  0  0  0  0
    9.2021  -16.3399   24.5054 N   0  0  0  0  0  0  0  0  0  0  0  0
    9.2489  -16.9432   26.8624 C   0  0  0  0  0  0  0  0  0  0  0  0
    9.0483  -18.1262   26.5565 O   0  0  0  0  0  0  0  0  0  0  0  0
    9.5202  -16.6336   28.1858 O   0  0  0  0  0  0  0  0  0  0  0  0
  2  3  1  1
  2  1  1  0
  4  2  1  0
  4  5  1  1
  6  7  2  0
  6  4  1  0
  8  6  1  0
  9  8  1  0
  9 10  1  6
 10 11  1  0
 11 12  2  0
 11 15  1  0
 13  9  1  0
 14 13  2  0
 17 16  1  0
 17 18  1  0
 18 19  1  0
 20 19  1  1
 20 21  1  0
 21 13  1  0
 22 20  1  0
 22 24  1  0
 23 22  2  0
M  END
$$$$
