VDM.pdb
     RDKit          3D

 24 23  0  0  1  0  0  0  0  0999 V2000
    7.3931  -12.5326   18.9234 C   0  0  0  0  0  0  0  0  0  0  0  0
    7.6797  -13.4791   20.0607 C   0  0  2  0  0  0  0  0  0  0  0  0
    8.6368  -12.7903   21.0343 C   0  0  0  0  0  0  0  0  0  0  0  0
    8.3370  -14.7201   19.5285 C   0  0  2  0  0  0  0  0  0  0  0  0
    7.4536  -15.3163   18.5446 N   0  0  0  0  0  0  0  0  0  0  0  0
    8.6608  -15.6871   20.6127 C   0  0  0  0  0  0  0  0  0  0  0  0
    7.7556  -16.4904   20.9618 O   0  0  0  0  0  0  0  0  0  0  0  0
    9.9177  -15.7160   21.2340 N   0  0  0  0  0  0  0  0  0  0  0  0
   10.2468  -16.7055   22.2461 C   0  0  1  0  0  0  0  0  0  0  0  0
   11.6575  -17.2546   21.9728 C   0  0  0  0  0  0  0  0  0  0  0  0
   11.9341  -18.3149   22.9637 C   0  0  0  0  0  0  0  0  0  0  0  0
   11.0345  -18.9865   23.5376 O   0  0  0  0  0  0  0  0  0  0  0  0
   10.3231  -16.0582   23.5956 C   0  0  0  0  0  0  0  0  0  0  0  0
   11.3496  -15.4457   23.9811 O   0  0  0  0  0  0  0  0  0  0  0  0
   13.2565  -18.5891   23.2856 O   0  0  0  0  0  0  0  0  0  0  0  0
    6.4682  -11.4229   26.9885 C   0  0  0  0  0  0  0  0  0  0  0  0
    6.1815  -12.9214   25.9950 S   0  0  0  0  0  0  0  0  0  0  0  0
    7.7953  -13.6180   25.4695 C   0  0  0  0  0  0  0  0  0  0  0  0
    7.9110  -14.9823   26.1223 C   0  0  0  0  0  0  0  0  0  0  0  0
    9.2458  -15.6381   25.8335 C   0  0  2  0  0  0  0  0  0  0  0  0
    9.1975  -16.1408   24.4729 N   0  0  0  0  0  0  0  0  0  0  0  0
    9.3913  -16.7538   26.8199 C   0  0  0  0  0  0  0  0  0  0  0  0
    9.2681  -17.9457   26.5077 O   0  0  0  0  0  0  0  0  0  0  0  0
    9.6737  -16.4359   28.1390 O   0  0  0  0  0  0  0  0  0  0  0  0
  2  3  1  1
  2  1  1  0
  4  2  1  0
  4  5  1  6
  6  7  2  0
  6  4  1  0
  8  6  1  0
  9  8  1  0
  9 10  1  6
 10 11  1  0
 11 12  2  0
 11 15  1  0
 13  9  1  0
 14 13  2  0
 17 16  1  0
 17 18  1  0
 18 19  1  0
 20 19  1  1
 20 21  1  0
 21 13  1  0
 22 20  1  0
 22 24  1  0
 23 22  2  0
M  END
$$$$
