VDM.pdb
     RDKit          3D

 24 23  0  0  1  0  0  0  0  0999 V2000
    7.4862  -12.7381   18.6184 C   0  0  0  0  0  0  0  0  0  0  0  0
    7.7561  -13.5165   19.8804 C   0  0  2  0  0  0  0  0  0  0  0  0
    8.7606  -12.7336   20.7267 C   0  0  0  0  0  0  0  0  0  0  0  0
    8.3499  -14.8508   19.5308 C   0  0  2  0  0  0  0  0  0  0  0  0
    7.3873  -15.5808   18.7281 N   0  0  0  0  0  0  0  0  0  0  0  0
    8.7324  -15.6248   20.7433 C   0  0  0  0  0  0  0  0  0  0  0  0
    7.8064  -16.1811   21.3912 O   0  0  0  0  0  0  0  0  0  0  0  0
   10.0651  -15.7396   21.1640 N   0  0  0  0  0  0  0  0  0  0  0  0
   10.4294  -16.4980   22.3488 C   0  0  1  0  0  0  0  0  0  0  0  0
   11.9596  -16.6464   22.4003 C   0  0  0  0  0  0  0  0  0  0  0  0
   12.3590  -17.6172   21.3607 C   0  0  0  0  0  0  0  0  0  0  0  0
   11.7873  -18.7271   21.1849 O   0  0  0  0  0  0  0  0  0  0  0  0
   10.0588  -15.7353   23.5844 C   0  0  0  0  0  0  0  0  0  0  0  0
   10.0398  -14.4797   23.6090 O   0  0  0  0  0  0  0  0  0  0  0  0
   13.4237  -17.2946   20.5301 O   0  0  0  0  0  0  0  0  0  0  0  0
    6.2434  -11.9209   25.9824 C   0  0  0  0  0  0  0  0  0  0  0  0
    7.4791  -12.9923   26.7822 S   0  0  0  0  0  0  0  0  0  0  0  0
    6.9461  -14.7421   26.6411 C   0  0  0  0  0  0  0  0  0  0  0  0
    7.7277  -15.3410   25.4873 C   0  0  0  0  0  0  0  0  0  0  0  0
    9.1053  -15.8041   25.9150 C   0  0  2  0  0  0  0  0  0  0  0  0
    9.7191  -16.4547   24.7721 N   0  0  0  0  0  0  0  0  0  0  0  0
    8.8972  -16.7671   27.0411 C   0  0  0  0  0  0  0  0  0  0  0  0
    8.4858  -17.9222   26.8688 O   0  0  0  0  0  0  0  0  0  0  0  0
    9.1755  -16.3440   28.3313 O   0  0  0  0  0  0  0  0  0  0  0  0
  2  3  1  1
  2  1  1  0
  4  2  1  0
  4  5  1  1
  6  7  2  0
  6  4  1  0
  8  6  1  0
  9  8  1  0
  9 10  1  1
 10 11  1  0
 11 12  2  0
 11 15  1  0
 13  9  1  0
 14 13  2  0
 17 16  1  0
 17 18  1  0
 18 19  1  0
 20 19  1  6
 20 21  1  0
 21 13  1  0
 22 20  1  0
 22 24  1  0
 23 22  2  0
M  END
$$$$
