VDM.pdb
     RDKit          3D

 24 23  0  0  1  0  0  0  0  0999 V2000
    7.3612  -13.5033   20.9261 C   0  0  0  0  0  0  0  0  0  0  0  0
    8.4696  -13.4581   19.9059 C   0  0  2  0  0  0  0  0  0  0  0  0
    8.0312  -12.5524   18.7545 C   0  0  0  0  0  0  0  0  0  0  0  0
    8.7173  -14.8395   19.3711 C   0  0  2  0  0  0  0  0  0  0  0  0
    7.5609  -15.2397   18.5923 N   0  0  0  0  0  0  0  0  0  0  0  0
    8.9937  -15.8164   20.4595 C   0  0  0  0  0  0  0  0  0  0  0  0
    8.0043  -16.3874   20.9904 O   0  0  0  0  0  0  0  0  0  0  0  0
   10.2971  -16.1012   20.8914 N   0  0  0  0  0  0  0  0  0  0  0  0
   10.5510  -16.9064   22.0741 C   0  0  1  0  0  0  0  0  0  0  0  0
   11.9680  -17.4984   21.9850 C   0  0  0  0  0  0  0  0  0  0  0  0
   11.9775  -18.4969   20.8962 C   0  0  0  0  0  0  0  0  0  0  0  0
   11.3344  -19.5806   20.9368 O   0  0  0  0  0  0  0  0  0  0  0  0
   10.5546  -16.0405   23.2973 C   0  0  0  0  0  0  0  0  0  0  0  0
   11.4290  -15.1584   23.4839 O   0  0  0  0  0  0  0  0  0  0  0  0
   12.7370  -18.2326   19.7645 O   0  0  0  0  0  0  0  0  0  0  0  0
    6.3651  -11.3873   27.5608 C   0  0  0  0  0  0  0  0  0  0  0  0
    6.5083  -12.6839   26.2908 S   0  0  0  0  0  0  0  0  0  0  0  0
    8.0446  -13.6450   26.5765 C   0  0  0  0  0  0  0  0  0  0  0  0
    8.2098  -14.5629   25.3803 C   0  0  0  0  0  0  0  0  0  0  0  0
    9.4675  -15.4017   25.4780 C   0  0  2  0  0  0  0  0  0  0  0  0
    9.5359  -16.2230   24.2835 N   0  0  0  0  0  0  0  0  0  0  0  0
    9.3212  -16.2421   26.7074 C   0  0  0  0  0  0  0  0  0  0  0  0
    9.0017  -17.4378   26.6686 O   0  0  0  0  0  0  0  0  0  0  0  0
    9.5514  -15.6532   27.9407 O   0  0  0  0  0  0  0  0  0  0  0  0
  2  3  1  6
  2  1  1  0
  4  2  1  0
  4  5  1  1
  6  7  2  0
  6  4  1  0
  8  6  1  0
  9  8  1  0
  9 10  1  6
 10 11  1  0
 11 12  2  0
 11 15  1  0
 13  9  1  0
 14 13  2  0
 17 16  1  0
 17 18  1  0
 18 19  1  0
 20 19  1  6
 20 21  1  0
 21 13  1  0
 22 20  1  0
 22 24  1  0
 23 22  2  0
M  END
$$$$
