VVD.pdb
     RDKit          3D

 23 22  0  0  1  0  0  0  0  0999 V2000
    6.6869  -15.0369   18.9039 C   0  0  0  0  0  0  0  0  0  0  0  0
    7.2103  -15.1061   20.3067 C   0  0  2  0  0  0  0  0  0  0  0  0
    6.2691  -15.9243   21.1584 C   0  0  0  0  0  0  0  0  0  0  0  0
    7.3699  -13.7591   20.9484 C   0  0  2  0  0  0  0  0  0  0  0  0
    8.1240  -12.8350   20.1546 N   0  0  0  0  0  0  0  0  0  0  0  0
    7.9555  -13.8323   22.3065 C   0  0  0  0  0  0  0  0  0  0  0  0
    9.1997  -13.9661   22.3945 O   0  0  0  0  0  0  0  0  0  0  0  0
    6.5444  -11.7071   25.4888 C   0  0  0  0  0  0  0  0  0  0  0  0
    6.8624  -13.1503   25.8496 C   0  0  2  0  0  0  0  0  0  0  0  0
    7.4928  -13.1455   27.2168 C   0  0  0  0  0  0  0  0  0  0  0  0
    7.7274  -13.8096   24.8150 C   0  0  2  0  0  0  0  0  0  0  0  0
    7.1921  -13.7603   23.4945 N   0  0  0  0  0  0  0  0  0  0  0  0
    8.1484  -15.1790   25.2270 C   0  0  0  0  0  0  0  0  0  0  0  0
    7.3540  -16.1532   25.2938 O   0  0  0  0  0  0  0  0  0  0  0  0
    9.4976  -15.4665   25.5743 N   0  0  0  0  0  0  0  0  0  0  0  0
    9.9444  -16.8391   25.8825 C   0  0  1  0  0  0  0  0  0  0  0  0
   11.2641  -17.0514   25.2044 C   0  0  0  0  0  0  0  0  0  0  0  0
   11.9369  -18.2953   25.5519 C   0  0  0  0  0  0  0  0  0  0  0  0
   11.3134  -19.3102   25.9164 O   0  0  0  0  0  0  0  0  0  0  0  0
   10.1049  -16.8898   27.3584 C   0  0  0  0  0  0  0  0  0  0  0  0
   10.4107  -17.9132   28.0048 O   0  0  0  0  0  0  0  0  0  0  0  0
   13.3200  -18.3632   25.4778 O   0  0  0  0  0  0  0  0  0  0  0  0
    9.9095  -15.7343   28.1149 O   0  0  0  0  0  0  0  0  0  0  0  0
  2  3  1  1
  2  1  1  0
  4  2  1  0
  4  5  1  6
  6  7  2  0
  6  4  1  0
  9  8  1  6
  9 11  1  0
 10  9  1  0
 11 12  1  6
 12  6  1  0
 13 15  1  0
 13 11  1  0
 14 13  2  0
 16 15  1  0
 16 20  1  0
 17 18  1  0
 16 17  1  6
 18 19  2  0
 20 21  2  0
 20 23  1  0
 22 18  1  0
M  END
$$$$
