VVD.pdb
     RDKit          3D

 23 22  0  0  1  0  0  0  0  0999 V2000
    7.5684  -19.6071   16.1284 C   0  0  0  0  0  0  0  0  0  0  0  0
    8.1872  -18.7880   17.2205 C   0  0  2  0  0  0  0  0  0  0  0  0
    7.5963  -19.1896   18.5511 C   0  0  0  0  0  0  0  0  0  0  0  0
    7.9827  -17.3119   17.0448 C   0  0  2  0  0  0  0  0  0  0  0  0
    8.4461  -16.8184   15.7821 N   0  0  0  0  0  0  0  0  0  0  0  0
    8.5842  -16.5117   18.1360 C   0  0  0  0  0  0  0  0  0  0  0  0
    9.8330  -16.3925   18.1464 O   0  0  0  0  0  0  0  0  0  0  0  0
    7.0081  -13.0700   19.7961 C   0  0  0  0  0  0  0  0  0  0  0  0
    7.4297  -14.1191   20.8138 C   0  0  2  0  0  0  0  0  0  0  0  0
    8.0095  -13.3921   21.9978 C   0  0  0  0  0  0  0  0  0  0  0  0
    8.3810  -15.1204   20.2259 C   0  0  2  0  0  0  0  0  0  0  0  0
    7.8311  -15.8833   19.1544 N   0  0  0  0  0  0  0  0  0  0  0  0
    9.0276  -15.9609   21.2736 C   0  0  0  0  0  0  0  0  0  0  0  0
    8.4359  -16.9021   21.8641 O   0  0  0  0  0  0  0  0  0  0  0  0
   10.3755  -15.7418   21.6722 N   0  0  0  0  0  0  0  0  0  0  0  0
   11.0445  -16.6119   22.6590 C   0  0  1  0  0  0  0  0  0  0  0  0
   12.5199  -16.3699   22.5531 C   0  0  0  0  0  0  0  0  0  0  0  0
   13.3277  -17.0775   23.5367 C   0  0  0  0  0  0  0  0  0  0  0  0
   12.8713  -18.0077   24.2282 O   0  0  0  0  0  0  0  0  0  0  0  0
   10.5412  -16.1776   23.9874 C   0  0  0  0  0  0  0  0  0  0  0  0
   10.1427  -16.9503   24.8833 O   0  0  0  0  0  0  0  0  0  0  0  0
   14.6527  -16.7108   23.7180 O   0  0  0  0  0  0  0  0  0  0  0  0
   10.4935  -14.8185   24.2978 O   0  0  0  0  0  0  0  0  0  0  0  0
  2  3  1  1
  2  1  1  0
  4  2  1  0
  4  5  1  6
  6  7  2  0
  6  4  1  0
  9  8  1  6
  9 11  1  0
 10  9  1  0
 11 12  1  6
 12  6  1  0
 13 15  1  0
 13 11  1  0
 14 13  2  0
 16 15  1  0
 16 20  1  0
 17 18  1  0
 16 17  1  1
 18 19  2  0
 20 21  2  0
 20 23  1  0
 22 18  1  0
M  END
$$$$
