VVD.pdb
     RDKit          3D

 23 22  0  0  1  0  0  0  0  0999 V2000
    7.7773  -17.3155   21.7488 C   0  0  0  0  0  0  0  0  0  0  0  0
    6.8042  -16.2054   21.4891 C   0  0  2  0  0  0  0  0  0  0  0  0
    6.1571  -16.4051   20.1392 C   0  0  0  0  0  0  0  0  0  0  0  0
    7.4363  -14.8446   21.5076 C   0  0  2  0  0  0  0  0  0  0  0  0
    8.4277  -14.6625   20.4894 N   0  0  0  0  0  0  0  0  0  0  0  0
    8.0148  -14.4946   22.8250 C   0  0  0  0  0  0  0  0  0  0  0  0
    9.2602  -14.5767   22.9511 O   0  0  0  0  0  0  0  0  0  0  0  0
    6.4928  -11.6924   25.5051 C   0  0  0  0  0  0  0  0  0  0  0  0
    6.8381  -13.0395   26.1217 C   0  0  2  0  0  0  0  0  0  0  0  0
    7.4216  -12.7760   27.4843 C   0  0  0  0  0  0  0  0  0  0  0  0
    7.7555  -13.8398   25.2434 C   0  0  2  0  0  0  0  0  0  0  0  0
    7.2435  -14.0779   23.9343 N   0  0  0  0  0  0  0  0  0  0  0  0
    8.2387  -15.0776   25.9189 C   0  0  0  0  0  0  0  0  0  0  0  0
    7.4887  -16.0507   26.1930 O   0  0  0  0  0  0  0  0  0  0  0  0
    9.6010  -15.2311   26.2988 N   0  0  0  0  0  0  0  0  0  0  0  0
   10.0946  -16.4668   26.9375 C   0  0  1  0  0  0  0  0  0  0  0  0
   11.4278  -16.7902   26.3338 C   0  0  0  0  0  0  0  0  0  0  0  0
   12.1303  -17.9004   26.9621 C   0  0  0  0  0  0  0  0  0  0  0  0
   11.5735  -18.6700   27.7679 O   0  0  0  0  0  0  0  0  0  0  0  0
   10.2422  -16.1447   28.3800 C   0  0  0  0  0  0  0  0  0  0  0  0
   10.3136  -14.9886   28.8460 O   0  0  0  0  0  0  0  0  0  0  0  0
   13.4662  -18.1173   26.6597 O   0  0  0  0  0  0  0  0  0  0  0  0
   10.3097  -17.1773   29.3153 O   0  0  0  0  0  0  0  0  0  0  0  0
  2  3  1  6
  2  1  1  0
  4  2  1  0
  4  5  1  6
  6  7  2  0
  6  4  1  0
  9  8  1  6
  9 11  1  0
 10  9  1  0
 11 12  1  6
 12  6  1  0
 13 15  1  0
 13 11  1  0
 14 13  2  0
 16 15  1  0
 16 20  1  0
 17 18  1  0
 16 17  1  6
 18 19  2  0
 20 21  2  0
 20 23  1  0
 22 18  1  0
M  END
$$$$
