VVD.pdb
     RDKit          3D

 23 22  0  0  1  0  0  0  0  0999 V2000
    5.5711  -19.0940   22.3211 C   0  0  0  0  0  0  0  0  0  0  0  0
    6.3799  -18.2334   23.2441 C   0  0  2  0  0  0  0  0  0  0  0  0
    5.8529  -18.3676   24.6530 C   0  0  0  0  0  0  0  0  0  0  0  0
    6.3574  -16.7795   22.8732 C   0  0  2  0  0  0  0  0  0  0  0  0
    6.6382  -16.5398   21.4889 N   0  0  0  0  0  0  0  0  0  0  0  0
    7.2622  -15.9567   23.7079 C   0  0  0  0  0  0  0  0  0  0  0  0
    8.4633  -15.8765   23.3546 O   0  0  0  0  0  0  0  0  0  0  0  0
    6.2125  -12.4593   25.6058 C   0  0  0  0  0  0  0  0  0  0  0  0
    6.9685  -13.4326   26.4976 C   0  0  2  0  0  0  0  0  0  0  0  0
    7.8903  -12.6227   27.3700 C   0  0  0  0  0  0  0  0  0  0  0  0
    7.6943  -14.4766   25.6997 C   0  0  2  0  0  0  0  0  0  0  0  0
    6.8458  -15.2656   24.8690 N   0  0  0  0  0  0  0  0  0  0  0  0
    8.6101  -15.2925   26.5469 C   0  0  0  0  0  0  0  0  0  0  0  0
    8.2034  -16.0788   27.4417 O   0  0  0  0  0  0  0  0  0  0  0  0
   10.0223  -15.2266   26.3880 N   0  0  0  0  0  0  0  0  0  0  0  0
   10.9324  -16.0885   27.1673 C   0  0  1  0  0  0  0  0  0  0  0  0
   12.3007  -15.9652   26.5682 C   0  0  0  0  0  0  0  0  0  0  0  0
   13.3295  -16.7598   27.2247 C   0  0  0  0  0  0  0  0  0  0  0  0
   13.0770  -17.5166   28.1813 O   0  0  0  0  0  0  0  0  0  0  0  0
   10.9197  -15.5441   28.5493 C   0  0  0  0  0  0  0  0  0  0  0  0
   10.8333  -14.3316   28.8343 O   0  0  0  0  0  0  0  0  0  0  0  0
   14.6394  -16.6785   26.7770 O   0  0  0  0  0  0  0  0  0  0  0  0
   11.0083  -16.4143   29.6358 O   0  0  0  0  0  0  0  0  0  0  0  0
  2  3  1  1
  2  1  1  0
  4  2  1  0
  4  5  1  6
  6  7  2  0
  6  4  1  0
  9  8  1  6
  9 11  1  0
 10  9  1  0
 11 12  1  1
 12  6  1  0
 13 15  1  0
 13 11  1  0
 14 13  2  0
 16 15  1  0
 16 20  1  0
 17 18  1  0
 16 17  1  6
 18 19  2  0
 20 21  2  0
 20 23  1  0
 22 18  1  0
M  END
$$$$
