VVD.pdb
     RDKit          3D

 23 22  0  0  1  0  0  0  0  0999 V2000
    6.2891  -11.1925   27.1756 C   0  0  0  0  0  0  0  0  0  0  0  0
    6.9470  -12.3796   26.5397 C   0  0  2  0  0  0  0  0  0  0  0  0
    8.2151  -11.9437   25.8449 C   0  0  0  0  0  0  0  0  0  0  0  0
    6.0768  -13.0726   25.5326 C   0  0  2  0  0  0  0  0  0  0  0  0
    4.8336  -13.5342   26.0749 N   0  0  0  0  0  0  0  0  0  0  0  0
    6.7627  -14.1944   24.8517 C   0  0  0  0  0  0  0  0  0  0  0  0
    6.7960  -15.2991   25.4453 O   0  0  0  0  0  0  0  0  0  0  0  0
    6.9885  -14.7010   20.7648 C   0  0  0  0  0  0  0  0  0  0  0  0
    8.3174  -14.9164   21.4732 C   0  0  2  0  0  0  0  0  0  0  0  0
    8.9968  -16.0862   20.8122 C   0  0  0  0  0  0  0  0  0  0  0  0
    8.1404  -15.1087   22.9514 C   0  0  2  0  0  0  0  0  0  0  0  0
    7.3748  -14.0845   23.5819 N   0  0  0  0  0  0  0  0  0  0  0  0
    9.4341  -15.3824   23.6394 C   0  0  0  0  0  0  0  0  0  0  0  0
    9.9104  -14.6356   24.5339 O   0  0  0  0  0  0  0  0  0  0  0  0
   10.2177  -16.5251   23.3172 N   0  0  0  0  0  0  0  0  0  0  0  0
   11.2318  -17.0587   24.2475 C   0  0  1  0  0  0  0  0  0  0  0  0
   10.5212  -17.5016   25.4906 C   0  0  0  0  0  0  0  0  0  0  0  0
   11.3668  -18.1600   26.4765 C   0  0  0  0  0  0  0  0  0  0  0  0
   12.5688  -18.4079   26.2635 O   0  0  0  0  0  0  0  0  0  0  0  0
   11.8420  -18.2228   23.5555 C   0  0  0  0  0  0  0  0  0  0  0  0
   13.0585  -18.5032   23.5751 O   0  0  0  0  0  0  0  0  0  0  0  0
   10.8248  -18.5283   27.6987 O   0  0  0  0  0  0  0  0  0  0  0  0
   11.0348  -19.0907   22.8202 O   0  0  0  0  0  0  0  0  0  0  0  0
  2  3  1  6
  2  1  1  0
  4  2  1  0
  4  5  1  1
  6  7  2  0
  6  4  1  0
  9  8  1  6
  9 11  1  0
 10  9  1  0
 11 12  1  1
 12  6  1  0
 13 15  1  0
 13 11  1  0
 14 13  2  0
 16 15  1  0
 16 20  1  0
 17 18  1  0
 16 17  1  1
 18 19  2  0
 20 21  2  0
 20 23  1  0
 22 18  1  0
M  END
$$$$
