VVD.pdb
     RDKit          3D

 23 22  0  0  1  0  0  0  0  0999 V2000
    7.8396  -17.3384   21.8884 C   0  0  0  0  0  0  0  0  0  0  0  0
    6.7972  -16.3004   21.6013 C   0  0  2  0  0  0  0  0  0  0  0  0
    6.1616  -16.5789   20.2600 C   0  0  0  0  0  0  0  0  0  0  0  0
    7.3412  -14.9021   21.5794 C   0  0  2  0  0  0  0  0  0  0  0  0
    8.2742  -14.6699   20.5171 N   0  0  0  0  0  0  0  0  0  0  0  0
    7.9523  -14.5001   22.8668 C   0  0  0  0  0  0  0  0  0  0  0  0
    9.2045  -14.5110   22.9423 O   0  0  0  0  0  0  0  0  0  0  0  0
    6.5040  -11.6165   25.5021 C   0  0  0  0  0  0  0  0  0  0  0  0
    6.8471  -12.9550   26.1385 C   0  0  2  0  0  0  0  0  0  0  0  0
    7.4349  -12.6721   27.4954 C   0  0  0  0  0  0  0  0  0  0  0  0
    7.7600  -13.7712   25.2703 C   0  0  2  0  0  0  0  0  0  0  0  0
    7.2046  -14.1096   24.0016 N   0  0  0  0  0  0  0  0  0  0  0  0
    8.3224  -14.9451   25.9969 C   0  0  0  0  0  0  0  0  0  0  0  0
    7.6504  -15.9746   26.2673 O   0  0  0  0  0  0  0  0  0  0  0  0
    9.6760  -14.9675   26.4337 N   0  0  0  0  0  0  0  0  0  0  0  0
   10.2516  -16.1416   27.1184 C   0  0  1  0  0  0  0  0  0  0  0  0
   11.5354  -16.4879   26.4266 C   0  0  0  0  0  0  0  0  0  0  0  0
   12.3046  -17.5494   27.0610 C   0  0  0  0  0  0  0  0  0  0  0  0
   11.8343  -18.6860   27.2580 O   0  0  0  0  0  0  0  0  0  0  0  0
   10.5148  -15.7065   28.5140 C   0  0  0  0  0  0  0  0  0  0  0  0
   10.5431  -14.5175   28.8940 O   0  0  0  0  0  0  0  0  0  0  0  0
   13.6073  -17.2966   27.4637 O   0  0  0  0  0  0  0  0  0  0  0  0
   10.7523  -16.6615   29.5025 O   0  0  0  0  0  0  0  0  0  0  0  0
  2  3  1  6
  2  1  1  0
  4  2  1  0
  4  5  1  6
  6  7  2  0
  6  4  1  0
  9  8  1  6
  9 11  1  0
 10  9  1  0
 11 12  1  6
 12  6  1  0
 13 15  1  0
 13 11  1  0
 14 13  2  0
 16 15  1  0
 16 20  1  0
 17 18  1  0
 16 17  1  6
 18 19  2  0
 20 21  2  0
 20 23  1  0
 22 18  1  0
M  END
$$$$
