VVD.pdb
     RDKit          3D

 23 22  0  0  1  0  0  0  0  0999 V2000
    9.2019  -19.7571   18.9138 C   0  0  0  0  0  0  0  0  0  0  0  0
    7.9631  -19.0778   18.4134 C   0  0  2  0  0  0  0  0  0  0  0  0
    7.2603  -19.9735   17.4212 C   0  0  0  0  0  0  0  0  0  0  0  0
    8.2357  -17.7626   17.7443 C   0  0  2  0  0  0  0  0  0  0  0  0
    9.0743  -17.8741   16.5880 N   0  0  0  0  0  0  0  0  0  0  0  0
    8.8020  -16.7520   18.6666 C   0  0  0  0  0  0  0  0  0  0  0  0
   10.0510  -16.6415   18.7088 O   0  0  0  0  0  0  0  0  0  0  0  0
    7.3637  -12.9970   19.7387 C   0  0  0  0  0  0  0  0  0  0  0  0
    7.6052  -13.9478   20.9014 C   0  0  2  0  0  0  0  0  0  0  0  0
    8.1298  -13.1303   22.0517 C   0  0  0  0  0  0  0  0  0  0  0  0
    8.5240  -15.0734   20.5239 C   0  0  2  0  0  0  0  0  0  0  0  0
    8.0157  -15.9158   19.4922 N   0  0  0  0  0  0  0  0  0  0  0  0
    9.0030  -15.8291   21.7162 C   0  0  0  0  0  0  0  0  0  0  0  0
    8.3113  -16.7027   22.3019 O   0  0  0  0  0  0  0  0  0  0  0  0
   10.2937  -15.6007   22.2692 N   0  0  0  0  0  0  0  0  0  0  0  0
   10.7484  -16.2923   23.4912 C   0  0  1  0  0  0  0  0  0  0  0  0
   12.1965  -15.9605   23.6901 C   0  0  0  0  0  0  0  0  0  0  0  0
   13.0989  -16.5507   22.7114 C   0  0  0  0  0  0  0  0  0  0  0  0
   12.9986  -17.7365   22.3432 O   0  0  0  0  0  0  0  0  0  0  0  0
    9.9310  -15.7345   24.5989 C   0  0  0  0  0  0  0  0  0  0  0  0
    9.4322  -14.5900   24.6070 O   0  0  0  0  0  0  0  0  0  0  0  0
   14.1090  -15.7742   22.1638 O   0  0  0  0  0  0  0  0  0  0  0  0
    9.6778  -16.5109   25.7298 O   0  0  0  0  0  0  0  0  0  0  0  0
  2  3  1  6
  2  1  1  0
  4  2  1  0
  4  5  1  6
  6  7  2  0
  6  4  1  0
  9  8  1  6
  9 11  1  0
 10  9  1  0
 11 12  1  6
 12  6  1  0
 13 15  1  0
 13 11  1  0
 14 13  2  0
 16 15  1  0
 16 20  1  0
 17 18  1  0
 16 17  1  1
 18 19  2  0
 20 21  2  0
 20 23  1  0
 22 18  1  0
M  END
$$$$
