VVD.pdb
     RDKit          3D

 23 22  0  0  1  0  0  0  0  0999 V2000
    7.1434  -20.1780   17.4867 C   0  0  0  0  0  0  0  0  0  0  0  0
    7.7447  -19.1186   18.3599 C   0  0  2  0  0  0  0  0  0  0  0  0
    7.0310  -19.0945   19.6907 C   0  0  0  0  0  0  0  0  0  0  0  0
    7.6688  -17.7436   17.7640 C   0  0  2  0  0  0  0  0  0  0  0  0
    8.2147  -17.6643   16.4417 N   0  0  0  0  0  0  0  0  0  0  0  0
    8.2961  -16.7089   18.6175 C   0  0  0  0  0  0  0  0  0  0  0  0
    9.5494  -16.6559   18.6373 O   0  0  0  0  0  0  0  0  0  0  0  0
    7.0590  -12.8776   19.1096 C   0  0  0  0  0  0  0  0  0  0  0  0
    7.3046  -13.5782   20.4374 C   0  0  2  0  0  0  0  0  0  0  0  0
    7.9336  -12.5752   21.3674 C   0  0  0  0  0  0  0  0  0  0  0  0
    8.1365  -14.8168   20.2726 C   0  0  2  0  0  0  0  0  0  0  0  0
    7.5628  -15.7892   19.4020 N   0  0  0  0  0  0  0  0  0  0  0  0
    8.5645  -15.3825   21.5837 C   0  0  0  0  0  0  0  0  0  0  0  0
    7.7563  -15.8379   22.4345 O   0  0  0  0  0  0  0  0  0  0  0  0
    9.9370  -15.4401   21.9535 N   0  0  0  0  0  0  0  0  0  0  0  0
   10.3986  -16.2440   23.1020 C   0  0  1  0  0  0  0  0  0  0  0  0
    9.9908  -17.6652   22.8563 C   0  0  0  0  0  0  0  0  0  0  0  0
   10.4516  -18.6155   23.8590 C   0  0  0  0  0  0  0  0  0  0  0  0
   11.0473  -18.2566   24.8924 O   0  0  0  0  0  0  0  0  0  0  0  0
   11.8790  -16.1227   23.1110 C   0  0  0  0  0  0  0  0  0  0  0  0
   12.5844  -15.9582   22.0941 O   0  0  0  0  0  0  0  0  0  0  0  0
   10.2244  -19.9699   23.6664 O   0  0  0  0  0  0  0  0  0  0  0  0
   12.5708  -16.1918   24.3203 O   0  0  0  0  0  0  0  0  0  0  0  0
  2  3  1  1
  2  1  1  0
  4  2  1  0
  4  5  1  6
  6  7  2  0
  6  4  1  0
  9  8  1  6
  9 11  1  0
 10  9  1  0
 11 12  1  1
 12  6  1  0
 13 15  1  0
 13 11  1  0
 14 13  2  0
 16 15  1  0
 16 20  1  0
 17 18  1  0
 16 17  1  6
 18 19  2  0
 20 21  2  0
 20 23  1  0
 22 18  1  0
M  END
$$$$
