VVD.pdb
     RDKit          3D

 23 22  0  0  1  0  0  0  0  0999 V2000
   11.4170  -15.5381   29.9076 C   0  0  0  0  0  0  0  0  0  0  0  0
   10.5953  -15.3576   28.6671 C   0  0  2  0  0  0  0  0  0  0  0  0
   10.4197  -13.8842   28.3862 C   0  0  0  0  0  0  0  0  0  0  0  0
    9.2336  -15.9811   28.7604 C   0  0  2  0  0  0  0  0  0  0  0  0
    9.2614  -17.3522   29.1749 N   0  0  0  0  0  0  0  0  0  0  0  0
    8.4572  -15.8627   27.5051 C   0  0  0  0  0  0  0  0  0  0  0  0
    8.1224  -16.9254   26.9285 O   0  0  0  0  0  0  0  0  0  0  0  0
    6.2255  -12.3797   26.3436 C   0  0  0  0  0  0  0  0  0  0  0  0
    7.1177  -13.0523   25.3112 C   0  0  2  0  0  0  0  0  0  0  0  0
    6.4361  -12.9260   23.9747 C   0  0  0  0  0  0  0  0  0  0  0  0
    7.4209  -14.4768   25.6748 C   0  0  2  0  0  0  0  0  0  0  0  0
    8.0791  -14.6274   26.9304 N   0  0  0  0  0  0  0  0  0  0  0  0
    8.0989  -15.2058   24.5653 C   0  0  0  0  0  0  0  0  0  0  0  0
    7.5217  -15.5158   23.4904 O   0  0  0  0  0  0  0  0  0  0  0  0
    9.4625  -15.5995   24.6614 N   0  0  0  0  0  0  0  0  0  0  0  0
   10.1422  -16.3184   23.5662 C   0  0  1  0  0  0  0  0  0  0  0  0
   10.7947  -15.2955   22.6860 C   0  0  0  0  0  0  0  0  0  0  0  0
   11.5662  -15.8440   21.5794 C   0  0  0  0  0  0  0  0  0  0  0  0
   11.0466  -16.5373   20.6844 O   0  0  0  0  0  0  0  0  0  0  0  0
   11.1679  -17.1720   24.2186 C   0  0  0  0  0  0  0  0  0  0  0  0
   11.3694  -17.2250   25.4496 O   0  0  0  0  0  0  0  0  0  0  0  0
   12.9281  -15.5917   21.5101 O   0  0  0  0  0  0  0  0  0  0  0  0
   11.9860  -17.9885   23.4378 O   0  0  0  0  0  0  0  0  0  0  0  0
  2  3  1  1
  2  1  1  0
  4  2  1  0
  4  5  1  6
  6  7  2  0
  6  4  1  0
  9  8  1  1
  9 11  1  0
 10  9  1  0
 11 12  1  1
 12  6  1  0
 13 15  1  0
 13 11  1  0
 14 13  2  0
 16 15  1  0
 16 20  1  0
 17 18  1  0
 16 17  1  6
 18 19  2  0
 20 21  2  0
 20 23  1  0
 22 18  1  0
M  END
$$$$
