VVD.pdb
     RDKit          3D

 23 22  0  0  1  0  0  0  0  0999 V2000
    6.6149  -16.2307   19.6152 C   0  0  0  0  0  0  0  0  0  0  0  0
    7.2159  -15.9358   20.9562 C   0  0  2  0  0  0  0  0  0  0  0  0
    6.4534  -16.6790   22.0271 C   0  0  0  0  0  0  0  0  0  0  0  0
    7.2064  -14.4760   21.3035 C   0  0  2  0  0  0  0  0  0  0  0  0
    7.7782  -13.6442   20.2867 N   0  0  0  0  0  0  0  0  0  0  0  0
    7.8602  -14.1868   22.6003 C   0  0  0  0  0  0  0  0  0  0  0  0
    9.1103  -14.0815   22.6081 O   0  0  0  0  0  0  0  0  0  0  0  0
    6.5408  -11.7353   25.5461 C   0  0  0  0  0  0  0  0  0  0  0  0
    6.9257  -13.1067   26.0802 C   0  0  2  0  0  0  0  0  0  0  0  0
    7.6241  -12.8984   27.3976 C   0  0  0  0  0  0  0  0  0  0  0  0
    7.7592  -13.8774   25.0981 C   0  0  2  0  0  0  0  0  0  0  0  0
    7.1552  -14.0257   23.8152 N   0  0  0  0  0  0  0  0  0  0  0  0
    8.2497  -15.1645   25.6683 C   0  0  0  0  0  0  0  0  0  0  0  0
    7.4861  -16.1157   25.9794 O   0  0  0  0  0  0  0  0  0  0  0  0
    9.6348  -15.3939   25.8970 N   0  0  0  0  0  0  0  0  0  0  0  0
   10.1222  -16.6345   26.5309 C   0  0  1  0  0  0  0  0  0  0  0  0
   11.5238  -16.8692   26.0544 C   0  0  0  0  0  0  0  0  0  0  0  0
   11.6483  -17.1328   24.6276 C   0  0  0  0  0  0  0  0  0  0  0  0
   10.9071  -17.9375   24.0320 O   0  0  0  0  0  0  0  0  0  0  0  0
   10.1078  -16.3735   27.9932 C   0  0  0  0  0  0  0  0  0  0  0  0
   10.0062  -15.2424   28.5119 O   0  0  0  0  0  0  0  0  0  0  0  0
   12.6229  -16.4701   23.8969 O   0  0  0  0  0  0  0  0  0  0  0  0
   10.2128  -17.4396   28.8865 O   0  0  0  0  0  0  0  0  0  0  0  0
  2  3  1  1
  2  1  1  0
  4  2  1  0
  4  5  1  6
  6  7  2  0
  6  4  1  0
  9  8  1  6
  9 11  1  0
 10  9  1  0
 11 12  1  6
 12  6  1  0
 13 15  1  0
 13 11  1  0
 14 13  2  0
 16 15  1  0
 16 20  1  0
 17 18  1  0
 16 17  1  6
 18 19  2  0
 20 21  2  0
 20 23  1  0
 22 18  1  0
M  END
$$$$
