VVD.pdb
     RDKit          3D

 23 22  0  0  1  0  0  0  0  0999 V2000
   12.0572  -17.8032   15.3451 C   0  0  0  0  0  0  0  0  0  0  0  0
   11.8204  -17.2111   16.7015 C   0  0  2  0  0  0  0  0  0  0  0  0
   10.7581  -18.0065   17.4225 C   0  0  0  0  0  0  0  0  0  0  0  0
   11.3799  -15.7774   16.6554 C   0  0  2  0  0  0  0  0  0  0  0  0
   12.2925  -14.9228   15.9556 N   0  0  0  0  0  0  0  0  0  0  0  0
   11.1090  -15.2132   17.9973 C   0  0  0  0  0  0  0  0  0  0  0  0
   12.0968  -14.9253   18.7150 O   0  0  0  0  0  0  0  0  0  0  0  0
    7.9799  -12.6949   18.9492 C   0  0  0  0  0  0  0  0  0  0  0  0
    8.1571  -13.8506   19.9224 C   0  0  2  0  0  0  0  0  0  0  0  0
    7.8790  -13.3233   21.3049 C   0  0  0  0  0  0  0  0  0  0  0  0
    9.5149  -14.4799   19.8046 C   0  0  2  0  0  0  0  0  0  0  0  0
    9.8089  -14.9856   18.5044 N   0  0  0  0  0  0  0  0  0  0  0  0
    9.7701  -15.4686   20.8906 C   0  0  0  0  0  0  0  0  0  0  0  0
    9.2178  -16.5988   20.9372 O   0  0  0  0  0  0  0  0  0  0  0  0
   10.6694  -15.1843   21.9555 N   0  0  0  0  0  0  0  0  0  0  0  0
   11.0214  -16.2001   22.9667 C   0  0  1  0  0  0  0  0  0  0  0  0
   12.4954  -16.0996   23.2193 C   0  0  0  0  0  0  0  0  0  0  0  0
   12.9974  -16.9773   24.2673 C   0  0  0  0  0  0  0  0  0  0  0  0
   12.4479  -18.0590   24.5498 O   0  0  0  0  0  0  0  0  0  0  0  0
   10.2592  -15.8351   24.1883 C   0  0  0  0  0  0  0  0  0  0  0  0
    9.7114  -14.7296   24.3799 O   0  0  0  0  0  0  0  0  0  0  0  0
   14.1260  -16.6054   24.9821 O   0  0  0  0  0  0  0  0  0  0  0  0
   10.1207  -16.7637   25.2198 O   0  0  0  0  0  0  0  0  0  0  0  0
  2  3  1  6
  2  1  1  0
  4  2  1  0
  4  5  1  1
  6  7  2  0
  6  4  1  0
  9  8  1  6
  9 11  1  0
 10  9  1  0
 11 12  1  6
 12  6  1  0
 13 15  1  0
 13 11  1  0
 14 13  2  0
 16 15  1  0
 16 20  1  0
 17 18  1  0
 16 17  1  1
 18 19  2  0
 20 21  2  0
 20 23  1  0
 22 18  1  0
M  END
$$$$
