VVD.pdb
     RDKit          3D

 23 22  0  0  1  0  0  0  0  0999 V2000
    6.6301  -16.5234   19.8425 C   0  0  0  0  0  0  0  0  0  0  0  0
    7.1311  -16.2070   21.2192 C   0  0  2  0  0  0  0  0  0  0  0  0
    6.2419  -16.8676   22.2457 C   0  0  0  0  0  0  0  0  0  0  0  0
    7.1715  -14.7360   21.5133 C   0  0  2  0  0  0  0  0  0  0  0  0
    7.7733  -13.9620   20.4686 N   0  0  0  0  0  0  0  0  0  0  0  0
    7.8327  -14.4226   22.8006 C   0  0  0  0  0  0  0  0  0  0  0  0
    9.0867  -14.3892   22.8147 O   0  0  0  0  0  0  0  0  0  0  0  0
    6.4835  -11.7684   25.5502 C   0  0  0  0  0  0  0  0  0  0  0  0
    6.9027  -13.0820   26.1926 C   0  0  2  0  0  0  0  0  0  0  0  0
    7.6150  -12.7495   27.4767 C   0  0  0  0  0  0  0  0  0  0  0  0
    7.7375  -13.9180   25.2666 C   0  0  2  0  0  0  0  0  0  0  0  0
    7.1306  -14.1626   24.0000 N   0  0  0  0  0  0  0  0  0  0  0  0
    8.2366  -15.1575   25.9276 C   0  0  0  0  0  0  0  0  0  0  0  0
    7.4805  -16.0940   26.2962 O   0  0  0  0  0  0  0  0  0  0  0  0
    9.6219  -15.3546   26.1835 N   0  0  0  0  0  0  0  0  0  0  0  0
   10.1178  -16.5488   26.8953 C   0  0  1  0  0  0  0  0  0  0  0  0
   11.4722  -16.8777   26.3441 C   0  0  0  0  0  0  0  0  0  0  0  0
   11.4590  -17.6624   25.1174 C   0  0  0  0  0  0  0  0  0  0  0  0
   10.4009  -18.0472   24.5845 O   0  0  0  0  0  0  0  0  0  0  0  0
   10.2203  -16.1542   28.3236 C   0  0  0  0  0  0  0  0  0  0  0  0
   10.4229  -14.9898   28.7261 O   0  0  0  0  0  0  0  0  0  0  0  0
   12.6610  -17.9985   24.5131 O   0  0  0  0  0  0  0  0  0  0  0  0
   10.0866  -17.1218   29.3193 O   0  0  0  0  0  0  0  0  0  0  0  0
  2  3  1  1
  2  1  1  0
  4  2  1  0
  4  5  1  6
  6  7  2  0
  6  4  1  0
  9  8  1  6
  9 11  1  0
 10  9  1  0
 11 12  1  6
 12  6  1  0
 13 15  1  0
 13 11  1  0
 14 13  2  0
 16 15  1  0
 16 20  1  0
 17 18  1  0
 16 17  1  6
 18 19  2  0
 20 21  2  0
 20 23  1  0
 22 18  1  0
M  END
$$$$
