VVD.pdb
     RDKit          3D

 23 22  0  0  1  0  0  0  0  0999 V2000
   11.0237  -15.3217   30.5530 C   0  0  0  0  0  0  0  0  0  0  0  0
   10.5906  -15.2653   29.1192 C   0  0  2  0  0  0  0  0  0  0  0  0
   10.4510  -13.8245   28.6889 C   0  0  0  0  0  0  0  0  0  0  0  0
    9.2836  -15.9575   28.8656 C   0  0  2  0  0  0  0  0  0  0  0  0
    9.2951  -17.3454   29.2210 N   0  0  0  0  0  0  0  0  0  0  0  0
    8.8146  -15.8118   27.4687 C   0  0  0  0  0  0  0  0  0  0  0  0
    8.9687  -16.7916   26.7006 O   0  0  0  0  0  0  0  0  0  0  0  0
    5.8658  -13.0425   26.2226 C   0  0  0  0  0  0  0  0  0  0  0  0
    7.1114  -13.1429   25.3551 C   0  0  2  0  0  0  0  0  0  0  0  0
    6.6772  -12.9873   23.9220 C   0  0  0  0  0  0  0  0  0  0  0  0
    7.8624  -14.4198   25.5977 C   0  0  2  0  0  0  0  0  0  0  0  0
    8.2096  -14.6381   26.9631 N   0  0  0  0  0  0  0  0  0  0  0  0
    9.0158  -14.5768   24.6664 C   0  0  0  0  0  0  0  0  0  0  0  0
   10.0584  -13.8749   24.7364 O   0  0  0  0  0  0  0  0  0  0  0  0
    9.0021  -15.5474   23.6265 N   0  0  0  0  0  0  0  0  0  0  0  0
   10.2095  -15.8548   22.8354 C   0  0  1  0  0  0  0  0  0  0  0  0
   11.2093  -16.4857   23.7568 C   0  0  0  0  0  0  0  0  0  0  0  0
   12.4485  -16.9068   23.1184 C   0  0  0  0  0  0  0  0  0  0  0  0
   12.6691  -16.7228   21.9063 O   0  0  0  0  0  0  0  0  0  0  0  0
    9.7761  -16.8247   21.7971 C   0  0  0  0  0  0  0  0  0  0  0  0
   10.4666  -17.1714   20.8165 O   0  0  0  0  0  0  0  0  0  0  0  0
   13.4240  -17.5357   23.8773 O   0  0  0  0  0  0  0  0  0  0  0  0
    8.5150  -17.4142   21.8855 O   0  0  0  0  0  0  0  0  0  0  0  0
  2  3  1  1
  2  1  1  0
  4  2  1  0
  4  5  1  6
  6  7  2  0
  6  4  1  0
  9  8  1  1
  9 11  1  0
 10  9  1  0
 11 12  1  1
 12  6  1  0
 13 15  1  0
 13 11  1  0
 14 13  2  0
 16 15  1  0
 16 20  1  0
 17 18  1  0
 16 17  1  1
 18 19  2  0
 20 21  2  0
 20 23  1  0
 22 18  1  0
M  END
$$$$
