VVD.pdb
     RDKit          3D

 23 22  0  0  1  0  0  0  0  0999 V2000
    6.4102  -11.9239   27.3423 C   0  0  0  0  0  0  0  0  0  0  0  0
    7.0753  -13.0059   26.5465 C   0  0  2  0  0  0  0  0  0  0  0  0
    8.1899  -12.4125   25.7180 C   0  0  0  0  0  0  0  0  0  0  0  0
    6.1376  -13.7251   25.6217 C   0  0  2  0  0  0  0  0  0  0  0  0
    5.0669  -14.3922   26.3009 N   0  0  0  0  0  0  0  0  0  0  0  0
    6.8286  -14.6853   24.7311 C   0  0  0  0  0  0  0  0  0  0  0  0
    7.0224  -15.8450   25.1685 O   0  0  0  0  0  0  0  0  0  0  0  0
    6.6232  -14.8392   20.6263 C   0  0  0  0  0  0  0  0  0  0  0  0
    8.0495  -14.8700   21.1541 C   0  0  2  0  0  0  0  0  0  0  0  0
    8.8218  -15.8497   20.3112 C   0  0  0  0  0  0  0  0  0  0  0  0
    8.0990  -15.1998   22.6177 C   0  0  2  0  0  0  0  0  0  0  0  0
    7.2758  -14.3647   23.4286 N   0  0  0  0  0  0  0  0  0  0  0  0
    9.4982  -15.3104   23.1199 C   0  0  0  0  0  0  0  0  0  0  0  0
   10.0626  -14.4077   23.7916 O   0  0  0  0  0  0  0  0  0  0  0  0
   10.2889  -16.4647   22.8630 N   0  0  0  0  0  0  0  0  0  0  0  0
   11.5706  -16.6981   23.5567 C   0  0  1  0  0  0  0  0  0  0  0  0
   11.2660  -17.3637   24.8646 C   0  0  0  0  0  0  0  0  0  0  0  0
   12.4320  -17.8471   25.5908 C   0  0  0  0  0  0  0  0  0  0  0  0
   13.5797  -17.8096   25.1081 O   0  0  0  0  0  0  0  0  0  0  0  0
   12.3453  -17.6110   22.6776 C   0  0  0  0  0  0  0  0  0  0  0  0
   13.5836  -17.5681   22.5241 O   0  0  0  0  0  0  0  0  0  0  0  0
   12.2701  -18.3696   26.8651 O   0  0  0  0  0  0  0  0  0  0  0  0
   11.6818  -18.6016   21.9537 O   0  0  0  0  0  0  0  0  0  0  0  0
  2  3  1  6
  2  1  1  0
  4  2  1  0
  4  5  1  1
  6  7  2  0
  6  4  1  0
  9  8  1  6
  9 11  1  0
 10  9  1  0
 11 12  1  1
 12  6  1  0
 13 15  1  0
 13 11  1  0
 14 13  2  0
 16 15  1  0
 16 20  1  0
 17 18  1  0
 16 17  1  1
 18 19  2  0
 20 21  2  0
 20 23  1  0
 22 18  1  0
M  END
$$$$
