VVD.pdb
     RDKit          3D

 23 22  0  0  1  0  0  0  0  0999 V2000
    6.9246  -16.5314   19.7192 C   0  0  0  0  0  0  0  0  0  0  0  0
    7.3445  -16.2637   21.1329 C   0  0  2  0  0  0  0  0  0  0  0  0
    6.2518  -16.7048   22.0775 C   0  0  0  0  0  0  0  0  0  0  0  0
    7.6386  -14.8170   21.4016 C   0  0  2  0  0  0  0  0  0  0  0  0
    8.5654  -14.2415   20.4729 N   0  0  0  0  0  0  0  0  0  0  0  0
    8.1105  -14.5707   22.7834 C   0  0  0  0  0  0  0  0  0  0  0  0
    9.3255  -14.7690   23.0246 O   0  0  0  0  0  0  0  0  0  0  0  0
    6.6407  -11.6745   25.3642 C   0  0  0  0  0  0  0  0  0  0  0  0
    6.7702  -13.0580   25.9834 C   0  0  2  0  0  0  0  0  0  0  0  0
    7.2357  -12.8753   27.4035 C   0  0  0  0  0  0  0  0  0  0  0  0
    7.6794  -13.9468   25.1854 C   0  0  2  0  0  0  0  0  0  0  0  0
    7.2709  -14.1290   23.8318 N   0  0  0  0  0  0  0  0  0  0  0  0
    7.9685  -15.2288   25.8890 C   0  0  0  0  0  0  0  0  0  0  0  0
    7.2632  -16.2628   25.7546 O   0  0  0  0  0  0  0  0  0  0  0  0
    9.0790  -15.3575   26.7687 N   0  0  0  0  0  0  0  0  0  0  0  0
    9.6481  -16.6751   27.1131 C   0  0  1  0  0  0  0  0  0  0  0  0
   10.3328  -17.2088   25.8912 C   0  0  0  0  0  0  0  0  0  0  0  0
   10.5781  -18.6442   25.9057 C   0  0  0  0  0  0  0  0  0  0  0  0
   10.2756  -19.3616   26.8781 O   0  0  0  0  0  0  0  0  0  0  0  0
   10.6365  -16.4186   28.1918 C   0  0  0  0  0  0  0  0  0  0  0  0
   11.4967  -15.5141   28.1668 O   0  0  0  0  0  0  0  0  0  0  0  0
   11.1686  -19.2435   24.8034 O   0  0  0  0  0  0  0  0  0  0  0  0
   10.6390  -17.2219   29.3322 O   0  0  0  0  0  0  0  0  0  0  0  0
  2  3  1  1
  2  1  1  0
  4  2  1  0
  4  5  1  6
  6  7  2  0
  6  4  1  0
  9  8  1  6
  9 11  1  0
 10  9  1  0
 11 12  1  6
 12  6  1  0
 13 15  1  0
 13 11  1  0
 14 13  2  0
 16 15  1  0
 16 20  1  0
 17 18  1  0
 16 17  1  6
 18 19  2  0
 20 21  2  0
 20 23  1  0
 22 18  1  0
M  END
$$$$
