VVD.pdb
     RDKit          3D

 23 22  0  0  1  0  0  0  0  0999 V2000
    7.6663  -17.1291   28.1915 C   0  0  0  0  0  0  0  0  0  0  0  0
    8.1896  -17.0884   26.7876 C   0  0  2  0  0  0  0  0  0  0  0  0
    8.9677  -15.8117   26.5743 C   0  0  0  0  0  0  0  0  0  0  0  0
    7.1090  -17.1561   25.7485 C   0  0  2  0  0  0  0  0  0  0  0  0
    6.2375  -18.2824   25.9048 N   0  0  0  0  0  0  0  0  0  0  0  0
    7.6361  -17.1308   24.3650 C   0  0  0  0  0  0  0  0  0  0  0  0
    8.0094  -18.2201   23.8672 O   0  0  0  0  0  0  0  0  0  0  0  0
    6.3098  -14.8489   21.2537 C   0  0  0  0  0  0  0  0  0  0  0  0
    7.8165  -14.7603   21.4431 C   0  0  2  0  0  0  0  0  0  0  0  0
    8.4427  -14.7310   20.0743 C   0  0  0  0  0  0  0  0  0  0  0  0
    8.3413  -15.8781   22.2965 C   0  0  2  0  0  0  0  0  0  0  0  0
    7.7389  -15.9550   23.5864 N   0  0  0  0  0  0  0  0  0  0  0  0
    9.8312  -15.8959   22.3424 C   0  0  0  0  0  0  0  0  0  0  0  0
   10.5110  -15.0506   22.9811 O   0  0  0  0  0  0  0  0  0  0  0  0
   10.5822  -16.8883   21.6534 N   0  0  0  0  0  0  0  0  0  0  0  0
   12.0345  -17.0474   21.8627 C   0  0  1  0  0  0  0  0  0  0  0  0
   12.2515  -18.3440   22.5828 C   0  0  0  0  0  0  0  0  0  0  0  0
   13.6476  -18.7156   22.7655 C   0  0  0  0  0  0  0  0  0  0  0  0
   14.1531  -19.7039   22.2002 O   0  0  0  0  0  0  0  0  0  0  0  0
   12.6348  -17.1008   20.5050 C   0  0  0  0  0  0  0  0  0  0  0  0
   13.7681  -16.6667   20.2119 O   0  0  0  0  0  0  0  0  0  0  0  0
   14.4514  -17.9493   23.5960 O   0  0  0  0  0  0  0  0  0  0  0  0
   11.9155  -17.6681   19.4531 O   0  0  0  0  0  0  0  0  0  0  0  0
  2  3  1  1
  2  1  1  0
  4  2  1  0
  4  5  1  1
  6  7  2  0
  6  4  1  0
  9  8  1  6
  9 11  1  0
 10  9  1  0
 11 12  1  1
 12  6  1  0
 13 15  1  0
 13 11  1  0
 14 13  2  0
 16 15  1  0
 16 20  1  0
 17 18  1  0
 16 17  1  6
 18 19  2  0
 20 21  2  0
 20 23  1  0
 22 18  1  0
M  END
$$$$
