VVD.pdb
     RDKit          3D

 23 22  0  0  1  0  0  0  0  0999 V2000
    7.2771  -17.5228   22.0369 C   0  0  0  0  0  0  0  0  0  0  0  0
    6.1951  -16.4923   21.9192 C   0  0  2  0  0  0  0  0  0  0  0  0
    5.3193  -16.8116   20.7310 C   0  0  0  0  0  0  0  0  0  0  0  0
    6.7196  -15.0964   21.7515 C   0  0  2  0  0  0  0  0  0  0  0  0
    7.4687  -14.9100   20.5445 N   0  0  0  0  0  0  0  0  0  0  0  0
    7.5266  -14.6403   22.9062 C   0  0  0  0  0  0  0  0  0  0  0  0
    8.7750  -14.6586   22.7839 O   0  0  0  0  0  0  0  0  0  0  0  0
    6.5692  -11.6602   25.5575 C   0  0  0  0  0  0  0  0  0  0  0  0
    7.0004  -12.9485   26.2419 C   0  0  2  0  0  0  0  0  0  0  0  0
    7.8436  -12.5682   27.4299 C   0  0  0  0  0  0  0  0  0  0  0  0
    7.7125  -13.8737   25.2984 C   0  0  2  0  0  0  0  0  0  0  0  0
    6.9678  -14.1910   24.1248 N   0  0  0  0  0  0  0  0  0  0  0  0
    8.2524  -15.0765   25.9941 C   0  0  0  0  0  0  0  0  0  0  0  0
    7.5230  -16.0032   26.4344 O   0  0  0  0  0  0  0  0  0  0  0  0
    9.6490  -15.2472   26.2034 N   0  0  0  0  0  0  0  0  0  0  0  0
   10.1973  -16.4674   26.8269 C   0  0  1  0  0  0  0  0  0  0  0  0
   11.5564  -16.7065   26.2418 C   0  0  0  0  0  0  0  0  0  0  0  0
   12.2931  -17.8118   26.8386 C   0  0  0  0  0  0  0  0  0  0  0  0
   11.8145  -18.5181   27.7463 O   0  0  0  0  0  0  0  0  0  0  0  0
   10.3022  -16.1675   28.2780 C   0  0  0  0  0  0  0  0  0  0  0  0
   10.2644  -15.0210   28.7708 O   0  0  0  0  0  0  0  0  0  0  0  0
   13.5734  -18.0967   26.3881 O   0  0  0  0  0  0  0  0  0  0  0  0
   10.4546  -17.2116   29.1903 O   0  0  0  0  0  0  0  0  0  0  0  0
  2  3  1  6
  2  1  1  0
  4  2  1  0
  4  5  1  6
  6  7  2  0
  6  4  1  0
  9  8  1  6
  9 11  1  0
 10  9  1  0
 11 12  1  6
 12  6  1  0
 13 15  1  0
 13 11  1  0
 14 13  2  0
 16 15  1  0
 16 20  1  0
 17 18  1  0
 16 17  1  6
 18 19  2  0
 20 21  2  0
 20 23  1  0
 22 18  1  0
M  END
$$$$
