RYD.pdb
     RDKit          3D

 32 32  0  0  1  0  0  0  0  0999 V2000
   48.9874  -14.5959   -5.7488 N   0  0  0  0  0  0  0  0  0  0  0  0
   48.4909  -15.2091   -6.9205 C   0  0  0  0  0  0  0  0  0  0  0  0
   49.1604  -16.1240   -7.5097 N   0  0  0  0  0  0  0  0  0  0  0  0
   47.2272  -14.8156   -7.4698 N   0  0  0  0  0  0  0  0  0  0  0  0
   46.4160  -13.7938   -6.8419 C   0  0  0  0  0  0  0  0  0  0  0  0
   45.1312  -13.6646   -7.6475 C   0  0  0  0  0  0  0  0  0  0  0  0
   44.9763  -12.2774   -8.2108 C   0  0  0  0  0  0  0  0  0  0  0  0
   44.5054  -11.2630   -7.2263 C   0  0  2  0  0  0  0  0  0  0  0  0
   44.1875  -11.9976   -5.9944 N   0  0  0  0  0  0  0  0  0  0  0  0
   43.3582  -10.4523   -7.6664 C   0  0  0  0  0  0  0  0  0  0  0  0
   43.3065   -9.7789   -8.7016 O   0  0  0  0  0  0  0  0  0  0  0  0
   48.8660  -16.6037   -8.3747 O   0  0  0  0  0  0  0  0  0  0  0  0
   35.2531   -6.8859   -7.5255 C   0  0  0  0  0  0  0  0  0  0  0  0
   36.3594   -7.7096   -7.3210 C   0  0  0  0  0  0  0  0  0  0  0  0
   36.9596   -8.3847   -8.3766 C   0  0  0  0  0  0  0  0  0  0  0  0
   38.0568   -9.1963   -8.1469 C   0  0  0  0  0  0  0  0  0  0  0  0
   38.5750   -9.3542   -6.8868 C   0  0  0  0  0  0  0  0  0  0  0  0
   39.7401  -10.2208   -6.6699 C   0  0  1  0  0  0  0  0  0  0  0  0
   41.0354   -9.6417   -7.1442 N   0  0  0  0  0  0  0  0  0  0  0  0
   42.1883  -10.4248   -6.8421 C   0  0  0  0  0  0  0  0  0  0  0  0
   41.2474   -8.2463   -6.7177 O   0  0  0  0  0  0  0  0  0  0  0  0
   41.5521   -7.8961   -5.5472 C   0  0  0  0  0  0  0  0  0  0  0  0
   37.9979   -8.6979   -5.8353 C   0  0  0  0  0  0  0  0  0  0  0  0
   36.9046   -7.8887   -6.0619 N   0  0  0  0  0  0  0  0  0  0  0  0
   41.1086   -7.1862   -7.6632 C   0  0  1  0  0  0  0  0  0  0  0  0
   41.2124   -5.7920   -7.3145 C   0  0  0  0  0  0  0  0  0  0  0  0
   42.6107   -5.2977   -7.1540 C   0  0  0  0  0  0  0  0  0  0  0  0
   42.7302   -3.8697   -6.8096 O   0  0  0  0  0  0  0  0  0  0  0  0
   41.6980   -3.1657   -6.7458 C   0  0  0  0  0  0  0  0  0  0  0  0
   40.4119   -4.9192   -8.1797 O   0  0  0  0  0  0  0  0  0  0  0  0
   39.7478   -5.4256   -9.2783 O   0  0  0  0  0  0  0  0  0  0  0  0
   43.9476   -3.2681   -6.5510 O   0  0  0  0  0  0  0  0  0  0  0  0
  2  3  2  0
  2  1  1  0
  4  2  1  0
  5  4  1  0
  6  5  1  0
  7  8  1  0
  7  6  1  0
  8  9  1  1
 10  8  1  0
 10 11  2  0
 12 13  1  0
 13 23  2  0
 13 14  1  0
 14 15  2  0
 15 16  1  0
 16 17  1  0
 18 17  1  6
 18 19  1  0
 19 10  1  0
 20 18  1  0
 21 20  2  0
 22 16  2  0
 23 22  1  0
 24 20  1  0
 25 24  1  0
 25 29  1  0
 25 26  1  6
 27 26  1  0
 27 28  2  0
 29 30  1  0
 31 27  1  0
 32 29  2  0
M  END
$$$$
