RYD.pdb
     RDKit          3D

 32 32  0  0  1  0  0  0  0  0999 V2000
   31.4362  -23.5016  -17.9358 N   0  0  0  0  0  0  0  0  0  0  0  0
   30.8732  -23.1162  -19.1727 C   0  0  0  0  0  0  0  0  0  0  0  0
   31.3931  -23.5045  -20.2733 N   0  0  0  0  0  0  0  0  0  0  0  0
   29.7088  -22.2820  -19.2152 N   0  0  0  0  0  0  0  0  0  0  0  0
   28.8703  -22.0956  -18.0497 C   0  0  0  0  0  0  0  0  0  0  0  0
   28.4243  -23.4718  -17.5770 C   0  0  0  0  0  0  0  0  0  0  0  0
   26.9395  -23.6529  -17.7449 C   0  0  0  0  0  0  0  0  0  0  0  0
   26.1249  -22.4806  -17.3181 C   0  0  2  0  0  0  0  0  0  0  0  0
   26.9757  -21.2968  -17.4997 N   0  0  0  0  0  0  0  0  0  0  0  0
   25.6059  -22.5495  -15.9422 C   0  0  0  0  0  0  0  0  0  0  0  0
   24.9030  -23.4560  -15.4817 O   0  0  0  0  0  0  0  0  0  0  0  0
   31.0521  -23.2395  -21.2106 O   0  0  0  0  0  0  0  0  0  0  0  0
   23.8448  -20.5106   -7.5699 C   0  0  0  0  0  0  0  0  0  0  0  0
   24.4205  -20.5590   -8.8390 C   0  0  0  0  0  0  0  0  0  0  0  0
   25.2130  -21.6312   -9.2298 C   0  0  0  0  0  0  0  0  0  0  0  0
   25.7728  -21.6552  -10.4952 C   0  0  0  0  0  0  0  0  0  0  0  0
   25.5632  -20.6341  -11.3866 C   0  0  0  0  0  0  0  0  0  0  0  0
   26.1685  -20.6839  -12.7233 C   0  0  2  0  0  0  0  0  0  0  0  0
   25.3080  -21.3252  -13.7656 N   0  0  0  0  0  0  0  0  0  0  0  0
   25.9292  -21.4872  -15.0390 C   0  0  0  0  0  0  0  0  0  0  0  0
   23.9935  -20.6764  -13.9244 O   0  0  0  0  0  0  0  0  0  0  0  0
   23.8103  -19.5614  -14.4801 C   0  0  0  0  0  0  0  0  0  0  0  0
   24.7862  -19.5704  -11.0201 C   0  0  0  0  0  0  0  0  0  0  0  0
   24.2274  -19.5445   -9.7598 N   0  0  0  0  0  0  0  0  0  0  0  0
   22.8198  -21.3201  -13.4294 C   0  0  1  0  0  0  0  0  0  0  0  0
   21.4938  -20.7752  -13.5741 C   0  0  0  0  0  0  0  0  0  0  0  0
   20.9276  -20.8846  -14.9499 C   0  0  0  0  0  0  0  0  0  0  0  0
   19.5870  -20.2963  -15.1196 O   0  0  0  0  0  0  0  0  0  0  0  0
   19.1999  -19.4120  -14.3236 C   0  0  0  0  0  0  0  0  0  0  0  0
   20.5584  -21.2525  -12.5502 O   0  0  0  0  0  0  0  0  0  0  0  0
   20.9805  -22.0936  -11.5408 O   0  0  0  0  0  0  0  0  0  0  0  0
   18.7292  -20.6840  -16.1319 O   0  0  0  0  0  0  0  0  0  0  0  0
  2  3  2  0
  2  1  1  0
  4  2  1  0
  5  4  1  0
  6  5  1  0
  7  8  1  0
  7  6  1  0
  8  9  1  1
 10  8  1  0
 10 11  2  0
 12 13  1  0
 13 23  2  0
 13 14  1  0
 14 15  2  0
 15 16  1  0
 16 17  1  0
 18 17  1  1
 18 19  1  0
 19 10  1  0
 20 18  1  0
 21 20  2  0
 22 16  2  0
 23 22  1  0
 24 20  1  0
 25 24  1  0
 25 29  1  0
 25 26  1  1
 27 26  1  0
 27 28  2  0
 29 30  1  0
 31 27  1  0
 32 29  2  0
M  END
$$$$
