RYD.pdb
     RDKit          3D

 32 32  0  0  1  0  0  0  0  0999 V2000
   44.8004  -18.5447   -8.4687 N   0  0  0  0  0  0  0  0  0  0  0  0
   44.0152  -17.6128   -9.1832 C   0  0  0  0  0  0  0  0  0  0  0  0
   42.8952  -17.9594   -9.6907 N   0  0  0  0  0  0  0  0  0  0  0  0
   44.4614  -16.2614   -9.3519 N   0  0  0  0  0  0  0  0  0  0  0  0
   45.7853  -15.8460   -8.9385 C   0  0  0  0  0  0  0  0  0  0  0  0
   45.6222  -14.6961   -7.9548 C   0  0  0  0  0  0  0  0  0  0  0  0
   44.6910  -13.6435   -8.4939 C   0  0  0  0  0  0  0  0  0  0  0  0
   44.5739  -12.4295   -7.6381 C   0  0  2  0  0  0  0  0  0  0  0  0
   44.3152  -12.9080   -6.2734 N   0  0  0  0  0  0  0  0  0  0  0  0
   43.5455  -11.4650   -8.0613 C   0  0  0  0  0  0  0  0  0  0  0  0
   43.5771  -10.7837   -9.0921 O   0  0  0  0  0  0  0  0  0  0  0  0
   42.2823  -17.3389  -10.2424 O   0  0  0  0  0  0  0  0  0  0  0  0
   35.8903   -7.0101   -7.9462 C   0  0  0  0  0  0  0  0  0  0  0  0
   36.8980   -7.9503   -7.7344 C   0  0  0  0  0  0  0  0  0  0  0  0
   37.2318   -8.3720   -6.4534 C   0  0  0  0  0  0  0  0  0  0  0  0
   38.2359   -9.3065   -6.2702 C   0  0  0  0  0  0  0  0  0  0  0  0
   38.9204   -9.8351   -7.3349 C   0  0  0  0  0  0  0  0  0  0  0  0
   39.9814  -10.8254   -7.1135 C   0  0  1  0  0  0  0  0  0  0  0  0
   41.3450  -10.3703   -7.5277 N   0  0  0  0  0  0  0  0  0  0  0  0
   42.3989  -11.2818   -7.2242 C   0  0  0  0  0  0  0  0  0  0  0  0
   41.6885   -9.0216   -7.0408 O   0  0  0  0  0  0  0  0  0  0  0  0
   42.0140   -8.7524   -5.8546 C   0  0  0  0  0  0  0  0  0  0  0  0
   38.6061   -9.4323   -8.6032 C   0  0  0  0  0  0  0  0  0  0  0  0
   37.6059   -8.5013   -8.7879 N   0  0  0  0  0  0  0  0  0  0  0  0
   41.6641   -7.9144   -7.9410 C   0  0  1  0  0  0  0  0  0  0  0  0
   41.9786   -6.5642   -7.5484 C   0  0  0  0  0  0  0  0  0  0  0  0
   43.4240   -6.3226   -7.2698 C   0  0  0  0  0  0  0  0  0  0  0  0
   43.7022   -5.2039   -6.3515 O   0  0  0  0  0  0  0  0  0  0  0  0
   42.7492   -4.5366   -5.8913 C   0  0  0  0  0  0  0  0  0  0  0  0
   41.4112   -5.5542   -8.4480 O   0  0  0  0  0  0  0  0  0  0  0  0
   40.6519   -4.5123   -7.9555 O   0  0  0  0  0  0  0  0  0  0  0  0
   44.9853   -4.8563   -5.9725 O   0  0  0  0  0  0  0  0  0  0  0  0
  2  3  2  0
  2  1  1  0
  4  2  1  0
  5  4  1  0
  6  5  1  0
  7  8  1  0
  7  6  1  0
  8  9  1  1
 10  8  1  0
 10 11  2  0
 12 13  1  0
 13 23  2  0
 13 14  1  0
 14 15  2  0
 15 16  1  0
 16 17  1  0
 18 17  1  6
 18 19  1  0
 19 10  1  0
 20 18  1  0
 21 20  2  0
 22 16  2  0
 23 22  1  0
 24 20  1  0
 25 24  1  0
 25 29  1  0
 25 26  1  6
 27 26  1  0
 27 28  2  0
 29 30  1  0
 31 27  1  0
 32 29  2  0
M  END
$$$$
