RYD.pdb
     RDKit          3D

 32 32  0  0  1  0  0  0  0  0999 V2000
   21.3816  -18.5260  -20.8388 N   0  0  0  0  0  0  0  0  0  0  0  0
   22.2137  -18.8223  -19.7364 C   0  0  0  0  0  0  0  0  0  0  0  0
   22.0501  -19.8993  -19.0689 N   0  0  0  0  0  0  0  0  0  0  0  0
   23.2561  -17.9196  -19.3467 N   0  0  0  0  0  0  0  0  0  0  0  0
   23.1263  -16.4898  -19.5341 C   0  0  0  0  0  0  0  0  0  0  0  0
   24.4810  -15.8609  -19.2411 C   0  0  0  0  0  0  0  0  0  0  0  0
   24.4681  -14.3814  -19.5173 C   0  0  0  0  0  0  0  0  0  0  0  0
   24.0324  -13.5443  -18.3643 C   0  0  2  0  0  0  0  0  0  0  0  0
   22.7299  -14.0731  -17.9373 N   0  0  0  0  0  0  0  0  0  0  0  0
   23.9499  -12.1002  -18.6379 C   0  0  0  0  0  0  0  0  0  0  0  0
   24.8975  -11.3706  -18.9500 O   0  0  0  0  0  0  0  0  0  0  0  0
   22.5080  -20.1080  -18.1679 O   0  0  0  0  0  0  0  0  0  0  0  0
   23.1716  -13.3674  -24.3242 C   0  0  0  0  0  0  0  0  0  0  0  0
   22.8235  -12.4938  -23.2947 C   0  0  0  0  0  0  0  0  0  0  0  0
   23.5547  -11.3374  -23.0534 C   0  0  0  0  0  0  0  0  0  0  0  0
   23.1883  -10.4867  -22.0252 C   0  0  0  0  0  0  0  0  0  0  0  0
   22.1069  -10.7586  -21.2265 C   0  0  0  0  0  0  0  0  0  0  0  0
   21.7389   -9.8395  -20.1423 C   0  0  2  0  0  0  0  0  0  0  0  0
   22.4588  -10.0865  -18.8544 N   0  0  0  0  0  0  0  0  0  0  0  0
   22.6727  -11.4613  -18.5414 C   0  0  0  0  0  0  0  0  0  0  0  0
   21.8553   -9.3944  -17.7007 O   0  0  0  0  0  0  0  0  0  0  0  0
   21.0230   -9.9145  -16.9118 C   0  0  0  0  0  0  0  0  0  0  0  0
   21.3750  -11.8920  -21.4486 C   0  0  0  0  0  0  0  0  0  0  0  0
   21.7383  -12.7409  -22.4726 N   0  0  0  0  0  0  0  0  0  0  0  0
   22.2097   -8.0407  -17.4201 C   0  0  1  0  0  0  0  0  0  0  0  0
   21.7096   -7.3073  -16.2852 C   0  0  0  0  0  0  0  0  0  0  0  0
   21.9056   -7.9898  -14.9734 C   0  0  0  0  0  0  0  0  0  0  0  0
   21.3865   -7.2551  -13.8060 O   0  0  0  0  0  0  0  0  0  0  0  0
   20.4849   -6.4031  -13.9688 C   0  0  0  0  0  0  0  0  0  0  0  0
   22.1585   -5.9113  -16.2563 O   0  0  0  0  0  0  0  0  0  0  0  0
   21.6546   -5.0234  -15.3278 O   0  0  0  0  0  0  0  0  0  0  0  0
   21.8583   -7.4694  -12.5244 O   0  0  0  0  0  0  0  0  0  0  0  0
  2  3  2  0
  2  1  1  0
  4  2  1  0
  5  4  1  0
  6  5  1  0
  7  8  1  0
  7  6  1  0
  8  9  1  6
 10  8  1  0
 10 11  2  0
 12 13  1  0
 13 23  2  0
 13 14  1  0
 14 15  2  0
 15 16  1  0
 16 17  1  0
 18 17  1  6
 18 19  1  0
 19 10  1  0
 20 18  1  0
 21 20  2  0
 22 16  2  0
 23 22  1  0
 24 20  1  0
 25 24  1  0
 25 29  1  0
 25 26  1  6
 27 26  1  0
 27 28  2  0
 29 30  1  0
 31 27  1  0
 32 29  2  0
M  END
$$$$
