RYD.pdb
     RDKit          3D

 32 32  0  0  1  0  0  0  0  0999 V2000
   21.8739  -19.3083  -17.4247 N   0  0  0  0  0  0  0  0  0  0  0  0
   20.9791  -18.6012  -18.2584 C   0  0  0  0  0  0  0  0  0  0  0  0
   19.9790  -19.1930  -18.7892 N   0  0  0  0  0  0  0  0  0  0  0  0
   21.1776  -17.2071  -18.5240 N   0  0  0  0  0  0  0  0  0  0  0  0
   22.2588  -16.4672  -17.9076 C   0  0  0  0  0  0  0  0  0  0  0  0
   22.2226  -15.0499  -18.4612 C   0  0  0  0  0  0  0  0  0  0  0  0
   23.4234  -14.2586  -18.0167 C   0  0  0  0  0  0  0  0  0  0  0  0
   23.1162  -13.1627  -17.0553 C   0  0  2  0  0  0  0  0  0  0  0  0
   21.6912  -12.8488  -17.2264 N   0  0  0  0  0  0  0  0  0  0  0  0
   23.9427  -11.9535  -17.2030 C   0  0  0  0  0  0  0  0  0  0  0  0
   23.7752  -11.0648  -18.0456 O   0  0  0  0  0  0  0  0  0  0  0  0
   19.2786  -18.7364  -19.3941 O   0  0  0  0  0  0  0  0  0  0  0  0
   20.9176   -7.7789  -13.4080 C   0  0  0  0  0  0  0  0  0  0  0  0
   22.1522   -8.2831  -13.8151 C   0  0  0  0  0  0  0  0  0  0  0  0
   22.9257   -7.6189  -14.7589 C   0  0  0  0  0  0  0  0  0  0  0  0
   24.1477   -8.1405  -15.1459 C   0  0  0  0  0  0  0  0  0  0  0  0
   24.6225   -9.3126  -14.6149 C   0  0  0  0  0  0  0  0  0  0  0  0
   25.9225   -9.8446  -15.0423 C   0  0  2  0  0  0  0  0  0  0  0  0
   25.8817  -10.6143  -16.3245 N   0  0  0  0  0  0  0  0  0  0  0  0
   25.0417  -11.7666  -16.3053 C   0  0  0  0  0  0  0  0  0  0  0  0
   27.2165  -10.9715  -16.8392 O   0  0  0  0  0  0  0  0  0  0  0  0
   28.2056  -11.2633  -16.1166 C   0  0  0  0  0  0  0  0  0  0  0  0
   23.8756   -9.9807  -13.6848 C   0  0  0  0  0  0  0  0  0  0  0  0
   22.6577   -9.4627  -13.2978 N   0  0  0  0  0  0  0  0  0  0  0  0
   27.4496  -11.0018  -18.2469 C   0  0  1  0  0  0  0  0  0  0  0  0
   28.7015  -11.4035  -18.8364 C   0  0  0  0  0  0  0  0  0  0  0  0
   29.2879  -12.6458  -18.2550 C   0  0  0  0  0  0  0  0  0  0  0  0
   30.5688  -13.0669  -18.8501 O   0  0  0  0  0  0  0  0  0  0  0  0
   31.0859  -12.3686  -19.7502 C   0  0  0  0  0  0  0  0  0  0  0  0
   28.6637  -11.4418  -20.3022 O   0  0  0  0  0  0  0  0  0  0  0  0
   27.4954  -11.1801  -20.9885 O   0  0  0  0  0  0  0  0  0  0  0  0
   31.2306  -14.2134  -18.4520 O   0  0  0  0  0  0  0  0  0  0  0  0
  2  3  2  0
  2  1  1  0
  4  2  1  0
  5  4  1  0
  6  5  1  0
  7  8  1  0
  7  6  1  0
  8  9  1  6
 10  8  1  0
 10 11  2  0
 12 13  1  0
 13 23  2  0
 13 14  1  0
 14 15  2  0
 15 16  1  0
 16 17  1  0
 18 17  1  6
 18 19  1  0
 19 10  1  0
 20 18  1  0
 21 20  2  0
 22 16  2  0
 23 22  1  0
 24 20  1  0
 25 24  1  0
 25 29  1  0
 25 26  1  1
 27 26  1  0
 27 28  2  0
 29 30  1  0
 31 27  1  0
 32 29  2  0
M  END
$$$$
