RYD.pdb
     RDKit          3D

 32 32  0  0  1  0  0  0  0  0999 V2000
   31.3202  -24.6978  -15.9420 N   0  0  0  0  0  0  0  0  0  0  0  0
   31.3028  -24.8454  -17.3468 C   0  0  0  0  0  0  0  0  0  0  0  0
   31.6094  -25.9616  -17.8875 N   0  0  0  0  0  0  0  0  0  0  0  0
   30.9411  -23.7453  -18.1909 N   0  0  0  0  0  0  0  0  0  0  0  0
   30.3796  -22.5273  -17.6452 C   0  0  0  0  0  0  0  0  0  0  0  0
   28.9823  -22.8509  -17.1360 C   0  0  0  0  0  0  0  0  0  0  0  0
   28.2439  -21.6021  -16.7349 C   0  0  0  0  0  0  0  0  0  0  0  0
   26.8694  -21.8416  -16.2121 C   0  0  2  0  0  0  0  0  0  0  0  0
   26.2274  -22.7752  -17.1473 N   0  0  0  0  0  0  0  0  0  0  0  0
   26.0510  -20.6313  -16.0320 C   0  0  0  0  0  0  0  0  0  0  0  0
   26.3610  -19.6463  -15.3529 O   0  0  0  0  0  0  0  0  0  0  0  0
   31.6115  -26.1420  -18.9036 O   0  0  0  0  0  0  0  0  0  0  0  0
   28.7774  -15.8319  -18.9651 C   0  0  0  0  0  0  0  0  0  0  0  0
   27.5884  -16.5151  -18.7127 C   0  0  0  0  0  0  0  0  0  0  0  0
   26.6943  -16.0718  -17.7461 C   0  0  0  0  0  0  0  0  0  0  0  0
   25.5209  -16.7680  -17.5149 C   0  0  0  0  0  0  0  0  0  0  0  0
   25.2125  -17.9004  -18.2249 C   0  0  0  0  0  0  0  0  0  0  0  0
   23.9607  -18.6206  -17.9605 C   0  0  2  0  0  0  0  0  0  0  0  0
   23.9567  -19.4009  -16.6842 N   0  0  0  0  0  0  0  0  0  0  0  0
   24.7817  -20.5641  -16.6902 C   0  0  0  0  0  0  0  0  0  0  0  0
   22.6039  -19.7442  -16.2084 O   0  0  0  0  0  0  0  0  0  0  0  0
   22.0390  -20.8527  -16.4025 C   0  0  0  0  0  0  0  0  0  0  0  0
   26.0800  -18.3521  -19.1804 C   0  0  0  0  0  0  0  0  0  0  0  0
   27.2497  -17.6599  -19.4123 N   0  0  0  0  0  0  0  0  0  0  0  0
   21.8455  -18.7849  -15.4727 C   0  0  2  0  0  0  0  0  0  0  0  0
   20.5130  -19.0318  -14.9831 C   0  0  0  0  0  0  0  0  0  0  0  0
   19.9454  -17.9297  -14.1534 C   0  0  0  0  0  0  0  0  0  0  0  0
   18.6012  -18.1902  -13.6082 O   0  0  0  0  0  0  0  0  0  0  0  0
   18.1241  -19.3447  -13.6780 C   0  0  0  0  0  0  0  0  0  0  0  0
   19.5852  -19.4714  -16.0305 O   0  0  0  0  0  0  0  0  0  0  0  0
   18.8414  -20.6242  -15.8809 O   0  0  0  0  0  0  0  0  0  0  0  0
   17.8362  -17.2025  -13.0165 O   0  0  0  0  0  0  0  0  0  0  0  0
  2  3  2  0
  2  1  1  0
  4  2  1  0
  5  4  1  0
  6  5  1  0
  7  8  1  0
  7  6  1  0
  8  9  1  6
 10  8  1  0
 10 11  2  0
 12 13  1  0
 13 23  2  0
 13 14  1  0
 14 15  2  0
 15 16  1  0
 16 17  1  0
 18 17  1  1
 18 19  1  0
 19 10  1  0
 20 18  1  0
 21 20  2  0
 22 16  2  0
 23 22  1  0
 24 20  1  0
 25 24  1  0
 25 29  1  0
 25 26  1  1
 27 26  1  0
 27 28  2  0
 29 30  1  0
 31 27  1  0
 32 29  2  0
M  END
$$$$
