RYD.pdb
     RDKit          3D

 32 32  0  0  1  0  0  0  0  0999 V2000
   20.5667  -29.0900  -10.6586 N   0  0  0  0  0  0  0  0  0  0  0  0
   21.1041  -28.3805  -11.7555 C   0  0  0  0  0  0  0  0  0  0  0  0
   21.8263  -28.9764  -12.6248 N   0  0  0  0  0  0  0  0  0  0  0  0
   20.8492  -26.9791  -11.9127 N   0  0  0  0  0  0  0  0  0  0  0  0
   20.0882  -26.2351  -10.9310 C   0  0  0  0  0  0  0  0  0  0  0  0
   18.7156  -25.9553  -11.5262 C   0  0  0  0  0  0  0  0  0  0  0  0
   18.7594  -24.7894  -12.4771 C   0  0  0  0  0  0  0  0  0  0  0  0
   18.7905  -23.4557  -11.8137 C   0  0  2  0  0  0  0  0  0  0  0  0
   17.5194  -23.3238  -11.0889 N   0  0  0  0  0  0  0  0  0  0  0  0
   19.0010  -22.3138  -12.7186 C   0  0  0  0  0  0  0  0  0  0  0  0
   18.9986  -22.3631  -13.9537 O   0  0  0  0  0  0  0  0  0  0  0  0
   22.2603  -28.5192  -13.4419 O   0  0  0  0  0  0  0  0  0  0  0  0
   19.6997  -13.9111  -15.3581 C   0  0  0  0  0  0  0  0  0  0  0  0
   19.5624  -15.0580  -14.5771 C   0  0  0  0  0  0  0  0  0  0  0  0
   18.3519  -15.7356  -14.4991 C   0  0  0  0  0  0  0  0  0  0  0  0
   18.2419  -16.8718  -13.7168 C   0  0  0  0  0  0  0  0  0  0  0  0
   19.3114  -17.3538  -13.0059 C   0  0  0  0  0  0  0  0  0  0  0  0
   19.1684  -18.5616  -12.1834 C   0  0  2  0  0  0  0  0  0  0  0  0
   19.4118  -19.8407  -12.9199 N   0  0  0  0  0  0  0  0  0  0  0  0
   19.2302  -21.0232  -12.1436 C   0  0  0  0  0  0  0  0  0  0  0  0
   20.7148  -19.8846  -13.6087 O   0  0  0  0  0  0  0  0  0  0  0  0
   21.8022  -20.2029  -13.0593 C   0  0  0  0  0  0  0  0  0  0  0  0
   20.5108  -16.7005  -13.0699 C   0  0  0  0  0  0  0  0  0  0  0  0
   20.6226  -15.5683  -13.8489 N   0  0  0  0  0  0  0  0  0  0  0  0
   20.7970  -19.5512  -14.9940 C   0  0  2  0  0  0  0  0  0  0  0  0
   22.0377  -19.4899  -15.7241 C   0  0  0  0  0  0  0  0  0  0  0  0
   22.4198  -20.7631  -16.4010 C   0  0  0  0  0  0  0  0  0  0  0  0
   23.6807  -20.7090  -17.1622 O   0  0  0  0  0  0  0  0  0  0  0  0
   24.2570  -19.6094  -17.3171 C   0  0  0  0  0  0  0  0  0  0  0  0
   22.1206  -18.3362  -16.6259 O   0  0  0  0  0  0  0  0  0  0  0  0
   23.2588  -18.0970  -17.3687 O   0  0  0  0  0  0  0  0  0  0  0  0
   24.2603  -21.8338  -17.7188 O   0  0  0  0  0  0  0  0  0  0  0  0
  2  3  2  0
  2  1  1  0
  4  2  1  0
  5  4  1  0
  6  5  1  0
  7  8  1  0
  7  6  1  0
  8  9  1  6
 10  8  1  0
 10 11  2  0
 12 13  1  0
 13 23  2  0
 13 14  1  0
 14 15  2  0
 15 16  1  0
 16 17  1  0
 18 17  1  6
 18 19  1  0
 19 10  1  0
 20 18  1  0
 21 20  2  0
 22 16  2  0
 23 22  1  0
 24 20  1  0
 25 24  1  0
 25 29  1  0
 25 26  1  6
 27 26  1  0
 27 28  2  0
 29 30  1  0
 31 27  1  0
 32 29  2  0
M  END
$$$$
