RYD.pdb
     RDKit          3D

 32 32  0  0  1  0  0  0  0  0999 V2000
   28.6109  -27.2800  -16.4112 N   0  0  0  0  0  0  0  0  0  0  0  0
   27.8758  -27.2933  -17.6174 C   0  0  0  0  0  0  0  0  0  0  0  0
   27.6345  -28.3937  -18.2201 N   0  0  0  0  0  0  0  0  0  0  0  0
   27.3878  -26.0722  -18.1871 N   0  0  0  0  0  0  0  0  0  0  0  0
   26.9893  -24.9567  -17.3545 C   0  0  0  0  0  0  0  0  0  0  0  0
   25.4773  -25.0191  -17.1918 C   0  0  0  0  0  0  0  0  0  0  0  0
   24.9714  -23.8829  -16.3440 C   0  0  0  0  0  0  0  0  0  0  0  0
   25.7516  -22.6207  -16.4782 C   0  0  2  0  0  0  0  0  0  0  0  0
   27.1678  -22.9953  -16.3678 N   0  0  0  0  0  0  0  0  0  0  0  0
   25.4083  -21.5691  -15.5070 C   0  0  0  0  0  0  0  0  0  0  0  0
   25.7945  -21.5177  -14.3340 O   0  0  0  0  0  0  0  0  0  0  0  0
   27.1164  -28.4761  -19.1088 O   0  0  0  0  0  0  0  0  0  0  0  0
   30.3744  -18.8914  -17.0300 C   0  0  0  0  0  0  0  0  0  0  0  0
   29.0425  -18.6992  -16.6649 C   0  0  0  0  0  0  0  0  0  0  0  0
   28.0312  -18.6734  -17.6173 C   0  0  0  0  0  0  0  0  0  0  0  0
   26.7170  -18.4811  -17.2288 C   0  0  0  0  0  0  0  0  0  0  0  0
   26.3812  -18.3128  -15.9096 C   0  0  0  0  0  0  0  0  0  0  0  0
   24.9791  -18.1107  -15.5237 C   0  0  2  0  0  0  0  0  0  0  0  0
   24.2631  -19.3626  -15.1262 N   0  0  0  0  0  0  0  0  0  0  0  0
   24.5549  -20.5018  -15.9329 C   0  0  0  0  0  0  0  0  0  0  0  0
   22.8036  -19.1920  -15.0032 O   0  0  0  0  0  0  0  0  0  0  0  0
   22.2443  -18.2181  -14.4337 C   0  0  0  0  0  0  0  0  0  0  0  0
   27.3626  -18.3351  -14.9578 C   0  0  0  0  0  0  0  0  0  0  0  0
   28.6727  -18.5266  -15.3428 N   0  0  0  0  0  0  0  0  0  0  0  0
   21.9254  -20.1737  -15.5526 C   0  0  2  0  0  0  0  0  0  0  0  0
   20.9360  -20.8777  -14.7770 C   0  0  0  0  0  0  0  0  0  0  0  0
   21.4325  -22.1265  -14.1296 C   0  0  0  0  0  0  0  0  0  0  0  0
   21.1332  -23.3692  -14.8634 O   0  0  0  0  0  0  0  0  0  0  0  0
   20.4159  -23.3193  -15.8872 C   0  0  0  0  0  0  0  0  0  0  0  0
   20.2179  -20.0127  -13.8350 O   0  0  0  0  0  0  0  0  0  0  0  0
   18.8482  -19.8631  -13.9123 O   0  0  0  0  0  0  0  0  0  0  0  0
   21.6165  -24.6013  -14.4644 O   0  0  0  0  0  0  0  0  0  0  0  0
  2  3  2  0
  2  1  1  0
  4  2  1  0
  5  4  1  0
  6  5  1  0
  7  8  1  0
  7  6  1  0
  8  9  1  1
 10  8  1  0
 10 11  2  0
 12 13  1  0
 13 23  2  0
 13 14  1  0
 14 15  2  0
 15 16  1  0
 16 17  1  0
 18 17  1  1
 18 19  1  0
 19 10  1  0
 20 18  1  0
 21 20  2  0
 22 16  2  0
 23 22  1  0
 24 20  1  0
 25 24  1  0
 25 29  1  0
 25 26  1  6
 27 26  1  0
 27 28  2  0
 29 30  1  0
 31 27  1  0
 32 29  2  0
M  END
$$$$
