RYD.pdb
     RDKit          3D

 32 32  0  0  1  0  0  0  0  0999 V2000
   16.5481  -14.7797  -17.3185 N   0  0  0  0  0  0  0  0  0  0  0  0
   17.8036  -14.5634  -16.7082 C   0  0  0  0  0  0  0  0  0  0  0  0
   18.8119  -15.2825  -17.0218 N   0  0  0  0  0  0  0  0  0  0  0  0
   17.9685  -13.5333  -15.7257 N   0  0  0  0  0  0  0  0  0  0  0  0
   16.8431  -12.7574  -15.2486 C   0  0  0  0  0  0  0  0  0  0  0  0
   16.8678  -11.4170  -15.9693 C   0  0  0  0  0  0  0  0  0  0  0  0
   18.0168  -10.5653  -15.5004 C   0  0  0  0  0  0  0  0  0  0  0  0
   18.0895   -9.2230  -16.1429 C   0  0  2  0  0  0  0  0  0  0  0  0
   18.4658   -9.4543  -17.5441 N   0  0  0  0  0  0  0  0  0  0  0  0
   19.0125   -8.2731  -15.5003 C   0  0  0  0  0  0  0  0  0  0  0  0
   18.9797   -7.9271  -14.3141 O   0  0  0  0  0  0  0  0  0  0  0  0
   19.7628  -15.1607  -16.6397 O   0  0  0  0  0  0  0  0  0  0  0  0
   23.2900  -12.4948  -14.1298 C   0  0  0  0  0  0  0  0  0  0  0  0
   23.0739  -11.1857  -14.5585 C   0  0  0  0  0  0  0  0  0  0  0  0
   22.9375  -10.8829  -15.9076 C   0  0  0  0  0  0  0  0  0  0  0  0
   22.7236   -9.5754  -16.3071 C   0  0  0  0  0  0  0  0  0  0  0  0
   22.6415   -8.5555  -15.3936 C   0  0  0  0  0  0  0  0  0  0  0  0
   22.4136   -7.1767  -15.8435 C   0  0  2  0  0  0  0  0  0  0  0  0
   20.9843   -6.7386  -15.7873 N   0  0  0  0  0  0  0  0  0  0  0  0
   20.0468   -7.6853  -16.2960 C   0  0  0  0  0  0  0  0  0  0  0  0
   20.7491   -5.4174  -16.3983 O   0  0  0  0  0  0  0  0  0  0  0  0
   20.8605   -5.1696  -17.6278 C   0  0  0  0  0  0  0  0  0  0  0  0
   22.7732   -8.8338  -14.0614 C   0  0  0  0  0  0  0  0  0  0  0  0
   22.9864  -10.1360  -13.6612 N   0  0  0  0  0  0  0  0  0  0  0  0
   20.3669   -4.3138  -15.5779 C   0  0  1  0  0  0  0  0  0  0  0  0
   20.0372   -3.0121  -16.1003 C   0  0  0  0  0  0  0  0  0  0  0  0
   19.1139   -3.0322  -17.2718 C   0  0  0  0  0  0  0  0  0  0  0  0
   18.7597   -1.7057  -17.8077 O   0  0  0  0  0  0  0  0  0  0  0  0
   18.4078   -0.7998  -17.0197 C   0  0  0  0  0  0  0  0  0  0  0  0
   19.6000   -2.0685  -15.0660 O   0  0  0  0  0  0  0  0  0  0  0  0
   19.7092   -0.7062  -15.2571 O   0  0  0  0  0  0  0  0  0  0  0  0
   18.8002   -1.4162  -19.1587 O   0  0  0  0  0  0  0  0  0  0  0  0
  2  3  2  0
  2  1  1  0
  4  2  1  0
  5  4  1  0
  6  5  1  0
  7  8  1  0
  7  6  1  0
  8  9  1  6
 10  8  1  0
 10 11  2  0
 12 13  1  0
 13 23  2  0
 13 14  1  0
 14 15  2  0
 15 16  1  0
 16 17  1  0
 18 17  1  1
 18 19  1  0
 19 10  1  0
 20 18  1  0
 21 20  2  0
 22 16  2  0
 23 22  1  0
 24 20  1  0
 25 24  1  0
 25 29  1  0
 25 26  1  6
 27 26  1  0
 27 28  2  0
 29 30  1  0
 31 27  1  0
 32 29  2  0
M  END
$$$$
