RYD.pdb
     RDKit          3D

 32 32  0  0  1  0  0  0  0  0999 V2000
   33.8250  -23.7502  -21.4178 N   0  0  0  0  0  0  0  0  0  0  0  0
   34.4819  -24.5233  -20.4348 C   0  0  0  0  0  0  0  0  0  0  0  0
   35.7496  -24.6778  -20.4688 N   0  0  0  0  0  0  0  0  0  0  0  0
   33.7377  -25.1485  -19.3818 N   0  0  0  0  0  0  0  0  0  0  0  0
   32.2929  -25.0707  -19.3288 C   0  0  0  0  0  0  0  0  0  0  0  0
   31.9234  -23.6788  -18.8362 C   0  0  0  0  0  0  0  0  0  0  0  0
   30.9111  -23.7433  -17.7241 C   0  0  0  0  0  0  0  0  0  0  0  0
   29.6930  -22.9163  -17.9526 C   0  0  2  0  0  0  0  0  0  0  0  0
   30.1660  -21.5728  -18.3126 N   0  0  0  0  0  0  0  0  0  0  0  0
   28.7570  -22.8580  -16.8179 C   0  0  0  0  0  0  0  0  0  0  0  0
   28.1926  -23.8274  -16.2988 O   0  0  0  0  0  0  0  0  0  0  0  0
   36.3043  -25.1500  -19.7377 O   0  0  0  0  0  0  0  0  0  0  0  0
   24.8743  -20.2040   -9.4368 C   0  0  0  0  0  0  0  0  0  0  0  0
   25.7071  -20.3429  -10.5465 C   0  0  0  0  0  0  0  0  0  0  0  0
   26.1372  -21.5935  -10.9721 C   0  0  0  0  0  0  0  0  0  0  0  0
   26.9635  -21.7043  -12.0767 C   0  0  0  0  0  0  0  0  0  0  0  0
   27.3753  -20.5963  -12.7725 C   0  0  0  0  0  0  0  0  0  0  0  0
   28.2519  -20.7410  -13.9414 C   0  0  2  0  0  0  0  0  0  0  0  0
   27.6074  -21.4063  -15.1161 N   0  0  0  0  0  0  0  0  0  0  0  0
   28.4577  -21.5797  -16.2477 C   0  0  0  0  0  0  0  0  0  0  0  0
   26.3409  -20.7741  -15.5289 O   0  0  0  0  0  0  0  0  0  0  0  0
   26.2259  -19.5713  -15.8836 C   0  0  0  0  0  0  0  0  0  0  0  0
   26.9624  -19.3569  -12.3688 C   0  0  0  0  0  0  0  0  0  0  0  0
   26.1390  -19.2443  -11.2685 N   0  0  0  0  0  0  0  0  0  0  0  0
   25.1366  -21.5399  -15.5428 C   0  0  2  0  0  0  0  0  0  0  0  0
   23.8341  -20.9683  -15.7725 C   0  0  0  0  0  0  0  0  0  0  0  0
   22.8618  -21.8899  -16.4284 C   0  0  0  0  0  0  0  0  0  0  0  0
   21.5527  -21.2910  -16.7446 O   0  0  0  0  0  0  0  0  0  0  0  0
   21.3349  -20.0972  -16.4402 C   0  0  0  0  0  0  0  0  0  0  0  0
   23.2694  -20.3218  -14.5832 O   0  0  0  0  0  0  0  0  0  0  0  0
   23.0187  -21.0446  -13.4346 O   0  0  0  0  0  0  0  0  0  0  0  0
   20.5441  -21.9997  -17.3700 O   0  0  0  0  0  0  0  0  0  0  0  0
  2  3  2  0
  2  1  1  0
  4  2  1  0
  5  4  1  0
  6  5  1  0
  7  8  1  0
  7  6  1  0
  8  9  1  1
 10  8  1  0
 10 11  2  0
 12 13  1  0
 13 23  2  0
 13 14  1  0
 14 15  2  0
 15 16  1  0
 16 17  1  0
 18 17  1  1
 18 19  1  0
 19 10  1  0
 20 18  1  0
 21 20  2  0
 22 16  2  0
 23 22  1  0
 24 20  1  0
 25 24  1  0
 25 29  1  0
 25 26  1  1
 27 26  1  0
 27 28  2  0
 29 30  1  0
 31 27  1  0
 32 29  2  0
M  END
$$$$
