RYD.pdb
     RDKit          3D

 32 32  0  0  1  0  0  0  0  0999 V2000
   13.9337  -10.1187  -15.8005 N   0  0  0  0  0  0  0  0  0  0  0  0
   14.3177  -11.4552  -15.5519 C   0  0  0  0  0  0  0  0  0  0  0  0
   13.9011  -12.0690  -14.5117 N   0  0  0  0  0  0  0  0  0  0  0  0
   15.1820  -12.1466  -16.4622 N   0  0  0  0  0  0  0  0  0  0  0  0
   16.1723  -11.4402  -17.2474 C   0  0  0  0  0  0  0  0  0  0  0  0
   16.7664  -12.4297  -18.2395 C   0  0  0  0  0  0  0  0  0  0  0  0
   17.6124  -13.4613  -17.5426 C   0  0  0  0  0  0  0  0  0  0  0  0
   19.0456  -13.0823  -17.3934 C   0  0  2  0  0  0  0  0  0  0  0  0
   19.7765  -14.3266  -17.1176 N   0  0  0  0  0  0  0  0  0  0  0  0
   19.3189  -12.0713  -16.3589 C   0  0  0  0  0  0  0  0  0  0  0  0
   18.8717  -12.0801  -15.2067 O   0  0  0  0  0  0  0  0  0  0  0  0
   14.1102  -13.0543  -14.2871 O   0  0  0  0  0  0  0  0  0  0  0  0
   22.4869   -4.4662  -13.0566 C   0  0  0  0  0  0  0  0  0  0  0  0
   22.3078   -5.7101  -13.6607 C   0  0  0  0  0  0  0  0  0  0  0  0
   22.4119   -5.8636  -15.0377 C   0  0  0  0  0  0  0  0  0  0  0  0
   22.2298   -7.1092  -15.6126 C   0  0  0  0  0  0  0  0  0  0  0  0
   21.9452   -8.2121  -14.8484 C   0  0  0  0  0  0  0  0  0  0  0  0
   21.7567   -9.5225  -15.4831 C   0  0  1  0  0  0  0  0  0  0  0  0
   20.3404   -9.8291  -15.8547 N   0  0  0  0  0  0  0  0  0  0  0  0
   20.1741  -10.9724  -16.6906 C   0  0  0  0  0  0  0  0  0  0  0  0
   19.6194   -8.6769  -16.4264 O   0  0  0  0  0  0  0  0  0  0  0  0
   19.5445   -8.4210  -17.6571 C   0  0  0  0  0  0  0  0  0  0  0  0
   21.8388   -8.0807  -13.4916 C   0  0  0  0  0  0  0  0  0  0  0  0
   22.0199   -6.8406  -12.9167 N   0  0  0  0  0  0  0  0  0  0  0  0
   18.9450   -7.7621  -15.5632 C   0  0  1  0  0  0  0  0  0  0  0  0
   18.1924   -6.6290  -16.0384 C   0  0  0  0  0  0  0  0  0  0  0  0
   17.0062   -6.9807  -16.8718 C   0  0  0  0  0  0  0  0  0  0  0  0
   16.1815   -5.8349  -17.2951 O   0  0  0  0  0  0  0  0  0  0  0  0
   16.7145   -4.8955  -17.9264 C   0  0  0  0  0  0  0  0  0  0  0  0
   17.8608   -5.6705  -14.9788 O   0  0  0  0  0  0  0  0  0  0  0  0
   17.3689   -4.4179  -15.2842 O   0  0  0  0  0  0  0  0  0  0  0  0
   14.8290   -5.7529  -17.0215 O   0  0  0  0  0  0  0  0  0  0  0  0
  2  3  2  0
  2  1  1  0
  4  2  1  0
  5  4  1  0
  6  5  1  0
  7  8  1  0
  7  6  1  0
  8  9  1  1
 10  8  1  0
 10 11  2  0
 12 13  1  0
 13 23  2  0
 13 14  1  0
 14 15  2  0
 15 16  1  0
 16 17  1  0
 18 17  1  1
 18 19  1  0
 19 10  1  0
 20 18  1  0
 21 20  2  0
 22 16  2  0
 23 22  1  0
 24 20  1  0
 25 24  1  0
 25 29  1  0
 25 26  1  1
 27 26  1  0
 27 28  2  0
 29 30  1  0
 31 27  1  0
 32 29  2  0
M  END
$$$$
