RYD.pdb
     RDKit          3D

 32 32  0  0  1  0  0  0  0  0999 V2000
   19.9673  -26.1818  -13.0279 N   0  0  0  0  0  0  0  0  0  0  0  0
   19.1195  -25.6988  -14.0493 C   0  0  0  0  0  0  0  0  0  0  0  0
   18.9548  -26.3647  -15.1271 N   0  0  0  0  0  0  0  0  0  0  0  0
   18.4292  -24.4525  -13.8950 N   0  0  0  0  0  0  0  0  0  0  0  0
   18.6374  -23.6125  -12.7342 C   0  0  0  0  0  0  0  0  0  0  0  0
   17.7931  -22.3590  -12.9141 C   0  0  0  0  0  0  0  0  0  0  0  0
   18.6549  -21.1289  -13.0131 C   0  0  0  0  0  0  0  0  0  0  0  0
   19.8024  -21.1040  -12.0631 C   0  0  2  0  0  0  0  0  0  0  0  0
   19.2981  -20.5053  -10.8199 N   0  0  0  0  0  0  0  0  0  0  0  0
   20.9956  -20.3892  -12.5451 C   0  0  0  0  0  0  0  0  0  0  0  0
   21.1504  -19.1629  -12.5440 O   0  0  0  0  0  0  0  0  0  0  0  0
   18.2861  -26.1190  -15.8738 O   0  0  0  0  0  0  0  0  0  0  0  0
   28.9462  -19.1460  -16.2261 C   0  0  0  0  0  0  0  0  0  0  0  0
   27.8607  -19.6336  -15.4994 C   0  0  0  0  0  0  0  0  0  0  0  0
   27.4855  -20.9692  -15.5741 C   0  0  0  0  0  0  0  0  0  0  0  0
   26.4041  -21.4281  -14.8426 C   0  0  0  0  0  0  0  0  0  0  0  0
   25.6823  -20.5873  -14.0340 C   0  0  0  0  0  0  0  0  0  0  0  0
   24.5393  -21.0993  -13.2680 C   0  0  1  0  0  0  0  0  0  0  0  0
   23.2119  -20.5771  -13.7189 N   0  0  0  0  0  0  0  0  0  0  0  0
   22.0857  -21.1578  -13.0646 C   0  0  0  0  0  0  0  0  0  0  0  0
   23.0263  -20.6255  -15.1809 O   0  0  0  0  0  0  0  0  0  0  0  0
   23.0804  -21.6761  -15.8729 C   0  0  0  0  0  0  0  0  0  0  0  0
   26.0364  -19.2695  -13.9475 C   0  0  0  0  0  0  0  0  0  0  0  0
   27.1136  -18.8103  -14.6756 N   0  0  0  0  0  0  0  0  0  0  0  0
   22.7649  -19.4227  -15.9034 C   0  0  2  0  0  0  0  0  0  0  0  0
   23.4060  -19.0895  -17.1500 C   0  0  0  0  0  0  0  0  0  0  0  0
   24.5479  -18.1382  -17.0226 C   0  0  0  0  0  0  0  0  0  0  0  0
   24.8056  -17.3120  -18.2155 O   0  0  0  0  0  0  0  0  0  0  0  0
   24.1152  -17.4875  -19.2440 C   0  0  0  0  0  0  0  0  0  0  0  0
   23.7520  -20.2663  -17.9541 O   0  0  0  0  0  0  0  0  0  0  0  0
   22.9280  -20.6952  -18.9747 O   0  0  0  0  0  0  0  0  0  0  0  0
   25.7885  -16.3405  -18.2472 O   0  0  0  0  0  0  0  0  0  0  0  0
  2  3  2  0
  2  1  1  0
  4  2  1  0
  5  4  1  0
  6  5  1  0
  7  8  1  0
  7  6  1  0
  8  9  1  1
 10  8  1  0
 10 11  2  0
 12 13  1  0
 13 23  2  0
 13 14  1  0
 14 15  2  0
 15 16  1  0
 16 17  1  0
 18 17  1  1
 18 19  1  0
 19 10  1  0
 20 18  1  0
 21 20  2  0
 22 16  2  0
 23 22  1  0
 24 20  1  0
 25 24  1  0
 25 29  1  0
 25 26  1  1
 27 26  1  0
 27 28  2  0
 29 30  1  0
 31 27  1  0
 32 29  2  0
M  END
$$$$
