RYD.pdb
     RDKit          3D

 32 32  0  0  1  0  0  0  0  0999 V2000
   27.8355  -27.6984  -15.7083 N   0  0  0  0  0  0  0  0  0  0  0  0
   26.8972  -27.0850  -16.5680 C   0  0  0  0  0  0  0  0  0  0  0  0
   25.6522  -27.3543  -16.4702 N   0  0  0  0  0  0  0  0  0  0  0  0
   27.3254  -26.1498  -17.5658 N   0  0  0  0  0  0  0  0  0  0  0  0
   28.7142  -25.7592  -17.6884 C   0  0  0  0  0  0  0  0  0  0  0  0
   28.7479  -24.3416  -18.2413 C   0  0  0  0  0  0  0  0  0  0  0  0
   28.0971  -23.3697  -17.2940 C   0  0  0  0  0  0  0  0  0  0  0  0
   28.0095  -21.9743  -17.8086 C   0  0  2  0  0  0  0  0  0  0  0  0
   29.3904  -21.5339  -18.0487 N   0  0  0  0  0  0  0  0  0  0  0  0
   27.3010  -21.0289  -16.9304 C   0  0  0  0  0  0  0  0  0  0  0  0
   27.6885  -20.6477  -15.8203 O   0  0  0  0  0  0  0  0  0  0  0  0
   24.9356  -27.0825  -17.1613 O   0  0  0  0  0  0  0  0  0  0  0  0
   30.7075  -16.3524  -17.9910 C   0  0  0  0  0  0  0  0  0  0  0  0
   29.4011  -16.7880  -17.7723 C   0  0  0  0  0  0  0  0  0  0  0  0
   28.8130  -16.6990  -16.5168 C   0  0  0  0  0  0  0  0  0  0  0  0
   27.5146  -17.1384  -16.3260 C   0  0  0  0  0  0  0  0  0  0  0  0
   26.7824  -17.6672  -17.3583 C   0  0  0  0  0  0  0  0  0  0  0  0
   25.4066  -18.1260  -17.1296 C   0  0  2  0  0  0  0  0  0  0  0  0
   25.3011  -19.5332  -16.6331 N   0  0  0  0  0  0  0  0  0  0  0  0
   26.0529  -20.4894  -17.3776 C   0  0  0  0  0  0  0  0  0  0  0  0
   23.9110  -19.9982  -16.4732 O   0  0  0  0  0  0  0  0  0  0  0  0
   23.2408  -20.5679  -17.3743 C   0  0  0  0  0  0  0  0  0  0  0  0
   27.3442  -17.7631  -18.6012 C   0  0  0  0  0  0  0  0  0  0  0  0
   28.6377  -17.3258  -18.7934 N   0  0  0  0  0  0  0  0  0  0  0  0
   23.2386  -19.8111  -15.2284 C   0  0  2  0  0  0  0  0  0  0  0  0
   21.8939  -20.2631  -14.9758 C   0  0  0  0  0  0  0  0  0  0  0  0
   21.5327  -20.3509  -13.5312 C   0  0  0  0  0  0  0  0  0  0  0  0
   20.1557  -20.8013  -13.2604 O   0  0  0  0  0  0  0  0  0  0  0  0
   19.1950  -20.0748  -13.5986 C   0  0  0  0  0  0  0  0  0  0  0  0
   20.8851  -19.5391  -15.7565 O   0  0  0  0  0  0  0  0  0  0  0  0
   19.8350  -20.2077  -16.3520 O   0  0  0  0  0  0  0  0  0  0  0  0
   19.8771  -22.0057  -12.6417 O   0  0  0  0  0  0  0  0  0  0  0  0
  2  3  2  0
  2  1  1  0
  4  2  1  0
  5  4  1  0
  6  5  1  0
  7  8  1  0
  7  6  1  0
  8  9  1  1
 10  8  1  0
 10 11  2  0
 12 13  1  0
 13 23  2  0
 13 14  1  0
 14 15  2  0
 15 16  1  0
 16 17  1  0
 18 17  1  1
 18 19  1  0
 19 10  1  0
 20 18  1  0
 21 20  2  0
 22 16  2  0
 23 22  1  0
 24 20  1  0
 25 24  1  0
 25 29  1  0
 25 26  1  1
 27 26  1  0
 27 28  2  0
 29 30  1  0
 31 27  1  0
 32 29  2  0
M  END
$$$$
