EVW.pdb
     RDKit          3D

 31 32  0  0  1  0  0  0  0  0999 V2000
   11.3071  -17.3342   16.9803 N   0  0  0  0  0  0  0  0  0  0  0  0
   11.4230  -17.8694   18.3270 C   0  0  1  0  0  0  0  0  0  0  0  0
   12.9036  -17.9152   18.6470 C   0  0  0  0  0  0  0  0  0  0  0  0
   13.6195  -18.9232   17.7768 C   0  0  0  0  0  0  0  0  0  0  0  0
   15.0457  -18.9276   18.1129 C   0  0  0  0  0  0  0  0  0  0  0  0
   15.8385  -18.1877   17.4845 O   0  0  0  0  0  0  0  0  0  0  0  0
   10.6655  -17.0635   19.2977 C   0  0  0  0  0  0  0  0  0  0  0  0
   10.7818  -15.8154   19.2793 O   0  0  0  0  0  0  0  0  0  0  0  0
   15.5824  -19.7287   19.1171 O   0  0  0  0  0  0  0  0  0  0  0  0
    6.7843  -16.5194   22.2122 C   0  0  0  0  0  0  0  0  0  0  0  0
    7.5517  -17.2550   21.1359 C   0  0  2  0  0  0  0  0  0  0  0  0
    7.2833  -18.7469   21.1876 C   0  0  0  0  0  0  0  0  0  0  0  0
    9.0310  -16.9527   21.2119 C   0  0  2  0  0  0  0  0  0  0  0  0
    9.8085  -17.6746   20.2509 N   0  0  0  0  0  0  0  0  0  0  0  0
    9.5089  -17.1991   22.5975 C   0  0  0  0  0  0  0  0  0  0  0  0
   10.1170  -18.2672   22.8752 O   0  0  0  0  0  0  0  0  0  0  0  0
    9.3014  -16.2613   23.6312 N   0  0  0  0  0  0  0  0  0  0  0  0
    9.7605  -16.4540   24.9932 C   0  0  1  0  0  0  0  0  0  0  0  0
    9.5183  -15.1770   25.7675 C   0  0  0  0  0  0  0  0  0  0  0  0
    8.1186  -14.7501   25.7423 C   0  0  0  0  0  0  0  0  0  0  0  0
    7.0228  -15.5655   25.5706 C   0  0  0  0  0  0  0  0  0  0  0  0
    5.8895  -14.8280   25.6020 N   0  0  0  0  0  0  0  0  0  0  0  0
    6.2201  -13.5323   25.7924 C   0  0  0  0  0  0  0  0  0  0  0  0
    5.4432  -12.4029   25.8966 C   0  0  0  0  0  0  0  0  0  0  0  0
    6.0235  -11.1661   26.0943 C   0  0  0  0  0  0  0  0  0  0  0  0
    7.3924  -11.1011   26.1827 C   0  0  0  0  0  0  0  0  0  0  0  0
    8.1735  -12.2292   26.0789 C   0  0  0  0  0  0  0  0  0  0  0  0
    7.6156  -13.4742   25.8815 C   0  0  0  0  0  0  0  0  0  0  0  0
    9.1148  -17.6265   25.6303 C   0  0  0  0  0  0  0  0  0  0  0  0
    8.0173  -18.2381   25.0631 O   0  0  0  0  0  0  0  0  0  0  0  0
    9.5621  -18.0871   26.7100 O   0  0  0  0  0  0  0  0  0  0  0  0
  2  3  1  0
  2  1  1  6
  3  4  1  0
  4  5  1  0
  5  9  1  0
  5  6  2  0
  7 14  1  0
  7  2  1  0
  8  7  2  0
 11 10  1  1
 12 11  1  0
 13 11  1  0
 13 14  1  6
 13 15  1  0
 15 17  1  0
 16 15  2  0
 17 18  1  0
 18 19  1  1
 19 20  1  0
 20 21  2  0
 20 28  1  0
 21 22  1  0
 22 23  1  0
 23 24  2  0
 24 25  1  0
 26 25  2  0
 27 26  1  0
 28 27  2  0
 28 23  1  0
 29 30  1  0
 29 18  1  0
 31 29  2  0
M  END
$$$$
