EVW.pdb
     RDKit          3D

 31 32  0  0  1  0  0  0  0  0999 V2000
   10.3125  -17.1475   16.8935 N   0  0  0  0  0  0  0  0  0  0  0  0
   10.5608  -17.7422   18.1966 C   0  0  1  0  0  0  0  0  0  0  0  0
   12.0274  -18.1227   18.2246 C   0  0  0  0  0  0  0  0  0  0  0  0
   12.3678  -19.0690   17.0958 C   0  0  0  0  0  0  0  0  0  0  0  0
   13.6983  -18.7439   16.5751 C   0  0  0  0  0  0  0  0  0  0  0  0
   13.8637  -17.7133   15.8813 O   0  0  0  0  0  0  0  0  0  0  0  0
   10.1999  -16.8246   19.2890 C   0  0  0  0  0  0  0  0  0  0  0  0
   10.9588  -15.8631   19.5559 O   0  0  0  0  0  0  0  0  0  0  0  0
   14.8174  -19.5368   16.8144 O   0  0  0  0  0  0  0  0  0  0  0  0
    6.3647  -17.2137   21.4230 C   0  0  0  0  0  0  0  0  0  0  0  0
    7.1426  -15.9314   21.2253 C   0  0  2  0  0  0  0  0  0  0  0  0
    6.6536  -15.1705   20.0077 C   0  0  0  0  0  0  0  0  0  0  0  0
    8.6295  -16.1958   21.1562 C   0  0  2  0  0  0  0  0  0  0  0  0
    9.0106  -17.0102   20.0424 N   0  0  0  0  0  0  0  0  0  0  0  0
    9.0807  -16.7852   22.4439 C   0  0  0  0  0  0  0  0  0  0  0  0
    9.8098  -17.8128   22.4468 O   0  0  0  0  0  0  0  0  0  0  0  0
    8.7142  -16.2235   23.6853 N   0  0  0  0  0  0  0  0  0  0  0  0
    9.4710  -16.4155   24.9074 C   0  0  1  0  0  0  0  0  0  0  0  0
    9.4942  -15.1085   25.6689 C   0  0  0  0  0  0  0  0  0  0  0  0
    8.1560  -14.6089   25.9879 C   0  0  0  0  0  0  0  0  0  0  0  0
    6.9780  -15.3131   25.8796 C   0  0  0  0  0  0  0  0  0  0  0  0
    5.9390  -14.5354   26.2599 N   0  0  0  0  0  0  0  0  0  0  0  0
    6.4133  -13.3229   26.6194 C   0  0  0  0  0  0  0  0  0  0  0  0
    5.7717  -12.1954   27.0746 C   0  0  0  0  0  0  0  0  0  0  0  0
    6.4867  -11.0556   27.3830 C   0  0  0  0  0  0  0  0  0  0  0  0
    7.8502  -11.0845   27.2213 C   0  0  0  0  0  0  0  0  0  0  0  0
    8.4961  -12.2110   26.7659 C   0  0  0  0  0  0  0  0  0  0  0  0
    7.8023  -13.3600   26.4521 C   0  0  0  0  0  0  0  0  0  0  0  0
    8.9272  -17.5286   25.7215 C   0  0  0  0  0  0  0  0  0  0  0  0
    9.6077  -18.0162   26.8167 O   0  0  0  0  0  0  0  0  0  0  0  0
    7.8247  -18.0517   25.4234 O   0  0  0  0  0  0  0  0  0  0  0  0
  2  3  1  0
  2  1  1  6
  3  4  1  0
  4  5  1  0
  5  9  1  0
  5  6  2  0
  7 14  1  0
  7  2  1  0
  8  7  2  0
 11 10  1  6
 12 11  1  0
 13 11  1  0
 13 14  1  6
 13 15  1  0
 15 17  1  0
 16 15  2  0
 17 18  1  0
 18 19  1  1
 19 20  1  0
 20 21  2  0
 20 28  1  0
 21 22  1  0
 22 23  1  0
 23 24  2  0
 24 25  1  0
 26 25  2  0
 27 26  1  0
 28 27  2  0
 28 23  1  0
 29 30  1  0
 29 18  1  0
 31 29  2  0
M  END
$$$$
