EVW.pdb
     RDKit          3D

 31 32  0  0  1  0  0  0  0  0999 V2000
    8.0244  -17.7917   18.0584 N   0  0  0  0  0  0  0  0  0  0  0  0
    9.4748  -17.7342   18.1404 C   0  0  1  0  0  0  0  0  0  0  0  0
    9.9961  -17.9772   16.7383 C   0  0  0  0  0  0  0  0  0  0  0  0
    8.9249  -18.5728   15.8531 C   0  0  0  0  0  0  0  0  0  0  0  0
    9.4379  -18.6940   14.4859 C   0  0  0  0  0  0  0  0  0  0  0  0
    8.9877  -17.9527   13.5810 O   0  0  0  0  0  0  0  0  0  0  0  0
    9.9359  -16.4511   18.6942 C   0  0  0  0  0  0  0  0  0  0  0  0
   11.1585  -16.2849   18.9161 O   0  0  0  0  0  0  0  0  0  0  0  0
   10.4228  -19.6104   14.1273 O   0  0  0  0  0  0  0  0  0  0  0  0
    7.4908  -12.7564   20.3435 C   0  0  0  0  0  0  0  0  0  0  0  0
    8.4136  -13.0269   19.1757 C   0  0  2  0  0  0  0  0  0  0  0  0
    7.6315  -13.3345   17.9131 C   0  0  0  0  0  0  0  0  0  0  0  0
    9.4021  -14.1241   19.4991 C   0  0  2  0  0  0  0  0  0  0  0  0
    9.0218  -15.4027   18.9800 N   0  0  0  0  0  0  0  0  0  0  0  0
    9.6138  -14.1722   20.9695 C   0  0  0  0  0  0  0  0  0  0  0  0
    9.9417  -13.1285   21.5947 O   0  0  0  0  0  0  0  0  0  0  0  0
    9.4572  -15.3677   21.7025 N   0  0  0  0  0  0  0  0  0  0  0  0
    9.3640  -15.4156   23.1489 C   0  0  1  0  0  0  0  0  0  0  0  0
    8.2154  -14.5335   23.5862 C   0  0  0  0  0  0  0  0  0  0  0  0
    8.1821  -14.3137   25.0328 C   0  0  0  0  0  0  0  0  0  0  0  0
    8.9019  -15.0096   25.9777 C   0  0  0  0  0  0  0  0  0  0  0  0
    8.6207  -14.5359   27.2129 N   0  0  0  0  0  0  0  0  0  0  0  0
    7.7226  -13.5336   27.0992 C   0  0  0  0  0  0  0  0  0  0  0  0
    7.1252  -12.7377   28.0478 C   0  0  0  0  0  0  0  0  0  0  0  0
    6.2220  -11.7612   27.6788 C   0  0  0  0  0  0  0  0  0  0  0  0
    5.9416  -11.6119   26.3428 C   0  0  0  0  0  0  0  0  0  0  0  0
    6.5373  -12.4065   25.3902 C   0  0  0  0  0  0  0  0  0  0  0  0
    7.4419  -13.3874   25.7359 C   0  0  0  0  0  0  0  0  0  0  0  0
    9.2234  -16.8054   23.6449 C   0  0  0  0  0  0  0  0  0  0  0  0
    9.7703  -17.1972   24.8481 O   0  0  0  0  0  0  0  0  0  0  0  0
    8.5964  -17.6588   22.9692 O   0  0  0  0  0  0  0  0  0  0  0  0
  2  3  1  0
  2  1  1  6
  3  4  1  0
  4  5  1  0
  5  9  1  0
  5  6  2  0
  7 14  1  0
  7  2  1  0
  8  7  2  0
 11 10  1  1
 12 11  1  0
 13 11  1  0
 13 14  1  1
 13 15  1  0
 15 17  1  0
 16 15  2  0
 17 18  1  0
 18 19  1  6
 19 20  1  0
 20 21  2  0
 20 28  1  0
 21 22  1  0
 22 23  1  0
 23 24  2  0
 24 25  1  0
 26 25  2  0
 27 26  1  0
 28 27  2  0
 28 23  1  0
 29 30  1  0
 29 18  1  0
 31 29  2  0
M  END
$$$$
