EVW.pdb
     RDKit          3D

 31 32  0  0  1  0  0  0  0  0999 V2000
    8.2347  -18.7516   19.7262 N   0  0  0  0  0  0  0  0  0  0  0  0
    9.6284  -18.4490   19.4437 C   0  0  1  0  0  0  0  0  0  0  0  0
    9.7724  -18.4481   17.9351 C   0  0  0  0  0  0  0  0  0  0  0  0
    9.3079  -19.7587   17.3414 C   0  0  0  0  0  0  0  0  0  0  0  0
    9.5222  -19.7374   15.8921 C   0  0  0  0  0  0  0  0  0  0  0  0
    9.8397  -20.7906   15.2913 O   0  0  0  0  0  0  0  0  0  0  0  0
   10.0382  -17.1702   20.0456 C   0  0  0  0  0  0  0  0  0  0  0  0
   11.2268  -16.7904   19.9245 O   0  0  0  0  0  0  0  0  0  0  0  0
    9.3893  -18.5825   15.1259 O   0  0  0  0  0  0  0  0  0  0  0  0
    7.2020  -14.6029   22.3437 C   0  0  0  0  0  0  0  0  0  0  0  0
    8.2143  -14.1421   21.3182 C   0  0  2  0  0  0  0  0  0  0  0  0
    7.5817  -13.9870   19.9484 C   0  0  0  0  0  0  0  0  0  0  0  0
    9.4126  -15.0629   21.2768 C   0  0  2  0  0  0  0  0  0  0  0  0
    9.1125  -16.3630   20.7584 N   0  0  0  0  0  0  0  0  0  0  0  0
   10.0150  -15.1411   22.6333 C   0  0  0  0  0  0  0  0  0  0  0  0
   10.8971  -14.3112   22.9812 O   0  0  0  0  0  0  0  0  0  0  0  0
    9.6261  -16.1301   23.5614 N   0  0  0  0  0  0  0  0  0  0  0  0
   10.1838  -16.2420   24.8954 C   0  0  1  0  0  0  0  0  0  0  0  0
    9.8196  -14.9976   25.6749 C   0  0  0  0  0  0  0  0  0  0  0  0
    8.3759  -14.7655   25.7391 C   0  0  0  0  0  0  0  0  0  0  0  0
    7.3912  -15.6999   25.5100 C   0  0  0  0  0  0  0  0  0  0  0  0
    6.1728  -15.1316   25.6572 N   0  0  0  0  0  0  0  0  0  0  0  0
    6.3371  -13.8307   25.9813 C   0  0  0  0  0  0  0  0  0  0  0  0
    5.4228  -12.8355   26.2342 C   0  0  0  0  0  0  0  0  0  0  0  0
    5.8425  -11.5593   26.5515 C   0  0  0  0  0  0  0  0  0  0  0  0
    7.1933  -11.3179   26.6059 C   0  0  0  0  0  0  0  0  0  0  0  0
    8.1116  -12.3113   26.3535 C   0  0  0  0  0  0  0  0  0  0  0  0
    7.7152  -13.5925   26.0349 C   0  0  0  0  0  0  0  0  0  0  0  0
    9.7363  -17.4805   25.5762 C   0  0  0  0  0  0  0  0  0  0  0  0
    8.8834  -18.3707   24.9594 O   0  0  0  0  0  0  0  0  0  0  0  0
   10.1314  -17.7421   26.7395 O   0  0  0  0  0  0  0  0  0  0  0  0
  2  3  1  0
  2  1  1  6
  3  4  1  0
  4  5  1  0
  5  9  1  0
  5  6  2  0
  7 14  1  0
  7  2  1  0
  8  7  2  0
 11 10  1  1
 12 11  1  0
 13 11  1  0
 13 14  1  1
 13 15  1  0
 15 17  1  0
 16 15  2  0
 17 18  1  0
 18 19  1  1
 19 20  1  0
 20 21  2  0
 20 28  1  0
 21 22  1  0
 22 23  1  0
 23 24  2  0
 24 25  1  0
 26 25  2  0
 27 26  1  0
 28 27  2  0
 28 23  1  0
 29 30  1  0
 29 18  1  0
 31 29  2  0
M  END
$$$$
