EVW.pdb
     RDKit          3D

 31 32  0  0  1  0  0  0  0  0999 V2000
    9.2464  -19.3439   18.8304 N   0  0  0  0  0  0  0  0  0  0  0  0
    8.6867  -18.9051   20.0984 C   0  0  1  0  0  0  0  0  0  0  0  0
    9.1060  -19.9303   21.1327 C   0  0  0  0  0  0  0  0  0  0  0  0
    8.8143  -21.3358   20.6580 C   0  0  0  0  0  0  0  0  0  0  0  0
    9.2324  -22.2915   21.6870 C   0  0  0  0  0  0  0  0  0  0  0  0
    9.9129  -23.2949   21.3690 O   0  0  0  0  0  0  0  0  0  0  0  0
    9.1311  -17.5459   20.4456 C   0  0  0  0  0  0  0  0  0  0  0  0
   10.2851  -17.1784   20.1219 O   0  0  0  0  0  0  0  0  0  0  0  0
    8.9073  -22.1430   23.0325 O   0  0  0  0  0  0  0  0  0  0  0  0
    6.6857  -14.4559   20.0747 C   0  0  0  0  0  0  0  0  0  0  0  0
    7.4195  -14.3561   21.3938 C   0  0  2  0  0  0  0  0  0  0  0  0
    7.8198  -12.9247   21.6964 C   0  0  0  0  0  0  0  0  0  0  0  0
    8.6100  -15.2869   21.4323 C   0  0  2  0  0  0  0  0  0  0  0  0
    8.2770  -16.6478   21.1387 N   0  0  0  0  0  0  0  0  0  0  0  0
    9.2850  -15.1616   22.7505 C   0  0  0  0  0  0  0  0  0  0  0  0
    9.8506  -14.0819   23.0702 O   0  0  0  0  0  0  0  0  0  0  0  0
    9.3147  -16.2290   23.6728 N   0  0  0  0  0  0  0  0  0  0  0  0
   10.0500  -16.1895   24.9222 C   0  0  1  0  0  0  0  0  0  0  0  0
    9.0808  -16.4315   26.0583 C   0  0  0  0  0  0  0  0  0  0  0  0
    7.9447  -15.5087   26.0469 C   0  0  0  0  0  0  0  0  0  0  0  0
    6.6459  -15.8221   25.7153 C   0  0  0  0  0  0  0  0  0  0  0  0
    5.8658  -14.7220   25.8160 N   0  0  0  0  0  0  0  0  0  0  0  0
    6.6315  -13.6816   26.2106 C   0  0  0  0  0  0  0  0  0  0  0  0
    6.3188  -12.3653   26.4550 C   0  0  0  0  0  0  0  0  0  0  0  0
    7.2933  -11.4741   26.8569 C   0  0  0  0  0  0  0  0  0  0  0  0
    8.5762  -11.9418   27.0035 C   0  0  0  0  0  0  0  0  0  0  0  0
    8.8932  -13.2586   26.7598 C   0  0  0  0  0  0  0  0  0  0  0  0
    7.9364  -14.1657   26.3578 C   0  0  0  0  0  0  0  0  0  0  0  0
   11.1741  -17.1558   24.9293 C   0  0  0  0  0  0  0  0  0  0  0  0
   12.0695  -17.2080   25.9761 O   0  0  0  0  0  0  0  0  0  0  0  0
   11.3310  -17.9521   23.9706 O   0  0  0  0  0  0  0  0  0  0  0  0
  2  3  1  0
  2  1  1  6
  3  4  1  0
  4  5  1  0
  5  9  1  0
  5  6  2  0
  7 14  1  0
  7  2  1  0
  8  7  2  0
 11 10  1  6
 12 11  1  0
 13 11  1  0
 13 14  1  1
 13 15  1  0
 15 17  1  0
 16 15  2  0
 17 18  1  0
 18 19  1  1
 19 20  1  0
 20 21  2  0
 20 28  1  0
 21 22  1  0
 22 23  1  0
 23 24  2  0
 24 25  1  0
 26 25  2  0
 27 26  1  0
 28 27  2  0
 28 23  1  0
 29 30  1  0
 29 18  1  0
 31 29  2  0
M  END
$$$$
