EVW.pdb
     RDKit          3D

 31 32  0  0  1  0  0  0  0  0999 V2000
   10.8714  -17.6555   18.9374 N   0  0  0  0  0  0  0  0  0  0  0  0
   11.5150  -17.4007   20.2159 C   0  0  1  0  0  0  0  0  0  0  0  0
   12.0445  -15.9820   20.1571 C   0  0  0  0  0  0  0  0  0  0  0  0
   13.2991  -15.9017   19.3172 C   0  0  0  0  0  0  0  0  0  0  0  0
   13.7037  -14.4998   19.1828 C   0  0  0  0  0  0  0  0  0  0  0  0
   14.7797  -14.2118   18.6082 O   0  0  0  0  0  0  0  0  0  0  0  0
   10.5877  -17.6056   21.3400 C   0  0  0  0  0  0  0  0  0  0  0  0
    9.3590  -17.4359   21.1579 O   0  0  0  0  0  0  0  0  0  0  0  0
   12.9396  -13.4432   19.6706 O   0  0  0  0  0  0  0  0  0  0  0  0
   11.5901  -20.1982   24.4407 C   0  0  0  0  0  0  0  0  0  0  0  0
   10.1922  -19.6778   24.1885 C   0  0  2  0  0  0  0  0  0  0  0  0
    9.4493  -20.5492   23.1938 C   0  0  0  0  0  0  0  0  0  0  0  0
   10.2150  -18.2306   23.7522 C   0  0  2  0  0  0  0  0  0  0  0  0
   11.0606  -17.9910   22.6223 N   0  0  0  0  0  0  0  0  0  0  0  0
   10.5943  -17.3781   24.9091 C   0  0  0  0  0  0  0  0  0  0  0  0
   11.7798  -16.9686   25.0299 O   0  0  0  0  0  0  0  0  0  0  0  0
    9.6558  -17.0048   25.8944 N   0  0  0  0  0  0  0  0  0  0  0  0
   10.0019  -16.2654   27.0929 C   0  0  1  0  0  0  0  0  0  0  0  0
    8.7248  -15.7949   27.7534 C   0  0  0  0  0  0  0  0  0  0  0  0
    7.8191  -15.1145   26.8266 C   0  0  0  0  0  0  0  0  0  0  0  0
    6.7751  -15.6913   26.1393 C   0  0  0  0  0  0  0  0  0  0  0  0
    6.1560  -14.7623   25.3759 N   0  0  0  0  0  0  0  0  0  0  0  0
    6.7769  -13.5752   25.5483 C   0  0  0  0  0  0  0  0  0  0  0  0
    6.5341  -12.3361   25.0044 C   0  0  0  0  0  0  0  0  0  0  0  0
    7.3213  -11.2536   25.3419 C   0  0  0  0  0  0  0  0  0  0  0  0
    8.3476  -11.4534   26.2322 C   0  0  0  0  0  0  0  0  0  0  0  0
    8.5940  -12.6921   26.7788 C   0  0  0  0  0  0  0  0  0  0  0  0
    7.8207  -13.7867   26.4562 C   0  0  0  0  0  0  0  0  0  0  0  0
   10.8441  -17.0691   28.0107 C   0  0  0  0  0  0  0  0  0  0  0  0
   11.0058  -18.4265   27.8333 O   0  0  0  0  0  0  0  0  0  0  0  0
   11.4309  -16.5201   28.9762 O   0  0  0  0  0  0  0  0  0  0  0  0
  2  3  1  0
  2  1  1  6
  3  4  1  0
  4  5  1  0
  5  9  1  0
  5  6  2  0
  7 14  1  0
  7  2  1  0
  8  7  2  0
 11 10  1  6
 12 11  1  0
 13 11  1  0
 13 14  1  6
 13 15  1  0
 15 17  1  0
 16 15  2  0
 17 18  1  0
 18 19  1  1
 19 20  1  0
 20 21  2  0
 20 28  1  0
 21 22  1  0
 22 23  1  0
 23 24  2  0
 24 25  1  0
 26 25  2  0
 27 26  1  0
 28 27  2  0
 28 23  1  0
 29 30  1  0
 29 18  1  0
 31 29  2  0
M  END
$$$$
