EVW.pdb
     RDKit          3D

 31 32  0  0  1  0  0  0  0  0999 V2000
   10.5508  -16.7925   16.6443 N   0  0  0  0  0  0  0  0  0  0  0  0
   10.9007  -17.2755   17.9701 C   0  0  1  0  0  0  0  0  0  0  0  0
   12.4133  -17.2415   18.0562 C   0  0  0  0  0  0  0  0  0  0  0  0
   13.0199  -18.5159   17.5144 C   0  0  0  0  0  0  0  0  0  0  0  0
   14.4795  -18.4409   17.6193 C   0  0  0  0  0  0  0  0  0  0  0  0
   15.0592  -18.9120   18.6257 O   0  0  0  0  0  0  0  0  0  0  0  0
   10.2621  -16.4730   19.0254 C   0  0  0  0  0  0  0  0  0  0  0  0
   10.4036  -15.2274   19.0166 O   0  0  0  0  0  0  0  0  0  0  0  0
   15.2784  -17.8606   16.6378 O   0  0  0  0  0  0  0  0  0  0  0  0
    6.7889  -15.7478   22.3386 C   0  0  0  0  0  0  0  0  0  0  0  0
    7.3832  -16.5380   21.1936 C   0  0  2  0  0  0  0  0  0  0  0  0
    6.9852  -17.9998   21.2658 C   0  0  0  0  0  0  0  0  0  0  0  0
    8.8846  -16.3724   21.1327 C   0  0  2  0  0  0  0  0  0  0  0  0
    9.4913  -17.0846   20.0493 N   0  0  0  0  0  0  0  0  0  0  0  0
    9.4721  -16.7633   22.4408 C   0  0  0  0  0  0  0  0  0  0  0  0
   10.0888  -17.8562   22.5546 O   0  0  0  0  0  0  0  0  0  0  0  0
    9.3612  -15.9380   23.5798 N   0  0  0  0  0  0  0  0  0  0  0  0
    9.9415  -16.2659   24.8678 C   0  0  1  0  0  0  0  0  0  0  0  0
    9.7556  -15.0842   25.7939 C   0  0  0  0  0  0  0  0  0  0  0  0
    8.3544  -14.6870   25.9395 C   0  0  0  0  0  0  0  0  0  0  0  0
    7.2676  -15.5318   25.9582 C   0  0  0  0  0  0  0  0  0  0  0  0
    6.1297  -14.8163   26.1084 N   0  0  0  0  0  0  0  0  0  0  0  0
    6.4484  -13.5063   26.1897 C   0  0  0  0  0  0  0  0  0  0  0  0
    5.6629  -12.3886   26.3447 C   0  0  0  0  0  0  0  0  0  0  0  0
    6.2314  -11.1321   26.4018 C   0  0  0  0  0  0  0  0  0  0  0  0
    7.5975  -11.0355   26.2995 C   0  0  0  0  0  0  0  0  0  0  0  0
    8.3872  -12.1517   26.1442 C   0  0  0  0  0  0  0  0  0  0  0  0
    7.8411  -13.4159   26.0847 C   0  0  0  0  0  0  0  0  0  0  0  0
    9.3673  -17.5125   25.4280 C   0  0  0  0  0  0  0  0  0  0  0  0
   10.0298  -18.2364   26.3962 O   0  0  0  0  0  0  0  0  0  0  0  0
    8.2549  -17.9345   25.0251 O   0  0  0  0  0  0  0  0  0  0  0  0
  2  3  1  0
  2  1  1  6
  3  4  1  0
  4  5  1  0
  5  9  1  0
  5  6  2  0
  7 14  1  0
  7  2  1  0
  8  7  2  0
 11 10  1  1
 12 11  1  0
 13 11  1  0
 13 14  1  6
 13 15  1  0
 15 17  1  0
 16 15  2  0
 17 18  1  0
 18 19  1  1
 19 20  1  0
 20 21  2  0
 20 28  1  0
 21 22  1  0
 22 23  1  0
 23 24  2  0
 24 25  1  0
 26 25  2  0
 27 26  1  0
 28 27  2  0
 28 23  1  0
 29 30  1  0
 29 18  1  0
 31 29  2  0
M  END
$$$$
