EVW.pdb
     RDKit          3D

 31 32  0  0  1  0  0  0  0  0999 V2000
   11.2223  -17.0624   17.6238 N   0  0  0  0  0  0  0  0  0  0  0  0
   11.4823  -17.5771   18.9584 C   0  0  1  0  0  0  0  0  0  0  0  0
   12.9853  -17.7298   19.0765 C   0  0  0  0  0  0  0  0  0  0  0  0
   13.3501  -19.0238   19.7680 C   0  0  0  0  0  0  0  0  0  0  0  0
   14.8088  -19.1342   19.8522 C   0  0  0  0  0  0  0  0  0  0  0  0
   15.4123  -18.6931   20.8582 O   0  0  0  0  0  0  0  0  0  0  0  0
   10.9262  -16.6954   19.9972 C   0  0  0  0  0  0  0  0  0  0  0  0
   11.5481  -15.6535   20.3121 O   0  0  0  0  0  0  0  0  0  0  0  0
   15.5811  -19.7167   18.8509 O   0  0  0  0  0  0  0  0  0  0  0  0
    7.2756  -15.3811   20.1382 C   0  0  0  0  0  0  0  0  0  0  0  0
    7.6018  -16.0220   21.4691 C   0  0  2  0  0  0  0  0  0  0  0  0
    6.9810  -15.2529   22.6196 C   0  0  0  0  0  0  0  0  0  0  0  0
    9.0939  -16.1849   21.6495 C   0  0  2  0  0  0  0  0  0  0  0  0
    9.7014  -17.0050   20.6458 N   0  0  0  0  0  0  0  0  0  0  0  0
    9.3666  -16.7017   23.0161 C   0  0  0  0  0  0  0  0  0  0  0  0
    9.5417  -17.9358   23.2012 O   0  0  0  0  0  0  0  0  0  0  0  0
    9.4376  -15.8428   24.1333 N   0  0  0  0  0  0  0  0  0  0  0  0
    9.7402  -16.2972   25.4768 C   0  0  1  0  0  0  0  0  0  0  0  0
    9.5512  -15.1381   26.4305 C   0  0  0  0  0  0  0  0  0  0  0  0
    8.2121  -14.5518   26.3592 C   0  0  0  0  0  0  0  0  0  0  0  0
    7.0424  -15.2262   26.0904 C   0  0  0  0  0  0  0  0  0  0  0  0
    5.9996  -14.3652   26.1052 N   0  0  0  0  0  0  0  0  0  0  0  0
    6.4632  -13.1269   26.3807 C   0  0  0  0  0  0  0  0  0  0  0  0
    5.8140  -11.9215   26.5068 C   0  0  0  0  0  0  0  0  0  0  0  0
    6.5183  -10.7707   26.7986 C   0  0  0  0  0  0  0  0  0  0  0  0
    7.8788  -10.8685   26.9577 C   0  0  0  0  0  0  0  0  0  0  0  0
    8.5323  -12.0730   26.8323 C   0  0  0  0  0  0  0  0  0  0  0  0
    7.8493  -13.2344   26.5415 C   0  0  0  0  0  0  0  0  0  0  0  0
    8.9224  -17.4740   25.8562 C   0  0  0  0  0  0  0  0  0  0  0  0
    9.3319  -18.3448   26.8433 O   0  0  0  0  0  0  0  0  0  0  0  0
    7.8303  -17.6995   25.2779 O   0  0  0  0  0  0  0  0  0  0  0  0
  2  3  1  0
  2  1  1  6
  3  4  1  0
  4  5  1  0
  5  9  1  0
  5  6  2  0
  7 14  1  0
  7  2  1  0
  8  7  2  0
 11 10  1  6
 12 11  1  0
 13 11  1  0
 13 14  1  6
 13 15  1  0
 15 17  1  0
 16 15  2  0
 17 18  1  0
 18 19  1  1
 19 20  1  0
 20 21  2  0
 20 28  1  0
 21 22  1  0
 22 23  1  0
 23 24  2  0
 24 25  1  0
 26 25  2  0
 27 26  1  0
 28 27  2  0
 28 23  1  0
 29 30  1  0
 29 18  1  0
 31 29  2  0
M  END
$$$$
