EVW.pdb
     RDKit          3D

 31 32  0  0  1  0  0  0  0  0999 V2000
   10.5678  -17.7489   19.6487 N   0  0  0  0  0  0  0  0  0  0  0  0
   10.1636  -16.8263   20.6970 C   0  0  1  0  0  0  0  0  0  0  0  0
    8.7516  -16.3877   20.3647 C   0  0  0  0  0  0  0  0  0  0  0  0
    8.7024  -15.6643   19.0381 C   0  0  0  0  0  0  0  0  0  0  0  0
    7.3511  -15.1410   18.8210 C   0  0  0  0  0  0  0  0  0  0  0  0
    6.6510  -14.7916   19.8001 O   0  0  0  0  0  0  0  0  0  0  0  0
   10.2585  -17.4443   22.0292 C   0  0  0  0  0  0  0  0  0  0  0  0
    9.4982  -18.3989   22.3161 O   0  0  0  0  0  0  0  0  0  0  0  0
    6.7875  -15.0070   17.5550 O   0  0  0  0  0  0  0  0  0  0  0  0
   12.9544  -19.3016   23.4665 C   0  0  0  0  0  0  0  0  0  0  0  0
   12.7207  -18.2037   24.4807 C   0  0  2  0  0  0  0  0  0  0  0  0
   12.8996  -18.7135   25.8980 C   0  0  0  0  0  0  0  0  0  0  0  0
   11.3679  -17.5570   24.2885 C   0  0  2  0  0  0  0  0  0  0  0  0
   11.1938  -16.9785   22.9908 N   0  0  0  0  0  0  0  0  0  0  0  0
   11.1473  -16.5577   25.3664 C   0  0  0  0  0  0  0  0  0  0  0  0
   11.7987  -15.4790   25.3704 O   0  0  0  0  0  0  0  0  0  0  0  0
   10.2168  -16.7790   26.4038 N   0  0  0  0  0  0  0  0  0  0  0  0
   10.0402  -15.8806   27.5283 C   0  0  1  0  0  0  0  0  0  0  0  0
    8.5716  -15.8459   27.8900 C   0  0  0  0  0  0  0  0  0  0  0  0
    7.7303  -15.3193   26.8144 C   0  0  0  0  0  0  0  0  0  0  0  0
    6.9234  -16.0571   25.9779 C   0  0  0  0  0  0  0  0  0  0  0  0
    6.2928  -15.2388   25.1051 N   0  0  0  0  0  0  0  0  0  0  0  0
    6.6717  -13.9661   25.3522 C   0  0  0  0  0  0  0  0  0  0  0  0
    6.3196  -12.7809   24.7509 C   0  0  0  0  0  0  0  0  0  0  0  0
    6.8505  -11.5848   25.1901 C   0  0  0  0  0  0  0  0  0  0  0  0
    7.7355  -11.6171   26.2397 C   0  0  0  0  0  0  0  0  0  0  0  0
    8.0905  -12.8013   26.8442 C   0  0  0  0  0  0  0  0  0  0  0  0
    7.5728  -14.0071   26.4223 C   0  0  0  0  0  0  0  0  0  0  0  0
   10.8916  -16.2662   28.6790 C   0  0  0  0  0  0  0  0  0  0  0  0
   11.5361  -17.4841   28.7189 O   0  0  0  0  0  0  0  0  0  0  0  0
   11.0414  -15.4805   29.6475 O   0  0  0  0  0  0  0  0  0  0  0  0
  2  3  1  0
  2  1  1  6
  3  4  1  0
  4  5  1  0
  5  9  1  0
  5  6  2  0
  7 14  1  0
  7  2  1  0
  8  7  2  0
 11 10  1  6
 12 11  1  0
 13 11  1  0
 13 14  1  6
 13 15  1  0
 15 17  1  0
 16 15  2  0
 17 18  1  0
 18 19  1  1
 19 20  1  0
 20 21  2  0
 20 28  1  0
 21 22  1  0
 22 23  1  0
 23 24  2  0
 24 25  1  0
 26 25  2  0
 27 26  1  0
 28 27  2  0
 28 23  1  0
 29 30  1  0
 29 18  1  0
 31 29  2  0
M  END
$$$$
