EVW.pdb
     RDKit          3D

 31 32  0  0  1  0  0  0  0  0999 V2000
    9.6636  -17.1318   16.9096 N   0  0  0  0  0  0  0  0  0  0  0  0
   10.2135  -17.5742   18.1806 C   0  0  1  0  0  0  0  0  0  0  0  0
   11.6923  -17.8128   17.9511 C   0  0  0  0  0  0  0  0  0  0  0  0
   11.9296  -19.1250   17.2387 C   0  0  0  0  0  0  0  0  0  0  0  0
   13.3665  -19.4114   17.2159 C   0  0  0  0  0  0  0  0  0  0  0  0
   13.7813  -20.5539   17.5216 O   0  0  0  0  0  0  0  0  0  0  0  0
    9.9642  -16.5940   19.2496 C   0  0  0  0  0  0  0  0  0  0  0  0
   10.5630  -15.4929   19.2215 O   0  0  0  0  0  0  0  0  0  0  0  0
   14.3206  -18.4604   16.8644 O   0  0  0  0  0  0  0  0  0  0  0  0
    6.4984  -16.9100   21.7506 C   0  0  0  0  0  0  0  0  0  0  0  0
    7.3188  -15.6554   21.5469 C   0  0  2  0  0  0  0  0  0  0  0  0
    6.7995  -14.8391   20.3787 C   0  0  0  0  0  0  0  0  0  0  0  0
    8.7873  -15.9786   21.3907 C   0  0  2  0  0  0  0  0  0  0  0  0
    9.0600  -16.8744   20.3080 N   0  0  0  0  0  0  0  0  0  0  0  0
    9.3113  -16.5029   22.6790 C   0  0  0  0  0  0  0  0  0  0  0  0
    9.6800  -17.7045   22.7684 O   0  0  0  0  0  0  0  0  0  0  0  0
    9.4119  -15.6869   23.8257 N   0  0  0  0  0  0  0  0  0  0  0  0
    9.9204  -16.1543   25.1008 C   0  0  1  0  0  0  0  0  0  0  0  0
    9.7497  -15.0499   26.1206 C   0  0  0  0  0  0  0  0  0  0  0  0
    8.3525  -14.6572   26.3094 C   0  0  0  0  0  0  0  0  0  0  0  0
    7.2584  -15.4905   26.2487 C   0  0  0  0  0  0  0  0  0  0  0  0
    6.1272  -14.7838   26.4725 N   0  0  0  0  0  0  0  0  0  0  0  0
    6.4575  -13.4909   26.6811 C   0  0  0  0  0  0  0  0  0  0  0  0
    5.6821  -12.3873   26.9480 C   0  0  0  0  0  0  0  0  0  0  0  0
    6.2617  -11.1473   27.1264 C   0  0  0  0  0  0  0  0  0  0  0  0
    7.6283  -11.0526   27.0293 C   0  0  0  0  0  0  0  0  0  0  0  0
    8.4078  -12.1547   26.7623 C   0  0  0  0  0  0  0  0  0  0  0  0
    7.8506  -13.4023   26.5807 C   0  0  0  0  0  0  0  0  0  0  0  0
    9.2656  -17.4147   25.5252 C   0  0  0  0  0  0  0  0  0  0  0  0
    9.8639  -18.2654   26.4299 O   0  0  0  0  0  0  0  0  0  0  0  0
    8.1419  -17.7319   25.0619 O   0  0  0  0  0  0  0  0  0  0  0  0
  2  3  1  0
  2  1  1  6
  3  4  1  0
  4  5  1  0
  5  9  1  0
  5  6  2  0
  7 14  1  0
  7  2  1  0
  8  7  2  0
 11 10  1  6
 12 11  1  0
 13 11  1  0
 13 14  1  6
 13 15  1  0
 15 17  1  0
 16 15  2  0
 17 18  1  0
 18 19  1  1
 19 20  1  0
 20 21  2  0
 20 28  1  0
 21 22  1  0
 22 23  1  0
 23 24  2  0
 24 25  1  0
 26 25  2  0
 27 26  1  0
 28 27  2  0
 28 23  1  0
 29 30  1  0
 29 18  1  0
 31 29  2  0
M  END
$$$$
