EVW.pdb
     RDKit          3D

 31 32  0  0  1  0  0  0  0  0999 V2000
    7.5892  -17.8458   18.0201 N   0  0  0  0  0  0  0  0  0  0  0  0
    8.4218  -18.1886   19.1616 C   0  0  1  0  0  0  0  0  0  0  0  0
    9.3993  -19.2425   18.6815 C   0  0  0  0  0  0  0  0  0  0  0  0
   10.3923  -19.5999   19.7640 C   0  0  0  0  0  0  0  0  0  0  0  0
   10.2287  -21.0105   20.1254 C   0  0  0  0  0  0  0  0  0  0  0  0
    9.2411  -21.6545   19.7002 O   0  0  0  0  0  0  0  0  0  0  0  0
    9.1010  -17.0049   19.7121 C   0  0  0  0  0  0  0  0  0  0  0  0
   10.2568  -16.7237   19.3162 O   0  0  0  0  0  0  0  0  0  0  0  0
   11.1327  -21.6922   20.9355 O   0  0  0  0  0  0  0  0  0  0  0  0
    6.7093  -14.0061   21.6614 C   0  0  0  0  0  0  0  0  0  0  0  0
    7.9869  -13.7761   20.8846 C   0  0  2  0  0  0  0  0  0  0  0  0
    7.7050  -13.5516   19.4113 C   0  0  0  0  0  0  0  0  0  0  0  0
    8.9701  -14.9045   21.0975 C   0  0  2  0  0  0  0  0  0  0  0  0
    8.4707  -16.1796   20.6806 N   0  0  0  0  0  0  0  0  0  0  0  0
    9.3916  -14.9221   22.5226 C   0  0  0  0  0  0  0  0  0  0  0  0
    9.9562  -13.9145   23.0266 O   0  0  0  0  0  0  0  0  0  0  0  0
    9.1775  -16.0482   23.3455 N   0  0  0  0  0  0  0  0  0  0  0  0
    9.6577  -16.1475   24.7102 C   0  0  1  0  0  0  0  0  0  0  0  0
    8.5050  -16.5656   25.5963 C   0  0  0  0  0  0  0  0  0  0  0  0
    7.4247  -15.5788   25.6325 C   0  0  0  0  0  0  0  0  0  0  0  0
    6.1488  -15.7518   25.1455 C   0  0  0  0  0  0  0  0  0  0  0  0
    5.4208  -14.6305   25.3504 N   0  0  0  0  0  0  0  0  0  0  0  0
    6.1986  -13.7149   25.9678 C   0  0  0  0  0  0  0  0  0  0  0  0
    5.9329  -12.4332   26.3882 C   0  0  0  0  0  0  0  0  0  0  0  0
    6.9099  -11.6796   27.0071 C   0  0  0  0  0  0  0  0  0  0  0  0
    8.1469  -12.2478   27.1880 C   0  0  0  0  0  0  0  0  0  0  0  0
    8.4168  -13.5304   26.7687 C   0  0  0  0  0  0  0  0  0  0  0  0
    7.4566  -14.3009   26.1486 C   0  0  0  0  0  0  0  0  0  0  0  0
   10.8126  -17.0703   24.8208 C   0  0  0  0  0  0  0  0  0  0  0  0
   11.5606  -17.1492   25.9760 O   0  0  0  0  0  0  0  0  0  0  0  0
   11.1324  -17.8038   23.8525 O   0  0  0  0  0  0  0  0  0  0  0  0
  2  3  1  0
  2  1  1  6
  3  4  1  0
  4  5  1  0
  5  9  1  0
  5  6  2  0
  7 14  1  0
  7  2  1  0
  8  7  2  0
 11 10  1  1
 12 11  1  0
 13 11  1  0
 13 14  1  1
 13 15  1  0
 15 17  1  0
 16 15  2  0
 17 18  1  0
 18 19  1  1
 19 20  1  0
 20 21  2  0
 20 28  1  0
 21 22  1  0
 22 23  1  0
 23 24  2  0
 24 25  1  0
 26 25  2  0
 27 26  1  0
 28 27  2  0
 28 23  1  0
 29 30  1  0
 29 18  1  0
 31 29  2  0
M  END
$$$$
