EVW.pdb
     RDKit          3D

 31 32  0  0  1  0  0  0  0  0999 V2000
   11.8463  -17.2391   17.7936 N   0  0  0  0  0  0  0  0  0  0  0  0
   10.6542  -17.6166   18.5352 C   0  0  1  0  0  0  0  0  0  0  0  0
   10.8765  -19.0366   19.0153 C   0  0  0  0  0  0  0  0  0  0  0  0
   10.8688  -20.0113   17.8596 C   0  0  0  0  0  0  0  0  0  0  0  0
   11.8494  -21.0705   18.1121 C   0  0  0  0  0  0  0  0  0  0  0  0
   11.9683  -22.0189   17.3013 O   0  0  0  0  0  0  0  0  0  0  0  0
   10.3883  -16.6863   19.6440 C   0  0  0  0  0  0  0  0  0  0  0  0
   11.3170  -16.3954   20.4343 O   0  0  0  0  0  0  0  0  0  0  0  0
   12.6774  -21.0819   19.2313 O   0  0  0  0  0  0  0  0  0  0  0  0
    7.6879  -13.5029   19.6625 C   0  0  0  0  0  0  0  0  0  0  0  0
    7.4807  -14.5174   20.7655 C   0  0  2  0  0  0  0  0  0  0  0  0
    7.0238  -13.8519   22.0496 C   0  0  0  0  0  0  0  0  0  0  0  0
    8.7211  -15.3537   20.9829 C   0  0  2  0  0  0  0  0  0  0  0  0
    9.1019  -16.1152   19.8322 N   0  0  0  0  0  0  0  0  0  0  0  0
    8.5212  -16.2230   22.1718 C   0  0  0  0  0  0  0  0  0  0  0  0
    8.0792  -17.3945   22.0303 O   0  0  0  0  0  0  0  0  0  0  0  0
    8.8147  -15.7737   23.4767 N   0  0  0  0  0  0  0  0  0  0  0  0
    8.5993  -16.5726   24.6677 C   0  0  1  0  0  0  0  0  0  0  0  0
    8.7907  -15.6889   25.8806 C   0  0  0  0  0  0  0  0  0  0  0  0
    7.6594  -14.7909   26.1178 C   0  0  0  0  0  0  0  0  0  0  0  0
    6.4044  -15.1600   26.5465 C   0  0  0  0  0  0  0  0  0  0  0  0
    5.6144  -14.0676   26.6556 N   0  0  0  0  0  0  0  0  0  0  0  0
    6.3304  -12.9775   26.3043 C   0  0  0  0  0  0  0  0  0  0  0  0
    5.9894  -11.6468   26.2475 C   0  0  0  0  0  0  0  0  0  0  0  0
    6.9129  -10.7007   25.8505 C   0  0  0  0  0  0  0  0  0  0  0  0
    8.1743  -11.1290   25.5167 C   0  0  0  0  0  0  0  0  0  0  0  0
    8.5195  -12.4599   25.5722 C   0  0  0  0  0  0  0  0  0  0  0  0
    7.6137  -13.4216   25.9656 C   0  0  0  0  0  0  0  0  0  0  0  0
    7.2700  -17.2285   24.6566 C   0  0  0  0  0  0  0  0  0  0  0  0
    7.0306  -18.3783   25.3784 O   0  0  0  0  0  0  0  0  0  0  0  0
    6.3290  -16.7419   23.9815 O   0  0  0  0  0  0  0  0  0  0  0  0
  2  3  1  0
  2  1  1  1
  3  4  1  0
  4  5  1  0
  5  9  1  0
  5  6  2  0
  7 14  1  0
  7  2  1  0
  8  7  2  0
 11 10  1  6
 12 11  1  0
 13 11  1  0
 13 14  1  6
 13 15  1  0
 15 17  1  0
 16 15  2  0
 17 18  1  0
 18 19  1  1
 19 20  1  0
 20 21  2  0
 20 28  1  0
 21 22  1  0
 22 23  1  0
 23 24  2  0
 24 25  1  0
 26 25  2  0
 27 26  1  0
 28 27  2  0
 28 23  1  0
 29 30  1  0
 29 18  1  0
 31 29  2  0
M  END
$$$$
