EVW.pdb
     RDKit          3D

 31 32  0  0  1  0  0  0  0  0999 V2000
    8.7389  -19.1443   18.7191 N   0  0  0  0  0  0  0  0  0  0  0  0
    8.9110  -18.8272   20.1274 C   0  0  1  0  0  0  0  0  0  0  0  0
    9.9881  -19.7562   20.6502 C   0  0  0  0  0  0  0  0  0  0  0  0
    9.3874  -21.0142   21.2353 C   0  0  0  0  0  0  0  0  0  0  0  0
   10.4574  -21.8554   21.7780 C   0  0  0  0  0  0  0  0  0  0  0  0
   11.3696  -21.3404   22.4662 O   0  0  0  0  0  0  0  0  0  0  0  0
    9.2505  -17.4091   20.3262 C   0  0  0  0  0  0  0  0  0  0  0  0
   10.2665  -16.9387   19.7622 O   0  0  0  0  0  0  0  0  0  0  0  0
   10.5184  -23.2301   21.5661 O   0  0  0  0  0  0  0  0  0  0  0  0
    6.8529  -14.3080   19.9756 C   0  0  0  0  0  0  0  0  0  0  0  0
    7.4841  -14.3151   21.3504 C   0  0  2  0  0  0  0  0  0  0  0  0
    7.7785  -12.9068   21.8306 C   0  0  0  0  0  0  0  0  0  0  0  0
    8.7208  -15.1840   21.3827 C   0  0  2  0  0  0  0  0  0  0  0  0
    8.4488  -16.5688   21.1433 N   0  0  0  0  0  0  0  0  0  0  0  0
    9.4261  -14.9811   22.6752 C   0  0  0  0  0  0  0  0  0  0  0  0
    9.9476  -13.8654   22.9416 O   0  0  0  0  0  0  0  0  0  0  0  0
    9.5336  -16.0132   23.6313 N   0  0  0  0  0  0  0  0  0  0  0  0
   10.1780  -15.8491   24.9200 C   0  0  1  0  0  0  0  0  0  0  0  0
    9.2037  -16.2625   26.0010 C   0  0  0  0  0  0  0  0  0  0  0  0
    7.9672  -15.4796   25.9858 C   0  0  0  0  0  0  0  0  0  0  0  0
    6.7012  -15.9637   25.7446 C   0  0  0  0  0  0  0  0  0  0  0  0
    5.8017  -14.9559   25.8104 N   0  0  0  0  0  0  0  0  0  0  0  0
    6.4556  -13.8082   26.0925 C   0  0  0  0  0  0  0  0  0  0  0  0
    6.0006  -12.5220   26.2624 C   0  0  0  0  0  0  0  0  0  0  0  0
    6.8796  -11.4976   26.5510 C   0  0  0  0  0  0  0  0  0  0  0  0
    8.2139  -11.8029   26.6621 C   0  0  0  0  0  0  0  0  0  0  0  0
    8.6734  -13.0889   26.4928 C   0  0  0  0  0  0  0  0  0  0  0  0
    7.8138  -14.1272   26.2042 C   0  0  0  0  0  0  0  0  0  0  0  0
   11.4527  -16.6019   24.9970 C   0  0  0  0  0  0  0  0  0  0  0  0
   11.8567  -17.4361   23.9766 O   0  0  0  0  0  0  0  0  0  0  0  0
   12.1942  -16.4909   26.0049 O   0  0  0  0  0  0  0  0  0  0  0  0
  2  3  1  0
  2  1  1  6
  3  4  1  0
  4  5  1  0
  5  9  1  0
  5  6  2  0
  7 14  1  0
  7  2  1  0
  8  7  2  0
 11 10  1  6
 12 11  1  0
 13 11  1  0
 13 14  1  1
 13 15  1  0
 15 17  1  0
 16 15  2  0
 17 18  1  0
 18 19  1  1
 19 20  1  0
 20 21  2  0
 20 28  1  0
 21 22  1  0
 22 23  1  0
 23 24  2  0
 24 25  1  0
 26 25  2  0
 27 26  1  0
 28 27  2  0
 28 23  1  0
 29 30  1  0
 29 18  1  0
 31 29  2  0
M  END
$$$$
