MRQ.pdb
     RDKit          3D

 29 28  0  0  1  0  0  0  0  0999 V2000
    7.6411  -10.9388   25.2542 C   0  0  0  0  0  0  0  0  0  0  0  0
    6.8310  -11.7716   26.6143 S   0  0  0  0  0  0  0  0  0  0  0  0
    6.2063  -13.4069   26.2580 C   0  0  0  0  0  0  0  0  0  0  0  0
    7.2030  -14.3514   25.6951 C   0  0  0  0  0  0  0  0  0  0  0  0
    6.6586  -15.3930   24.7671 C   0  0  2  0  0  0  0  0  0  0  0  0
    5.7356  -16.2116   25.5418 N   0  0  0  0  0  0  0  0  0  0  0  0
    7.7312  -16.2959   24.2591 C   0  0  0  0  0  0  0  0  0  0  0  0
    8.1751  -17.2492   24.9442 O   0  0  0  0  0  0  0  0  0  0  0  0
   13.5833  -16.2532   19.8227 N   0  0  0  0  0  0  0  0  0  0  0  0
   13.3707  -14.9223   19.3536 C   0  0  0  0  0  0  0  0  0  0  0  0
   14.3533  -14.1206   19.1925 N   0  0  0  0  0  0  0  0  0  0  0  0
   12.0479  -14.5191   19.0734 N   0  0  0  0  0  0  0  0  0  0  0  0
   10.9700  -15.4988   19.2422 C   0  0  0  0  0  0  0  0  0  0  0  0
   10.6294  -15.6627   20.6844 C   0  0  0  0  0  0  0  0  0  0  0  0
    9.6883  -16.7444   21.0427 C   0  0  0  0  0  0  0  0  0  0  0  0
    9.3733  -16.9595   22.4809 C   0  0  2  0  0  0  0  0  0  0  0  0
    8.3221  -16.1276   22.9499 N   0  0  0  0  0  0  0  0  0  0  0  0
   10.6035  -16.7433   23.3325 C   0  0  0  0  0  0  0  0  0  0  0  0
   10.8575  -15.5818   23.7404 O   0  0  0  0  0  0  0  0  0  0  0  0
   14.1793  -13.1762   18.8266 N   0  0  0  0  0  0  0  0  0  0  0  0
   13.3517  -20.3064   28.7865 C   0  0  0  0  0  0  0  0  0  0  0  0
   12.5072  -19.2852   28.2849 O   0  0  0  0  0  0  0  0  0  0  0  0
   11.4353  -19.0606   28.8794 C   0  0  0  0  0  0  0  0  0  0  0  0
   12.8888  -18.5240   27.1047 C   0  0  0  0  0  0  0  0  0  0  0  0
   11.9094  -18.4816   25.9796 C   0  0  1  0  0  0  0  0  0  0  0  0
   12.3791  -17.6679   24.8377 N   0  0  0  0  0  0  0  0  0  0  0  0
   11.4780  -17.7709   23.6919 C   0  0  0  0  0  0  0  0  0  0  0  0
   13.7045  -18.0508   24.3761 O   0  0  0  0  0  0  0  0  0  0  0  0
   13.8698  -18.6689   23.3010 O   0  0  0  0  0  0  0  0  0  0  0  0
  2  3  1  0
  2  1  1  0
  4  5  1  0
  4  3  1  0
  5  6  1  1
  7  8  2  0
  7  5  1  0
  9 10  1  0
 10 12  1  0
 11 10  2  0
 12 13  1  0
 13 14  1  0
 14 15  1  0
 16 15  1  6
 16 17  1  0
 17  7  1  0
 18 16  1  0
 19 18  2  0
 20 21  1  0
 21 23  1  0
 21 22  2  0
 23 24  1  0
 25 24  1  1
 25 27  1  0
 25 26  1  0
 26 18  1  0
 27 29  1  0
 28 27  2  0
M  END
$$$$
