MRQ.pdb
     RDKit          3D

 29 28  0  0  1  0  0  0  0  0999 V2000
    7.7202  -11.1747   20.5811 C   0  0  0  0  0  0  0  0  0  0  0  0
    7.6334  -12.1178   19.0635 S   0  0  0  0  0  0  0  0  0  0  0  0
    8.2659  -13.7861   19.1526 C   0  0  0  0  0  0  0  0  0  0  0  0
    8.2404  -14.3964   20.5053 C   0  0  0  0  0  0  0  0  0  0  0  0
    9.5017  -15.0812   20.9324 C   0  0  2  0  0  0  0  0  0  0  0  0
    9.8992  -15.9594   19.8401 N   0  0  0  0  0  0  0  0  0  0  0  0
    9.2858  -15.9387   22.1332 C   0  0  0  0  0  0  0  0  0  0  0  0
    8.6898  -15.5139   23.1528 O   0  0  0  0  0  0  0  0  0  0  0  0
    9.3031  -21.1270   19.2966 N   0  0  0  0  0  0  0  0  0  0  0  0
    8.2831  -21.9893   19.7991 C   0  0  0  0  0  0  0  0  0  0  0  0
    7.3538  -22.4189   19.0337 N   0  0  0  0  0  0  0  0  0  0  0  0
    8.3312  -22.3529   21.1616 N   0  0  0  0  0  0  0  0  0  0  0  0
    9.3487  -21.7296   22.0140 C   0  0  0  0  0  0  0  0  0  0  0  0
    9.0315  -20.2914   22.2458 C   0  0  0  0  0  0  0  0  0  0  0  0
    9.9282  -19.5328   23.1427 C   0  0  0  0  0  0  0  0  0  0  0  0
    9.6420  -18.0911   23.3738 C   0  0  2  0  0  0  0  0  0  0  0  0
    9.7485  -17.3075   22.1941 N   0  0  0  0  0  0  0  0  0  0  0  0
   10.5614  -17.5301   24.4346 C   0  0  0  0  0  0  0  0  0  0  0  0
   11.7584  -17.2947   24.1315 O   0  0  0  0  0  0  0  0  0  0  0  0
    6.6657  -23.0877   19.4015 N   0  0  0  0  0  0  0  0  0  0  0  0
    9.8447  -12.8451   28.6279 C   0  0  0  0  0  0  0  0  0  0  0  0
    9.0528  -13.6148   27.7402 O   0  0  0  0  0  0  0  0  0  0  0  0
    8.0580  -13.0756   27.2181 C   0  0  0  0  0  0  0  0  0  0  0  0
    9.3986  -14.9987   27.4520 C   0  0  0  0  0  0  0  0  0  0  0  0
   10.7902  -15.2663   26.9845 C   0  0  1  0  0  0  0  0  0  0  0  0
   11.0518  -16.7021   26.7471 N   0  0  0  0  0  0  0  0  0  0  0  0
   10.1496  -17.2582   25.7409 C   0  0  0  0  0  0  0  0  0  0  0  0
   10.9054  -17.5110   27.9474 O   0  0  0  0  0  0  0  0  0  0  0  0
   10.0214  -18.3914   28.0395 O   0  0  0  0  0  0  0  0  0  0  0  0
  2  3  1  0
  2  1  1  0
  4  5  1  0
  4  3  1  0
  5  6  1  6
  7  8  2  0
  7  5  1  0
  9 10  1  0
 10 12  1  0
 11 10  2  0
 12 13  1  0
 13 14  1  0
 14 15  1  0
 16 15  1  6
 16 17  1  0
 17  7  1  0
 18 16  1  0
 19 18  2  0
 20 21  1  0
 21 23  1  0
 21 22  2  0
 23 24  1  0
 25 24  1  6
 25 27  1  0
 25 26  1  0
 26 18  1  0
 27 29  1  0
 28 27  2  0
M  END
$$$$
