MRQ.pdb
     RDKit          3D

 29 28  0  0  1  0  0  0  0  0999 V2000
    8.3334  -11.0239   20.4305 C   0  0  0  0  0  0  0  0  0  0  0  0
    7.9752  -11.9407   18.9368 S   0  0  0  0  0  0  0  0  0  0  0  0
    7.8813  -13.7151   19.1224 C   0  0  0  0  0  0  0  0  0  0  0  0
    7.4838  -14.1854   20.4728 C   0  0  0  0  0  0  0  0  0  0  0  0
    8.2181  -15.3861   20.9842 C   0  0  2  0  0  0  0  0  0  0  0  0
    8.0575  -16.4380   19.9893 N   0  0  0  0  0  0  0  0  0  0  0  0
    7.6326  -15.8903   22.2597 C   0  0  0  0  0  0  0  0  0  0  0  0
    7.5168  -15.1570   23.2716 O   0  0  0  0  0  0  0  0  0  0  0  0
    1.8558  -20.1438   19.8011 N   0  0  0  0  0  0  0  0  0  0  0  0
    2.4030  -20.0729   21.1172 C   0  0  0  0  0  0  0  0  0  0  0  0
    1.8179  -19.4007   22.0337 N   0  0  0  0  0  0  0  0  0  0  0  0
    3.6049  -20.7652   21.3760 N   0  0  0  0  0  0  0  0  0  0  0  0
    4.2186  -20.6255   22.7005 C   0  0  0  0  0  0  0  0  0  0  0  0
    4.7545  -19.2471   22.8891 C   0  0  0  0  0  0  0  0  0  0  0  0
    6.0837  -19.1142   23.5213 C   0  0  0  0  0  0  0  0  0  0  0  0
    6.6766  -17.7548   23.6410 C   0  0  2  0  0  0  0  0  0  0  0  0
    7.1641  -17.2506   22.4061 N   0  0  0  0  0  0  0  0  0  0  0  0
    7.7918  -17.7494   24.6616 C   0  0  0  0  0  0  0  0  0  0  0  0
    8.9218  -18.1825   24.3218 O   0  0  0  0  0  0  0  0  0  0  0  0
    2.2639  -19.3088   22.9550 N   0  0  0  0  0  0  0  0  0  0  0  0
    9.2689  -13.5659   28.9616 C   0  0  0  0  0  0  0  0  0  0  0  0
    9.9316  -14.7196   29.4487 O   0  0  0  0  0  0  0  0  0  0  0  0
   10.8159  -14.5712   30.3141 C   0  0  0  0  0  0  0  0  0  0  0  0
    9.5833  -16.0398   28.9452 C   0  0  0  0  0  0  0  0  0  0  0  0
    8.5100  -16.1092   27.9107 C   0  0  1  0  0  0  0  0  0  0  0  0
    8.7544  -17.1575   26.8969 N   0  0  0  0  0  0  0  0  0  0  0  0
    7.6325  -17.2866   25.9694 C   0  0  0  0  0  0  0  0  0  0  0  0
    8.9796  -18.4703   27.4819 O   0  0  0  0  0  0  0  0  0  0  0  0
   10.1151  -18.8301   27.8646 O   0  0  0  0  0  0  0  0  0  0  0  0
  2  3  1  0
  2  1  1  0
  4  5  1  0
  4  3  1  0
  5  6  1  6
  7  8  2  0
  7  5  1  0
  9 10  1  0
 10 12  1  0
 11 10  2  0
 12 13  1  0
 13 14  1  0
 14 15  1  0
 16 15  1  6
 16 17  1  0
 17  7  1  0
 18 16  1  0
 19 18  2  0
 20 21  1  0
 21 23  1  0
 21 22  2  0
 23 24  1  0
 25 24  1  6
 25 27  1  0
 25 26  1  0
 26 18  1  0
 27 29  1  0
 28 27  2  0
M  END
$$$$
