MRQ.pdb
     RDKit          3D

 29 28  0  0  1  0  0  0  0  0999 V2000
    6.1629  -12.0509   26.8751 C   0  0  0  0  0  0  0  0  0  0  0  0
    7.5044  -13.1731   27.2505 S   0  0  0  0  0  0  0  0  0  0  0  0
    7.4058  -14.7816   26.4794 C   0  0  0  0  0  0  0  0  0  0  0  0
    6.1001  -15.0969   25.8483 C   0  0  0  0  0  0  0  0  0  0  0  0
    6.0047  -16.4380   25.1890 C   0  0  2  0  0  0  0  0  0  0  0  0
    6.7390  -17.3766   26.0269 N   0  0  0  0  0  0  0  0  0  0  0  0
    6.6544  -16.4415   23.8467 C   0  0  0  0  0  0  0  0  0  0  0  0
    6.2755  -17.2090   22.9287 O   0  0  0  0  0  0  0  0  0  0  0  0
    7.8649  -12.8751   17.0263 N   0  0  0  0  0  0  0  0  0  0  0  0
    8.1585  -14.2689   16.9387 C   0  0  0  0  0  0  0  0  0  0  0  0
    8.2996  -14.8376   15.8026 N   0  0  0  0  0  0  0  0  0  0  0  0
    8.2885  -14.9980   18.1396 N   0  0  0  0  0  0  0  0  0  0  0  0
    8.7755  -14.2966   19.3318 C   0  0  0  0  0  0  0  0  0  0  0  0
    7.6413  -13.9349   20.2292 C   0  0  0  0  0  0  0  0  0  0  0  0
    7.2303  -14.9301   21.2415 C   0  0  0  0  0  0  0  0  0  0  0  0
    8.2539  -15.4274   22.2000 C   0  0  2  0  0  0  0  0  0  0  0  0
    7.7565  -15.5628   23.5233 N   0  0  0  0  0  0  0  0  0  0  0  0
    9.4614  -14.5179   22.2073 C   0  0  0  0  0  0  0  0  0  0  0  0
    9.3067  -13.3135   22.5322 O   0  0  0  0  0  0  0  0  0  0  0  0
    8.6716  -15.7946   15.7600 N   0  0  0  0  0  0  0  0  0  0  0  0
   10.1583  -18.6939   25.3449 C   0  0  0  0  0  0  0  0  0  0  0  0
   11.5378  -18.3707   25.3475 O   0  0  0  0  0  0  0  0  0  0  0  0
   12.3045  -19.0616   26.0459 C   0  0  0  0  0  0  0  0  0  0  0  0
   12.0378  -17.2585   24.5533 C   0  0  0  0  0  0  0  0  0  0  0  0
   11.0689  -16.5923   23.6344 C   0  0  1  0  0  0  0  0  0  0  0  0
   11.6761  -15.4896   22.8586 N   0  0  0  0  0  0  0  0  0  0  0  0
   10.7468  -14.9466   21.8701 C   0  0  0  0  0  0  0  0  0  0  0  0
   12.8756  -15.8944   22.1418 O   0  0  0  0  0  0  0  0  0  0  0  0
   12.8234  -16.6805   21.1699 O   0  0  0  0  0  0  0  0  0  0  0  0
  2  3  1  0
  2  1  1  0
  4  5  1  0
  4  3  1  0
  5  6  1  1
  7  8  2  0
  7  5  1  0
  9 10  1  0
 10 12  1  0
 11 10  2  0
 12 13  1  0
 13 14  1  0
 14 15  1  0
 16 15  1  6
 16 17  1  0
 17  7  1  0
 18 16  1  0
 19 18  2  0
 20 21  1  0
 21 23  1  0
 21 22  2  0
 23 24  1  0
 25 24  1  1
 25 27  1  0
 25 26  1  0
 26 18  1  0
 27 29  1  0
 28 27  2  0
M  END
$$$$
