MRQ.pdb
     RDKit          3D

 29 28  0  0  1  0  0  0  0  0999 V2000
    7.9767  -10.8647   26.6692 C   0  0  0  0  0  0  0  0  0  0  0  0
    6.2078  -11.1301   26.6881 S   0  0  0  0  0  0  0  0  0  0  0  0
    5.6387  -12.6078   25.8609 C   0  0  0  0  0  0  0  0  0  0  0  0
    6.6789  -13.6422   25.6362 C   0  0  0  0  0  0  0  0  0  0  0  0
    6.2452  -14.8380   24.8460 C   0  0  2  0  0  0  0  0  0  0  0  0
    5.3208  -15.5891   25.6847 N   0  0  0  0  0  0  0  0  0  0  0  0
    7.3913  -15.7395   24.5336 C   0  0  0  0  0  0  0  0  0  0  0  0
    7.6627  -16.7377   25.2445 O   0  0  0  0  0  0  0  0  0  0  0  0
    9.7164  -20.0402   19.3922 N   0  0  0  0  0  0  0  0  0  0  0  0
   11.1113  -19.8679   19.1447 C   0  0  0  0  0  0  0  0  0  0  0  0
   11.8578  -20.8716   18.8811 N   0  0  0  0  0  0  0  0  0  0  0  0
   11.6400  -18.5610   19.1992 N   0  0  0  0  0  0  0  0  0  0  0  0
   10.7438  -17.4613   19.5707 C   0  0  0  0  0  0  0  0  0  0  0  0
   10.5057  -17.4512   21.0423 C   0  0  0  0  0  0  0  0  0  0  0  0
    9.4515  -16.5513   21.5550 C   0  0  0  0  0  0  0  0  0  0  0  0
    9.2738  -16.4380   23.0279 C   0  0  2  0  0  0  0  0  0  0  0  0
    8.2559  -15.5184   23.3956 N   0  0  0  0  0  0  0  0  0  0  0  0
   10.5731  -16.0413   23.6910 C   0  0  0  0  0  0  0  0  0  0  0  0
   10.7997  -14.8211   23.8910 O   0  0  0  0  0  0  0  0  0  0  0  0
   12.8615  -20.7246   18.7164 N   0  0  0  0  0  0  0  0  0  0  0  0
   10.5531  -15.0106   29.1634 C   0  0  0  0  0  0  0  0  0  0  0  0
   11.0787  -16.3129   28.9755 O   0  0  0  0  0  0  0  0  0  0  0  0
   10.7985  -17.1894   29.8158 C   0  0  0  0  0  0  0  0  0  0  0  0
   11.9240  -16.6104   27.8288 C   0  0  0  0  0  0  0  0  0  0  0  0
   11.2779  -16.5781   26.4841 C   0  0  1  0  0  0  0  0  0  0  0  0
   12.2225  -16.8693   25.3843 N   0  0  0  0  0  0  0  0  0  0  0  0
   11.5409  -16.9632   24.0951 C   0  0  0  0  0  0  0  0  0  0  0  0
   12.9492  -18.1148   25.5763 O   0  0  0  0  0  0  0  0  0  0  0  0
   14.0163  -18.1561   26.2282 O   0  0  0  0  0  0  0  0  0  0  0  0
  2  3  1  0
  2  1  1  0
  4  5  1  0
  4  3  1  0
  5  6  1  1
  7  8  2  0
  7  5  1  0
  9 10  1  0
 10 12  1  0
 11 10  2  0
 12 13  1  0
 13 14  1  0
 14 15  1  0
 16 15  1  6
 16 17  1  0
 17  7  1  0
 18 16  1  0
 19 18  2  0
 20 21  1  0
 21 23  1  0
 21 22  2  0
 23 24  1  0
 25 24  1  6
 25 27  1  0
 25 26  1  0
 26 18  1  0
 27 29  1  0
 28 27  2  0
M  END
$$$$
