MRQ.pdb
     RDKit          3D

 29 28  0  0  1  0  0  0  0  0999 V2000
    6.2043  -11.8173   27.6075 C   0  0  0  0  0  0  0  0  0  0  0  0
    7.2765  -12.5314   26.3664 S   0  0  0  0  0  0  0  0  0  0  0  0
    7.7680  -14.2252   26.6512 C   0  0  0  0  0  0  0  0  0  0  0  0
    6.8636  -15.2482   26.0697 C   0  0  0  0  0  0  0  0  0  0  0  0
    6.4908  -15.0442   24.6338 C   0  0  2  0  0  0  0  0  0  0  0  0
    5.5905  -16.1303   24.2701 N   0  0  0  0  0  0  0  0  0  0  0  0
    7.6782  -15.1345   23.7361 C   0  0  0  0  0  0  0  0  0  0  0  0
    8.6589  -14.3602   23.8540 O   0  0  0  0  0  0  0  0  0  0  0  0
    8.0834  -14.3294   15.5350 N   0  0  0  0  0  0  0  0  0  0  0  0
    8.1765  -13.9002   16.8928 C   0  0  0  0  0  0  0  0  0  0  0  0
    7.9634  -12.6801   17.2093 N   0  0  0  0  0  0  0  0  0  0  0  0
    8.5093  -14.8596   17.8723 N   0  0  0  0  0  0  0  0  0  0  0  0
    7.4885  -15.8355   18.2674 C   0  0  0  0  0  0  0  0  0  0  0  0
    7.4744  -16.0117   19.7477 C   0  0  0  0  0  0  0  0  0  0  0  0
    8.6962  -15.6358   20.4895 C   0  0  0  0  0  0  0  0  0  0  0  0
    8.9114  -16.2219   21.8401 C   0  0  2  0  0  0  0  0  0  0  0  0
    7.7704  -16.1173   22.6793 N   0  0  0  0  0  0  0  0  0  0  0  0
   10.0959  -15.5726   22.5187 C   0  0  0  0  0  0  0  0  0  0  0  0
    9.9108  -14.5149   23.1721 O   0  0  0  0  0  0  0  0  0  0  0  0
    8.0563  -12.3897   18.1907 N   0  0  0  0  0  0  0  0  0  0  0  0
   10.3322  -18.4062   26.9164 C   0  0  0  0  0  0  0  0  0  0  0  0
   11.6578  -17.9221   27.0428 O   0  0  0  0  0  0  0  0  0  0  0  0
   12.2489  -18.0960   28.1260 C   0  0  0  0  0  0  0  0  0  0  0  0
   12.3043  -17.2396   25.9320 C   0  0  0  0  0  0  0  0  0  0  0  0
   11.4973  -17.0492   24.6913 C   0  0  2  0  0  0  0  0  0  0  0  0
   12.2147  -16.2831   23.6497 N   0  0  0  0  0  0  0  0  0  0  0  0
   11.3923  -16.0878   22.4576 C   0  0  0  0  0  0  0  0  0  0  0  0
   13.4462  -16.9271   23.2196 O   0  0  0  0  0  0  0  0  0  0  0  0
   13.4827  -17.6584   22.2052 O   0  0  0  0  0  0  0  0  0  0  0  0
  2  3  1  0
  2  1  1  0
  4  5  1  0
  4  3  1  0
  5  6  1  6
  7  8  2  0
  7  5  1  0
  9 10  1  0
 10 12  1  0
 11 10  2  0
 12 13  1  0
 13 14  1  0
 14 15  1  0
 16 15  1  6
 16 17  1  0
 17  7  1  0
 18 16  1  0
 19 18  2  0
 20 21  1  0
 21 23  1  0
 21 22  2  0
 23 24  1  0
 25 24  1  1
 25 27  1  0
 25 26  1  0
 26 18  1  0
 27 29  1  0
 28 27  2  0
M  END
$$$$
