MRQ.pdb
     RDKit          3D

 29 28  0  0  1  0  0  0  0  0999 V2000
    6.7929  -11.2443   25.9911 C   0  0  0  0  0  0  0  0  0  0  0  0
    6.3622  -12.2868   27.3794 S   0  0  0  0  0  0  0  0  0  0  0  0
    5.9959  -13.9899   26.9833 C   0  0  0  0  0  0  0  0  0  0  0  0
    6.9249  -14.6234   26.0146 C   0  0  0  0  0  0  0  0  0  0  0  0
    6.5543  -16.0036   25.5673 C   0  0  2  0  0  0  0  0  0  0  0  0
    6.6644  -16.8717   26.7320 N   0  0  0  0  0  0  0  0  0  0  0  0
    7.4993  -16.5233   24.5374 C   0  0  0  0  0  0  0  0  0  0  0  0
    8.5299  -17.1685   24.8485 O   0  0  0  0  0  0  0  0  0  0  0  0
    7.7080  -14.2738   16.4348 N   0  0  0  0  0  0  0  0  0  0  0  0
    8.3989  -13.4471   17.3706 C   0  0  0  0  0  0  0  0  0  0  0  0
    8.1976  -12.1850   17.4018 N   0  0  0  0  0  0  0  0  0  0  0  0
    9.3075  -14.0622   18.2576 N   0  0  0  0  0  0  0  0  0  0  0  0
    8.9654  -15.3795   18.8034 C   0  0  0  0  0  0  0  0  0  0  0  0
    8.1992  -15.2393   20.0746 C   0  0  0  0  0  0  0  0  0  0  0  0
    7.7707  -16.4812   20.7515 C   0  0  0  0  0  0  0  0  0  0  0  0
    8.2324  -16.7218   22.1454 C   0  0  2  0  0  0  0  0  0  0  0  0
    7.2849  -16.3159   23.1223 N   0  0  0  0  0  0  0  0  0  0  0  0
    9.5473  -16.0201   22.3983 C   0  0  0  0  0  0  0  0  0  0  0  0
    9.5354  -14.9163   22.9996 O   0  0  0  0  0  0  0  0  0  0  0  0
    8.6018  -11.6283   18.1652 N   0  0  0  0  0  0  0  0  0  0  0  0
   11.8510  -19.1384   26.2720 C   0  0  0  0  0  0  0  0  0  0  0  0
   13.0089  -18.3687   25.9995 O   0  0  0  0  0  0  0  0  0  0  0  0
   14.0057  -18.5226   26.7315 C   0  0  0  0  0  0  0  0  0  0  0  0
   13.0250  -17.4245   24.8923 C   0  0  0  0  0  0  0  0  0  0  0  0
   11.7831  -17.3216   24.0713 C   0  0  1  0  0  0  0  0  0  0  0  0
   11.9628  -16.4983   22.8562 N   0  0  0  0  0  0  0  0  0  0  0  0
   10.7815  -16.5354   21.9969 C   0  0  0  0  0  0  0  0  0  0  0  0
   13.0948  -16.9222   22.0466 O   0  0  0  0  0  0  0  0  0  0  0  0
   12.9373  -17.5854   20.9976 O   0  0  0  0  0  0  0  0  0  0  0  0
  2  3  1  0
  2  1  1  0
  4  5  1  0
  4  3  1  0
  5  6  1  1
  7  8  2  0
  7  5  1  0
  9 10  1  0
 10 12  1  0
 11 10  2  0
 12 13  1  0
 13 14  1  0
 14 15  1  0
 16 15  1  6
 16 17  1  0
 17  7  1  0
 18 16  1  0
 19 18  2  0
 20 21  1  0
 21 23  1  0
 21 22  2  0
 23 24  1  0
 25 24  1  1
 25 27  1  0
 25 26  1  0
 26 18  1  0
 27 29  1  0
 28 27  2  0
M  END
$$$$
