MRQ.pdb
     RDKit          3D

 29 28  0  0  1  0  0  0  0  0999 V2000
    7.6134  -11.0263   26.9229 C   0  0  0  0  0  0  0  0  0  0  0  0
    5.8958  -11.5081   27.0553 S   0  0  0  0  0  0  0  0  0  0  0  0
    5.4838  -13.1014   26.3602 C   0  0  0  0  0  0  0  0  0  0  0  0
    6.6304  -13.8564   25.7965 C   0  0  0  0  0  0  0  0  0  0  0  0
    6.3093  -15.2143   25.2530 C   0  0  2  0  0  0  0  0  0  0  0  0
    5.8121  -16.0111   26.3667 N   0  0  0  0  0  0  0  0  0  0  0  0
    7.5240  -15.9003   24.7259 C   0  0  0  0  0  0  0  0  0  0  0  0
    8.2835  -16.5680   25.4692 O   0  0  0  0  0  0  0  0  0  0  0  0
    9.8965  -13.5039   18.2069 N   0  0  0  0  0  0  0  0  0  0  0  0
    8.4758  -13.3926   18.2831 C   0  0  0  0  0  0  0  0  0  0  0  0
    7.9048  -12.2505   18.2206 N   0  0  0  0  0  0  0  0  0  0  0  0
    7.7227  -14.5767   18.4286 N   0  0  0  0  0  0  0  0  0  0  0  0
    8.3579  -15.7327   19.0694 C   0  0  0  0  0  0  0  0  0  0  0  0
    8.4182  -15.5472   20.5475 C   0  0  0  0  0  0  0  0  0  0  0  0
    9.0466  -16.6224   21.3432 C   0  0  0  0  0  0  0  0  0  0  0  0
    9.0520  -16.4936   22.8255 C   0  0  2  0  0  0  0  0  0  0  0  0
    7.8980  -15.8376   23.3304 N   0  0  0  0  0  0  0  0  0  0  0  0
   10.2903  -15.7619   23.2909 C   0  0  0  0  0  0  0  0  0  0  0  0
   10.1849  -14.5576   23.6354 O   0  0  0  0  0  0  0  0  0  0  0  0
    6.8813  -12.1935   18.2924 N   0  0  0  0  0  0  0  0  0  0  0  0
   11.8679  -18.0996   28.3367 C   0  0  0  0  0  0  0  0  0  0  0  0
   11.4178  -16.7681   28.1573 O   0  0  0  0  0  0  0  0  0  0  0  0
   11.1591  -16.0909   29.1709 C   0  0  0  0  0  0  0  0  0  0  0  0
   11.2633  -16.2140   26.8205 C   0  0  0  0  0  0  0  0  0  0  0  0
   11.6049  -17.1055   25.6737 C   0  0  2  0  0  0  0  0  0  0  0  0
   12.3310  -16.4025   24.5943 N   0  0  0  0  0  0  0  0  0  0  0  0
   11.5523  -16.3557   23.3586 C   0  0  0  0  0  0  0  0  0  0  0  0
   13.6075  -17.0218   24.2730 O   0  0  0  0  0  0  0  0  0  0  0  0
   14.5481  -17.0480   25.0975 O   0  0  0  0  0  0  0  0  0  0  0  0
  2  3  1  0
  2  1  1  0
  4  5  1  0
  4  3  1  0
  5  6  1  1
  7  8  2  0
  7  5  1  0
  9 10  1  0
 10 12  1  0
 11 10  2  0
 12 13  1  0
 13 14  1  0
 14 15  1  0
 16 15  1  6
 16 17  1  0
 17  7  1  0
 18 16  1  0
 19 18  2  0
 20 21  1  0
 21 23  1  0
 21 22  2  0
 23 24  1  0
 25 24  1  1
 25 27  1  0
 25 26  1  0
 26 18  1  0
 27 29  1  0
 28 27  2  0
M  END
$$$$
