MRQ.pdb
     RDKit          3D

 29 28  0  0  1  0  0  0  0  0999 V2000
    8.5092  -11.3227   21.1166 C   0  0  0  0  0  0  0  0  0  0  0  0
    7.7009  -11.6367   19.5521 S   0  0  0  0  0  0  0  0  0  0  0  0
    7.5999  -13.3523   19.0643 C   0  0  0  0  0  0  0  0  0  0  0  0
    7.9936  -14.3275   20.1116 C   0  0  0  0  0  0  0  0  0  0  0  0
    8.1004  -15.7526   19.6645 C   0  0  2  0  0  0  0  0  0  0  0  0
    6.7617  -16.1785   19.2790 N   0  0  0  0  0  0  0  0  0  0  0  0
    8.5479  -16.6470   20.7707 C   0  0  0  0  0  0  0  0  0  0  0  0
    7.7436  -17.1090   21.6162 O   0  0  0  0  0  0  0  0  0  0  0  0
    8.9910  -21.9042   21.4275 N   0  0  0  0  0  0  0  0  0  0  0  0
   10.2790  -22.5144   21.3545 C   0  0  0  0  0  0  0  0  0  0  0  0
   10.3996  -23.7567   21.0783 N   0  0  0  0  0  0  0  0  0  0  0  0
   11.4116  -21.7081   21.5949 N   0  0  0  0  0  0  0  0  0  0  0  0
   11.5444  -21.0658   22.9065 C   0  0  0  0  0  0  0  0  0  0  0  0
   11.9766  -19.6470   22.7559 C   0  0  0  0  0  0  0  0  0  0  0  0
   11.3519  -18.8564   21.6748 C   0  0  0  0  0  0  0  0  0  0  0  0
   10.3781  -17.7949   22.0477 C   0  0  2  0  0  0  0  0  0  0  0  0
    9.9314  -17.0348   20.9343 N   0  0  0  0  0  0  0  0  0  0  0  0
   10.9730  -16.8679   23.0832 C   0  0  0  0  0  0  0  0  0  0  0  0
   11.9608  -16.1602   22.7618 O   0  0  0  0  0  0  0  0  0  0  0  0
   11.3383  -24.1676   21.0006 N   0  0  0  0  0  0  0  0  0  0  0  0
    9.2482  -13.3081   28.9552 C   0  0  0  0  0  0  0  0  0  0  0  0
    9.9392  -14.5307   28.7682 O   0  0  0  0  0  0  0  0  0  0  0  0
    9.8461  -15.4028   29.6534 C   0  0  0  0  0  0  0  0  0  0  0  0
   10.7359  -14.7537   27.5709 C   0  0  0  0  0  0  0  0  0  0  0  0
   10.1469  -15.6329   26.5189 C   0  0  1  0  0  0  0  0  0  0  0  0
   11.0415  -15.8184   25.3563 N   0  0  0  0  0  0  0  0  0  0  0  0
   10.4810  -16.7556   24.3852 C   0  0  0  0  0  0  0  0  0  0  0  0
   12.3557  -16.3205   25.7268 O   0  0  0  0  0  0  0  0  0  0  0  0
   12.5592  -17.5392   25.9233 O   0  0  0  0  0  0  0  0  0  0  0  0
  2  3  1  0
  2  1  1  0
  4  5  1  0
  4  3  1  0
  5  6  1  1
  7  8  2  0
  7  5  1  0
  9 10  1  0
 10 12  1  0
 11 10  2  0
 12 13  1  0
 13 14  1  0
 14 15  1  0
 16 15  1  6
 16 17  1  0
 17  7  1  0
 18 16  1  0
 19 18  2  0
 20 21  1  0
 21 23  1  0
 21 22  2  0
 23 24  1  0
 25 24  1  6
 25 27  1  0
 25 26  1  0
 26 18  1  0
 27 29  1  0
 28 27  2  0
M  END
$$$$
