MRQ.pdb
     RDKit          3D

 29 28  0  0  1  0  0  0  0  0999 V2000
   10.5601  -14.3742   12.3673 C   0  0  0  0  0  0  0  0  0  0  0  0
    8.7731  -14.3064   12.3234 S   0  0  0  0  0  0  0  0  0  0  0  0
    7.9628  -14.2315   13.9138 C   0  0  0  0  0  0  0  0  0  0  0  0
    8.8383  -14.5122   15.0788 C   0  0  0  0  0  0  0  0  0  0  0  0
    8.1630  -14.5033   16.4154 C   0  0  2  0  0  0  0  0  0  0  0  0
    8.0999  -13.1144   16.8503 N   0  0  0  0  0  0  0  0  0  0  0  0
    8.9500  -15.2516   17.4374 C   0  0  0  0  0  0  0  0  0  0  0  0
    9.7837  -14.6799   18.1814 O   0  0  0  0  0  0  0  0  0  0  0  0
    8.0122  -22.1189   22.4441 N   0  0  0  0  0  0  0  0  0  0  0  0
    9.4229  -22.2328   22.2606 C   0  0  0  0  0  0  0  0  0  0  0  0
   10.1491  -22.8301   23.1266 N   0  0  0  0  0  0  0  0  0  0  0  0
    9.9902  -21.6687   21.0984 N   0  0  0  0  0  0  0  0  0  0  0  0
    9.1179  -20.9148   20.1922 C   0  0  0  0  0  0  0  0  0  0  0  0
    9.7660  -19.6369   19.7805 C   0  0  0  0  0  0  0  0  0  0  0  0
    8.9867  -18.7262   18.9161 C   0  0  0  0  0  0  0  0  0  0  0  0
    9.5656  -17.3953   18.5880 C   0  0  2  0  0  0  0  0  0  0  0  0
    8.7997  -16.6767   17.6320 N   0  0  0  0  0  0  0  0  0  0  0  0
   10.9847  -17.5417   18.0880 C   0  0  0  0  0  0  0  0  0  0  0  0
   11.2130  -17.3702   16.8638 O   0  0  0  0  0  0  0  0  0  0  0  0
   11.1608  -22.9126   22.9663 N   0  0  0  0  0  0  0  0  0  0  0  0
   15.1506  -13.8416   16.1645 C   0  0  0  0  0  0  0  0  0  0  0  0
   15.1219  -14.2311   17.5264 O   0  0  0  0  0  0  0  0  0  0  0  0
   15.2718  -13.3506   18.3955 C   0  0  0  0  0  0  0  0  0  0  0  0
   14.9231  -15.6256   17.8923 C   0  0  0  0  0  0  0  0  0  0  0  0
   13.5278  -16.0513   18.2069 C   0  0  1  0  0  0  0  0  0  0  0  0
   13.4351  -17.4732   18.6020 N   0  0  0  0  0  0  0  0  0  0  0  0
   12.0616  -17.8594   18.9181 C   0  0  0  0  0  0  0  0  0  0  0  0
   14.2483  -17.7925   19.7653 O   0  0  0  0  0  0  0  0  0  0  0  0
   13.7446  -17.9055   20.9049 O   0  0  0  0  0  0  0  0  0  0  0  0
  2  3  1  0
  2  1  1  0
  4  5  1  0
  4  3  1  0
  5  6  1  1
  7  8  2  0
  7  5  1  0
  9 10  1  0
 10 12  1  0
 11 10  2  0
 12 13  1  0
 13 14  1  0
 14 15  1  0
 16 15  1  6
 16 17  1  0
 17  7  1  0
 18 16  1  0
 19 18  2  0
 20 21  1  0
 21 23  1  0
 21 22  2  0
 23 24  1  0
 25 24  1  6
 25 27  1  0
 25 26  1  0
 26 18  1  0
 27 29  1  0
 28 27  2  0
M  END
$$$$
