MRQ.pdb
     RDKit          3D

 29 28  0  0  1  0  0  0  0  0999 V2000
    4.7020  -12.0510   26.5345 C   0  0  0  0  0  0  0  0  0  0  0  0
    6.2548  -11.4640   25.8682 S   0  0  0  0  0  0  0  0  0  0  0  0
    7.7188  -12.2838   26.4818 C   0  0  0  0  0  0  0  0  0  0  0  0
    7.5897  -13.7518   26.6578 C   0  0  0  0  0  0  0  0  0  0  0  0
    8.8339  -14.5472   26.4097 C   0  0  2  0  0  0  0  0  0  0  0  0
    9.8327  -13.6228   25.8899 N   0  0  0  0  0  0  0  0  0  0  0  0
    8.6210  -15.5975   25.3726 C   0  0  0  0  0  0  0  0  0  0  0  0
    7.8750  -16.5865   25.5740 O   0  0  0  0  0  0  0  0  0  0  0  0
    7.8725  -12.1758   19.7795 N   0  0  0  0  0  0  0  0  0  0  0  0
    8.0484  -13.1873   18.7883 C   0  0  0  0  0  0  0  0  0  0  0  0
    7.5627  -13.0445   17.6145 N   0  0  0  0  0  0  0  0  0  0  0  0
    8.7726  -14.3456   19.1412 N   0  0  0  0  0  0  0  0  0  0  0  0
    8.0460  -15.4624   19.7539 C   0  0  0  0  0  0  0  0  0  0  0  0
    8.2400  -15.4682   21.2320 C   0  0  0  0  0  0  0  0  0  0  0  0
    9.3489  -16.2840   21.7696 C   0  0  0  0  0  0  0  0  0  0  0  0
    9.3154  -16.6616   23.2084 C   0  0  2  0  0  0  0  0  0  0  0  0
    9.2593  -15.5389   24.0763 N   0  0  0  0  0  0  0  0  0  0  0  0
   10.5143  -17.5116   23.5629 C   0  0  0  0  0  0  0  0  0  0  0  0
   11.6543  -16.9824   23.5463 O   0  0  0  0  0  0  0  0  0  0  0  0
    7.6884  -13.7931   16.9218 N   0  0  0  0  0  0  0  0  0  0  0  0
   11.9413  -17.1745   28.7474 C   0  0  0  0  0  0  0  0  0  0  0  0
   11.8388  -18.5834   28.6377 O   0  0  0  0  0  0  0  0  0  0  0  0
   11.6568  -19.2447   29.6781 C   0  0  0  0  0  0  0  0  0  0  0  0
   11.9458  -19.2333   27.3401 C   0  0  0  0  0  0  0  0  0  0  0  0
   11.1594  -18.6410   26.2186 C   0  0  1  0  0  0  0  0  0  0  0  0
   11.2197  -19.4506   24.9827 N   0  0  0  0  0  0  0  0  0  0  0  0
   10.4223  -18.8612   23.9093 C   0  0  0  0  0  0  0  0  0  0  0  0
   10.7426  -20.8117   25.1728 O   0  0  0  0  0  0  0  0  0  0  0  0
    9.6101  -21.1692   24.7793 O   0  0  0  0  0  0  0  0  0  0  0  0
  2  3  1  0
  2  1  1  0
  4  5  1  0
  4  3  1  0
  5  6  1  6
  7  8  2  0
  7  5  1  0
  9 10  1  0
 10 12  1  0
 11 10  2  0
 12 13  1  0
 13 14  1  0
 14 15  1  0
 16 15  1  6
 16 17  1  0
 17  7  1  0
 18 16  1  0
 19 18  2  0
 20 21  1  0
 21 23  1  0
 21 22  2  0
 23 24  1  0
 25 24  1  6
 25 27  1  0
 25 26  1  0
 26 18  1  0
 27 29  1  0
 28 27  2  0
M  END
$$$$
