WYW.pdb
     RDKit          3D

 41 45  0  0  1  0  0  0  0  0999 V2000
    6.8523  -17.3770   23.4732 N   0  0  0  0  0  0  0  0  0  0  0  0
    7.6707  -16.1740   23.4502 C   0  0  1  0  0  0  0  0  0  0  0  0
    7.9608  -15.8003   24.8833 C   0  0  0  0  0  0  0  0  0  0  0  0
    6.9343  -14.9242   25.4798 C   0  0  0  0  0  0  0  0  0  0  0  0
    5.8294  -15.3479   26.1854 C   0  0  0  0  0  0  0  0  0  0  0  0
    5.1148  -14.2601   26.5783 N   0  0  0  0  0  0  0  0  0  0  0  0
    5.7175  -13.1404   26.1511 C   0  0  0  0  0  0  0  0  0  0  0  0
    5.4029  -11.8076   26.2885 C   0  0  0  0  0  0  0  0  0  0  0  0
    6.2337  -10.8591   25.7330 C   0  0  0  0  0  0  0  0  0  0  0  0
    7.3642  -11.2751   25.0508 C   0  0  0  0  0  0  0  0  0  0  0  0
    7.6884  -12.6155   24.9075 C   0  0  0  0  0  0  0  0  0  0  0  0
    6.8567  -13.5476   25.4634 C   0  0  0  0  0  0  0  0  0  0  0  0
    8.9012  -16.4878   22.6937 C   0  0  0  0  0  0  0  0  0  0  0  0
    9.2839  -17.6889   22.5970 O   0  0  0  0  0  0  0  0  0  0  0  0
   16.2619  -15.8222   17.7328 O   0  0  0  0  0  0  0  0  0  0  0  0
   15.0707  -15.6027   18.3949 C   0  0  0  0  0  0  0  0  0  0  0  0
   14.0050  -16.4714   18.2974 C   0  0  0  0  0  0  0  0  0  0  0  0
   12.8373  -16.2261   18.9649 C   0  0  0  0  0  0  0  0  0  0  0  0
   12.6355  -15.1227   19.7680 C   0  0  0  0  0  0  0  0  0  0  0  0
   11.3620  -14.8465   20.4305 C   0  0  0  0  0  0  0  0  0  0  0  0
   11.0582  -15.8074   21.5190 C   0  0  2  0  0  0  0  0  0  0  0  0
    9.7017  -15.5260   22.0535 N   0  0  0  0  0  0  0  0  0  0  0  0
   11.9565  -15.8154   22.6847 C   0  0  0  0  0  0  0  0  0  0  0  0
   12.3457  -14.6773   23.1594 O   0  0  0  0  0  0  0  0  0  0  0  0
   13.7217  -14.2528   19.8578 C   0  0  0  0  0  0  0  0  0  0  0  0
   14.8959  -14.4890   19.1916 C   0  0  0  0  0  0  0  0  0  0  0  0
   12.4691  -16.9309   23.3882 N   0  0  0  0  0  0  0  0  0  0  0  0
   13.4544  -16.8319   24.4260 C   0  0  1  0  0  0  0  0  0  0  0  0
   13.1088  -17.6103   25.6664 C   0  0  0  0  0  0  0  0  0  0  0  0
   11.6676  -17.4033   25.9526 C   0  0  0  0  0  0  0  0  0  0  0  0
   10.6103  -18.2434   25.6195 C   0  0  0  0  0  0  0  0  0  0  0  0
    9.4470  -17.7149   26.0356 N   0  0  0  0  0  0  0  0  0  0  0  0
    9.6902  -16.5412   26.6401 C   0  0  0  0  0  0  0  0  0  0  0  0
    8.8528  -15.6181   27.2333 C   0  0  0  0  0  0  0  0  0  0  0  0
    9.3506  -14.4573   27.8014 C   0  0  0  0  0  0  0  0  0  0  0  0
   10.7082  -14.2612   27.7527 C   0  0  0  0  0  0  0  0  0  0  0  0
   11.5392  -15.1822   27.1629 C   0  0  0  0  0  0  0  0  0  0  0  0
   11.0555  -16.3400   26.5940 C   0  0  0  0  0  0  0  0  0  0  0  0
   14.8006  -17.0819   23.9184 C   0  0  0  0  0  0  0  0  0  0  0  0
   15.0553  -17.4749   22.7544 O   0  0  0  0  0  0  0  0  0  0  0  0
   15.9386  -16.8892   24.7295 O   0  0  0  0  0  0  0  0  0  0  0  0
  2  3  1  0
  2  1  1  1
  4  5  2  0
  4  3  1  0
  6  5  1  0
  7 12  2  0
  7  6  1  0
  8  7  1  0
  9 10  1  0
  9  8  2  0
 10 11  2  0
 11 12  1  0
 12  4  1  0
 13  2  1  0
 14 13  2  0
 16 15  1  0
 16 17  2  0
 18 17  1  0
 19 18  2  0
 20 19  1  0
 21 20  1  6
 21 22  1  0
 22 13  1  0
 23 21  1  0
 23 27  1  0
 24 23  2  0
 25 26  2  0
 25 19  1  0
 26 16  1  0
 28 27  1  0
 28 39  1  0
 28 29  1  1
 30 31  2  0
 30 29  1  0
 32 31  1  0
 33 38  2  0
 33 32  1  0
 34 33  1  0
 35 36  1  0
 35 34  2  0
 36 37  2  0
 37 38  1  0
 38 30  1  0
 39 41  1  0
 40 39  2  0
M  END
$$$$
