WYW.pdb
     RDKit          3D

 41 45  0  0  1  0  0  0  0  0999 V2000
    8.5451  -17.0725   24.2654 N   0  0  0  0  0  0  0  0  0  0  0  0
    9.5154  -16.1172   24.7788 C   0  0  1  0  0  0  0  0  0  0  0  0
    9.1058  -15.7751   26.1904 C   0  0  0  0  0  0  0  0  0  0  0  0
    7.7955  -15.1017   26.2734 C   0  0  0  0  0  0  0  0  0  0  0  0
    6.5750  -15.7317   26.3805 C   0  0  0  0  0  0  0  0  0  0  0  0
    5.5965  -14.7892   26.4320 N   0  0  0  0  0  0  0  0  0  0  0  0
    6.1394  -13.5646   26.3612 C   0  0  0  0  0  0  0  0  0  0  0  0
    5.5882  -12.3036   26.3765 C   0  0  0  0  0  0  0  0  0  0  0  0
    6.4165  -11.2057   26.2918 C   0  0  0  0  0  0  0  0  0  0  0  0
    7.7832  -11.4033   26.1934 C   0  0  0  0  0  0  0  0  0  0  0  0
    8.3467  -12.6700   26.1771 C   0  0  0  0  0  0  0  0  0  0  0  0
    7.5147  -13.7517   26.2622 C   0  0  0  0  0  0  0  0  0  0  0  0
   10.8451  -16.7603   24.7223 C   0  0  0  0  0  0  0  0  0  0  0  0
   11.4565  -17.0227   25.7974 O   0  0  0  0  0  0  0  0  0  0  0  0
    9.6340  -24.4085   21.4724 O   0  0  0  0  0  0  0  0  0  0  0  0
    9.7155  -23.0984   21.8995 C   0  0  0  0  0  0  0  0  0  0  0  0
    8.8273  -22.1319   21.4790 C   0  0  0  0  0  0  0  0  0  0  0  0
    8.9345  -20.8420   21.9193 C   0  0  0  0  0  0  0  0  0  0  0  0
    9.9105  -20.4142   22.7955 C   0  0  0  0  0  0  0  0  0  0  0  0
   10.0448  -19.0197   23.2132 C   0  0  0  0  0  0  0  0  0  0  0  0
   11.3716  -18.4444   22.8832 C   0  0  2  0  0  0  0  0  0  0  0  0
   11.5013  -17.1143   23.5307 N   0  0  0  0  0  0  0  0  0  0  0  0
   11.6817  -18.2312   21.4604 C   0  0  0  0  0  0  0  0  0  0  0  0
   12.6198  -18.9457   20.9296 O   0  0  0  0  0  0  0  0  0  0  0  0
   10.8018  -21.4021   23.2128 C   0  0  0  0  0  0  0  0  0  0  0  0
   10.7036  -22.6975   22.7762 C   0  0  0  0  0  0  0  0  0  0  0  0
   11.0744  -17.3273   20.5571 N   0  0  0  0  0  0  0  0  0  0  0  0
   11.7571  -16.7404   19.4402 C   0  0  1  0  0  0  0  0  0  0  0  0
   10.8544  -15.9725   18.5132 C   0  0  0  0  0  0  0  0  0  0  0  0
    9.5728  -15.7258   19.2192 C   0  0  0  0  0  0  0  0  0  0  0  0
    8.5966  -16.6596   19.5503 C   0  0  0  0  0  0  0  0  0  0  0  0
    7.5710  -16.0585   20.1769 N   0  0  0  0  0  0  0  0  0  0  0  0
    7.8282  -14.7448   20.2776 C   0  0  0  0  0  0  0  0  0  0  0  0
    7.1086  -13.7034   20.8278 C   0  0  0  0  0  0  0  0  0  0  0  0
    7.5934  -12.4063   20.8092 C   0  0  0  0  0  0  0  0  0  0  0  0
    8.8171  -12.1969   20.2238 C   0  0  0  0  0  0  0  0  0  0  0  0
    9.5317  -13.2353   19.6782 C   0  0  0  0  0  0  0  0  0  0  0  0
    9.0592  -14.5296   19.6902 C   0  0  0  0  0  0  0  0  0  0  0  0
   12.9479  -16.0066   19.8598 C   0  0  0  0  0  0  0  0  0  0  0  0
   13.2867  -15.8338   21.0555 O   0  0  0  0  0  0  0  0  0  0  0  0
   13.8236  -15.4279   18.9174 O   0  0  0  0  0  0  0  0  0  0  0  0
  2  3  1  0
  2  1  1  1
  4  5  2  0
  4  3  1  0
  6  5  1  0
  7 12  2  0
  7  6  1  0
  8  7  1  0
  9 10  1  0
  9  8  2  0
 10 11  2  0
 11 12  1  0
 12  4  1  0
 13  2  1  0
 14 13  2  0
 16 15  1  0
 16 17  2  0
 18 17  1  0
 19 18  2  0
 20 19  1  0
 21 20  1  6
 21 22  1  0
 22 13  1  0
 23 21  1  0
 23 27  1  0
 24 23  2  0
 25 26  2  0
 25 19  1  0
 26 16  1  0
 28 27  1  0
 28 39  1  0
 28 29  1  1
 30 31  2  0
 30 29  1  0
 32 31  1  0
 33 38  2  0
 33 32  1  0
 34 33  1  0
 35 36  1  0
 35 34  2  0
 36 37  2  0
 37 38  1  0
 38 30  1  0
 39 41  1  0
 40 39  2  0
M  END
$$$$
