WYW.pdb
     RDKit          3D

 41 45  0  0  1  0  0  0  0  0999 V2000
-7026.7446 3844.0454-10285.9570 N   0  0  0  0  0  0  0  0  0  0  0  0
-7026.7388 3845.4226-10285.4922 C   0  0  1  0  0  0  0  0  0  0  0  0
-7027.9082 3846.1270-10286.1465 C   0  0  0  0  0  0  0  0  0  0  0  0
-7029.1416 3845.3203-10286.1621 C   0  0  0  0  0  0  0  0  0  0  0  0
-7030.4097 3845.8059-10286.3867 C   0  0  0  0  0  0  0  0  0  0  0  0
-7031.2896 3844.7761-10286.3311 N   0  0  0  0  0  0  0  0  0  0  0  0
-7030.6377 3843.6311-10286.0732 C   0  0  0  0  0  0  0  0  0  0  0  0
-7031.0620 3842.3337-10285.9229 C   0  0  0  0  0  0  0  0  0  0  0  0
-7030.1377 3841.3433-10285.6729 C   0  0  0  0  0  0  0  0  0  0  0  0
-7028.8042 3841.6880-10285.5684 C   0  0  0  0  0  0  0  0  0  0  0  0
-7028.3667 3842.9958-10285.7197 C   0  0  0  0  0  0  0  0  0  0  0  0
-7029.2876 3843.9714-10285.9756 C   0  0  0  0  0  0  0  0  0  0  0  0
-7026.8584 3845.3938-10284.0195 C   0  0  0  0  0  0  0  0  0  0  0  0
-7025.9116 3845.8433-10283.3086 O   0  0  0  0  0  0  0  0  0  0  0  0
-7031.3213 3849.4673-10283.4912 O   0  0  0  0  0  0  0  0  0  0  0  0
-7031.0361 3848.1206-10283.6104 C   0  0  0  0  0  0  0  0  0  0  0  0
-7031.9839 3847.2041-10284.0039 C   0  0  0  0  0  0  0  0  0  0  0  0
-7031.6714 3845.8745-10284.1104 C   0  0  0  0  0  0  0  0  0  0  0  0
-7030.4214 3845.3621-10283.8398 C   0  0  0  0  0  0  0  0  0  0  0  0
-7030.1162 3843.9348-10283.9092 C   0  0  0  0  0  0  0  0  0  0  0  0
-7028.6753 3843.6409-10283.6982 C   0  0  2  0  0  0  0  0  0  0  0  0
-7027.9736 3844.8950-10283.3271 N   0  0  0  0  0  0  0  0  0  0  0  0
-7027.9253 3843.0793-10284.8291 C   0  0  0  0  0  0  0  0  0  0  0  0
-7027.9561 3843.7129-10285.9541 O   0  0  0  0  0  0  0  0  0  0  0  0
-7029.4668 3846.3049-10283.4463 C   0  0  0  0  0  0  0  0  0  0  0  0
-7029.7710 3847.6345-10283.3340 C   0  0  0  0  0  0  0  0  0  0  0  0
-7027.1440 3841.9001-10284.8623 N   0  0  0  0  0  0  0  0  0  0  0  0
-7027.5264 3840.7097-10285.5664 C   0  0  1  0  0  0  0  0  0  0  0  0
-7027.6270 3840.8914-10287.0576 C   0  0  0  0  0  0  0  0  0  0  0  0
-7027.5029 3842.3381-10287.3506 C   0  0  0  0  0  0  0  0  0  0  0  0
-7028.1489 3843.0598-10288.3545 C   0  0  0  0  0  0  0  0  0  0  0  0
-7027.7783 3844.3506-10288.3174 N   0  0  0  0  0  0  0  0  0  0  0  0
-7026.8955 3844.5198-10287.3174 C   0  0  0  0  0  0  0  0  0  0  0  0
-7026.2246 3845.6392-10286.8682 C   0  0  0  0  0  0  0  0  0  0  0  0
-7025.3462 3845.5676-10285.7998 C   0  0  0  0  0  0  0  0  0  0  0  0
-7025.1699 3844.3440-10285.2080 C   0  0  0  0  0  0  0  0  0  0  0  0
-7025.8457 3843.2300-10285.6533 C   0  0  0  0  0  0  0  0  0  0  0  0
-7026.7227 3843.2917-10286.7246 C   0  0  0  0  0  0  0  0  0  0  0  0
-7026.7275 3839.5581-10285.1543 C   0  0  0  0  0  0  0  0  0  0  0  0
-7026.9683 3838.8516-10284.1426 O   0  0  0  0  0  0  0  0  0  0  0  0
-7025.5918 3839.1545-10285.8877 O   0  0  0  0  0  0  0  0  0  0  0  0
  2  3  1  0
  2  1  1  6
  4  5  2  0
  4  3  1  0
  6  5  1  0
  7 12  2  0
  7  6  1  0
  8  7  1  0
  9 10  1  0
  9  8  2  0
 10 11  2  0
 11 12  1  0
 12  4  1  0
 13  2  1  0
 14 13  2  0
 16 15  1  0
 16 17  2  0
 18 17  1  0
 19 18  2  0
 20 19  1  0
 21 20  1  6
 21 22  1  0
 22 13  1  0
 23 21  1  0
 23 27  1  0
 24 23  2  0
 25 26  2  0
 25 19  1  0
 26 16  1  0
 28 27  1  0
 28 39  1  0
 28 29  1  6
 30 31  2  0
 30 29  1  0
 32 31  1  0
 33 38  2  0
 33 32  1  0
 34 33  1  0
 35 36  1  0
 35 34  2  0
 36 37  2  0
 37 38  1  0
 38 30  1  0
 39 41  1  0
 40 39  2  0
M  END
$$$$
