WYW.pdb
     RDKit          3D

 41 45  0  0  1  0  0  0  0  0999 V2000
   10.8260  -17.4338   18.0641 N   0  0  0  0  0  0  0  0  0  0  0  0
   10.4260  -16.4729   19.0811 C   0  0  1  0  0  0  0  0  0  0  0  0
    8.9768  -16.7399   19.4066 C   0  0  0  0  0  0  0  0  0  0  0  0
    8.0644  -15.6838   18.9276 C   0  0  0  0  0  0  0  0  0  0  0  0
    7.2989  -15.7431   17.7837 C   0  0  0  0  0  0  0  0  0  0  0  0
    6.5881  -14.5897   17.6699 N   0  0  0  0  0  0  0  0  0  0  0  0
    6.8660  -13.7796   18.7025 C   0  0  0  0  0  0  0  0  0  0  0  0
    6.4138  -12.5257   19.0451 C   0  0  0  0  0  0  0  0  0  0  0  0
    6.8854  -11.9311   20.1951 C   0  0  0  0  0  0  0  0  0  0  0  0
    7.8031  -12.6139   20.9749 C   0  0  0  0  0  0  0  0  0  0  0  0
    8.2639  -13.8771   20.6370 C   0  0  0  0  0  0  0  0  0  0  0  0
    7.7884  -14.4572   19.4938 C   0  0  0  0  0  0  0  0  0  0  0  0
   11.3078  -16.6706   20.2508 C   0  0  0  0  0  0  0  0  0  0  0  0
   11.6142  -17.8438   20.6090 O   0  0  0  0  0  0  0  0  0  0  0  0
   17.0982  -15.5518   17.5913 O   0  0  0  0  0  0  0  0  0  0  0  0
   16.2920  -15.4028   18.7019 C   0  0  0  0  0  0  0  0  0  0  0  0
   15.3329  -14.4165   18.7866 C   0  0  0  0  0  0  0  0  0  0  0  0
   14.5499  -14.2939   19.9007 C   0  0  0  0  0  0  0  0  0  0  0  0
   14.6512  -15.1229   20.9987 C   0  0  0  0  0  0  0  0  0  0  0  0
   13.8444  -14.9437   22.2046 C   0  0  0  0  0  0  0  0  0  0  0  0
   12.6601  -15.8361   22.2435 C   0  0  2  0  0  0  0  0  0  0  0  0
   11.8492  -15.6243   21.0177 N   0  0  0  0  0  0  0  0  0  0  0  0
   11.7304  -15.6776   23.3734 C   0  0  0  0  0  0  0  0  0  0  0  0
   11.2819  -14.4921   23.6291 O   0  0  0  0  0  0  0  0  0  0  0  0
   15.6250  -16.1161   20.8994 C   0  0  0  0  0  0  0  0  0  0  0  0
   16.4158  -16.2465   19.7876 C   0  0  0  0  0  0  0  0  0  0  0  0
   11.2358  -16.6742   24.2475 N   0  0  0  0  0  0  0  0  0  0  0  0
   10.0008  -16.5581   24.9679 C   0  0  1  0  0  0  0  0  0  0  0  0
    8.8941  -15.9178   24.1747 C   0  0  0  0  0  0  0  0  0  0  0  0
    7.9023  -15.3668   25.1310 C   0  0  0  0  0  0  0  0  0  0  0  0
    6.6623  -15.9012   25.4648 C   0  0  0  0  0  0  0  0  0  0  0  0
    6.0419  -15.1140   26.3598 N   0  0  0  0  0  0  0  0  0  0  0  0
    6.8289  -14.0630   26.6390 C   0  0  0  0  0  0  0  0  0  0  0  0
    6.6608  -12.9826   27.4815 C   0  0  0  0  0  0  0  0  0  0  0  0
    7.6359  -12.0066   27.6015 C   0  0  0  0  0  0  0  0  0  0  0  0
    8.7757  -12.1557   26.8515 C   0  0  0  0  0  0  0  0  0  0  0  0
    8.9408  -13.2325   26.0148 C   0  0  0  0  0  0  0  0  0  0  0  0
    7.9776  -14.2093   25.8867 C   0  0  0  0  0  0  0  0  0  0  0  0
    9.6278  -17.8169   25.6072 C   0  0  0  0  0  0  0  0  0  0  0  0
    8.6082  -17.9716   26.3218 O   0  0  0  0  0  0  0  0  0  0  0  0
   10.4139  -18.9783   25.4558 O   0  0  0  0  0  0  0  0  0  0  0  0
  2  3  1  0
  2  1  1  6
  4  5  2  0
  4  3  1  0
  6  5  1  0
  7 12  2  0
  7  6  1  0
  8  7  1  0
  9 10  1  0
  9  8  2  0
 10 11  2  0
 11 12  1  0
 12  4  1  0
 13  2  1  0
 14 13  2  0
 16 15  1  0
 16 17  2  0
 18 17  1  0
 19 18  2  0
 20 19  1  0
 21 20  1  1
 21 22  1  0
 22 13  1  0
 23 21  1  0
 23 27  1  0
 24 23  2  0
 25 26  2  0
 25 19  1  0
 26 16  1  0
 28 27  1  0
 28 39  1  0
 28 29  1  6
 30 31  2  0
 30 29  1  0
 32 31  1  0
 33 38  2  0
 33 32  1  0
 34 33  1  0
 35 36  1  0
 35 34  2  0
 36 37  2  0
 37 38  1  0
 38 30  1  0
 39 41  1  0
 40 39  2  0
M  END
$$$$
