WYW.pdb
     RDKit          3D

 41 45  0  0  1  0  0  0  0  0999 V2000
    5.4820  -18.1251   24.3327 N   0  0  0  0  0  0  0  0  0  0  0  0
    6.5868  -17.4416   23.6769 C   0  0  1  0  0  0  0  0  0  0  0  0
    7.4847  -16.8963   24.7605 C   0  0  0  0  0  0  0  0  0  0  0  0
    6.8282  -15.8858   25.6121 C   0  0  0  0  0  0  0  0  0  0  0  0
    6.1521  -16.1419   26.7848 C   0  0  0  0  0  0  0  0  0  0  0  0
    5.6844  -14.9687   27.2881 N   0  0  0  0  0  0  0  0  0  0  0  0
    6.0330  -13.9556   26.4809 C   0  0  0  0  0  0  0  0  0  0  0  0
    5.8099  -12.5990   26.5461 C   0  0  0  0  0  0  0  0  0  0  0  0
    6.3063  -11.7866   25.5501 C   0  0  0  0  0  0  0  0  0  0  0  0
    7.0171  -12.3597   24.5096 C   0  0  0  0  0  0  0  0  0  0  0  0
    7.2462  -13.7252   24.4360 C   0  0  0  0  0  0  0  0  0  0  0  0
    6.7492  -14.5212   25.4304 C   0  0  0  0  0  0  0  0  0  0  0  0
    7.2776  -18.4309   22.8231 C   0  0  0  0  0  0  0  0  0  0  0  0
    6.6647  -19.4747   22.4580 O   0  0  0  0  0  0  0  0  0  0  0  0
    8.2843  -12.4613   17.2745 O   0  0  0  0  0  0  0  0  0  0  0  0
    8.2523  -13.3364   18.3417 C   0  0  0  0  0  0  0  0  0  0  0  0
    8.6368  -14.6547   18.2226 C   0  0  0  0  0  0  0  0  0  0  0  0
    8.5932  -15.4975   19.2982 C   0  0  0  0  0  0  0  0  0  0  0  0
    8.1745  -15.1097   20.5542 C   0  0  0  0  0  0  0  0  0  0  0  0
    8.0812  -16.0372   21.6803 C   0  0  0  0  0  0  0  0  0  0  0  0
    9.1018  -17.1123   21.6276 C   0  0  2  0  0  0  0  0  0  0  0  0
    8.6018  -18.2964   22.3713 N   0  0  0  0  0  0  0  0  0  0  0  0
   10.4285  -16.8141   22.1908 C   0  0  0  0  0  0  0  0  0  0  0  0
   11.4680  -17.0761   21.4677 O   0  0  0  0  0  0  0  0  0  0  0  0
    7.7888  -13.7738   20.6603 C   0  0  0  0  0  0  0  0  0  0  0  0
    7.8276  -12.9213   19.5879 C   0  0  0  0  0  0  0  0  0  0  0  0
   10.7391  -16.2569   23.4537 N   0  0  0  0  0  0  0  0  0  0  0  0
   12.0692  -15.9103   23.8641 C   0  0  1  0  0  0  0  0  0  0  0  0
   12.1274  -14.7357   24.8027 C   0  0  0  0  0  0  0  0  0  0  0  0
   11.3977  -15.1009   26.0421 C   0  0  0  0  0  0  0  0  0  0  0  0
   11.7783  -16.0300   27.0046 C   0  0  0  0  0  0  0  0  0  0  0  0
   10.8556  -16.0949   27.9794 N   0  0  0  0  0  0  0  0  0  0  0  0
    9.8627  -15.2354   27.7009 C   0  0  0  0  0  0  0  0  0  0  0  0
    8.6974  -14.9233   28.3717 C   0  0  0  0  0  0  0  0  0  0  0  0
    7.8116  -13.9825   27.8736 C   0  0  0  0  0  0  0  0  0  0  0  0
    8.1379  -13.3720   26.6884 C   0  0  0  0  0  0  0  0  0  0  0  0
    9.2988  -13.6835   26.0237 C   0  0  0  0  0  0  0  0  0  0  0  0
   10.1872  -14.6181   26.5091 C   0  0  0  0  0  0  0  0  0  0  0  0
   12.8153  -17.0793   24.3216 C   0  0  0  0  0  0  0  0  0  0  0  0
   12.3169  -18.2208   24.4732 O   0  0  0  0  0  0  0  0  0  0  0  0
   14.1893  -16.9987   24.6304 O   0  0  0  0  0  0  0  0  0  0  0  0
  2  3  1  0
  2  1  1  1
  4  5  2  0
  4  3  1  0
  6  5  1  0
  7 12  2  0
  7  6  1  0
  8  7  1  0
  9 10  1  0
  9  8  2  0
 10 11  2  0
 11 12  1  0
 12  4  1  0
 13  2  1  0
 14 13  2  0
 16 15  1  0
 16 17  2  0
 18 17  1  0
 19 18  2  0
 20 19  1  0
 21 20  1  1
 21 22  1  0
 22 13  1  0
 23 21  1  0
 23 27  1  0
 24 23  2  0
 25 26  2  0
 25 19  1  0
 26 16  1  0
 28 27  1  0
 28 39  1  0
 28 29  1  1
 30 31  2  0
 30 29  1  0
 32 31  1  0
 33 38  2  0
 33 32  1  0
 34 33  1  0
 35 36  1  0
 35 34  2  0
 36 37  2  0
 37 38  1  0
 38 30  1  0
 39 41  1  0
 40 39  2  0
M  END
$$$$
