WYW.pdb
     RDKit          3D

 41 45  0  0  1  0  0  0  0  0999 V2000
    7.4411  -17.9610   22.0354 N   0  0  0  0  0  0  0  0  0  0  0  0
    8.4824  -17.1006   22.5767 C   0  0  1  0  0  0  0  0  0  0  0  0
    7.8442  -16.2331   23.6340 C   0  0  0  0  0  0  0  0  0  0  0  0
    6.8793  -15.2591   23.0888 C   0  0  0  0  0  0  0  0  0  0  0  0
    5.6827  -14.9031   23.6714 C   0  0  0  0  0  0  0  0  0  0  0  0
    5.0661  -13.9830   22.8829 N   0  0  0  0  0  0  0  0  0  0  0  0
    5.8217  -13.7280   21.8042 C   0  0  0  0  0  0  0  0  0  0  0  0
    5.6486  -12.8868   20.7286 C   0  0  0  0  0  0  0  0  0  0  0  0
    6.6209  -12.8318   19.7539 C   0  0  0  0  0  0  0  0  0  0  0  0
    7.7470  -13.6263   19.8848 C   0  0  0  0  0  0  0  0  0  0  0  0
    7.9292  -14.4764   20.9648 C   0  0  0  0  0  0  0  0  0  0  0  0
    6.9578  -14.5221   21.9260 C   0  0  0  0  0  0  0  0  0  0  0  0
    9.5372  -17.9747   23.1319 C   0  0  0  0  0  0  0  0  0  0  0  0
    9.5608  -18.2113   24.3736 O   0  0  0  0  0  0  0  0  0  0  0  0
   16.3881  -14.3876   19.3093 O   0  0  0  0  0  0  0  0  0  0  0  0
   15.2092  -14.9969   19.6895 C   0  0  0  0  0  0  0  0  0  0  0  0
   14.1550  -14.2880   20.2242 C   0  0  0  0  0  0  0  0  0  0  0  0
   12.9999  -14.9203   20.5921 C   0  0  0  0  0  0  0  0  0  0  0  0
   12.7995  -16.2789   20.4614 C   0  0  0  0  0  0  0  0  0  0  0  0
   11.5796  -16.9473   20.9110 C   0  0  0  0  0  0  0  0  0  0  0  0
   11.8236  -17.9161   22.0073 C   0  0  2  0  0  0  0  0  0  0  0  0
   10.5451  -18.5823   22.3632 N   0  0  0  0  0  0  0  0  0  0  0  0
   12.3668  -17.3876   23.2689 C   0  0  0  0  0  0  0  0  0  0  0  0
   13.5802  -16.9405   23.2676 O   0  0  0  0  0  0  0  0  0  0  0  0
   13.8737  -16.9834   19.9189 C   0  0  0  0  0  0  0  0  0  0  0  0
   15.0362  -16.3592   19.5483 C   0  0  0  0  0  0  0  0  0  0  0  0
   11.7258  -17.2910   24.5266 N   0  0  0  0  0  0  0  0  0  0  0  0
   12.3997  -16.9133   25.7353 C   0  0  1  0  0  0  0  0  0  0  0  0
   12.4175  -15.4290   25.9811 C   0  0  0  0  0  0  0  0  0  0  0  0
   11.2568  -15.0915   26.8417 C   0  0  0  0  0  0  0  0  0  0  0  0
   10.7554  -15.8258   27.9113 C   0  0  0  0  0  0  0  0  0  0  0  0
    9.6869  -15.2065   28.4410 N   0  0  0  0  0  0  0  0  0  0  0  0
    9.4533  -14.0747   27.7581 C   0  0  0  0  0  0  0  0  0  0  0  0
    8.4915  -13.0946   27.8982 C   0  0  0  0  0  0  0  0  0  0  0  0
    8.4550  -11.9979   27.0533 C   0  0  0  0  0  0  0  0  0  0  0  0
    9.4123  -11.9229   26.0726 C   0  0  0  0  0  0  0  0  0  0  0  0
   10.3691  -12.8990   25.9364 C   0  0  0  0  0  0  0  0  0  0  0  0
   10.4150  -13.9947   26.7704 C   0  0  0  0  0  0  0  0  0  0  0  0
   11.9457  -17.7034   26.8764 C   0  0  0  0  0  0  0  0  0  0  0  0
   12.4810  -17.6786   28.0109 O   0  0  0  0  0  0  0  0  0  0  0  0
   10.8388  -18.5719   26.7742 O   0  0  0  0  0  0  0  0  0  0  0  0
  2  3  1  0
  2  1  1  1
  4  5  2  0
  4  3  1  0
  6  5  1  0
  7 12  2  0
  7  6  1  0
  8  7  1  0
  9 10  1  0
  9  8  2  0
 10 11  2  0
 11 12  1  0
 12  4  1  0
 13  2  1  0
 14 13  2  0
 16 15  1  0
 16 17  2  0
 18 17  1  0
 19 18  2  0
 20 19  1  0
 21 20  1  6
 21 22  1  0
 22 13  1  0
 23 21  1  0
 23 27  1  0
 24 23  2  0
 25 26  2  0
 25 19  1  0
 26 16  1  0
 28 27  1  0
 28 39  1  0
 28 29  1  1
 30 31  2  0
 30 29  1  0
 32 31  1  0
 33 38  2  0
 33 32  1  0
 34 33  1  0
 35 36  1  0
 35 34  2  0
 36 37  2  0
 37 38  1  0
 38 30  1  0
 39 41  1  0
 40 39  2  0
M  END
$$$$
