WYW.pdb
     RDKit          3D

 41 45  0  0  1  0  0  0  0  0999 V2000
   11.6521  -18.4526   18.9456 N   0  0  0  0  0  0  0  0  0  0  0  0
   10.8157  -17.3148   19.2968 C   0  0  1  0  0  0  0  0  0  0  0  0
    9.4097  -17.6362   18.8523 C   0  0  0  0  0  0  0  0  0  0  0  0
    8.6134  -16.4402   18.5169 C   0  0  0  0  0  0  0  0  0  0  0  0
    8.2586  -16.0429   17.2463 C   0  0  0  0  0  0  0  0  0  0  0  0
    7.5286  -14.8991   17.3308 N   0  0  0  0  0  0  0  0  0  0  0  0
    7.3964  -14.5370   18.6157 C   0  0  0  0  0  0  0  0  0  0  0  0
    6.7572  -13.4782   19.2197 C   0  0  0  0  0  0  0  0  0  0  0  0
    6.7884  -13.3677   20.5928 C   0  0  0  0  0  0  0  0  0  0  0  0
    7.4635  -14.3274   21.3273 C   0  0  0  0  0  0  0  0  0  0  0  0
    8.1100  -15.3969   20.7269 C   0  0  0  0  0  0  0  0  0  0  0  0
    8.0719  -15.4963   19.3638 C   0  0  0  0  0  0  0  0  0  0  0  0
   10.9109  -17.1279   20.7600 C   0  0  0  0  0  0  0  0  0  0  0  0
   11.1071  -18.1305   21.5047 O   0  0  0  0  0  0  0  0  0  0  0  0
    9.1485  -13.7879   28.7889 O   0  0  0  0  0  0  0  0  0  0  0  0
    9.3745  -13.9723   27.4397 C   0  0  0  0  0  0  0  0  0  0  0  0
   10.5346  -14.5418   26.9602 C   0  0  0  0  0  0  0  0  0  0  0  0
   10.7296  -14.7106   25.6175 C   0  0  0  0  0  0  0  0  0  0  0  0
    9.8088  -14.3373   24.6605 C   0  0  0  0  0  0  0  0  0  0  0  0
   10.0563  -14.4740   23.2262 C   0  0  0  0  0  0  0  0  0  0  0  0
   10.7789  -15.7230   22.8824 C   0  0  2  0  0  0  0  0  0  0  0  0
   10.7983  -15.8848   21.4064 N   0  0  0  0  0  0  0  0  0  0  0  0
   10.2427  -16.9843   23.4185 C   0  0  0  0  0  0  0  0  0  0  0  0
   11.0721  -17.8147   23.9614 O   0  0  0  0  0  0  0  0  0  0  0  0
    8.6401  -13.7631   25.1595 C   0  0  0  0  0  0  0  0  0  0  0  0
    8.4356  -13.5883   26.5034 C   0  0  0  0  0  0  0  0  0  0  0  0
    8.9003  -17.4314   23.4294 N   0  0  0  0  0  0  0  0  0  0  0  0
    8.4103  -18.4542   24.3077 C   0  0  1  0  0  0  0  0  0  0  0  0
    8.6168  -18.1506   25.7669 C   0  0  0  0  0  0  0  0  0  0  0  0
    7.9694  -16.8484   26.0617 C   0  0  0  0  0  0  0  0  0  0  0  0
    6.7755  -16.3606   25.5407 C   0  0  0  0  0  0  0  0  0  0  0  0
    6.5171  -15.1380   26.0349 N   0  0  0  0  0  0  0  0  0  0  0  0
    7.5038  -14.7873   26.8748 C   0  0  0  0  0  0  0  0  0  0  0  0
    7.7116  -13.6511   27.6305 C   0  0  0  0  0  0  0  0  0  0  0  0
    8.8297  -13.5193   28.4371 C   0  0  0  0  0  0  0  0  0  0  0  0
    9.7218  -14.5622   28.4567 C   0  0  0  0  0  0  0  0  0  0  0  0
    9.5117  -15.6922   27.7046 C   0  0  0  0  0  0  0  0  0  0  0  0
    8.4037  -15.8343   26.8981 C   0  0  0  0  0  0  0  0  0  0  0  0
    7.0472  -18.8518   23.9664 C   0  0  0  0  0  0  0  0  0  0  0  0
    6.3303  -18.2640   23.1210 O   0  0  0  0  0  0  0  0  0  0  0  0
    6.4294  -19.9598   24.5834 O   0  0  0  0  0  0  0  0  0  0  0  0
  2  3  1  0
  2  1  1  1
  4  5  2  0
  4  3  1  0
  6  5  1  0
  7 12  2  0
  7  6  1  0
  8  7  1  0
  9 10  1  0
  9  8  2  0
 10 11  2  0
 11 12  1  0
 12  4  1  0
 13  2  1  0
 14 13  2  0
 16 15  1  0
 16 17  2  0
 18 17  1  0
 19 18  2  0
 20 19  1  0
 21 20  1  6
 21 22  1  0
 22 13  1  0
 23 21  1  0
 23 27  1  0
 24 23  2  0
 25 26  2  0
 25 19  1  0
 26 16  1  0
 28 27  1  0
 28 39  1  0
 28 29  1  1
 30 31  2  0
 30 29  1  0
 32 31  1  0
 33 38  2  0
 33 32  1  0
 34 33  1  0
 35 36  1  0
 35 34  2  0
 36 37  2  0
 37 38  1  0
 38 30  1  0
 39 41  1  0
 40 39  2  0
M  END
$$$$
