WYW.pdb
     RDKit          3D

 41 45  0  0  1  0  0  0  0  0999 V2000
    9.4202  -18.6660   20.7409 N   0  0  0  0  0  0  0  0  0  0  0  0
    9.5829  -17.3312   21.2972 C   0  0  1  0  0  0  0  0  0  0  0  0
    8.3368  -17.0195   22.0894 C   0  0  0  0  0  0  0  0  0  0  0  0
    7.4008  -16.1251   21.3815 C   0  0  0  0  0  0  0  0  0  0  0  0
    6.1020  -16.4317   21.0390 C   0  0  0  0  0  0  0  0  0  0  0  0
    5.5523  -15.3653   20.3996 N   0  0  0  0  0  0  0  0  0  0  0  0
    6.4510  -14.3731   20.3132 C   0  0  0  0  0  0  0  0  0  0  0  0
    6.3878  -13.1092   19.7720 C   0  0  0  0  0  0  0  0  0  0  0  0
    7.4954  -12.2922   19.8388 C   0  0  0  0  0  0  0  0  0  0  0  0
    8.6429  -12.7674   20.4500 C   0  0  0  0  0  0  0  0  0  0  0  0
    8.7152  -14.0392   20.9975 C   0  0  0  0  0  0  0  0  0  0  0  0
    7.6097  -14.8406   20.9257 C   0  0  0  0  0  0  0  0  0  0  0  0
   10.7946  -17.3470   22.1435 C   0  0  0  0  0  0  0  0  0  0  0  0
   11.3200  -18.4528   22.4590 O   0  0  0  0  0  0  0  0  0  0  0  0
   15.0967  -14.7941   17.6923 O   0  0  0  0  0  0  0  0  0  0  0  0
   14.7172  -14.8356   19.0189 C   0  0  0  0  0  0  0  0  0  0  0  0
   15.4474  -15.5138   19.9711 C   0  0  0  0  0  0  0  0  0  0  0  0
   15.0453  -15.5372   21.2776 C   0  0  0  0  0  0  0  0  0  0  0  0
   13.9102  -14.9021   21.7374 C   0  0  0  0  0  0  0  0  0  0  0  0
   13.4643  -14.9831   23.1273 C   0  0  0  0  0  0  0  0  0  0  0  0
   12.6933  -16.2174   23.4143 C   0  0  2  0  0  0  0  0  0  0  0  0
   11.4276  -16.1935   22.6382 N   0  0  0  0  0  0  0  0  0  0  0  0
   12.3037  -16.4622   24.8122 C   0  0  0  0  0  0  0  0  0  0  0  0
   13.2383  -16.7281   25.6655 O   0  0  0  0  0  0  0  0  0  0  0  0
   13.1815  -14.2197   20.7638 C   0  0  0  0  0  0  0  0  0  0  0  0
   13.5754  -14.1914   19.4514 C   0  0  0  0  0  0  0  0  0  0  0  0
   11.0065  -16.4422   25.3766 N   0  0  0  0  0  0  0  0  0  0  0  0
   10.7321  -16.7530   26.7499 C   0  0  1  0  0  0  0  0  0  0  0  0
   10.2310  -15.5804   27.5485 C   0  0  0  0  0  0  0  0  0  0  0  0
    8.9810  -15.0929   26.9147 C   0  0  0  0  0  0  0  0  0  0  0  0
    7.9721  -15.8569   26.3375 C   0  0  0  0  0  0  0  0  0  0  0  0
    7.0023  -15.0605   25.8569 N   0  0  0  0  0  0  0  0  0  0  0  0
    7.3291  -13.7802   26.0936 C   0  0  0  0  0  0  0  0  0  0  0  0
    6.6829  -12.5948   25.8063 C   0  0  0  0  0  0  0  0  0  0  0  0
    7.2322  -11.3733   26.1586 C   0  0  0  0  0  0  0  0  0  0  0  0
    8.4429  -11.3873   26.8051 C   0  0  0  0  0  0  0  0  0  0  0  0
    9.0831  -12.5684   27.0909 C   0  0  0  0  0  0  0  0  0  0  0  0
    8.5468  -13.7894   26.7448 C   0  0  0  0  0  0  0  0  0  0  0  0
    9.9162  -17.9572   26.8786 C   0  0  0  0  0  0  0  0  0  0  0  0
    9.5453  -18.4458   27.9732 O   0  0  0  0  0  0  0  0  0  0  0  0
    9.4761  -18.6706   25.7441 O   0  0  0  0  0  0  0  0  0  0  0  0
  2  3  1  0
  2  1  1  1
  4  5  2  0
  4  3  1  0
  6  5  1  0
  7 12  2  0
  7  6  1  0
  8  7  1  0
  9 10  1  0
  9  8  2  0
 10 11  2  0
 11 12  1  0
 12  4  1  0
 13  2  1  0
 14 13  2  0
 16 15  1  0
 16 17  2  0
 18 17  1  0
 19 18  2  0
 20 19  1  0
 21 20  1  1
 21 22  1  0
 22 13  1  0
 23 21  1  0
 23 27  1  0
 24 23  2  0
 25 26  2  0
 25 19  1  0
 26 16  1  0
 28 27  1  0
 28 39  1  0
 28 29  1  6
 30 31  2  0
 30 29  1  0
 32 31  1  0
 33 38  2  0
 33 32  1  0
 34 33  1  0
 35 36  1  0
 35 34  2  0
 36 37  2  0
 37 38  1  0
 38 30  1  0
 39 41  1  0
 40 39  2  0
M  END
$$$$
