WYW.pdb
     RDKit          3D

 41 45  0  0  1  0  0  0  0  0999 V2000
    8.5412  -17.7535   20.1441 N   0  0  0  0  0  0  0  0  0  0  0  0
    9.1723  -16.8435   21.0882 C   0  0  1  0  0  0  0  0  0  0  0  0
    8.0947  -15.9326   21.6235 C   0  0  0  0  0  0  0  0  0  0  0  0
    7.4993  -15.0605   20.5928 C   0  0  0  0  0  0  0  0  0  0  0  0
    6.1864  -15.0912   20.1766 C   0  0  0  0  0  0  0  0  0  0  0  0
    6.0070  -14.1453   19.2168 N   0  0  0  0  0  0  0  0  0  0  0  0
    7.1610  -13.4989   18.9929 C   0  0  0  0  0  0  0  0  0  0  0  0
    7.4992  -12.4741   18.1388 C   0  0  0  0  0  0  0  0  0  0  0  0
    8.7935  -12.0013   18.1339 C   0  0  0  0  0  0  0  0  0  0  0  0
    9.7189  -12.5723   18.9906 C   0  0  0  0  0  0  0  0  0  0  0  0
    9.3866  -13.6051   19.8540 C   0  0  0  0  0  0  0  0  0  0  0  0
    8.0992  -14.0655   19.8502 C   0  0  0  0  0  0  0  0  0  0  0  0
    9.7902  -17.6641   22.1512 C   0  0  0  0  0  0  0  0  0  0  0  0
    9.7079  -18.9243   22.0927 O   0  0  0  0  0  0  0  0  0  0  0  0
   14.1195  -14.0088   19.3486 O   0  0  0  0  0  0  0  0  0  0  0  0
   13.7515  -15.0161   20.2178 C   0  0  0  0  0  0  0  0  0  0  0  0
   14.2336  -15.0864   21.5072 C   0  0  0  0  0  0  0  0  0  0  0  0
   13.8510  -16.0972   22.3446 C   0  0  0  0  0  0  0  0  0  0  0  0
   12.9761  -17.0995   21.9797 C   0  0  0  0  0  0  0  0  0  0  0  0
   12.6202  -18.2038   22.8689 C   0  0  0  0  0  0  0  0  0  0  0  0
   11.6331  -17.8143   23.9053 C   0  0  2  0  0  0  0  0  0  0  0  0
   10.4838  -17.1361   23.2539 N   0  0  0  0  0  0  0  0  0  0  0  0
   12.0900  -16.9022   24.9662 C   0  0  0  0  0  0  0  0  0  0  0  0
   13.2698  -17.0892   25.4613 O   0  0  0  0  0  0  0  0  0  0  0  0
   12.4960  -17.0158   20.6731 C   0  0  0  0  0  0  0  0  0  0  0  0
   12.8745  -16.0074   19.8256 C   0  0  0  0  0  0  0  0  0  0  0  0
   11.3994  -15.8078   25.5382 N   0  0  0  0  0  0  0  0  0  0  0  0
   11.2283  -15.6265   26.9508 C   0  0  1  0  0  0  0  0  0  0  0  0
   10.4298  -14.4036   27.3128 C   0  0  0  0  0  0  0  0  0  0  0  0
    8.9971  -14.6999   27.0648 C   0  0  0  0  0  0  0  0  0  0  0  0
    8.3990  -15.9509   26.9561 C   0  0  0  0  0  0  0  0  0  0  0  0
    7.0830  -15.8186   26.7188 N   0  0  0  0  0  0  0  0  0  0  0  0
    6.7766  -14.5128   26.6643 C   0  0  0  0  0  0  0  0  0  0  0  0
    5.5830  -13.8534   26.4507 C   0  0  0  0  0  0  0  0  0  0  0  0
    5.5184  -12.4701   26.4392 C   0  0  0  0  0  0  0  0  0  0  0  0
    6.6865  -11.7807   26.6494 C   0  0  0  0  0  0  0  0  0  0  0  0
    7.8727  -12.4395   26.8630 C   0  0  0  0  0  0  0  0  0  0  0  0
    7.9493  -13.8151   26.8760 C   0  0  0  0  0  0  0  0  0  0  0  0
   10.7738  -16.8522   27.6017 C   0  0  0  0  0  0  0  0  0  0  0  0
   10.2399  -17.8154   27.0005 O   0  0  0  0  0  0  0  0  0  0  0  0
   10.9123  -17.0394   28.9930 O   0  0  0  0  0  0  0  0  0  0  0  0
  2  3  1  0
  2  1  1  6
  4  5  2  0
  4  3  1  0
  6  5  1  0
  7 12  2  0
  7  6  1  0
  8  7  1  0
  9 10  1  0
  9  8  2  0
 10 11  2  0
 11 12  1  0
 12  4  1  0
 13  2  1  0
 14 13  2  0
 16 15  1  0
 16 17  2  0
 18 17  1  0
 19 18  2  0
 20 19  1  0
 21 20  1  6
 21 22  1  0
 22 13  1  0
 23 21  1  0
 23 27  1  0
 24 23  2  0
 25 26  2  0
 25 19  1  0
 26 16  1  0
 28 27  1  0
 28 39  1  0
 28 29  1  6
 30 31  2  0
 30 29  1  0
 32 31  1  0
 33 38  2  0
 33 32  1  0
 34 33  1  0
 35 36  1  0
 35 34  2  0
 36 37  2  0
 37 38  1  0
 38 30  1  0
 39 41  1  0
 40 39  2  0
M  END
$$$$
