WYW.pdb
     RDKit          3D

 41 45  0  0  1  0  0  0  0  0999 V2000
    5.8257  -20.5092   25.3298 N   0  0  0  0  0  0  0  0  0  0  0  0
    6.6994  -19.3574   25.4963 C   0  0  1  0  0  0  0  0  0  0  0  0
    7.9795  -19.8514   26.1246 C   0  0  0  0  0  0  0  0  0  0  0  0
    8.2357  -19.2790   27.4602 C   0  0  0  0  0  0  0  0  0  0  0  0
    7.6670  -19.7079   28.6394 C   0  0  0  0  0  0  0  0  0  0  0  0
    8.1405  -18.9440   29.6595 N   0  0  0  0  0  0  0  0  0  0  0  0
    8.9993  -18.0299   29.1835 C   0  0  0  0  0  0  0  0  0  0  0  0
    9.7374  -17.0432   29.7965 C   0  0  0  0  0  0  0  0  0  0  0  0
   10.5564  -16.2417   29.0315 C   0  0  0  0  0  0  0  0  0  0  0  0
   10.6134  -16.4525   27.6645 C   0  0  0  0  0  0  0  0  0  0  0  0
    9.8732  -17.4440   27.0389 C   0  0  0  0  0  0  0  0  0  0  0  0
    9.0644  -18.2334   27.8085 C   0  0  0  0  0  0  0  0  0  0  0  0
    6.9227  -18.7718   24.1576 C   0  0  0  0  0  0  0  0  0  0  0  0
    7.3245  -19.5105   23.2135 O   0  0  0  0  0  0  0  0  0  0  0  0
    8.1334  -12.6538   17.7487 O   0  0  0  0  0  0  0  0  0  0  0  0
    7.7395  -13.3661   18.8637 C   0  0  0  0  0  0  0  0  0  0  0  0
    7.2151  -14.6378   18.7756 C   0  0  0  0  0  0  0  0  0  0  0  0
    6.8332  -15.3179   19.8985 C   0  0  0  0  0  0  0  0  0  0  0  0
    6.9389  -14.8035   21.1743 C   0  0  0  0  0  0  0  0  0  0  0  0
    6.4746  -15.5219   22.3597 C   0  0  0  0  0  0  0  0  0  0  0  0
    7.2378  -16.7682   22.6142 C   0  0  2  0  0  0  0  0  0  0  0  0
    6.7157  -17.4174   23.8434 N   0  0  0  0  0  0  0  0  0  0  0  0
    8.6909  -16.6434   22.8111 C   0  0  0  0  0  0  0  0  0  0  0  0
    9.4699  -17.0689   21.8708 O   0  0  0  0  0  0  0  0  0  0  0  0
    7.4711  -13.5167   21.2485 C   0  0  0  0  0  0  0  0  0  0  0  0
    7.8557  -12.8262   20.1289 C   0  0  0  0  0  0  0  0  0  0  0  0
    9.3814  -16.1002   23.9202 N   0  0  0  0  0  0  0  0  0  0  0  0
   10.7593  -15.7031   23.8820 C   0  0  1  0  0  0  0  0  0  0  0  0
   10.9665  -14.2189   24.0169 C   0  0  0  0  0  0  0  0  0  0  0  0
   10.1539  -13.7435   25.1638 C   0  0  0  0  0  0  0  0  0  0  0  0
   10.4518  -13.8608   26.5173 C   0  0  0  0  0  0  0  0  0  0  0  0
    9.4701  -13.3198   27.2586 N   0  0  0  0  0  0  0  0  0  0  0  0
    8.5179  -12.8409   26.4425 C   0  0  0  0  0  0  0  0  0  0  0  0
    7.3222  -12.1998   26.6964 C   0  0  0  0  0  0  0  0  0  0  0  0
    6.4922  -11.7926   25.6653 C   0  0  0  0  0  0  0  0  0  0  0  0
    6.9051  -12.0500   24.3819 C   0  0  0  0  0  0  0  0  0  0  0  0
    8.0962  -12.6869   24.1321 C   0  0  0  0  0  0  0  0  0  0  0  0
    8.9297  -13.0972   25.1497 C   0  0  0  0  0  0  0  0  0  0  0  0
   11.5782  -16.5062   24.7858 C   0  0  0  0  0  0  0  0  0  0  0  0
   12.2004  -16.0454   25.7732 O   0  0  0  0  0  0  0  0  0  0  0  0
   11.7255  -17.8971   24.6026 O   0  0  0  0  0  0  0  0  0  0  0  0
  2  3  1  0
  2  1  1  6
  4  5  2  0
  4  3  1  0
  6  5  1  0
  7 12  2  0
  7  6  1  0
  8  7  1  0
  9 10  1  0
  9  8  2  0
 10 11  2  0
 11 12  1  0
 12  4  1  0
 13  2  1  0
 14 13  2  0
 16 15  1  0
 16 17  2  0
 18 17  1  0
 19 18  2  0
 20 19  1  0
 21 20  1  1
 21 22  1  0
 22 13  1  0
 23 21  1  0
 23 27  1  0
 24 23  2  0
 25 26  2  0
 25 19  1  0
 26 16  1  0
 28 27  1  0
 28 39  1  0
 28 29  1  1
 30 31  2  0
 30 29  1  0
 32 31  1  0
 33 38  2  0
 33 32  1  0
 34 33  1  0
 35 36  1  0
 35 34  2  0
 36 37  2  0
 37 38  1  0
 38 30  1  0
 39 41  1  0
 40 39  2  0
M  END
$$$$
