WYW.pdb
     RDKit          3D

 41 45  0  0  1  0  0  0  0  0999 V2000
    9.7512  -15.8619   21.4469 N   0  0  0  0  0  0  0  0  0  0  0  0
    8.7965  -16.9486   21.2878 C   0  0  1  0  0  0  0  0  0  0  0  0
    8.5703  -17.1349   19.8073 C   0  0  0  0  0  0  0  0  0  0  0  0
    8.2777  -15.8757   19.0962 C   0  0  0  0  0  0  0  0  0  0  0  0
    7.9487  -15.7649   17.7630 C   0  0  0  0  0  0  0  0  0  0  0  0
    7.7499  -14.4531   17.4665 N   0  0  0  0  0  0  0  0  0  0  0  0
    7.9395  -13.7043   18.5633 C   0  0  0  0  0  0  0  0  0  0  0  0
    7.8568  -12.3487   18.7864 C   0  0  0  0  0  0  0  0  0  0  0  0
    8.1064  -11.8579   20.0495 C   0  0  0  0  0  0  0  0  0  0  0  0
    8.4341  -12.7449   21.0605 C   0  0  0  0  0  0  0  0  0  0  0  0
    8.5198  -14.1117   20.8444 C   0  0  0  0  0  0  0  0  0  0  0  0
    8.2695  -14.5871   19.5871 C   0  0  0  0  0  0  0  0  0  0  0  0
    9.3811  -18.1500   21.9200 C   0  0  0  0  0  0  0  0  0  0  0  0
    9.1584  -19.2890   21.4185 O   0  0  0  0  0  0  0  0  0  0  0  0
   14.3645  -14.9707   17.9414 O   0  0  0  0  0  0  0  0  0  0  0  0
   13.6250  -15.2431   19.0748 C   0  0  0  0  0  0  0  0  0  0  0  0
   12.9094  -16.4120   19.2217 C   0  0  0  0  0  0  0  0  0  0  0  0
   12.1856  -16.6528   20.3563 C   0  0  0  0  0  0  0  0  0  0  0  0
   12.1146  -15.7729   21.4165 C   0  0  0  0  0  0  0  0  0  0  0  0
   11.2916  -16.0210   22.5989 C   0  0  0  0  0  0  0  0  0  0  0  0
   11.4758  -17.3843   23.1538 C   0  0  2  0  0  0  0  0  0  0  0  0
   10.1905  -18.1232   23.0690 N   0  0  0  0  0  0  0  0  0  0  0  0
   11.9098  -17.4912   24.5560 C   0  0  0  0  0  0  0  0  0  0  0  0
   12.7549  -18.4212   24.8609 O   0  0  0  0  0  0  0  0  0  0  0  0
   12.8434  -14.5952   21.2545 C   0  0  0  0  0  0  0  0  0  0  0  0
   13.5710  -14.3437   20.1206 C   0  0  0  0  0  0  0  0  0  0  0  0
   11.5240  -16.6895   25.6561 N   0  0  0  0  0  0  0  0  0  0  0  0
   10.1586  -16.4146   25.9994 C   0  0  1  0  0  0  0  0  0  0  0  0
    9.3377  -15.8942   24.8508 C   0  0  0  0  0  0  0  0  0  0  0  0
    8.1045  -15.2839   25.4064 C   0  0  0  0  0  0  0  0  0  0  0  0
    6.8491  -15.8713   25.5235 C   0  0  0  0  0  0  0  0  0  0  0  0
    5.9780  -15.0036   26.0657 N   0  0  0  0  0  0  0  0  0  0  0  0
    6.6109  -13.8469   26.3176 C   0  0  0  0  0  0  0  0  0  0  0  0
    6.1747  -12.6566   26.8637 C   0  0  0  0  0  0  0  0  0  0  0  0
    7.0341  -11.5828   27.0255 C   0  0  0  0  0  0  0  0  0  0  0  0
    8.3359  -11.7484   26.6231 C   0  0  0  0  0  0  0  0  0  0  0  0
    8.7675  -12.9345   26.0812 C   0  0  0  0  0  0  0  0  0  0  0  0
    7.9216  -14.0093   25.9147 C   0  0  0  0  0  0  0  0  0  0  0  0
    9.5464  -17.5304   26.7153 C   0  0  0  0  0  0  0  0  0  0  0  0
    9.1977  -18.6090   26.1775 O   0  0  0  0  0  0  0  0  0  0  0  0
    9.3018  -17.4666   28.1031 O   0  0  0  0  0  0  0  0  0  0  0  0
  2  3  1  0
  2  1  1  6
  4  5  2  0
  4  3  1  0
  6  5  1  0
  7 12  2  0
  7  6  1  0
  8  7  1  0
  9 10  1  0
  9  8  2  0
 10 11  2  0
 11 12  1  0
 12  4  1  0
 13  2  1  0
 14 13  2  0
 16 15  1  0
 16 17  2  0
 18 17  1  0
 19 18  2  0
 20 19  1  0
 21 20  1  1
 21 22  1  0
 22 13  1  0
 23 21  1  0
 23 27  1  0
 24 23  2  0
 25 26  2  0
 25 19  1  0
 26 16  1  0
 28 27  1  0
 28 39  1  0
 28 29  1  6
 30 31  2  0
 30 29  1  0
 32 31  1  0
 33 38  2  0
 33 32  1  0
 34 33  1  0
 35 36  1  0
 35 34  2  0
 36 37  2  0
 37 38  1  0
 38 30  1  0
 39 41  1  0
 40 39  2  0
M  END
$$$$
