WYW.pdb
     RDKit          3D

 41 45  0  0  1  0  0  0  0  0999 V2000
    6.4614  -20.4921   25.4452 N   0  0  0  0  0  0  0  0  0  0  0  0
    7.0743  -19.1771   25.5587 C   0  0  1  0  0  0  0  0  0  0  0  0
    8.4042  -19.3591   26.2485 C   0  0  0  0  0  0  0  0  0  0  0  0
    8.4691  -18.7162   27.5750 C   0  0  0  0  0  0  0  0  0  0  0  0
    7.9543  -19.2338   28.7434 C   0  0  0  0  0  0  0  0  0  0  0  0
    8.2038  -18.3634   29.7575 N   0  0  0  0  0  0  0  0  0  0  0  0
    8.8641  -17.2942   29.2881 C   0  0  0  0  0  0  0  0  0  0  0  0
    9.3416  -16.1573   29.8994 C   0  0  0  0  0  0  0  0  0  0  0  0
   10.0007  -15.2127   29.1431 C   0  0  0  0  0  0  0  0  0  0  0  0
   10.1641  -15.4350   27.7866 C   0  0  0  0  0  0  0  0  0  0  0  0
    9.6861  -16.5773   27.1629 C   0  0  0  0  0  0  0  0  0  0  0  0
    9.0341  -17.5077   27.9236 C   0  0  0  0  0  0  0  0  0  0  0  0
    7.2227  -18.6365   24.1910 C   0  0  0  0  0  0  0  0  0  0  0  0
    7.5409  -19.4128   23.2452 O   0  0  0  0  0  0  0  0  0  0  0  0
    7.5640  -12.9933   17.3459 O   0  0  0  0  0  0  0  0  0  0  0  0
    7.2865  -13.5880   18.5604 C   0  0  0  0  0  0  0  0  0  0  0  0
    7.4650  -12.9301   19.7584 C   0  0  0  0  0  0  0  0  0  0  0  0
    7.1818  -13.5464   20.9456 C   0  0  0  0  0  0  0  0  0  0  0  0
    6.7073  -14.8384   21.0397 C   0  0  0  0  0  0  0  0  0  0  0  0
    6.4621  -15.5017   22.3191 C   0  0  0  0  0  0  0  0  0  0  0  0
    7.2614  -16.7397   22.4891 C   0  0  2  0  0  0  0  0  0  0  0  0
    7.0306  -17.2863   23.8503 N   0  0  0  0  0  0  0  0  0  0  0  0
    8.7216  -16.6278   22.3426 C   0  0  0  0  0  0  0  0  0  0  0  0
    9.1969  -16.3846   21.1649 O   0  0  0  0  0  0  0  0  0  0  0  0
    6.5312  -15.4917   19.8204 C   0  0  0  0  0  0  0  0  0  0  0  0
    6.8133  -14.8832   18.6252 C   0  0  0  0  0  0  0  0  0  0  0  0
    9.7143  -16.7477   23.3436 N   0  0  0  0  0  0  0  0  0  0  0  0
   10.8324  -15.8572   23.4650 C   0  0  1  0  0  0  0  0  0  0  0  0
   10.4475  -14.4033   23.5096 C   0  0  0  0  0  0  0  0  0  0  0  0
    9.7747  -14.1453   24.8068 C   0  0  0  0  0  0  0  0  0  0  0  0
   10.0877  -14.6951   26.0456 C   0  0  0  0  0  0  0  0  0  0  0  0
    9.2486  -14.2301   26.9865 N   0  0  0  0  0  0  0  0  0  0  0  0
    8.3779  -13.3819   26.4168 C   0  0  0  0  0  0  0  0  0  0  0  0
    7.3320  -12.6463   26.9367 C   0  0  0  0  0  0  0  0  0  0  0  0
    6.5611  -11.8250   26.1311 C   0  0  0  0  0  0  0  0  0  0  0  0
    6.8780  -11.7700   24.7967 C   0  0  0  0  0  0  0  0  0  0  0  0
    7.9202  -12.5022   24.2824 C   0  0  0  0  0  0  0  0  0  0  0  0
    8.6935  -13.3231   25.0738 C   0  0  0  0  0  0  0  0  0  0  0  0
   11.7379  -16.2696   24.5339 C   0  0  0  0  0  0  0  0  0  0  0  0
   12.8569  -15.7462   24.7532 O   0  0  0  0  0  0  0  0  0  0  0  0
   11.4011  -17.3152   25.4188 O   0  0  0  0  0  0  0  0  0  0  0  0
  2  3  1  0
  2  1  1  6
  4  5  2  0
  4  3  1  0
  6  5  1  0
  7 12  2  0
  7  6  1  0
  8  7  1  0
  9 10  1  0
  9  8  2  0
 10 11  2  0
 11 12  1  0
 12  4  1  0
 13  2  1  0
 14 13  2  0
 16 15  1  0
 16 17  2  0
 18 17  1  0
 19 18  2  0
 20 19  1  0
 21 20  1  1
 21 22  1  0
 22 13  1  0
 23 21  1  0
 23 27  1  0
 24 23  2  0
 25 26  2  0
 25 19  1  0
 26 16  1  0
 28 27  1  0
 28 39  1  0
 28 29  1  1
 30 31  2  0
 30 29  1  0
 32 31  1  0
 33 38  2  0
 33 32  1  0
 34 33  1  0
 35 36  1  0
 35 34  2  0
 36 37  2  0
 37 38  1  0
 38 30  1  0
 39 41  1  0
 40 39  2  0
M  END
$$$$
