WYW.pdb
     RDKit          3D

 41 45  0  0  1  0  0  0  0  0999 V2000
    6.6558  -21.1511   24.6542 N   0  0  0  0  0  0  0  0  0  0  0  0
    6.8905  -19.7890   25.1093 C   0  0  1  0  0  0  0  0  0  0  0  0
    7.8993  -19.8570   26.2297 C   0  0  0  0  0  0  0  0  0  0  0  0
    8.2549  -18.5345   26.7790 C   0  0  0  0  0  0  0  0  0  0  0  0
    7.3929  -17.4706   26.9309 C   0  0  0  0  0  0  0  0  0  0  0  0
    8.0757  -16.4243   27.4669 N   0  0  0  0  0  0  0  0  0  0  0  0
    9.3557  -16.7712   27.6689 C   0  0  0  0  0  0  0  0  0  0  0  0
   10.4324  -16.0851   28.1831 C   0  0  0  0  0  0  0  0  0  0  0  0
   11.6525  -16.7186   28.2753 C   0  0  0  0  0  0  0  0  0  0  0  0
   11.7607  -18.0305   27.8469 C   0  0  0  0  0  0  0  0  0  0  0  0
   10.6814  -18.7288   27.3275 C   0  0  0  0  0  0  0  0  0  0  0  0
    9.4756  -18.0900   27.2414 C   0  0  0  0  0  0  0  0  0  0  0  0
    7.3893  -19.0140   23.9536 C   0  0  0  0  0  0  0  0  0  0  0  0
    8.2681  -19.5185   23.1976 O   0  0  0  0  0  0  0  0  0  0  0  0
    8.2806  -12.4830   17.9108 O   0  0  0  0  0  0  0  0  0  0  0  0
    7.9032  -13.2816   18.9716 C   0  0  0  0  0  0  0  0  0  0  0  0
    7.4658  -14.5770   18.7968 C   0  0  0  0  0  0  0  0  0  0  0  0
    7.0980  -15.3433   19.8677 C   0  0  0  0  0  0  0  0  0  0  0  0
    7.1343  -14.8972   21.1726 C   0  0  0  0  0  0  0  0  0  0  0  0
    6.6850  -15.7105   22.3013 C   0  0  0  0  0  0  0  0  0  0  0  0
    7.5235  -16.9157   22.5132 C   0  0  2  0  0  0  0  0  0  0  0  0
    6.9481  -17.7218   23.6196 N   0  0  0  0  0  0  0  0  0  0  0  0
    8.9372  -16.7034   22.8630 C   0  0  0  0  0  0  0  0  0  0  0  0
    9.8341  -17.0271   21.9895 O   0  0  0  0  0  0  0  0  0  0  0  0
    7.5789  -13.5856   21.3348 C   0  0  0  0  0  0  0  0  0  0  0  0
    7.9486  -12.8089   20.2678 C   0  0  0  0  0  0  0  0  0  0  0  0
    9.4735  -16.1718   24.0595 N   0  0  0  0  0  0  0  0  0  0  0  0
   10.7603  -15.5436   24.1436 C   0  0  1  0  0  0  0  0  0  0  0  0
   10.6957  -14.0556   24.3574 C   0  0  0  0  0  0  0  0  0  0  0  0
    9.8003  -13.7953   25.5116 C   0  0  0  0  0  0  0  0  0  0  0  0
   10.0248  -14.1189   26.8456 C   0  0  0  0  0  0  0  0  0  0  0  0
    8.9814  -13.7341   27.5999 N   0  0  0  0  0  0  0  0  0  0  0  0
    8.0589  -13.1599   26.8116 C   0  0  0  0  0  0  0  0  0  0  0  0
    6.8257  -12.6049   27.0880 C   0  0  0  0  0  0  0  0  0  0  0  0
    6.0403  -12.0633   26.0842 C   0  0  0  0  0  0  0  0  0  0  0  0
    6.5360  -12.0988   24.8047 C   0  0  0  0  0  0  0  0  0  0  0  0
    7.7641  -12.6507   24.5327 C   0  0  0  0  0  0  0  0  0  0  0  0
    8.5539  -13.1930   25.5230 C   0  0  0  0  0  0  0  0  0  0  0  0
   11.6437  -16.2436   25.0721 C   0  0  0  0  0  0  0  0  0  0  0  0
   11.2750  -17.1655   25.8392 O   0  0  0  0  0  0  0  0  0  0  0  0
   13.0133  -15.9198   25.1679 O   0  0  0  0  0  0  0  0  0  0  0  0
  2  3  1  0
  2  1  1  6
  4  5  2  0
  4  3  1  0
  6  5  1  0
  7 12  2  0
  7  6  1  0
  8  7  1  0
  9 10  1  0
  9  8  2  0
 10 11  2  0
 11 12  1  0
 12  4  1  0
 13  2  1  0
 14 13  2  0
 16 15  1  0
 16 17  2  0
 18 17  1  0
 19 18  2  0
 20 19  1  0
 21 20  1  1
 21 22  1  0
 22 13  1  0
 23 21  1  0
 23 27  1  0
 24 23  2  0
 25 26  2  0
 25 19  1  0
 26 16  1  0
 28 27  1  0
 28 39  1  0
 28 29  1  1
 30 31  2  0
 30 29  1  0
 32 31  1  0
 33 38  2  0
 33 32  1  0
 34 33  1  0
 35 36  1  0
 35 34  2  0
 36 37  2  0
 37 38  1  0
 38 30  1  0
 39 41  1  0
 40 39  2  0
M  END
$$$$
