WKR.pdb
     RDKit          3D

 35 36  0  0  1  0  0  0  0  0999 V2000
    6.5144  -17.3918   25.7377 N   0  0  0  0  0  0  0  0  0  0  0  0
    7.2562  -16.7150   24.7108 C   0  0  1  0  0  0  0  0  0  0  0  0
    8.5119  -16.0327   25.2076 C   0  0  0  0  0  0  0  0  0  0  0  0
    8.2688  -15.0536   26.2801 C   0  0  0  0  0  0  0  0  0  0  0  0
    8.4616  -15.2547   27.6299 C   0  0  0  0  0  0  0  0  0  0  0  0
    8.1040  -14.1360   28.3190 N   0  0  0  0  0  0  0  0  0  0  0  0
    7.6788  -13.2007   27.4393 C   0  0  0  0  0  0  0  0  0  0  0  0
    7.2221  -11.9155   27.6447 C   0  0  0  0  0  0  0  0  0  0  0  0
    6.8537  -11.1664   26.5503 C   0  0  0  0  0  0  0  0  0  0  0  0
    6.9491  -11.7117   25.2915 C   0  0  0  0  0  0  0  0  0  0  0  0
    7.4001  -12.9831   25.0800 C   0  0  0  0  0  0  0  0  0  0  0  0
    7.7750  -13.7562   26.1583 C   0  0  0  0  0  0  0  0  0  0  0  0
    7.5333  -17.5965   23.5481 C   0  0  0  0  0  0  0  0  0  0  0  0
    7.5755  -18.8332   23.5798 O   0  0  0  0  0  0  0  0  0  0  0  0
    7.7728  -16.9696   22.2713 N   0  0  0  0  0  0  0  0  0  0  0  0
    8.2118  -17.7449   21.1162 C   0  0  1  0  0  0  0  0  0  0  0  0
    7.6503  -16.9786   19.9099 C   0  0  0  0  0  0  0  0  0  0  0  0
    8.0296  -17.5821   18.6016 C   0  0  0  0  0  0  0  0  0  0  0  0
    7.6278  -16.6334   17.4936 C   0  0  0  0  0  0  0  0  0  0  0  0
    7.9935  -17.1583   16.1160 C   0  0  0  0  0  0  0  0  0  0  0  0
    7.7065  -16.1110   15.1241 N   0  0  0  0  0  0  0  0  0  0  0  0
    9.6883  -17.7894   21.1163 C   0  0  0  0  0  0  0  0  0  0  0  0
   10.3142  -18.5413   20.3071 O   0  0  0  0  0  0  0  0  0  0  0  0
    9.3880  -14.9934   17.8387 N   0  0  0  0  0  0  0  0  0  0  0  0
    9.9438  -13.6953   18.0816 C   0  0  0  0  0  0  0  0  0  0  0  0
    9.2834  -12.6465   17.7535 N   0  0  0  0  0  0  0  0  0  0  0  0
   11.2274  -13.5478   18.6862 N   0  0  0  0  0  0  0  0  0  0  0  0
   12.0820  -14.6826   18.9584 C   0  0  0  0  0  0  0  0  0  0  0  0
   11.6004  -15.2976   20.2726 C   0  0  0  0  0  0  0  0  0  0  0  0
   12.4395  -16.4848   20.6457 C   0  0  0  0  0  0  0  0  0  0  0  0
   11.9559  -17.0885   21.9306 C   0  0  2  0  0  0  0  0  0  0  0  0
   10.4855  -17.0221   21.9895 N   0  0  0  0  0  0  0  0  0  0  0  0
   12.5301  -16.5269   23.1606 C   0  0  0  0  0  0  0  0  0  0  0  0
   13.7537  -16.4339   23.3573 O   0  0  0  0  0  0  0  0  0  0  0  0
   11.7179  -16.0525   24.2096 O   0  0  0  0  0  0  0  0  0  0  0  0
  2  1  1  1
  2  3  1  0
  4  3  1  0
  4  5  2  0
  6  5  1  0
  7  6  1  0
  8  7  2  0
  9  8  1  0
 10  9  2  0
 10 11  1  0
 11 12  2  0
 12  7  1  0
 12  4  1  0
 13  2  1  0
 14 13  2  0
 15 13  1  0
 16 17  1  6
 16 15  1  0
 17 18  1  0
 18 19  1  0
 19 20  1  0
 20 21  1  0
 22 32  1  0
 22 16  1  0
 23 22  2  0
 24 25  1  0
 25 26  2  0
 27 25  1  0
 27 28  1  0
 28 29  1  0
 29 30  1  0
 31 30  1  6
 31 32  1  0
 33 31  1  0
 34 33  2  0
 35 33  1  0
M  END
$$$$
