WKR.pdb
     RDKit          3D

 35 36  0  0  1  0  0  0  0  0999 V2000
    8.4535  -15.7335   23.2862 N   0  0  0  0  0  0  0  0  0  0  0  0
    9.1890  -16.1436   24.4498 C   0  0  1  0  0  0  0  0  0  0  0  0
    8.3530  -16.2258   25.7081 C   0  0  0  0  0  0  0  0  0  0  0  0
    7.4400  -15.0848   25.8879 C   0  0  0  0  0  0  0  0  0  0  0  0
    6.0633  -15.1370   25.9236 C   0  0  0  0  0  0  0  0  0  0  0  0
    5.5576  -13.8819   26.0763 N   0  0  0  0  0  0  0  0  0  0  0  0
    6.5846  -13.0043   26.1423 C   0  0  0  0  0  0  0  0  0  0  0  0
    6.5869  -11.6337   26.2974 C   0  0  0  0  0  0  0  0  0  0  0  0
    7.7972  -10.9793   26.3391 C   0  0  0  0  0  0  0  0  0  0  0  0
    8.9627  -11.7004   26.2265 C   0  0  0  0  0  0  0  0  0  0  0  0
    8.9686  -13.0572   26.0726 C   0  0  0  0  0  0  0  0  0  0  0  0
    7.7707  -13.7381   26.0267 C   0  0  0  0  0  0  0  0  0  0  0  0
    9.9535  -17.3952   24.2154 C   0  0  0  0  0  0  0  0  0  0  0  0
   10.5403  -18.0507   25.0861 O   0  0  0  0  0  0  0  0  0  0  0  0
   10.0229  -17.8976   22.8652 N   0  0  0  0  0  0  0  0  0  0  0  0
   10.8093  -19.0814   22.5359 C   0  0  1  0  0  0  0  0  0  0  0  0
   10.1083  -19.6713   21.3038 C   0  0  0  0  0  0  0  0  0  0  0  0
    9.0169  -20.6251   21.6488 C   0  0  0  0  0  0  0  0  0  0  0  0
    8.5129  -21.2687   20.3756 C   0  0  0  0  0  0  0  0  0  0  0  0
    7.3958  -22.2659   20.6295 C   0  0  0  0  0  0  0  0  0  0  0  0
    6.9090  -22.7642   19.3343 N   0  0  0  0  0  0  0  0  0  0  0  0
   12.1942  -18.6573   22.2456 C   0  0  0  0  0  0  0  0  0  0  0  0
   13.1037  -19.5166   22.0310 O   0  0  0  0  0  0  0  0  0  0  0  0
   15.7888  -12.4405   17.3724 N   0  0  0  0  0  0  0  0  0  0  0  0
   15.9463  -13.8625   17.2945 C   0  0  0  0  0  0  0  0  0  0  0  0
   16.1978  -14.4161   16.1657 N   0  0  0  0  0  0  0  0  0  0  0  0
   15.8277  -14.6791   18.4582 N   0  0  0  0  0  0  0  0  0  0  0  0
   15.4597  -14.1313   19.7453 C   0  0  0  0  0  0  0  0  0  0  0  0
   15.4244  -15.2983   20.7322 C   0  0  0  0  0  0  0  0  0  0  0  0
   14.0110  -15.7193   21.0111 C   0  0  0  0  0  0  0  0  0  0  0  0
   13.9873  -16.9402   21.8819 C   0  0  2  0  0  0  0  0  0  0  0  0
   12.5937  -17.3068   22.1875 N   0  0  0  0  0  0  0  0  0  0  0  0
   14.7654  -16.8578   23.1252 C   0  0  0  0  0  0  0  0  0  0  0  0
   14.2458  -16.6832   24.2405 O   0  0  0  0  0  0  0  0  0  0  0  0
   16.1696  -16.9727   23.1309 O   0  0  0  0  0  0  0  0  0  0  0  0
  2  1  1  6
  2  3  1  0
  4  3  1  0
  4  5  2  0
  6  5  1  0
  7  6  1  0
  8  7  2  0
  9  8  1  0
 10  9  2  0
 10 11  1  0
 11 12  2  0
 12  7  1  0
 12  4  1  0
 13  2  1  0
 14 13  2  0
 15 13  1  0
 16 17  1  6
 16 15  1  0
 17 18  1  0
 18 19  1  0
 19 20  1  0
 20 21  1  0
 22 32  1  0
 22 16  1  0
 23 22  2  0
 24 25  1  0
 25 26  2  0
 27 25  1  0
 27 28  1  0
 28 29  1  0
 29 30  1  0
 31 30  1  1
 31 32  1  0
 33 31  1  0
 34 33  2  0
 35 33  1  0
M  END
$$$$
