WKR.pdb
     RDKit          3D

 35 36  0  0  1  0  0  0  0  0999 V2000
    7.7787  -16.0553   23.4483 N   0  0  0  0  0  0  0  0  0  0  0  0
    8.8122  -16.1797   24.4378 C   0  0  1  0  0  0  0  0  0  0  0  0
    8.3057  -16.1496   25.8631 C   0  0  0  0  0  0  0  0  0  0  0  0
    7.2641  -15.1363   26.0999 C   0  0  0  0  0  0  0  0  0  0  0  0
    5.9075  -15.3633   26.1879 C   0  0  0  0  0  0  0  0  0  0  0  0
    5.2541  -14.1848   26.3840 N   0  0  0  0  0  0  0  0  0  0  0  0
    6.1639  -13.1849   26.4268 C   0  0  0  0  0  0  0  0  0  0  0  0
    5.9995  -11.8274   26.6077 C   0  0  0  0  0  0  0  0  0  0  0  0
    7.1181  -11.0253   26.6148 C   0  0  0  0  0  0  0  0  0  0  0  0
    8.3598  -11.5910   26.4434 C   0  0  0  0  0  0  0  0  0  0  0  0
    8.5307  -12.9338   26.2637 C   0  0  0  0  0  0  0  0  0  0  0  0
    7.4274  -13.7606   26.2513 C   0  0  0  0  0  0  0  0  0  0  0  0
    9.6850  -17.3556   24.1897 C   0  0  0  0  0  0  0  0  0  0  0  0
   10.6405  -17.7012   24.8965 O   0  0  0  0  0  0  0  0  0  0  0  0
    9.4031  -18.1697   23.0329 N   0  0  0  0  0  0  0  0  0  0  0  0
   10.2705  -19.2812   22.6581 C   0  0  1  0  0  0  0  0  0  0  0  0
    9.3219  -20.3008   22.0115 C   0  0  0  0  0  0  0  0  0  0  0  0
   10.0029  -21.5622   21.6053 C   0  0  0  0  0  0  0  0  0  0  0  0
    8.9941  -22.4628   20.9268 C   0  0  0  0  0  0  0  0  0  0  0  0
    9.5963  -23.7869   20.4898 C   0  0  0  0  0  0  0  0  0  0  0  0
    8.5265  -24.6263   19.9297 N   0  0  0  0  0  0  0  0  0  0  0  0
   11.2888  -18.7816   21.7118 C   0  0  0  0  0  0  0  0  0  0  0  0
   12.2103  -19.5453   21.2885 O   0  0  0  0  0  0  0  0  0  0  0  0
    8.6601  -12.3555   19.0718 N   0  0  0  0  0  0  0  0  0  0  0  0
    8.0181  -13.6328   18.9748 C   0  0  0  0  0  0  0  0  0  0  0  0
    6.7996  -13.7651   19.3509 N   0  0  0  0  0  0  0  0  0  0  0  0
    8.7151  -14.7677   18.4636 N   0  0  0  0  0  0  0  0  0  0  0  0
   10.1335  -14.7341   18.1824 C   0  0  0  0  0  0  0  0  0  0  0  0
   10.8463  -15.2725   19.4231 C   0  0  0  0  0  0  0  0  0  0  0  0
   11.7416  -16.4235   19.0673 C   0  0  0  0  0  0  0  0  0  0  0  0
   12.3641  -17.0071   20.3007 C   0  0  2  0  0  0  0  0  0  0  0  0
   11.3094  -17.4591   21.2245 N   0  0  0  0  0  0  0  0  0  0  0  0
   13.3133  -16.1412   21.0128 C   0  0  0  0  0  0  0  0  0  0  0  0
   13.1872  -15.8372   22.2111 O   0  0  0  0  0  0  0  0  0  0  0  0
   14.4420  -15.5927   20.3722 O   0  0  0  0  0  0  0  0  0  0  0  0
  2  1  1  6
  2  3  1  0
  4  3  1  0
  4  5  2  0
  6  5  1  0
  7  6  1  0
  8  7  2  0
  9  8  1  0
 10  9  2  0
 10 11  1  0
 11 12  2  0
 12  7  1  0
 12  4  1  0
 13  2  1  0
 14 13  2  0
 15 13  1  0
 16 17  1  6
 16 15  1  0
 17 18  1  0
 18 19  1  0
 19 20  1  0
 20 21  1  0
 22 32  1  0
 22 16  1  0
 23 22  2  0
 24 25  1  0
 25 26  2  0
 27 25  1  0
 27 28  1  0
 28 29  1  0
 29 30  1  0
 31 30  1  6
 31 32  1  0
 33 31  1  0
 34 33  2  0
 35 33  1  0
M  END
$$$$
