WKR.pdb
     RDKit          3D

 35 36  0  0  1  0  0  0  0  0999 V2000
    7.3095  -17.1298   26.6181 N   0  0  0  0  0  0  0  0  0  0  0  0
    7.3610  -16.4583   25.3496 C   0  0  1  0  0  0  0  0  0  0  0  0
    8.3865  -15.3479   25.2829 C   0  0  0  0  0  0  0  0  0  0  0  0
    8.2169  -14.3221   26.3254 C   0  0  0  0  0  0  0  0  0  0  0  0
    8.8751  -14.2692   27.5351 C   0  0  0  0  0  0  0  0  0  0  0  0
    8.4403  -13.1952   28.2506 N   0  0  0  0  0  0  0  0  0  0  0  0
    7.5044  -12.5402   27.5264 C   0  0  0  0  0  0  0  0  0  0  0  0
    6.7789  -11.4030   27.8141 C   0  0  0  0  0  0  0  0  0  0  0  0
    5.8814  -10.9418   26.8779 C   0  0  0  0  0  0  0  0  0  0  0  0
    5.7315  -11.6190   25.6904 C   0  0  0  0  0  0  0  0  0  0  0  0
    6.4459  -12.7455   25.3983 C   0  0  0  0  0  0  0  0  0  0  0  0
    7.3512  -13.2300   26.3183 C   0  0  0  0  0  0  0  0  0  0  0  0
    7.5076  -17.4100   24.2188 C   0  0  0  0  0  0  0  0  0  0  0  0
    8.2442  -18.4047   24.2096 O   0  0  0  0  0  0  0  0  0  0  0  0
    6.7303  -17.1646   23.0288 N   0  0  0  0  0  0  0  0  0  0  0  0
    6.9957  -17.8843   21.7878 C   0  0  1  0  0  0  0  0  0  0  0  0
    5.6691  -17.8135   21.0177 C   0  0  0  0  0  0  0  0  0  0  0  0
    4.6793  -18.8370   21.4565 C   0  0  0  0  0  0  0  0  0  0  0  0
    3.4642  -18.7547   20.5588 C   0  0  0  0  0  0  0  0  0  0  0  0
    2.3717  -19.7280   20.9663 C   0  0  0  0  0  0  0  0  0  0  0  0
    1.2673  -19.6239   20.0008 N   0  0  0  0  0  0  0  0  0  0  0  0
    8.0957  -17.2014   21.0769 C   0  0  0  0  0  0  0  0  0  0  0  0
    8.3535  -15.9790   21.3032 O   0  0  0  0  0  0  0  0  0  0  0  0
   15.2644  -17.0075   19.9963 N   0  0  0  0  0  0  0  0  0  0  0  0
   15.3292  -16.0281   21.0401 C   0  0  0  0  0  0  0  0  0  0  0  0
   16.2910  -15.1806   21.0616 N   0  0  0  0  0  0  0  0  0  0  0  0
   14.3358  -15.9784   22.0628 N   0  0  0  0  0  0  0  0  0  0  0  0
   13.3044  -16.9857   22.1798 C   0  0  0  0  0  0  0  0  0  0  0  0
   12.4868  -16.9378   20.8890 C   0  0  0  0  0  0  0  0  0  0  0  0
   11.0580  -17.3182   21.1474 C   0  0  0  0  0  0  0  0  0  0  0  0
   10.2854  -17.3669   19.8628 C   0  0  2  0  0  0  0  0  0  0  0  0
    8.9148  -17.8396   20.1237 N   0  0  0  0  0  0  0  0  0  0  0  0
   10.8877  -18.1565   18.7803 C   0  0  0  0  0  0  0  0  0  0  0  0
   10.4831  -19.2867   18.4588 O   0  0  0  0  0  0  0  0  0  0  0  0
   11.9778  -17.6752   18.0286 O   0  0  0  0  0  0  0  0  0  0  0  0
  2  1  1  1
  2  3  1  0
  4  3  1  0
  4  5  2  0
  6  5  1  0
  7  6  1  0
  8  7  2  0
  9  8  1  0
 10  9  2  0
 10 11  1  0
 11 12  2  0
 12  7  1  0
 12  4  1  0
 13  2  1  0
 14 13  2  0
 15 13  1  0
 16 17  1  6
 16 15  1  0
 17 18  1  0
 18 19  1  0
 19 20  1  0
 20 21  1  0
 22 32  1  0
 22 16  1  0
 23 22  2  0
 24 25  1  0
 25 26  2  0
 27 25  1  0
 27 28  1  0
 28 29  1  0
 29 30  1  0
 31 30  1  1
 31 32  1  0
 33 31  1  0
 34 33  2  0
 35 33  1  0
M  END
$$$$
