WKR.pdb
     RDKit          3D

 35 36  0  0  1  0  0  0  0  0999 V2000
    6.6518  -17.9182   25.4852 N   0  0  0  0  0  0  0  0  0  0  0  0
    7.7989  -17.4783   24.7412 C   0  0  1  0  0  0  0  0  0  0  0  0
    8.4797  -16.2595   25.3245 C   0  0  0  0  0  0  0  0  0  0  0  0
    7.5424  -15.2262   25.7949 C   0  0  0  0  0  0  0  0  0  0  0  0
    6.3772  -15.4389   26.4996 C   0  0  0  0  0  0  0  0  0  0  0  0
    5.7571  -14.2498   26.7362 N   0  0  0  0  0  0  0  0  0  0  0  0
    6.5002  -13.2570   26.1964 C   0  0  0  0  0  0  0  0  0  0  0  0
    6.2979  -11.8927   26.1755 C   0  0  0  0  0  0  0  0  0  0  0  0
    7.2333  -11.0993   25.5509 C   0  0  0  0  0  0  0  0  0  0  0  0
    8.3358  -11.6799   24.9690 C   0  0  0  0  0  0  0  0  0  0  0  0
    8.5430  -13.0296   24.9854 C   0  0  0  0  0  0  0  0  0  0  0  0
    7.6216  -13.8481   25.6033 C   0  0  0  0  0  0  0  0  0  0  0  0
    8.7628  -18.5813   24.4960 C   0  0  0  0  0  0  0  0  0  0  0  0
    8.7824  -19.6633   25.0968 O   0  0  0  0  0  0  0  0  0  0  0  0
    9.7618  -18.3861   23.4740 N   0  0  0  0  0  0  0  0  0  0  0  0
    9.9878  -19.3839   22.4340 C   0  0  1  0  0  0  0  0  0  0  0  0
    8.6063  -19.5841   21.7944 C   0  0  0  0  0  0  0  0  0  0  0  0
    8.0311  -20.9349   22.0483 C   0  0  0  0  0  0  0  0  0  0  0  0
    6.7049  -21.0419   21.3281 C   0  0  0  0  0  0  0  0  0  0  0  0
    6.0970  -22.4301   21.4298 C   0  0  0  0  0  0  0  0  0  0  0  0
    6.8337  -23.3313   20.5309 N   0  0  0  0  0  0  0  0  0  0  0  0
   10.9776  -18.8472   21.4778 C   0  0  0  0  0  0  0  0  0  0  0  0
   12.0910  -19.4311   21.3013 O   0  0  0  0  0  0  0  0  0  0  0  0
    6.9290  -13.3960   18.1119 N   0  0  0  0  0  0  0  0  0  0  0  0
    7.7184  -13.0546   19.2579 C   0  0  0  0  0  0  0  0  0  0  0  0
    7.8687  -11.8243   19.5860 N   0  0  0  0  0  0  0  0  0  0  0  0
    8.3442  -14.0658   20.0460 N   0  0  0  0  0  0  0  0  0  0  0  0
    8.9743  -15.2229   19.4493 C   0  0  0  0  0  0  0  0  0  0  0  0
   10.4794  -15.0751   19.6728 C   0  0  0  0  0  0  0  0  0  0  0  0
   11.2379  -16.1222   18.9104 C   0  0  0  0  0  0  0  0  0  0  0  0
   11.8221  -17.1365   19.8480 C   0  0  2  0  0  0  0  0  0  0  0  0
   10.7630  -17.6819   20.7145 N   0  0  0  0  0  0  0  0  0  0  0  0
   12.9509  -16.6777   20.6687 C   0  0  0  0  0  0  0  0  0  0  0  0
   13.9706  -16.1544   20.1884 O   0  0  0  0  0  0  0  0  0  0  0  0
   12.9482  -16.8049   22.0719 O   0  0  0  0  0  0  0  0  0  0  0  0
  2  1  1  1
  2  3  1  0
  4  3  1  0
  4  5  2  0
  6  5  1  0
  7  6  1  0
  8  7  2  0
  9  8  1  0
 10  9  2  0
 10 11  1  0
 11 12  2  0
 12  7  1  0
 12  4  1  0
 13  2  1  0
 14 13  2  0
 15 13  1  0
 16 17  1  6
 16 15  1  0
 17 18  1  0
 18 19  1  0
 19 20  1  0
 20 21  1  0
 22 32  1  0
 22 16  1  0
 23 22  2  0
 24 25  1  0
 25 26  2  0
 27 25  1  0
 27 28  1  0
 28 29  1  0
 29 30  1  0
 31 30  1  1
 31 32  1  0
 33 31  1  0
 34 33  2  0
 35 33  1  0
M  END
$$$$
