WKR.pdb
     RDKit          3D

 35 36  0  0  1  0  0  0  0  0999 V2000
    6.8261  -17.4822   23.9601 N   0  0  0  0  0  0  0  0  0  0  0  0
    7.4222  -16.2621   23.4923 C   0  0  1  0  0  0  0  0  0  0  0  0
    8.2279  -15.5292   24.5425 C   0  0  0  0  0  0  0  0  0  0  0  0
    7.4059  -14.7431   25.4773 C   0  0  0  0  0  0  0  0  0  0  0  0
    6.5476  -15.2444   26.4320 C   0  0  0  0  0  0  0  0  0  0  0  0
    5.9377  -14.2191   27.0886 N   0  0  0  0  0  0  0  0  0  0  0  0
    6.3845  -13.0490   26.5783 C   0  0  0  0  0  0  0  0  0  0  0  0
    6.0726  -11.7467   26.9092 C   0  0  0  0  0  0  0  0  0  0  0  0
    6.6908  -10.7277   26.2206 C   0  0  0  0  0  0  0  0  0  0  0  0
    7.5954  -11.0295   25.2297 C   0  0  0  0  0  0  0  0  0  0  0  0
    7.9093  -12.3160   24.8962 C   0  0  0  0  0  0  0  0  0  0  0  0
    7.3044  -13.3562   25.5691 C   0  0  0  0  0  0  0  0  0  0  0  0
    8.2012  -16.4633   22.2438 C   0  0  0  0  0  0  0  0  0  0  0  0
    8.8888  -17.4582   21.9801 O   0  0  0  0  0  0  0  0  0  0  0  0
    8.1581  -15.4197   21.2491 N   0  0  0  0  0  0  0  0  0  0  0  0
    8.8959  -15.5355   19.9959 C   0  0  1  0  0  0  0  0  0  0  0  0
    8.2938  -14.4439   19.0995 C   0  0  0  0  0  0  0  0  0  0  0  0
    8.8517  -14.4437   17.7180 C   0  0  0  0  0  0  0  0  0  0  0  0
    8.1260  -13.3976   16.9006 C   0  0  0  0  0  0  0  0  0  0  0  0
    8.5755  -13.3767   15.4499 C   0  0  0  0  0  0  0  0  0  0  0  0
    7.8063  -12.3466   14.7357 N   0  0  0  0  0  0  0  0  0  0  0  0
   10.3287  -15.3079   20.2737 C   0  0  0  0  0  0  0  0  0  0  0  0
   10.6921  -14.5294   21.2084 O   0  0  0  0  0  0  0  0  0  0  0  0
   14.6356  -16.6661   24.1713 N   0  0  0  0  0  0  0  0  0  0  0  0
   15.9347  -16.6822   23.5670 C   0  0  0  0  0  0  0  0  0  0  0  0
   16.9349  -16.1771   24.1901 N   0  0  0  0  0  0  0  0  0  0  0  0
   16.1366  -17.2541   22.2758 N   0  0  0  0  0  0  0  0  0  0  0  0
   15.6266  -16.6327   21.0734 C   0  0  0  0  0  0  0  0  0  0  0  0
   14.2213  -17.1899   20.8459 C   0  0  0  0  0  0  0  0  0  0  0  0
   13.6642  -16.7151   19.5355 C   0  0  0  0  0  0  0  0  0  0  0  0
   12.7711  -15.5280   19.7422 C   0  0  2  0  0  0  0  0  0  0  0  0
   11.3657  -15.9214   19.5421 N   0  0  0  0  0  0  0  0  0  0  0  0
   13.0781  -14.3437   18.9289 C   0  0  0  0  0  0  0  0  0  0  0  0
   13.9368  -13.5045   19.2494 O   0  0  0  0  0  0  0  0  0  0  0  0
   12.4080  -14.0812   17.7177 O   0  0  0  0  0  0  0  0  0  0  0  0
  2  1  1  1
  2  3  1  0
  4  3  1  0
  4  5  2  0
  6  5  1  0
  7  6  1  0
  8  7  2  0
  9  8  1  0
 10  9  2  0
 10 11  1  0
 11 12  2  0
 12  7  1  0
 12  4  1  0
 13  2  1  0
 14 13  2  0
 15 13  1  0
 16 17  1  6
 16 15  1  0
 17 18  1  0
 18 19  1  0
 19 20  1  0
 20 21  1  0
 22 32  1  0
 22 16  1  0
 23 22  2  0
 24 25  1  0
 25 26  2  0
 27 25  1  0
 27 28  1  0
 28 29  1  0
 29 30  1  0
 31 30  1  6
 31 32  1  0
 33 31  1  0
 34 33  2  0
 35 33  1  0
M  END
$$$$
