WKR.pdb
     RDKit          3D

 35 36  0  0  1  0  0  0  0  0999 V2000
    6.1313  -17.5872   25.2464 N   0  0  0  0  0  0  0  0  0  0  0  0
    6.9527  -16.5667   24.6576 C   0  0  1  0  0  0  0  0  0  0  0  0
    8.0902  -16.1063   25.5425 C   0  0  0  0  0  0  0  0  0  0  0  0
    7.7005  -15.0763   26.5197 C   0  0  0  0  0  0  0  0  0  0  0  0
    7.3907  -15.2834   27.8465 C   0  0  0  0  0  0  0  0  0  0  0  0
    7.0498  -14.1016   28.4310 N   0  0  0  0  0  0  0  0  0  0  0  0
    7.1320  -13.1191   27.5052 C   0  0  0  0  0  0  0  0  0  0  0  0
    6.8928  -11.7645   27.6087 C   0  0  0  0  0  0  0  0  0  0  0  0
    7.0625  -10.9801   26.4904 C   0  0  0  0  0  0  0  0  0  0  0  0
    7.4625  -11.5598   25.3092 C   0  0  0  0  0  0  0  0  0  0  0  0
    7.7011  -12.8997   25.1988 C   0  0  0  0  0  0  0  0  0  0  0  0
    7.5381  -13.7092   26.3029 C   0  0  0  0  0  0  0  0  0  0  0  0
    7.4293  -16.9452   23.3028 C   0  0  0  0  0  0  0  0  0  0  0  0
    7.5443  -18.1032   22.8806 O   0  0  0  0  0  0  0  0  0  0  0  0
    7.7888  -15.8831   22.3956 N   0  0  0  0  0  0  0  0  0  0  0  0
    8.2039  -16.1638   21.0255 C   0  0  1  0  0  0  0  0  0  0  0  0
    8.0223  -14.8265   20.2931 C   0  0  0  0  0  0  0  0  0  0  0  0
    8.3022  -14.9136   18.8323 C   0  0  0  0  0  0  0  0  0  0  0  0
    7.9210  -13.6004   18.1849 C   0  0  0  0  0  0  0  0  0  0  0  0
    8.0487  -13.6379   16.6719 C   0  0  0  0  0  0  0  0  0  0  0  0
    7.5595  -12.3618   16.1285 N   0  0  0  0  0  0  0  0  0  0  0  0
    9.6127  -16.6075   21.0450 C   0  0  0  0  0  0  0  0  0  0  0  0
   10.4244  -16.1502   21.9074 O   0  0  0  0  0  0  0  0  0  0  0  0
   15.9582  -22.1618   19.2769 N   0  0  0  0  0  0  0  0  0  0  0  0
   15.4864  -21.6901   18.0088 C   0  0  0  0  0  0  0  0  0  0  0  0
   15.4257  -22.4934   17.0114 N   0  0  0  0  0  0  0  0  0  0  0  0
   15.0801  -20.3338   17.8350 N   0  0  0  0  0  0  0  0  0  0  0  0
   13.6881  -19.9594   17.7155 C   0  0  0  0  0  0  0  0  0  0  0  0
   13.3433  -19.1269   18.9504 C   0  0  0  0  0  0  0  0  0  0  0  0
   11.9049  -18.6992   18.9217 C   0  0  0  0  0  0  0  0  0  0  0  0
   11.5789  -17.8666   20.1258 C   0  0  2  0  0  0  0  0  0  0  0  0
   10.1416  -17.5438   20.1337 N   0  0  0  0  0  0  0  0  0  0  0  0
   12.3669  -16.6377   20.2897 C   0  0  0  0  0  0  0  0  0  0  0  0
   13.1979  -16.4809   21.2003 O   0  0  0  0  0  0  0  0  0  0  0  0
   12.2273  -15.5440   19.4126 O   0  0  0  0  0  0  0  0  0  0  0  0
  2  1  1  1
  2  3  1  0
  4  3  1  0
  4  5  2  0
  6  5  1  0
  7  6  1  0
  8  7  2  0
  9  8  1  0
 10  9  2  0
 10 11  1  0
 11 12  2  0
 12  7  1  0
 12  4  1  0
 13  2  1  0
 14 13  2  0
 15 13  1  0
 16 17  1  6
 16 15  1  0
 17 18  1  0
 18 19  1  0
 19 20  1  0
 20 21  1  0
 22 32  1  0
 22 16  1  0
 23 22  2  0
 24 25  1  0
 25 26  2  0
 27 25  1  0
 27 28  1  0
 28 29  1  0
 29 30  1  0
 31 30  1  6
 31 32  1  0
 33 31  1  0
 34 33  2  0
 35 33  1  0
M  END
$$$$
