WKR.pdb
     RDKit          3D

 35 36  0  0  1  0  0  0  0  0999 V2000
    6.0195  -17.6744   24.5254 N   0  0  0  0  0  0  0  0  0  0  0  0
    6.7533  -16.4925   24.1683 C   0  0  1  0  0  0  0  0  0  0  0  0
    7.4348  -15.8153   25.3371 C   0  0  0  0  0  0  0  0  0  0  0  0
    6.6570  -14.7064   25.9143 C   0  0  0  0  0  0  0  0  0  0  0  0
    5.4972  -14.8174   26.6504 C   0  0  0  0  0  0  0  0  0  0  0  0
    5.0468  -13.5785   26.9920 N   0  0  0  0  0  0  0  0  0  0  0  0
    5.8963  -12.6534   26.4903 C   0  0  0  0  0  0  0  0  0  0  0  0
    5.8747  -11.2765   26.5698 C   0  0  0  0  0  0  0  0  0  0  0  0
    6.8859  -10.5673   25.9620 C   0  0  0  0  0  0  0  0  0  0  0  0
    7.8831  -11.2417   25.2974 C   0  0  0  0  0  0  0  0  0  0  0  0
    7.9115  -12.6044   25.2142 C   0  0  0  0  0  0  0  0  0  0  0  0
    6.9107  -13.3398   25.8130 C   0  0  0  0  0  0  0  0  0  0  0  0
    7.6978  -16.7378   23.0486 C   0  0  0  0  0  0  0  0  0  0  0  0
    8.3028  -17.7973   22.8399 O   0  0  0  0  0  0  0  0  0  0  0  0
    7.9355  -15.6590   22.1212 N   0  0  0  0  0  0  0  0  0  0  0  0
    8.9875  -15.7427   21.1139 C   0  0  1  0  0  0  0  0  0  0  0  0
    8.7229  -14.5457   20.1894 C   0  0  0  0  0  0  0  0  0  0  0  0
    8.0663  -14.9268   18.9074 C   0  0  0  0  0  0  0  0  0  0  0  0
    8.3696  -13.8665   17.8716 C   0  0  0  0  0  0  0  0  0  0  0  0
    7.6995  -14.1466   16.5377 C   0  0  0  0  0  0  0  0  0  0  0  0
    8.1204  -13.1164   15.5762 N   0  0  0  0  0  0  0  0  0  0  0  0
   10.2953  -15.6494   21.7943 C   0  0  0  0  0  0  0  0  0  0  0  0
   10.4081  -15.0368   22.9005 O   0  0  0  0  0  0  0  0  0  0  0  0
   10.9428  -21.0815   25.3699 N   0  0  0  0  0  0  0  0  0  0  0  0
   11.2564  -19.7203   25.6888 C   0  0  0  0  0  0  0  0  0  0  0  0
   10.3694  -18.9715   26.2331 N   0  0  0  0  0  0  0  0  0  0  0  0
   12.5467  -19.1796   25.4101 N   0  0  0  0  0  0  0  0  0  0  0  0
   13.1519  -19.2756   24.0999 C   0  0  0  0  0  0  0  0  0  0  0  0
   12.2680  -18.4773   23.1416 C   0  0  0  0  0  0  0  0  0  0  0  0
   12.4173  -17.0029   23.3800 C   0  0  0  0  0  0  0  0  0  0  0  0
   12.7035  -16.2877   22.0932 C   0  0  2  0  0  0  0  0  0  0  0  0
   11.4778  -16.2179   21.2791 N   0  0  0  0  0  0  0  0  0  0  0  0
   13.8065  -16.8297   21.2884 C   0  0  0  0  0  0  0  0  0  0  0  0
   13.6402  -17.3489   20.1717 O   0  0  0  0  0  0  0  0  0  0  0  0
   15.1409  -16.7948   21.7391 O   0  0  0  0  0  0  0  0  0  0  0  0
  2  1  1  1
  2  3  1  0
  4  3  1  0
  4  5  2  0
  6  5  1  0
  7  6  1  0
  8  7  2  0
  9  8  1  0
 10  9  2  0
 10 11  1  0
 11 12  2  0
 12  7  1  0
 12  4  1  0
 13  2  1  0
 14 13  2  0
 15 13  1  0
 16 17  1  6
 16 15  1  0
 17 18  1  0
 18 19  1  0
 19 20  1  0
 20 21  1  0
 22 32  1  0
 22 16  1  0
 23 22  2  0
 24 25  1  0
 25 26  2  0
 27 25  1  0
 27 28  1  0
 28 29  1  0
 29 30  1  0
 31 30  1  1
 31 32  1  0
 33 31  1  0
 34 33  2  0
 35 33  1  0
M  END
$$$$
