WKR.pdb
     RDKit          3D

 35 36  0  0  1  0  0  0  0  0999 V2000
    6.0189  -17.6282   24.2819 N   0  0  0  0  0  0  0  0  0  0  0  0
    6.6895  -16.3870   24.0128 C   0  0  1  0  0  0  0  0  0  0  0  0
    7.4192  -15.8109   25.2065 C   0  0  0  0  0  0  0  0  0  0  0  0
    6.7122  -14.6899   25.8479 C   0  0  0  0  0  0  0  0  0  0  0  0
    5.4710  -14.7404   26.4449 C   0  0  0  0  0  0  0  0  0  0  0  0
    5.1288  -13.5047   26.9035 N   0  0  0  0  0  0  0  0  0  0  0  0
    6.1297  -12.6417   26.6164 C   0  0  0  0  0  0  0  0  0  0  0  0
    6.2562  -11.2931   26.8773 C   0  0  0  0  0  0  0  0  0  0  0  0
    7.4042  -10.6505   26.4726 C   0  0  0  0  0  0  0  0  0  0  0  0
    8.3873  -11.3611   25.8248 C   0  0  0  0  0  0  0  0  0  0  0  0
    8.2695  -12.6961   25.5628 C   0  0  0  0  0  0  0  0  0  0  0  0
    7.1298  -13.3648   25.9562 C   0  0  0  0  0  0  0  0  0  0  0  0
    7.5706  -16.4746   22.8204 C   0  0  0  0  0  0  0  0  0  0  0  0
    8.1061  -17.5080   22.3988 O   0  0  0  0  0  0  0  0  0  0  0  0
    7.8288  -15.2611   22.0847 N   0  0  0  0  0  0  0  0  0  0  0  0
    8.6553  -15.2643   20.8825 C   0  0  1  0  0  0  0  0  0  0  0  0
    8.6463  -13.8025   20.4128 C   0  0  0  0  0  0  0  0  0  0  0  0
    7.4556  -13.4580   19.5861 C   0  0  0  0  0  0  0  0  0  0  0  0
    7.4603  -14.3208   18.3433 C   0  0  0  0  0  0  0  0  0  0  0  0
    8.3990  -13.7939   17.2717 C   0  0  0  0  0  0  0  0  0  0  0  0
    8.2833  -14.6530   16.0837 N   0  0  0  0  0  0  0  0  0  0  0  0
   10.0091  -15.7295   21.2468 C   0  0  0  0  0  0  0  0  0  0  0  0
   10.6384  -15.1994   22.2136 O   0  0  0  0  0  0  0  0  0  0  0  0
   10.2915  -19.4486   24.9234 N   0  0  0  0  0  0  0  0  0  0  0  0
   10.6214  -20.7985   24.5742 C   0  0  0  0  0  0  0  0  0  0  0  0
   10.1222  -21.7713   25.2437 N   0  0  0  0  0  0  0  0  0  0  0  0
   11.5012  -21.0815   23.4875 N   0  0  0  0  0  0  0  0  0  0  0  0
   11.1958  -20.6855   22.1303 C   0  0  0  0  0  0  0  0  0  0  0  0
   11.2017  -19.1571   22.1003 C   0  0  0  0  0  0  0  0  0  0  0  0
   12.1435  -18.6471   21.0487 C   0  0  0  0  0  0  0  0  0  0  0  0
   12.0516  -17.1542   20.9387 C   0  0  2  0  0  0  0  0  0  0  0  0
   10.6801  -16.7659   20.5667 N   0  0  0  0  0  0  0  0  0  0  0  0
   13.0142  -16.5163   20.0307 C   0  0  0  0  0  0  0  0  0  0  0  0
   12.6764  -15.9173   18.9956 O   0  0  0  0  0  0  0  0  0  0  0  0
   14.4006  -16.5448   20.2799 O   0  0  0  0  0  0  0  0  0  0  0  0
  2  1  1  1
  2  3  1  0
  4  3  1  0
  4  5  2  0
  6  5  1  0
  7  6  1  0
  8  7  2  0
  9  8  1  0
 10  9  2  0
 10 11  1  0
 11 12  2  0
 12  7  1  0
 12  4  1  0
 13  2  1  0
 14 13  2  0
 15 13  1  0
 16 17  1  1
 16 15  1  0
 17 18  1  0
 18 19  1  0
 19 20  1  0
 20 21  1  0
 22 32  1  0
 22 16  1  0
 23 22  2  0
 24 25  1  0
 25 26  2  0
 27 25  1  0
 27 28  1  0
 28 29  1  0
 29 30  1  0
 31 30  1  6
 31 32  1  0
 33 31  1  0
 34 33  2  0
 35 33  1  0
M  END
$$$$
