WKR.pdb
     RDKit          3D

 35 36  0  0  1  0  0  0  0  0999 V2000
    6.0296  -18.0791   24.5623 N   0  0  0  0  0  0  0  0  0  0  0  0
    6.6356  -16.8067   24.2853 C   0  0  1  0  0  0  0  0  0  0  0  0
    7.4104  -16.2283   25.4490 C   0  0  0  0  0  0  0  0  0  0  0  0
    6.7190  -15.1197   26.1278 C   0  0  0  0  0  0  0  0  0  0  0  0
    5.5397  -15.2030   26.8362 C   0  0  0  0  0  0  0  0  0  0  0  0
    5.1902  -13.9702   27.2973 N   0  0  0  0  0  0  0  0  0  0  0  0
    6.1253  -13.0767   26.9018 C   0  0  0  0  0  0  0  0  0  0  0  0
    6.2197  -11.7182   27.1210 C   0  0  0  0  0  0  0  0  0  0  0  0
    7.2995  -11.0421   26.5998 C   0  0  0  0  0  0  0  0  0  0  0  0
    8.2484  -11.7304   25.8808 C   0  0  0  0  0  0  0  0  0  0  0  0
    8.1619  -13.0751   25.6594 C   0  0  0  0  0  0  0  0  0  0  0  0
    7.0904  -13.7771   26.1691 C   0  0  0  0  0  0  0  0  0  0  0  0
    7.4492  -16.8337   23.0430 C   0  0  0  0  0  0  0  0  0  0  0  0
    8.1609  -17.7761   22.6722 O   0  0  0  0  0  0  0  0  0  0  0  0
    7.4125  -15.6710   22.1902 N   0  0  0  0  0  0  0  0  0  0  0  0
    8.2301  -15.5885   20.9847 C   0  0  1  0  0  0  0  0  0  0  0  0
    7.9754  -14.1717   20.4505 C   0  0  0  0  0  0  0  0  0  0  0  0
    8.7962  -13.8388   19.2524 C   0  0  0  0  0  0  0  0  0  0  0  0
    7.8778  -13.6924   18.0591 C   0  0  0  0  0  0  0  0  0  0  0  0
    8.6377  -13.4727   16.7625 C   0  0  0  0  0  0  0  0  0  0  0  0
    7.6758  -13.4705   15.6500 N   0  0  0  0  0  0  0  0  0  0  0  0
    9.6423  -15.8019   21.3617 C   0  0  0  0  0  0  0  0  0  0  0  0
   10.1231  -15.2627   22.4056 O   0  0  0  0  0  0  0  0  0  0  0  0
   10.4249  -20.0488   25.5826 N   0  0  0  0  0  0  0  0  0  0  0  0
   11.6952  -19.6943   25.0225 C   0  0  0  0  0  0  0  0  0  0  0  0
   12.3478  -18.6991   25.4993 N   0  0  0  0  0  0  0  0  0  0  0  0
   12.2507  -20.4340   23.9365 N   0  0  0  0  0  0  0  0  0  0  0  0
   12.8642  -19.7835   22.7997 C   0  0  0  0  0  0  0  0  0  0  0  0
   11.7781  -18.9432   22.1278 C   0  0  0  0  0  0  0  0  0  0  0  0
   12.3335  -18.1941   20.9517 C   0  0  0  0  0  0  0  0  0  0  0  0
   11.9403  -16.7481   21.0151 C   0  0  2  0  0  0  0  0  0  0  0  0
   10.5318  -16.5970   20.6110 N   0  0  0  0  0  0  0  0  0  0  0  0
   12.7815  -15.8193   20.2485 C   0  0  0  0  0  0  0  0  0  0  0  0
   12.8114  -15.7985   19.0063 O   0  0  0  0  0  0  0  0  0  0  0  0
   13.6195  -14.8809   20.8827 O   0  0  0  0  0  0  0  0  0  0  0  0
  2  1  1  1
  2  3  1  0
  4  3  1  0
  4  5  2  0
  6  5  1  0
  7  6  1  0
  8  7  2  0
  9  8  1  0
 10  9  2  0
 10 11  1  0
 11 12  2  0
 12  7  1  0
 12  4  1  0
 13  2  1  0
 14 13  2  0
 15 13  1  0
 16 17  1  1
 16 15  1  0
 17 18  1  0
 18 19  1  0
 19 20  1  0
 20 21  1  0
 22 32  1  0
 22 16  1  0
 23 22  2  0
 24 25  1  0
 25 26  2  0
 27 25  1  0
 27 28  1  0
 28 29  1  0
 29 30  1  0
 31 30  1  6
 31 32  1  0
 33 31  1  0
 34 33  2  0
 35 33  1  0
M  END
$$$$
