HMC.pdb
     RDKit          3D

 25 25  0  0  1  0  0  0  0  0999 V2000
    9.3801  -17.2016   19.9194 N   0  0  0  0  0  0  0  0  0  0  0  0
    8.2951  -17.1830   20.8696 C   0  0  1  0  0  0  0  0  0  0  0  0
    7.9712  -18.6640   21.1329 C   0  0  0  0  0  0  0  0  0  0  0  0
    7.3916  -19.2683   19.8837 C   0  0  0  0  0  0  0  0  0  0  0  0
    6.2475  -18.8731   19.2253 C   0  0  0  0  0  0  0  0  0  0  0  0
    6.0496  -19.6637   18.1485 N   0  0  0  0  0  0  0  0  0  0  0  0
    7.0510  -20.5493   18.1202 C   0  0  0  0  0  0  0  0  0  0  0  0
    7.8647  -20.3091   19.1729 N   0  0  0  0  0  0  0  0  0  0  0  0
    8.7012  -16.6281   22.1923 C   0  0  0  0  0  0  0  0  0  0  0  0
    9.8438  -16.9038   22.6127 O   0  0  0  0  0  0  0  0  0  0  0  0
    7.1582  -11.0426   27.1480 C   0  0  0  0  0  0  0  0  0  0  0  0
    6.2800  -12.5407   26.6542 S   0  0  0  0  0  0  0  0  0  0  0  0
    7.4172  -13.8641   26.1763 C   0  0  0  0  0  0  0  0  0  0  0  0
    7.0798  -14.3823   24.8009 C   0  0  0  0  0  0  0  0  0  0  0  0
    8.1772  -15.3070   24.2761 C   0  0  2  0  0  0  0  0  0  0  0  0
    7.8578  -15.8148   22.9760 N   0  0  0  0  0  0  0  0  0  0  0  0
    8.3384  -16.3966   25.2638 C   0  0  0  0  0  0  0  0  0  0  0  0
    7.4445  -17.2779   25.4508 O   0  0  0  0  0  0  0  0  0  0  0  0
    9.5079  -16.5484   26.0840 N   0  0  0  0  0  0  0  0  0  0  0  0
    9.6895  -17.7236   26.9195 C   0  0  1  0  0  0  0  0  0  0  0  0
   10.7275  -18.6565   26.3070 C   0  0  0  0  0  0  0  0  0  0  0  0
   12.1660  -17.6408   25.8673 S   0  0  0  0  0  0  0  0  0  0  0  0
   10.1909  -17.3159   28.2460 C   0  0  0  0  0  0  0  0  0  0  0  0
   10.4289  -16.1132   28.4883 O   0  0  0  0  0  0  0  0  0  0  0  0
   10.3950  -18.2773   29.2188 O   0  0  0  0  0  0  0  0  0  0  0  0
  2  1  1  6
  2  9  1  0
  3  4  1  0
  3  2  1  0
  4  5  2  0
  6  5  1  0
  7  6  1  0
  8  7  2  0
  8  4  1  0
  9 10  2  0
 11 12  1  0
 12 13  1  0
 14 13  1  0
 15 14  1  1
 16 15  1  0
 16  9  1  0
 17 15  1  0
 18 17  2  0
 19 17  1  0
 20 23  1  0
 20 19  1  0
 20 21  1  6
 22 21  1  0
 23 25  1  0
 24 23  2  0
M  END
$$$$
