HMC.pdb
     RDKit          3D

 25 25  0  0  1  0  0  0  0  0999 V2000
   10.1893  -14.6769   19.7974 N   0  0  0  0  0  0  0  0  0  0  0  0
    8.9648  -14.2872   20.4525 C   0  0  1  0  0  0  0  0  0  0  0  0
    7.8942  -15.2417   19.8954 C   0  0  0  0  0  0  0  0  0  0  0  0
    7.7112  -14.9697   18.4277 C   0  0  0  0  0  0  0  0  0  0  0  0
    7.5945  -13.7380   17.8211 C   0  0  0  0  0  0  0  0  0  0  0  0
    7.4355  -13.9029   16.4902 N   0  0  0  0  0  0  0  0  0  0  0  0
    7.4503  -15.2184   16.2514 C   0  0  0  0  0  0  0  0  0  0  0  0
    7.6175  -15.8651   17.4268 N   0  0  0  0  0  0  0  0  0  0  0  0
    8.9939  -14.5429   21.9209 C   0  0  0  0  0  0  0  0  0  0  0  0
    9.8317  -15.3618   22.3521 O   0  0  0  0  0  0  0  0  0  0  0  0
    7.3628  -12.1966   28.9808 C   0  0  0  0  0  0  0  0  0  0  0  0
    6.8967  -12.0620   27.2418 S   0  0  0  0  0  0  0  0  0  0  0  0
    6.9411  -13.6650   26.4045 C   0  0  0  0  0  0  0  0  0  0  0  0
    6.9052  -13.4827   24.9079 C   0  0  0  0  0  0  0  0  0  0  0  0
    8.1552  -14.0671   24.2516 C   0  0  2  0  0  0  0  0  0  0  0  0
    8.1253  -13.9047   22.8292 N   0  0  0  0  0  0  0  0  0  0  0  0
    8.2235  -15.4937   24.6372 C   0  0  0  0  0  0  0  0  0  0  0  0
    7.2605  -16.2957   24.4368 O   0  0  0  0  0  0  0  0  0  0  0  0
    9.3735  -16.0855   25.2625 N   0  0  0  0  0  0  0  0  0  0  0  0
    9.3385  -17.4529   25.7536 C   0  0  1  0  0  0  0  0  0  0  0  0
   10.5896  -18.2066   25.3180 C   0  0  0  0  0  0  0  0  0  0  0  0
   10.7261  -18.0210   23.5176 S   0  0  0  0  0  0  0  0  0  0  0  0
    9.3170  -17.4492   27.2290 C   0  0  0  0  0  0  0  0  0  0  0  0
    9.3519  -16.3698   27.8578 O   0  0  0  0  0  0  0  0  0  0  0  0
    9.2579  -18.6516   27.9094 O   0  0  0  0  0  0  0  0  0  0  0  0
  2  1  1  6
  2  9  1  0
  3  4  1  0
  3  2  1  0
  4  5  2  0
  6  5  1  0
  7  6  1  0
  8  7  2  0
  8  4  1  0
  9 10  2  0
 11 12  1  0
 12 13  1  0
 14 13  1  0
 15 14  1  1
 16 15  1  0
 16  9  1  0
 17 15  1  0
 18 17  2  0
 19 17  1  0
 20 23  1  0
 20 19  1  0
 20 21  1  1
 22 21  1  0
 23 25  1  0
 24 23  2  0
M  END
$$$$
