HMC.pdb
     RDKit          3D

 25 25  0  0  1  0  0  0  0  0999 V2000
    9.9942  -16.3097   19.2125 N   0  0  0  0  0  0  0  0  0  0  0  0
    8.8392  -16.0522   20.0373 C   0  0  1  0  0  0  0  0  0  0  0  0
    8.1126  -17.4047   20.1381 C   0  0  0  0  0  0  0  0  0  0  0  0
    7.3831  -17.6663   18.8493 C   0  0  0  0  0  0  0  0  0  0  0  0
    7.4057  -16.8893   17.7115 C   0  0  0  0  0  0  0  0  0  0  0  0
    6.6183  -17.4477   16.7671 N   0  0  0  0  0  0  0  0  0  0  0  0
    6.1014  -18.5628   17.2937 C   0  0  0  0  0  0  0  0  0  0  0  0
    6.5655  -18.6950   18.5565 N   0  0  0  0  0  0  0  0  0  0  0  0
    9.2035  -15.6960   21.4383 C   0  0  0  0  0  0  0  0  0  0  0  0
   10.2965  -16.1087   21.8779 O   0  0  0  0  0  0  0  0  0  0  0  0
    5.7882  -12.5338   27.5296 C   0  0  0  0  0  0  0  0  0  0  0  0
    6.8353  -11.9117   26.1969 S   0  0  0  0  0  0  0  0  0  0  0  0
    7.9841  -13.1730   25.5954 C   0  0  0  0  0  0  0  0  0  0  0  0
    7.6975  -13.5069   24.1530 C   0  0  0  0  0  0  0  0  0  0  0  0
    8.6773  -14.5537   23.6247 C   0  0  2  0  0  0  0  0  0  0  0  0
    8.3740  -14.9215   22.2745 N   0  0  0  0  0  0  0  0  0  0  0  0
    8.6066  -15.7164   24.5367 C   0  0  0  0  0  0  0  0  0  0  0  0
    7.5401  -16.3849   24.6994 O   0  0  0  0  0  0  0  0  0  0  0  0
    9.7271  -16.1828   25.3052 N   0  0  0  0  0  0  0  0  0  0  0  0
    9.6175  -17.3594   26.1512 C   0  0  1  0  0  0  0  0  0  0  0  0
   10.5361  -18.4655   25.6455 C   0  0  0  0  0  0  0  0  0  0  0  0
   10.2372  -18.6360   23.8634 S   0  0  0  0  0  0  0  0  0  0  0  0
   10.0440  -17.0247   27.5235 C   0  0  0  0  0  0  0  0  0  0  0  0
   10.5008  -15.8908   27.7834 O   0  0  0  0  0  0  0  0  0  0  0  0
    9.9335  -17.9776   28.5195 O   0  0  0  0  0  0  0  0  0  0  0  0
  2  1  1  6
  2  9  1  0
  3  4  1  0
  3  2  1  0
  4  5  2  0
  6  5  1  0
  7  6  1  0
  8  7  2  0
  8  4  1  0
  9 10  2  0
 11 12  1  0
 12 13  1  0
 14 13  1  0
 15 14  1  1
 16 15  1  0
 16  9  1  0
 17 15  1  0
 18 17  2  0
 19 17  1  0
 20 23  1  0
 20 19  1  0
 20 21  1  6
 22 21  1  0
 23 25  1  0
 24 23  2  0
M  END
$$$$
