HMC.pdb
     RDKit          3D

 25 25  0  0  1  0  0  0  0  0999 V2000
    7.3749  -15.8133   20.3712 N   0  0  0  0  0  0  0  0  0  0  0  0
    8.6870  -15.2364   20.5333 C   0  0  1  0  0  0  0  0  0  0  0  0
    8.6317  -13.9013   19.7704 C   0  0  0  0  0  0  0  0  0  0  0  0
    8.3480  -14.1774   18.3195 C   0  0  0  0  0  0  0  0  0  0  0  0
    8.1128  -15.4051   17.7399 C   0  0  0  0  0  0  0  0  0  0  0  0
    7.9068  -15.2473   16.4146 N   0  0  0  0  0  0  0  0  0  0  0  0
    8.0091  -13.9401   16.1527 C   0  0  0  0  0  0  0  0  0  0  0  0
    8.2768  -13.2915   17.3084 N   0  0  0  0  0  0  0  0  0  0  0  0
    8.9807  -14.8691   21.9479 C   0  0  0  0  0  0  0  0  0  0  0  0
   10.0873  -14.3473   22.1956 O   0  0  0  0  0  0  0  0  0  0  0  0
    7.0884  -11.5477   27.3966 C   0  0  0  0  0  0  0  0  0  0  0  0
    5.9778  -12.2235   26.1438 S   0  0  0  0  0  0  0  0  0  0  0  0
    6.8826  -13.0574   24.8178 C   0  0  0  0  0  0  0  0  0  0  0  0
    7.2162  -14.4741   25.2128 C   0  0  0  0  0  0  0  0  0  0  0  0
    8.3904  -15.0117   24.3961 C   0  0  2  0  0  0  0  0  0  0  0  0
    8.0701  -15.0841   23.0023 N   0  0  0  0  0  0  0  0  0  0  0  0
    8.7328  -16.3410   24.9477 C   0  0  0  0  0  0  0  0  0  0  0  0
    8.1205  -17.3965   24.5989 O   0  0  0  0  0  0  0  0  0  0  0  0
    9.7768  -16.5473   25.9126 N   0  0  0  0  0  0  0  0  0  0  0  0
   10.1018  -17.8805   26.3912 C   0  0  1  0  0  0  0  0  0  0  0  0
   11.2700  -18.4590   25.6015 C   0  0  0  0  0  0  0  0  0  0  0  0
   11.6768  -20.0634   26.3464 S   0  0  0  0  0  0  0  0  0  0  0  0
   10.5163  -17.8120   27.8057 C   0  0  0  0  0  0  0  0  0  0  0  0
   10.7314  -16.7065   28.3473 O   0  0  0  0  0  0  0  0  0  0  0  0
   10.6646  -18.9828   28.5264 O   0  0  0  0  0  0  0  0  0  0  0  0
  2  1  1  1
  2  9  1  0
  3  4  1  0
  3  2  1  0
  4  5  2  0
  6  5  1  0
  7  6  1  0
  8  7  2  0
  8  4  1  0
  9 10  2  0
 11 12  1  0
 12 13  1  0
 14 13  1  0
 15 14  1  1
 16 15  1  0
 16  9  1  0
 17 15  1  0
 18 17  2  0
 19 17  1  0
 20 23  1  0
 20 19  1  0
 20 21  1  6
 22 21  1  0
 23 25  1  0
 24 23  2  0
M  END
$$$$
