HMC.pdb
     RDKit          3D

 25 25  0  0  1  0  0  0  0  0999 V2000
    9.6914  -15.6630   19.5737 N   0  0  0  0  0  0  0  0  0  0  0  0
    8.5411  -15.9289   20.4025 C   0  0  1  0  0  0  0  0  0  0  0  0
    8.3765  -17.4585   20.3757 C   0  0  0  0  0  0  0  0  0  0  0  0
    7.7518  -17.8613   19.0684 C   0  0  0  0  0  0  0  0  0  0  0  0
    6.4420  -17.6749   18.6833 C   0  0  0  0  0  0  0  0  0  0  0  0
    6.2596  -18.1774   17.4431 N   0  0  0  0  0  0  0  0  0  0  0  0
    7.4339  -18.6765   17.0434 C   0  0  0  0  0  0  0  0  0  0  0  0
    8.3386  -18.4847   18.0295 N   0  0  0  0  0  0  0  0  0  0  0  0
    8.7740  -15.5833   21.8338 C   0  0  0  0  0  0  0  0  0  0  0  0
    9.9242  -15.7440   22.2913 O   0  0  0  0  0  0  0  0  0  0  0  0
    7.6831  -11.6133   27.9867 C   0  0  0  0  0  0  0  0  0  0  0  0
    7.4938  -12.1009   26.2587 S   0  0  0  0  0  0  0  0  0  0  0  0
    6.8426  -13.7810   26.0982 C   0  0  0  0  0  0  0  0  0  0  0  0
    6.6549  -14.1405   24.6457 C   0  0  0  0  0  0  0  0  0  0  0  0
    7.9394  -14.7149   24.0500 C   0  0  2  0  0  0  0  0  0  0  0  0
    7.7605  -15.0883   22.6793 N   0  0  0  0  0  0  0  0  0  0  0  0
    8.3278  -15.8725   24.8853 C   0  0  0  0  0  0  0  0  0  0  0  0
    7.5500  -16.8557   25.0826 O   0  0  0  0  0  0  0  0  0  0  0  0
    9.6045  -15.9809   25.5349 N   0  0  0  0  0  0  0  0  0  0  0  0
    9.9535  -17.1606   26.3086 C   0  0  1  0  0  0  0  0  0  0  0  0
   11.3998  -17.5618   26.0436 C   0  0  0  0  0  0  0  0  0  0  0  0
   11.5582  -17.8425   24.2574 S   0  0  0  0  0  0  0  0  0  0  0  0
    9.8354  -16.8616   27.7487 C   0  0  0  0  0  0  0  0  0  0  0  0
    9.4806  -15.7257   28.1303 O   0  0  0  0  0  0  0  0  0  0  0  0
   10.1211  -17.8503   28.6723 O   0  0  0  0  0  0  0  0  0  0  0  0
  2  1  1  6
  2  9  1  0
  3  4  1  0
  3  2  1  0
  4  5  2  0
  6  5  1  0
  7  6  1  0
  8  7  2  0
  8  4  1  0
  9 10  2  0
 11 12  1  0
 12 13  1  0
 14 13  1  0
 15 14  1  1
 16 15  1  0
 16  9  1  0
 17 15  1  0
 18 17  2  0
 19 17  1  0
 20 23  1  0
 20 19  1  0
 20 21  1  1
 22 21  1  0
 23 25  1  0
 24 23  2  0
M  END
$$$$
