HMC.pdb
     RDKit          3D

 25 25  0  0  1  0  0  0  0  0999 V2000
    9.3465  -15.8933   20.1250 N   0  0  0  0  0  0  0  0  0  0  0  0
    8.1896  -16.0235   20.9765 C   0  0  1  0  0  0  0  0  0  0  0  0
    7.8522  -17.5247   20.9628 C   0  0  0  0  0  0  0  0  0  0  0  0
    7.4215  -17.9175   19.5765 C   0  0  0  0  0  0  0  0  0  0  0  0
    7.3842  -17.1105   18.4602 C   0  0  0  0  0  0  0  0  0  0  0  0
    6.9339  -17.8210   17.4037 N   0  0  0  0  0  0  0  0  0  0  0  0
    6.6877  -19.0612   17.8387 C   0  0  0  0  0  0  0  0  0  0  0  0
    6.9835  -19.1192   19.1566 N   0  0  0  0  0  0  0  0  0  0  0  0
    8.4873  -15.7003   22.4010 C   0  0  0  0  0  0  0  0  0  0  0  0
    9.6625  -15.8436   22.7966 O   0  0  0  0  0  0  0  0  0  0  0  0
    8.0977  -10.8028   26.5188 C   0  0  0  0  0  0  0  0  0  0  0  0
    6.6489  -11.8792   26.5598 S   0  0  0  0  0  0  0  0  0  0  0  0
    6.4811  -12.8444   25.0389 C   0  0  0  0  0  0  0  0  0  0  0  0
    6.5120  -14.3214   25.3420 C   0  0  0  0  0  0  0  0  0  0  0  0
    7.7257  -14.9904   24.6985 C   0  0  2  0  0  0  0  0  0  0  0  0
    7.5075  -15.2447   23.3063 N   0  0  0  0  0  0  0  0  0  0  0  0
    7.9835  -16.2394   25.4481 C   0  0  0  0  0  0  0  0  0  0  0  0
    7.2547  -17.2701   25.3168 O   0  0  0  0  0  0  0  0  0  0  0  0
    9.0695  -16.3901   26.3762 N   0  0  0  0  0  0  0  0  0  0  0  0
    9.6067  -17.7026   26.6941 C   0  0  1  0  0  0  0  0  0  0  0  0
   10.6563  -18.1106   25.6670 C   0  0  0  0  0  0  0  0  0  0  0  0
   11.3223  -19.7155   26.1917 S   0  0  0  0  0  0  0  0  0  0  0  0
   10.2710  -17.6606   28.0110 C   0  0  0  0  0  0  0  0  0  0  0  0
   10.4438  -16.5699   28.5960 O   0  0  0  0  0  0  0  0  0  0  0  0
   10.7005  -18.8397   28.5918 O   0  0  0  0  0  0  0  0  0  0  0  0
  2  1  1  6
  2  9  1  0
  3  4  1  0
  3  2  1  0
  4  5  2  0
  6  5  1  0
  7  6  1  0
  8  7  2  0
  8  4  1  0
  9 10  2  0
 11 12  1  0
 12 13  1  0
 14 13  1  0
 15 14  1  1
 16 15  1  0
 16  9  1  0
 17 15  1  0
 18 17  2  0
 19 17  1  0
 20 23  1  0
 20 19  1  0
 20 21  1  6
 22 21  1  0
 23 25  1  0
 24 23  2  0
M  END
$$$$
