HMC.pdb
     RDKit          3D

 25 25  0  0  1  0  0  0  0  0999 V2000
   10.4247  -13.6811   20.2093 N   0  0  0  0  0  0  0  0  0  0  0  0
    9.1318  -13.9680   20.7807 C   0  0  1  0  0  0  0  0  0  0  0  0
    8.6178  -15.1944   20.0064 C   0  0  0  0  0  0  0  0  0  0  0  0
    8.2657  -14.7770   18.6053 C   0  0  0  0  0  0  0  0  0  0  0  0
    8.4507  -13.5344   18.0392 C   0  0  0  0  0  0  0  0  0  0  0  0
    8.0022  -13.5465   16.7655 N   0  0  0  0  0  0  0  0  0  0  0  0
    7.5383  -14.7768   16.5227 C   0  0  0  0  0  0  0  0  0  0  0  0
    7.6982  -15.5228   17.6388 N   0  0  0  0  0  0  0  0  0  0  0  0
    9.2185  -14.4085   22.2023 C   0  0  0  0  0  0  0  0  0  0  0  0
   10.2947  -14.9064   22.5923 O   0  0  0  0  0  0  0  0  0  0  0  0
    7.4001  -11.3454   27.8482 C   0  0  0  0  0  0  0  0  0  0  0  0
    6.1331  -12.1921   26.8801 S   0  0  0  0  0  0  0  0  0  0  0  0
    6.7569  -12.7214   25.2666 C   0  0  0  0  0  0  0  0  0  0  0  0
    6.9198  -14.2201   25.2265 C   0  0  0  0  0  0  0  0  0  0  0  0
    8.2066  -14.6151   24.5035 C   0  0  2  0  0  0  0  0  0  0  0  0
    8.1481  -14.2856   23.1112 N   0  0  0  0  0  0  0  0  0  0  0  0
    8.3967  -16.0671   24.7137 C   0  0  0  0  0  0  0  0  0  0  0  0
    7.5402  -16.9235   24.3347 O   0  0  0  0  0  0  0  0  0  0  0  0
    9.5547  -16.6242   25.3558 N   0  0  0  0  0  0  0  0  0  0  0  0
    9.7042  -18.0610   25.5155 C   0  0  1  0  0  0  0  0  0  0  0  0
   11.0308  -18.5263   24.9267 C   0  0  0  0  0  0  0  0  0  0  0  0
   12.3193  -17.4241   25.5743 S   0  0  0  0  0  0  0  0  0  0  0  0
    9.7151  -18.4017   26.9511 C   0  0  0  0  0  0  0  0  0  0  0  0
    9.6451  -17.5004   27.8141 O   0  0  0  0  0  0  0  0  0  0  0  0
    9.8034  -19.7278   27.3328 O   0  0  0  0  0  0  0  0  0  0  0  0
  2  1  1  6
  2  9  1  0
  3  4  1  0
  3  2  1  0
  4  5  2  0
  6  5  1  0
  7  6  1  0
  8  7  2  0
  8  4  1  0
  9 10  2  0
 11 12  1  0
 12 13  1  0
 14 13  1  0
 15 14  1  1
 16 15  1  0
 16  9  1  0
 17 15  1  0
 18 17  2  0
 19 17  1  0
 20 23  1  0
 20 19  1  0
 20 21  1  1
 22 21  1  0
 23 25  1  0
 24 23  2  0
M  END
$$$$
