HMC.pdb
     RDKit          3D

 25 25  0  0  1  0  0  0  0  0999 V2000
    9.7829  -16.3108   19.2453 N   0  0  0  0  0  0  0  0  0  0  0  0
    8.6559  -16.3267   20.1454 C   0  0  1  0  0  0  0  0  0  0  0  0
    8.3234  -17.8164   20.3406 C   0  0  0  0  0  0  0  0  0  0  0  0
    7.4327  -18.2708   19.2174 C   0  0  0  0  0  0  0  0  0  0  0  0
    7.0062  -17.5214   18.1425 C   0  0  0  0  0  0  0  0  0  0  0  0
    6.2127  -18.2758   17.3519 N   0  0  0  0  0  0  0  0  0  0  0  0
    6.1338  -19.4868   17.9132 C   0  0  0  0  0  0  0  0  0  0  0  0
    6.8739  -19.4833   19.0447 N   0  0  0  0  0  0  0  0  0  0  0  0
    9.0006  -15.8194   21.5042 C   0  0  0  0  0  0  0  0  0  0  0  0
   10.1891  -15.9107   21.8749 O   0  0  0  0  0  0  0  0  0  0  0  0
    6.4651  -11.5795   27.7829 C   0  0  0  0  0  0  0  0  0  0  0  0
    6.1191  -12.2868   26.1582 S   0  0  0  0  0  0  0  0  0  0  0  0
    7.4695  -13.3423   25.5793 C   0  0  0  0  0  0  0  0  0  0  0  0
    7.1839  -13.8547   24.1900 C   0  0  0  0  0  0  0  0  0  0  0  0
    8.3373  -14.7122   23.6713 C   0  0  2  0  0  0  0  0  0  0  0  0
    8.0506  -15.2478   22.3746 N   0  0  0  0  0  0  0  0  0  0  0  0
    8.5662  -15.7829   24.6662 C   0  0  0  0  0  0  0  0  0  0  0  0
    7.6608  -16.6118   24.9886 O   0  0  0  0  0  0  0  0  0  0  0  0
    9.8191  -15.9738   25.3425 N   0  0  0  0  0  0  0  0  0  0  0  0
   10.0353  -17.1196   26.2099 C   0  0  1  0  0  0  0  0  0  0  0  0
   11.4573  -17.6451   26.0525 C   0  0  0  0  0  0  0  0  0  0  0  0
   11.7023  -18.0054   24.2905 S   0  0  0  0  0  0  0  0  0  0  0  0
    9.8685  -16.7134   27.6186 C   0  0  0  0  0  0  0  0  0  0  0  0
    9.6119  -15.5246   27.9062 O   0  0  0  0  0  0  0  0  0  0  0  0
    9.9987  -17.6605   28.6176 O   0  0  0  0  0  0  0  0  0  0  0  0
  2  1  1  6
  2  9  1  0
  3  4  1  0
  3  2  1  0
  4  5  2  0
  6  5  1  0
  7  6  1  0
  8  7  2  0
  8  4  1  0
  9 10  2  0
 11 12  1  0
 12 13  1  0
 14 13  1  0
 15 14  1  1
 16 15  1  0
 16  9  1  0
 17 15  1  0
 18 17  2  0
 19 17  1  0
 20 23  1  0
 20 19  1  0
 20 21  1  1
 22 21  1  0
 23 25  1  0
 24 23  2  0
M  END
$$$$
