HMC.pdb
     RDKit          3D

 25 25  0  0  1  0  0  0  0  0999 V2000
    8.6443  -17.5132   21.4844 N   0  0  0  0  0  0  0  0  0  0  0  0
    9.7388  -16.5740   21.5067 C   0  0  1  0  0  0  0  0  0  0  0  0
    9.4452  -15.5933   20.3578 C   0  0  0  0  0  0  0  0  0  0  0  0
    9.4050  -16.3550   19.0618 C   0  0  0  0  0  0  0  0  0  0  0  0
    9.5238  -17.7179   18.8971 C   0  0  0  0  0  0  0  0  0  0  0  0
    9.4457  -18.0231   17.5840 N   0  0  0  0  0  0  0  0  0  0  0  0
    9.2800  -16.8737   16.9213 C   0  0  0  0  0  0  0  0  0  0  0  0
    9.2554  -15.8622   17.8180 N   0  0  0  0  0  0  0  0  0  0  0  0
    9.7528  -15.7396   22.7420 C   0  0  0  0  0  0  0  0  0  0  0  0
   10.6028  -14.8287   22.8191 O   0  0  0  0  0  0  0  0  0  0  0  0
    6.9227  -10.9585   25.7949 C   0  0  0  0  0  0  0  0  0  0  0  0
    6.1154  -12.5723   25.8523 S   0  0  0  0  0  0  0  0  0  0  0  0
    6.9301  -13.7740   24.7729 C   0  0  0  0  0  0  0  0  0  0  0  0
    7.5266  -14.8967   25.5841 C   0  0  0  0  0  0  0  0  0  0  0  0
    8.9195  -15.2644   25.0749 C   0  0  2  0  0  0  0  0  0  0  0  0
    8.8556  -15.9355   23.8115 N   0  0  0  0  0  0  0  0  0  0  0  0
    9.5535  -16.1091   26.1107 C   0  0  0  0  0  0  0  0  0  0  0  0
    9.1104  -17.2602   26.4095 O   0  0  0  0  0  0  0  0  0  0  0  0
   10.7123  -15.7031   26.8563 N   0  0  0  0  0  0  0  0  0  0  0  0
   11.0275  -16.3085   28.1394 C   0  0  1  0  0  0  0  0  0  0  0  0
   10.3469  -15.5449   29.2693 C   0  0  0  0  0  0  0  0  0  0  0  0
   10.5767  -13.7760   28.9338 S   0  0  0  0  0  0  0  0  0  0  0  0
   10.5179  -17.6928   28.1728 C   0  0  0  0  0  0  0  0  0  0  0  0
    9.7943  -18.1213   27.2483 O   0  0  0  0  0  0  0  0  0  0  0  0
   10.8485  -18.5117   29.2369 O   0  0  0  0  0  0  0  0  0  0  0  0
  2  1  1  1
  2  9  1  0
  3  4  1  0
  3  2  1  0
  4  5  2  0
  6  5  1  0
  7  6  1  0
  8  7  2  0
  8  4  1  0
  9 10  2  0
 11 12  1  0
 12 13  1  0
 14 13  1  0
 15 14  1  1
 16 15  1  0
 16  9  1  0
 17 15  1  0
 18 17  2  0
 19 17  1  0
 20 23  1  0
 20 19  1  0
 20 21  1  1
 22 21  1  0
 23 25  1  0
 24 23  2  0
M  END
$$$$
