HMC.pdb
     RDKit          3D

 25 25  0  0  1  0  0  0  0  0999 V2000
   10.6697  -14.3977   19.9517 N   0  0  0  0  0  0  0  0  0  0  0  0
    9.4000  -14.2483   20.6196 C   0  0  1  0  0  0  0  0  0  0  0  0
    8.4667  -15.2596   19.9312 C   0  0  0  0  0  0  0  0  0  0  0  0
    8.1208  -14.7516   18.5587 C   0  0  0  0  0  0  0  0  0  0  0  0
    8.6591  -13.6553   17.9205 C   0  0  0  0  0  0  0  0  0  0  0  0
    8.0890  -13.5153   16.7043 N   0  0  0  0  0  0  0  0  0  0  0  0
    7.2012  -14.5058   16.5686 C   0  0  0  0  0  0  0  0  0  0  0  0
    7.2208  -15.2554   17.6936 N   0  0  0  0  0  0  0  0  0  0  0  0
    9.4511  -14.6698   22.0486 C   0  0  0  0  0  0  0  0  0  0  0  0
   10.3518  -15.4643   22.3888 O   0  0  0  0  0  0  0  0  0  0  0  0
    5.4379  -11.8516   26.4671 C   0  0  0  0  0  0  0  0  0  0  0  0
    6.7361  -12.4795   27.5533 S   0  0  0  0  0  0  0  0  0  0  0  0
    7.8750  -13.5800   26.6789 C   0  0  0  0  0  0  0  0  0  0  0  0
    7.7019  -13.4454   25.1868 C   0  0  0  0  0  0  0  0  0  0  0  0
    8.7229  -14.2979   24.4348 C   0  0  2  0  0  0  0  0  0  0  0  0
    8.5354  -14.2123   23.0178 N   0  0  0  0  0  0  0  0  0  0  0  0
    8.5749  -15.6868   24.9225 C   0  0  0  0  0  0  0  0  0  0  0  0
    7.4905  -16.3347   24.8007 O   0  0  0  0  0  0  0  0  0  0  0  0
    9.6349  -16.4117   25.5663 N   0  0  0  0  0  0  0  0  0  0  0  0
    9.4354  -17.7736   26.0326 C   0  0  1  0  0  0  0  0  0  0  0  0
   10.5539  -18.6777   25.5282 C   0  0  0  0  0  0  0  0  0  0  0  0
   10.6208  -18.4900   23.7241 S   0  0  0  0  0  0  0  0  0  0  0  0
    9.4753  -17.8034   27.5074 C   0  0  0  0  0  0  0  0  0  0  0  0
    9.6747  -16.7531   28.1545 O   0  0  0  0  0  0  0  0  0  0  0  0
    9.2898  -19.0047   28.1667 O   0  0  0  0  0  0  0  0  0  0  0  0
  2  1  1  6
  2  9  1  0
  3  4  1  0
  3  2  1  0
  4  5  2  0
  6  5  1  0
  7  6  1  0
  8  7  2  0
  8  4  1  0
  9 10  2  0
 11 12  1  0
 12 13  1  0
 14 13  1  0
 15 14  1  1
 16 15  1  0
 16  9  1  0
 17 15  1  0
 18 17  2  0
 19 17  1  0
 20 23  1  0
 20 19  1  0
 20 21  1  6
 22 21  1  0
 23 25  1  0
 24 23  2  0
M  END
$$$$
