HMC.pdb
     RDKit          3D

 25 25  0  0  1  0  0  0  0  0999 V2000
   10.1055  -16.6127   20.1107 N   0  0  0  0  0  0  0  0  0  0  0  0
    8.9682  -16.5094   20.9919 C   0  0  1  0  0  0  0  0  0  0  0  0
    8.4920  -17.9579   21.1985 C   0  0  0  0  0  0  0  0  0  0  0  0
    7.8329  -18.4418   19.9363 C   0  0  0  0  0  0  0  0  0  0  0  0
    7.6830  -17.7422   18.7587 C   0  0  0  0  0  0  0  0  0  0  0  0
    7.0328  -18.5090   17.8571 N   0  0  0  0  0  0  0  0  0  0  0  0
    6.7718  -19.6788   18.4497 C   0  0  0  0  0  0  0  0  0  0  0  0
    7.2572  -19.6376   19.7108 N   0  0  0  0  0  0  0  0  0  0  0  0
    9.3384  -16.0195   22.3503 C   0  0  0  0  0  0  0  0  0  0  0  0
   10.4258  -16.4014   22.8299 O   0  0  0  0  0  0  0  0  0  0  0  0
    5.1680  -12.6511   26.6461 C   0  0  0  0  0  0  0  0  0  0  0  0
    6.8350  -11.9822   26.8274 S   0  0  0  0  0  0  0  0  0  0  0  0
    8.0972  -13.1544   26.2745 C   0  0  0  0  0  0  0  0  0  0  0  0
    7.7186  -13.7525   24.9429 C   0  0  0  0  0  0  0  0  0  0  0  0
    8.8209  -14.6715   24.4185 C   0  0  2  0  0  0  0  0  0  0  0  0
    8.5206  -15.1533   23.1039 N   0  0  0  0  0  0  0  0  0  0  0  0
    8.9618  -15.7803   25.3876 C   0  0  0  0  0  0  0  0  0  0  0  0
    8.0986  -16.7053   25.4877 O   0  0  0  0  0  0  0  0  0  0  0  0
   10.0759  -15.9032   26.2860 N   0  0  0  0  0  0  0  0  0  0  0  0
   10.1991  -17.0465   27.1747 C   0  0  1  0  0  0  0  0  0  0  0  0
   11.4389  -17.8610   26.8248 C   0  0  0  0  0  0  0  0  0  0  0  0
   11.5862  -19.1728   28.0706 S   0  0  0  0  0  0  0  0  0  0  0  0
   10.3565  -16.5787   28.5653 C   0  0  0  0  0  0  0  0  0  0  0  0
   10.4191  -15.3560   28.8164 O   0  0  0  0  0  0  0  0  0  0  0  0
   10.4342  -17.5060   29.5882 O   0  0  0  0  0  0  0  0  0  0  0  0
  2  1  1  6
  2  9  1  0
  3  4  1  0
  3  2  1  0
  4  5  2  0
  6  5  1  0
  7  6  1  0
  8  7  2  0
  8  4  1  0
  9 10  2  0
 11 12  1  0
 12 13  1  0
 14 13  1  0
 15 14  1  1
 16 15  1  0
 16  9  1  0
 17 15  1  0
 18 17  2  0
 19 17  1  0
 20 23  1  0
 20 19  1  0
 20 21  1  6
 22 21  1  0
 23 25  1  0
 24 23  2  0
M  END
$$$$
