HMC.pdb
     RDKit          3D

 25 25  0  0  1  0  0  0  0  0999 V2000
    9.2892  -16.0206   19.9424 N   0  0  0  0  0  0  0  0  0  0  0  0
    8.3724  -16.4048   20.9876 C   0  0  1  0  0  0  0  0  0  0  0  0
    8.2202  -17.9292   20.8431 C   0  0  0  0  0  0  0  0  0  0  0  0
    7.4474  -18.2277   19.5881 C   0  0  0  0  0  0  0  0  0  0  0  0
    6.1429  -18.6632   19.5016 C   0  0  0  0  0  0  0  0  0  0  0  0
    5.8062  -18.8271   18.2041 N   0  0  0  0  0  0  0  0  0  0  0  0
    6.8783  -18.5017   17.4744 C   0  0  0  0  0  0  0  0  0  0  0  0
    7.8735  -18.1382   18.3142 N   0  0  0  0  0  0  0  0  0  0  0  0
    8.9366  -16.1934   22.3511 C   0  0  0  0  0  0  0  0  0  0  0  0
   10.1616  -16.3751   22.5083 O   0  0  0  0  0  0  0  0  0  0  0  0
    6.7111  -10.7463   26.5162 C   0  0  0  0  0  0  0  0  0  0  0  0
    6.3425  -12.5032   26.3236 S   0  0  0  0  0  0  0  0  0  0  0  0
    7.5799  -13.3457   25.3078 C   0  0  0  0  0  0  0  0  0  0  0  0
    7.6179  -14.8183   25.6311 C   0  0  0  0  0  0  0  0  0  0  0  0
    8.6521  -15.5443   24.7719 C   0  0  2  0  0  0  0  0  0  0  0  0
    8.1524  -15.8008   23.4547 N   0  0  0  0  0  0  0  0  0  0  0  0
    9.0026  -16.7968   25.4768 C   0  0  0  0  0  0  0  0  0  0  0  0
    8.1771  -17.7513   25.6112 O   0  0  0  0  0  0  0  0  0  0  0  0
   10.2931  -17.0364   26.0606 N   0  0  0  0  0  0  0  0  0  0  0  0
   10.5958  -18.2969   26.7175 C   0  0  1  0  0  0  0  0  0  0  0  0
   12.0630  -18.6600   26.5214 C   0  0  0  0  0  0  0  0  0  0  0  0
   12.4241  -18.4895   24.7508 S   0  0  0  0  0  0  0  0  0  0  0  0
   10.3634  -18.1678   28.1689 C   0  0  0  0  0  0  0  0  0  0  0  0
   10.0505  -17.0629   28.6620 O   0  0  0  0  0  0  0  0  0  0  0  0
   10.4953  -19.2810   28.9786 O   0  0  0  0  0  0  0  0  0  0  0  0
  2  1  1  6
  2  9  1  0
  3  4  1  0
  3  2  1  0
  4  5  2  0
  6  5  1  0
  7  6  1  0
  8  7  2  0
  8  4  1  0
  9 10  2  0
 11 12  1  0
 12 13  1  0
 14 13  1  0
 15 14  1  1
 16 15  1  0
 16  9  1  0
 17 15  1  0
 18 17  2  0
 19 17  1  0
 20 23  1  0
 20 19  1  0
 20 21  1  1
 22 21  1  0
 23 25  1  0
 24 23  2  0
M  END
$$$$
