HMC.pdb
     RDKit          3D

 25 25  0  0  1  0  0  0  0  0999 V2000
    8.5665  -17.7995   19.8807 N   0  0  0  0  0  0  0  0  0  0  0  0
    8.1267  -17.7862   21.2544 C   0  0  1  0  0  0  0  0  0  0  0  0
    8.8623  -18.9630   21.9192 C   0  0  0  0  0  0  0  0  0  0  0  0
    8.2801  -20.2537   21.4126 C   0  0  0  0  0  0  0  0  0  0  0  0
    8.3081  -20.7240   20.1177 C   0  0  0  0  0  0  0  0  0  0  0  0
    7.6740  -21.9147   20.0554 N   0  0  0  0  0  0  0  0  0  0  0  0
    7.2481  -22.1996   21.2904 C   0  0  0  0  0  0  0  0  0  0  0  0
    7.6159  -21.1919   22.1132 N   0  0  0  0  0  0  0  0  0  0  0  0
    8.5816  -16.5720   21.9900 C   0  0  0  0  0  0  0  0  0  0  0  0
    9.6882  -16.0846   21.6798 O   0  0  0  0  0  0  0  0  0  0  0  0
    6.5295  -11.7205   27.8035 C   0  0  0  0  0  0  0  0  0  0  0  0
    6.0515  -12.2379   26.1412 S   0  0  0  0  0  0  0  0  0  0  0  0
    7.4477  -12.9278   25.2206 C   0  0  0  0  0  0  0  0  0  0  0  0
    7.0408  -14.1946   24.5107 C   0  0  0  0  0  0  0  0  0  0  0  0
    8.2186  -14.8027   23.7506 C   0  0  2  0  0  0  0  0  0  0  0  0
    7.8216  -15.9605   23.0075 N   0  0  0  0  0  0  0  0  0  0  0  0
    9.2617  -15.1255   24.7489 C   0  0  0  0  0  0  0  0  0  0  0  0
    9.8487  -14.2285   25.4282 O   0  0  0  0  0  0  0  0  0  0  0  0
    9.6921  -16.4665   25.0315 N   0  0  0  0  0  0  0  0  0  0  0  0
   10.7876  -16.7235   25.9513 C   0  0  1  0  0  0  0  0  0  0  0  0
   10.3402  -17.6678   27.0608 C   0  0  0  0  0  0  0  0  0  0  0  0
    9.1777  -16.7487   28.1088 S   0  0  0  0  0  0  0  0  0  0  0  0
   11.8949  -17.3817   25.2316 C   0  0  0  0  0  0  0  0  0  0  0  0
   11.7843  -17.6542   24.0170 O   0  0  0  0  0  0  0  0  0  0  0  0
   13.0563  -17.6943   25.9139 O   0  0  0  0  0  0  0  0  0  0  0  0
  2  1  1  6
  2  9  1  0
  3  4  1  0
  3  2  1  0
  4  5  2  0
  6  5  1  0
  7  6  1  0
  8  7  2  0
  8  4  1  0
  9 10  2  0
 11 12  1  0
 12 13  1  0
 14 13  1  0
 15 14  1  1
 16 15  1  0
 16  9  1  0
 17 15  1  0
 18 17  2  0
 19 17  1  0
 20 23  1  0
 20 19  1  0
 20 21  1  1
 22 21  1  0
 23 25  1  0
 24 23  2  0
M  END
$$$$
