HMC.pdb
     RDKit          3D

 25 25  0  0  1  0  0  0  0  0999 V2000
    9.9881  -16.6943   19.8868 N   0  0  0  0  0  0  0  0  0  0  0  0
    8.8267  -16.4292   20.7002 C   0  0  1  0  0  0  0  0  0  0  0  0
    8.1007  -17.7814   20.8099 C   0  0  0  0  0  0  0  0  0  0  0  0
    7.5747  -18.1666   19.4547 C   0  0  0  0  0  0  0  0  0  0  0  0
    6.5608  -17.5511   18.7534 C   0  0  0  0  0  0  0  0  0  0  0  0
    6.3708  -18.1902   17.5791 N   0  0  0  0  0  0  0  0  0  0  0  0
    7.2490  -19.1973   17.5318 C   0  0  0  0  0  0  0  0  0  0  0  0
    7.9789  -19.1827   18.6696 N   0  0  0  0  0  0  0  0  0  0  0  0
    9.1802  -16.0579   22.1000 C   0  0  0  0  0  0  0  0  0  0  0  0
   10.1967  -16.5809   22.6015 O   0  0  0  0  0  0  0  0  0  0  0  0
    5.2657  -12.2490   26.3351 C   0  0  0  0  0  0  0  0  0  0  0  0
    7.0111  -11.9226   26.6613 S   0  0  0  0  0  0  0  0  0  0  0  0
    8.0651  -13.2956   26.1355 C   0  0  0  0  0  0  0  0  0  0  0  0
    7.7555  -13.6870   24.7123 C   0  0  0  0  0  0  0  0  0  0  0  0
    8.7164  -14.7666   24.2165 C   0  0  2  0  0  0  0  0  0  0  0  0
    8.4227  -15.1512   22.8689 N   0  0  0  0  0  0  0  0  0  0  0  0
    8.6048  -15.9107   25.1478 C   0  0  0  0  0  0  0  0  0  0  0  0
    7.6152  -16.7051   25.1280 O   0  0  0  0  0  0  0  0  0  0  0  0
    9.5966  -16.2166   26.1409 N   0  0  0  0  0  0  0  0  0  0  0  0
    9.5988  -17.4972   26.8278 C   0  0  1  0  0  0  0  0  0  0  0  0
   10.3661  -18.5346   26.0166 C   0  0  0  0  0  0  0  0  0  0  0  0
   10.4467  -20.0452   27.0197 S   0  0  0  0  0  0  0  0  0  0  0  0
   10.2820  -17.3608   28.1285 C   0  0  0  0  0  0  0  0  0  0  0  0
   10.8287  -16.2822   28.4440 O   0  0  0  0  0  0  0  0  0  0  0  0
   10.3117  -18.4379   28.9953 O   0  0  0  0  0  0  0  0  0  0  0  0
  2  1  1  6
  2  9  1  0
  3  4  1  0
  3  2  1  0
  4  5  2  0
  6  5  1  0
  7  6  1  0
  8  7  2  0
  8  4  1  0
  9 10  2  0
 11 12  1  0
 12 13  1  0
 14 13  1  0
 15 14  1  1
 16 15  1  0
 16  9  1  0
 17 15  1  0
 18 17  2  0
 19 17  1  0
 20 23  1  0
 20 19  1  0
 20 21  1  6
 22 21  1  0
 23 25  1  0
 24 23  2  0
M  END
$$$$
