FVF.pdb
     RDKit          3D

 30 31  0  0  1  0  0  0  0  0999 V2000
    5.6433  -17.1803   24.4850 N   0  0  0  0  0  0  0  0  0  0  0  0
    6.6981  -16.1669   24.4535 C   0  0  1  0  0  0  0  0  0  0  0  0
    6.8477  -15.5535   25.8288 C   0  0  0  0  0  0  0  0  0  0  0  0
    6.4495  -14.1304   25.7222 C   0  0  0  0  0  0  0  0  0  0  0  0
    7.1408  -13.2053   24.9775 C   0  0  0  0  0  0  0  0  0  0  0  0
    6.7273  -11.8714   24.9065 C   0  0  0  0  0  0  0  0  0  0  0  0
    5.5924  -11.4823   25.6069 C   0  0  0  0  0  0  0  0  0  0  0  0
    4.9039  -12.3929   26.3457 C   0  0  0  0  0  0  0  0  0  0  0  0
    5.3295  -13.7034   26.4017 C   0  0  0  0  0  0  0  0  0  0  0  0
    7.9353  -16.8697   24.0202 C   0  0  0  0  0  0  0  0  0  0  0  0
    8.0225  -18.0969   24.3292 O   0  0  0  0  0  0  0  0  0  0  0  0
   12.1871  -16.8942   21.3918 C   0  0  0  0  0  0  0  0  0  0  0  0
   10.8590  -16.3062   21.7639 C   0  0  1  0  0  0  0  0  0  0  0  0
    9.9451  -16.4690   20.5571 C   0  0  0  0  0  0  0  0  0  0  0  0
   10.2433  -16.9227   22.9956 C   0  0  2  0  0  0  0  0  0  0  0  0
    8.9794  -16.2373   23.3013 N   0  0  0  0  0  0  0  0  0  0  0  0
   11.0751  -16.8844   24.1954 C   0  0  0  0  0  0  0  0  0  0  0  0
   11.7857  -15.8349   24.3941 O   0  0  0  0  0  0  0  0  0  0  0  0
   11.2037  -17.8710   25.1922 N   0  0  0  0  0  0  0  0  0  0  0  0
   12.2893  -17.8500   26.1753 C   0  0  1  0  0  0  0  0  0  0  0  0
   11.6739  -17.5672   27.5085 C   0  0  0  0  0  0  0  0  0  0  0  0
   11.3427  -16.1616   27.7623 C   0  0  0  0  0  0  0  0  0  0  0  0
   12.2330  -15.3980   28.4981 C   0  0  0  0  0  0  0  0  0  0  0  0
   11.9503  -14.0788   28.7446 C   0  0  0  0  0  0  0  0  0  0  0  0
   10.7800  -13.5359   28.2528 C   0  0  0  0  0  0  0  0  0  0  0  0
    9.8926  -14.3052   27.5167 C   0  0  0  0  0  0  0  0  0  0  0  0
   10.1693  -15.6299   27.2651 C   0  0  0  0  0  0  0  0  0  0  0  0
   12.9724  -19.1596   26.1547 C   0  0  0  0  0  0  0  0  0  0  0  0
   14.1467  -19.3643   26.8458 O   0  0  0  0  0  0  0  0  0  0  0  0
   12.5036  -20.1224   25.5073 O   0  0  0  0  0  0  0  0  0  0  0  0
  2 10  1  0
  2  1  1  1
  3  4  1  0
  3  2  1  0
  4  9  1  0
  5  4  2  0
  5  6  1  0
  6  7  2  0
  7  8  1  0
  9  8  2  0
 10 11  2  0
 13 12  1  6
 13 14  1  0
 15 13  1  0
 15 16  1  1
 16 10  1  0
 17 18  2  0
 17 15  1  0
 19 17  1  0
 20 19  1  0
 21 22  1  0
 20 21  1  1
 22 27  1  0
 23 22  2  0
 23 24  1  0
 24 25  2  0
 25 26  1  0
 27 26  2  0
 28 29  1  0
 28 20  1  0
 30 28  2  0
M  END
$$$$
