FVF.pdb
     RDKit          3D

 30 31  0  0  1  0  0  0  0  0999 V2000
    6.8191  -18.0466   18.5259 N   0  0  0  0  0  0  0  0  0  0  0  0
    7.4325  -16.8941   19.1863 C   0  0  1  0  0  0  0  0  0  0  0  0
    6.4267  -15.7663   19.2670 C   0  0  0  0  0  0  0  0  0  0  0  0
    7.0552  -14.6697   20.0400 C   0  0  0  0  0  0  0  0  0  0  0  0
    6.9136  -14.5247   21.3991 C   0  0  0  0  0  0  0  0  0  0  0  0
    7.5259  -13.4727   22.0872 C   0  0  0  0  0  0  0  0  0  0  0  0
    8.2918  -12.5594   21.3734 C   0  0  0  0  0  0  0  0  0  0  0  0
    8.4358  -12.6973   20.0283 C   0  0  0  0  0  0  0  0  0  0  0  0
    7.8230  -13.7425   19.3698 C   0  0  0  0  0  0  0  0  0  0  0  0
    7.8516  -17.3632   20.5341 C   0  0  0  0  0  0  0  0  0  0  0  0
    6.9673  -17.9570   21.2230 O   0  0  0  0  0  0  0  0  0  0  0  0
   11.1714  -19.3011   23.4510 C   0  0  0  0  0  0  0  0  0  0  0  0
   10.5393  -18.8268   22.1769 C   0  0  1  0  0  0  0  0  0  0  0  0
    9.8680  -20.0335   21.5355 C   0  0  0  0  0  0  0  0  0  0  0  0
    9.5558  -17.6987   22.3678 C   0  0  2  0  0  0  0  0  0  0  0  0
    9.1561  -17.1756   21.0535 N   0  0  0  0  0  0  0  0  0  0  0  0
   10.0399  -16.5769   23.1680 C   0  0  0  0  0  0  0  0  0  0  0  0
   11.0031  -15.8769   22.6906 O   0  0  0  0  0  0  0  0  0  0  0  0
    9.5769  -16.1472   24.4267 N   0  0  0  0  0  0  0  0  0  0  0  0
   10.3361  -15.2113   25.2594 C   0  0  1  0  0  0  0  0  0  0  0  0
    9.8460  -13.8354   24.9387 C   0  0  0  0  0  0  0  0  0  0  0  0
    8.6104  -13.4342   25.6186 C   0  0  0  0  0  0  0  0  0  0  0  0
    7.4061  -13.9146   25.1328 C   0  0  0  0  0  0  0  0  0  0  0  0
    6.2360  -13.5596   25.7541 C   0  0  0  0  0  0  0  0  0  0  0  0
    6.2815  -12.7276   26.8549 C   0  0  0  0  0  0  0  0  0  0  0  0
    7.4902  -12.2499   27.3367 C   0  0  0  0  0  0  0  0  0  0  0  0
    8.6688  -12.6018   26.7187 C   0  0  0  0  0  0  0  0  0  0  0  0
   10.1150  -15.5539   26.6792 C   0  0  0  0  0  0  0  0  0  0  0  0
    9.2591  -16.5701   27.0444 O   0  0  0  0  0  0  0  0  0  0  0  0
   10.6991  -14.9294   27.5928 O   0  0  0  0  0  0  0  0  0  0  0  0
  2 10  1  0
  2  1  1  1
  3  4  1  0
  3  2  1  0
  4  9  1  0
  5  4  2  0
  5  6  1  0
  6  7  2  0
  7  8  1  0
  9  8  2  0
 10 11  2  0
 13 12  1  1
 13 14  1  0
 15 13  1  0
 15 16  1  6
 16 10  1  0
 17 18  2  0
 17 15  1  0
 19 17  1  0
 20 19  1  0
 21 22  1  0
 20 21  1  1
 22 27  1  0
 23 22  2  0
 23 24  1  0
 24 25  2  0
 25 26  1  0
 27 26  2  0
 28 29  1  0
 28 20  1  0
 30 28  2  0
M  END
$$$$
