FVF.pdb
     RDKit          3D

 30 31  0  0  1  0  0  0  0  0999 V2000
    5.6961  -17.8925   25.7318 N   0  0  0  0  0  0  0  0  0  0  0  0
    6.0491  -16.5093   25.4112 C   0  0  1  0  0  0  0  0  0  0  0  0
    6.4643  -15.7899   26.6761 C   0  0  0  0  0  0  0  0  0  0  0  0
    6.3050  -14.3377   26.4296 C   0  0  0  0  0  0  0  0  0  0  0  0
    5.1060  -13.6771   26.5496 C   0  0  0  0  0  0  0  0  0  0  0  0
    5.0032  -12.3040   26.3064 C   0  0  0  0  0  0  0  0  0  0  0  0
    6.1427  -11.6008   25.9362 C   0  0  0  0  0  0  0  0  0  0  0  0
    7.3321  -12.2485   25.8157 C   0  0  0  0  0  0  0  0  0  0  0  0
    7.4108  -13.6034   26.0603 C   0  0  0  0  0  0  0  0  0  0  0  0
    7.1585  -16.5829   24.4233 C   0  0  0  0  0  0  0  0  0  0  0  0
    7.9530  -17.5647   24.5420 O   0  0  0  0  0  0  0  0  0  0  0  0
    9.2386  -14.8437   20.2028 C   0  0  0  0  0  0  0  0  0  0  0  0
    8.1526  -14.8525   21.2364 C   0  0  1  0  0  0  0  0  0  0  0  0
    6.8727  -15.2869   20.5353 C   0  0  0  0  0  0  0  0  0  0  0  0
    8.4470  -15.7380   22.4219 C   0  0  2  0  0  0  0  0  0  0  0  0
    7.3494  -15.6289   23.3936 N   0  0  0  0  0  0  0  0  0  0  0  0
    9.6955  -15.4491   23.1224 C   0  0  0  0  0  0  0  0  0  0  0  0
    9.7404  -14.3919   23.8477 O   0  0  0  0  0  0  0  0  0  0  0  0
   10.8888  -16.1970   23.1100 N   0  0  0  0  0  0  0  0  0  0  0  0
   11.8468  -16.1561   24.2173 C   0  0  1  0  0  0  0  0  0  0  0  0
   11.2089  -16.8464   25.3804 C   0  0  0  0  0  0  0  0  0  0  0  0
   10.8261  -15.9749   26.4956 C   0  0  0  0  0  0  0  0  0  0  0  0
   10.8132  -16.5082   27.7734 C   0  0  0  0  0  0  0  0  0  0  0  0
   10.4649  -15.7128   28.8350 C   0  0  0  0  0  0  0  0  0  0  0  0
   10.1327  -14.3920   28.6087 C   0  0  0  0  0  0  0  0  0  0  0  0
   10.1475  -13.8637   27.3273 C   0  0  0  0  0  0  0  0  0  0  0  0
   10.4961  -14.6555   26.2568 C   0  0  0  0  0  0  0  0  0  0  0  0
   13.0896  -16.8329   23.7937 C   0  0  0  0  0  0  0  0  0  0  0  0
   13.0622  -17.8915   22.9122 O   0  0  0  0  0  0  0  0  0  0  0  0
   14.2050  -16.4640   24.2246 O   0  0  0  0  0  0  0  0  0  0  0  0
  2 10  1  0
  2  1  1  1
  3  4  1  0
  3  2  1  0
  4  9  1  0
  5  4  2  0
  5  6  1  0
  6  7  2  0
  7  8  1  0
  9  8  2  0
 10 11  2  0
 13 12  1  6
 13 14  1  0
 15 13  1  0
 15 16  1  1
 16 10  1  0
 17 18  2  0
 17 15  1  0
 19 17  1  0
 20 19  1  0
 21 22  1  0
 20 21  1  1
 22 27  1  0
 23 22  2  0
 23 24  1  0
 24 25  2  0
 25 26  1  0
 27 26  2  0
 28 29  1  0
 28 20  1  0
 30 28  2  0
M  END
$$$$
