FVF.pdb
     RDKit          3D

 30 31  0  0  1  0  0  0  0  0999 V2000
    5.7954  -17.2668   26.0323 N   0  0  0  0  0  0  0  0  0  0  0  0
    6.3665  -15.9970   25.5827 C   0  0  1  0  0  0  0  0  0  0  0  0
    7.0980  -15.3392   26.7327 C   0  0  0  0  0  0  0  0  0  0  0  0
    6.7325  -13.9034   26.7237 C   0  0  0  0  0  0  0  0  0  0  0  0
    7.6133  -12.8967   27.0384 C   0  0  0  0  0  0  0  0  0  0  0  0
    7.2232  -11.5541   27.0166 C   0  0  0  0  0  0  0  0  0  0  0  0
    5.9154  -11.2408   26.6681 C   0  0  0  0  0  0  0  0  0  0  0  0
    5.0389  -12.2323   26.3555 C   0  0  0  0  0  0  0  0  0  0  0  0
    5.4450  -13.5498   26.3835 C   0  0  0  0  0  0  0  0  0  0  0  0
    7.2817  -16.3290   24.4583 C   0  0  0  0  0  0  0  0  0  0  0  0
    7.8697  -17.4511   24.5244 O   0  0  0  0  0  0  0  0  0  0  0  0
    9.3681  -15.0577   20.0802 C   0  0  0  0  0  0  0  0  0  0  0  0
    8.3544  -14.8509   21.1653 C   0  0  1  0  0  0  0  0  0  0  0  0
    6.9862  -15.1244   20.5558 C   0  0  0  0  0  0  0  0  0  0  0  0
    8.5842  -15.7084   22.3852 C   0  0  2  0  0  0  0  0  0  0  0  0
    7.5094  -15.4660   23.3583 N   0  0  0  0  0  0  0  0  0  0  0  0
    9.8596  -15.4982   23.0650 C   0  0  0  0  0  0  0  0  0  0  0  0
   10.1287  -14.3120   23.4726 O   0  0  0  0  0  0  0  0  0  0  0  0
   10.8602  -16.4496   23.3428 N   0  0  0  0  0  0  0  0  0  0  0  0
   12.0242  -16.1372   24.1754 C   0  0  1  0  0  0  0  0  0  0  0  0
   11.7975  -16.7728   25.5098 C   0  0  0  0  0  0  0  0  0  0  0  0
   10.9430  -16.0154   26.4296 C   0  0  0  0  0  0  0  0  0  0  0  0
   10.4590  -14.7856   26.0166 C   0  0  0  0  0  0  0  0  0  0  0  0
    9.6526  -14.0595   26.8554 C   0  0  0  0  0  0  0  0  0  0  0  0
    9.3379  -14.5701   28.0989 C   0  0  0  0  0  0  0  0  0  0  0  0
    9.8254  -15.8019   28.5068 C   0  0  0  0  0  0  0  0  0  0  0  0
   10.6351  -16.5366   27.6707 C   0  0  0  0  0  0  0  0  0  0  0  0
   13.2347  -16.6674   23.5153 C   0  0  0  0  0  0  0  0  0  0  0  0
   13.1453  -17.5357   22.4492 O   0  0  0  0  0  0  0  0  0  0  0  0
   14.3782  -16.3431   23.9066 O   0  0  0  0  0  0  0  0  0  0  0  0
  2 10  1  0
  2  1  1  1
  3  4  1  0
  3  2  1  0
  4  9  1  0
  5  4  2  0
  5  6  1  0
  6  7  2  0
  7  8  1  0
  9  8  2  0
 10 11  2  0
 13 12  1  6
 13 14  1  0
 15 13  1  0
 15 16  1  1
 16 10  1  0
 17 18  2  0
 17 15  1  0
 19 17  1  0
 20 19  1  0
 21 22  1  0
 20 21  1  1
 22 27  1  0
 23 22  2  0
 23 24  1  0
 24 25  2  0
 25 26  1  0
 27 26  2  0
 28 29  1  0
 28 20  1  0
 30 28  2  0
M  END
$$$$
