FVF.pdb
     RDKit          3D

 30 31  0  0  1  0  0  0  0  0999 V2000
    5.9026  -18.1948   24.7531 N   0  0  0  0  0  0  0  0  0  0  0  0
    6.5406  -16.8888   24.5855 C   0  0  1  0  0  0  0  0  0  0  0  0
    6.4865  -16.1308   25.8942 C   0  0  0  0  0  0  0  0  0  0  0  0
    6.5915  -14.6884   25.5726 C   0  0  0  0  0  0  0  0  0  0  0  0
    6.9187  -14.2133   24.3254 C   0  0  0  0  0  0  0  0  0  0  0  0
    7.0063  -12.8417   24.0682 C   0  0  0  0  0  0  0  0  0  0  0  0
    6.7555  -11.9476   25.1016 C   0  0  0  0  0  0  0  0  0  0  0  0
    6.4312  -12.4113   26.3381 C   0  0  0  0  0  0  0  0  0  0  0  0
    6.3505  -13.7684   26.5696 C   0  0  0  0  0  0  0  0  0  0  0  0
    7.9387  -17.1622   24.1583 C   0  0  0  0  0  0  0  0  0  0  0  0
    8.4893  -18.1893   24.6595 O   0  0  0  0  0  0  0  0  0  0  0  0
   11.4778  -16.3914   20.7232 C   0  0  0  0  0  0  0  0  0  0  0  0
   10.1439  -16.1061   21.3454 C   0  0  1  0  0  0  0  0  0  0  0  0
    9.0825  -16.5973   20.3706 C   0  0  0  0  0  0  0  0  0  0  0  0
    9.9598  -16.7318   22.7058 C   0  0  2  0  0  0  0  0  0  0  0  0
    8.6483  -16.3443   23.2448 N   0  0  0  0  0  0  0  0  0  0  0  0
   10.9730  -16.3803   23.6972 C   0  0  0  0  0  0  0  0  0  0  0  0
   11.7195  -15.3662   23.4518 O   0  0  0  0  0  0  0  0  0  0  0  0
   11.2466  -17.0213   24.9209 N   0  0  0  0  0  0  0  0  0  0  0  0
   12.4773  -16.7709   25.6748 C   0  0  1  0  0  0  0  0  0  0  0  0
   12.4024  -15.3699   26.1920 C   0  0  0  0  0  0  0  0  0  0  0  0
   11.3274  -15.1123   27.1554 C   0  0  0  0  0  0  0  0  0  0  0  0
   11.3613  -15.7731   28.3717 C   0  0  0  0  0  0  0  0  0  0  0  0
   10.3712  -15.5455   29.2931 C   0  0  0  0  0  0  0  0  0  0  0  0
    9.3570  -14.6594   28.9895 C   0  0  0  0  0  0  0  0  0  0  0  0
    9.3285  -14.0008   27.7702 C   0  0  0  0  0  0  0  0  0  0  0  0
   10.3185  -14.2238   26.8403 C   0  0  0  0  0  0  0  0  0  0  0  0
   12.5689  -17.7552   26.7725 C   0  0  0  0  0  0  0  0  0  0  0  0
   11.5753  -18.6866   26.9822 O   0  0  0  0  0  0  0  0  0  0  0  0
   13.5530  -17.7711   27.5453 O   0  0  0  0  0  0  0  0  0  0  0  0
  2 10  1  0
  2  1  1  1
  3  4  1  0
  3  2  1  0
  4  9  1  0
  5  4  2  0
  5  6  1  0
  6  7  2  0
  7  8  1  0
  9  8  2  0
 10 11  2  0
 13 12  1  6
 13 14  1  0
 15 13  1  0
 15 16  1  1
 16 10  1  0
 17 18  2  0
 17 15  1  0
 19 17  1  0
 20 19  1  0
 21 22  1  0
 20 21  1  1
 22 27  1  0
 23 22  2  0
 23 24  1  0
 24 25  2  0
 25 26  1  0
 27 26  2  0
 28 29  1  0
 28 20  1  0
 30 28  2  0
M  END
$$$$
