FVF.pdb
     RDKit          3D

 30 31  0  0  1  0  0  0  0  0999 V2000
    9.8644  -16.9233   16.2348 N   0  0  0  0  0  0  0  0  0  0  0  0
    9.0948  -17.4539   17.3604 C   0  0  1  0  0  0  0  0  0  0  0  0
    9.5520  -18.8647   17.6618 C   0  0  0  0  0  0  0  0  0  0  0  0
    8.7295  -19.3631   18.7888 C   0  0  0  0  0  0  0  0  0  0  0  0
    9.1106  -19.2637   20.1053 C   0  0  0  0  0  0  0  0  0  0  0  0
    8.3009  -19.7490   21.1368 C   0  0  0  0  0  0  0  0  0  0  0  0
    7.0870  -20.3427   20.8144 C   0  0  0  0  0  0  0  0  0  0  0  0
    6.7040  -20.4442   19.5136 C   0  0  0  0  0  0  0  0  0  0  0  0
    7.5182  -19.9587   18.5121 C   0  0  0  0  0  0  0  0  0  0  0  0
    9.3416  -16.5332   18.5021 C   0  0  0  0  0  0  0  0  0  0  0  0
   10.5556  -16.3347   18.8121 O   0  0  0  0  0  0  0  0  0  0  0  0
    7.4717  -13.2989   21.8466 C   0  0  0  0  0  0  0  0  0  0  0  0
    7.4248  -14.0637   20.5579 C   0  0  1  0  0  0  0  0  0  0  0  0
    7.3766  -13.0393   19.4325 C   0  0  0  0  0  0  0  0  0  0  0  0
    8.5798  -15.0166   20.3726 C   0  0  2  0  0  0  0  0  0  0  0  0
    8.3049  -15.8954   19.2268 N   0  0  0  0  0  0  0  0  0  0  0  0
    8.8819  -15.8630   21.5238 C   0  0  0  0  0  0  0  0  0  0  0  0
    8.1096  -16.8629   21.7467 O   0  0  0  0  0  0  0  0  0  0  0  0
    9.9374  -15.7266   22.4461 N   0  0  0  0  0  0  0  0  0  0  0  0
   10.1081  -16.6412   23.5775 C   0  0  1  0  0  0  0  0  0  0  0  0
   10.4775  -17.9767   23.0154 C   0  0  0  0  0  0  0  0  0  0  0  0
   11.7926  -18.0451   22.3705 C   0  0  0  0  0  0  0  0  0  0  0  0
   12.9135  -18.1734   23.1732 C   0  0  0  0  0  0  0  0  0  0  0  0
   14.1550  -18.2458   22.5950 C   0  0  0  0  0  0  0  0  0  0  0  0
   14.2638  -18.1891   21.2198 C   0  0  0  0  0  0  0  0  0  0  0  0
   13.1380  -18.0606   20.4215 C   0  0  0  0  0  0  0  0  0  0  0  0
   11.8885  -17.9875   20.9942 C   0  0  0  0  0  0  0  0  0  0  0  0
   11.1645  -16.1085   24.4620 C   0  0  0  0  0  0  0  0  0  0  0  0
   11.8348  -14.9447   24.1543 O   0  0  0  0  0  0  0  0  0  0  0  0
   11.4822  -16.7005   25.5177 O   0  0  0  0  0  0  0  0  0  0  0  0
  2 10  1  0
  2  1  1  6
  3  4  1  0
  3  2  1  0
  4  9  1  0
  5  4  2  0
  5  6  1  0
  6  7  2  0
  7  8  1  0
  9  8  2  0
 10 11  2  0
 13 12  1  1
 13 14  1  0
 15 13  1  0
 15 16  1  6
 16 10  1  0
 17 18  2  0
 17 15  1  0
 19 17  1  0
 20 19  1  0
 21 22  1  0
 20 21  1  6
 22 27  1  0
 23 22  2  0
 23 24  1  0
 24 25  2  0
 25 26  1  0
 27 26  2  0
 28 29  1  0
 28 20  1  0
 30 28  2  0
M  END
$$$$
