FVF.pdb
     RDKit          3D

 30 31  0  0  1  0  0  0  0  0999 V2000
    5.7641  -18.8963   24.4309 N   0  0  0  0  0  0  0  0  0  0  0  0
    6.0498  -17.4818   24.6722 C   0  0  1  0  0  0  0  0  0  0  0  0
    6.4719  -17.2924   26.1130 C   0  0  0  0  0  0  0  0  0  0  0  0
    6.5003  -15.8346   26.3759 C   0  0  0  0  0  0  0  0  0  0  0  0
    5.4320  -15.0027   26.1414 C   0  0  0  0  0  0  0  0  0  0  0  0
    5.5049  -13.6314   26.4048 C   0  0  0  0  0  0  0  0  0  0  0  0
    6.6866  -13.1077   26.9143 C   0  0  0  0  0  0  0  0  0  0  0  0
    7.7473  -13.9255   27.1485 C   0  0  0  0  0  0  0  0  0  0  0  0
    7.6535  -15.2752   26.8815 C   0  0  0  0  0  0  0  0  0  0  0  0
    7.1318  -17.1095   23.7220 C   0  0  0  0  0  0  0  0  0  0  0  0
    7.8952  -18.0490   23.3429 O   0  0  0  0  0  0  0  0  0  0  0  0
    8.9342  -13.6863   20.5311 C   0  0  0  0  0  0  0  0  0  0  0  0
    7.9680  -14.1337   21.5866 C   0  0  1  0  0  0  0  0  0  0  0  0
    6.5840  -14.1372   20.9521 C   0  0  0  0  0  0  0  0  0  0  0  0
    8.2945  -15.4822   22.1794 C   0  0  2  0  0  0  0  0  0  0  0  0
    7.3299  -15.7904   23.2450 N   0  0  0  0  0  0  0  0  0  0  0  0
    9.6371  -15.6093   22.7401 C   0  0  0  0  0  0  0  0  0  0  0  0
   10.6261  -15.2572   22.0028 O   0  0  0  0  0  0  0  0  0  0  0  0
   10.0016  -16.0772   24.0175 N   0  0  0  0  0  0  0  0  0  0  0  0
   11.3992  -16.1622   24.4478 C   0  0  1  0  0  0  0  0  0  0  0  0
   11.7087  -14.9061   25.1977 C   0  0  0  0  0  0  0  0  0  0  0  0
   11.1106  -14.8078   26.5329 C   0  0  0  0  0  0  0  0  0  0  0  0
   10.4536  -13.6381   26.8753 C   0  0  0  0  0  0  0  0  0  0  0  0
    9.8800  -13.5225   28.1157 C   0  0  0  0  0  0  0  0  0  0  0  0
    9.9691  -14.5776   29.0017 C   0  0  0  0  0  0  0  0  0  0  0  0
   10.6281  -15.7462   28.6531 C   0  0  0  0  0  0  0  0  0  0  0  0
   11.2061  -15.8698   27.4101 C   0  0  0  0  0  0  0  0  0  0  0  0
   11.5615  -17.3603   25.2965 C   0  0  0  0  0  0  0  0  0  0  0  0
   12.8017  -17.7506   25.7524 O   0  0  0  0  0  0  0  0  0  0  0  0
   10.5755  -18.0568   25.6258 O   0  0  0  0  0  0  0  0  0  0  0  0
  2 10  1  0
  2  1  1  1
  3  4  1  0
  3  2  1  0
  4  9  1  0
  5  4  2  0
  5  6  1  0
  6  7  2  0
  7  8  1  0
  9  8  2  0
 10 11  2  0
 13 12  1  6
 13 14  1  0
 15 13  1  0
 15 16  1  1
 16 10  1  0
 17 18  2  0
 17 15  1  0
 19 17  1  0
 20 19  1  0
 21 22  1  0
 20 21  1  1
 22 27  1  0
 23 22  2  0
 23 24  1  0
 24 25  2  0
 25 26  1  0
 27 26  2  0
 28 29  1  0
 28 20  1  0
 30 28  2  0
M  END
$$$$
