FVF.pdb
     RDKit          3D

 30 31  0  0  1  0  0  0  0  0999 V2000
    5.7389  -18.4731   24.9014 N   0  0  0  0  0  0  0  0  0  0  0  0
    6.1614  -17.0764   25.0081 C   0  0  1  0  0  0  0  0  0  0  0  0
    6.6930  -16.8167   26.4010 C   0  0  0  0  0  0  0  0  0  0  0  0
    6.8149  -15.3487   26.5595 C   0  0  0  0  0  0  0  0  0  0  0  0
    8.0203  -14.6910   26.6124 C   0  0  0  0  0  0  0  0  0  0  0  0
    8.0866  -13.3025   26.7632 C   0  0  0  0  0  0  0  0  0  0  0  0
    6.9036  -12.5807   26.8609 C   0  0  0  0  0  0  0  0  0  0  0  0
    5.7076  -13.2254   26.8093 C   0  0  0  0  0  0  0  0  0  0  0  0
    5.6654  -14.5957   26.6600 C   0  0  0  0  0  0  0  0  0  0  0  0
    7.2061  -16.8787   23.9681 C   0  0  0  0  0  0  0  0  0  0  0  0
    7.8357  -17.9163   23.5991 O   0  0  0  0  0  0  0  0  0  0  0  0
    9.0790  -13.9153   20.3977 C   0  0  0  0  0  0  0  0  0  0  0  0
    8.1362  -14.1991   21.5283 C   0  0  1  0  0  0  0  0  0  0  0  0
    6.7325  -14.2378   20.9398 C   0  0  0  0  0  0  0  0  0  0  0  0
    8.4453  -15.4738   22.2739 C   0  0  2  0  0  0  0  0  0  0  0  0
    7.5091  -15.6178   23.3981 N   0  0  0  0  0  0  0  0  0  0  0  0
    9.8020  -15.5730   22.8055 C   0  0  0  0  0  0  0  0  0  0  0  0
   10.7673  -15.1994   22.0476 O   0  0  0  0  0  0  0  0  0  0  0  0
   10.2037  -16.0343   24.0741 N   0  0  0  0  0  0  0  0  0  0  0  0
   11.6144  -16.1754   24.4422 C   0  0  1  0  0  0  0  0  0  0  0  0
   11.9906  -14.9602   25.2283 C   0  0  0  0  0  0  0  0  0  0  0  0
   11.2173  -14.7408   26.4546 C   0  0  0  0  0  0  0  0  0  0  0  0
   10.1743  -13.8307   26.4211 C   0  0  0  0  0  0  0  0  0  0  0  0
    9.4312  -13.6114   27.5528 C   0  0  0  0  0  0  0  0  0  0  0  0
    9.7381  -14.3041   28.7069 C   0  0  0  0  0  0  0  0  0  0  0  0
   10.7833  -15.2141   28.7342 C   0  0  0  0  0  0  0  0  0  0  0  0
   11.5337  -15.4398   27.6026 C   0  0  0  0  0  0  0  0  0  0  0  0
   11.7757  -17.4114   25.2349 C   0  0  0  0  0  0  0  0  0  0  0  0
   13.0217  -17.8559   25.6203 O   0  0  0  0  0  0  0  0  0  0  0  0
   10.7837  -18.0919   25.5792 O   0  0  0  0  0  0  0  0  0  0  0  0
  2 10  1  0
  2  1  1  1
  3  4  1  0
  3  2  1  0
  4  9  1  0
  5  4  2  0
  5  6  1  0
  6  7  2  0
  7  8  1  0
  9  8  2  0
 10 11  2  0
 13 12  1  6
 13 14  1  0
 15 13  1  0
 15 16  1  1
 16 10  1  0
 17 18  2  0
 17 15  1  0
 19 17  1  0
 20 19  1  0
 21 22  1  0
 20 21  1  1
 22 27  1  0
 23 22  2  0
 23 24  1  0
 24 25  2  0
 25 26  1  0
 27 26  2  0
 28 29  1  0
 28 20  1  0
 30 28  2  0
M  END
$$$$
