FVF.pdb
     RDKit          3D

 30 31  0  0  1  0  0  0  0  0999 V2000
    5.7112  -17.9535   25.2586 N   0  0  0  0  0  0  0  0  0  0  0  0
    6.1957  -16.5785   25.1361 C   0  0  1  0  0  0  0  0  0  0  0  0
    6.6809  -16.0940   26.4852 C   0  0  0  0  0  0  0  0  0  0  0  0
    6.7590  -14.6159   26.4206 C   0  0  0  0  0  0  0  0  0  0  0  0
    7.9123  -13.9318   26.1201 C   0  0  0  0  0  0  0  0  0  0  0  0
    7.9387  -12.5346   26.0707 C   0  0  0  0  0  0  0  0  0  0  0  0
    6.7694  -11.8315   26.3324 C   0  0  0  0  0  0  0  0  0  0  0  0
    5.6249  -12.5025   26.6303 C   0  0  0  0  0  0  0  0  0  0  0  0
    5.6214  -13.8808   26.6735 C   0  0  0  0  0  0  0  0  0  0  0  0
    7.2911  -16.6129   24.1306 C   0  0  0  0  0  0  0  0  0  0  0  0
    7.9306  -17.7041   24.0328 O   0  0  0  0  0  0  0  0  0  0  0  0
    9.3619  -14.5756   20.0697 C   0  0  0  0  0  0  0  0  0  0  0  0
    8.3921  -14.5484   21.2127 C   0  0  1  0  0  0  0  0  0  0  0  0
    6.9985  -14.7031   20.6194 C   0  0  0  0  0  0  0  0  0  0  0  0
    8.6543  -15.6028   22.2594 C   0  0  2  0  0  0  0  0  0  0  0  0
    7.6303  -15.5092   23.3099 N   0  0  0  0  0  0  0  0  0  0  0  0
    9.9636  -15.5322   22.9027 C   0  0  0  0  0  0  0  0  0  0  0  0
   10.7423  -14.5706   22.5641 O   0  0  0  0  0  0  0  0  0  0  0  0
   10.4999  -16.4005   23.8732 N   0  0  0  0  0  0  0  0  0  0  0  0
   11.8417  -16.2144   24.4305 C   0  0  1  0  0  0  0  0  0  0  0  0
   11.8309  -14.9265   25.1902 C   0  0  0  0  0  0  0  0  0  0  0  0
   11.0666  -14.9414   26.4414 C   0  0  0  0  0  0  0  0  0  0  0  0
   11.2700  -15.9882   27.3246 C   0  0  0  0  0  0  0  0  0  0  0  0
   10.5723  -16.0230   28.5049 C   0  0  0  0  0  0  0  0  0  0  0  0
    9.6780  -15.0107   28.7907 C   0  0  0  0  0  0  0  0  0  0  0  0
    9.4787  -13.9653   27.9026 C   0  0  0  0  0  0  0  0  0  0  0  0
   10.1751  -13.9233   26.7161 C   0  0  0  0  0  0  0  0  0  0  0  0
   12.1548  -17.3630   25.3050 C   0  0  0  0  0  0  0  0  0  0  0  0
   11.2262  -18.3520   25.5461 O   0  0  0  0  0  0  0  0  0  0  0  0
   13.2743  -17.4706   25.8537 O   0  0  0  0  0  0  0  0  0  0  0  0
  2 10  1  0
  2  1  1  1
  3  4  1  0
  3  2  1  0
  4  9  1  0
  5  4  2  0
  5  6  1  0
  6  7  2  0
  7  8  1  0
  9  8  2  0
 10 11  2  0
 13 12  1  6
 13 14  1  0
 15 13  1  0
 15 16  1  1
 16 10  1  0
 17 18  2  0
 17 15  1  0
 19 17  1  0
 20 19  1  0
 21 22  1  0
 20 21  1  1
 22 27  1  0
 23 22  2  0
 23 24  1  0
 24 25  2  0
 25 26  1  0
 27 26  2  0
 28 29  1  0
 28 20  1  0
 30 28  2  0
M  END
$$$$
