FVF.pdb
     RDKit          3D

 30 31  0  0  1  0  0  0  0  0999 V2000
    5.9719  -18.3142   25.4753 N   0  0  0  0  0  0  0  0  0  0  0  0
    6.2997  -16.9040   25.2646 C   0  0  1  0  0  0  0  0  0  0  0  0
    6.9049  -16.3338   26.5291 C   0  0  0  0  0  0  0  0  0  0  0  0
    6.6911  -14.8681   26.4978 C   0  0  0  0  0  0  0  0  0  0  0  0
    5.4697  -14.2867   26.2559 C   0  0  0  0  0  0  0  0  0  0  0  0
    5.3155  -12.8971   26.2358 C   0  0  0  0  0  0  0  0  0  0  0  0
    6.4262  -12.0951   26.4662 C   0  0  0  0  0  0  0  0  0  0  0  0
    7.6376  -12.6641   26.7062 C   0  0  0  0  0  0  0  0  0  0  0  0
    7.7671  -14.0370   26.7215 C   0  0  0  0  0  0  0  0  0  0  0  0
    7.2545  -16.8661   24.1248 C   0  0  0  0  0  0  0  0  0  0  0  0
    7.8576  -17.9503   23.8602 O   0  0  0  0  0  0  0  0  0  0  0  0
    9.0999  -14.3295   20.2054 C   0  0  0  0  0  0  0  0  0  0  0  0
    8.1559  -14.4796   21.3604 C   0  0  1  0  0  0  0  0  0  0  0  0
    6.7455  -14.4798   20.7869 C   0  0  0  0  0  0  0  0  0  0  0  0
    8.4018  -15.7143   22.1918 C   0  0  2  0  0  0  0  0  0  0  0  0
    7.5027  -15.7034   23.3547 N   0  0  0  0  0  0  0  0  0  0  0  0
    9.7677  -15.8744   22.6833 C   0  0  0  0  0  0  0  0  0  0  0  0
   10.7123  -15.9097   21.8160 O   0  0  0  0  0  0  0  0  0  0  0  0
   10.1992  -15.9962   24.0184 N   0  0  0  0  0  0  0  0  0  0  0  0
   11.6120  -16.1576   24.3701 C   0  0  1  0  0  0  0  0  0  0  0  0
   11.9695  -15.0365   25.2928 C   0  0  0  0  0  0  0  0  0  0  0  0
   11.2811  -15.0445   26.5875 C   0  0  0  0  0  0  0  0  0  0  0  0
   11.2767  -16.2173   27.3234 C   0  0  0  0  0  0  0  0  0  0  0  0
   10.6453  -16.2500   28.5405 C   0  0  0  0  0  0  0  0  0  0  0  0
   10.0245  -15.1096   29.0099 C   0  0  0  0  0  0  0  0  0  0  0  0
   10.0324  -13.9384   28.2686 C   0  0  0  0  0  0  0  0  0  0  0  0
   10.6640  -13.8976   27.0464 C   0  0  0  0  0  0  0  0  0  0  0  0
   11.7923  -17.4748   25.0139 C   0  0  0  0  0  0  0  0  0  0  0  0
   13.0402  -17.9215   25.3906 O   0  0  0  0  0  0  0  0  0  0  0  0
   10.8152  -18.2245   25.2355 O   0  0  0  0  0  0  0  0  0  0  0  0
  2 10  1  0
  2  1  1  1
  3  4  1  0
  3  2  1  0
  4  9  1  0
  5  4  2  0
  5  6  1  0
  6  7  2  0
  7  8  1  0
  9  8  2  0
 10 11  2  0
 13 12  1  6
 13 14  1  0
 15 13  1  0
 15 16  1  1
 16 10  1  0
 17 18  2  0
 17 15  1  0
 19 17  1  0
 20 19  1  0
 21 22  1  0
 20 21  1  1
 22 27  1  0
 23 22  2  0
 23 24  1  0
 24 25  2  0
 25 26  1  0
 27 26  2  0
 28 29  1  0
 28 20  1  0
 30 28  2  0
M  END
$$$$
