FVF.pdb
     RDKit          3D

 30 31  0  0  1  0  0  0  0  0999 V2000
  -12.8977  -72.3068   44.0532 N   0  0  0  0  0  0  0  0  0  0  0  0
  -14.0036  -71.3604   43.9051 C   0  0  1  0  0  0  0  0  0  0  0  0
  -15.1159  -72.0071   43.1084 C   0  0  0  0  0  0  0  0  0  0  0  0
  -14.5064  -73.0863   42.2966 C   0  0  0  0  0  0  0  0  0  0  0  0
  -14.9862  -73.4712   41.0678 C   0  0  0  0  0  0  0  0  0  0  0  0
  -14.3778  -74.4962   40.3367 C   0  0  0  0  0  0  0  0  0  0  0  0
  -13.2653  -75.1333   40.8719 C   0  0  0  0  0  0  0  0  0  0  0  0
  -12.7856  -74.7570   42.0874 C   0  0  0  0  0  0  0  0  0  0  0  0
  -13.4012  -73.7436   42.7913 C   0  0  0  0  0  0  0  0  0  0  0  0
  -14.4376  -71.0109   45.2841 C   0  0  0  0  0  0  0  0  0  0  0  0
  -13.7048  -70.1881   45.9128 O   0  0  0  0  0  0  0  0  0  0  0  0
  -15.2011  -71.6461   49.5400 C   0  0  0  0  0  0  0  0  0  0  0  0
  -14.8750  -71.1199   48.1745 C   0  0  1  0  0  0  0  0  0  0  0  0
  -13.7353  -71.9695   47.6292 C   0  0  0  0  0  0  0  0  0  0  0  0
  -16.0487  -71.1168   47.2265 C   0  0  2  0  0  0  0  0  0  0  0  0
  -15.5982  -71.5465   45.8948 N   0  0  0  0  0  0  0  0  0  0  0  0
  -16.7271  -69.8321   47.0767 C   0  0  0  0  0  0  0  0  0  0  0  0
  -17.6491  -69.7456   46.1888 O   0  0  0  0  0  0  0  0  0  0  0  0
  -16.5005  -68.6436   47.7975 N   0  0  0  0  0  0  0  0  0  0  0  0
  -16.9887  -68.4557   49.1657 C   0  0  1  0  0  0  0  0  0  0  0  0
  -16.1454  -67.3930   49.7946 C   0  0  0  0  0  0  0  0  0  0  0  0
  -16.1554  -67.3685   51.2607 C   0  0  0  0  0  0  0  0  0  0  0  0
  -15.0158  -66.9393   51.9196 C   0  0  0  0  0  0  0  0  0  0  0  0
  -15.0009  -66.9010   53.2905 C   0  0  0  0  0  0  0  0  0  0  0  0
  -16.1256  -67.2922   53.9892 C   0  0  0  0  0  0  0  0  0  0  0  0
  -17.2636  -67.7209   53.3239 C   0  0  0  0  0  0  0  0  0  0  0  0
  -17.2864  -67.7621   51.9483 C   0  0  0  0  0  0  0  0  0  0  0  0
  -18.4120  -68.0640   49.1111 C   0  0  0  0  0  0  0  0  0  0  0  0
  -19.3164  -68.7619   48.3408 O   0  0  0  0  0  0  0  0  0  0  0  0
  -18.8378  -67.0848   49.7636 O   0  0  0  0  0  0  0  0  0  0  0  0
  2 10  1  0
  2  1  1  1
  3  4  1  0
  3  2  1  0
  4  9  1  0
  5  4  2  0
  5  6  1  0
  6  7  2  0
  7  8  1  0
  9  8  2  0
 10 11  2  0
 13 12  1  1
 13 14  1  0
 15 13  1  0
 15 16  1  6
 16 10  1  0
 17 18  2  0
 17 15  1  0
 19 17  1  0
 20 19  1  0
 21 22  1  0
 20 21  1  6
 22 27  1  0
 23 22  2  0
 23 24  1  0
 24 25  2  0
 25 26  1  0
 27 26  2  0
 28 29  1  0
 28 20  1  0
 30 28  2  0
M  END
$$$$
