FVF.pdb
     RDKit          3D

 30 31  0  0  1  0  0  0  0  0999 V2000
    7.3242  -17.2486   20.8338 N   0  0  0  0  0  0  0  0  0  0  0  0
    8.1116  -16.3031   21.6253 C   0  0  1  0  0  0  0  0  0  0  0  0
    7.2134  -15.1893   22.1181 C   0  0  0  0  0  0  0  0  0  0  0  0
    7.3592  -14.0558   21.1752 C   0  0  0  0  0  0  0  0  0  0  0  0
    8.3559  -13.1147   21.2720 C   0  0  0  0  0  0  0  0  0  0  0  0
    8.4541  -12.0610   20.3582 C   0  0  0  0  0  0  0  0  0  0  0  0
    7.5198  -11.9715   19.3339 C   0  0  0  0  0  0  0  0  0  0  0  0
    6.5311  -12.8995   19.2326 C   0  0  0  0  0  0  0  0  0  0  0  0
    6.4530  -13.9307   20.1448 C   0  0  0  0  0  0  0  0  0  0  0  0
    8.6937  -17.0861   22.7478 C   0  0  0  0  0  0  0  0  0  0  0  0
    7.9031  -17.8694   23.3566 O   0  0  0  0  0  0  0  0  0  0  0  0
   12.5789  -19.1388   24.9735 C   0  0  0  0  0  0  0  0  0  0  0  0
   11.8881  -18.4065   23.8625 C   0  0  1  0  0  0  0  0  0  0  0  0
   11.6638  -19.4091   22.7388 C   0  0  0  0  0  0  0  0  0  0  0  0
   10.5901  -17.7575   24.2752 C   0  0  2  0  0  0  0  0  0  0  0  0
   10.0504  -16.9894   23.1440 N   0  0  0  0  0  0  0  0  0  0  0  0
   10.6781  -16.8604   25.4243 C   0  0  0  0  0  0  0  0  0  0  0  0
   11.3425  -15.7724   25.2808 O   0  0  0  0  0  0  0  0  0  0  0  0
   10.1142  -17.0331   26.7032 N   0  0  0  0  0  0  0  0  0  0  0  0
   10.4437  -16.1527   27.8265 C   0  0  1  0  0  0  0  0  0  0  0  0
    9.1559  -15.6007   28.3490 C   0  0  0  0  0  0  0  0  0  0  0  0
    8.4878  -14.6306   27.4758 C   0  0  0  0  0  0  0  0  0  0  0  0
    8.9607  -13.3294   27.4542 C   0  0  0  0  0  0  0  0  0  0  0  0
    8.3576  -12.4037   26.6415 C   0  0  0  0  0  0  0  0  0  0  0  0
    7.2875  -12.7881   25.8584 C   0  0  0  0  0  0  0  0  0  0  0  0
    6.8186  -14.0922   25.8843 C   0  0  0  0  0  0  0  0  0  0  0  0
    7.4186  -15.0270   26.6971 C   0  0  0  0  0  0  0  0  0  0  0  0
   11.1575  -16.9405   28.8522 C   0  0  0  0  0  0  0  0  0  0  0  0
   11.8868  -16.3255   29.8464 O   0  0  0  0  0  0  0  0  0  0  0  0
   11.1209  -18.1912   28.8471 O   0  0  0  0  0  0  0  0  0  0  0  0
  2 10  1  0
  2  1  1  6
  3  4  1  0
  3  2  1  0
  4  9  1  0
  5  4  2  0
  5  6  1  0
  6  7  2  0
  7  8  1  0
  9  8  2  0
 10 11  2  0
 13 12  1  1
 13 14  1  0
 15 13  1  0
 15 16  1  6
 16 10  1  0
 17 18  2  0
 17 15  1  0
 19 17  1  0
 20 19  1  0
 21 22  1  0
 20 21  1  1
 22 27  1  0
 23 22  2  0
 23 24  1  0
 24 25  2  0
 25 26  1  0
 27 26  2  0
 28 29  1  0
 28 20  1  0
 30 28  2  0
M  END
$$$$
