FVF.pdb
     RDKit          3D

 30 31  0  0  1  0  0  0  0  0999 V2000
    5.9347  -18.3701   24.3425 N   0  0  0  0  0  0  0  0  0  0  0  0
    6.5764  -17.0555   24.3144 C   0  0  1  0  0  0  0  0  0  0  0  0
    6.3395  -16.3517   25.6330 C   0  0  0  0  0  0  0  0  0  0  0  0
    6.6946  -14.9261   25.4416 C   0  0  0  0  0  0  0  0  0  0  0  0
    6.8676  -14.3489   24.2066 C   0  0  0  0  0  0  0  0  0  0  0  0
    7.2031  -12.9979   24.0744 C   0  0  0  0  0  0  0  0  0  0  0  0
    7.3627  -12.2306   25.2215 C   0  0  0  0  0  0  0  0  0  0  0  0
    7.1929  -12.7958   26.4466 C   0  0  0  0  0  0  0  0  0  0  0  0
    6.8621  -14.1302   26.5538 C   0  0  0  0  0  0  0  0  0  0  0  0
    8.0219  -17.3049   24.0687 C   0  0  0  0  0  0  0  0  0  0  0  0
    8.5025  -18.3667   24.5697 O   0  0  0  0  0  0  0  0  0  0  0  0
   11.8435  -16.5443   21.0021 C   0  0  0  0  0  0  0  0  0  0  0  0
   10.4750  -16.2321   21.5291 C   0  0  1  0  0  0  0  0  0  0  0  0
    9.4737  -16.7560   20.5089 C   0  0  0  0  0  0  0  0  0  0  0  0
   10.2036  -16.8065   22.8976 C   0  0  2  0  0  0  0  0  0  0  0  0
    8.8478  -16.4290   23.3222 N   0  0  0  0  0  0  0  0  0  0  0  0
   11.1328  -16.3909   23.9448 C   0  0  0  0  0  0  0  0  0  0  0  0
   11.7962  -15.3090   23.7573 O   0  0  0  0  0  0  0  0  0  0  0  0
   11.4043  -17.0349   25.1675 N   0  0  0  0  0  0  0  0  0  0  0  0
   12.6221  -16.7679   25.9365 C   0  0  1  0  0  0  0  0  0  0  0  0
   12.5086  -15.3784   26.4773 C   0  0  0  0  0  0  0  0  0  0  0  0
   11.3878  -15.1510   27.3950 C   0  0  0  0  0  0  0  0  0  0  0  0
   10.5794  -14.0465   27.1858 C   0  0  0  0  0  0  0  0  0  0  0  0
    9.5206  -13.8141   28.0259 C   0  0  0  0  0  0  0  0  0  0  0  0
    9.2803  -14.6883   29.0672 C   0  0  0  0  0  0  0  0  0  0  0  0
   10.0931  -15.7923   29.2716 C   0  0  0  0  0  0  0  0  0  0  0  0
   11.1575  -16.0325   28.4327 C   0  0  0  0  0  0  0  0  0  0  0  0
   12.7286  -17.7689   27.0176 C   0  0  0  0  0  0  0  0  0  0  0  0
   13.7997  -17.7736   27.8844 O   0  0  0  0  0  0  0  0  0  0  0  0
   11.8480  -18.6434   27.1771 O   0  0  0  0  0  0  0  0  0  0  0  0
  2 10  1  0
  2  1  1  1
  3  4  1  0
  3  2  1  0
  4  9  1  0
  5  4  2  0
  5  6  1  0
  6  7  2  0
  7  8  1  0
  9  8  2  0
 10 11  2  0
 13 12  1  6
 13 14  1  0
 15 13  1  0
 15 16  1  1
 16 10  1  0
 17 18  2  0
 17 15  1  0
 19 17  1  0
 20 19  1  0
 21 22  1  0
 20 21  1  1
 22 27  1  0
 23 22  2  0
 23 24  1  0
 24 25  2  0
 25 26  1  0
 27 26  2  0
 28 29  1  0
 28 20  1  0
 30 28  2  0
M  END
$$$$
