FVF.pdb
     RDKit          3D

 30 31  0  0  1  0  0  0  0  0999 V2000
   11.9647  -17.0552   18.8592 N   0  0  0  0  0  0  0  0  0  0  0  0
   11.1968  -17.7673   19.8809 C   0  0  1  0  0  0  0  0  0  0  0  0
   12.1185  -18.6847   20.6548 C   0  0  0  0  0  0  0  0  0  0  0  0
   12.3573  -19.8810   19.8139 C   0  0  0  0  0  0  0  0  0  0  0  0
   11.3620  -20.7483   19.4325 C   0  0  0  0  0  0  0  0  0  0  0  0
   11.6348  -21.8658   18.6375 C   0  0  0  0  0  0  0  0  0  0  0  0
   12.9426  -22.0962   18.2294 C   0  0  0  0  0  0  0  0  0  0  0  0
   13.9320  -21.2418   18.6035 C   0  0  0  0  0  0  0  0  0  0  0  0
   13.6406  -20.1456   19.3879 C   0  0  0  0  0  0  0  0  0  0  0  0
   10.5941  -16.7218   20.7503 C   0  0  0  0  0  0  0  0  0  0  0  0
   11.3965  -15.8787   21.2548 O   0  0  0  0  0  0  0  0  0  0  0  0
    6.5609  -14.1658   22.1374 C   0  0  0  0  0  0  0  0  0  0  0  0
    7.2749  -15.1956   21.3144 C   0  0  1  0  0  0  0  0  0  0  0  0
    7.3788  -14.6427   19.8996 C   0  0  0  0  0  0  0  0  0  0  0  0
    8.6350  -15.5681   21.8507 C   0  0  2  0  0  0  0  0  0  0  0  0
    9.2063  -16.6400   21.0227 N   0  0  0  0  0  0  0  0  0  0  0  0
    8.6571  -16.0158   23.2406 C   0  0  0  0  0  0  0  0  0  0  0  0
    8.4451  -17.2603   23.4688 O   0  0  0  0  0  0  0  0  0  0  0  0
    8.8886  -15.2440   24.3957 N   0  0  0  0  0  0  0  0  0  0  0  0
    8.9097  -15.8333   25.7366 C   0  0  1  0  0  0  0  0  0  0  0  0
    9.1065  -14.7144   26.7089 C   0  0  0  0  0  0  0  0  0  0  0  0
    8.1738  -13.5914   26.5717 C   0  0  0  0  0  0  0  0  0  0  0  0
    8.4551  -12.6129   25.6333 C   0  0  0  0  0  0  0  0  0  0  0  0
    7.5959  -11.5549   25.4805 C   0  0  0  0  0  0  0  0  0  0  0  0
    6.4636  -11.4855   26.2675 C   0  0  0  0  0  0  0  0  0  0  0  0
    6.1872  -12.4682   27.2052 C   0  0  0  0  0  0  0  0  0  0  0  0
    7.0446  -13.5331   27.3644 C   0  0  0  0  0  0  0  0  0  0  0  0
    7.6315  -16.5379   25.9645 C   0  0  0  0  0  0  0  0  0  0  0  0
    7.4971  -17.4663   26.9737 O   0  0  0  0  0  0  0  0  0  0  0  0
    6.6324  -16.3119   25.2458 O   0  0  0  0  0  0  0  0  0  0  0  0
  2 10  1  0
  2  1  1  6
  3  4  1  0
  3  2  1  0
  4  9  1  0
  5  4  2  0
  5  6  1  0
  6  7  2  0
  7  8  1  0
  9  8  2  0
 10 11  2  0
 13 12  1  1
 13 14  1  0
 15 13  1  0
 15 16  1  6
 16 10  1  0
 17 18  2  0
 17 15  1  0
 19 17  1  0
 20 19  1  0
 21 22  1  0
 20 21  1  1
 22 27  1  0
 23 22  2  0
 23 24  1  0
 24 25  2  0
 25 26  1  0
 27 26  2  0
 28 29  1  0
 28 20  1  0
 30 28  2  0
M  END
$$$$
