AVI.pdb
     RDKit          3D

 21 20  0  0  1  0  0  0  0  0999 V2000
   18.5725  -16.2700  -14.8833 C   0  0  0  0  0  0  0  0  0  0  0  0
   17.5834  -15.5964  -15.8180 C   0  0  2  0  0  0  0  0  0  0  0  0
   17.1683  -16.4678  -16.8832 N   0  0  0  0  0  0  0  0  0  0  0  0
   18.2627  -14.4054  -16.4215 C   0  0  0  0  0  0  0  0  0  0  0  0
   19.0755  -14.5209  -17.3632 O   0  0  0  0  0  0  0  0  0  0  0  0
   16.1915  -10.9229  -16.1370 C   0  0  0  0  0  0  0  0  0  0  0  0
   17.3122  -11.1254  -17.1187 C   0  0  1  0  0  0  0  0  0  0  0  0
   17.8222   -9.7733  -17.5446 C   0  0  0  0  0  0  0  0  0  0  0  0
   18.4386  -11.9482  -16.5426 C   0  0  2  0  0  0  0  0  0  0  0  0
   17.9372  -13.1350  -15.8699 N   0  0  0  0  0  0  0  0  0  0  0  0
   19.1038  -11.0950  -15.5020 C   0  0  0  0  0  0  0  0  0  0  0  0
   18.6119  -10.9522  -14.3478 O   0  0  0  0  0  0  0  0  0  0  0  0
   24.0705  -11.9871  -14.6992 C   0  0  0  0  0  0  0  0  0  0  0  0
   22.6342  -11.5466  -14.5516 C   0  0  0  0  0  0  0  0  0  0  0  0
   22.4738  -10.0764  -14.7992 C   0  0  2  0  0  0  0  0  0  0  0  0
   23.2654   -9.2975  -13.7668 C   0  0  0  0  0  0  0  0  0  0  0  0
   21.0185   -9.7055  -14.7625 C   0  0  2  0  0  0  0  0  0  0  0  0
   20.3162  -10.4356  -15.8319 N   0  0  0  0  0  0  0  0  0  0  0  0
   20.7650   -8.2546  -14.9577 C   0  0  0  0  0  0  0  0  0  0  0  0
   20.6257   -7.4468  -14.0142 O   0  0  0  0  0  0  0  0  0  0  0  0
   20.6740   -7.7456  -16.2512 O   0  0  0  0  0  0  0  0  0  0  0  0
  2  1  1  1
  2  3  1  0
  4 10  1  0
  4  2  1  0
  5  4  2  0
  7  9  1  0
  7  6  1  1
  8  7  1  0
  9 11  1  0
  9 10  1  1
 11 18  1  0
 12 11  2  0
 14 13  1  0
 15 14  1  0
 15 16  1  1
 17 15  1  0
 17 18  1  6
 19 17  1  0
 19 21  1  0
 20 19  2  0
M  END
$$$$
