AVI.pdb
     RDKit          3D

 21 20  0  0  1  0  0  0  0  0999 V2000
   16.6017  -11.2665  -15.1529 C   0  0  0  0  0  0  0  0  0  0  0  0
   16.5383  -10.6844  -16.5539 C   0  0  2  0  0  0  0  0  0  0  0  0
   16.6630  -11.6981  -17.5654 N   0  0  0  0  0  0  0  0  0  0  0  0
   17.6806   -9.7269  -16.7034 C   0  0  0  0  0  0  0  0  0  0  0  0
   18.8251  -10.1152  -17.0198 O   0  0  0  0  0  0  0  0  0  0  0  0
   18.9467   -4.9981  -17.2773 C   0  0  0  0  0  0  0  0  0  0  0  0
   17.9034   -6.0794  -17.2208 C   0  0  1  0  0  0  0  0  0  0  0  0
   17.3341   -6.2644  -18.6034 C   0  0  0  0  0  0  0  0  0  0  0  0
   18.4576   -7.3860  -16.7076 C   0  0  2  0  0  0  0  0  0  0  0  0
   17.3988   -8.3524  -16.4675 N   0  0  0  0  0  0  0  0  0  0  0  0
   19.0973   -7.0892  -15.3825 C   0  0  0  0  0  0  0  0  0  0  0  0
   18.4133   -6.7487  -14.3771 O   0  0  0  0  0  0  0  0  0  0  0  0
   23.7218   -9.7035  -13.9394 C   0  0  0  0  0  0  0  0  0  0  0  0
   22.9683   -8.4754  -14.3897 C   0  0  0  0  0  0  0  0  0  0  0  0
   21.8212   -8.1594  -13.4770 C   0  0  2  0  0  0  0  0  0  0  0  0
   20.8763   -9.3438  -13.4189 C   0  0  0  0  0  0  0  0  0  0  0  0
   21.1139   -6.9217  -13.9512 C   0  0  2  0  0  0  0  0  0  0  0  0
   20.5073   -7.1965  -15.2651 N   0  0  0  0  0  0  0  0  0  0  0  0
   22.0047   -5.7416  -14.0974 C   0  0  0  0  0  0  0  0  0  0  0  0
   22.3341   -5.2601  -15.2028 O   0  0  0  0  0  0  0  0  0  0  0  0
   22.5112   -5.1231  -12.9566 O   0  0  0  0  0  0  0  0  0  0  0  0
  2  1  1  1
  2  3  1  0
  4 10  1  0
  4  2  1  0
  5  4  2  0
  7  9  1  0
  7  6  1  6
  8  7  1  0
  9 11  1  0
  9 10  1  1
 11 18  1  0
 12 11  2  0
 14 13  1  0
 15 14  1  0
 15 16  1  6
 17 15  1  0
 17 18  1  6
 19 17  1  0
 19 21  1  0
 20 19  2  0
M  END
$$$$
