AVI.pdb
     RDKit          3D

 21 20  0  0  1  0  0  0  0  0999 V2000
   23.4952  -14.3926  -14.2662 C   0  0  0  0  0  0  0  0  0  0  0  0
   24.2154  -14.6379  -15.5803 C   0  0  2  0  0  0  0  0  0  0  0  0
   23.3609  -14.4125  -16.7141 N   0  0  0  0  0  0  0  0  0  0  0  0
   24.6563  -16.0694  -15.6000 C   0  0  0  0  0  0  0  0  0  0  0  0
   23.8369  -17.0069  -15.7023 O   0  0  0  0  0  0  0  0  0  0  0  0
   28.4210  -19.0853  -16.4937 C   0  0  0  0  0  0  0  0  0  0  0  0
   27.7858  -17.7225  -16.4950 C   0  0  1  0  0  0  0  0  0  0  0  0
   27.4793  -17.3414  -17.9200 C   0  0  0  0  0  0  0  0  0  0  0  0
   26.5282  -17.6743  -15.6619 C   0  0  2  0  0  0  0  0  0  0  0  0
   26.0547  -16.3101  -15.4964 N   0  0  0  0  0  0  0  0  0  0  0  0
   26.8968  -18.1851  -14.2994 C   0  0  0  0  0  0  0  0  0  0  0  0
   27.5846  -17.4951  -13.4960 O   0  0  0  0  0  0  0  0  0  0  0  0
   25.0340  -20.7280   -9.3816 C   0  0  0  0  0  0  0  0  0  0  0  0
   26.1903  -20.5901  -10.3422 C   0  0  0  0  0  0  0  0  0  0  0  0
   25.7442  -20.0883  -11.6830 C   0  0  2  0  0  0  0  0  0  0  0  0
   24.6676  -21.0019  -12.2355 C   0  0  0  0  0  0  0  0  0  0  0  0
   26.9185  -20.0044  -12.6163 C   0  0  2  0  0  0  0  0  0  0  0  0
   26.4573  -19.4775  -13.9122 N   0  0  0  0  0  0  0  0  0  0  0  0
   27.5809  -21.3110  -12.8644 C   0  0  0  0  0  0  0  0  0  0  0  0
   27.1362  -22.1691  -13.6569 O   0  0  0  0  0  0  0  0  0  0  0  0
   28.7605  -21.6173  -12.1897 O   0  0  0  0  0  0  0  0  0  0  0  0
  2  1  1  1
  2  3  1  0
  4 10  1  0
  4  2  1  0
  5  4  2  0
  7  9  1  0
  7  6  1  6
  8  7  1  0
  9 11  1  0
  9 10  1  1
 11 18  1  0
 12 11  2  0
 14 13  1  0
 15 14  1  0
 15 16  1  6
 17 15  1  0
 17 18  1  6
 19 17  1  0
 19 21  1  0
 20 19  2  0
M  END
$$$$
