AVI.pdb
     RDKit          3D

 21 20  0  0  1  0  0  0  0  0999 V2000
   26.8931  -14.6808  -15.7467 C   0  0  0  0  0  0  0  0  0  0  0  0
   26.2112  -15.9112  -16.3183 C   0  0  2  0  0  0  0  0  0  0  0  0
   25.2722  -15.5756  -17.3538 N   0  0  0  0  0  0  0  0  0  0  0  0
   25.4650  -16.5796  -15.2045 C   0  0  0  0  0  0  0  0  0  0  0  0
   24.6260  -15.9630  -14.5142 O   0  0  0  0  0  0  0  0  0  0  0  0
   23.0289  -19.0289  -15.5150 C   0  0  0  0  0  0  0  0  0  0  0  0
   24.0529  -19.6721  -14.6214 C   0  0  1  0  0  0  0  0  0  0  0  0
   24.8541  -20.6494  -15.4417 C   0  0  0  0  0  0  0  0  0  0  0  0
   24.9690  -18.6606  -13.9768 C   0  0  2  0  0  0  0  0  0  0  0  0
   25.7583  -17.9520  -14.9706 N   0  0  0  0  0  0  0  0  0  0  0  0
   25.9265  -19.4351  -13.1186 C   0  0  0  0  0  0  0  0  0  0  0  0
   27.0122  -19.8877  -13.5781 O   0  0  0  0  0  0  0  0  0  0  0  0
   26.0470  -18.6692   -7.6257 C   0  0  0  0  0  0  0  0  0  0  0  0
   26.4515  -18.9043   -9.0609 C   0  0  0  0  0  0  0  0  0  0  0  0
   26.1646  -20.3098   -9.4979 C   0  0  2  0  0  0  0  0  0  0  0  0
   26.9398  -21.2809   -8.6288 C   0  0  0  0  0  0  0  0  0  0  0  0
   26.5160  -20.4780  -10.9488 C   0  0  2  0  0  0  0  0  0  0  0  0
   25.5956  -19.6601  -11.7572 N   0  0  0  0  0  0  0  0  0  0  0  0
   26.4219  -21.8809  -11.4291 C   0  0  0  0  0  0  0  0  0  0  0  0
   25.3383  -22.4543  -11.6725 O   0  0  0  0  0  0  0  0  0  0  0  0
   27.5894  -22.6148  -11.6256 O   0  0  0  0  0  0  0  0  0  0  0  0
  2  1  1  1
  2  3  1  0
  4 10  1  0
  4  2  1  0
  5  4  2  0
  7  9  1  0
  7  6  1  6
  8  7  1  0
  9 11  1  0
  9 10  1  6
 11 18  1  0
 12 11  2  0
 14 13  1  0
 15 14  1  0
 15 16  1  1
 17 15  1  0
 17 18  1  6
 19 17  1  0
 19 21  1  0
 20 19  2  0
M  END
$$$$
