AVI.pdb
     RDKit          3D

 21 20  0  0  1  0  0  0  0  0999 V2000
   22.5688  -19.7345  -11.3362 C   0  0  0  0  0  0  0  0  0  0  0  0
   23.6468  -20.5627  -12.0127 C   0  0  2  0  0  0  0  0  0  0  0  0
   23.1020  -21.7075  -12.6901 N   0  0  0  0  0  0  0  0  0  0  0  0
   24.5858  -21.0466  -10.9506 C   0  0  0  0  0  0  0  0  0  0  0  0
   24.1803  -21.6924   -9.9610 O   0  0  0  0  0  0  0  0  0  0  0  0
   28.8427  -20.0344  -11.1688 C   0  0  0  0  0  0  0  0  0  0  0  0
   28.2959  -21.3681  -10.7409 C   0  0  1  0  0  0  0  0  0  0  0  0
   29.2410  -21.9692   -9.7334 C   0  0  0  0  0  0  0  0  0  0  0  0
   26.9101  -21.2587  -10.1531 C   0  0  2  0  0  0  0  0  0  0  0  0
   25.9631  -20.7349  -11.1234 N   0  0  0  0  0  0  0  0  0  0  0  0
   26.9967  -20.2622   -9.0339 C   0  0  0  0  0  0  0  0  0  0  0  0
   26.5597  -19.0840   -9.1595 O   0  0  0  0  0  0  0  0  0  0  0  0
   27.0399  -19.9421   -3.0225 C   0  0  0  0  0  0  0  0  0  0  0  0
   27.0244  -19.2672   -4.3726 C   0  0  0  0  0  0  0  0  0  0  0  0
   27.0026  -20.2631   -5.4934 C   0  0  2  0  0  0  0  0  0  0  0  0
   27.7066  -21.5337   -5.0586 C   0  0  0  0  0  0  0  0  0  0  0  0
   27.6479  -19.6744   -6.7157 C   0  0  2  0  0  0  0  0  0  0  0  0
   27.5859  -20.6622   -7.8067 N   0  0  0  0  0  0  0  0  0  0  0  0
   29.0722  -19.2996   -6.5195 C   0  0  0  0  0  0  0  0  0  0  0  0
   30.0292  -20.0259   -6.8643 O   0  0  0  0  0  0  0  0  0  0  0  0
   29.3809  -18.0797   -5.9222 O   0  0  0  0  0  0  0  0  0  0  0  0
  2  1  1  1
  2  3  1  0
  4 10  1  0
  4  2  1  0
  5  4  2  0
  7  9  1  0
  7  6  1  1
  8  7  1  0
  9 11  1  0
  9 10  1  6
 11 18  1  0
 12 11  2  0
 14 13  1  0
 15 14  1  0
 15 16  1  1
 17 15  1  0
 17 18  1  6
 19 17  1  0
 19 21  1  0
 20 19  2  0
M  END
$$$$
