AVI.pdb
     RDKit          3D

 21 20  0  0  1  0  0  0  0  0999 V2000
   17.3119   -9.3562  -16.0533 C   0  0  0  0  0  0  0  0  0  0  0  0
   18.8060   -9.3904  -15.7848 C   0  0  2  0  0  0  0  0  0  0  0  0
   19.3359  -10.7250  -15.8530 N   0  0  0  0  0  0  0  0  0  0  0  0
   19.0344   -8.8631  -14.4014 C   0  0  0  0  0  0  0  0  0  0  0  0
   18.9146   -9.5915  -13.3935 O   0  0  0  0  0  0  0  0  0  0  0  0
   20.6617   -4.8910  -13.9497 C   0  0  0  0  0  0  0  0  0  0  0  0
   20.8251   -6.0141  -12.9635 C   0  0  1  0  0  0  0  0  0  0  0  0
   21.0155   -5.4198  -11.5923 C   0  0  0  0  0  0  0  0  0  0  0  0
   19.6446   -6.9545  -12.9632 C   0  0  2  0  0  0  0  0  0  0  0  0
   19.3948   -7.4912  -14.2907 N   0  0  0  0  0  0  0  0  0  0  0  0
   18.4452   -6.1365  -12.5816 C   0  0  0  0  0  0  0  0  0  0  0  0
   17.7756   -5.4994  -13.4422 O   0  0  0  0  0  0  0  0  0  0  0  0
   13.8914   -6.2316   -8.6263 C   0  0  0  0  0  0  0  0  0  0  0  0
   14.7595   -5.4287   -9.5646 C   0  0  0  0  0  0  0  0  0  0  0  0
   16.0167   -6.1619   -9.9257 C   0  0  2  0  0  0  0  0  0  0  0  0
   16.7935   -6.4906   -8.6656 C   0  0  0  0  0  0  0  0  0  0  0  0
   16.8395   -5.3348  -10.8721 C   0  0  2  0  0  0  0  0  0  0  0  0
   18.0605   -6.0831  -11.2168 N   0  0  0  0  0  0  0  0  0  0  0  0
   17.2515   -4.0202  -10.3157 C   0  0  0  0  0  0  0  0  0  0  0  0
   18.3664   -3.8139   -9.7896 O   0  0  0  0  0  0  0  0  0  0  0  0
   16.3653   -2.9470  -10.3724 O   0  0  0  0  0  0  0  0  0  0  0  0
  2  1  1  1
  2  3  1  0
  4 10  1  0
  4  2  1  0
  5  4  2  0
  7  9  1  0
  7  6  1  6
  8  7  1  0
  9 11  1  0
  9 10  1  6
 11 18  1  0
 12 11  2  0
 14 13  1  0
 15 14  1  0
 15 16  1  1
 17 15  1  0
 17 18  1  1
 19 17  1  0
 19 21  1  0
 20 19  2  0
M  END
$$$$
