AVI.pdb
     RDKit          3D

 21 20  0  0  1  0  0  0  0  0999 V2000
   24.4465  -24.3436  -17.5219 C   0  0  0  0  0  0  0  0  0  0  0  0
   25.0571  -23.1620  -18.2543 C   0  0  2  0  0  0  0  0  0  0  0  0
   26.2082  -23.5423  -19.0268 N   0  0  0  0  0  0  0  0  0  0  0  0
   25.4890  -22.1607  -17.2273 C   0  0  0  0  0  0  0  0  0  0  0  0
   26.6962  -21.9413  -16.9919 O   0  0  0  0  0  0  0  0  0  0  0  0
   24.2047  -18.0933  -14.8441 C   0  0  0  0  0  0  0  0  0  0  0  0
   23.9376  -19.1788  -15.8496 C   0  0  1  0  0  0  0  0  0  0  0  0
   24.1267  -18.6061  -17.2301 C   0  0  0  0  0  0  0  0  0  0  0  0
   24.8366  -20.3754  -15.6554 C   0  0  2  0  0  0  0  0  0  0  0  0
   24.4570  -21.4708  -16.5321 N   0  0  0  0  0  0  0  0  0  0  0  0
   24.6289  -20.8431  -14.2443 C   0  0  0  0  0  0  0  0  0  0  0  0
   23.6348  -21.5511  -13.9197 O   0  0  0  0  0  0  0  0  0  0  0  0
   29.0459  -20.9888  -11.0073 C   0  0  0  0  0  0  0  0  0  0  0  0
   27.7341  -21.4322  -11.6084 C   0  0  0  0  0  0  0  0  0  0  0  0
   26.5774  -20.6513  -11.0599 C   0  0  2  0  0  0  0  0  0  0  0  0
   26.3661  -21.0114   -9.6023 C   0  0  0  0  0  0  0  0  0  0  0  0
   25.3433  -20.9233  -11.8722 C   0  0  2  0  0  0  0  0  0  0  0  0
   25.5783  -20.4759  -13.2558 N   0  0  0  0  0  0  0  0  0  0  0  0
   24.1296  -20.2300  -11.3682 C   0  0  0  0  0  0  0  0  0  0  0  0
   23.1883  -20.8191  -10.7945 O   0  0  0  0  0  0  0  0  0  0  0  0
   24.0130  -18.8517  -11.5325 O   0  0  0  0  0  0  0  0  0  0  0  0
  2  1  1  1
  2  3  1  0
  4 10  1  0
  4  2  1  0
  5  4  2  0
  7  9  1  0
  7  6  1  1
  8  7  1  0
  9 11  1  0
  9 10  1  6
 11 18  1  0
 12 11  2  0
 14 13  1  0
 15 14  1  0
 15 16  1  1
 17 15  1  0
 17 18  1  6
 19 17  1  0
 19 21  1  0
 20 19  2  0
M  END
$$$$
