AVI.pdb
     RDKit          3D

 21 20  0  0  1  0  0  0  0  0999 V2000
   18.0447  -10.8071  -17.9078 C   0  0  0  0  0  0  0  0  0  0  0  0
   19.2990  -11.5532  -17.4885 C   0  0  2  0  0  0  0  0  0  0  0  0
   19.0168  -12.9091  -17.1035 N   0  0  0  0  0  0  0  0  0  0  0  0
   19.8822  -10.8399  -16.3074 C   0  0  0  0  0  0  0  0  0  0  0  0
   19.2713  -10.7624  -15.2204 O   0  0  0  0  0  0  0  0  0  0  0  0
   23.2897  -11.5550  -14.7681 C   0  0  0  0  0  0  0  0  0  0  0  0
   23.2173  -10.1042  -15.1562 C   0  0  1  0  0  0  0  0  0  0  0  0
   23.9918   -9.9140  -16.4344 C   0  0  0  0  0  0  0  0  0  0  0  0
   21.7964   -9.6273  -15.3333 C   0  0  2  0  0  0  0  0  0  0  0  0
   21.1668  -10.2543  -16.4835 N   0  0  0  0  0  0  0  0  0  0  0  0
   21.8706   -8.1548  -15.6150 C   0  0  0  0  0  0  0  0  0  0  0  0
   22.1278   -7.7124  -16.7695 O   0  0  0  0  0  0  0  0  0  0  0  0
   18.9600   -3.4270  -16.0746 C   0  0  0  0  0  0  0  0  0  0  0  0
   20.2994   -3.8910  -15.5554 C   0  0  0  0  0  0  0  0  0  0  0  0
   20.2935   -5.3541  -15.2270 C   0  0  2  0  0  0  0  0  0  0  0  0
   19.3116   -5.6189  -14.1023 C   0  0  0  0  0  0  0  0  0  0  0  0
   21.6787   -5.8027  -14.8570 C   0  0  2  0  0  0  0  0  0  0  0  0
   21.6445   -7.2432  -14.5513 N   0  0  0  0  0  0  0  0  0  0  0  0
   22.2408   -5.0985  -13.6756 C   0  0  0  0  0  0  0  0  0  0  0  0
   22.2523   -5.5855  -12.5246 O   0  0  0  0  0  0  0  0  0  0  0  0
   22.7892   -3.8280  -13.8355 O   0  0  0  0  0  0  0  0  0  0  0  0
  2  1  1  1
  2  3  1  0
  4 10  1  0
  4  2  1  0
  5  4  2  0
  7  9  1  0
  7  6  1  6
  8  7  1  0
  9 11  1  0
  9 10  1  6
 11 18  1  0
 12 11  2  0
 14 13  1  0
 15 14  1  0
 15 16  1  1
 17 15  1  0
 17 18  1  1
 19 17  1  0
 19 21  1  0
 20 19  2  0
M  END
$$$$
