AVI.pdb
     RDKit          3D

 21 20  0  0  1  0  0  0  0  0999 V2000
   19.8788  -19.2398  -10.9753 C   0  0  0  0  0  0  0  0  0  0  0  0
   19.7387  -20.0829  -12.2303 C   0  0  2  0  0  0  0  0  0  0  0  0
   18.6438  -21.0098  -12.1381 N   0  0  0  0  0  0  0  0  0  0  0  0
   21.0050  -20.8652  -12.3996 C   0  0  0  0  0  0  0  0  0  0  0  0
   21.2038  -21.9331  -11.7825 O   0  0  0  0  0  0  0  0  0  0  0  0
   24.7838  -21.8199  -15.3448 C   0  0  0  0  0  0  0  0  0  0  0  0
   23.4617  -21.1672  -15.0502 C   0  0  1  0  0  0  0  0  0  0  0  0
   22.3832  -21.9263  -15.7784 C   0  0  0  0  0  0  0  0  0  0  0  0
   23.1594  -21.1235  -13.5722 C   0  0  2  0  0  0  0  0  0  0  0  0
   21.9712  -20.3327  -13.2979 N   0  0  0  0  0  0  0  0  0  0  0  0
   24.3174  -20.4274  -12.9183 C   0  0  0  0  0  0  0  0  0  0  0  0
   24.4984  -19.1835  -13.0403 O   0  0  0  0  0  0  0  0  0  0  0  0
   25.5138  -20.8905   -7.8579 C   0  0  0  0  0  0  0  0  0  0  0  0
   25.3935  -20.4599   -9.2997 C   0  0  0  0  0  0  0  0  0  0  0  0
   26.5406  -20.9571  -10.1275 C   0  0  2  0  0  0  0  0  0  0  0  0
   27.8466  -20.4653   -9.5345 C   0  0  0  0  0  0  0  0  0  0  0  0
   26.3829  -20.5006  -11.5501 C   0  0  2  0  0  0  0  0  0  0  0  0
   25.2273  -21.1938  -12.1449 N   0  0  0  0  0  0  0  0  0  0  0  0
   27.5685  -20.7755  -12.4024 C   0  0  0  0  0  0  0  0  0  0  0  0
   27.8298  -21.9022  -12.8760 O   0  0  0  0  0  0  0  0  0  0  0  0
   28.4486  -19.7383  -12.7024 O   0  0  0  0  0  0  0  0  0  0  0  0
  2  1  1  1
  2  3  1  0
  4 10  1  0
  4  2  1  0
  5  4  2  0
  7  9  1  0
  7  6  1  1
  8  7  1  0
  9 11  1  0
  9 10  1  6
 11 18  1  0
 12 11  2  0
 14 13  1  0
 15 14  1  0
 15 16  1  1
 17 15  1  0
 17 18  1  6
 19 17  1  0
 19 21  1  0
 20 19  2  0
M  END
$$$$
