AVI.pdb
     RDKit          3D

 21 20  0  0  1  0  0  0  0  0999 V2000
   22.7877  -24.7637  -15.8715 C   0  0  0  0  0  0  0  0  0  0  0  0
   24.2312  -24.9157  -16.3173 C   0  0  2  0  0  0  0  0  0  0  0  0
   24.6495  -26.2909  -16.3316 N   0  0  0  0  0  0  0  0  0  0  0  0
   25.0918  -24.1717  -15.3427 C   0  0  0  0  0  0  0  0  0  0  0  0
   25.5359  -24.7172  -14.3101 O   0  0  0  0  0  0  0  0  0  0  0  0
   27.4971  -19.9394  -14.3956 C   0  0  0  0  0  0  0  0  0  0  0  0
   26.7745  -20.8209  -15.3761 C   0  0  1  0  0  0  0  0  0  0  0  0
   27.7322  -21.1923  -16.4782 C   0  0  0  0  0  0  0  0  0  0  0  0
   26.2192  -22.0658  -14.7283 C   0  0  2  0  0  0  0  0  0  0  0  0
   25.3792  -22.8127  -15.6499 N   0  0  0  0  0  0  0  0  0  0  0  0
   25.3421  -21.6069  -13.5999 C   0  0  0  0  0  0  0  0  0  0  0  0
   24.1199  -21.3419  -13.7752 O   0  0  0  0  0  0  0  0  0  0  0  0
   25.7333  -20.3436   -7.5463 C   0  0  0  0  0  0  0  0  0  0  0  0
   24.9272  -20.5605   -8.8041 C   0  0  0  0  0  0  0  0  0  0  0  0
   25.7695  -21.1041   -9.9192 C   0  0  2  0  0  0  0  0  0  0  0  0
   27.1104  -20.3963   -9.9352 C   0  0  0  0  0  0  0  0  0  0  0  0
   25.0530  -20.9421  -11.2296 C   0  0  2  0  0  0  0  0  0  0  0  0
   25.9087  -21.4701  -12.3061 N   0  0  0  0  0  0  0  0  0  0  0  0
   24.7209  -19.5322  -11.5604 C   0  0  0  0  0  0  0  0  0  0  0  0
   25.5630  -18.7040  -11.9694 O   0  0  0  0  0  0  0  0  0  0  0  0
   23.4087  -19.0878  -11.4149 O   0  0  0  0  0  0  0  0  0  0  0  0
  2  1  1  1
  2  3  1  0
  4 10  1  0
  4  2  1  0
  5  4  2  0
  7  9  1  0
  7  6  1  1
  8  7  1  0
  9 11  1  0
  9 10  1  6
 11 18  1  0
 12 11  2  0
 14 13  1  0
 15 14  1  0
 15 16  1  6
 17 15  1  0
 17 18  1  6
 19 17  1  0
 19 21  1  0
 20 19  2  0
M  END
$$$$
