AVI.pdb
     RDKit          3D

 21 20  0  0  1  0  0  0  0  0999 V2000
   17.2415  -12.3054  -17.8217 C   0  0  0  0  0  0  0  0  0  0  0  0
   18.1597  -12.8914  -16.7638 C   0  0  2  0  0  0  0  0  0  0  0  0
   17.4661  -13.7971  -15.8892 N   0  0  0  0  0  0  0  0  0  0  0  0
   18.6924  -11.7581  -15.9418 C   0  0  0  0  0  0  0  0  0  0  0  0
   18.0223  -11.2435  -15.0215 O   0  0  0  0  0  0  0  0  0  0  0  0
   22.7783   -9.4195  -14.5025 C   0  0  0  0  0  0  0  0  0  0  0  0
   22.1067  -10.5019  -15.3013 C   0  0  1  0  0  0  0  0  0  0  0  0
   22.4305  -11.8306  -14.6694 C   0  0  0  0  0  0  0  0  0  0  0  0
   20.6113  -10.3140  -15.3797 C   0  0  2  0  0  0  0  0  0  0  0  0
   19.9996  -11.2955  -16.2601 N   0  0  0  0  0  0  0  0  0  0  0  0
   20.3806   -8.9630  -15.9919 C   0  0  0  0  0  0  0  0  0  0  0  0
   20.7054   -8.7116  -17.1861 O   0  0  0  0  0  0  0  0  0  0  0  0
   15.8193   -6.8740  -16.4249 C   0  0  0  0  0  0  0  0  0  0  0  0
   17.2958   -7.1486  -16.5780 C   0  0  0  0  0  0  0  0  0  0  0  0
   18.1223   -6.2594  -15.6978 C   0  0  2  0  0  0  0  0  0  0  0  0
   17.8886   -4.8098  -16.0764 C   0  0  0  0  0  0  0  0  0  0  0  0
   19.5744   -6.6257  -15.8170 C   0  0  2  0  0  0  0  0  0  0  0  0
   19.7817   -7.9479  -15.2017 N   0  0  0  0  0  0  0  0  0  0  0  0
   20.4912   -5.6639  -15.1522 C   0  0  0  0  0  0  0  0  0  0  0  0
   20.6673   -5.6227  -13.9154 O   0  0  0  0  0  0  0  0  0  0  0  0
   21.2022   -4.7511  -15.9278 O   0  0  0  0  0  0  0  0  0  0  0  0
  2  1  1  6
  2  3  1  0
  4 10  1  0
  4  2  1  0
  5  4  2  0
  7  9  1  0
  7  6  1  1
  8  7  1  0
  9 11  1  0
  9 10  1  6
 11 18  1  0
 12 11  2  0
 14 13  1  0
 15 14  1  0
 15 16  1  6
 17 15  1  0
 17 18  1  1
 19 17  1  0
 19 21  1  0
 20 19  2  0
M  END
$$$$
