AVI.pdb
     RDKit          3D

 21 20  0  0  1  0  0  0  0  0999 V2000
   18.3532  -15.1145  -18.6296 C   0  0  0  0  0  0  0  0  0  0  0  0
   18.5215  -14.3766  -17.3133 C   0  0  2  0  0  0  0  0  0  0  0  0
   17.3176  -14.3930  -16.5279 N   0  0  0  0  0  0  0  0  0  0  0  0
   18.8592  -12.9514  -17.6277 C   0  0  0  0  0  0  0  0  0  0  0  0
   19.8972  -12.6456  -18.2521 O   0  0  0  0  0  0  0  0  0  0  0  0
   17.2147   -8.3134  -17.8593 C   0  0  0  0  0  0  0  0  0  0  0  0
   16.9654   -9.7926  -17.7579 C   0  0  1  0  0  0  0  0  0  0  0  0
   16.3355  -10.2587  -19.0446 C   0  0  0  0  0  0  0  0  0  0  0  0
   18.2297  -10.5708  -17.4862 C   0  0  2  0  0  0  0  0  0  0  0  0
   17.9399  -11.9620  -17.1806 N   0  0  0  0  0  0  0  0  0  0  0  0
   18.8498   -9.9664  -16.2601 C   0  0  0  0  0  0  0  0  0  0  0  0
   18.2767  -10.0115  -15.1358 O   0  0  0  0  0  0  0  0  0  0  0  0
   23.4064  -11.5071  -14.8859 C   0  0  0  0  0  0  0  0  0  0  0  0
   22.0365  -10.8767  -14.9548 C   0  0  0  0  0  0  0  0  0  0  0  0
   22.1140   -9.3805  -15.0186 C   0  0  2  0  0  0  0  0  0  0  0  0
   22.8155   -8.8543  -13.7816 C   0  0  0  0  0  0  0  0  0  0  0  0
   20.7345   -8.8003  -15.1503 C   0  0  2  0  0  0  0  0  0  0  0  0
   20.1127   -9.3298  -16.3761 N   0  0  0  0  0  0  0  0  0  0  0  0
   20.7139   -7.3169  -15.2319 C   0  0  0  0  0  0  0  0  0  0  0  0
   20.8074   -6.6849  -16.3061 O   0  0  0  0  0  0  0  0  0  0  0  0
   20.5844   -6.5707  -14.0627 O   0  0  0  0  0  0  0  0  0  0  0  0
  2  1  1  6
  2  3  1  0
  4 10  1  0
  4  2  1  0
  5  4  2  0
  7  9  1  0
  7  6  1  6
  8  7  1  0
  9 11  1  0
  9 10  1  1
 11 18  1  0
 12 11  2  0
 14 13  1  0
 15 14  1  0
 15 16  1  1
 17 15  1  0
 17 18  1  6
 19 17  1  0
 19 21  1  0
 20 19  2  0
M  END
$$$$
