AVI.pdb
     RDKit          3D

 21 20  0  0  1  0  0  0  0  0999 V2000
   23.7537  -24.5227  -14.5308 C   0  0  0  0  0  0  0  0  0  0  0  0
   24.6979  -23.6809  -15.3706 C   0  0  2  0  0  0  0  0  0  0  0  0
   25.5234  -24.4880  -16.2271 N   0  0  0  0  0  0  0  0  0  0  0  0
   25.5893  -22.9227  -14.4354 C   0  0  0  0  0  0  0  0  0  0  0  0
   26.6550  -23.4116  -14.0040 O   0  0  0  0  0  0  0  0  0  0  0  0
   26.8427  -18.5025  -12.7129 C   0  0  0  0  0  0  0  0  0  0  0  0
   25.9712  -19.3559  -13.5921 C   0  0  1  0  0  0  0  0  0  0  0  0
   26.3922  -19.1497  -15.0239 C   0  0  0  0  0  0  0  0  0  0  0  0
   26.0508  -20.8195  -13.2324 C   0  0  2  0  0  0  0  0  0  0  0  0
   25.1633  -21.6177  -14.0619 N   0  0  0  0  0  0  0  0  0  0  0  0
   25.5646  -20.9402  -11.8174 C   0  0  0  0  0  0  0  0  0  0  0  0
   24.3899  -21.3185  -11.5496 O   0  0  0  0  0  0  0  0  0  0  0  0
   27.7107  -20.2356   -6.0304 C   0  0  0  0  0  0  0  0  0  0  0  0
   26.6385  -20.6346   -7.0153 C   0  0  0  0  0  0  0  0  0  0  0  0
   27.1074  -20.5028   -8.4335 C   0  0  2  0  0  0  0  0  0  0  0  0
   27.6627  -19.1098   -8.6582 C   0  0  0  0  0  0  0  0  0  0  0  0
   25.9762  -20.7965   -9.3775 C   0  0  2  0  0  0  0  0  0  0  0  0
   26.4540  -20.6190  -10.7595 N   0  0  0  0  0  0  0  0  0  0  0  0
   24.7935  -19.9177   -9.1869 C   0  0  0  0  0  0  0  0  0  0  0  0
   23.7698  -20.2669   -8.5606 O   0  0  0  0  0  0  0  0  0  0  0  0
   24.8036  -18.6332   -9.7256 O   0  0  0  0  0  0  0  0  0  0  0  0
  2  1  1  1
  2  3  1  0
  4 10  1  0
  4  2  1  0
  5  4  2  0
  7  9  1  0
  7  6  1  1
  8  7  1  0
  9 11  1  0
  9 10  1  6
 11 18  1  0
 12 11  2  0
 14 13  1  0
 15 14  1  0
 15 16  1  1
 17 15  1  0
 17 18  1  6
 19 17  1  0
 19 21  1  0
 20 19  2  0
M  END
$$$$
