VVA.pdb
     RDKit          3D

 20 19  0  0  1  0  0  0  0  0999 V2000
    6.3195  -16.9242   22.3066 C   0  0  0  0  0  0  0  0  0  0  0  0
    7.2480  -16.3271   21.2535 C   0  0  1  0  0  0  0  0  0  0  0  0
    6.6186  -16.6005   19.9136 C   0  0  0  0  0  0  0  0  0  0  0  0
    7.3447  -14.8337   21.5055 C   0  0  2  0  0  0  0  0  0  0  0  0
    8.0016  -14.1531   20.4232 N   0  0  0  0  0  0  0  0  0  0  0  0
    7.9598  -14.5747   22.8141 C   0  0  0  0  0  0  0  0  0  0  0  0
    9.2057  -14.6156   22.9071 O   0  0  0  0  0  0  0  0  0  0  0  0
    6.5415  -11.8377   25.3252 C   0  0  0  0  0  0  0  0  0  0  0  0
    6.8282  -13.1293   26.0871 C   0  0  2  0  0  0  0  0  0  0  0  0
    7.4256  -12.8157   27.4413 C   0  0  0  0  0  0  0  0  0  0  0  0
    7.7800  -13.9368   25.2368 C   0  0  2  0  0  0  0  0  0  0  0  0
    7.2118  -14.2823   23.9702 N   0  0  0  0  0  0  0  0  0  0  0  0
    8.2466  -15.1545   25.9171 C   0  0  0  0  0  0  0  0  0  0  0  0
    7.4425  -16.0531   26.2495 O   0  0  0  0  0  0  0  0  0  0  0  0
   11.3188  -17.0362   26.1597 C   0  0  0  0  0  0  0  0  0  0  0  0
   10.0485  -16.5740   26.8799 C   0  0  2  0  0  0  0  0  0  0  0  0
    9.6184  -15.3715   26.2286 N   0  0  0  0  0  0  0  0  0  0  0  0
   10.3142  -16.3443   28.3184 C   0  0  0  0  0  0  0  0  0  0  0  0
   10.3398  -15.1751   28.7700 O   0  0  0  0  0  0  0  0  0  0  0  0
   10.5391  -17.3889   29.1967 O   0  0  0  0  0  0  0  0  0  0  0  0
  2  1  1  1
  3  2  1  0
  4  2  1  0
  4  5  1  6
  6 12  1  0
  6  4  1  0
  7  6  2  0
  9  8  1  6
  9 11  1  0
 10  9  1  0
 11 12  1  6
 13 11  1  0
 13 14  2  0
 16 17  1  0
 16 15  1  6
 17 13  1  0
 18 16  1  0
 19 18  2  0
 20 18  1  0
M  END
$$$$
