VVA.pdb
     RDKit          3D

 20 19  0  0  1  0  0  0  0  0999 V2000
    6.8682  -17.3840   20.7600 C   0  0  0  0  0  0  0  0  0  0  0  0
    7.5480  -16.8132   22.0009 C   0  0  1  0  0  0  0  0  0  0  0  0
    8.8509  -17.5501   22.1607 C   0  0  0  0  0  0  0  0  0  0  0  0
    7.7941  -15.3347   21.7630 C   0  0  2  0  0  0  0  0  0  0  0  0
    8.6156  -15.1119   20.6047 N   0  0  0  0  0  0  0  0  0  0  0  0
    8.3202  -14.7017   22.9796 C   0  0  0  0  0  0  0  0  0  0  0  0
    9.5523  -14.5101   23.0683 O   0  0  0  0  0  0  0  0  0  0  0  0
    6.6173  -11.8014   25.1564 C   0  0  0  0  0  0  0  0  0  0  0  0
    6.9529  -12.9983   26.0427 C   0  0  2  0  0  0  0  0  0  0  0  0
    7.4706  -12.5267   27.3839 C   0  0  0  0  0  0  0  0  0  0  0  0
    7.9898  -13.8119   25.3052 C   0  0  2  0  0  0  0  0  0  0  0  0
    7.5016  -14.2999   24.0521 N   0  0  0  0  0  0  0  0  0  0  0  0
    8.4986  -14.9345   26.1077 C   0  0  0  0  0  0  0  0  0  0  0  0
    7.7700  -15.9153   26.3753 O   0  0  0  0  0  0  0  0  0  0  0  0
   11.6824  -16.4362   26.8602 C   0  0  0  0  0  0  0  0  0  0  0  0
   10.2973  -16.0676   27.3998 C   0  0  2  0  0  0  0  0  0  0  0  0
    9.8282  -14.9636   26.6149 N   0  0  0  0  0  0  0  0  0  0  0  0
   10.3694  -15.7173   28.8368 C   0  0  0  0  0  0  0  0  0  0  0  0
   10.1878  -14.5314   29.2005 O   0  0  0  0  0  0  0  0  0  0  0  0
   10.6342  -16.6654   29.8085 O   0  0  0  0  0  0  0  0  0  0  0  0
  2  1  1  6
  3  2  1  0
  4  2  1  0
  4  5  1  6
  6 12  1  0
  6  4  1  0
  7  6  2  0
  9  8  1  6
  9 11  1  0
 10  9  1  0
 11 12  1  6
 13 11  1  0
 13 14  2  0
 16 17  1  0
 16 15  1  6
 17 13  1  0
 18 16  1  0
 19 18  2  0
 20 18  1  0
M  END
$$$$
