VVA.pdb
     RDKit          3D

 20 19  0  0  1  0  0  0  0  0999 V2000
    6.6555  -18.5996   25.4741 C   0  0  0  0  0  0  0  0  0  0  0  0
    6.9351  -18.6132   23.9743 C   0  0  1  0  0  0  0  0  0  0  0  0
    6.0639  -19.6870   23.3793 C   0  0  0  0  0  0  0  0  0  0  0  0
    6.5648  -17.2517   23.4155 C   0  0  2  0  0  0  0  0  0  0  0  0
    6.6423  -17.2269   21.9804 N   0  0  0  0  0  0  0  0  0  0  0  0
    7.3633  -16.2003   24.0593 C   0  0  0  0  0  0  0  0  0  0  0  0
    8.5292  -16.0028   23.6537 O   0  0  0  0  0  0  0  0  0  0  0  0
    6.0151  -12.6456   25.1730 C   0  0  0  0  0  0  0  0  0  0  0  0
    6.7414  -13.3006   26.3453 C   0  0  2  0  0  0  0  0  0  0  0  0
    7.5457  -12.2683   27.1045 C   0  0  0  0  0  0  0  0  0  0  0  0
    7.6295  -14.3753   25.7645 C   0  0  2  0  0  0  0  0  0  0  0  0
    6.8775  -15.4032   25.1130 N   0  0  0  0  0  0  0  0  0  0  0  0
    8.5172  -14.9761   26.7716 C   0  0  0  0  0  0  0  0  0  0  0  0
    8.0566  -15.6865   27.6922 O   0  0  0  0  0  0  0  0  0  0  0  0
   12.1994  -15.4228   27.0614 C   0  0  0  0  0  0  0  0  0  0  0  0
   10.7857  -15.5052   27.6449 C   0  0  2  0  0  0  0  0  0  0  0  0
    9.9273  -14.7835   26.7519 N   0  0  0  0  0  0  0  0  0  0  0  0
   10.7471  -14.9350   29.0109 C   0  0  0  0  0  0  0  0  0  0  0  0
   10.3603  -13.7552   29.1846 O   0  0  0  0  0  0  0  0  0  0  0  0
   11.1281  -15.6676   30.1205 O   0  0  0  0  0  0  0  0  0  0  0  0
  2  1  1  1
  3  2  1  0
  4  2  1  0
  4  5  1  6
  6 12  1  0
  6  4  1  0
  7  6  2  0
  9  8  1  6
  9 11  1  0
 10  9  1  0
 11 12  1  1
 13 11  1  0
 13 14  2  0
 16 17  1  0
 16 15  1  6
 17 13  1  0
 18 16  1  0
 19 18  2  0
 20 18  1  0
M  END
$$$$
