VVA.pdb
     RDKit          3D

 20 19  0  0  1  0  0  0  0  0999 V2000
    8.0153  -19.3018   19.0476 C   0  0  0  0  0  0  0  0  0  0  0  0
    8.5231  -18.9944   17.6421 C   0  0  1  0  0  0  0  0  0  0  0  0
    7.7950  -19.9203   16.7046 C   0  0  0  0  0  0  0  0  0  0  0  0
    8.1922  -17.5466   17.3297 C   0  0  2  0  0  0  0  0  0  0  0  0
    8.5473  -17.1990   15.9809 N   0  0  0  0  0  0  0  0  0  0  0  0
    8.7883  -16.6574   18.3356 C   0  0  0  0  0  0  0  0  0  0  0  0
   10.0248  -16.4752   18.3141 O   0  0  0  0  0  0  0  0  0  0  0  0
    7.4204  -13.1235   19.5546 C   0  0  0  0  0  0  0  0  0  0  0  0
    7.5995  -14.0626   20.7449 C   0  0  2  0  0  0  0  0  0  0  0  0
    8.1056  -13.2938   21.9457 C   0  0  0  0  0  0  0  0  0  0  0  0
    8.5805  -15.1285   20.3176 C   0  0  2  0  0  0  0  0  0  0  0  0
    8.0321  -15.9997   19.3241 N   0  0  0  0  0  0  0  0  0  0  0  0
    9.0765  -15.9231   21.4515 C   0  0  0  0  0  0  0  0  0  0  0  0
    8.3180  -16.7001   22.0723 O   0  0  0  0  0  0  0  0  0  0  0  0
   12.4125  -16.6031   22.9719 C   0  0  0  0  0  0  0  0  0  0  0  0
   10.8816  -16.6278   23.0115 C   0  0  2  0  0  0  0  0  0  0  0  0
   10.4267  -15.8509   21.8959 N   0  0  0  0  0  0  0  0  0  0  0  0
   10.3803  -16.0795   24.2924 C   0  0  0  0  0  0  0  0  0  0  0  0
    9.9251  -14.9124   24.3368 O   0  0  0  0  0  0  0  0  0  0  0  0
   10.3959  -16.8195   25.4610 O   0  0  0  0  0  0  0  0  0  0  0  0
  2  1  1  1
  3  2  1  0
  4  2  1  0
  4  5  1  6
  6 12  1  0
  6  4  1  0
  7  6  2  0
  9  8  1  6
  9 11  1  0
 10  9  1  0
 11 12  1  6
 13 11  1  0
 13 14  2  0
 16 17  1  0
 16 15  1  1
 17 13  1  0
 18 16  1  0
 19 18  2  0
 20 18  1  0
M  END
$$$$
