VVA.pdb
     RDKit          3D

 20 19  0  0  1  0  0  0  0  0999 V2000
    5.5354  -19.1097   23.1252 C   0  0  0  0  0  0  0  0  0  0  0  0
    6.4569  -18.1589   23.8832 C   0  0  1  0  0  0  0  0  0  0  0  0
    7.8127  -18.8116   23.9290 C   0  0  0  0  0  0  0  0  0  0  0  0
    6.5172  -16.8516   23.1148 C   0  0  2  0  0  0  0  0  0  0  0  0
    6.9243  -17.0544   21.7512 N   0  0  0  0  0  0  0  0  0  0  0  0
    7.3489  -15.8753   23.8310 C   0  0  0  0  0  0  0  0  0  0  0  0
    8.5214  -15.6885   23.4398 O   0  0  0  0  0  0  0  0  0  0  0  0
    6.3194  -12.3139   25.3879 C   0  0  0  0  0  0  0  0  0  0  0  0
    6.9012  -13.2310   26.4608 C   0  0  2  0  0  0  0  0  0  0  0  0
    7.7591  -12.4351   27.4197 C   0  0  0  0  0  0  0  0  0  0  0  0
    7.7081  -14.2869   25.7433 C   0  0  2  0  0  0  0  0  0  0  0  0
    6.8878  -15.1391   24.9387 N   0  0  0  0  0  0  0  0  0  0  0  0
    8.5122  -15.1032   26.6655 C   0  0  0  0  0  0  0  0  0  0  0  0
    7.9680  -15.9120   27.4491 O   0  0  0  0  0  0  0  0  0  0  0  0
   12.1219  -15.8896   27.0460 C   0  0  0  0  0  0  0  0  0  0  0  0
   10.6945  -15.8476   27.5995 C   0  0  2  0  0  0  0  0  0  0  0  0
    9.9321  -15.0168   26.7143 N   0  0  0  0  0  0  0  0  0  0  0  0
   10.6825  -15.3180   28.9823 C   0  0  0  0  0  0  0  0  0  0  0  0
   10.3729  -14.1212   29.1902 O   0  0  0  0  0  0  0  0  0  0  0  0
   11.0056  -16.1078   30.0710 O   0  0  0  0  0  0  0  0  0  0  0  0
  2  1  1  6
  3  2  1  0
  4  2  1  0
  4  5  1  6
  6 12  1  0
  6  4  1  0
  7  6  2  0
  9  8  1  6
  9 11  1  0
 10  9  1  0
 11 12  1  1
 13 11  1  0
 13 14  2  0
 16 17  1  0
 16 15  1  6
 17 13  1  0
 18 16  1  0
 19 18  2  0
 20 18  1  0
M  END
$$$$
