VVA.pdb
     RDKit          3D

 20 19  0  0  1  0  0  0  0  0999 V2000
    6.1032  -19.8134   17.6336 C   0  0  0  0  0  0  0  0  0  0  0  0
    7.0472  -18.9961   18.5103 C   0  0  1  0  0  0  0  0  0  0  0  0
    8.2641  -19.8488   18.7515 C   0  0  0  0  0  0  0  0  0  0  0  0
    7.4182  -17.7350   17.7519 C   0  0  2  0  0  0  0  0  0  0  0  0
    8.0787  -18.0354   16.5111 N   0  0  0  0  0  0  0  0  0  0  0  0
    8.1858  -16.8268   18.6144 C   0  0  0  0  0  0  0  0  0  0  0  0
    9.4330  -16.8336   18.5289 O   0  0  0  0  0  0  0  0  0  0  0  0
    7.2756  -13.0569   19.5077 C   0  0  0  0  0  0  0  0  0  0  0  0
    7.4946  -13.8566   20.7896 C   0  0  2  0  0  0  0  0  0  0  0  0
    8.2165  -13.0115   21.8160 C   0  0  0  0  0  0  0  0  0  0  0  0
    8.3013  -15.0763   20.4120 C   0  0  2  0  0  0  0  0  0  0  0  0
    7.5829  -15.9480   19.5340 N   0  0  0  0  0  0  0  0  0  0  0  0
    8.7633  -15.8307   21.5871 C   0  0  0  0  0  0  0  0  0  0  0  0
    7.9524  -16.4390   22.3197 O   0  0  0  0  0  0  0  0  0  0  0  0
   12.0347  -17.0247   22.8535 C   0  0  0  0  0  0  0  0  0  0  0  0
   10.5640  -16.6662   23.0864 C   0  0  2  0  0  0  0  0  0  0  0  0
   10.1382  -15.9070   21.9474 N   0  0  0  0  0  0  0  0  0  0  0  0
   10.4034  -15.8955   24.3406 C   0  0  0  0  0  0  0  0  0  0  0  0
   10.2975  -14.6472   24.2975 O   0  0  0  0  0  0  0  0  0  0  0  0
   10.3652  -16.5120   25.5783 O   0  0  0  0  0  0  0  0  0  0  0  0
  2  1  1  6
  3  2  1  0
  4  2  1  0
  4  5  1  6
  6 12  1  0
  6  4  1  0
  7  6  2  0
  9  8  1  6
  9 11  1  0
 10  9  1  0
 11 12  1  6
 13 11  1  0
 13 14  2  0
 16 17  1  0
 16 15  1  6
 17 13  1  0
 18 16  1  0
 19 18  2  0
 20 18  1  0
M  END
$$$$
