VVA.pdb
     RDKit          3D

 20 19  0  0  1  0  0  0  0  0999 V2000
    6.1835  -16.5163   22.4326 C   0  0  0  0  0  0  0  0  0  0  0  0
    6.9536  -15.8890   21.2745 C   0  0  1  0  0  0  0  0  0  0  0  0
    6.0935  -16.0393   20.0482 C   0  0  0  0  0  0  0  0  0  0  0  0
    7.1749  -14.4227   21.5975 C   0  0  2  0  0  0  0  0  0  0  0  0
    7.7315  -13.7101   20.4801 N   0  0  0  0  0  0  0  0  0  0  0  0
    7.9651  -14.2838   22.8279 C   0  0  0  0  0  0  0  0  0  0  0  0
    9.2094  -14.3773   22.7525 O   0  0  0  0  0  0  0  0  0  0  0  0
    6.0381  -13.5564   26.5142 C   0  0  0  0  0  0  0  0  0  0  0  0
    7.4592  -13.0373   26.3097 C   0  0  2  0  0  0  0  0  0  0  0  0
    7.4273  -11.6103   25.8079 C   0  0  0  0  0  0  0  0  0  0  0  0
    8.1225  -13.9586   25.3136 C   0  0  2  0  0  0  0  0  0  0  0  0
    7.3870  -14.0500   24.0899 N   0  0  0  0  0  0  0  0  0  0  0  0
    8.3458  -15.3070   25.8571 C   0  0  0  0  0  0  0  0  0  0  0  0
    7.3987  -16.1142   25.9826 O   0  0  0  0  0  0  0  0  0  0  0  0
   11.0823  -17.6289   26.0038 C   0  0  0  0  0  0  0  0  0  0  0  0
    9.8369  -17.1007   26.7220 C   0  0  2  0  0  0  0  0  0  0  0  0
    9.6334  -15.7579   26.2631 N   0  0  0  0  0  0  0  0  0  0  0  0
   10.0176  -17.1485   28.1909 C   0  0  0  0  0  0  0  0  0  0  0  0
   10.0373  -16.0840   28.8528 O   0  0  0  0  0  0  0  0  0  0  0  0
   10.1680  -18.3435   28.8710 O   0  0  0  0  0  0  0  0  0  0  0  0
  2  1  1  1
  3  2  1  0
  4  2  1  0
  4  5  1  6
  6 12  1  0
  6  4  1  0
  7  6  2  0
  9  8  1  6
  9 11  1  0
 10  9  1  0
 11 12  1  6
 13 11  1  0
 13 14  2  0
 16 17  1  0
 16 15  1  6
 17 13  1  0
 18 16  1  0
 19 18  2  0
 20 18  1  0
M  END
$$$$
