VVA.pdb
     RDKit          3D

 20 19  0  0  1  0  0  0  0  0999 V2000
    7.2904  -19.1950   19.1744 C   0  0  0  0  0  0  0  0  0  0  0  0
    8.1124  -19.0499   17.8973 C   0  0  1  0  0  0  0  0  0  0  0  0
    7.4322  -19.8845   16.8452 C   0  0  0  0  0  0  0  0  0  0  0  0
    8.1114  -17.5845   17.5024 C   0  0  2  0  0  0  0  0  0  0  0  0
    8.7356  -17.3777   16.2242 N   0  0  0  0  0  0  0  0  0  0  0  0
    8.6945  -16.7659   18.5737 C   0  0  0  0  0  0  0  0  0  0  0  0
    9.9352  -16.7779   18.7266 O   0  0  0  0  0  0  0  0  0  0  0  0
    7.4494  -13.0774   19.6258 C   0  0  0  0  0  0  0  0  0  0  0  0
    7.5222  -14.0063   20.8352 C   0  0  2  0  0  0  0  0  0  0  0  0
    8.0170  -13.2483   22.0475 C   0  0  0  0  0  0  0  0  0  0  0  0
    8.4596  -15.1317   20.4667 C   0  0  2  0  0  0  0  0  0  0  0  0
    7.9215  -15.9672   19.4375 N   0  0  0  0  0  0  0  0  0  0  0  0
    8.8324  -15.9555   21.6267 C   0  0  0  0  0  0  0  0  0  0  0  0
    7.9743  -16.6283   22.2394 O   0  0  0  0  0  0  0  0  0  0  0  0
   11.9441  -17.3573   22.9771 C   0  0  0  0  0  0  0  0  0  0  0  0
   10.5132  -16.8671   23.2181 C   0  0  2  0  0  0  0  0  0  0  0  0
   10.1704  -16.0295   22.1064 N   0  0  0  0  0  0  0  0  0  0  0  0
   10.4189  -16.1306   24.4993 C   0  0  0  0  0  0  0  0  0  0  0  0
   10.3397  -14.8795   24.4962 O   0  0  0  0  0  0  0  0  0  0  0  0
   10.4150  -16.7824   25.7193 O   0  0  0  0  0  0  0  0  0  0  0  0
  2  1  1  1
  3  2  1  0
  4  2  1  0
  4  5  1  6
  6 12  1  0
  6  4  1  0
  7  6  2  0
  9  8  1  6
  9 11  1  0
 10  9  1  0
 11 12  1  6
 13 11  1  0
 13 14  2  0
 16 17  1  0
 16 15  1  6
 17 13  1  0
 18 16  1  0
 19 18  2  0
 20 18  1  0
M  END
$$$$
