VVA.pdb
     RDKit          3D

 20 19  0  0  1  0  0  0  0  0999 V2000
    6.8635  -17.6094   23.0986 C   0  0  0  0  0  0  0  0  0  0  0  0
    7.7072  -17.1384   21.9178 C   0  0  1  0  0  0  0  0  0  0  0  0
    7.1006  -17.7448   20.6807 C   0  0  0  0  0  0  0  0  0  0  0  0
    7.6340  -15.6235   21.8633 C   0  0  2  0  0  0  0  0  0  0  0  0
    8.2054  -15.1068   20.6498 N   0  0  0  0  0  0  0  0  0  0  0  0
    8.2201  -15.0394   23.0770 C   0  0  0  0  0  0  0  0  0  0  0  0
    9.4621  -14.9115   23.1386 O   0  0  0  0  0  0  0  0  0  0  0  0
    6.6437  -12.0246   25.0854 C   0  0  0  0  0  0  0  0  0  0  0  0
    6.9934  -13.1409   26.0664 C   0  0  2  0  0  0  0  0  0  0  0  0
    7.5711  -12.5580   27.3374 C   0  0  0  0  0  0  0  0  0  0  0  0
    7.9866  -14.0404   25.3697 C   0  0  2  0  0  0  0  0  0  0  0  0
    7.4485  -14.6160   24.1756 N   0  0  0  0  0  0  0  0  0  0  0  0
    8.4914  -15.1070   26.2477 C   0  0  0  0  0  0  0  0  0  0  0  0
    7.7122  -15.9415   26.7584 O   0  0  0  0  0  0  0  0  0  0  0  0
   11.7047  -16.7409   26.8283 C   0  0  0  0  0  0  0  0  0  0  0  0
   10.3440  -16.3145   27.3873 C   0  0  2  0  0  0  0  0  0  0  0  0
    9.8737  -15.2437   26.5582 N   0  0  0  0  0  0  0  0  0  0  0  0
   10.4661  -15.8903   28.8007 C   0  0  0  0  0  0  0  0  0  0  0  0
   10.3872  -14.6749   29.0972 O   0  0  0  0  0  0  0  0  0  0  0  0
   10.6675  -16.8003   29.8228 O   0  0  0  0  0  0  0  0  0  0  0  0
  2  1  1  1
  3  2  1  0
  4  2  1  0
  4  5  1  6
  6 12  1  0
  6  4  1  0
  7  6  2  0
  9  8  1  6
  9 11  1  0
 10  9  1  0
 11 12  1  6
 13 11  1  0
 13 14  2  0
 16 17  1  0
 16 15  1  6
 17 13  1  0
 18 16  1  0
 19 18  2  0
 20 18  1  0
M  END
$$$$
