VVA.pdb
     RDKit          3D

 20 19  0  0  1  0  0  0  0  0999 V2000
    7.7013  -12.7870   27.5418 C   0  0  0  0  0  0  0  0  0  0  0  0
    6.9714  -12.0429   26.4277 C   0  0  1  0  0  0  0  0  0  0  0  0
    8.0254  -11.5386   25.4785 C   0  0  0  0  0  0  0  0  0  0  0  0
    6.0498  -13.0272   25.7314 C   0  0  2  0  0  0  0  0  0  0  0  0
    5.0111  -13.4948   26.6080 N   0  0  0  0  0  0  0  0  0  0  0  0
    6.8285  -14.1130   25.1212 C   0  0  0  0  0  0  0  0  0  0  0  0
    6.9525  -15.1859   25.7508 O   0  0  0  0  0  0  0  0  0  0  0  0
    6.9182  -14.5991   21.1229 C   0  0  0  0  0  0  0  0  0  0  0  0
    8.3099  -14.7944   21.7195 C   0  0  2  0  0  0  0  0  0  0  0  0
    9.0193  -15.9379   21.0279 C   0  0  0  0  0  0  0  0  0  0  0  0
    8.1199  -15.0717   23.1919 C   0  0  2  0  0  0  0  0  0  0  0  0
    7.4428  -14.0028   23.8595 N   0  0  0  0  0  0  0  0  0  0  0  0
    9.3888  -15.3573   23.8786 C   0  0  0  0  0  0  0  0  0  0  0  0
   10.2091  -14.4442   24.1190 O   0  0  0  0  0  0  0  0  0  0  0  0
   10.9232  -18.2283   25.6596 C   0  0  0  0  0  0  0  0  0  0  0  0
   11.0489  -16.9495   24.8261 C   0  0  2  0  0  0  0  0  0  0  0  0
    9.7452  -16.6694   24.2997 N   0  0  0  0  0  0  0  0  0  0  0  0
   12.0433  -17.1241   23.7428 C   0  0  0  0  0  0  0  0  0  0  0  0
   11.6638  -17.4483   22.5928 O   0  0  0  0  0  0  0  0  0  0  0  0
   13.3974  -16.9397   23.9561 O   0  0  0  0  0  0  0  0  0  0  0  0
  2  1  1  1
  3  2  1  0
  4  2  1  0
  4  5  1  1
  6 12  1  0
  6  4  1  0
  7  6  2  0
  9  8  1  6
  9 11  1  0
 10  9  1  0
 11 12  1  1
 13 11  1  0
 13 14  2  0
 16 17  1  0
 16 15  1  6
 17 13  1  0
 18 16  1  0
 19 18  2  0
 20 18  1  0
M  END
$$$$
