IIV.pdb
     RDKit          3D

 24 23  0  0  1  0  0  0  0  0999 V2000
    7.4851  -19.2985   19.8909 C   0  0  0  0  0  0  0  0  0  0  0  0
    7.6828  -17.7890   19.9393 C   0  0  0  0  0  0  0  0  0  0  0  0
    8.3636  -17.3844   21.2383 C   0  0  2  0  0  0  0  0  0  0  0  0
    7.5009  -17.9676   22.3564 C   0  0  0  0  0  0  0  0  0  0  0  0
    8.3227  -15.8963   21.3539 C   0  0  2  0  0  0  0  0  0  0  0  0
    9.0782  -15.2286   20.3344 N   0  0  0  0  0  0  0  0  0  0  0  0
    8.7614  -15.4254   22.7057 C   0  0  0  0  0  0  0  0  0  0  0  0
    9.9747  -15.5918   22.9704 O   0  0  0  0  0  0  0  0  0  0  0  0
    6.8609  -11.5601   27.2386 C   0  0  0  0  0  0  0  0  0  0  0  0
    7.7247  -12.6859   26.6857 C   0  0  0  0  0  0  0  0  0  0  0  0
    7.1963  -13.2422   25.4004 C   0  0  2  0  0  0  0  0  0  0  0  0
    5.8235  -13.8042   25.6489 C   0  0  0  0  0  0  0  0  0  0  0  0
    8.1131  -14.3342   24.9172 C   0  0  2  0  0  0  0  0  0  0  0  0
    7.8580  -14.8352   23.6116 N   0  0  0  0  0  0  0  0  0  0  0  0
    8.4742  -15.3462   25.9216 C   0  0  0  0  0  0  0  0  0  0  0  0
    7.6988  -16.2008   26.3780 O   0  0  0  0  0  0  0  0  0  0  0  0
   12.6101  -15.6278   26.8663 C   0  0  0  0  0  0  0  0  0  0  0  0
   11.6732  -16.8367   26.8746 C   0  0  2  0  0  0  0  0  0  0  0  0
   11.5593  -17.3562   25.4566 C   0  0  0  0  0  0  0  0  0  0  0  0
   10.3113  -16.3735   27.3477 C   0  0  2  0  0  0  0  0  0  0  0  0
    9.8199  -15.3900   26.4473 N   0  0  0  0  0  0  0  0  0  0  0  0
   10.4231  -15.8216   28.7215 C   0  0  0  0  0  0  0  0  0  0  0  0
   10.7086  -16.5622   29.6705 O   0  0  0  0  0  0  0  0  0  0  0  0
   10.1916  -14.4504   28.8694 O   0  0  0  0  0  0  0  0  0  0  0  0
  2  1  1  0
  3  2  1  0
  3  4  1  1
  5  6  1  6
  5  3  1  0
  7  8  2  0
  7  5  1  0
 10  9  1  0
 11 12  1  1
 11 10  1  0
 13 14  1  6
 13 11  1  0
 14  7  1  0
 15 13  1  0
 16 15  2  0
 18 17  1  6
 18 19  1  0
 20 18  1  0
 20 21  1  6
 21 15  1  0
 22 20  1  0
 23 22  2  0
 24 22  1  0
M  END
$$$$
