IIV.pdb
     RDKit          3D

 24 23  0  0  1  0  0  0  0  0999 V2000
    6.1095  -21.1867   22.8037 C   0  0  0  0  0  0  0  0  0  0  0  0
    6.0548  -19.7608   22.2711 C   0  0  0  0  0  0  0  0  0  0  0  0
    6.9646  -18.8544   23.0868 C   0  0  2  0  0  0  0  0  0  0  0  0
    6.3824  -18.8473   24.4995 C   0  0  0  0  0  0  0  0  0  0  0  0
    6.8677  -17.4676   22.5420 C   0  0  2  0  0  0  0  0  0  0  0  0
    7.2663  -17.3703   21.1681 N   0  0  0  0  0  0  0  0  0  0  0  0
    7.6375  -16.4843   23.3679 C   0  0  0  0  0  0  0  0  0  0  0  0
    8.8615  -16.4027   23.1128 O   0  0  0  0  0  0  0  0  0  0  0  0
    6.9375  -11.3559   26.8088 C   0  0  0  0  0  0  0  0  0  0  0  0
    7.6591  -12.6466   26.4447 C   0  0  0  0  0  0  0  0  0  0  0  0
    6.8424  -13.5358   25.5598 C   0  0  2  0  0  0  0  0  0  0  0  0
    5.5557  -13.8647   26.2657 C   0  0  0  0  0  0  0  0  0  0  0  0
    7.6090  -14.8018   25.2836 C   0  0  2  0  0  0  0  0  0  0  0  0
    7.0134  -15.7075   24.3640 N   0  0  0  0  0  0  0  0  0  0  0  0
    8.2484  -15.4212   26.4545 C   0  0  0  0  0  0  0  0  0  0  0  0
    7.6398  -15.9366   27.4051 O   0  0  0  0  0  0  0  0  0  0  0  0
   12.5152  -15.1422   26.7473 C   0  0  0  0  0  0  0  0  0  0  0  0
   11.8067  -16.4753   26.9922 C   0  0  2  0  0  0  0  0  0  0  0  0
   11.6830  -17.1954   25.6656 C   0  0  0  0  0  0  0  0  0  0  0  0
   10.4226  -16.1807   27.5314 C   0  0  2  0  0  0  0  0  0  0  0  0
    9.6900  -15.4573   26.5519 N   0  0  0  0  0  0  0  0  0  0  0  0
   10.5347  -15.3999   28.7892 C   0  0  0  0  0  0  0  0  0  0  0  0
   10.2438  -14.1975   28.8057 O   0  0  0  0  0  0  0  0  0  0  0  0
   10.9775  -16.0911   29.9214 O   0  0  0  0  0  0  0  0  0  0  0  0
  2  1  1  0
  3  2  1  0
  3  4  1  1
  5  6  1  6
  5  3  1  0
  7  8  2  0
  7  5  1  0
 10  9  1  0
 11 12  1  1
 11 10  1  0
 13 14  1  1
 13 11  1  0
 14  7  1  0
 15 13  1  0
 16 15  2  0
 18 17  1  6
 18 19  1  0
 20 18  1  0
 20 21  1  6
 21 15  1  0
 22 20  1  0
 23 22  2  0
 24 22  1  0
M  END
$$$$
