IIV.pdb
     RDKit          3D

 24 23  0  0  1  0  0  0  0  0999 V2000
    5.8440  -18.1651   19.6518 C   0  0  0  0  0  0  0  0  0  0  0  0
    6.0858  -16.6853   19.9191 C   0  0  0  0  0  0  0  0  0  0  0  0
    6.9979  -16.5057   21.1234 C   0  0  2  0  0  0  0  0  0  0  0  0
    6.3324  -17.2742   22.2643 C   0  0  0  0  0  0  0  0  0  0  0  0
    7.0187  -15.0593   21.4935 C   0  0  2  0  0  0  0  0  0  0  0  0
    7.4601  -14.2087   20.4268 N   0  0  0  0  0  0  0  0  0  0  0  0
    7.8369  -14.8049   22.7213 C   0  0  0  0  0  0  0  0  0  0  0  0
    9.0778  -14.7774   22.5498 O   0  0  0  0  0  0  0  0  0  0  0  0
    6.1252  -11.3043   26.3270 C   0  0  0  0  0  0  0  0  0  0  0  0
    7.0651  -12.2257   25.5609 C   0  0  0  0  0  0  0  0  0  0  0  0
    7.2464  -13.5526   26.2298 C   0  0  2  0  0  0  0  0  0  0  0  0
    8.1579  -13.3733   27.4126 C   0  0  0  0  0  0  0  0  0  0  0  0
    7.8624  -14.5206   25.2550 C   0  0  2  0  0  0  0  0  0  0  0  0
    7.2374  -14.6110   23.9815 N   0  0  0  0  0  0  0  0  0  0  0  0
    8.3088  -15.7984   25.8306 C   0  0  0  0  0  0  0  0  0  0  0  0
    7.5787  -16.5953   26.4403 O   0  0  0  0  0  0  0  0  0  0  0  0
   12.4600  -16.7634   25.3661 C   0  0  0  0  0  0  0  0  0  0  0  0
   11.3797  -17.8443   25.3048 C   0  0  2  0  0  0  0  0  0  0  0  0
   10.8880  -17.9405   23.8756 C   0  0  0  0  0  0  0  0  0  0  0  0
   10.2348  -17.4167   26.1990 C   0  0  2  0  0  0  0  0  0  0  0  0
    9.6912  -16.2008   25.7033 N   0  0  0  0  0  0  0  0  0  0  0  0
   10.7267  -17.2460   27.5895 C   0  0  0  0  0  0  0  0  0  0  0  0
   10.7565  -16.1231   28.1078 O   0  0  0  0  0  0  0  0  0  0  0  0
   11.1422  -18.4030   28.2562 O   0  0  0  0  0  0  0  0  0  0  0  0
  2  1  1  0
  3  2  1  0
  3  4  1  1
  5  6  1  6
  5  3  1  0
  7  8  2  0
  7  5  1  0
 10  9  1  0
 11 12  1  1
 11 10  1  0
 13 14  1  6
 13 11  1  0
 14  7  1  0
 15 13  1  0
 16 15  2  0
 18 17  1  6
 18 19  1  0
 20 18  1  0
 20 21  1  6
 21 15  1  0
 22 20  1  0
 23 22  2  0
 24 22  1  0
M  END
$$$$
