IIV.pdb
     RDKit          3D

 24 23  0  0  1  0  0  0  0  0999 V2000
    6.6482  -18.1233   19.4293 C   0  0  0  0  0  0  0  0  0  0  0  0
    6.6287  -16.6536   19.8285 C   0  0  0  0  0  0  0  0  0  0  0  0
    7.4281  -16.4398   21.1051 C   0  0  2  0  0  0  0  0  0  0  0  0
    6.7462  -17.2991   22.1688 C   0  0  0  0  0  0  0  0  0  0  0  0
    7.2974  -15.0101   21.5151 C   0  0  2  0  0  0  0  0  0  0  0  0
    7.7067  -14.0892   20.4951 N   0  0  0  0  0  0  0  0  0  0  0  0
    8.0307  -14.7211   22.7881 C   0  0  0  0  0  0  0  0  0  0  0  0
    9.2793  -14.6725   22.6955 O   0  0  0  0  0  0  0  0  0  0  0  0
    6.1862  -11.2010   26.3977 C   0  0  0  0  0  0  0  0  0  0  0  0
    7.0105  -12.1803   25.5726 C   0  0  0  0  0  0  0  0  0  0  0  0
    7.2106  -13.4932   26.2633 C   0  0  2  0  0  0  0  0  0  0  0  0
    8.0807  -13.2730   27.4702 C   0  0  0  0  0  0  0  0  0  0  0  0
    7.8835  -14.4539   25.3196 C   0  0  2  0  0  0  0  0  0  0  0  0
    7.3485  -14.5191   24.0042 N   0  0  0  0  0  0  0  0  0  0  0  0
    8.2756  -15.7447   25.9056 C   0  0  0  0  0  0  0  0  0  0  0  0
    7.4931  -16.5524   26.4303 O   0  0  0  0  0  0  0  0  0  0  0  0
   12.3975  -16.8500   25.5174 C   0  0  0  0  0  0  0  0  0  0  0  0
   11.2630  -17.8751   25.4825 C   0  0  2  0  0  0  0  0  0  0  0  0
   10.7425  -17.9559   24.0626 C   0  0  0  0  0  0  0  0  0  0  0  0
   10.1568  -17.3841   26.3927 C   0  0  2  0  0  0  0  0  0  0  0  0
    9.6635  -16.1481   25.8943 N   0  0  0  0  0  0  0  0  0  0  0  0
   10.6820  -17.2244   27.7722 C   0  0  0  0  0  0  0  0  0  0  0  0
   10.9726  -18.2186   28.4487 O   0  0  0  0  0  0  0  0  0  0  0  0
   10.8228  -15.9155   28.2441 O   0  0  0  0  0  0  0  0  0  0  0  0
  2  1  1  0
  3  2  1  0
  3  4  1  1
  5  6  1  6
  5  3  1  0
  7  8  2  0
  7  5  1  0
 10  9  1  0
 11 12  1  1
 11 10  1  0
 13 14  1  6
 13 11  1  0
 14  7  1  0
 15 13  1  0
 16 15  2  0
 18 17  1  6
 18 19  1  0
 20 18  1  0
 20 21  1  6
 21 15  1  0
 22 20  1  0
 23 22  2  0
 24 22  1  0
M  END
$$$$
