IIV.pdb
     RDKit          3D

 24 23  0  0  1  0  0  0  0  0999 V2000
    6.7029  -18.3240   19.1915 C   0  0  0  0  0  0  0  0  0  0  0  0
    6.6926  -16.8605   19.6134 C   0  0  0  0  0  0  0  0  0  0  0  0
    7.4721  -16.6756   20.9068 C   0  0  2  0  0  0  0  0  0  0  0  0
    6.7511  -17.5286   21.9496 C   0  0  0  0  0  0  0  0  0  0  0  0
    7.3651  -15.2469   21.3271 C   0  0  2  0  0  0  0  0  0  0  0  0
    7.8410  -14.3279   20.3346 N   0  0  0  0  0  0  0  0  0  0  0  0
    8.0545  -14.9917   22.6315 C   0  0  0  0  0  0  0  0  0  0  0  0
    9.3060  -15.0449   22.6029 O   0  0  0  0  0  0  0  0  0  0  0  0
    6.1200  -11.2835   25.9782 C   0  0  0  0  0  0  0  0  0  0  0  0
    6.9938  -12.3005   25.2562 C   0  0  0  0  0  0  0  0  0  0  0  0
    7.1327  -13.5845   26.0133 C   0  0  2  0  0  0  0  0  0  0  0  0
    7.9644  -13.3306   27.2404 C   0  0  0  0  0  0  0  0  0  0  0  0
    7.8127  -14.6053   25.1402 C   0  0  2  0  0  0  0  0  0  0  0  0
    7.3305  -14.7112   23.8072 N   0  0  0  0  0  0  0  0  0  0  0  0
    8.1386  -15.8807   25.7963 C   0  0  0  0  0  0  0  0  0  0  0  0
    7.3083  -16.6465   26.3102 O   0  0  0  0  0  0  0  0  0  0  0  0
   12.2168  -17.1652   25.5949 C   0  0  0  0  0  0  0  0  0  0  0  0
   11.0429  -18.1432   25.6616 C   0  0  2  0  0  0  0  0  0  0  0  0
   10.5249  -18.3565   24.2546 C   0  0  0  0  0  0  0  0  0  0  0  0
    9.9535  -17.5141   26.5047 C   0  0  2  0  0  0  0  0  0  0  0  0
    9.5137  -16.3191   25.8739 N   0  0  0  0  0  0  0  0  0  0  0  0
   10.4783  -17.2302   27.8643 C   0  0  0  0  0  0  0  0  0  0  0  0
   10.7562  -18.1590   28.6328 O   0  0  0  0  0  0  0  0  0  0  0  0
   10.6338  -15.8841   28.2102 O   0  0  0  0  0  0  0  0  0  0  0  0
  2  1  1  0
  3  2  1  0
  3  4  1  1
  5  6  1  6
  5  3  1  0
  7  8  2  0
  7  5  1  0
 10  9  1  0
 11 12  1  1
 11 10  1  0
 13 14  1  6
 13 11  1  0
 14  7  1  0
 15 13  1  0
 16 15  2  0
 18 17  1  6
 18 19  1  0
 20 18  1  0
 20 21  1  6
 21 15  1  0
 22 20  1  0
 23 22  2  0
 24 22  1  0
M  END
$$$$
