IIV.pdb
     RDKit          3D

 24 23  0  0  1  0  0  0  0  0999 V2000
    6.0565  -18.0103   19.1319 C   0  0  0  0  0  0  0  0  0  0  0  0
    6.0993  -16.5389   19.5230 C   0  0  0  0  0  0  0  0  0  0  0  0
    7.0226  -16.3333   20.7146 C   0  0  2  0  0  0  0  0  0  0  0  0
    6.5104  -17.2766   21.8021 C   0  0  0  0  0  0  0  0  0  0  0  0
    6.8606  -14.9328   21.2064 C   0  0  2  0  0  0  0  0  0  0  0  0
    7.1281  -13.9457   20.2013 N   0  0  0  0  0  0  0  0  0  0  0  0
    7.6939  -14.6637   22.4209 C   0  0  0  0  0  0  0  0  0  0  0  0
    8.9309  -14.6111   22.2289 O   0  0  0  0  0  0  0  0  0  0  0  0
    5.8446  -11.3293   26.2228 C   0  0  0  0  0  0  0  0  0  0  0  0
    6.7158  -12.2010   25.3282 C   0  0  0  0  0  0  0  0  0  0  0  0
    7.0896  -13.4993   25.9729 C   0  0  2  0  0  0  0  0  0  0  0  0
    8.0423  -13.2178   27.1021 C   0  0  0  0  0  0  0  0  0  0  0  0
    7.7554  -14.3863   24.9548 C   0  0  2  0  0  0  0  0  0  0  0  0
    7.1116  -14.4834   23.6911 N   0  0  0  0  0  0  0  0  0  0  0  0
    8.3090  -15.6442   25.4788 C   0  0  0  0  0  0  0  0  0  0  0  0
    7.6360  -16.5701   25.9582 O   0  0  0  0  0  0  0  0  0  0  0  0
   11.3190  -17.3015   23.5365 C   0  0  0  0  0  0  0  0  0  0  0  0
   11.6692  -17.2039   25.0221 C   0  0  2  0  0  0  0  0  0  0  0  0
   12.3821  -18.4781   25.4243 C   0  0  0  0  0  0  0  0  0  0  0  0
   10.3773  -17.0865   25.8035 C   0  0  2  0  0  0  0  0  0  0  0  0
    9.7370  -15.8664   25.4561 N   0  0  0  0  0  0  0  0  0  0  0  0
   10.6701  -17.1327   27.2584 C   0  0  0  0  0  0  0  0  0  0  0  0
   11.0358  -18.1890   27.7884 O   0  0  0  0  0  0  0  0  0  0  0  0
   10.5104  -15.9397   27.9704 O   0  0  0  0  0  0  0  0  0  0  0  0
  2  1  1  0
  3  2  1  0
  3  4  1  1
  5  6  1  6
  5  3  1  0
  7  8  2  0
  7  5  1  0
 10  9  1  0
 11 12  1  1
 11 10  1  0
 13 14  1  6
 13 11  1  0
 14  7  1  0
 15 13  1  0
 16 15  2  0
 18 17  1  6
 18 19  1  0
 20 18  1  0
 20 21  1  1
 21 15  1  0
 22 20  1  0
 23 22  2  0
 24 22  1  0
M  END
$$$$
