IIV.pdb
     RDKit          3D

 24 23  0  0  1  0  0  0  0  0999 V2000
    6.8426  -17.6434   18.6623 C   0  0  0  0  0  0  0  0  0  0  0  0
    6.9146  -16.2017   19.1483 C   0  0  0  0  0  0  0  0  0  0  0  0
    7.5863  -16.1342   20.5117 C   0  0  2  0  0  0  0  0  0  0  0  0
    6.7777  -17.0619   21.4174 C   0  0  0  0  0  0  0  0  0  0  0  0
    7.4529  -14.7441   21.0400 C   0  0  2  0  0  0  0  0  0  0  0  0
    7.9800  -13.7486   20.1528 N   0  0  0  0  0  0  0  0  0  0  0  0
    8.0691  -14.5968   22.3966 C   0  0  0  0  0  0  0  0  0  0  0  0
    9.3207  -14.6415   22.4313 O   0  0  0  0  0  0  0  0  0  0  0  0
    6.0907  -11.1609   26.0941 C   0  0  0  0  0  0  0  0  0  0  0  0
    6.9091  -12.1361   25.2583 C   0  0  0  0  0  0  0  0  0  0  0  0
    6.9349  -13.5154   25.8394 C   0  0  2  0  0  0  0  0  0  0  0  0
    7.6265  -13.4613   27.1738 C   0  0  0  0  0  0  0  0  0  0  0  0
    7.6890  -14.4313   24.9124 C   0  0  2  0  0  0  0  0  0  0  0  0
    7.2808  -14.4201   23.5509 N   0  0  0  0  0  0  0  0  0  0  0  0
    8.0167  -15.7557   25.4618 C   0  0  0  0  0  0  0  0  0  0  0  0
    7.1830  -16.5868   25.8544 O   0  0  0  0  0  0  0  0  0  0  0  0
   12.0946  -16.9142   25.1675 C   0  0  0  0  0  0  0  0  0  0  0  0
   10.9439  -17.9163   25.0641 C   0  0  2  0  0  0  0  0  0  0  0  0
   10.4412  -17.9129   23.6355 C   0  0  0  0  0  0  0  0  0  0  0  0
    9.8339  -17.4550   25.9851 C   0  0  2  0  0  0  0  0  0  0  0  0
    9.3979  -16.1667   25.5734 N   0  0  0  0  0  0  0  0  0  0  0  0
   10.3301  -17.4216   27.3841 C   0  0  0  0  0  0  0  0  0  0  0  0
   10.5065  -16.3400   27.9583 O   0  0  0  0  0  0  0  0  0  0  0  0
   10.5781  -18.6557   27.9933 O   0  0  0  0  0  0  0  0  0  0  0  0
  2  1  1  0
  3  2  1  0
  3  4  1  1
  5  6  1  6
  5  3  1  0
  7  8  2  0
  7  5  1  0
 10  9  1  0
 11 12  1  1
 11 10  1  0
 13 14  1  6
 13 11  1  0
 14  7  1  0
 15 13  1  0
 16 15  2  0
 18 17  1  6
 18 19  1  0
 20 18  1  0
 20 21  1  6
 21 15  1  0
 22 20  1  0
 23 22  2  0
 24 22  1  0
M  END
$$$$
