IIV.pdb
     RDKit          3D

 24 23  0  0  1  0  0  0  0  0999 V2000
    8.2248  -19.6690   20.2602 C   0  0  0  0  0  0  0  0  0  0  0  0
    8.0451  -18.1565   20.2483 C   0  0  0  0  0  0  0  0  0  0  0  0
    8.6541  -17.5399   21.4986 C   0  0  2  0  0  0  0  0  0  0  0  0
    7.8894  -18.1474   22.6738 C   0  0  0  0  0  0  0  0  0  0  0  0
    8.3855  -16.0712   21.4846 C   0  0  2  0  0  0  0  0  0  0  0  0
    8.9596  -15.4018   20.3540 N   0  0  0  0  0  0  0  0  0  0  0  0
    8.8289  -15.4066   22.7508 C   0  0  0  0  0  0  0  0  0  0  0  0
   10.0680  -15.2983   22.9012 O   0  0  0  0  0  0  0  0  0  0  0  0
    6.9244  -11.3937   27.0758 C   0  0  0  0  0  0  0  0  0  0  0  0
    7.7672  -12.5778   26.6209 C   0  0  0  0  0  0  0  0  0  0  0  0
    7.2629  -13.1931   25.3528 C   0  0  2  0  0  0  0  0  0  0  0  0
    5.8638  -13.6936   25.5853 C   0  0  0  0  0  0  0  0  0  0  0  0
    8.1567  -14.3419   24.9681 C   0  0  2  0  0  0  0  0  0  0  0  0
    7.9021  -14.9381   23.7030 N   0  0  0  0  0  0  0  0  0  0  0  0
    8.4821  -15.2799   26.0533 C   0  0  0  0  0  0  0  0  0  0  0  0
    7.6539  -15.9755   26.6617 O   0  0  0  0  0  0  0  0  0  0  0  0
   12.6367  -15.7459   26.9859 C   0  0  0  0  0  0  0  0  0  0  0  0
   11.6478  -16.9108   27.0512 C   0  0  2  0  0  0  0  0  0  0  0  0
   11.5370  -17.5148   25.6668 C   0  0  0  0  0  0  0  0  0  0  0  0
   10.2991  -16.3606   27.4654 C   0  0  2  0  0  0  0  0  0  0  0  0
    9.8540  -15.4392   26.4794 N   0  0  0  0  0  0  0  0  0  0  0  0
   10.4170  -15.6997   28.7897 C   0  0  0  0  0  0  0  0  0  0  0  0
   10.3494  -14.4678   28.8809 O   0  0  0  0  0  0  0  0  0  0  0  0
   10.6040  -16.5353   29.8954 O   0  0  0  0  0  0  0  0  0  0  0  0
  2  1  1  0
  3  2  1  0
  3  4  1  1
  5  6  1  6
  5  3  1  0
  7  8  2  0
  7  5  1  0
 10  9  1  0
 11 12  1  1
 11 10  1  0
 13 14  1  6
 13 11  1  0
 14  7  1  0
 15 13  1  0
 16 15  2  0
 18 17  1  6
 18 19  1  0
 20 18  1  0
 20 21  1  6
 21 15  1  0
 22 20  1  0
 23 22  2  0
 24 22  1  0
M  END
$$$$
