IIV.pdb
     RDKit          3D

 24 23  0  0  1  0  0  0  0  0999 V2000
    5.7691  -10.8330   27.6693 C   0  0  0  0  0  0  0  0  0  0  0  0
    5.3089  -12.0216   26.8355 C   0  0  0  0  0  0  0  0  0  0  0  0
    6.4810  -12.9432   26.5330 C   0  0  2  0  0  0  0  0  0  0  0  0
    7.4806  -12.0963   25.7466 C   0  0  0  0  0  0  0  0  0  0  0  0
    6.0052  -14.0412   25.6400 C   0  0  2  0  0  0  0  0  0  0  0  0
    5.0144  -14.8783   26.2512 N   0  0  0  0  0  0  0  0  0  0  0  0
    7.1357  -14.8787   25.1277 C   0  0  0  0  0  0  0  0  0  0  0  0
    7.3085  -15.9729   25.7132 O   0  0  0  0  0  0  0  0  0  0  0  0
    8.4180  -13.5693   19.9604 C   0  0  0  0  0  0  0  0  0  0  0  0
    8.1179  -14.2717   21.2779 C   0  0  0  0  0  0  0  0  0  0  0  0
    9.3576  -14.6586   22.0224 C   0  0  2  0  0  0  0  0  0  0  0  0
   10.0585  -15.7461   21.2554 C   0  0  0  0  0  0  0  0  0  0  0  0
    8.9794  -15.1631   23.3895 C   0  0  2  0  0  0  0  0  0  0  0  0
    7.9449  -14.4518   24.0563 N   0  0  0  0  0  0  0  0  0  0  0  0
   10.1025  -15.5866   24.2395 C   0  0  0  0  0  0  0  0  0  0  0  0
   11.2037  -15.9741   23.8186 O   0  0  0  0  0  0  0  0  0  0  0  0
    9.6434  -14.9321   28.4277 C   0  0  0  0  0  0  0  0  0  0  0  0
   10.9931  -14.8542   27.7125 C   0  0  2  0  0  0  0  0  0  0  0  0
   11.1311  -13.4703   27.1130 C   0  0  0  0  0  0  0  0  0  0  0  0
   10.9968  -15.8826   26.6010 C   0  0  2  0  0  0  0  0  0  0  0  0
    9.9629  -15.5684   25.6780 N   0  0  0  0  0  0  0  0  0  0  0  0
   10.7968  -17.2369   27.1757 C   0  0  0  0  0  0  0  0  0  0  0  0
    9.8189  -17.9179   26.8435 O   0  0  0  0  0  0  0  0  0  0  0  0
   11.7573  -17.6802   28.0903 O   0  0  0  0  0  0  0  0  0  0  0  0
  2  1  1  0
  3  2  1  0
  3  4  1  6
  5  6  1  1
  5  3  1  0
  7  8  2  0
  7  5  1  0
 10  9  1  0
 11 12  1  6
 11 10  1  0
 13 14  1  1
 13 11  1  0
 14  7  1  0
 15 13  1  0
 16 15  2  0
 18 17  1  6
 18 19  1  0
 20 18  1  0
 20 21  1  6
 21 15  1  0
 22 20  1  0
 23 22  2  0
 24 22  1  0
M  END
$$$$
