IIV.pdb
     RDKit          3D

 24 23  0  0  1  0  0  0  0  0999 V2000
    6.4114  -17.7480   18.8677 C   0  0  0  0  0  0  0  0  0  0  0  0
    6.5772  -16.2925   19.2848 C   0  0  0  0  0  0  0  0  0  0  0  0
    7.3338  -16.2006   20.6014 C   0  0  2  0  0  0  0  0  0  0  0  0
    6.5497  -17.0625   21.5899 C   0  0  0  0  0  0  0  0  0  0  0  0
    7.2837  -14.7878   21.0819 C   0  0  2  0  0  0  0  0  0  0  0  0
    7.7905  -13.8468   20.1261 N   0  0  0  0  0  0  0  0  0  0  0  0
    7.9875  -14.6144   22.3919 C   0  0  0  0  0  0  0  0  0  0  0  0
    9.2381  -14.6761   22.3478 O   0  0  0  0  0  0  0  0  0  0  0  0
    6.0425  -11.3085   26.2895 C   0  0  0  0  0  0  0  0  0  0  0  0
    6.9404  -12.1885   25.4301 C   0  0  0  0  0  0  0  0  0  0  0  0
    7.0156  -13.5983   25.9278 C   0  0  2  0  0  0  0  0  0  0  0  0
    7.7487  -13.6053   27.2410 C   0  0  0  0  0  0  0  0  0  0  0  0
    7.7595  -14.4402   24.9255 C   0  0  2  0  0  0  0  0  0  0  0  0
    7.2772  -14.3965   23.5890 N   0  0  0  0  0  0  0  0  0  0  0  0
    8.1778  -15.7673   25.4020 C   0  0  0  0  0  0  0  0  0  0  0  0
    7.4060  -16.6535   25.8007 O   0  0  0  0  0  0  0  0  0  0  0  0
   11.8205  -19.0619   25.0884 C   0  0  0  0  0  0  0  0  0  0  0  0
   11.2083  -17.7113   24.7139 C   0  0  2  0  0  0  0  0  0  0  0  0
   12.2847  -16.6534   24.8395 C   0  0  0  0  0  0  0  0  0  0  0  0
   10.0955  -17.4105   25.6959 C   0  0  2  0  0  0  0  0  0  0  0  0
    9.5809  -16.1134   25.4272 N   0  0  0  0  0  0  0  0  0  0  0  0
   10.6199  -17.4928   27.0825 C   0  0  0  0  0  0  0  0  0  0  0  0
   10.8766  -18.5921   27.5886 O   0  0  0  0  0  0  0  0  0  0  0  0
   10.7998  -16.2826   27.7599 O   0  0  0  0  0  0  0  0  0  0  0  0
  2  1  1  0
  3  2  1  0
  3  4  1  1
  5  6  1  6
  5  3  1  0
  7  8  2  0
  7  5  1  0
 10  9  1  0
 11 12  1  1
 11 10  1  0
 13 14  1  6
 13 11  1  0
 14  7  1  0
 15 13  1  0
 16 15  2  0
 18 17  1  1
 18 19  1  0
 20 18  1  0
 20 21  1  6
 21 15  1  0
 22 20  1  0
 23 22  2  0
 24 22  1  0
M  END
$$$$
