IIV.pdb
     RDKit          3D

 24 23  0  0  1  0  0  0  0  0999 V2000
    5.6472  -18.2859   19.6578 C   0  0  0  0  0  0  0  0  0  0  0  0
    5.7934  -16.8006   19.9612 C   0  0  0  0  0  0  0  0  0  0  0  0
    6.7442  -16.5887   21.1298 C   0  0  2  0  0  0  0  0  0  0  0  0
    6.1061  -17.3074   22.3176 C   0  0  0  0  0  0  0  0  0  0  0  0
    6.7924  -15.1303   21.4461 C   0  0  2  0  0  0  0  0  0  0  0  0
    7.1984  -14.3229   20.3328 N   0  0  0  0  0  0  0  0  0  0  0  0
    7.6612  -14.8405   22.6306 C   0  0  0  0  0  0  0  0  0  0  0  0
    8.8955  -14.8675   22.4172 O   0  0  0  0  0  0  0  0  0  0  0  0
    6.0978  -11.2507   26.2305 C   0  0  0  0  0  0  0  0  0  0  0  0
    6.9948  -12.1909   25.4364 C   0  0  0  0  0  0  0  0  0  0  0  0
    7.2352  -13.4910   26.1385 C   0  0  2  0  0  0  0  0  0  0  0  0
    8.2394  -13.2657   27.2353 C   0  0  0  0  0  0  0  0  0  0  0  0
    7.7736  -14.4952   25.1544 C   0  0  2  0  0  0  0  0  0  0  0  0
    7.1130  -14.5575   23.8972 N   0  0  0  0  0  0  0  0  0  0  0  0
    8.1649  -15.7926   25.7262 C   0  0  0  0  0  0  0  0  0  0  0  0
    7.3883  -16.5878   26.2779 O   0  0  0  0  0  0  0  0  0  0  0  0
   12.2374  -16.9535   25.1586 C   0  0  0  0  0  0  0  0  0  0  0  0
   11.0939  -17.9691   25.1697 C   0  0  2  0  0  0  0  0  0  0  0  0
   10.5128  -18.0417   23.7731 C   0  0  0  0  0  0  0  0  0  0  0  0
   10.0316  -17.4714   26.1273 C   0  0  2  0  0  0  0  0  0  0  0  0
    9.5448  -16.2185   25.6660 N   0  0  0  0  0  0  0  0  0  0  0  0
   10.6099  -17.3434   27.4888 C   0  0  0  0  0  0  0  0  0  0  0  0
   10.7719  -16.2266   27.9958 O   0  0  0  0  0  0  0  0  0  0  0  0
   10.9499  -18.5321   28.1422 O   0  0  0  0  0  0  0  0  0  0  0  0
  2  1  1  0
  3  2  1  0
  3  4  1  1
  5  6  1  6
  5  3  1  0
  7  8  2  0
  7  5  1  0
 10  9  1  0
 11 12  1  1
 11 10  1  0
 13 14  1  6
 13 11  1  0
 14  7  1  0
 15 13  1  0
 16 15  2  0
 18 17  1  6
 18 19  1  0
 20 18  1  0
 20 21  1  6
 21 15  1  0
 22 20  1  0
 23 22  2  0
 24 22  1  0
M  END
$$$$
