IIV.pdb
     RDKit          3D

 24 23  0  0  1  0  0  0  0  0999 V2000
    6.8119  -21.6776   25.6681 C   0  0  0  0  0  0  0  0  0  0  0  0
    6.0392  -20.5244   25.0413 C   0  0  0  0  0  0  0  0  0  0  0  0
    6.9299  -19.2979   24.9103 C   0  0  2  0  0  0  0  0  0  0  0  0
    7.2487  -18.8639   26.3402 C   0  0  0  0  0  0  0  0  0  0  0  0
    6.1443  -18.2060   24.2622 C   0  0  2  0  0  0  0  0  0  0  0  0
    5.5616  -18.5941   23.0109 N   0  0  0  0  0  0  0  0  0  0  0  0
    6.9554  -16.9602   24.0832 C   0  0  0  0  0  0  0  0  0  0  0  0
    7.7998  -16.9913   23.1581 O   0  0  0  0  0  0  0  0  0  0  0  0
    4.9906  -12.1412   25.9551 C   0  0  0  0  0  0  0  0  0  0  0  0
    5.7466  -13.2278   25.2021 C   0  0  0  0  0  0  0  0  0  0  0  0
    7.0747  -13.5408   25.8179 C   0  0  2  0  0  0  0  0  0  0  0  0
    7.9845  -12.3591   25.6234 C   0  0  0  0  0  0  0  0  0  0  0  0
    7.6624  -14.7516   25.1432 C   0  0  2  0  0  0  0  0  0  0  0  0
    6.7706  -15.8335   24.9086 N   0  0  0  0  0  0  0  0  0  0  0  0
    9.0110  -15.1317   25.5906 C   0  0  0  0  0  0  0  0  0  0  0  0
   10.0512  -14.9545   24.9374 O   0  0  0  0  0  0  0  0  0  0  0  0
   10.1268  -13.5625   28.5157 C   0  0  0  0  0  0  0  0  0  0  0  0
   10.2869  -15.0402   28.8764 C   0  0  2  0  0  0  0  0  0  0  0  0
   11.5556  -15.1936   29.6890 C   0  0  0  0  0  0  0  0  0  0  0  0
   10.4198  -15.8271   27.5894 C   0  0  2  0  0  0  0  0  0  0  0  0
    9.1908  -15.7613   26.8791 N   0  0  0  0  0  0  0  0  0  0  0  0
   10.7737  -17.2349   27.9015 C   0  0  0  0  0  0  0  0  0  0  0  0
    9.8852  -18.0767   28.0816 O   0  0  0  0  0  0  0  0  0  0  0  0
   12.1366  -17.5391   27.9766 O   0  0  0  0  0  0  0  0  0  0  0  0
  2  1  1  0
  3  2  1  0
  3  4  1  1
  5  6  1  6
  5  3  1  0
  7  8  2  0
  7  5  1  0
 10  9  1  0
 11 12  1  6
 11 10  1  0
 13 14  1  1
 13 11  1  0
 14  7  1  0
 15 13  1  0
 16 15  2  0
 18 17  1  6
 18 19  1  0
 20 18  1  0
 20 21  1  1
 21 15  1  0
 22 20  1  0
 23 22  2  0
 24 22  1  0
M  END
$$$$
