IIV.pdb
     RDKit          3D

 24 23  0  0  1  0  0  0  0  0999 V2000
    6.9432  -17.6147   20.1413 C   0  0  0  0  0  0  0  0  0  0  0  0
    7.6321  -16.3033   20.4954 C   0  0  0  0  0  0  0  0  0  0  0  0
    6.6038  -15.1988   20.6881 C   0  0  2  0  0  0  0  0  0  0  0  0
    5.9650  -14.9848   19.3166 C   0  0  0  0  0  0  0  0  0  0  0  0
    7.3186  -13.9430   21.0640 C   0  0  2  0  0  0  0  0  0  0  0  0
    8.2811  -13.5255   20.0865 N   0  0  0  0  0  0  0  0  0  0  0  0
    7.9689  -14.0473   22.4086 C   0  0  0  0  0  0  0  0  0  0  0  0
    9.2095  -14.2219   22.3988 O   0  0  0  0  0  0  0  0  0  0  0  0
    5.9799  -11.0736   26.4624 C   0  0  0  0  0  0  0  0  0  0  0  0
    6.9107  -11.9075   25.5920 C   0  0  0  0  0  0  0  0  0  0  0  0
    6.9405  -13.3493   25.9936 C   0  0  2  0  0  0  0  0  0  0  0  0
    7.6682  -13.4677   27.3045 C   0  0  0  0  0  0  0  0  0  0  0  0
    7.6615  -14.1445   24.9379 C   0  0  2  0  0  0  0  0  0  0  0  0
    7.2220  -13.9535   23.5996 N   0  0  0  0  0  0  0  0  0  0  0  0
    7.9854  -15.5319   25.3035 C   0  0  0  0  0  0  0  0  0  0  0  0
    7.1520  -16.3945   25.6216 O   0  0  0  0  0  0  0  0  0  0  0  0
   12.0469  -16.7171   24.8433 C   0  0  0  0  0  0  0  0  0  0  0  0
   10.8958  -17.7206   24.7592 C   0  0  2  0  0  0  0  0  0  0  0  0
   10.3655  -17.7138   23.3407 C   0  0  0  0  0  0  0  0  0  0  0  0
    9.8032  -17.2638   25.7030 C   0  0  2  0  0  0  0  0  0  0  0  0
    9.3621  -15.9721   25.3077 N   0  0  0  0  0  0  0  0  0  0  0  0
   10.3244  -17.2404   27.0931 C   0  0  0  0  0  0  0  0  0  0  0  0
   10.4538  -16.1665   27.6933 O   0  0  0  0  0  0  0  0  0  0  0  0
   10.6501  -18.4750   27.6637 O   0  0  0  0  0  0  0  0  0  0  0  0
  2  1  1  0
  3  2  1  0
  3  4  1  6
  5  6  1  6
  5  3  1  0
  7  8  2  0
  7  5  1  0
 10  9  1  0
 11 12  1  1
 11 10  1  0
 13 14  1  6
 13 11  1  0
 14  7  1  0
 15 13  1  0
 16 15  2  0
 18 17  1  6
 18 19  1  0
 20 18  1  0
 20 21  1  6
 21 15  1  0
 22 20  1  0
 23 22  2  0
 24 22  1  0
M  END
$$$$
