SNC.pdb
     RDKit          3D

 21 20  0  0  1  0  0  0  0  0999 V2000
   18.7467  -12.6634  -18.7755 O   0  0  0  0  0  0  0  0  0  0  0  0
   19.4063  -11.9735  -17.7589 C   0  0  0  0  0  0  0  0  0  0  0  0
   20.7005  -12.6893  -17.4213 C   0  0  2  0  0  0  0  0  0  0  0  0
   20.3789  -13.9616  -16.8437 N   0  0  0  0  0  0  0  0  0  0  0  0
   21.5127  -11.8620  -16.4561 C   0  0  0  0  0  0  0  0  0  0  0  0
   21.0738  -11.6534  -15.3217 O   0  0  0  0  0  0  0  0  0  0  0  0
   26.7531  -10.4300  -14.7665 N   0  0  0  0  0  0  0  0  0  0  0  0
   26.1103   -9.9051  -15.9069 C   0  0  0  0  0  0  0  0  0  0  0  0
   26.4419   -8.7048  -16.2080 O   0  0  0  0  0  0  0  0  0  0  0  0
   25.1294  -10.6988  -16.6831 C   0  0  0  0  0  0  0  0  0  0  0  0
   23.7059  -10.5577  -16.1914 C   0  0  2  0  0  0  0  0  0  0  0  0
   22.7291  -11.3572  -16.8605 N   0  0  0  0  0  0  0  0  0  0  0  0
   23.3611   -9.1292  -16.3542 C   0  0  0  0  0  0  0  0  0  0  0  0
   23.0927   -8.6661  -17.5250 O   0  0  0  0  0  0  0  0  0  0  0  0
   23.2912   -8.1801  -15.3265 N   0  0  0  0  0  0  0  0  0  0  0  0
   22.9025   -6.8200  -15.5198 C   0  0  1  0  0  0  0  0  0  0  0  0
   21.9617   -6.3165  -14.4451 C   0  0  0  0  0  0  0  0  0  0  0  0
   20.9888   -4.9664  -15.1763 S   0  0  0  0  0  0  0  0  0  0  0  0
   24.0476   -5.8990  -15.6894 C   0  0  0  0  0  0  0  0  0  0  0  0
   25.1823   -6.2048  -15.2421 O   0  0  0  0  0  0  0  0  0  0  0  0
   23.9350   -4.6819  -16.3330 O   0  0  0  0  0  0  0  0  0  0  0  0
  2  3  1  0
  2  1  1  0
  3  5  1  0
  3  4  1  1
  5  6  2  0
  7  8  1  0
  8 10  1  0
  8  9  2  0
 11 10  1  6
 11 13  1  0
 12 11  1  0
 12  5  1  0
 13 15  1  0
 14 13  2  0
 15 16  1  0
 16 17  1  1
 17 18  1  0
 19 21  1  0
 19 16  1  0
 20 19  2  0
M  END
$$$$
