SNC.pdb
     RDKit          3D

 21 20  0  0  1  0  0  0  0  0999 V2000
   16.6615  -11.8192  -18.6526 O   0  0  0  0  0  0  0  0  0  0  0  0
   16.7293  -10.8273  -17.6747 C   0  0  0  0  0  0  0  0  0  0  0  0
   17.8089  -11.1827  -16.6701 C   0  0  2  0  0  0  0  0  0  0  0  0
   17.3912  -12.3485  -15.9472 N   0  0  0  0  0  0  0  0  0  0  0  0
   18.0360  -10.0292  -15.7248 C   0  0  0  0  0  0  0  0  0  0  0  0
   17.3194   -9.9165  -14.7264 O   0  0  0  0  0  0  0  0  0  0  0  0
   22.6330   -9.6227  -14.8840 N   0  0  0  0  0  0  0  0  0  0  0  0
   21.7079   -8.6842  -14.3812 C   0  0  0  0  0  0  0  0  0  0  0  0
   21.5461   -8.7141  -13.1108 O   0  0  0  0  0  0  0  0  0  0  0  0
   20.9889   -7.7445  -15.2726 C   0  0  0  0  0  0  0  0  0  0  0  0
   19.4919   -7.9593  -15.3044 C   0  0  2  0  0  0  0  0  0  0  0  0
   19.0402   -9.1255  -15.9949 N   0  0  0  0  0  0  0  0  0  0  0  0
   18.9245   -6.7581  -15.9535 C   0  0  0  0  0  0  0  0  0  0  0  0
   19.0553   -6.5963  -17.2239 O   0  0  0  0  0  0  0  0  0  0  0  0
   18.2275   -5.7289  -15.3078 N   0  0  0  0  0  0  0  0  0  0  0  0
   17.5971   -4.6425  -15.9863 C   0  0  1  0  0  0  0  0  0  0  0  0
   16.1548   -4.9298  -16.3485 C   0  0  0  0  0  0  0  0  0  0  0  0
   15.4585   -3.3945  -17.0280 S   0  0  0  0  0  0  0  0  0  0  0  0
   17.7120   -3.3541  -15.2688 C   0  0  0  0  0  0  0  0  0  0  0  0
   18.0486   -3.3277  -14.0576 O   0  0  0  0  0  0  0  0  0  0  0  0
   17.4615   -2.1388  -15.8760 O   0  0  0  0  0  0  0  0  0  0  0  0
  2  3  1  0
  2  1  1  0
  3  5  1  0
  3  4  1  1
  5  6  2  0
  7  8  1  0
  8 10  1  0
  8  9  2  0
 11 10  1  6
 11 13  1  0
 12 11  1  0
 12  5  1  0
 13 15  1  0
 14 13  2  0
 15 16  1  0
 16 17  1  1
 17 18  1  0
 19 21  1  0
 19 16  1  0
 20 19  2  0
M  END
$$$$
