SNC.pdb
     RDKit          3D

 21 20  0  0  1  0  0  0  0  0999 V2000
   26.3353  -12.8480  -15.9058 O   0  0  0  0  0  0  0  0  0  0  0  0
   25.5536  -11.7682  -16.3152 C   0  0  0  0  0  0  0  0  0  0  0  0
   24.2613  -12.2822  -16.9209 C   0  0  2  0  0  0  0  0  0  0  0  0
   24.5637  -12.9031  -18.1775 N   0  0  0  0  0  0  0  0  0  0  0  0
   23.2919  -11.1429  -17.1153 C   0  0  0  0  0  0  0  0  0  0  0  0
   23.3189  -10.4999  -18.1683 O   0  0  0  0  0  0  0  0  0  0  0  0
   19.0953  -12.6113  -14.9852 N   0  0  0  0  0  0  0  0  0  0  0  0
   19.3877  -11.4702  -15.7609 C   0  0  0  0  0  0  0  0  0  0  0  0
   18.9617  -11.5153  -16.9682 O   0  0  0  0  0  0  0  0  0  0  0  0
   20.1323  -10.3179  -15.2018 C   0  0  0  0  0  0  0  0  0  0  0  0
   21.3246   -9.9011  -16.0342 C   0  0  2  0  0  0  0  0  0  0  0  0
   22.3948  -10.8442  -16.1133 N   0  0  0  0  0  0  0  0  0  0  0  0
   21.8231   -8.6480  -15.4280 C   0  0  0  0  0  0  0  0  0  0  0  0
   22.4525   -8.6874  -14.3057 O   0  0  0  0  0  0  0  0  0  0  0  0
   21.6790   -7.3628  -15.9659 N   0  0  0  0  0  0  0  0  0  0  0  0
   22.2020   -6.1801  -15.3611 C   0  0  1  0  0  0  0  0  0  0  0  0
   22.1226   -4.9691  -16.2672 C   0  0  0  0  0  0  0  0  0  0  0  0
   22.9685   -3.6059  -15.4126 S   0  0  0  0  0  0  0  0  0  0  0  0
   21.6115   -5.8853  -14.0373 C   0  0  0  0  0  0  0  0  0  0  0  0
   20.3657   -5.9292  -13.8718 O   0  0  0  0  0  0  0  0  0  0  0  0
   22.3783   -5.5536  -12.9372 O   0  0  0  0  0  0  0  0  0  0  0  0
  2  3  1  0
  2  1  1  0
  3  5  1  0
  3  4  1  6
  5  6  2  0
  7  8  1  0
  8 10  1  0
  8  9  2  0
 11 10  1  1
 11 13  1  0
 12 11  1  0
 12  5  1  0
 13 15  1  0
 14 13  2  0
 15 16  1  0
 16 17  1  6
 17 18  1  0
 19 21  1  0
 19 16  1  0
 20 19  2  0
M  END
$$$$
