SNC.pdb
     RDKit          3D

 21 20  0  0  1  0  0  0  0  0999 V2000
   17.1331  -22.7896  -14.0124 O   0  0  0  0  0  0  0  0  0  0  0  0
   17.5798  -23.7210  -13.0756 C   0  0  0  0  0  0  0  0  0  0  0  0
   18.4413  -23.0221  -12.0409 C   0  0  2  0  0  0  0  0  0  0  0  0
   19.5853  -22.4659  -12.7027 N   0  0  0  0  0  0  0  0  0  0  0  0
   18.8717  -24.0026  -10.9784 C   0  0  0  0  0  0  0  0  0  0  0  0
   19.7662  -24.8141  -11.2321 O   0  0  0  0  0  0  0  0  0  0  0  0
   17.2319  -25.2887   -5.1435 N   0  0  0  0  0  0  0  0  0  0  0  0
   18.2346  -24.9216   -6.0650 C   0  0  0  0  0  0  0  0  0  0  0  0
   19.4133  -25.3264   -5.7686 O   0  0  0  0  0  0  0  0  0  0  0  0
   17.9261  -24.1278   -7.2772 C   0  0  0  0  0  0  0  0  0  0  0  0
   18.4553  -24.7380   -8.5562 C   0  0  2  0  0  0  0  0  0  0  0  0
   18.2580  -23.9712   -9.7454 N   0  0  0  0  0  0  0  0  0  0  0  0
   17.7701  -26.0406   -8.6968 C   0  0  0  0  0  0  0  0  0  0  0  0
   17.1221  -26.3084   -9.7765 O   0  0  0  0  0  0  0  0  0  0  0  0
   17.7477  -27.0631   -7.7398 N   0  0  0  0  0  0  0  0  0  0  0  0
   17.4578  -28.4291   -8.0364 C   0  0  1  0  0  0  0  0  0  0  0  0
   18.3836  -29.0155   -9.0818 C   0  0  0  0  0  0  0  0  0  0  0  0
   17.3804  -30.1103  -10.1302 S   0  0  0  0  0  0  0  0  0  0  0  0
   17.4049  -29.2936   -6.8372 C   0  0  0  0  0  0  0  0  0  0  0  0
   17.7043  -28.8325   -5.7063 O   0  0  0  0  0  0  0  0  0  0  0  0
   17.0326  -30.6227   -6.8934 O   0  0  0  0  0  0  0  0  0  0  0  0
  2  3  1  0
  2  1  1  0
  3  5  1  0
  3  4  1  6
  5  6  2  0
  7  8  1  0
  8 10  1  0
  8  9  2  0
 11 10  1  1
 11 13  1  0
 12 11  1  0
 12  5  1  0
 13 15  1  0
 14 13  2  0
 15 16  1  0
 16 17  1  6
 17 18  1  0
 19 21  1  0
 19 16  1  0
 20 19  2  0
M  END
$$$$
