SNC.pdb
     RDKit          3D

 21 20  0  0  1  0  0  0  0  0999 V2000
   17.3987  -13.7716  -18.8664 O   0  0  0  0  0  0  0  0  0  0  0  0
   17.7958  -12.9912  -17.7812 C   0  0  0  0  0  0  0  0  0  0  0  0
   19.2775  -13.1958  -17.5283 C   0  0  2  0  0  0  0  0  0  0  0  0
   19.4546  -14.4474  -16.8515 N   0  0  0  0  0  0  0  0  0  0  0  0
   19.8211  -12.0631  -16.6933 C   0  0  0  0  0  0  0  0  0  0  0  0
   19.7685  -12.1407  -15.4627 O   0  0  0  0  0  0  0  0  0  0  0  0
   23.3531  -11.4162  -16.3874 N   0  0  0  0  0  0  0  0  0  0  0  0
   23.4424  -10.3596  -17.3174 C   0  0  0  0  0  0  0  0  0  0  0  0
   24.5604  -10.2805  -17.9377 O   0  0  0  0  0  0  0  0  0  0  0  0
   22.3165   -9.4238  -17.5439 C   0  0  0  0  0  0  0  0  0  0  0  0
   21.0460   -9.8126  -16.8208 C   0  0  2  0  0  0  0  0  0  0  0  0
   20.3668  -10.9653  -17.3218 N   0  0  0  0  0  0  0  0  0  0  0  0
   20.1509   -8.6397  -16.9162 C   0  0  0  0  0  0  0  0  0  0  0  0
   19.7045   -8.2684  -18.0651 O   0  0  0  0  0  0  0  0  0  0  0  0
   19.7149   -7.8514  -15.8436 N   0  0  0  0  0  0  0  0  0  0  0  0
   18.8004   -6.7627  -15.9719 C   0  0  1  0  0  0  0  0  0  0  0  0
   17.9227   -6.5819  -14.7509 C   0  0  0  0  0  0  0  0  0  0  0  0
   17.2196   -8.2101  -14.3525 S   0  0  0  0  0  0  0  0  0  0  0  0
   19.4516   -5.4877  -16.3442 C   0  0  0  0  0  0  0  0  0  0  0  0
   20.7043   -5.4117  -16.4227 O   0  0  0  0  0  0  0  0  0  0  0  0
   18.7358   -4.3387  -16.6193 O   0  0  0  0  0  0  0  0  0  0  0  0
  2  3  1  0
  2  1  1  0
  3  5  1  0
  3  4  1  1
  5  6  2  0
  7  8  1  0
  8 10  1  0
  8  9  2  0
 11 10  1  6
 11 13  1  0
 12 11  1  0
 12  5  1  0
 13 15  1  0
 14 13  2  0
 15 16  1  0
 16 17  1  1
 17 18  1  0
 19 21  1  0
 19 16  1  0
 20 19  2  0
M  END
$$$$
