SNC.pdb
     RDKit          3D

 21 20  0  0  1  0  0  0  0  0999 V2000
   16.0308  -11.7247  -13.5768 O   0  0  0  0  0  0  0  0  0  0  0  0
   16.9856  -10.7543  -13.8793 C   0  0  0  0  0  0  0  0  0  0  0  0
   17.3320  -10.8303  -15.3542 C   0  0  2  0  0  0  0  0  0  0  0  0
   17.9489  -12.0988  -15.6115 N   0  0  0  0  0  0  0  0  0  0  0  0
   18.2656   -9.7048  -15.7250 C   0  0  0  0  0  0  0  0  0  0  0  0
   19.4828   -9.8628  -15.5968 O   0  0  0  0  0  0  0  0  0  0  0  0
   17.4178   -7.9116  -19.2708 N   0  0  0  0  0  0  0  0  0  0  0  0
   16.9642   -6.7245  -18.6588 C   0  0  0  0  0  0  0  0  0  0  0  0
   16.1274   -6.0463  -19.3522 O   0  0  0  0  0  0  0  0  0  0  0  0
   17.4330   -6.3122  -17.3153 C   0  0  0  0  0  0  0  0  0  0  0  0
   18.3528   -7.3160  -16.6562 C   0  0  2  0  0  0  0  0  0  0  0  0
   17.7400   -8.5236  -16.2008 N   0  0  0  0  0  0  0  0  0  0  0  0
   18.9603   -6.6137  -15.5057 C   0  0  0  0  0  0  0  0  0  0  0  0
   18.2853   -6.4634  -14.4199 O   0  0  0  0  0  0  0  0  0  0  0  0
   20.2500   -6.0686  -15.4655 N   0  0  0  0  0  0  0  0  0  0  0  0
   20.7909   -5.3779  -14.3392 C   0  0  1  0  0  0  0  0  0  0  0  0
   21.9114   -6.1395  -13.6621 C   0  0  0  0  0  0  0  0  0  0  0  0
   22.4056   -5.1766  -12.2018 S   0  0  0  0  0  0  0  0  0  0  0  0
   21.2068   -3.9913  -14.6430 C   0  0  0  0  0  0  0  0  0  0  0  0
   21.6617   -3.6972  -15.7778 O   0  0  0  0  0  0  0  0  0  0  0  0
   21.1202   -2.9685  -13.7185 O   0  0  0  0  0  0  0  0  0  0  0  0
  2  3  1  0
  2  1  1  0
  3  5  1  0
  3  4  1  1
  5  6  2  0
  7  8  1  0
  8 10  1  0
  8  9  2  0
 11 10  1  1
 11 13  1  0
 12 11  1  0
 12  5  1  0
 13 15  1  0
 14 13  2  0
 15 16  1  0
 16 17  1  6
 17 18  1  0
 19 21  1  0
 19 16  1  0
 20 19  2  0
M  END
$$$$
