SNC.pdb
     RDKit          3D

 21 20  0  0  1  0  0  0  0  0999 V2000
   25.9591  -18.0688  -16.6858 O   0  0  0  0  0  0  0  0  0  0  0  0
   27.0439  -17.5472  -15.9817 C   0  0  0  0  0  0  0  0  0  0  0  0
   27.9789  -18.6751  -15.5882 C   0  0  2  0  0  0  0  0  0  0  0  0
   28.6124  -19.1749  -16.7735 N   0  0  0  0  0  0  0  0  0  0  0  0
   27.2052  -19.7726  -14.9008 C   0  0  0  0  0  0  0  0  0  0  0  0
   26.9804  -20.8238  -15.5069 O   0  0  0  0  0  0  0  0  0  0  0  0
   24.9974  -20.7161   -9.0958 N   0  0  0  0  0  0  0  0  0  0  0  0
   25.6420  -21.0632  -10.3013 C   0  0  0  0  0  0  0  0  0  0  0  0
   25.7375  -22.3221  -10.5185 O   0  0  0  0  0  0  0  0  0  0  0  0
   26.1618  -20.0338  -11.2314 C   0  0  0  0  0  0  0  0  0  0  0  0
   26.0906  -20.4367  -12.6877 C   0  0  2  0  0  0  0  0  0  0  0  0
   26.7663  -19.5793  -13.6093 N   0  0  0  0  0  0  0  0  0  0  0  0
   24.6519  -20.4788  -13.0261 C   0  0  0  0  0  0  0  0  0  0  0  0
   24.0196  -19.3835  -13.2659 O   0  0  0  0  0  0  0  0  0  0  0  0
   23.8648  -21.6337  -13.1189 N   0  0  0  0  0  0  0  0  0  0  0  0
   22.4711  -21.6281  -13.4280 C   0  0  1  0  0  0  0  0  0  0  0  0
   21.9670  -22.9740  -13.9059 C   0  0  0  0  0  0  0  0  0  0  0  0
   20.2237  -22.7566  -14.3727 S   0  0  0  0  0  0  0  0  0  0  0  0
   21.6264  -21.1106  -12.3294 C   0  0  0  0  0  0  0  0  0  0  0  0
   21.9807  -21.2554  -11.1317 O   0  0  0  0  0  0  0  0  0  0  0  0
   20.4311  -20.4558  -12.5545 O   0  0  0  0  0  0  0  0  0  0  0  0
  2  3  1  0
  2  1  1  0
  3  5  1  0
  3  4  1  6
  5  6  2  0
  7  8  1  0
  8 10  1  0
  8  9  2  0
 11 10  1  1
 11 13  1  0
 12 11  1  0
 12  5  1  0
 13 15  1  0
 14 13  2  0
 15 16  1  0
 16 17  1  1
 17 18  1  0
 19 21  1  0
 19 16  1  0
 20 19  2  0
M  END
$$$$
