SNC.pdb
     RDKit          3D

 21 20  0  0  1  0  0  0  0  0999 V2000
   16.1053  -10.2603  -16.6625 O   0  0  0  0  0  0  0  0  0  0  0  0
   17.2435   -9.5343  -16.3132 C   0  0  0  0  0  0  0  0  0  0  0  0
   18.4500  -10.4537  -16.3205 C   0  0  2  0  0  0  0  0  0  0  0  0
   18.1319  -11.6271  -15.5604 N   0  0  0  0  0  0  0  0  0  0  0  0
   19.6426   -9.7471  -15.7255 C   0  0  0  0  0  0  0  0  0  0  0  0
   19.7333   -9.6435  -14.4991 O   0  0  0  0  0  0  0  0  0  0  0  0
   24.2451   -7.1350  -15.8110 N   0  0  0  0  0  0  0  0  0  0  0  0
   24.0996   -7.8082  -17.0418 C   0  0  0  0  0  0  0  0  0  0  0  0
   25.1075   -7.7189  -17.8275 O   0  0  0  0  0  0  0  0  0  0  0  0
   22.8662   -8.5559  -17.3800 C   0  0  0  0  0  0  0  0  0  0  0  0
   21.7987   -8.4860  -16.3106 C   0  0  2  0  0  0  0  0  0  0  0  0
   20.6074   -9.2328  -16.5638 N   0  0  0  0  0  0  0  0  0  0  0  0
   21.4565   -7.0541  -16.1734 C   0  0  0  0  0  0  0  0  0  0  0  0
   20.8317   -6.4525  -17.1246 O   0  0  0  0  0  0  0  0  0  0  0  0
   21.7511   -6.2425  -15.0704 N   0  0  0  0  0  0  0  0  0  0  0  0
   21.3980   -4.8624  -14.9768 C   0  0  1  0  0  0  0  0  0  0  0  0
   20.7398   -4.5096  -13.6592 C   0  0  0  0  0  0  0  0  0  0  0  0
   20.1516   -2.7953  -13.7978 S   0  0  0  0  0  0  0  0  0  0  0  0
   22.5231   -3.9461  -15.2640 C   0  0  0  0  0  0  0  0  0  0  0  0
   23.5850   -4.0120  -14.5937 O   0  0  0  0  0  0  0  0  0  0  0  0
   22.4696   -2.9908  -16.2605 O   0  0  0  0  0  0  0  0  0  0  0  0
  2  3  1  0
  2  1  1  0
  3  5  1  0
  3  4  1  1
  5  6  2  0
  7  8  1  0
  8 10  1  0
  8  9  2  0
 11 10  1  6
 11 13  1  0
 12 11  1  0
 12  5  1  0
 13 15  1  0
 14 13  2  0
 15 16  1  0
 16 17  1  1
 17 18  1  0
 19 21  1  0
 19 16  1  0
 20 19  2  0
M  END
$$$$
