SNC.pdb
     RDKit          3D

 21 20  0  0  1  0  0  0  0  0999 V2000
  117.7987 -157.0003  -11.5700 O   0  0  0  0  0  0  0  0  0  0  0  0
  117.2236 -157.0425  -10.3004 C   0  0  0  0  0  0  0  0  0  0  0  0
  118.3175 -157.0060   -9.2500 C   0  0  2  0  0  0  0  0  0  0  0  0
  118.4926 -155.6485   -8.8230 N   0  0  0  0  0  0  0  0  0  0  0  0
  119.6032 -157.5488   -9.8228 C   0  0  0  0  0  0  0  0  0  0  0  0
  119.6097 -158.6716  -10.3349 O   0  0  0  0  0  0  0  0  0  0  0  0
  120.1842 -156.4634  -13.7062 N   0  0  0  0  0  0  0  0  0  0  0  0
  121.2569 -156.9488  -12.9296 C   0  0  0  0  0  0  0  0  0  0  0  0
  121.6252 -158.1441  -13.2065 O   0  0  0  0  0  0  0  0  0  0  0  0
  121.8945 -156.1222  -11.8786 C   0  0  0  0  0  0  0  0  0  0  0  0
  121.9528 -156.7956  -10.5253 C   0  0  2  0  0  0  0  0  0  0  0  0
  120.7441 -156.7788   -9.7638 N   0  0  0  0  0  0  0  0  0  0  0  0
  123.0143 -156.0959   -9.7705 C   0  0  0  0  0  0  0  0  0  0  0  0
  123.7839 -155.2602  -10.3759 O   0  0  0  0  0  0  0  0  0  0  0  0
  123.2869 -156.2494   -8.4051 N   0  0  0  0  0  0  0  0  0  0  0  0
  124.2061 -155.4349   -7.6773 C   0  0  1  0  0  0  0  0  0  0  0  0
  125.2313 -154.7625   -8.5665 C   0  0  0  0  0  0  0  0  0  0  0  0
  126.2704 -156.0765   -9.2720 S   0  0  0  0  0  0  0  0  0  0  0  0
  123.5467 -154.4469   -6.7956 C   0  0  0  0  0  0  0  0  0  0  0  0
  123.8132 -154.4120   -5.5672 O   0  0  0  0  0  0  0  0  0  0  0  0
  122.6243 -153.5308   -7.2628 O   0  0  0  0  0  0  0  0  0  0  0  0
  2  3  1  0
  2  1  1  0
  3  5  1  0
  3  4  1  6
  5  6  2  0
  7  8  1  0
  8 10  1  0
  8  9  2  0
 11 10  1  6
 11 13  1  0
 12 11  1  0
 12  5  1  0
 13 15  1  0
 14 13  2  0
 15 16  1  0
 16 17  1  6
 17 18  1  0
 19 21  1  0
 19 16  1  0
 20 19  2  0
M  END
$$$$
