SNC.pdb
     RDKit          3D

 21 20  0  0  1  0  0  0  0  0999 V2000
   17.4373  -11.8975  -18.5203 O   0  0  0  0  0  0  0  0  0  0  0  0
   18.5482  -11.5799  -17.7396 C   0  0  0  0  0  0  0  0  0  0  0  0
   19.7912  -11.5764  -18.6092 C   0  0  2  0  0  0  0  0  0  0  0  0
   20.3362  -12.9025  -18.6286 N   0  0  0  0  0  0  0  0  0  0  0  0
   20.8019  -10.5987  -18.0632 C   0  0  0  0  0  0  0  0  0  0  0  0
   21.4983  -10.9257  -17.0982 O   0  0  0  0  0  0  0  0  0  0  0  0
   23.0806   -5.0692  -20.0772 N   0  0  0  0  0  0  0  0  0  0  0  0
   22.8514   -6.1263  -19.1720 C   0  0  0  0  0  0  0  0  0  0  0  0
   23.5846   -6.1052  -18.1218 O   0  0  0  0  0  0  0  0  0  0  0  0
   21.8348   -7.1711  -19.4355 C   0  0  0  0  0  0  0  0  0  0  0  0
   21.7749   -8.2451  -18.3720 C   0  0  2  0  0  0  0  0  0  0  0  0
   20.9279   -9.3605  -18.6540 N   0  0  0  0  0  0  0  0  0  0  0  0
   21.3016   -7.5720  -17.1435 C   0  0  0  0  0  0  0  0  0  0  0  0
   20.0862   -7.1540  -17.0718 O   0  0  0  0  0  0  0  0  0  0  0  0
   22.0662   -7.3281  -15.9955 N   0  0  0  0  0  0  0  0  0  0  0  0
   21.5573   -6.7122  -14.8124 C   0  0  1  0  0  0  0  0  0  0  0  0
   21.7246   -7.5749  -13.5789 C   0  0  0  0  0  0  0  0  0  0  0  0
   20.9394   -6.6911  -12.1982 S   0  0  0  0  0  0  0  0  0  0  0  0
   22.0925   -5.3530  -14.5795 C   0  0  0  0  0  0  0  0  0  0  0  0
   23.3189   -5.1177  -14.7271 O   0  0  0  0  0  0  0  0  0  0  0  0
   21.2931   -4.2936  -14.1961 O   0  0  0  0  0  0  0  0  0  0  0  0
  2  3  1  0
  2  1  1  0
  3  5  1  0
  3  4  1  1
  5  6  2  0
  7  8  1  0
  8 10  1  0
  8  9  2  0
 11 10  1  6
 11 13  1  0
 12 11  1  0
 12  5  1  0
 13 15  1  0
 14 13  2  0
 15 16  1  0
 16 17  1  1
 17 18  1  0
 19 21  1  0
 19 16  1  0
 20 19  2  0
M  END
$$$$
