SNC.pdb
     RDKit          3D

 21 20  0  0  1  0  0  0  0  0999 V2000
   13.1905   -8.5647  -13.7353 O   0  0  0  0  0  0  0  0  0  0  0  0
   14.5781   -8.6960  -13.6929 C   0  0  0  0  0  0  0  0  0  0  0  0
   15.0197   -9.7178  -14.7235 C   0  0  2  0  0  0  0  0  0  0  0  0
   14.6296  -11.0203  -14.2682 N   0  0  0  0  0  0  0  0  0  0  0  0
   16.5150   -9.6505  -14.9111 C   0  0  0  0  0  0  0  0  0  0  0  0
   17.2427  -10.3755  -14.2271 O   0  0  0  0  0  0  0  0  0  0  0  0
   20.2606   -7.3907  -19.4112 N   0  0  0  0  0  0  0  0  0  0  0  0
   19.9048   -8.0876  -18.2377 C   0  0  0  0  0  0  0  0  0  0  0  0
   20.8796   -8.6569  -17.6323 O   0  0  0  0  0  0  0  0  0  0  0  0
   18.5037   -8.1441  -17.7597 C   0  0  0  0  0  0  0  0  0  0  0  0
   18.3698   -8.5671  -16.3136 C   0  0  2  0  0  0  0  0  0  0  0  0
   17.0378   -8.7817  -15.8436 N   0  0  0  0  0  0  0  0  0  0  0  0
   19.0004   -7.4925  -15.5175 C   0  0  0  0  0  0  0  0  0  0  0  0
   18.3397   -6.4189  -15.2567 O   0  0  0  0  0  0  0  0  0  0  0  0
   20.2983   -7.5155  -14.9913 N   0  0  0  0  0  0  0  0  0  0  0  0
   20.8803   -6.4413  -14.2527 C   0  0  1  0  0  0  0  0  0  0  0  0
   21.8640   -6.9124  -13.2018 C   0  0  0  0  0  0  0  0  0  0  0  0
   22.4592   -5.4346  -12.3265 S   0  0  0  0  0  0  0  0  0  0  0  0
   21.4858   -5.3982  -15.1091 C   0  0  0  0  0  0  0  0  0  0  0  0
   22.1496   -5.7173  -16.1283 O   0  0  0  0  0  0  0  0  0  0  0  0
   21.3580   -4.0489  -14.8419 O   0  0  0  0  0  0  0  0  0  0  0  0
  2  3  1  0
  2  1  1  0
  3  5  1  0
  3  4  1  1
  5  6  2  0
  7  8  1  0
  8 10  1  0
  8  9  2  0
 11 10  1  6
 11 13  1  0
 12 11  1  0
 12  5  1  0
 13 15  1  0
 14 13  2  0
 15 16  1  0
 16 17  1  1
 17 18  1  0
 19 21  1  0
 19 16  1  0
 20 19  2  0
M  END
$$$$
