SII.pdb
     RDKit          3D

 23 22  0  0  1  0  0  0  0  0999 V2000
   12.5254  -19.7344   20.0105 O   0  0  0  0  0  0  0  0  0  0  0  0
   11.9127  -18.8955   20.9142 C   0  0  0  0  0  0  0  0  0  0  0  0
   11.5602  -17.5870   20.2040 C   0  0  2  0  0  0  0  0  0  0  0  0
   12.7302  -17.0290   19.5577 N   0  0  0  0  0  0  0  0  0  0  0  0
   11.0640  -16.6142   21.1966 C   0  0  0  0  0  0  0  0  0  0  0  0
   11.8720  -15.9088   21.8374 O   0  0  0  0  0  0  0  0  0  0  0  0
    6.7084  -13.5708   20.1388 C   0  0  0  0  0  0  0  0  0  0  0  0
    8.0557  -14.1025   20.5420 C   0  0  0  0  0  0  0  0  0  0  0  0
    7.9101  -14.8234   21.8650 C   0  0  2  0  0  0  0  0  0  0  0  0
    7.4832  -13.8137   22.9049 C   0  0  0  0  0  0  0  0  0  0  0  0
    9.2394  -15.3957   22.3273 C   0  0  2  0  0  0  0  0  0  0  0  0
    9.6699  -16.4520   21.4508 N   0  0  0  0  0  0  0  0  0  0  0  0
    9.1499  -15.9056   23.7122 C   0  0  0  0  0  0  0  0  0  0  0  0
    8.8537  -17.1068   23.9270 O   0  0  0  0  0  0  0  0  0  0  0  0
   10.4063  -13.7525   29.4284 C   0  0  0  0  0  0  0  0  0  0  0  0
   10.2270  -14.9342   28.4883 C   0  0  0  0  0  0  0  0  0  0  0  0
    9.9389  -14.4934   27.0884 C   0  0  2  0  0  0  0  0  0  0  0  0
    8.9562  -13.3439   27.0434 C   0  0  0  0  0  0  0  0  0  0  0  0
    9.5813  -15.6065   26.1707 C   0  0  2  0  0  0  0  0  0  0  0  0
    9.3944  -15.0556   24.8167 N   0  0  0  0  0  0  0  0  0  0  0  0
    8.4278  -16.4206   26.5414 C   0  0  0  0  0  0  0  0  0  0  0  0
    8.5781  -17.5201   27.3619 O   0  0  0  0  0  0  0  0  0  0  0  0
    7.2691  -16.1570   26.1334 O   0  0  0  0  0  0  0  0  0  0  0  0
  2  1  1  0
  3  4  1  1
  3  2  1  0
  5  3  1  0
  6  5  2  0
  8  9  1  0
  8  7  1  0
  9 11  1  0
  9 10  1  1
 11 13  1  0
 11 12  1  6
 12  5  1  0
 13 20  1  0
 14 13  2  0
 15 16  1  0
 17 19  1  0
 17 16  1  0
 17 18  1  1
 19 21  1  0
 19 20  1  6
 21 23  2  0
 21 22  1  0
M  END
$$$$
