SII.pdb
     RDKit          3D

 23 22  0  0  1  0  0  0  0  0999 V2000
   10.5831  -16.3667   18.6222 O   0  0  0  0  0  0  0  0  0  0  0  0
    9.6553  -15.8494   19.4981 C   0  0  0  0  0  0  0  0  0  0  0  0
    8.5121  -16.8551   19.6483 C   0  0  2  0  0  0  0  0  0  0  0  0
    7.5149  -16.6475   18.6186 N   0  0  0  0  0  0  0  0  0  0  0  0
    7.8722  -16.6698   20.9651 C   0  0  0  0  0  0  0  0  0  0  0  0
    6.9204  -15.8700   21.0897 O   0  0  0  0  0  0  0  0  0  0  0  0
    6.1658  -20.8119   23.5649 C   0  0  0  0  0  0  0  0  0  0  0  0
    6.3472  -19.4341   22.9910 C   0  0  0  0  0  0  0  0  0  0  0  0
    7.2581  -18.6484   23.9098 C   0  0  2  0  0  0  0  0  0  0  0  0
    6.5307  -18.4284   25.2157 C   0  0  0  0  0  0  0  0  0  0  0  0
    7.5610  -17.2737   23.3380 C   0  0  2  0  0  0  0  0  0  0  0  0
    8.3132  -17.3861   22.1170 N   0  0  0  0  0  0  0  0  0  0  0  0
    8.3084  -16.4440   24.3068 C   0  0  0  0  0  0  0  0  0  0  0  0
    9.5539  -16.5625   24.4140 O   0  0  0  0  0  0  0  0  0  0  0  0
    5.8669  -11.7831   25.9826 C   0  0  0  0  0  0  0  0  0  0  0  0
    6.8368  -12.8297   25.4568 C   0  0  0  0  0  0  0  0  0  0  0  0
    7.4947  -13.5865   26.5666 C   0  0  2  0  0  0  0  0  0  0  0  0
    8.1584  -12.6674   27.5685 C   0  0  0  0  0  0  0  0  0  0  0  0
    8.3821  -14.6839   26.1004 C   0  0  2  0  0  0  0  0  0  0  0  0
    7.6396  -15.5055   25.1279 N   0  0  0  0  0  0  0  0  0  0  0  0
    8.9696  -15.5373   27.1286 C   0  0  0  0  0  0  0  0  0  0  0  0
   10.2325  -15.2773   27.6205 O   0  0  0  0  0  0  0  0  0  0  0  0
    8.3580  -16.5289   27.5991 O   0  0  0  0  0  0  0  0  0  0  0  0
  2  1  1  0
  3  4  1  6
  3  2  1  0
  5  3  1  0
  6  5  2  0
  8  9  1  0
  8  7  1  0
  9 11  1  0
  9 10  1  1
 11 13  1  0
 11 12  1  6
 12  5  1  0
 13 20  1  0
 14 13  2  0
 15 16  1  0
 17 19  1  0
 17 16  1  0
 17 18  1  6
 19 21  1  0
 19 20  1  6
 21 23  2  0
 21 22  1  0
M  END
$$$$
