SII.pdb
     RDKit          3D

 23 22  0  0  1  0  0  0  0  0999 V2000
    6.6852  -18.1852   24.1171 O   0  0  0  0  0  0  0  0  0  0  0  0
    7.1533  -19.0364   23.1413 C   0  0  0  0  0  0  0  0  0  0  0  0
    7.0229  -18.3418   21.7842 C   0  0  2  0  0  0  0  0  0  0  0  0
    7.4672  -19.2186   20.7205 N   0  0  0  0  0  0  0  0  0  0  0  0
    7.8654  -17.1302   21.7760 C   0  0  0  0  0  0  0  0  0  0  0  0
    9.1090  -17.2350   21.7151 O   0  0  0  0  0  0  0  0  0  0  0  0
    6.8826  -12.6844   18.8057 C   0  0  0  0  0  0  0  0  0  0  0  0
    7.6112  -13.7925   19.5141 C   0  0  0  0  0  0  0  0  0  0  0  0
    7.5215  -13.5484   21.0053 C   0  0  2  0  0  0  0  0  0  0  0  0
    8.3042  -12.2957   21.3235 C   0  0  0  0  0  0  0  0  0  0  0  0
    8.1668  -14.6805   21.7865 C   0  0  2  0  0  0  0  0  0  0  0  0
    7.2955  -15.8241   21.8364 N   0  0  0  0  0  0  0  0  0  0  0  0
    8.5074  -14.2559   23.1611 C   0  0  0  0  0  0  0  0  0  0  0  0
    8.8634  -13.0734   23.3889 O   0  0  0  0  0  0  0  0  0  0  0  0
    7.9188  -11.7059   26.9905 C   0  0  0  0  0  0  0  0  0  0  0  0
    7.3912  -13.1154   27.2077 C   0  0  0  0  0  0  0  0  0  0  0  0
    7.3079  -13.8823   25.9262 C   0  0  2  0  0  0  0  0  0  0  0  0
    6.0180  -14.6650   25.8129 C   0  0  0  0  0  0  0  0  0  0  0  0
    8.5158  -14.6981   25.6359 C   0  0  2  0  0  0  0  0  0  0  0  0
    8.4397  -15.1677   24.2411 N   0  0  0  0  0  0  0  0  0  0  0  0
    8.7801  -15.8234   26.5273 C   0  0  0  0  0  0  0  0  0  0  0  0
    8.6564  -17.1217   26.0757 O   0  0  0  0  0  0  0  0  0  0  0  0
    9.1248  -15.6572   27.7240 O   0  0  0  0  0  0  0  0  0  0  0  0
  2  1  1  0
  3  4  1  6
  3  2  1  0
  5  3  1  0
  6  5  2  0
  8  9  1  0
  8  7  1  0
  9 11  1  0
  9 10  1  6
 11 13  1  0
 11 12  1  1
 12  5  1  0
 13 20  1  0
 14 13  2  0
 15 16  1  0
 17 19  1  0
 17 16  1  0
 17 18  1  1
 19 21  1  0
 19 20  1  6
 21 23  2  0
 21 22  1  0
M  END
$$$$
