SII.pdb
     RDKit          3D

 23 22  0  0  1  0  0  0  0  0999 V2000
    6.2995  -17.2755   20.4443 O   0  0  0  0  0  0  0  0  0  0  0  0
    6.7235  -16.9000   21.6993 C   0  0  0  0  0  0  0  0  0  0  0  0
    7.0506  -15.4055   21.6769 C   0  0  2  0  0  0  0  0  0  0  0  0
    7.8302  -15.0740   20.5021 N   0  0  0  0  0  0  0  0  0  0  0  0
    7.8404  -15.0633   22.8757 C   0  0  0  0  0  0  0  0  0  0  0  0
    9.0870  -15.1405   22.8450 O   0  0  0  0  0  0  0  0  0  0  0  0
    6.0617  -11.3348   26.3928 C   0  0  0  0  0  0  0  0  0  0  0  0
    6.9509  -12.1328   25.4799 C   0  0  0  0  0  0  0  0  0  0  0  0
    7.3336  -13.4162   26.1854 C   0  0  2  0  0  0  0  0  0  0  0  0
    8.3235  -13.0755   27.2748 C   0  0  0  0  0  0  0  0  0  0  0  0
    8.0348  -14.3750   25.2380 C   0  0  2  0  0  0  0  0  0  0  0  0
    7.2152  -14.6409   24.0862 N   0  0  0  0  0  0  0  0  0  0  0  0
    8.3685  -15.6468   25.9140 C   0  0  0  0  0  0  0  0  0  0  0  0
    7.4552  -16.4120   26.3106 O   0  0  0  0  0  0  0  0  0  0  0  0
   12.4676  -19.9887   25.2828 C   0  0  0  0  0  0  0  0  0  0  0  0
   11.5106  -19.3336   26.2663 C   0  0  0  0  0  0  0  0  0  0  0  0
   11.0294  -18.0056   25.7744 C   0  0  2  0  0  0  0  0  0  0  0  0
   12.1713  -17.0995   25.3694 C   0  0  0  0  0  0  0  0  0  0  0  0
   10.0528  -17.3480   26.6815 C   0  0  2  0  0  0  0  0  0  0  0  0
    9.7153  -16.0251   26.1266 N   0  0  0  0  0  0  0  0  0  0  0  0
   10.4406  -17.2169   28.0826 C   0  0  0  0  0  0  0  0  0  0  0  0
   10.7265  -15.9782   28.6197 O   0  0  0  0  0  0  0  0  0  0  0  0
   10.5292  -18.2123   28.8441 O   0  0  0  0  0  0  0  0  0  0  0  0
  2  1  1  0
  3  4  1  6
  3  2  1  0
  5  3  1  0
  6  5  2  0
  8  9  1  0
  8  7  1  0
  9 11  1  0
  9 10  1  1
 11 13  1  0
 11 12  1  6
 12  5  1  0
 13 20  1  0
 14 13  2  0
 15 16  1  0
 17 19  1  0
 17 16  1  0
 17 18  1  1
 19 21  1  0
 19 20  1  6
 21 23  2  0
 21 22  1  0
M  END
$$$$
