SII.pdb
     RDKit          3D

 23 22  0  0  1  0  0  0  0  0999 V2000
   10.6868  -15.6868   18.6040 O   0  0  0  0  0  0  0  0  0  0  0  0
    9.9367  -15.3346   19.7035 C   0  0  0  0  0  0  0  0  0  0  0  0
    8.5048  -15.8326   19.4973 C   0  0  2  0  0  0  0  0  0  0  0  0
    7.7855  -14.9523   18.5999 N   0  0  0  0  0  0  0  0  0  0  0  0
    7.8053  -15.8512   20.7966 C   0  0  0  0  0  0  0  0  0  0  0  0
    7.1813  -14.8405   21.1842 O   0  0  0  0  0  0  0  0  0  0  0  0
    4.9753  -20.1535   22.4488 C   0  0  0  0  0  0  0  0  0  0  0  0
    5.4292  -18.7519   22.1486 C   0  0  0  0  0  0  0  0  0  0  0  0
    6.4935  -18.3672   23.1539 C   0  0  2  0  0  0  0  0  0  0  0  0
    5.8455  -18.2895   24.5166 C   0  0  0  0  0  0  0  0  0  0  0  0
    7.0573  -16.9882   22.8557 C   0  0  2  0  0  0  0  0  0  0  0  0
    7.8198  -17.0043   21.6360 N   0  0  0  0  0  0  0  0  0  0  0  0
    7.9066  -16.5059   23.9655 C   0  0  0  0  0  0  0  0  0  0  0  0
    9.0856  -16.9204   24.0872 O   0  0  0  0  0  0  0  0  0  0  0  0
    6.3141  -11.7422   26.1868 C   0  0  0  0  0  0  0  0  0  0  0  0
    7.0860  -12.8823   25.5412 C   0  0  0  0  0  0  0  0  0  0  0  0
    7.6187  -13.8404   26.5588 C   0  0  2  0  0  0  0  0  0  0  0  0
    8.4625  -13.1484   27.6068 C   0  0  0  0  0  0  0  0  0  0  0  0
    8.2786  -15.0349   25.9700 C   0  0  2  0  0  0  0  0  0  0  0  0
    7.4110  -15.5732   24.9073 N   0  0  0  0  0  0  0  0  0  0  0  0
    8.6560  -16.1007   26.8933 C   0  0  0  0  0  0  0  0  0  0  0  0
    9.9440  -16.1837   27.3821 O   0  0  0  0  0  0  0  0  0  0  0  0
    7.8353  -16.9728   27.2734 O   0  0  0  0  0  0  0  0  0  0  0  0
  2  1  1  0
  3  4  1  6
  3  2  1  0
  5  3  1  0
  6  5  2  0
  8  9  1  0
  8  7  1  0
  9 11  1  0
  9 10  1  1
 11 13  1  0
 11 12  1  6
 12  5  1  0
 13 20  1  0
 14 13  2  0
 15 16  1  0
 17 19  1  0
 17 16  1  0
 17 18  1  6
 19 21  1  0
 19 20  1  6
 21 23  2  0
 21 22  1  0
M  END
$$$$
