SII.pdb
     RDKit          3D

 23 22  0  0  1  0  0  0  0  0999 V2000
    7.0087  -18.2815   20.7734 O   0  0  0  0  0  0  0  0  0  0  0  0
    8.0691  -17.5290   21.2260 C   0  0  0  0  0  0  0  0  0  0  0  0
    7.6517  -16.0571   21.2413 C   0  0  2  0  0  0  0  0  0  0  0  0
    8.1103  -15.3869   20.0420 N   0  0  0  0  0  0  0  0  0  0  0  0
    8.2583  -15.3925   22.4110 C   0  0  0  0  0  0  0  0  0  0  0  0
    9.4183  -14.9342   22.3367 O   0  0  0  0  0  0  0  0  0  0  0  0
    5.4345  -12.0453   25.5375 C   0  0  0  0  0  0  0  0  0  0  0  0
    6.5334  -12.6760   24.7281 C   0  0  0  0  0  0  0  0  0  0  0  0
    7.1498  -13.7919   25.5442 C   0  0  2  0  0  0  0  0  0  0  0  0
    7.8852  -13.1704   26.7087 C   0  0  0  0  0  0  0  0  0  0  0  0
    8.1796  -14.5604   24.7334 C   0  0  2  0  0  0  0  0  0  0  0  0
    7.5509  -15.2551   23.6419 N   0  0  0  0  0  0  0  0  0  0  0  0
    8.9142  -15.5257   25.5786 C   0  0  0  0  0  0  0  0  0  0  0  0
    8.3699  -16.6009   25.9317 O   0  0  0  0  0  0  0  0  0  0  0  0
   10.5670  -13.5633   29.7838 C   0  0  0  0  0  0  0  0  0  0  0  0
   10.8461  -14.0956   28.3870 C   0  0  0  0  0  0  0  0  0  0  0  0
   10.7471  -15.5869   28.3293 C   0  0  2  0  0  0  0  0  0  0  0  0
   11.6250  -16.2571   29.3634 C   0  0  0  0  0  0  0  0  0  0  0  0
   10.9185  -16.1469   26.9633 C   0  0  2  0  0  0  0  0  0  0  0  0
   10.2371  -15.2592   26.0043 N   0  0  0  0  0  0  0  0  0  0  0  0
   10.4879  -17.5265   26.7585 C   0  0  0  0  0  0  0  0  0  0  0  0
    9.1594  -17.8753   26.8926 O   0  0  0  0  0  0  0  0  0  0  0  0
   11.2981  -18.4383   26.4573 O   0  0  0  0  0  0  0  0  0  0  0  0
  2  1  1  0
  3  4  1  6
  3  2  1  0
  5  3  1  0
  6  5  2  0
  8  9  1  0
  8  7  1  0
  9 11  1  0
  9 10  1  1
 11 13  1  0
 11 12  1  6
 12  5  1  0
 13 20  1  0
 14 13  2  0
 15 16  1  0
 17 19  1  0
 17 16  1  0
 17 18  1  1
 19 21  1  0
 19 20  1  6
 21 23  2  0
 21 22  1  0
M  END
$$$$
