SII.pdb
     RDKit          3D

 23 22  0  0  1  0  0  0  0  0999 V2000
    9.4351  -18.6072   19.8105 O   0  0  0  0  0  0  0  0  0  0  0  0
    9.4426  -17.9565   21.0239 C   0  0  0  0  0  0  0  0  0  0  0  0
    9.0607  -16.4926   20.7950 C   0  0  2  0  0  0  0  0  0  0  0  0
    9.8714  -15.9151   19.7428 N   0  0  0  0  0  0  0  0  0  0  0  0
    9.2921  -15.7305   22.0373 C   0  0  0  0  0  0  0  0  0  0  0  0
   10.4193  -15.2448   22.2710 O   0  0  0  0  0  0  0  0  0  0  0  0
    6.3193  -12.4338   26.2032 C   0  0  0  0  0  0  0  0  0  0  0  0
    7.5974  -13.1156   25.8002 C   0  0  0  0  0  0  0  0  0  0  0  0
    7.2750  -14.1545   24.7476 C   0  0  2  0  0  0  0  0  0  0  0  0
    6.4938  -15.2659   25.4091 C   0  0  0  0  0  0  0  0  0  0  0  0
    8.5415  -14.7799   24.1879 C   0  0  2  0  0  0  0  0  0  0  0  0
    8.2533  -15.5281   22.9935 N   0  0  0  0  0  0  0  0  0  0  0  0
    9.1872  -15.6626   25.1827 C   0  0  0  0  0  0  0  0  0  0  0  0
    9.0713  -16.9097   25.0928 O   0  0  0  0  0  0  0  0  0  0  0  0
   10.1663  -13.2631   29.8981 C   0  0  0  0  0  0  0  0  0  0  0  0
   10.5543  -13.8784   28.5627 C   0  0  0  0  0  0  0  0  0  0  0  0
   10.4497  -15.3703   28.5857 C   0  0  2  0  0  0  0  0  0  0  0  0
   11.3539  -15.9893   29.6291 C   0  0  0  0  0  0  0  0  0  0  0  0
   10.5820  -16.0014   27.2467 C   0  0  2  0  0  0  0  0  0  0  0  0
    9.9440  -15.1233   26.2498 N   0  0  0  0  0  0  0  0  0  0  0  0
   10.0758  -17.3635   27.1079 C   0  0  0  0  0  0  0  0  0  0  0  0
    8.7202  -17.6177   27.1555 O   0  0  0  0  0  0  0  0  0  0  0  0
   10.8432  -18.3446   26.9431 O   0  0  0  0  0  0  0  0  0  0  0  0
  2  1  1  0
  3  4  1  6
  3  2  1  0
  5  3  1  0
  6  5  2  0
  8  9  1  0
  8  7  1  0
  9 11  1  0
  9 10  1  1
 11 13  1  0
 11 12  1  6
 12  5  1  0
 13 20  1  0
 14 13  2  0
 15 16  1  0
 17 19  1  0
 17 16  1  0
 17 18  1  1
 19 21  1  0
 19 20  1  6
 21 23  2  0
 21 22  1  0
M  END
$$$$
