SII.pdb
     RDKit          3D

 23 22  0  0  1  0  0  0  0  0999 V2000
    6.0556  -16.8930   20.3984 O   0  0  0  0  0  0  0  0  0  0  0  0
    7.0040  -16.6433   21.3648 C   0  0  0  0  0  0  0  0  0  0  0  0
    7.2086  -15.1306   21.4684 C   0  0  2  0  0  0  0  0  0  0  0  0
    7.9901  -14.6463   20.3492 N   0  0  0  0  0  0  0  0  0  0  0  0
    7.9350  -14.8231   22.7157 C   0  0  0  0  0  0  0  0  0  0  0  0
    9.1827  -14.8825   22.7423 O   0  0  0  0  0  0  0  0  0  0  0  0
    6.0440  -11.3512   26.4751 C   0  0  0  0  0  0  0  0  0  0  0  0
    7.0084  -12.0687   25.5719 C   0  0  0  0  0  0  0  0  0  0  0  0
    7.2439  -13.4566   26.1283 C   0  0  2  0  0  0  0  0  0  0  0  0
    8.1266  -13.3295   27.3481 C   0  0  0  0  0  0  0  0  0  0  0  0
    7.9920  -14.3272   25.1329 C   0  0  2  0  0  0  0  0  0  0  0  0
    7.2464  -14.4548   23.9093 N   0  0  0  0  0  0  0  0  0  0  0  0
    8.2613  -15.6690   25.6921 C   0  0  0  0  0  0  0  0  0  0  0  0
    7.3108  -16.4198   26.0232 O   0  0  0  0  0  0  0  0  0  0  0  0
   12.9834  -18.4015   24.2894 C   0  0  0  0  0  0  0  0  0  0  0  0
   12.1377  -17.6860   25.3312 C   0  0  0  0  0  0  0  0  0  0  0  0
   10.7262  -18.1807   25.3378 C   0  0  2  0  0  0  0  0  0  0  0  0
   10.1271  -18.2141   23.9489 C   0  0  0  0  0  0  0  0  0  0  0  0
    9.8575  -17.5020   26.3347 C   0  0  2  0  0  0  0  0  0  0  0  0
    9.5875  -16.1315   25.8646 N   0  0  0  0  0  0  0  0  0  0  0  0
   10.3371  -17.4709   27.7130 C   0  0  0  0  0  0  0  0  0  0  0  0
   10.4313  -18.6334   28.4507 O   0  0  0  0  0  0  0  0  0  0  0  0
   10.6772  -16.3998   28.2748 O   0  0  0  0  0  0  0  0  0  0  0  0
  2  1  1  0
  3  4  1  6
  3  2  1  0
  5  3  1  0
  6  5  2  0
  8  9  1  0
  8  7  1  0
  9 11  1  0
  9 10  1  1
 11 13  1  0
 11 12  1  6
 12  5  1  0
 13 20  1  0
 14 13  2  0
 15 16  1  0
 17 19  1  0
 17 16  1  0
 17 18  1  6
 19 21  1  0
 19 20  1  6
 21 23  2  0
 21 22  1  0
M  END
$$$$
