SII.pdb
     RDKit          3D

 23 22  0  0  1  0  0  0  0  0999 V2000
    8.7502  -17.8511   20.3747 O   0  0  0  0  0  0  0  0  0  0  0  0
    7.9071  -17.2954   21.3107 C   0  0  0  0  0  0  0  0  0  0  0  0
    7.9390  -15.7737   21.1539 C   0  0  2  0  0  0  0  0  0  0  0  0
    8.8149  -15.3939   20.0647 N   0  0  0  0  0  0  0  0  0  0  0  0
    8.4490  -15.1678   22.3991 C   0  0  0  0  0  0  0  0  0  0  0  0
    9.6496  -14.8322   22.4839 O   0  0  0  0  0  0  0  0  0  0  0  0
    5.4187  -11.9742   25.7159 C   0  0  0  0  0  0  0  0  0  0  0  0
    6.4890  -12.5717   24.8452 C   0  0  0  0  0  0  0  0  0  0  0  0
    7.1051  -13.7435   25.5792 C   0  0  2  0  0  0  0  0  0  0  0  0
    7.7958  -13.2131   26.8139 C   0  0  0  0  0  0  0  0  0  0  0  0
    8.1717  -14.4203   24.7350 C   0  0  2  0  0  0  0  0  0  0  0  0
    7.6014  -14.9503   23.5254 N   0  0  0  0  0  0  0  0  0  0  0  0
    8.8396  -15.5049   25.4855 C   0  0  0  0  0  0  0  0  0  0  0  0
    8.4471  -16.6918   25.3674 O   0  0  0  0  0  0  0  0  0  0  0  0
   11.2224  -14.7611   30.5206 C   0  0  0  0  0  0  0  0  0  0  0  0
   10.4441  -15.3469   29.3530 C   0  0  0  0  0  0  0  0  0  0  0  0
   11.3435  -15.7327   28.2219 C   0  0  2  0  0  0  0  0  0  0  0  0
   12.2921  -14.6170   27.8416 C   0  0  0  0  0  0  0  0  0  0  0  0
   10.6267  -16.3149   27.0574 C   0  0  2  0  0  0  0  0  0  0  0  0
    9.9280  -15.2292   26.3468 N   0  0  0  0  0  0  0  0  0  0  0  0
    9.6990  -17.4074   27.3344 C   0  0  0  0  0  0  0  0  0  0  0  0
    8.3354  -17.2001   27.2887 O   0  0  0  0  0  0  0  0  0  0  0  0
   10.0994  -18.5630   27.6222 O   0  0  0  0  0  0  0  0  0  0  0  0
  2  1  1  0
  3  4  1  6
  3  2  1  0
  5  3  1  0
  6  5  2  0
  8  9  1  0
  8  7  1  0
  9 11  1  0
  9 10  1  1
 11 13  1  0
 11 12  1  6
 12  5  1  0
 13 20  1  0
 14 13  2  0
 15 16  1  0
 17 19  1  0
 17 16  1  0
 17 18  1  6
 19 21  1  0
 19 20  1  1
 21 23  2  0
 21 22  1  0
M  END
$$$$
