SII.pdb
     RDKit          3D

 23 22  0  0  1  0  0  0  0  0999 V2000
    8.0477  -17.6470   22.0992 O   0  0  0  0  0  0  0  0  0  0  0  0
    7.0394  -16.7901   21.7186 C   0  0  0  0  0  0  0  0  0  0  0  0
    7.5981  -15.3663   21.6787 C   0  0  2  0  0  0  0  0  0  0  0  0
    8.5821  -15.2365   20.6239 N   0  0  0  0  0  0  0  0  0  0  0  0
    8.2498  -15.0641   22.9679 C   0  0  0  0  0  0  0  0  0  0  0  0
    9.4927  -15.1379   23.0715 O   0  0  0  0  0  0  0  0  0  0  0  0
    5.6913  -11.5578   26.3346 C   0  0  0  0  0  0  0  0  0  0  0  0
    6.6681  -12.2575   25.4307 C   0  0  0  0  0  0  0  0  0  0  0  0
    7.2681  -13.4245   26.1852 C   0  0  2  0  0  0  0  0  0  0  0  0
    8.1191  -12.8716   27.3047 C   0  0  0  0  0  0  0  0  0  0  0  0
    8.1897  -14.2392   25.2933 C   0  0  2  0  0  0  0  0  0  0  0  0
    7.4934  -14.6848   24.1161 N   0  0  0  0  0  0  0  0  0  0  0  0
    8.7399  -15.4057   26.0159 C   0  0  0  0  0  0  0  0  0  0  0  0
    7.9838  -16.3401   26.3792 O   0  0  0  0  0  0  0  0  0  0  0  0
   14.4182  -16.2581   26.1285 C   0  0  0  0  0  0  0  0  0  0  0  0
   13.0725  -15.9717   26.7762 C   0  0  0  0  0  0  0  0  0  0  0  0
   12.0283  -16.9533   26.3481 C   0  0  2  0  0  0  0  0  0  0  0  0
   11.9944  -17.1310   24.8459 C   0  0  0  0  0  0  0  0  0  0  0  0
   10.6883  -16.6991   26.9386 C   0  0  2  0  0  0  0  0  0  0  0  0
   10.1212  -15.4923   26.3110 N   0  0  0  0  0  0  0  0  0  0  0  0
   10.6204  -16.5841   28.3922 C   0  0  0  0  0  0  0  0  0  0  0  0
   10.2442  -15.3967   28.9863 O   0  0  0  0  0  0  0  0  0  0  0  0
   10.8987  -17.5475   29.1492 O   0  0  0  0  0  0  0  0  0  0  0  0
  2  1  1  0
  3  4  1  6
  3  2  1  0
  5  3  1  0
  6  5  2  0
  8  9  1  0
  8  7  1  0
  9 11  1  0
  9 10  1  1
 11 13  1  0
 11 12  1  6
 12  5  1  0
 13 20  1  0
 14 13  2  0
 15 16  1  0
 17 19  1  0
 17 16  1  0
 17 18  1  6
 19 21  1  0
 19 20  1  6
 21 23  2  0
 21 22  1  0
M  END
$$$$
