SII.pdb
     RDKit          3D

 23 22  0  0  1  0  0  0  0  0999 V2000
    8.0241  -19.0038   22.3183 O   0  0  0  0  0  0  0  0  0  0  0  0
    8.4105  -19.4398   21.0708 C   0  0  0  0  0  0  0  0  0  0  0  0
    7.9988  -18.3892   20.0375 C   0  0  2  0  0  0  0  0  0  0  0  0
    8.3890  -18.8062   18.7065 N   0  0  0  0  0  0  0  0  0  0  0  0
    8.6741  -17.1138   20.3462 C   0  0  0  0  0  0  0  0  0  0  0  0
    9.8721  -16.9495   20.0315 O   0  0  0  0  0  0  0  0  0  0  0  0
    6.6593  -12.5458   18.8403 C   0  0  0  0  0  0  0  0  0  0  0  0
    7.6527  -13.6112   19.2129 C   0  0  0  0  0  0  0  0  0  0  0  0
    7.7821  -13.6394   20.7208 C   0  0  2  0  0  0  0  0  0  0  0  0
    8.4645  -12.3639   21.1570 C   0  0  0  0  0  0  0  0  0  0  0  0
    8.6666  -14.7886   21.1741 C   0  0  2  0  0  0  0  0  0  0  0  0
    7.9914  -16.0472   21.0025 N   0  0  0  0  0  0  0  0  0  0  0  0
    9.0677  -14.6295   22.5882 C   0  0  0  0  0  0  0  0  0  0  0  0
    9.9347  -13.7796   22.9089 O   0  0  0  0  0  0  0  0  0  0  0  0
    6.1074  -12.7173   25.9201 C   0  0  0  0  0  0  0  0  0  0  0  0
    7.2745  -13.3162   25.1510 C   0  0  0  0  0  0  0  0  0  0  0  0
    7.7103  -14.6245   25.7304 C   0  0  2  0  0  0  0  0  0  0  0  0
    7.9107  -14.5465   27.2280 C   0  0  0  0  0  0  0  0  0  0  0  0
    8.8577  -15.2437   25.0170 C   0  0  2  0  0  0  0  0  0  0  0  0
    8.4864  -15.4267   23.6026 N   0  0  0  0  0  0  0  0  0  0  0  0
    9.3745  -16.4951   25.5627 C   0  0  0  0  0  0  0  0  0  0  0  0
   10.3061  -16.4862   26.5808 O   0  0  0  0  0  0  0  0  0  0  0  0
    8.9977  -17.6140   25.1327 O   0  0  0  0  0  0  0  0  0  0  0  0
  2  1  1  0
  3  4  1  6
  3  2  1  0
  5  3  1  0
  6  5  2  0
  8  9  1  0
  8  7  1  0
  9 11  1  0
  9 10  1  6
 11 13  1  0
 11 12  1  1
 12  5  1  0
 13 20  1  0
 14 13  2  0
 15 16  1  0
 17 19  1  0
 17 16  1  0
 17 18  1  1
 19 21  1  0
 19 20  1  6
 21 23  2  0
 21 22  1  0
M  END
$$$$
