SII.pdb
     RDKit          3D

 23 22  0  0  1  0  0  0  0  0999 V2000
   11.4056  -19.0300   22.0008 O   0  0  0  0  0  0  0  0  0  0  0  0
   10.5449  -18.9782   20.9273 C   0  0  0  0  0  0  0  0  0  0  0  0
   10.8849  -17.7448   20.0882 C   0  0  2  0  0  0  0  0  0  0  0  0
   12.3147  -17.6538   19.8758 N   0  0  0  0  0  0  0  0  0  0  0  0
   10.4389  -16.5332   20.8031 C   0  0  0  0  0  0  0  0  0  0  0  0
   11.2779  -15.7886   21.3533 O   0  0  0  0  0  0  0  0  0  0  0  0
    6.6627  -13.1445   18.9538 C   0  0  0  0  0  0  0  0  0  0  0  0
    7.8848  -13.7582   19.5788 C   0  0  0  0  0  0  0  0  0  0  0  0
    7.5029  -14.3112   20.9352 C   0  0  2  0  0  0  0  0  0  0  0  0
    7.1074  -13.1519   21.8200 C   0  0  0  0  0  0  0  0  0  0  0  0
    8.6860  -14.9910   21.6035 C   0  0  2  0  0  0  0  0  0  0  0  0
    9.0593  -16.1809   20.8866 N   0  0  0  0  0  0  0  0  0  0  0  0
    8.3823  -15.3333   23.0093 C   0  0  0  0  0  0  0  0  0  0  0  0
    8.2172  -16.5311   23.3482 O   0  0  0  0  0  0  0  0  0  0  0  0
    7.1858  -12.3344   28.3306 C   0  0  0  0  0  0  0  0  0  0  0  0
    7.6393  -13.6065   27.6316 C   0  0  0  0  0  0  0  0  0  0  0  0
    7.6374  -13.4550   26.1435 C   0  0  2  0  0  0  0  0  0  0  0  0
    6.3253  -12.9057   25.6279 C   0  0  0  0  0  0  0  0  0  0  0  0
    8.0905  -14.6696   25.4165 C   0  0  2  0  0  0  0  0  0  0  0  0
    8.2721  -14.3243   23.9954 N   0  0  0  0  0  0  0  0  0  0  0  0
    7.2540  -15.8597   25.5376 C   0  0  0  0  0  0  0  0  0  0  0  0
    7.5446  -16.8306   26.4744 O   0  0  0  0  0  0  0  0  0  0  0  0
    6.2513  -16.0453   24.8036 O   0  0  0  0  0  0  0  0  0  0  0  0
  2  1  1  0
  3  4  1  1
  3  2  1  0
  5  3  1  0
  6  5  2  0
  8  9  1  0
  8  7  1  0
  9 11  1  0
  9 10  1  1
 11 13  1  0
 11 12  1  6
 12  5  1  0
 13 20  1  0
 14 13  2  0
 15 16  1  0
 17 19  1  0
 17 16  1  0
 17 18  1  6
 19 21  1  0
 19 20  1  6
 21 23  2  0
 21 22  1  0
M  END
$$$$
