SII.pdb
     RDKit          3D

 23 22  0  0  1  0  0  0  0  0999 V2000
    5.8278  -20.4506   26.4372 O   0  0  0  0  0  0  0  0  0  0  0  0
    6.8740  -19.8519   25.7718 C   0  0  0  0  0  0  0  0  0  0  0  0
    6.3659  -19.3422   24.4216 C   0  0  2  0  0  0  0  0  0  0  0  0
    6.1235  -20.4492   23.5197 N   0  0  0  0  0  0  0  0  0  0  0  0
    7.3860  -18.4617   23.8199 C   0  0  0  0  0  0  0  0  0  0  0  0
    8.2409  -18.9370   23.0426 O   0  0  0  0  0  0  0  0  0  0  0  0
    6.5806  -13.8032   21.3464 C   0  0  0  0  0  0  0  0  0  0  0  0
    7.2209  -15.1135   21.7118 C   0  0  0  0  0  0  0  0  0  0  0  0
    7.9443  -14.9422   23.0304 C   0  0  2  0  0  0  0  0  0  0  0  0
    9.1376  -14.0451   22.7977 C   0  0  0  0  0  0  0  0  0  0  0  0
    8.4837  -16.2692   23.5369 C   0  0  2  0  0  0  0  0  0  0  0  0
    7.4267  -17.0642   24.1026 N   0  0  0  0  0  0  0  0  0  0  0  0
    9.5455  -16.0654   24.5452 C   0  0  0  0  0  0  0  0  0  0  0  0
   10.5715  -15.4003   24.2591 O   0  0  0  0  0  0  0  0  0  0  0  0
    8.5558  -13.6070   28.9198 C   0  0  0  0  0  0  0  0  0  0  0  0
    8.7825  -14.9400   28.2241 C   0  0  0  0  0  0  0  0  0  0  0  0
   10.0722  -14.9607   27.4669 C   0  0  2  0  0  0  0  0  0  0  0  0
   10.1587  -13.8373   26.4572 C   0  0  0  0  0  0  0  0  0  0  0  0
   10.4106  -16.2901   26.8950 C   0  0  2  0  0  0  0  0  0  0  0  0
    9.4278  -16.6122   25.8450 N   0  0  0  0  0  0  0  0  0  0  0  0
   10.5197  -17.4024   27.8340 C   0  0  0  0  0  0  0  0  0  0  0  0
    9.7291  -18.5242   27.6894 O   0  0  0  0  0  0  0  0  0  0  0  0
   11.3254  -17.3824   28.7978 O   0  0  0  0  0  0  0  0  0  0  0  0
  2  1  1  0
  3  4  1  6
  3  2  1  0
  5  3  1  0
  6  5  2  0
  8  9  1  0
  8  7  1  0
  9 11  1  0
  9 10  1  6
 11 13  1  0
 11 12  1  1
 12  5  1  0
 13 20  1  0
 14 13  2  0
 15 16  1  0
 17 19  1  0
 17 16  1  0
 17 18  1  6
 19 21  1  0
 19 20  1  6
 21 23  2  0
 21 22  1  0
M  END
$$$$
