GMF.pdb
     RDKit          3D

 24 24  0  0  1  0  0  0  0  0999 V2000
   31.5653  -22.2387  -10.4541 N   0  0  0  0  0  0  0  0  0  0  0  0
   30.8587  -21.0170  -10.1309 C   0  0  0  0  0  0  0  0  0  0  0  0
   29.6709  -21.3180   -9.2582 C   0  0  0  0  0  0  0  0  0  0  0  0
   29.1878  -22.4704   -9.1623 O   0  0  0  0  0  0  0  0  0  0  0  0
   26.8845  -20.0081   -3.7223 C   0  0  0  0  0  0  0  0  0  0  0  0
   28.6399  -19.6068   -3.9304 S   0  0  0  0  0  0  0  0  0  0  0  0
   29.0772  -20.0712   -5.6532 C   0  0  0  0  0  0  0  0  0  0  0  0
   27.9381  -19.6519   -6.5214 C   0  0  0  0  0  0  0  0  0  0  0  0
   27.8109  -20.4265   -7.7968 C   0  0  2  0  0  0  0  0  0  0  0  0
   29.0647  -20.2876   -8.5153 N   0  0  0  0  0  0  0  0  0  0  0  0
   26.6905  -19.9748   -8.6608 C   0  0  0  0  0  0  0  0  0  0  0  0
   26.6056  -18.8061   -9.1085 O   0  0  0  0  0  0  0  0  0  0  0  0
   25.6567  -20.8804   -9.0121 N   0  0  0  0  0  0  0  0  0  0  0  0
   24.7346  -20.5099  -10.0722 C   0  0  1  0  0  0  0  0  0  0  0  0
   25.2131  -21.2162  -11.3305 C   0  0  0  0  0  0  0  0  0  0  0  0
   24.3390  -20.9725  -12.5009 C   0  0  0  0  0  0  0  0  0  0  0  0
   23.4551  -21.9491  -12.9029 C   0  0  0  0  0  0  0  0  0  0  0  0
   22.6029  -21.7940  -13.9818 C   0  0  0  0  0  0  0  0  0  0  0  0
   22.6547  -20.5958  -14.6774 C   0  0  0  0  0  0  0  0  0  0  0  0
   23.5323  -19.6150  -14.2852 C   0  0  0  0  0  0  0  0  0  0  0  0
   24.3903  -19.7812  -13.1926 C   0  0  0  0  0  0  0  0  0  0  0  0
   23.3392  -20.8234   -9.7295 C   0  0  0  0  0  0  0  0  0  0  0  0
   23.0327  -21.6982   -8.8509 O   0  0  0  0  0  0  0  0  0  0  0  0
   22.2703  -20.1873  -10.3390 O   0  0  0  0  0  0  0  0  0  0  0  0
  2  3  1  0
  2  1  1  0
  3 10  1  0
  4  3  2  0
  6  7  1  0
  6  5  1  0
  7  8  1  0
  9  8  1  1
  9 11  1  0
 10  9  1  0
 11 13  1  0
 11 12  2  0
 13 14  1  0
 14 15  1  6
 14 22  1  0
 16 21  2  0
 16 15  1  0
 17 16  1  0
 18 19  1  0
 18 17  2  0
 19 20  2  0
 20 21  1  0
 22 24  1  0
 23 22  2  0
M  END
$$$$
