GMF.pdb
     RDKit          3D

 24 24  0  0  1  0  0  0  0  0999 V2000
   37.7564  -38.0101   -4.4175 N   0  0  0  0  0  0  0  0  0  0  0  0
   37.6241  -37.0112   -3.3779 C   0  0  0  0  0  0  0  0  0  0  0  0
   36.4347  -37.3179   -2.5095 C   0  0  0  0  0  0  0  0  0  0  0  0
   35.6209  -38.2290   -2.7894 O   0  0  0  0  0  0  0  0  0  0  0  0
   35.1480  -37.8442    4.8965 C   0  0  0  0  0  0  0  0  0  0  0  0
   35.7017  -36.6904    3.6128 S   0  0  0  0  0  0  0  0  0  0  0  0
   35.0649  -37.3440    2.0185 C   0  0  0  0  0  0  0  0  0  0  0  0
   35.5599  -36.4342    0.9441 C   0  0  0  0  0  0  0  0  0  0  0  0
   35.0925  -36.7878   -0.4340 C   0  0  2  0  0  0  0  0  0  0  0  0
   36.2069  -36.5706   -1.3388 N   0  0  0  0  0  0  0  0  0  0  0  0
   33.9214  -35.9959   -0.8892 C   0  0  0  0  0  0  0  0  0  0  0  0
   33.9932  -34.7752   -1.1689 O   0  0  0  0  0  0  0  0  0  0  0  0
   32.6536  -36.6181   -1.0229 N   0  0  0  0  0  0  0  0  0  0  0  0
   31.5123  -35.8027   -1.4019 C   0  0  1  0  0  0  0  0  0  0  0  0
   31.0217  -36.3365   -2.7382 C   0  0  0  0  0  0  0  0  0  0  0  0
   30.8726  -35.2806   -3.7657 C   0  0  0  0  0  0  0  0  0  0  0  0
   31.9547  -34.9326   -4.5433 C   0  0  0  0  0  0  0  0  0  0  0  0
   31.8928  -33.9610   -5.5264 C   0  0  0  0  0  0  0  0  0  0  0  0
   30.6795  -33.3197   -5.7237 C   0  0  0  0  0  0  0  0  0  0  0  0
   29.5939  -33.6587   -4.9540 C   0  0  0  0  0  0  0  0  0  0  0  0
   29.6663  -34.6428   -3.9620 C   0  0  0  0  0  0  0  0  0  0  0  0
   30.4684  -35.7923   -0.3661 C   0  0  0  0  0  0  0  0  0  0  0  0
   30.4417  -36.6456    0.5839 O   0  0  0  0  0  0  0  0  0  0  0  0
   29.4490  -34.8546   -0.3570 O   0  0  0  0  0  0  0  0  0  0  0  0
  2  3  1  0
  2  1  1  0
  3 10  1  0
  4  3  2  0
  6  7  1  0
  6  5  1  0
  7  8  1  0
  9  8  1  1
  9 11  1  0
 10  9  1  0
 11 13  1  0
 11 12  2  0
 13 14  1  0
 14 15  1  6
 14 22  1  0
 16 21  2  0
 16 15  1  0
 17 16  1  0
 18 19  1  0
 18 17  2  0
 19 20  2  0
 20 21  1  0
 22 24  1  0
 23 22  2  0
M  END
$$$$
