GMF.pdb
     RDKit          3D

 24 24  0  0  1  0  0  0  0  0999 V2000
   41.9985  -23.5962    4.2220 N   0  0  0  0  0  0  0  0  0  0  0  0
   41.3407  -23.1010    5.4130 C   0  0  0  0  0  0  0  0  0  0  0  0
   40.2670  -24.0593    5.8511 C   0  0  0  0  0  0  0  0  0  0  0  0
   39.9697  -25.0786    5.1854 O   0  0  0  0  0  0  0  0  0  0  0  0
   39.4345  -28.1111   10.6746 C   0  0  0  0  0  0  0  0  0  0  0  0
   38.4563  -26.6382   11.0739 S   0  0  0  0  0  0  0  0  0  0  0  0
   37.7650  -26.0283    9.4849 C   0  0  0  0  0  0  0  0  0  0  0  0
   38.8018  -25.1523    8.8647 C   0  0  0  0  0  0  0  0  0  0  0  0
   38.4446  -24.6323    7.5065 C   0  0  2  0  0  0  0  0  0  0  0  0
   39.5589  -23.8245    7.0446 N   0  0  0  0  0  0  0  0  0  0  0  0
   37.2007  -23.8210    7.4856 C   0  0  0  0  0  0  0  0  0  0  0  0
   37.1596  -22.6291    7.8746 O   0  0  0  0  0  0  0  0  0  0  0  0
   35.9909  -24.3903    7.0116 N   0  0  0  0  0  0  0  0  0  0  0  0
   34.7831  -23.5830    7.0354 C   0  0  1  0  0  0  0  0  0  0  0  0
   34.1032  -23.7787    5.6897 C   0  0  0  0  0  0  0  0  0  0  0  0
   33.6278  -22.5110    5.0898 C   0  0  0  0  0  0  0  0  0  0  0  0
   32.4985  -21.9038    5.5926 C   0  0  0  0  0  0  0  0  0  0  0  0
   31.9960  -20.7167    5.0899 C   0  0  0  0  0  0  0  0  0  0  0  0
   32.6722  -20.1264    4.0332 C   0  0  0  0  0  0  0  0  0  0  0  0
   33.7994  -20.7231    3.5240 C   0  0  0  0  0  0  0  0  0  0  0  0
   34.2999  -21.9238    4.0392 C   0  0  0  0  0  0  0  0  0  0  0  0
   33.9147  -23.9158    8.1746 C   0  0  0  0  0  0  0  0  0  0  0  0
   33.9523  -25.0550    8.7508 O   0  0  0  0  0  0  0  0  0  0  0  0
   33.0021  -23.0124    8.6938 O   0  0  0  0  0  0  0  0  0  0  0  0
  2  3  1  0
  2  1  1  0
  3 10  1  0
  4  3  2  0
  6  7  1  0
  6  5  1  0
  7  8  1  0
  9  8  1  1
  9 11  1  0
 10  9  1  0
 11 13  1  0
 11 12  2  0
 13 14  1  0
 14 15  1  6
 14 22  1  0
 16 21  2  0
 16 15  1  0
 17 16  1  0
 18 19  1  0
 18 17  2  0
 19 20  2  0
 20 21  1  0
 22 24  1  0
 23 22  2  0
M  END
$$$$
