GMF.pdb
     RDKit          3D

 24 24  0  0  1  0  0  0  0  0999 V2000
   27.5919  -16.3812  -14.6619 N   0  0  0  0  0  0  0  0  0  0  0  0
   27.8791  -17.7991  -14.6052 C   0  0  0  0  0  0  0  0  0  0  0  0
   26.8721  -18.4997  -13.7345 C   0  0  0  0  0  0  0  0  0  0  0  0
   25.7836  -17.9686  -13.4125 O   0  0  0  0  0  0  0  0  0  0  0  0
   24.7968  -23.5435  -15.4953 C   0  0  0  0  0  0  0  0  0  0  0  0
   24.7329  -24.1854  -13.8013 S   0  0  0  0  0  0  0  0  0  0  0  0
   24.8859  -22.7309  -12.6896 C   0  0  0  0  0  0  0  0  0  0  0  0
   25.9420  -21.8486  -13.2669 C   0  0  0  0  0  0  0  0  0  0  0  0
   26.1966  -20.5938  -12.4901 C   0  0  2  0  0  0  0  0  0  0  0  0
   27.1387  -19.7952  -13.2531 N   0  0  0  0  0  0  0  0  0  0  0  0
   26.7377  -20.8339  -11.1280 C   0  0  0  0  0  0  0  0  0  0  0  0
   27.9300  -21.1623  -10.9181 O   0  0  0  0  0  0  0  0  0  0  0  0
   25.8949  -20.6941   -9.9955 N   0  0  0  0  0  0  0  0  0  0  0  0
   26.4598  -20.9081   -8.6742 C   0  0  1  0  0  0  0  0  0  0  0  0
   27.2436  -19.6522   -8.3282 C   0  0  0  0  0  0  0  0  0  0  0  0
   27.7543  -19.6512   -6.9381 C   0  0  0  0  0  0  0  0  0  0  0  0
   27.2406  -18.7553   -6.0270 C   0  0  0  0  0  0  0  0  0  0  0  0
   27.6617  -18.6969   -4.7104 C   0  0  0  0  0  0  0  0  0  0  0  0
   28.6453  -19.5874   -4.3079 C   0  0  0  0  0  0  0  0  0  0  0  0
   29.1646  -20.4852   -5.2081 C   0  0  0  0  0  0  0  0  0  0  0  0
   28.7321  -20.5365   -6.5377 C   0  0  0  0  0  0  0  0  0  0  0  0
   25.4310  -21.2394   -7.6770 C   0  0  0  0  0  0  0  0  0  0  0  0
   24.2076  -20.9020   -7.8213 O   0  0  0  0  0  0  0  0  0  0  0  0
   25.7260  -21.9395   -6.5188 O   0  0  0  0  0  0  0  0  0  0  0  0
  2  3  1  0
  2  1  1  0
  3 10  1  0
  4  3  2  0
  6  7  1  0
  6  5  1  0
  7  8  1  0
  9  8  1  6
  9 11  1  0
 10  9  1  0
 11 13  1  0
 11 12  2  0
 13 14  1  0
 14 15  1  1
 14 22  1  0
 16 21  2  0
 16 15  1  0
 17 16  1  0
 18 19  1  0
 18 17  2  0
 19 20  2  0
 20 21  1  0
 22 24  1  0
 23 22  2  0
M  END
$$$$
