GMF.pdb
     RDKit          3D

 24 24  0  0  1  0  0  0  0  0999 V2000
   28.2335  -17.9028  -17.3219 N   0  0  0  0  0  0  0  0  0  0  0  0
   27.4744  -17.9851  -16.0917 C   0  0  0  0  0  0  0  0  0  0  0  0
   27.4583  -19.4009  -15.5837 C   0  0  0  0  0  0  0  0  0  0  0  0
   27.2792  -20.3811  -16.3438 O   0  0  0  0  0  0  0  0  0  0  0  0
   30.5036  -22.3204  -10.3555 C   0  0  0  0  0  0  0  0  0  0  0  0
   30.7641  -20.6839  -11.0903 S   0  0  0  0  0  0  0  0  0  0  0  0
   29.8766  -20.6905  -12.6988 C   0  0  0  0  0  0  0  0  0  0  0  0
   28.4427  -20.9820  -12.4057 C   0  0  0  0  0  0  0  0  0  0  0  0
   27.5487  -20.9742  -13.6071 C   0  0  2  0  0  0  0  0  0  0  0  0
   27.6484  -19.6587  -14.2131 N   0  0  0  0  0  0  0  0  0  0  0  0
   26.1272  -21.2713  -13.2959 C   0  0  0  0  0  0  0  0  0  0  0  0
   25.7528  -22.3623  -12.8027 O   0  0  0  0  0  0  0  0  0  0  0  0
   25.1265  -20.3003  -13.5566 N   0  0  0  0  0  0  0  0  0  0  0  0
   23.7627  -20.5731  -13.1360 C   0  0  1  0  0  0  0  0  0  0  0  0
   23.4264  -19.5503  -12.0627 C   0  0  0  0  0  0  0  0  0  0  0  0
   23.9692  -19.9060  -10.7315 C   0  0  0  0  0  0  0  0  0  0  0  0
   23.2007  -20.6465   -9.8610 C   0  0  0  0  0  0  0  0  0  0  0  0
   23.6395  -21.0225   -8.6039 C   0  0  0  0  0  0  0  0  0  0  0  0
   24.9120  -20.6277   -8.2203 C   0  0  0  0  0  0  0  0  0  0  0  0
   25.6870  -19.8891   -9.0803 C   0  0  0  0  0  0  0  0  0  0  0  0
   25.2344  -19.5136  -10.3499 C   0  0  0  0  0  0  0  0  0  0  0  0
   22.8196  -20.5570  -14.2643 C   0  0  0  0  0  0  0  0  0  0  0  0
   21.5827  -20.8425  -14.1233 O   0  0  0  0  0  0  0  0  0  0  0  0
   23.2154  -20.2301  -15.5507 O   0  0  0  0  0  0  0  0  0  0  0  0
  2  3  1  0
  2  1  1  0
  3 10  1  0
  4  3  2  0
  6  7  1  0
  6  5  1  0
  7  8  1  0
  9  8  1  1
  9 11  1  0
 10  9  1  0
 11 13  1  0
 11 12  2  0
 13 14  1  0
 14 15  1  1
 14 22  1  0
 16 21  2  0
 16 15  1  0
 17 16  1  0
 18 19  1  0
 18 17  2  0
 19 20  2  0
 20 21  1  0
 22 24  1  0
 23 22  2  0
M  END
$$$$
