GMF.pdb
     RDKit          3D

 24 24  0  0  1  0  0  0  0  0999 V2000
   24.4035  -24.5095  -15.0804 N   0  0  0  0  0  0  0  0  0  0  0  0
   23.8920  -23.8402  -13.9029 C   0  0  0  0  0  0  0  0  0  0  0  0
   24.9857  -23.0513  -13.2362 C   0  0  0  0  0  0  0  0  0  0  0  0
   25.9529  -23.6042  -12.6623 O   0  0  0  0  0  0  0  0  0  0  0  0
   28.5153  -19.0615  -15.1150 C   0  0  0  0  0  0  0  0  0  0  0  0
   27.5806  -17.7224  -14.3282 S   0  0  0  0  0  0  0  0  0  0  0  0
   26.8274  -18.4368  -12.8126 C   0  0  0  0  0  0  0  0  0  0  0  0
   25.8068  -19.4302  -13.2582 C   0  0  0  0  0  0  0  0  0  0  0  0
   25.9613  -20.7927  -12.6560 C   0  0  2  0  0  0  0  0  0  0  0  0
   24.9433  -21.6445  -13.2439 N   0  0  0  0  0  0  0  0  0  0  0  0
   25.8302  -20.8103  -11.1767 C   0  0  0  0  0  0  0  0  0  0  0  0
   24.7242  -20.9085  -10.5932 O   0  0  0  0  0  0  0  0  0  0  0  0
   26.9870  -20.7130  -10.3613 N   0  0  0  0  0  0  0  0  0  0  0  0
   26.8508  -20.9176   -8.9293 C   0  0  1  0  0  0  0  0  0  0  0  0
   28.2383  -20.7463   -8.3321 C   0  0  0  0  0  0  0  0  0  0  0  0
   28.2116  -20.2949   -6.9219 C   0  0  0  0  0  0  0  0  0  0  0  0
   27.8912  -18.9868   -6.6339 C   0  0  0  0  0  0  0  0  0  0  0  0
   27.8397  -18.4920   -5.3429 C   0  0  0  0  0  0  0  0  0  0  0  0
   28.1263  -19.3660   -4.3055 C   0  0  0  0  0  0  0  0  0  0  0  0
   28.4471  -20.6726   -4.5811 C   0  0  0  0  0  0  0  0  0  0  0  0
   28.4966  -21.1637   -5.8902 C   0  0  0  0  0  0  0  0  0  0  0  0
   25.8507  -20.0197   -8.3324 C   0  0  0  0  0  0  0  0  0  0  0  0
   25.1191  -20.3728   -7.3467 O   0  0  0  0  0  0  0  0  0  0  0  0
   25.6411  -18.7339   -8.8028 O   0  0  0  0  0  0  0  0  0  0  0  0
  2  3  1  0
  2  1  1  0
  3 10  1  0
  4  3  2  0
  6  7  1  0
  6  5  1  0
  7  8  1  0
  9  8  1  6
  9 11  1  0
 10  9  1  0
 11 13  1  0
 11 12  2  0
 13 14  1  0
 14 15  1  1
 14 22  1  0
 16 21  2  0
 16 15  1  0
 17 16  1  0
 18 19  1  0
 18 17  2  0
 19 20  2  0
 20 21  1  0
 22 24  1  0
 23 22  2  0
M  END
$$$$
