GMF.pdb
     RDKit          3D

 24 24  0  0  1  0  0  0  0  0999 V2000
   25.9891  -24.7551  -15.6577 N   0  0  0  0  0  0  0  0  0  0  0  0
   25.0775  -24.0559  -14.7766 C   0  0  0  0  0  0  0  0  0  0  0  0
   25.7831  -22.9139  -14.0976 C   0  0  0  0  0  0  0  0  0  0  0  0
   26.9815  -22.6339  -14.3345 O   0  0  0  0  0  0  0  0  0  0  0  0
   25.7428  -16.9381  -13.4376 C   0  0  0  0  0  0  0  0  0  0  0  0
   24.4317  -17.6578  -14.4617 S   0  0  0  0  0  0  0  0  0  0  0  0
   24.5996  -19.4812  -14.3129 C   0  0  0  0  0  0  0  0  0  0  0  0
   24.7217  -19.7916  -12.8584 C   0  0  0  0  0  0  0  0  0  0  0  0
   25.6448  -20.9272  -12.5406 C   0  0  2  0  0  0  0  0  0  0  0  0
   25.0955  -22.1191  -13.1613 N   0  0  0  0  0  0  0  0  0  0  0  0
   25.8236  -21.1625  -11.0851 C   0  0  0  0  0  0  0  0  0  0  0  0
   25.0252  -21.8499  -10.4043 O   0  0  0  0  0  0  0  0  0  0  0  0
   26.9348  -20.5986  -10.4071 N   0  0  0  0  0  0  0  0  0  0  0  0
   27.0191  -20.7439   -8.9639 C   0  0  1  0  0  0  0  0  0  0  0  0
   28.0942  -19.7780   -8.4922 C   0  0  0  0  0  0  0  0  0  0  0  0
   28.2164  -19.7208   -7.0174 C   0  0  0  0  0  0  0  0  0  0  0  0
   29.0051  -20.6426   -6.3655 C   0  0  0  0  0  0  0  0  0  0  0  0
   29.1737  -20.6506   -4.9923 C   0  0  0  0  0  0  0  0  0  0  0  0
   28.5118  -19.6801   -4.2557 C   0  0  0  0  0  0  0  0  0  0  0  0
   27.7228  -18.7559   -4.8954 C   0  0  0  0  0  0  0  0  0  0  0  0
   27.5584  -18.7560   -6.2848 C   0  0  0  0  0  0  0  0  0  0  0  0
   25.7211  -20.5285   -8.3070 C   0  0  0  0  0  0  0  0  0  0  0  0
   25.3321  -21.2356   -7.3171 O   0  0  0  0  0  0  0  0  0  0  0  0
   24.8400  -19.5435   -8.7218 O   0  0  0  0  0  0  0  0  0  0  0  0
  2  3  1  0
  2  1  1  0
  3 10  1  0
  4  3  2  0
  6  7  1  0
  6  5  1  0
  7  8  1  0
  9  8  1  1
  9 11  1  0
 10  9  1  0
 11 13  1  0
 11 12  2  0
 13 14  1  0
 14 15  1  1
 14 22  1  0
 16 21  2  0
 16 15  1  0
 17 16  1  0
 18 19  1  0
 18 17  2  0
 19 20  2  0
 20 21  1  0
 22 24  1  0
 23 22  2  0
M  END
$$$$
