GMF.pdb
     RDKit          3D

 24 24  0  0  1  0  0  0  0  0999 V2000
   27.8482  -20.4472  -16.2395 N   0  0  0  0  0  0  0  0  0  0  0  0
   27.5650  -19.7957  -14.9780 C   0  0  0  0  0  0  0  0  0  0  0  0
   26.7666  -20.7089  -14.0882 C   0  0  0  0  0  0  0  0  0  0  0  0
   26.2241  -21.7535  -14.5182 O   0  0  0  0  0  0  0  0  0  0  0  0
   26.4896  -19.5870   -7.5972 C   0  0  0  0  0  0  0  0  0  0  0  0
   26.3721  -21.3856   -7.7898 S   0  0  0  0  0  0  0  0  0  0  0  0
   25.5050  -21.6812   -9.3821 C   0  0  0  0  0  0  0  0  0  0  0  0
   26.2679  -20.9520  -10.4372 C   0  0  0  0  0  0  0  0  0  0  0  0
   25.7212  -21.1120  -11.8222 C   0  0  2  0  0  0  0  0  0  0  0  0
   26.6095  -20.4009  -12.7238 N   0  0  0  0  0  0  0  0  0  0  0  0
   24.3368  -20.5982  -11.9810 C   0  0  0  0  0  0  0  0  0  0  0  0
   24.0486  -19.3808  -11.8895 O   0  0  0  0  0  0  0  0  0  0  0  0
   23.2730  -21.4979  -12.2479 N   0  0  0  0  0  0  0  0  0  0  0  0
   21.9701  -20.9555  -12.5934 C   0  0  1  0  0  0  0  0  0  0  0  0
   22.1943  -19.9850  -13.7419 C   0  0  0  0  0  0  0  0  0  0  0  0
   21.4477  -18.7158  -13.5834 C   0  0  0  0  0  0  0  0  0  0  0  0
   22.1185  -17.5170  -13.6816 C   0  0  0  0  0  0  0  0  0  0  0  0
   21.4905  -16.2912  -13.5511 C   0  0  0  0  0  0  0  0  0  0  0  0
   20.1249  -16.2885  -13.3111 C   0  0  0  0  0  0  0  0  0  0  0  0
   19.4459  -17.4780  -13.2114 C   0  0  0  0  0  0  0  0  0  0  0  0
   20.0900  -18.7130  -13.3449 C   0  0  0  0  0  0  0  0  0  0  0  0
   20.9956  -22.0102  -12.9109 C   0  0  0  0  0  0  0  0  0  0  0  0
   21.3179  -23.0651  -13.5549 O   0  0  0  0  0  0  0  0  0  0  0  0
   19.6668  -21.9244  -12.5297 O   0  0  0  0  0  0  0  0  0  0  0  0
  2  3  1  0
  2  1  1  0
  3 10  1  0
  4  3  2  0
  6  7  1  0
  6  5  1  0
  7  8  1  0
  9  8  1  1
  9 11  1  0
 10  9  1  0
 11 13  1  0
 11 12  2  0
 13 14  1  0
 14 15  1  6
 14 22  1  0
 16 21  2  0
 16 15  1  0
 17 16  1  0
 18 19  1  0
 18 17  2  0
 19 20  2  0
 20 21  1  0
 22 24  1  0
 23 22  2  0
M  END
$$$$
