GMF.pdb
     RDKit          3D

 24 24  0  0  1  0  0  0  0  0999 V2000
   28.8558  -22.6416  -15.9352 N   0  0  0  0  0  0  0  0  0  0  0  0
   27.6290  -22.9576  -15.2342 C   0  0  0  0  0  0  0  0  0  0  0  0
   27.2549  -21.8335  -14.3071 C   0  0  0  0  0  0  0  0  0  0  0  0
   28.0026  -20.8453  -14.1203 O   0  0  0  0  0  0  0  0  0  0  0  0
   21.3214  -21.3949  -12.9561 C   0  0  0  0  0  0  0  0  0  0  0  0
   21.6515  -19.7111  -12.3717 S   0  0  0  0  0  0  0  0  0  0  0  0
   23.4644  -19.6045  -12.0948 C   0  0  0  0  0  0  0  0  0  0  0  0
   24.0960  -20.6781  -12.9166 C   0  0  0  0  0  0  0  0  0  0  0  0
   25.5710  -20.8332  -12.7090 C   0  0  2  0  0  0  0  0  0  0  0  0
   26.0297  -21.8704  -13.6153 N   0  0  0  0  0  0  0  0  0  0  0  0
   25.9440  -21.1899  -11.3163 C   0  0  0  0  0  0  0  0  0  0  0  0
   25.7040  -22.3144  -10.8149 O   0  0  0  0  0  0  0  0  0  0  0  0
   26.6005  -20.2396  -10.4927 N   0  0  0  0  0  0  0  0  0  0  0  0
   26.8083  -20.5567   -9.0901 C   0  0  1  0  0  0  0  0  0  0  0  0
   27.8700  -19.5954   -8.5801 C   0  0  0  0  0  0  0  0  0  0  0  0
   28.1636  -19.7665   -7.1387 C   0  0  0  0  0  0  0  0  0  0  0  0
   27.2356  -19.3632   -6.2045 C   0  0  0  0  0  0  0  0  0  0  0  0
   27.4344  -19.4950   -4.8416 C   0  0  0  0  0  0  0  0  0  0  0  0
   28.6265  -20.0603   -4.4156 C   0  0  0  0  0  0  0  0  0  0  0  0
   29.5591  -20.4661   -5.3384 C   0  0  0  0  0  0  0  0  0  0  0  0
   29.3488  -20.3286   -6.7149 C   0  0  0  0  0  0  0  0  0  0  0  0
   25.5588  -20.5000   -8.3166 C   0  0  0  0  0  0  0  0  0  0  0  0
   24.6811  -19.5914   -8.5045 O   0  0  0  0  0  0  0  0  0  0  0  0
   25.2566  -21.4304   -7.3360 O   0  0  0  0  0  0  0  0  0  0  0  0
  2  3  1  0
  2  1  1  0
  3 10  1  0
  4  3  2  0
  6  7  1  0
  6  5  1  0
  7  8  1  0
  9  8  1  1
  9 11  1  0
 10  9  1  0
 11 13  1  0
 11 12  2  0
 13 14  1  0
 14 15  1  1
 14 22  1  0
 16 21  2  0
 16 15  1  0
 17 16  1  0
 18 19  1  0
 18 17  2  0
 19 20  2  0
 20 21  1  0
 22 24  1  0
 23 22  2  0
M  END
$$$$
