GMF.pdb
     RDKit          3D

 24 24  0  0  1  0  0  0  0  0999 V2000
   20.1380  -15.2864  -18.4394 N   0  0  0  0  0  0  0  0  0  0  0  0
   19.5651  -14.1470  -19.1249 C   0  0  0  0  0  0  0  0  0  0  0  0
   20.4433  -12.9383  -18.9492 C   0  0  0  0  0  0  0  0  0  0  0  0
   21.2857  -12.8537  -18.0252 O   0  0  0  0  0  0  0  0  0  0  0  0
   22.4792   -9.5469  -24.1664 C   0  0  0  0  0  0  0  0  0  0  0  0
   21.7620   -8.2782  -23.0886 S   0  0  0  0  0  0  0  0  0  0  0  0
   22.0012   -8.8666  -21.3648 C   0  0  0  0  0  0  0  0  0  0  0  0
   21.1348  -10.0689  -21.1892 C   0  0  0  0  0  0  0  0  0  0  0  0
   21.2125  -10.6981  -19.8324 C   0  0  2  0  0  0  0  0  0  0  0  0
   20.3336  -11.8536  -19.8394 N   0  0  0  0  0  0  0  0  0  0  0  0
   20.8238   -9.7851  -18.7274 C   0  0  0  0  0  0  0  0  0  0  0  0
   19.6294   -9.5772  -18.4053 O   0  0  0  0  0  0  0  0  0  0  0  0
   21.8231   -9.1039  -17.9859 N   0  0  0  0  0  0  0  0  0  0  0  0
   21.4156   -8.2653  -16.8715 C   0  0  1  0  0  0  0  0  0  0  0  0
   22.4447   -8.4736  -15.7721 C   0  0  0  0  0  0  0  0  0  0  0  0
   22.1926   -7.6387  -14.5753 C   0  0  0  0  0  0  0  0  0  0  0  0
   22.5535   -6.3096  -14.5866 C   0  0  0  0  0  0  0  0  0  0  0  0
   22.3458   -5.4649  -13.5108 C   0  0  0  0  0  0  0  0  0  0  0  0
   21.7464   -5.9970  -12.3794 C   0  0  0  0  0  0  0  0  0  0  0  0
   21.3824   -7.3210  -12.3571 C   0  0  0  0  0  0  0  0  0  0  0  0
   21.5967   -8.1675  -13.4503 C   0  0  0  0  0  0  0  0  0  0  0  0
   21.2661   -6.8556  -17.2626 C   0  0  0  0  0  0  0  0  0  0  0  0
   21.9978   -6.3154  -18.1593 O   0  0  0  0  0  0  0  0  0  0  0  0
   20.3207   -6.0263  -16.6821 O   0  0  0  0  0  0  0  0  0  0  0  0
  2  3  1  0
  2  1  1  0
  3 10  1  0
  4  3  2  0
  6  7  1  0
  6  5  1  0
  7  8  1  0
  9  8  1  6
  9 11  1  0
 10  9  1  0
 11 13  1  0
 11 12  2  0
 13 14  1  0
 14 15  1  1
 14 22  1  0
 16 21  2  0
 16 15  1  0
 17 16  1  0
 18 19  1  0
 18 17  2  0
 19 20  2  0
 20 21  1  0
 22 24  1  0
 23 22  2  0
M  END
$$$$
