GMF.pdb
     RDKit          3D

 24 24  0  0  1  0  0  0  0  0999 V2000
   17.8040  -15.1998  -16.3770 N   0  0  0  0  0  0  0  0  0  0  0  0
   17.5529  -14.0977  -17.2817 C   0  0  0  0  0  0  0  0  0  0  0  0
   18.7632  -13.2083  -17.3671 C   0  0  0  0  0  0  0  0  0  0  0  0
   19.7597  -13.3637  -16.6231 O   0  0  0  0  0  0  0  0  0  0  0  0
   18.5475  -11.0435  -22.7171 C   0  0  0  0  0  0  0  0  0  0  0  0
   19.5419  -12.4039  -22.0491 S   0  0  0  0  0  0  0  0  0  0  0  0
   20.7158  -11.6499  -20.8540 C   0  0  0  0  0  0  0  0  0  0  0  0
   19.9095  -10.8119  -19.9188 C   0  0  0  0  0  0  0  0  0  0  0  0
   19.9339  -11.2719  -18.4938 C   0  0  2  0  0  0  0  0  0  0  0  0
   18.8012  -12.1601  -18.3056 N   0  0  0  0  0  0  0  0  0  0  0  0
   19.8657  -10.1639  -17.5072 C   0  0  0  0  0  0  0  0  0  0  0  0
   18.7836   -9.7367  -17.0381 O   0  0  0  0  0  0  0  0  0  0  0  0
   21.0582   -9.5413  -17.0568 N   0  0  0  0  0  0  0  0  0  0  0  0
   20.9567   -8.4253  -16.1320 C   0  0  1  0  0  0  0  0  0  0  0  0
   21.9135   -8.7208  -14.9881 C   0  0  0  0  0  0  0  0  0  0  0  0
   21.9793   -7.6290  -13.9897 C   0  0  0  0  0  0  0  0  0  0  0  0
   22.5965   -6.4431  -14.3205 C   0  0  0  0  0  0  0  0  0  0  0  0
   22.6930   -5.3759  -13.4453 C   0  0  0  0  0  0  0  0  0  0  0  0
   22.1381   -5.5247  -12.1834 C   0  0  0  0  0  0  0  0  0  0  0  0
   21.5202   -6.7029  -11.8428 C   0  0  0  0  0  0  0  0  0  0  0  0
   21.4276   -7.7767  -12.7350 C   0  0  0  0  0  0  0  0  0  0  0  0
   21.2208   -7.1353  -16.7868 C   0  0  0  0  0  0  0  0  0  0  0  0
   22.0437   -7.0185  -17.7565 O   0  0  0  0  0  0  0  0  0  0  0  0
   20.5916   -5.9662  -16.3918 O   0  0  0  0  0  0  0  0  0  0  0  0
  2  3  1  0
  2  1  1  0
  3 10  1  0
  4  3  2  0
  6  7  1  0
  6  5  1  0
  7  8  1  0
  9  8  1  6
  9 11  1  0
 10  9  1  0
 11 13  1  0
 11 12  2  0
 13 14  1  0
 14 15  1  1
 14 22  1  0
 16 21  2  0
 16 15  1  0
 17 16  1  0
 18 19  1  0
 18 17  2  0
 19 20  2  0
 20 21  1  0
 22 24  1  0
 23 22  2  0
M  END
$$$$
