YIG.pdb
     RDKit          3D

 25 25  0  0  1  0  0  0  0  0999 V2000
   12.4675  -16.9462   32.7375 O   0  0  0  0  0  0  0  0  0  0  0  0
   11.9250  -16.8719   31.4537 C   0  0  0  0  0  0  0  0  0  0  0  0
   11.3191  -15.7265   30.9806 C   0  0  0  0  0  0  0  0  0  0  0  0
   10.7870  -15.6866   29.6917 C   0  0  0  0  0  0  0  0  0  0  0  0
   10.8449  -16.7774   28.8494 C   0  0  0  0  0  0  0  0  0  0  0  0
   10.2631  -16.6741   27.4936 C   0  0  0  0  0  0  0  0  0  0  0  0
    8.8258  -17.0563   27.4269 C   0  0  2  0  0  0  0  0  0  0  0  0
    8.6112  -18.4834   27.5431 N   0  0  0  0  0  0  0  0  0  0  0  0
    8.3192  -16.6372   26.0766 C   0  0  0  0  0  0  0  0  0  0  0  0
    8.0714  -17.5037   25.1688 O   0  0  0  0  0  0  0  0  0  0  0  0
   11.4508  -17.9195   29.3253 C   0  0  0  0  0  0  0  0  0  0  0  0
   11.9767  -17.9559   30.6021 C   0  0  0  0  0  0  0  0  0  0  0  0
    6.2439  -11.9226   26.2979 C   0  0  0  0  0  0  0  0  0  0  0  0
    6.1500  -13.2004   25.5292 C   0  0  0  0  0  0  0  0  0  0  0  0
    7.3012  -13.3509   24.5386 C   0  0  2  0  0  0  0  0  0  0  0  0
    6.9189  -12.8157   23.1919 C   0  0  0  0  0  0  0  0  0  0  0  0
    7.6729  -14.8333   24.4104 C   0  0  2  0  0  0  0  0  0  0  0  0
    8.0978  -15.2831   25.7569 N   0  0  0  0  0  0  0  0  0  0  0  0
    8.8231  -14.9295   23.4875 C   0  0  0  0  0  0  0  0  0  0  0  0
    9.9078  -14.3340   23.8278 O   0  0  0  0  0  0  0  0  0  0  0  0
    8.8712  -15.6126   22.2605 N   0  0  0  0  0  0  0  0  0  0  0  0
   10.0859  -15.6120   21.4250 C   0  0  0  0  0  0  0  0  0  0  0  0
    9.8387  -16.3389   20.1797 C   0  0  0  0  0  0  0  0  0  0  0  0
    8.7828  -17.0000   20.0475 O   0  0  0  0  0  0  0  0  0  0  0  0
   10.7576  -16.3033   19.1489 O   0  0  0  0  0  0  0  0  0  0  0  0
  2  1  1  0
  3  2  2  0
  4  3  1  0
  5  4  2  0
  5 11  1  0
  6  5  1  0
  7  6  1  0
  7  9  1  0
  7  8  1  6
  9 10  2  0
 11 12  2  0
 12  2  1  0
 14 13  1  0
 14 15  1  0
 15 16  1  6
 17 15  1  0
 17 18  1  1
 18  9  1  0
 19 21  1  0
 19 17  1  0
 20 19  2  0
 22 21  1  0
 23 22  1  0
 23 25  1  0
 24 23  2  0
M  END
$$$$
