YIG.pdb
     RDKit          3D

 25 25  0  0  1  0  0  0  0  0999 V2000
    6.0579  -10.4821   27.6675 O   0  0  0  0  0  0  0  0  0  0  0  0
    6.5782  -11.6450   27.0975 C   0  0  0  0  0  0  0  0  0  0  0  0
    6.2887  -12.0173   25.8012 C   0  0  0  0  0  0  0  0  0  0  0  0
    6.8260  -13.1867   25.2627 C   0  0  0  0  0  0  0  0  0  0  0  0
    7.6578  -14.0071   25.9961 C   0  0  0  0  0  0  0  0  0  0  0  0
    8.1967  -15.2339   25.3700 C   0  0  0  0  0  0  0  0  0  0  0  0
    7.1479  -16.1422   24.8302 C   0  0  2  0  0  0  0  0  0  0  0  0
    6.9768  -17.3446   25.6183 N   0  0  0  0  0  0  0  0  0  0  0  0
    7.5930  -16.5662   23.4599 C   0  0  0  0  0  0  0  0  0  0  0  0
    7.3373  -17.7393   23.0187 O   0  0  0  0  0  0  0  0  0  0  0  0
    7.9446  -13.6321   27.2903 C   0  0  0  0  0  0  0  0  0  0  0  0
    7.4111  -12.4735   27.8207 C   0  0  0  0  0  0  0  0  0  0  0  0
    7.2033  -12.2705   20.4846 C   0  0  0  0  0  0  0  0  0  0  0  0
    7.1247  -13.7104   20.8759 C   0  0  0  0  0  0  0  0  0  0  0  0
    8.4087  -14.4608   20.5335 C   0  0  2  0  0  0  0  0  0  0  0  0
    8.5853  -14.5654   19.0489 C   0  0  0  0  0  0  0  0  0  0  0  0
    8.3536  -15.8684   21.1399 C   0  0  2  0  0  0  0  0  0  0  0  0
    8.3049  -15.6961   22.6109 N   0  0  0  0  0  0  0  0  0  0  0  0
    9.6080  -16.5618   20.7795 C   0  0  0  0  0  0  0  0  0  0  0  0
    9.7897  -16.8544   19.5433 O   0  0  0  0  0  0  0  0  0  0  0  0
   10.6464  -16.9415   21.6467 N   0  0  0  0  0  0  0  0  0  0  0  0
   11.8456  -17.6428   21.1527 C   0  0  0  0  0  0  0  0  0  0  0  0
   11.5639  -19.0699   20.9972 C   0  0  0  0  0  0  0  0  0  0  0  0
   10.7447  -19.4484   20.1282 O   0  0  0  0  0  0  0  0  0  0  0  0
   12.1921  -20.0033   21.7986 O   0  0  0  0  0  0  0  0  0  0  0  0
  2  1  1  0
  3  2  2  0
  4  3  1  0
  5  4  2  0
  5 11  1  0
  6  5  1  0
  7  6  1  0
  7  9  1  0
  7  8  1  1
  9 10  2  0
 11 12  2  0
 12  2  1  0
 14 13  1  0
 14 15  1  0
 15 16  1  6
 17 15  1  0
 17 18  1  1
 18  9  1  0
 19 21  1  0
 19 17  1  0
 20 19  2  0
 22 21  1  0
 23 22  1  0
 23 25  1  0
 24 23  2  0
M  END
$$$$
