YIG.pdb
     RDKit          3D

 25 25  0  0  1  0  0  0  0  0999 V2000
   12.9222  -17.6760   32.0503 O   0  0  0  0  0  0  0  0  0  0  0  0
   12.2173  -17.4658   30.8643 C   0  0  0  0  0  0  0  0  0  0  0  0
   12.2259  -18.3847   29.8354 C   0  0  0  0  0  0  0  0  0  0  0  0
   11.5098  -18.1427   28.6629 C   0  0  0  0  0  0  0  0  0  0  0  0
   10.7738  -16.9893   28.4878 C   0  0  0  0  0  0  0  0  0  0  0  0
   10.0352  -16.7896   27.2221 C   0  0  0  0  0  0  0  0  0  0  0  0
    8.5882  -17.1280   27.3123 C   0  0  2  0  0  0  0  0  0  0  0  0
    8.3354  -18.5534   27.2901 N   0  0  0  0  0  0  0  0  0  0  0  0
    7.9201  -16.5373   26.1037 C   0  0  0  0  0  0  0  0  0  0  0  0
    7.2967  -17.2788   25.2683 O   0  0  0  0  0  0  0  0  0  0  0  0
   10.7676  -16.0740   29.5174 C   0  0  0  0  0  0  0  0  0  0  0  0
   11.4777  -16.3165   30.6773 C   0  0  0  0  0  0  0  0  0  0  0  0
    6.2487  -11.7068   26.9448 C   0  0  0  0  0  0  0  0  0  0  0  0
    5.9990  -12.8862   26.0621 C   0  0  0  0  0  0  0  0  0  0  0  0
    7.0945  -13.0493   25.0123 C   0  0  2  0  0  0  0  0  0  0  0  0
    6.7499  -12.2992   23.7613 C   0  0  0  0  0  0  0  0  0  0  0  0
    7.2670  -14.5372   24.6824 C   0  0  2  0  0  0  0  0  0  0  0  0
    7.9523  -15.1533   25.8427 N   0  0  0  0  0  0  0  0  0  0  0  0
    8.1461  -14.6355   23.4985 C   0  0  0  0  0  0  0  0  0  0  0  0
    7.6541  -14.2910   22.3643 O   0  0  0  0  0  0  0  0  0  0  0  0
    9.4834  -15.0656   23.4686 N   0  0  0  0  0  0  0  0  0  0  0  0
   10.2619  -15.0764   22.2166 C   0  0  0  0  0  0  0  0  0  0  0  0
   10.7040  -16.4373   21.9123 C   0  0  0  0  0  0  0  0  0  0  0  0
   11.4373  -16.6425   20.9175 O   0  0  0  0  0  0  0  0  0  0  0  0
   10.3211  -17.4975   22.7108 O   0  0  0  0  0  0  0  0  0  0  0  0
  2  1  1  0
  3  2  2  0
  4  3  1  0
  5  4  2  0
  5 11  1  0
  6  5  1  0
  7  6  1  0
  7  9  1  0
  7  8  1  6
  9 10  2  0
 11 12  2  0
 12  2  1  0
 14 13  1  0
 14 15  1  0
 15 16  1  6
 17 15  1  0
 17 18  1  1
 18  9  1  0
 19 21  1  0
 19 17  1  0
 20 19  2  0
 22 21  1  0
 23 22  1  0
 23 25  1  0
 24 23  2  0
M  END
$$$$
