YIG.pdb
     RDKit          3D

 25 25  0  0  1  0  0  0  0  0999 V2000
   11.6718  -20.9080   30.7799 O   0  0  0  0  0  0  0  0  0  0  0  0
   11.1034  -20.0787   29.8120 C   0  0  0  0  0  0  0  0  0  0  0  0
   10.2430  -19.0521   30.1418 C   0  0  0  0  0  0  0  0  0  0  0  0
    9.6926  -18.2418   29.1485 C   0  0  0  0  0  0  0  0  0  0  0  0
    9.9831  -18.4325   27.8136 C   0  0  0  0  0  0  0  0  0  0  0  0
    9.3685  -17.5406   26.8066 C   0  0  0  0  0  0  0  0  0  0  0  0
    7.8813  -17.6033   26.7778 C   0  0  2  0  0  0  0  0  0  0  0  0
    7.3751  -18.8760   26.3086 N   0  0  0  0  0  0  0  0  0  0  0  0
    7.4133  -16.5530   25.8115 C   0  0  0  0  0  0  0  0  0  0  0  0
    6.7243  -16.8676   24.7807 O   0  0  0  0  0  0  0  0  0  0  0  0
   10.8426  -19.4587   27.4881 C   0  0  0  0  0  0  0  0  0  0  0  0
   11.3861  -20.2594   28.4739 C   0  0  0  0  0  0  0  0  0  0  0  0
    5.2423  -12.4748   26.8304 C   0  0  0  0  0  0  0  0  0  0  0  0
    6.6896  -12.7492   27.0802 C   0  0  0  0  0  0  0  0  0  0  0  0
    7.4903  -12.7899   25.7816 C   0  0  2  0  0  0  0  0  0  0  0  0
    7.0895  -11.6674   24.8730 C   0  0  0  0  0  0  0  0  0  0  0  0
    7.2467  -14.1289   25.0744 C   0  0  2  0  0  0  0  0  0  0  0  0
    7.7117  -15.1891   25.9993 N   0  0  0  0  0  0  0  0  0  0  0  0
    8.0847  -14.1527   23.8574 C   0  0  0  0  0  0  0  0  0  0  0  0
    7.6399  -13.5435   22.8191 O   0  0  0  0  0  0  0  0  0  0  0  0
    9.3366  -14.7716   23.7017 N   0  0  0  0  0  0  0  0  0  0  0  0
   10.0508  -14.7526   22.4120 C   0  0  0  0  0  0  0  0  0  0  0  0
   10.4813  -16.1050   22.0569 C   0  0  0  0  0  0  0  0  0  0  0  0
   10.1548  -17.0703   22.7856 O   0  0  0  0  0  0  0  0  0  0  0  0
   11.2437  -16.3276   20.9267 O   0  0  0  0  0  0  0  0  0  0  0  0
  2  1  1  0
  3  2  2  0
  4  3  1  0
  5  4  2  0
  5 11  1  0
  6  5  1  0
  7  6  1  0
  7  9  1  0
  7  8  1  6
  9 10  2  0
 11 12  2  0
 12  2  1  0
 14 13  1  0
 14 15  1  0
 15 16  1  6
 17 15  1  0
 17 18  1  1
 18  9  1  0
 19 21  1  0
 19 17  1  0
 20 19  2  0
 22 21  1  0
 23 22  1  0
 23 25  1  0
 24 23  2  0
M  END
$$$$
