YIG.pdb
     RDKit          3D

 25 25  0  0  1  0  0  0  0  0999 V2000
    7.3000  -13.4901   16.2378 O   0  0  0  0  0  0  0  0  0  0  0  0
    7.4006  -13.8880   17.5717 C   0  0  0  0  0  0  0  0  0  0  0  0
    7.6734  -12.9915   18.5841 C   0  0  0  0  0  0  0  0  0  0  0  0
    7.7670  -13.4235   19.9072 C   0  0  0  0  0  0  0  0  0  0  0  0
    7.5928  -14.7478   20.2516 C   0  0  0  0  0  0  0  0  0  0  0  0
    7.7041  -15.1449   21.6720 C   0  0  0  0  0  0  0  0  0  0  0  0
    9.1042  -15.1814   22.1766 C   0  0  2  0  0  0  0  0  0  0  0  0
    9.8456  -16.3353   21.7128 N   0  0  0  0  0  0  0  0  0  0  0  0
    9.0321  -15.2696   23.6742 C   0  0  0  0  0  0  0  0  0  0  0  0
    9.8496  -16.0027   24.3302 O   0  0  0  0  0  0  0  0  0  0  0  0
    7.3205  -15.6401   19.2380 C   0  0  0  0  0  0  0  0  0  0  0  0
    7.2284  -15.2093   17.9287 C   0  0  0  0  0  0  0  0  0  0  0  0
    6.1874  -11.0580   25.7378 C   0  0  0  0  0  0  0  0  0  0  0  0
    7.3041  -12.0251   25.5135 C   0  0  0  0  0  0  0  0  0  0  0  0
    7.0702  -13.3404   26.2512 C   0  0  2  0  0  0  0  0  0  0  0  0
    7.0776  -13.1281   27.7348 C   0  0  0  0  0  0  0  0  0  0  0  0
    8.1717  -14.3390   25.8745 C   0  0  2  0  0  0  0  0  0  0  0  0
    8.0686  -14.5541   24.4120 N   0  0  0  0  0  0  0  0  0  0  0  0
    7.8807  -15.6111   26.5681 C   0  0  0  0  0  0  0  0  0  0  0  0
    8.1047  -15.6629   27.8306 O   0  0  0  0  0  0  0  0  0  0  0  0
    7.3739  -16.7912   25.9980 N   0  0  0  0  0  0  0  0  0  0  0  0
    6.8974  -17.9083   26.8340 C   0  0  0  0  0  0  0  0  0  0  0  0
    7.9690  -18.8860   27.0232 C   0  0  0  0  0  0  0  0  0  0  0  0
    9.0842  -18.6947   26.4853 O   0  0  0  0  0  0  0  0  0  0  0  0
    7.7634  -20.0174   27.7886 O   0  0  0  0  0  0  0  0  0  0  0  0
  2  1  1  0
  3  2  2  0
  4  3  1  0
  5  4  2  0
  5 11  1  0
  6  5  1  0
  7  6  1  0
  7  9  1  0
  7  8  1  6
  9 10  2  0
 11 12  2  0
 12  2  1  0
 14 13  1  0
 14 15  1  0
 15 16  1  1
 17 15  1  0
 17 18  1  6
 18  9  1  0
 19 21  1  0
 19 17  1  0
 20 19  2  0
 22 21  1  0
 23 22  1  0
 23 25  1  0
 24 23  2  0
M  END
$$$$
