YIG.pdb
     RDKit          3D

 25 25  0  0  1  0  0  0  0  0999 V2000
   11.3274  -15.1425   32.0729 O   0  0  0  0  0  0  0  0  0  0  0  0
   10.9472  -15.7078   30.8548 C   0  0  0  0  0  0  0  0  0  0  0  0
   10.9518  -17.0717   30.6480 C   0  0  0  0  0  0  0  0  0  0  0  0
   10.5655  -17.6033   29.4175 C   0  0  0  0  0  0  0  0  0  0  0  0
   10.1685  -16.7964   28.3715 C   0  0  0  0  0  0  0  0  0  0  0  0
    9.7700  -17.4191   27.0905 C   0  0  0  0  0  0  0  0  0  0  0  0
    8.2979  -17.5728   26.9308 C   0  0  2  0  0  0  0  0  0  0  0  0
    7.8787  -18.9547   26.8263 N   0  0  0  0  0  0  0  0  0  0  0  0
    7.9194  -16.8932   25.6459 C   0  0  0  0  0  0  0  0  0  0  0  0
    7.4992  -17.5679   24.6437 O   0  0  0  0  0  0  0  0  0  0  0  0
   10.1652  -15.4349   28.5817 C   0  0  0  0  0  0  0  0  0  0  0  0
   10.5483  -14.9114   29.8014 C   0  0  0  0  0  0  0  0  0  0  0  0
    6.4217  -11.9128   26.4084 C   0  0  0  0  0  0  0  0  0  0  0  0
    6.3144  -13.1827   25.6284 C   0  0  0  0  0  0  0  0  0  0  0  0
    7.4416  -13.3173   24.6085 C   0  0  2  0  0  0  0  0  0  0  0  0
    7.1342  -12.5348   23.3678 C   0  0  0  0  0  0  0  0  0  0  0  0
    7.6263  -14.7958   24.2450 C   0  0  2  0  0  0  0  0  0  0  0  0
    8.0110  -15.4957   25.4932 N   0  0  0  0  0  0  0  0  0  0  0  0
    8.7431  -14.8851   23.2813 C   0  0  0  0  0  0  0  0  0  0  0  0
    9.8416  -14.2980   23.5906 O   0  0  0  0  0  0  0  0  0  0  0  0
    8.7453  -15.5532   22.0452 N   0  0  0  0  0  0  0  0  0  0  0  0
    9.9870  -15.7412   21.2727 C   0  0  0  0  0  0  0  0  0  0  0  0
    9.7372  -16.6146   20.1260 C   0  0  0  0  0  0  0  0  0  0  0  0
    9.1702  -17.7182   20.2999 O   0  0  0  0  0  0  0  0  0  0  0  0
   10.1202  -16.2347   18.8544 O   0  0  0  0  0  0  0  0  0  0  0  0
  2  1  1  0
  3  2  2  0
  4  3  1  0
  5  4  2  0
  5 11  1  0
  6  5  1  0
  7  6  1  0
  7  9  1  0
  7  8  1  6
  9 10  2  0
 11 12  2  0
 12  2  1  0
 14 13  1  0
 14 15  1  0
 15 16  1  6
 17 15  1  0
 17 18  1  1
 18  9  1  0
 19 21  1  0
 19 17  1  0
 20 19  2  0
 22 21  1  0
 23 22  1  0
 23 25  1  0
 24 23  2  0
M  END
$$$$
