YIG.pdb
     RDKit          3D

 25 25  0  0  1  0  0  0  0  0999 V2000
   12.5149  -17.6688   32.4607 O   0  0  0  0  0  0  0  0  0  0  0  0
   11.9163  -17.4895   31.2128 C   0  0  0  0  0  0  0  0  0  0  0  0
   11.3700  -16.2820   30.8300 C   0  0  0  0  0  0  0  0  0  0  0  0
   10.7791  -16.1375   29.5746 C   0  0  0  0  0  0  0  0  0  0  0  0
   10.7184  -17.1832   28.6771 C   0  0  0  0  0  0  0  0  0  0  0  0
   10.0791  -16.9685   27.3608 C   0  0  0  0  0  0  0  0  0  0  0  0
    8.6260  -17.2917   27.3399 C   0  0  2  0  0  0  0  0  0  0  0  0
    8.3601  -18.7149   27.3529 N   0  0  0  0  0  0  0  0  0  0  0  0
    8.0702  -16.7455   26.0559 C   0  0  0  0  0  0  0  0  0  0  0  0
    7.6970  -17.5277   25.1151 O   0  0  0  0  0  0  0  0  0  0  0  0
   11.2650  -18.3875   29.0629 C   0  0  0  0  0  0  0  0  0  0  0  0
   11.8494  -18.5275   30.3067 C   0  0  0  0  0  0  0  0  0  0  0  0
    5.9743  -11.8070   26.3014 C   0  0  0  0  0  0  0  0  0  0  0  0
    6.0601  -13.1702   25.6957 C   0  0  0  0  0  0  0  0  0  0  0  0
    7.2613  -13.3006   24.7634 C   0  0  2  0  0  0  0  0  0  0  0  0
    6.9924  -12.6296   23.4505 C   0  0  0  0  0  0  0  0  0  0  0  0
    7.5619  -14.7854   24.5239 C   0  0  2  0  0  0  0  0  0  0  0  0
    7.9383  -15.3601   25.8369 N   0  0  0  0  0  0  0  0  0  0  0  0
    8.7235  -14.8671   23.6139 C   0  0  0  0  0  0  0  0  0  0  0  0
    9.7698  -14.1925   23.9258 O   0  0  0  0  0  0  0  0  0  0  0  0
    8.8206  -15.6139   22.4276 N   0  0  0  0  0  0  0  0  0  0  0  0
   10.0659  -15.6500   21.6392 C   0  0  0  0  0  0  0  0  0  0  0  0
    9.8728  -16.4545   20.4326 C   0  0  0  0  0  0  0  0  0  0  0  0
    9.2184  -17.5208   20.4974 O   0  0  0  0  0  0  0  0  0  0  0  0
   10.4047  -16.0500   19.2237 O   0  0  0  0  0  0  0  0  0  0  0  0
  2  1  1  0
  3  2  2  0
  4  3  1  0
  5  4  2  0
  5 11  1  0
  6  5  1  0
  7  6  1  0
  7  9  1  0
  7  8  1  6
  9 10  2  0
 11 12  2  0
 12  2  1  0
 14 13  1  0
 14 15  1  0
 15 16  1  6
 17 15  1  0
 17 18  1  1
 18  9  1  0
 19 21  1  0
 19 17  1  0
 20 19  2  0
 22 21  1  0
 23 22  1  0
 23 25  1  0
 24 23  2  0
M  END
$$$$
