YIG.pdb
     RDKit          3D

 25 25  0  0  1  0  0  0  0  0999 V2000
   10.6939  -14.2978   30.9163 O   0  0  0  0  0  0  0  0  0  0  0  0
   10.3979  -14.6737   29.6052 C   0  0  0  0  0  0  0  0  0  0  0  0
   10.5358  -15.9748   29.1682 C   0  0  0  0  0  0  0  0  0  0  0  0
   10.2309  -16.3161   27.8504 C   0  0  0  0  0  0  0  0  0  0  0  0
    9.7849  -15.3777   26.9431 C   0  0  0  0  0  0  0  0  0  0  0  0
    9.4776  -15.8005   25.5595 C   0  0  0  0  0  0  0  0  0  0  0  0
    8.0230  -15.8050   25.2429 C   0  0  2  0  0  0  0  0  0  0  0  0
    7.2832  -16.8056   25.9830 N   0  0  0  0  0  0  0  0  0  0  0  0
    7.8891  -16.1388   23.7846 C   0  0  0  0  0  0  0  0  0  0  0  0
    7.4066  -17.2621   23.4084 O   0  0  0  0  0  0  0  0  0  0  0  0
    9.6485  -14.0794   27.3830 C   0  0  0  0  0  0  0  0  0  0  0  0
    9.9512  -13.7445   28.6886 C   0  0  0  0  0  0  0  0  0  0  0  0
    7.3715  -11.8924   21.0064 C   0  0  0  0  0  0  0  0  0  0  0  0
    7.0676  -13.3479   21.1542 C   0  0  0  0  0  0  0  0  0  0  0  0
    8.1841  -14.2195   20.5861 C   0  0  2  0  0  0  0  0  0  0  0  0
    7.9715  -14.4724   19.1242 C   0  0  0  0  0  0  0  0  0  0  0  0
    8.2169  -15.5578   21.3346 C   0  0  2  0  0  0  0  0  0  0  0  0
    8.2865  -15.2354   22.7792 N   0  0  0  0  0  0  0  0  0  0  0  0
    9.4547  -16.2624   20.9403 C   0  0  0  0  0  0  0  0  0  0  0  0
   10.5716  -15.6763   21.1764 O   0  0  0  0  0  0  0  0  0  0  0  0
    9.5546  -17.5242   20.3299 N   0  0  0  0  0  0  0  0  0  0  0  0
   10.8617  -18.1606   20.0848 C   0  0  0  0  0  0  0  0  0  0  0  0
   11.3151  -17.8683   18.7250 C   0  0  0  0  0  0  0  0  0  0  0  0
   10.5289  -17.3283   17.9126 O   0  0  0  0  0  0  0  0  0  0  0  0
   12.6006  -18.1816   18.3283 O   0  0  0  0  0  0  0  0  0  0  0  0
  2  1  1  0
  3  2  2  0
  4  3  1  0
  5  4  2  0
  5 11  1  0
  6  5  1  0
  7  6  1  0
  7  9  1  0
  7  8  1  1
  9 10  2  0
 11 12  2  0
 12  2  1  0
 14 13  1  0
 14 15  1  0
 15 16  1  6
 17 15  1  0
 17 18  1  1
 18  9  1  0
 19 21  1  0
 19 17  1  0
 20 19  2  0
 22 21  1  0
 23 22  1  0
 23 25  1  0
 24 23  2  0
M  END
$$$$
