YIG.pdb
     RDKit          3D

 25 25  0  0  1  0  0  0  0  0999 V2000
    4.5251  -22.5316   15.4395 O   0  0  0  0  0  0  0  0  0  0  0  0
    5.4150  -21.6656   16.0766 C   0  0  0  0  0  0  0  0  0  0  0  0
    5.4151  -20.3077   15.8336 C   0  0  0  0  0  0  0  0  0  0  0  0
    6.3189  -19.4705   16.4882 C   0  0  0  0  0  0  0  0  0  0  0  0
    7.2369  -19.9611   17.3932 C   0  0  0  0  0  0  0  0  0  0  0  0
    8.1694  -19.0235   18.0556 C   0  0  0  0  0  0  0  0  0  0  0  0
    8.2273  -17.6815   17.4137 C   0  0  2  0  0  0  0  0  0  0  0  0
    8.9507  -17.6821   16.1595 N   0  0  0  0  0  0  0  0  0  0  0  0
    8.9658  -16.7730   18.3545 C   0  0  0  0  0  0  0  0  0  0  0  0
   10.1949  -16.4794   18.1565 O   0  0  0  0  0  0  0  0  0  0  0  0
    7.2339  -21.3176   17.6334 C   0  0  0  0  0  0  0  0  0  0  0  0
    6.3377  -22.1441   16.9837 C   0  0  0  0  0  0  0  0  0  0  0  0
    6.5426  -12.3549   19.8572 C   0  0  0  0  0  0  0  0  0  0  0  0
    7.6463  -13.3192   19.5659 C   0  0  0  0  0  0  0  0  0  0  0  0
    7.9624  -14.1986   20.7725 C   0  0  2  0  0  0  0  0  0  0  0  0
    8.4804  -13.3740   21.9119 C   0  0  0  0  0  0  0  0  0  0  0  0
    9.0149  -15.2429   20.3804 C   0  0  2  0  0  0  0  0  0  0  0  0
    8.3398  -16.2114   19.4848 N   0  0  0  0  0  0  0  0  0  0  0  0
    9.4350  -15.9417   21.6130 C   0  0  0  0  0  0  0  0  0  0  0  0
    8.5439  -16.6135   22.2467 O   0  0  0  0  0  0  0  0  0  0  0  0
   10.7201  -15.9610   22.1809 N   0  0  0  0  0  0  0  0  0  0  0  0
   11.0196  -16.7601   23.3832 C   0  0  0  0  0  0  0  0  0  0  0  0
   12.4285  -16.6097   23.7475 C   0  0  0  0  0  0  0  0  0  0  0  0
   13.2567  -16.2451   22.8812 O   0  0  0  0  0  0  0  0  0  0  0  0
   12.8540  -16.8656   25.0365 O   0  0  0  0  0  0  0  0  0  0  0  0
  2  1  1  0
  3  2  2  0
  4  3  1  0
  5  4  2  0
  5 11  1  0
  6  5  1  0
  7  6  1  0
  7  9  1  0
  7  8  1  6
  9 10  2  0
 11 12  2  0
 12  2  1  0
 14 13  1  0
 14 15  1  0
 15 16  1  1
 17 15  1  0
 17 18  1  6
 18  9  1  0
 19 21  1  0
 19 17  1  0
 20 19  2  0
 22 21  1  0
 23 22  1  0
 23 25  1  0
 24 23  2  0
M  END
$$$$
