YIG.pdb
     RDKit          3D

 25 25  0  0  1  0  0  0  0  0999 V2000
   11.9376  -15.1931   31.9176 O   0  0  0  0  0  0  0  0  0  0  0  0
   11.4277  -15.6686   30.7085 C   0  0  0  0  0  0  0  0  0  0  0  0
   11.3567  -17.0165   30.4240 C   0  0  0  0  0  0  0  0  0  0  0  0
   10.8411  -17.4575   29.2050 C   0  0  0  0  0  0  0  0  0  0  0  0
   10.3875  -16.5742   28.2476 C   0  0  0  0  0  0  0  0  0  0  0  0
    9.8515  -17.1024   26.9744 C   0  0  0  0  0  0  0  0  0  0  0  0
    8.3850  -17.3575   27.0010 C   0  0  2  0  0  0  0  0  0  0  0  0
    8.0509  -18.7632   26.9071 N   0  0  0  0  0  0  0  0  0  0  0  0
    7.7962  -16.6775   25.7982 C   0  0  0  0  0  0  0  0  0  0  0  0
    7.2459  -17.3548   24.8630 O   0  0  0  0  0  0  0  0  0  0  0  0
   10.4600  -15.2289   28.5353 C   0  0  0  0  0  0  0  0  0  0  0  0
   10.9710  -14.7952   29.7433 C   0  0  0  0  0  0  0  0  0  0  0  0
    6.1081  -11.6016   26.5833 C   0  0  0  0  0  0  0  0  0  0  0  0
    5.9934  -12.8986   25.8503 C   0  0  0  0  0  0  0  0  0  0  0  0
    7.1411  -13.0943   24.8637 C   0  0  2  0  0  0  0  0  0  0  0  0
    6.9250  -12.2776   23.6257 C   0  0  0  0  0  0  0  0  0  0  0  0
    7.2399  -14.5771   24.4843 C   0  0  2  0  0  0  0  0  0  0  0  0
    7.8257  -15.2766   25.6518 N   0  0  0  0  0  0  0  0  0  0  0  0
    8.1714  -14.6871   23.3422 C   0  0  0  0  0  0  0  0  0  0  0  0
    7.7437  -14.3166   22.1904 O   0  0  0  0  0  0  0  0  0  0  0  0
    9.4963  -15.1542   23.3704 N   0  0  0  0  0  0  0  0  0  0  0  0
   10.3802  -15.0368   22.1963 C   0  0  0  0  0  0  0  0  0  0  0  0
   10.6064  -16.3556   21.6047 C   0  0  0  0  0  0  0  0  0  0  0  0
    9.8602  -17.3116   21.9188 O   0  0  0  0  0  0  0  0  0  0  0  0
   11.6340  -16.5566   20.7037 O   0  0  0  0  0  0  0  0  0  0  0  0
  2  1  1  0
  3  2  2  0
  4  3  1  0
  5  4  2  0
  5 11  1  0
  6  5  1  0
  7  6  1  0
  7  9  1  0
  7  8  1  6
  9 10  2  0
 11 12  2  0
 12  2  1  0
 14 13  1  0
 14 15  1  0
 15 16  1  6
 17 15  1  0
 17 18  1  1
 18  9  1  0
 19 21  1  0
 19 17  1  0
 20 19  2  0
 22 21  1  0
 23 22  1  0
 23 25  1  0
 24 23  2  0
M  END
$$$$
