LTS.pdb
     RDKit          3D

 22 21  0  0  1  0  0  0  0  0999 V2000
    9.5422  -12.5703   19.0390 C   0  0  0  0  0  0  0  0  0  0  0  0
    8.2169  -13.1783   19.5230 C   0  0  2  0  0  0  0  0  0  0  0  0
    7.6433  -12.1417   20.4775 C   0  0  0  0  0  0  0  0  0  0  0  0
    8.5732  -14.3911   20.3109 C   0  0  0  0  0  0  0  0  0  0  0  0
    9.0820  -15.5529   19.5268 C   0  0  2  0  0  0  0  0  0  0  0  0
    8.1853  -15.9220   18.4771 N   0  0  0  0  0  0  0  0  0  0  0  0
    9.3219  -16.6694   20.4895 C   0  0  0  0  0  0  0  0  0  0  0  0
    8.3166  -17.1865   21.0575 O   0  0  0  0  0  0  0  0  0  0  0  0
   10.8175  -19.8837   19.6136 C   0  0  0  0  0  0  0  0  0  0  0  0
   11.5943  -19.3597   20.8182 C   0  0  1  0  0  0  0  0  0  0  0  0
   12.7638  -18.7479   20.3686 O   0  0  0  0  0  0  0  0  0  0  0  0
   10.7474  -18.4007   21.6292 C   0  0  2  0  0  0  0  0  0  0  0  0
   10.5836  -17.1947   20.8170 N   0  0  0  0  0  0  0  0  0  0  0  0
   11.4854  -18.0843   22.8908 C   0  0  0  0  0  0  0  0  0  0  0  0
   12.2828  -17.1140   22.9313 O   0  0  0  0  0  0  0  0  0  0  0  0
   10.0359  -18.5145   26.3761 O   0  0  0  0  0  0  0  0  0  0  0  0
   11.2929  -19.1259   26.4641 C   0  0  0  0  0  0  0  0  0  0  0  0
   12.1101  -18.6003   25.2783 C   0  0  2  0  0  0  0  0  0  0  0  0
   11.3332  -18.8405   24.0852 N   0  0  0  0  0  0  0  0  0  0  0  0
   13.3677  -19.3583   25.2136 C   0  0  0  0  0  0  0  0  0  0  0  0
   14.2439  -19.1684   26.0744 O   0  0  0  0  0  0  0  0  0  0  0  0
   13.5775  -20.2705   24.2114 O   0  0  0  0  0  0  0  0  0  0  0  0
  2  1  1  1
  2  4  1  0
  2  3  1  0
  4  5  1  0
  5  7  1  0
  5  6  1  6
  7  8  2  0
 10  9  1  6
 10 12  1  0
 11 10  1  0
 12 14  1  0
 12 13  1  6
 13  7  1  0
 14 19  1  0
 14 15  2  0
 16 17  1  0
 18 17  1  1
 18 20  1  0
 19 18  1  0
 20 21  2  0
 20 22  1  0
M  END
$$$$
