LTS.pdb
     RDKit          3D

 22 21  0  0  1  0  0  0  0  0999 V2000
    9.5781  -12.3263   19.7276 C   0  0  0  0  0  0  0  0  0  0  0  0
    8.3178  -13.1965   19.6050 C   0  0  2  0  0  0  0  0  0  0  0  0
    7.2561  -12.4509   20.3995 C   0  0  0  0  0  0  0  0  0  0  0  0
    8.6178  -14.4733   20.3110 C   0  0  0  0  0  0  0  0  0  0  0  0
    9.6274  -15.3573   19.6608 C   0  0  2  0  0  0  0  0  0  0  0  0
    9.2334  -15.7363   18.3405 N   0  0  0  0  0  0  0  0  0  0  0  0
    9.8291  -16.5364   20.5552 C   0  0  0  0  0  0  0  0  0  0  0  0
    8.8508  -17.3192   20.7310 O   0  0  0  0  0  0  0  0  0  0  0  0
   11.6927  -19.4327   19.9887 C   0  0  0  0  0  0  0  0  0  0  0  0
   12.2287  -18.9103   21.3187 C   0  0  1  0  0  0  0  0  0  0  0  0
   13.3972  -18.1876   21.0808 O   0  0  0  0  0  0  0  0  0  0  0  0
   11.1895  -18.0617   22.0219 C   0  0  2  0  0  0  0  0  0  0  0  0
   11.0267  -16.8477   21.2215 N   0  0  0  0  0  0  0  0  0  0  0  0
   11.7105  -17.7242   23.3824 C   0  0  0  0  0  0  0  0  0  0  0  0
   12.4629  -16.7307   23.5435 O   0  0  0  0  0  0  0  0  0  0  0  0
   10.3776  -19.8564   26.3522 O   0  0  0  0  0  0  0  0  0  0  0  0
   11.0701  -18.7684   26.8984 C   0  0  0  0  0  0  0  0  0  0  0  0
   12.0456  -18.2928   25.8157 C   0  0  2  0  0  0  0  0  0  0  0  0
   11.3950  -18.4852   24.5412 N   0  0  0  0  0  0  0  0  0  0  0  0
   13.2548  -19.1254   25.8873 C   0  0  0  0  0  0  0  0  0  0  0  0
   13.4843  -19.9529   24.9889 O   0  0  0  0  0  0  0  0  0  0  0  0
   14.1272  -18.9933   26.9370 O   0  0  0  0  0  0  0  0  0  0  0  0
  2  1  1  1
  2  4  1  0
  2  3  1  0
  4  5  1  0
  5  7  1  0
  5  6  1  6
  7  8  2  0
 10  9  1  6
 10 12  1  0
 11 10  1  0
 12 14  1  0
 12 13  1  6
 13  7  1  0
 14 19  1  0
 14 15  2  0
 16 17  1  0
 18 17  1  1
 18 20  1  0
 19 18  1  0
 20 21  2  0
 20 22  1  0
M  END
$$$$
