LTS.pdb
     RDKit          3D

 22 21  0  0  1  0  0  0  0  0999 V2000
    8.5228  -12.8303   22.0342 C   0  0  0  0  0  0  0  0  0  0  0  0
    8.5638  -13.5773   20.6923 C   0  0  2  0  0  0  0  0  0  0  0  0
    8.5241  -12.4801   19.6392 C   0  0  0  0  0  0  0  0  0  0  0  0
    7.2960  -14.3542   20.6044 C   0  0  0  0  0  0  0  0  0  0  0  0
    7.1123  -15.4223   21.6285 C   0  0  2  0  0  0  0  0  0  0  0  0
    8.3001  -16.1953   21.8123 N   0  0  0  0  0  0  0  0  0  0  0  0
    5.9507  -16.2570   21.1985 C   0  0  0  0  0  0  0  0  0  0  0  0
    4.9524  -15.6656   20.6941 O   0  0  0  0  0  0  0  0  0  0  0  0
    5.9587  -19.0598   18.7532 C   0  0  0  0  0  0  0  0  0  0  0  0
    5.2763  -19.5734   20.0179 C   0  0  1  0  0  0  0  0  0  0  0  0
    6.1935  -20.3254   20.7510 O   0  0  0  0  0  0  0  0  0  0  0  0
    4.7258  -18.4243   20.8372 C   0  0  2  0  0  0  0  0  0  0  0  0
    5.8777  -17.6560   21.3103 N   0  0  0  0  0  0  0  0  0  0  0  0
    3.9712  -18.9993   21.9931 C   0  0  0  0  0  0  0  0  0  0  0  0
    4.5535  -19.2123   23.0861 O   0  0  0  0  0  0  0  0  0  0  0  0
    0.1383  -19.9868   21.4386 O   0  0  0  0  0  0  0  0  0  0  0  0
    0.3668  -19.6228   22.7716 C   0  0  0  0  0  0  0  0  0  0  0  0
    1.8539  -19.8826   23.0389 C   0  0  2  0  0  0  0  0  0  0  0  0
    2.5899  -19.3298   21.9265 N   0  0  0  0  0  0  0  0  0  0  0  0
    2.0638  -21.3360   23.1008 C   0  0  0  0  0  0  0  0  0  0  0  0
    2.7360  -21.8972   22.2189 O   0  0  0  0  0  0  0  0  0  0  0  0
    1.5230  -22.0724   24.1234 O   0  0  0  0  0  0  0  0  0  0  0  0
  2  1  1  1
  2  4  1  0
  2  3  1  0
  4  5  1  0
  5  7  1  0
  5  6  1  6
  7  8  2  0
 10  9  1  6
 10 12  1  0
 11 10  1  0
 12 14  1  0
 12 13  1  1
 13  7  1  0
 14 19  1  0
 14 15  2  0
 16 17  1  0
 18 17  1  6
 18 20  1  0
 19 18  1  0
 20 21  2  0
 20 22  1  0
M  END
$$$$
