LTS.pdb
     RDKit          3D

 22 21  0  0  1  0  0  0  0  0999 V2000
    6.3184  -11.8322   25.5000 C   0  0  0  0  0  0  0  0  0  0  0  0
    6.5278  -12.7441   26.7186 C   0  0  2  0  0  0  0  0  0  0  0  0
    7.4625  -11.9619   27.6290 C   0  0  0  0  0  0  0  0  0  0  0  0
    7.2558  -13.9460   26.2245 C   0  0  0  0  0  0  0  0  0  0  0  0
    6.5028  -14.8245   25.2839 C   0  0  2  0  0  0  0  0  0  0  0  0
    5.4355  -15.5147   25.9370 N   0  0  0  0  0  0  0  0  0  0  0  0
    7.4881  -15.7586   24.6613 C   0  0  0  0  0  0  0  0  0  0  0  0
    7.7832  -16.8140   25.2935 O   0  0  0  0  0  0  0  0  0  0  0  0
    7.7718  -16.1250   20.7116 C   0  0  0  0  0  0  0  0  0  0  0  0
    9.1499  -16.1964   21.3633 C   0  0  1  0  0  0  0  0  0  0  0  0
    9.8009  -14.9778   21.1749 O   0  0  0  0  0  0  0  0  0  0  0  0
    9.0327  -16.5369   22.8346 C   0  0  2  0  0  0  0  0  0  0  0  0
    8.1177  -15.5573   23.4211 N   0  0  0  0  0  0  0  0  0  0  0  0
   10.3911  -16.4152   23.4479 C   0  0  0  0  0  0  0  0  0  0  0  0
   10.8829  -15.2817   23.6770 O   0  0  0  0  0  0  0  0  0  0  0  0
   11.9490  -18.8705   26.1329 O   0  0  0  0  0  0  0  0  0  0  0  0
   12.8229  -18.7699   25.0431 C   0  0  0  0  0  0  0  0  0  0  0  0
   12.5089  -17.4324   24.3627 C   0  0  2  0  0  0  0  0  0  0  0  0
   11.1845  -17.5419   23.7982 N   0  0  0  0  0  0  0  0  0  0  0  0
   13.4906  -17.2199   23.2897 C   0  0  0  0  0  0  0  0  0  0  0  0
   13.1113  -17.1968   22.1064 O   0  0  0  0  0  0  0  0  0  0  0  0
   14.8181  -17.0476   23.5877 O   0  0  0  0  0  0  0  0  0  0  0  0
  2  1  1  6
  2  4  1  0
  2  3  1  0
  4  5  1  0
  5  7  1  0
  5  6  1  1
  7  8  2  0
 10  9  1  1
 10 12  1  0
 11 10  1  0
 12 14  1  0
 12 13  1  1
 13  7  1  0
 14 19  1  0
 14 15  2  0
 16 17  1  0
 18 17  1  6
 18 20  1  0
 19 18  1  0
 20 21  2  0
 20 22  1  0
M  END
$$$$
