LTS.pdb
     RDKit          3D

 22 21  0  0  1  0  0  0  0  0999 V2000
    9.6699  -12.4479   19.2335 C   0  0  0  0  0  0  0  0  0  0  0  0
    8.3330  -13.1558   19.5020 C   0  0  2  0  0  0  0  0  0  0  0  0
    7.5511  -12.1844   20.3736 C   0  0  0  0  0  0  0  0  0  0  0  0
    8.6513  -14.3612   20.3170 C   0  0  0  0  0  0  0  0  0  0  0  0
    9.4554  -15.4161   19.6358 C   0  0  2  0  0  0  0  0  0  0  0  0
    8.8508  -15.8416   18.4129 N   0  0  0  0  0  0  0  0  0  0  0  0
    9.6302  -16.5388   20.6053 C   0  0  0  0  0  0  0  0  0  0  0  0
    8.5886  -17.0961   21.0583 O   0  0  0  0  0  0  0  0  0  0  0  0
   10.9900  -19.7331   19.9371 C   0  0  0  0  0  0  0  0  0  0  0  0
   11.7765  -19.2363   21.1468 C   0  0  1  0  0  0  0  0  0  0  0  0
   12.9933  -18.7144   20.7096 O   0  0  0  0  0  0  0  0  0  0  0  0
   10.9805  -18.2051   21.9200 C   0  0  2  0  0  0  0  0  0  0  0  0
   10.8674  -17.0285   21.0575 N   0  0  0  0  0  0  0  0  0  0  0  0
   11.7408  -17.8701   23.1633 C   0  0  0  0  0  0  0  0  0  0  0  0
   12.6437  -16.9964   23.1371 O   0  0  0  0  0  0  0  0  0  0  0  0
   10.8694  -20.0036   26.2832 O   0  0  0  0  0  0  0  0  0  0  0  0
   11.5724  -18.8968   26.7754 C   0  0  0  0  0  0  0  0  0  0  0  0
   12.3209  -18.2969   25.5795 C   0  0  2  0  0  0  0  0  0  0  0  0
   11.4948  -18.5017   24.4132 N   0  0  0  0  0  0  0  0  0  0  0  0
   13.5913  -19.0191   25.4219 C   0  0  0  0  0  0  0  0  0  0  0  0
   13.7686  -19.7387   24.4243 O   0  0  0  0  0  0  0  0  0  0  0  0
   14.5778  -18.9025   26.3674 O   0  0  0  0  0  0  0  0  0  0  0  0
  2  1  1  1
  2  4  1  0
  2  3  1  0
  4  5  1  0
  5  7  1  0
  5  6  1  6
  7  8  2  0
 10  9  1  6
 10 12  1  0
 11 10  1  0
 12 14  1  0
 12 13  1  6
 13  7  1  0
 14 19  1  0
 14 15  2  0
 16 17  1  0
 18 17  1  1
 18 20  1  0
 19 18  1  0
 20 21  2  0
 20 22  1  0
M  END
$$$$
