LTS.pdb
     RDKit          3D

 22 21  0  0  1  0  0  0  0  0999 V2000
    9.3642  -12.6928   19.1955 C   0  0  0  0  0  0  0  0  0  0  0  0
    8.0424  -13.4666   19.3170 C   0  0  2  0  0  0  0  0  0  0  0  0
    6.9609  -12.4146   19.1223 C   0  0  0  0  0  0  0  0  0  0  0  0
    7.9692  -13.9564   20.7217 C   0  0  0  0  0  0  0  0  0  0  0  0
    8.9884  -14.9722   21.1129 C   0  0  2  0  0  0  0  0  0  0  0  0
    9.0653  -16.0421   20.1688 N   0  0  0  0  0  0  0  0  0  0  0  0
    8.6395  -15.4478   22.4852 C   0  0  0  0  0  0  0  0  0  0  0  0
    7.5996  -14.9741   23.0284 O   0  0  0  0  0  0  0  0  0  0  0  0
    8.1415  -18.9619   23.7103 C   0  0  0  0  0  0  0  0  0  0  0  0
    9.1411  -18.2907   24.6480 C   0  0  1  0  0  0  0  0  0  0  0  0
   10.4281  -18.7025   24.3040 O   0  0  0  0  0  0  0  0  0  0  0  0
    9.0097  -16.7829   24.5849 C   0  0  2  0  0  0  0  0  0  0  0  0
    9.3791  -16.3854   23.2260 N   0  0  0  0  0  0  0  0  0  0  0  0
    9.9597  -16.1932   25.5779 C   0  0  0  0  0  0  0  0  0  0  0  0
   10.9638  -15.5469   25.1867 O   0  0  0  0  0  0  0  0  0  0  0  0
   10.1234  -13.3772   29.0197 O   0  0  0  0  0  0  0  0  0  0  0  0
    9.4764  -14.2440   28.1299 C   0  0  0  0  0  0  0  0  0  0  0  0
   10.4121  -15.4438   27.9423 C   0  0  2  0  0  0  0  0  0  0  0  0
    9.7885  -16.3248   26.9832 N   0  0  0  0  0  0  0  0  0  0  0  0
   10.5453  -16.1305   29.2350 C   0  0  0  0  0  0  0  0  0  0  0  0
   11.2172  -15.6086   30.1409 O   0  0  0  0  0  0  0  0  0  0  0  0
    9.9338  -17.3399   29.4446 O   0  0  0  0  0  0  0  0  0  0  0  0
  2  1  1  1
  2  4  1  0
  2  3  1  0
  4  5  1  0
  5  7  1  0
  5  6  1  6
  7  8  2  0
 10  9  1  6
 10 12  1  0
 11 10  1  0
 12 14  1  0
 12 13  1  6
 13  7  1  0
 14 19  1  0
 14 15  2  0
 16 17  1  0
 18 17  1  1
 18 20  1  0
 19 18  1  0
 20 21  2  0
 20 22  1  0
M  END
$$$$
