LTS.pdb
     RDKit          3D

 22 21  0  0  1  0  0  0  0  0999 V2000
    8.7847  -12.3382   18.1559 C   0  0  0  0  0  0  0  0  0  0  0  0
    7.7104  -13.2695   18.7385 C   0  0  2  0  0  0  0  0  0  0  0  0
    6.9491  -12.4051   19.7323 C   0  0  0  0  0  0  0  0  0  0  0  0
    8.4360  -14.3251   19.4985 C   0  0  0  0  0  0  0  0  0  0  0  0
    9.2407  -15.2800   18.6835 C   0  0  2  0  0  0  0  0  0  0  0  0
    8.4368  -15.9754   17.7284 N   0  0  0  0  0  0  0  0  0  0  0  0
    9.9273  -16.2070   19.6324 C   0  0  0  0  0  0  0  0  0  0  0  0
    9.2065  -16.9686   20.3404 O   0  0  0  0  0  0  0  0  0  0  0  0
   12.3758  -18.8172   18.7906 C   0  0  0  0  0  0  0  0  0  0  0  0
   13.0031  -17.9926   19.9112 C   0  0  1  0  0  0  0  0  0  0  0  0
   13.9156  -17.0971   19.3549 O   0  0  0  0  0  0  0  0  0  0  0  0
   11.9375  -17.2695   20.7087 C   0  0  2  0  0  0  0  0  0  0  0  0
   11.3191  -16.3013   19.8026 N   0  0  0  0  0  0  0  0  0  0  0  0
   12.6073  -16.5665   21.8460 C   0  0  0  0  0  0  0  0  0  0  0  0
   13.1023  -15.4234   21.6802 O   0  0  0  0  0  0  0  0  0  0  0  0
   11.4868  -16.8842   25.6012 O   0  0  0  0  0  0  0  0  0  0  0  0
   12.8646  -17.1272   25.5371 C   0  0  0  0  0  0  0  0  0  0  0  0
   13.3595  -16.4574   24.2500 C   0  0  2  0  0  0  0  0  0  0  0  0
   12.7209  -17.1330   23.1452 N   0  0  0  0  0  0  0  0  0  0  0  0
   14.8160  -16.6374   24.1677 C   0  0  0  0  0  0  0  0  0  0  0  0
   15.2928  -17.4002   23.3102 O   0  0  0  0  0  0  0  0  0  0  0  0
   15.6475  -15.9697   25.0299 O   0  0  0  0  0  0  0  0  0  0  0  0
  2  1  1  1
  2  4  1  0
  2  3  1  0
  4  5  1  0
  5  7  1  0
  5  6  1  6
  7  8  2  0
 10  9  1  6
 10 12  1  0
 11 10  1  0
 12 14  1  0
 12 13  1  6
 13  7  1  0
 14 19  1  0
 14 15  2  0
 16 17  1  0
 18 17  1  1
 18 20  1  0
 19 18  1  0
 20 21  2  0
 20 22  1  0
M  END
$$$$
