LTS.pdb
     RDKit          3D

 22 21  0  0  1  0  0  0  0  0999 V2000
    9.7826  -12.4793   19.5246 C   0  0  0  0  0  0  0  0  0  0  0  0
    8.3818  -13.0584   19.2735 C   0  0  2  0  0  0  0  0  0  0  0  0
    7.4488  -12.1784   20.0917 C   0  0  0  0  0  0  0  0  0  0  0  0
    8.3778  -14.4233   19.8698 C   0  0  0  0  0  0  0  0  0  0  0  0
    9.2314  -15.4370   19.1862 C   0  0  2  0  0  0  0  0  0  0  0  0
    8.7111  -15.7960   17.9046 N   0  0  0  0  0  0  0  0  0  0  0  0
    9.3491  -16.6110   20.1021 C   0  0  0  0  0  0  0  0  0  0  0  0
    8.2915  -17.2410   20.3945 O   0  0  0  0  0  0  0  0  0  0  0  0
   12.7931  -18.7991   20.4232 C   0  0  0  0  0  0  0  0  0  0  0  0
   11.3936  -19.3078   20.7571 C   0  0  1  0  0  0  0  0  0  0  0  0
   11.5064  -20.4910   21.4862 O   0  0  0  0  0  0  0  0  0  0  0  0
   10.6088  -18.2619   21.5220 C   0  0  2  0  0  0  0  0  0  0  0  0
   10.5486  -17.0747   20.6689 N   0  0  0  0  0  0  0  0  0  0  0  0
   11.3490  -17.9599   22.7857 C   0  0  0  0  0  0  0  0  0  0  0  0
   12.3845  -17.2484   22.7582 O   0  0  0  0  0  0  0  0  0  0  0  0
   11.6763  -18.6860   27.5706 O   0  0  0  0  0  0  0  0  0  0  0  0
   10.8744  -18.7926   26.4273 C   0  0  0  0  0  0  0  0  0  0  0  0
   11.7295  -18.2972   25.2552 C   0  0  2  0  0  0  0  0  0  0  0  0
   10.9374  -18.4456   24.0571 N   0  0  0  0  0  0  0  0  0  0  0  0
   12.9268  -19.1452   25.1678 C   0  0  0  0  0  0  0  0  0  0  0  0
   12.9335  -20.1202   24.3972 O   0  0  0  0  0  0  0  0  0  0  0  0
   14.0320  -18.8661   25.9301 O   0  0  0  0  0  0  0  0  0  0  0  0
  2  1  1  1
  2  4  1  0
  2  3  1  0
  4  5  1  0
  5  7  1  0
  5  6  1  6
  7  8  2  0
 10  9  1  1
 10 12  1  0
 11 10  1  0
 12 14  1  0
 12 13  1  6
 13  7  1  0
 14 19  1  0
 14 15  2  0
 16 17  1  0
 18 17  1  1
 18 20  1  0
 19 18  1  0
 20 21  2  0
 20 22  1  0
M  END
$$$$
