LTS.pdb
     RDKit          3D

 22 21  0  0  1  0  0  0  0  0999 V2000
    9.5665  -12.8629   19.3352 C   0  0  0  0  0  0  0  0  0  0  0  0
    8.1284  -13.4034   19.3189 C   0  0  2  0  0  0  0  0  0  0  0  0
    7.2502  -12.1644   19.4086 C   0  0  0  0  0  0  0  0  0  0  0  0
    7.9591  -14.1870   20.5742 C   0  0  0  0  0  0  0  0  0  0  0  0
    8.7623  -15.4392   20.6755 C   0  0  2  0  0  0  0  0  0  0  0  0
    8.3217  -16.4323   19.7472 N   0  0  0  0  0  0  0  0  0  0  0  0
    8.6809  -15.9074   22.0915 C   0  0  0  0  0  0  0  0  0  0  0  0
    7.5317  -16.0819   22.5913 O   0  0  0  0  0  0  0  0  0  0  0  0
    9.9963  -18.9999   23.5509 C   0  0  0  0  0  0  0  0  0  0  0  0
   10.5149  -17.8685   24.4340 C   0  0  1  0  0  0  0  0  0  0  0  0
   11.8372  -17.5953   24.0859 O   0  0  0  0  0  0  0  0  0  0  0  0
    9.6435  -16.6369   24.2982 C   0  0  2  0  0  0  0  0  0  0  0  0
    9.7862  -16.1713   22.9184 N   0  0  0  0  0  0  0  0  0  0  0  0
   10.1501  -15.6035   25.2530 C   0  0  0  0  0  0  0  0  0  0  0  0
   11.1946  -14.9563   24.9898 O   0  0  0  0  0  0  0  0  0  0  0  0
    7.7165  -14.1806   27.8284 O   0  0  0  0  0  0  0  0  0  0  0  0
    8.8862  -13.4104   27.8199 C   0  0  0  0  0  0  0  0  0  0  0  0
   10.0262  -14.3646   27.4454 C   0  0  2  0  0  0  0  0  0  0  0  0
    9.4992  -15.3003   26.4802 N   0  0  0  0  0  0  0  0  0  0  0  0
   10.4426  -15.0831   28.6582 C   0  0  0  0  0  0  0  0  0  0  0  0
   10.8512  -14.4422   29.6415 O   0  0  0  0  0  0  0  0  0  0  0  0
   10.3822  -16.4521   28.7090 O   0  0  0  0  0  0  0  0  0  0  0  0
  2  1  1  1
  2  4  1  0
  2  3  1  0
  4  5  1  0
  5  7  1  0
  5  6  1  6
  7  8  2  0
 10  9  1  6
 10 12  1  0
 11 10  1  0
 12 14  1  0
 12 13  1  6
 13  7  1  0
 14 19  1  0
 14 15  2  0
 16 17  1  0
 18 17  1  1
 18 20  1  0
 19 18  1  0
 20 21  2  0
 20 22  1  0
M  END
$$$$
