LTS.pdb
     RDKit          3D

 22 21  0  0  1  0  0  0  0  0999 V2000
    5.9444  -11.7703   26.1324 C   0  0  0  0  0  0  0  0  0  0  0  0
    6.7831  -12.6321   27.0886 C   0  0  2  0  0  0  0  0  0  0  0  0
    7.8642  -11.6942   27.6045 C   0  0  0  0  0  0  0  0  0  0  0  0
    7.4338  -13.6780   26.2513 C   0  0  0  0  0  0  0  0  0  0  0  0
    6.5132  -14.5850   25.5074 C   0  0  2  0  0  0  0  0  0  0  0  0
    5.6377  -15.2945   26.3862 N   0  0  0  0  0  0  0  0  0  0  0  0
    7.3587  -15.5010   24.6846 C   0  0  0  0  0  0  0  0  0  0  0  0
    7.7103  -16.6023   25.1988 O   0  0  0  0  0  0  0  0  0  0  0  0
    7.0578  -15.4386   20.7487 C   0  0  0  0  0  0  0  0  0  0  0  0
    8.4975  -15.7475   21.1499 C   0  0  1  0  0  0  0  0  0  0  0  0
    9.2780  -14.6119   20.9366 O   0  0  0  0  0  0  0  0  0  0  0  0
    8.5684  -16.2018   22.5932 C   0  0  2  0  0  0  0  0  0  0  0  0
    7.7979  -15.2354   23.3763 N   0  0  0  0  0  0  0  0  0  0  0  0
   10.0036  -16.1884   23.0130 C   0  0  0  0  0  0  0  0  0  0  0  0
   10.5153  -15.1422   23.4852 O   0  0  0  0  0  0  0  0  0  0  0  0
   11.9449  -19.4514   22.3789 O   0  0  0  0  0  0  0  0  0  0  0  0
   12.6737  -18.8049   23.3852 C   0  0  0  0  0  0  0  0  0  0  0  0
   12.2163  -17.3417   23.3743 C   0  0  2  0  0  0  0  0  0  0  0  0
   10.8505  -17.3255   22.9061 N   0  0  0  0  0  0  0  0  0  0  0  0
   13.0717  -16.5987   22.4379 C   0  0  0  0  0  0  0  0  0  0  0  0
   12.5822  -16.1388   21.3923 O   0  0  0  0  0  0  0  0  0  0  0  0
   14.4022  -16.4117   22.7123 O   0  0  0  0  0  0  0  0  0  0  0  0
  2  1  1  6
  2  4  1  0
  2  3  1  0
  4  5  1  0
  5  7  1  0
  5  6  1  1
  7  8  2  0
 10  9  1  1
 10 12  1  0
 11 10  1  0
 12 14  1  0
 12 13  1  1
 13  7  1  0
 14 19  1  0
 14 15  2  0
 16 17  1  0
 18 17  1  6
 18 20  1  0
 19 18  1  0
 20 21  2  0
 20 22  1  0
M  END
$$$$
