LTS.pdb
     RDKit          3D

 22 21  0  0  1  0  0  0  0  0999 V2000
    9.2463  -12.2855   19.1093 C   0  0  0  0  0  0  0  0  0  0  0  0
    8.0491  -13.1844   19.4547 C   0  0  2  0  0  0  0  0  0  0  0  0
    7.1661  -12.3242   20.3462 C   0  0  0  0  0  0  0  0  0  0  0  0
    8.5874  -14.3058   20.2739 C   0  0  0  0  0  0  0  0  0  0  0  0
    9.5217  -15.2347   19.5756 C   0  0  2  0  0  0  0  0  0  0  0  0
    8.9494  -15.7676   18.3795 N   0  0  0  0  0  0  0  0  0  0  0  0
    9.9004  -16.3015   20.5499 C   0  0  0  0  0  0  0  0  0  0  0  0
    9.0233  -16.6849   21.3772 O   0  0  0  0  0  0  0  0  0  0  0  0
   11.2095  -19.7280   19.7168 C   0  0  0  0  0  0  0  0  0  0  0  0
   12.1596  -19.0858   20.7237 C   0  0  1  0  0  0  0  0  0  0  0  0
   13.2499  -18.5525   20.0375 O   0  0  0  0  0  0  0  0  0  0  0  0
   11.4464  -18.0240   21.5354 C   0  0  2  0  0  0  0  0  0  0  0  0
   11.1617  -16.9173   20.6216 N   0  0  0  0  0  0  0  0  0  0  0  0
   12.3678  -17.5776   22.6253 C   0  0  0  0  0  0  0  0  0  0  0  0
   13.2248  -16.6855   22.4039 O   0  0  0  0  0  0  0  0  0  0  0  0
   12.1267  -19.5734   25.9438 O   0  0  0  0  0  0  0  0  0  0  0  0
   12.7889  -18.3848   26.2761 C   0  0  0  0  0  0  0  0  0  0  0  0
   13.3017  -17.7955   24.9570 C   0  0  2  0  0  0  0  0  0  0  0  0
   12.3304  -18.1199   23.9391 N   0  0  0  0  0  0  0  0  0  0  0  0
   14.5878  -18.4314   24.6376 C   0  0  0  0  0  0  0  0  0  0  0  0
   14.6727  -19.1832   23.6516 O   0  0  0  0  0  0  0  0  0  0  0  0
   15.6899  -18.1995   25.4200 O   0  0  0  0  0  0  0  0  0  0  0  0
  2  1  1  1
  2  4  1  0
  2  3  1  0
  4  5  1  0
  5  7  1  0
  5  6  1  6
  7  8  2  0
 10  9  1  6
 10 12  1  0
 11 10  1  0
 12 14  1  0
 12 13  1  6
 13  7  1  0
 14 19  1  0
 14 15  2  0
 16 17  1  0
 18 17  1  1
 18 20  1  0
 19 18  1  0
 20 21  2  0
 20 22  1  0
M  END
$$$$
