NGQ.pdb
     RDKit          3D

 22 21  0  0  1  0  0  0  0  0999 V2000
    6.0342  -21.6213   12.2564 N   0  0  0  0  0  0  0  0  0  0  0  0
    7.1988  -21.4946   13.0896 C   0  0  0  0  0  0  0  0  0  0  0  0
    8.2688  -21.8852   12.5887 O   0  0  0  0  0  0  0  0  0  0  0  0
    7.1103  -20.9412   14.4323 C   0  0  0  0  0  0  0  0  0  0  0  0
    7.1828  -19.4365   14.5227 C   0  0  2  0  0  0  0  0  0  0  0  0
    7.5035  -18.9449   13.1504 N   0  0  0  0  0  0  0  0  0  0  0  0
    8.2918  -18.9808   15.3865 C   0  0  0  0  0  0  0  0  0  0  0  0
    8.7049  -17.7920   15.2263 O   0  0  0  0  0  0  0  0  0  0  0  0
    8.9101  -19.7857   16.3753 N   0  0  0  0  0  0  0  0  0  0  0  0
    9.8838  -19.1727   17.2405 C   0  0  0  0  0  0  0  0  0  0  0  0
   10.3710  -19.9952   18.3400 C   0  0  0  0  0  0  0  0  0  0  0  0
    9.7172  -21.0717   18.5690 O   0  0  0  0  0  0  0  0  0  0  0  0
   15.7352  -22.6507   18.3693 N   0  0  0  0  0  0  0  0  0  0  0  0
   15.1934  -21.5073   18.9933 C   0  0  0  0  0  0  0  0  0  0  0  0
   15.8784  -20.6223   19.5164 O   0  0  0  0  0  0  0  0  0  0  0  0
   13.6885  -21.3707   19.0157 C   0  0  0  0  0  0  0  0  0  0  0  0
   13.2591  -20.7720   20.3051 C   0  0  0  0  0  0  0  0  0  0  0  0
   11.7718  -20.5489   20.3257 C   0  0  2  0  0  0  0  0  0  0  0  0
   11.4811  -19.7065   19.1549 N   0  0  0  0  0  0  0  0  0  0  0  0
   11.3286  -19.8212   21.5216 C   0  0  0  0  0  0  0  0  0  0  0  0
   11.3228  -20.3471   22.6568 O   0  0  0  0  0  0  0  0  0  0  0  0
   10.8844  -18.4825   21.4451 O   0  0  0  0  0  0  0  0  0  0  0  0
  2  1  1  0
  3  2  2  0
  4  2  1  0
  5  4  1  0
  5  6  1  6
  7  5  1  0
  7  8  2  0
  9  7  1  0
 10  9  1  0
 10 11  1  0
 11 12  2  0
 11 19  1  0
 14 15  2  0
 14 13  1  0
 16 14  1  0
 17 16  1  0
 18 17  1  1
 19 18  1  0
 20 18  1  0
 20 22  1  0
 21 20  2  0
M  END
$$$$
