NGQ.pdb
     RDKit          3D

 22 21  0  0  1  0  0  0  0  0999 V2000
    7.9577  -14.7996   16.0303 N   0  0  0  0  0  0  0  0  0  0  0  0
    7.6033  -13.5131   16.5650 C   0  0  0  0  0  0  0  0  0  0  0  0
    7.0581  -12.7269   15.7694 O   0  0  0  0  0  0  0  0  0  0  0  0
    7.8740  -13.1714   17.9532 C   0  0  0  0  0  0  0  0  0  0  0  0
    8.4752  -14.2740   18.7900 C   0  0  2  0  0  0  0  0  0  0  0  0
    7.8266  -15.5432   18.3472 N   0  0  0  0  0  0  0  0  0  0  0  0
    8.1478  -14.1298   20.2238 C   0  0  0  0  0  0  0  0  0  0  0  0
    8.6739  -13.1580   20.8471 O   0  0  0  0  0  0  0  0  0  0  0  0
    7.2858  -15.0027   20.9330 N   0  0  0  0  0  0  0  0  0  0  0  0
    7.0699  -14.7554   22.3347 C   0  0  0  0  0  0  0  0  0  0  0  0
    8.0798  -15.2856   23.2412 C   0  0  0  0  0  0  0  0  0  0  0  0
    9.0273  -15.9536   22.6981 O   0  0  0  0  0  0  0  0  0  0  0  0
   11.1826  -14.9265   29.9108 N   0  0  0  0  0  0  0  0  0  0  0  0
   10.2824  -14.5439   28.8941 C   0  0  0  0  0  0  0  0  0  0  0  0
    9.4529  -13.6370   29.0185 O   0  0  0  0  0  0  0  0  0  0  0  0
   10.3480  -15.2947   27.5842 C   0  0  0  0  0  0  0  0  0  0  0  0
    9.2177  -14.8825   26.7136 C   0  0  0  0  0  0  0  0  0  0  0  0
    9.2192  -15.6599   25.4260 C   0  0  2  0  0  0  0  0  0  0  0  0
    8.0968  -15.1255   24.6390 N   0  0  0  0  0  0  0  0  0  0  0  0
    8.9775  -17.0933   25.6340 C   0  0  0  0  0  0  0  0  0  0  0  0
    9.9047  -17.8955   25.8828 O   0  0  0  0  0  0  0  0  0  0  0  0
    7.6759  -17.6373   25.5620 O   0  0  0  0  0  0  0  0  0  0  0  0
  2  1  1  0
  3  2  2  0
  4  2  1  0
  5  4  1  0
  5  6  1  6
  7  5  1  0
  7  8  2  0
  9  7  1  0
 10  9  1  0
 10 11  1  0
 11 12  2  0
 11 19  1  0
 14 15  2  0
 14 13  1  0
 16 14  1  0
 17 16  1  0
 18 17  1  1
 19 18  1  0
 20 18  1  0
 20 22  1  0
 21 20  2  0
M  END
$$$$
