NGQ.pdb
     RDKit          3D

 22 21  0  0  1  0  0  0  0  0999 V2000
    8.8037  -16.9081   19.9603 N   0  0  0  0  0  0  0  0  0  0  0  0
    9.0530  -18.1177   20.6958 C   0  0  0  0  0  0  0  0  0  0  0  0
   10.1902  -18.6060   20.5667 O   0  0  0  0  0  0  0  0  0  0  0  0
    8.0258  -18.7176   21.5338 C   0  0  0  0  0  0  0  0  0  0  0  0
    6.6908  -18.0140   21.5320 C   0  0  2  0  0  0  0  0  0  0  0  0
    6.3591  -17.7389   20.1030 N   0  0  0  0  0  0  0  0  0  0  0  0
    6.7529  -16.6949   22.1952 C   0  0  0  0  0  0  0  0  0  0  0  0
    6.1626  -16.5755   23.3119 O   0  0  0  0  0  0  0  0  0  0  0  0
    7.4303  -15.5698   21.6631 N   0  0  0  0  0  0  0  0  0  0  0  0
    7.4605  -14.3612   22.4447 C   0  0  0  0  0  0  0  0  0  0  0  0
    8.5035  -14.2809   23.4589 C   0  0  0  0  0  0  0  0  0  0  0  0
    8.5990  -13.1654   24.0796 O   0  0  0  0  0  0  0  0  0  0  0  0
    9.5938  -15.2280   28.7640 N   0  0  0  0  0  0  0  0  0  0  0  0
    9.1244  -14.0687   28.1111 C   0  0  0  0  0  0  0  0  0  0  0  0
    8.4999  -13.1671   28.6796 O   0  0  0  0  0  0  0  0  0  0  0  0
    9.4089  -13.9359   26.6329 C   0  0  0  0  0  0  0  0  0  0  0  0
    9.9442  -15.2181   26.1087 C   0  0  0  0  0  0  0  0  0  0  0  0
   10.5105  -15.0397   24.7268 C   0  0  2  0  0  0  0  0  0  0  0  0
    9.3972  -15.3114   23.8041 N   0  0  0  0  0  0  0  0  0  0  0  0
   11.5820  -15.9989   24.4298 C   0  0  0  0  0  0  0  0  0  0  0  0
   11.4119  -16.9692   23.6584 O   0  0  0  0  0  0  0  0  0  0  0  0
   12.8650  -15.8696   25.0061 O   0  0  0  0  0  0  0  0  0  0  0  0
  2  1  1  0
  3  2  2  0
  4  2  1  0
  5  4  1  0
  5  6  1  6
  7  5  1  0
  7  8  2  0
  9  7  1  0
 10  9  1  0
 10 11  1  0
 11 12  2  0
 11 19  1  0
 14 15  2  0
 14 13  1  0
 16 14  1  0
 17 16  1  0
 18 17  1  1
 19 18  1  0
 20 18  1  0
 20 22  1  0
 21 20  2  0
M  END
$$$$
