NGQ.pdb
     RDKit          3D

 22 21  0  0  1  0  0  0  0  0999 V2000
    8.7183  -12.5828   16.0889 N   0  0  0  0  0  0  0  0  0  0  0  0
    8.1603  -13.8922   16.2901 C   0  0  0  0  0  0  0  0  0  0  0  0
    8.1812  -14.6481   15.3019 O   0  0  0  0  0  0  0  0  0  0  0  0
    7.6105  -14.2894   17.5774 C   0  0  0  0  0  0  0  0  0  0  0  0
    8.6247  -14.6030   18.6500 C   0  0  2  0  0  0  0  0  0  0  0  0
    9.3235  -15.8499   18.2205 N   0  0  0  0  0  0  0  0  0  0  0  0
    7.9887  -14.9200   19.9456 C   0  0  0  0  0  0  0  0  0  0  0  0
    7.3929  -13.9762   20.5490 O   0  0  0  0  0  0  0  0  0  0  0  0
    8.0025  -16.2045   20.5436 N   0  0  0  0  0  0  0  0  0  0  0  0
    7.3654  -16.3658   21.8245 C   0  0  0  0  0  0  0  0  0  0  0  0
    8.1146  -15.8834   22.9772 C   0  0  0  0  0  0  0  0  0  0  0  0
    9.3298  -15.5464   22.7566 O   0  0  0  0  0  0  0  0  0  0  0  0
    5.2833  -12.6568   27.0636 N   0  0  0  0  0  0  0  0  0  0  0  0
    6.5408  -12.0200   27.0035 C   0  0  0  0  0  0  0  0  0  0  0  0
    6.7546  -10.8825   27.4352 O   0  0  0  0  0  0  0  0  0  0  0  0
    7.6816  -12.7846   26.3727 C   0  0  0  0  0  0  0  0  0  0  0  0
    7.2149  -14.1341   25.9647 C   0  0  0  0  0  0  0  0  0  0  0  0
    8.3052  -14.8883   25.2543 C   0  0  2  0  0  0  0  0  0  0  0  0
    7.6192  -15.7607   24.2884 N   0  0  0  0  0  0  0  0  0  0  0  0
    9.0788  -15.7460   26.1610 C   0  0  0  0  0  0  0  0  0  0  0  0
    8.8039  -16.9547   26.3303 O   0  0  0  0  0  0  0  0  0  0  0  0
   10.1783  -15.2417   26.8905 O   0  0  0  0  0  0  0  0  0  0  0  0
  2  1  1  0
  3  2  2  0
  4  2  1  0
  5  4  1  0
  5  6  1  6
  7  5  1  0
  7  8  2  0
  9  7  1  0
 10  9  1  0
 10 11  1  0
 11 12  2  0
 11 19  1  0
 14 15  2  0
 14 13  1  0
 16 14  1  0
 17 16  1  0
 18 17  1  1
 19 18  1  0
 20 18  1  0
 20 22  1  0
 21 20  2  0
M  END
$$$$
