NGQ.pdb
     RDKit          3D

 22 21  0  0  1  0  0  0  0  0999 V2000
    8.2872  -12.7717   14.4520 N   0  0  0  0  0  0  0  0  0  0  0  0
    7.4310  -13.6078   15.2484 C   0  0  0  0  0  0  0  0  0  0  0  0
    6.6483  -14.3402   14.6165 O   0  0  0  0  0  0  0  0  0  0  0  0
    7.4917  -13.5842   16.7020 C   0  0  0  0  0  0  0  0  0  0  0  0
    8.1408  -14.7846   17.3463 C   0  0  2  0  0  0  0  0  0  0  0  0
    7.1456  -15.8944   17.2728 N   0  0  0  0  0  0  0  0  0  0  0  0
    8.4063  -14.5722   18.7844 C   0  0  0  0  0  0  0  0  0  0  0  0
    9.4278  -13.8862   19.0935 O   0  0  0  0  0  0  0  0  0  0  0  0
    7.5917  -15.0817   19.8258 N   0  0  0  0  0  0  0  0  0  0  0  0
    8.0178  -14.8763   21.1855 C   0  0  0  0  0  0  0  0  0  0  0  0
    8.9168  -15.8833   21.7335 C   0  0  0  0  0  0  0  0  0  0  0  0
    8.8239  -17.0552   21.2266 O   0  0  0  0  0  0  0  0  0  0  0  0
   12.9686  -14.2239   19.4069 N   0  0  0  0  0  0  0  0  0  0  0  0
   13.8168  -15.1302   20.0775 C   0  0  0  0  0  0  0  0  0  0  0  0
   14.9590  -15.4090   19.6983 O   0  0  0  0  0  0  0  0  0  0  0  0
   13.2849  -15.7896   21.3290 C   0  0  0  0  0  0  0  0  0  0  0  0
   11.8896  -15.3447   21.5750 C   0  0  0  0  0  0  0  0  0  0  0  0
   11.2258  -16.2057   22.6145 C   0  0  2  0  0  0  0  0  0  0  0  0
    9.8608  -15.6752   22.7559 N   0  0  0  0  0  0  0  0  0  0  0  0
   11.8808  -16.1108   23.9253 C   0  0  0  0  0  0  0  0  0  0  0  0
   11.5842  -15.2226   24.7549 O   0  0  0  0  0  0  0  0  0  0  0  0
   12.8846  -17.0256   24.3134 O   0  0  0  0  0  0  0  0  0  0  0  0
  2  1  1  0
  3  2  2  0
  4  2  1  0
  5  4  1  0
  5  6  1  1
  7  5  1  0
  7  8  2  0
  9  7  1  0
 10  9  1  0
 10 11  1  0
 11 12  2  0
 11 19  1  0
 14 15  2  0
 14 13  1  0
 16 14  1  0
 17 16  1  0
 18 17  1  6
 19 18  1  0
 20 18  1  0
 20 22  1  0
 21 20  2  0
M  END
$$$$
