NGQ.pdb
     RDKit          3D

 22 21  0  0  1  0  0  0  0  0999 V2000
   11.0763  -20.9355   18.4419 N   0  0  0  0  0  0  0  0  0  0  0  0
   10.5388  -19.7033   17.9327 C   0  0  0  0  0  0  0  0  0  0  0  0
   10.8878  -19.3956   16.7786 O   0  0  0  0  0  0  0  0  0  0  0  0
    9.6437  -18.8817   18.7332 C   0  0  0  0  0  0  0  0  0  0  0  0
   10.0769  -17.4499   18.9318 C   0  0  2  0  0  0  0  0  0  0  0  0
   11.5626  -17.4726   19.0723 N   0  0  0  0  0  0  0  0  0  0  0  0
    9.5588  -16.8785   20.1923 C   0  0  0  0  0  0  0  0  0  0  0  0
    8.3014  -16.7476   20.2997 O   0  0  0  0  0  0  0  0  0  0  0  0
   10.3770  -16.4773   21.2774 N   0  0  0  0  0  0  0  0  0  0  0  0
    9.7341  -16.0348   22.4872 C   0  0  0  0  0  0  0  0  0  0  0  0
   10.3929  -16.4028   23.7335 C   0  0  0  0  0  0  0  0  0  0  0  0
   11.5256  -16.9882   23.6189 O   0  0  0  0  0  0  0  0  0  0  0  0
    8.6405  -12.9635   28.3449 N   0  0  0  0  0  0  0  0  0  0  0  0
    9.9092  -13.5691   28.4637 C   0  0  0  0  0  0  0  0  0  0  0  0
   10.5919  -13.5341   29.4926 O   0  0  0  0  0  0  0  0  0  0  0  0
   10.4510  -14.2984   27.2560 C   0  0  0  0  0  0  0  0  0  0  0  0
   10.1132  -15.7415   27.3493 C   0  0  0  0  0  0  0  0  0  0  0  0
   10.7122  -16.5094   26.2030 C   0  0  2  0  0  0  0  0  0  0  0  0
    9.8935  -16.1708   25.0283 N   0  0  0  0  0  0  0  0  0  0  0  0
   10.6353  -17.9627   26.3982 C   0  0  0  0  0  0  0  0  0  0  0  0
   11.4571  -18.5834   27.1086 O   0  0  0  0  0  0  0  0  0  0  0  0
    9.6215  -18.7338   25.7876 O   0  0  0  0  0  0  0  0  0  0  0  0
  2  1  1  0
  3  2  2  0
  4  2  1  0
  5  4  1  0
  5  6  1  1
  7  5  1  0
  7  8  2  0
  9  7  1  0
 10  9  1  0
 10 11  1  0
 11 12  2  0
 11 19  1  0
 14 15  2  0
 14 13  1  0
 16 14  1  0
 17 16  1  0
 18 17  1  1
 19 18  1  0
 20 18  1  0
 20 22  1  0
 21 20  2  0
M  END
$$$$
