NGQ.pdb
     RDKit          3D

 22 21  0  0  1  0  0  0  0  0999 V2000
    7.6010  -12.2080   17.4223 N   0  0  0  0  0  0  0  0  0  0  0  0
    7.9711  -13.5328   17.8399 C   0  0  0  0  0  0  0  0  0  0  0  0
    8.8665  -14.0813   17.1723 O   0  0  0  0  0  0  0  0  0  0  0  0
    7.3264  -14.1746   18.9756 C   0  0  0  0  0  0  0  0  0  0  0  0
    7.9145  -13.8504   20.3270 C   0  0  2  0  0  0  0  0  0  0  0  0
    9.3776  -14.1289   20.2300 N   0  0  0  0  0  0  0  0  0  0  0  0
    7.4014  -14.7412   21.3885 C   0  0  0  0  0  0  0  0  0  0  0  0
    6.1569  -14.7014   21.6320 O   0  0  0  0  0  0  0  0  0  0  0  0
    8.2105  -15.6304   22.1385 N   0  0  0  0  0  0  0  0  0  0  0  0
    7.6041  -16.3445   23.2317 C   0  0  0  0  0  0  0  0  0  0  0  0
    8.4989  -17.1705   24.0314 C   0  0  0  0  0  0  0  0  0  0  0  0
    9.6256  -17.4591   23.4964 O   0  0  0  0  0  0  0  0  0  0  0  0
    8.7799  -13.5485   27.7423 N   0  0  0  0  0  0  0  0  0  0  0  0
    9.7138  -14.3261   28.4590 C   0  0  0  0  0  0  0  0  0  0  0  0
   10.3767  -13.8978   29.4093 O   0  0  0  0  0  0  0  0  0  0  0  0
    9.9035  -15.7623   28.0287 C   0  0  0  0  0  0  0  0  0  0  0  0
    9.0089  -16.0640   26.8823 C   0  0  0  0  0  0  0  0  0  0  0  0
    9.2084  -17.4750   26.4011 C   0  0  2  0  0  0  0  0  0  0  0  0
    8.2292  -17.6672   25.3199 N   0  0  0  0  0  0  0  0  0  0  0  0
    8.9254  -18.4701   27.4432 C   0  0  0  0  0  0  0  0  0  0  0  0
    7.7926  -18.9818   27.5849 O   0  0  0  0  0  0  0  0  0  0  0  0
    9.9274  -18.8990   28.3417 O   0  0  0  0  0  0  0  0  0  0  0  0
  2  1  1  0
  3  2  2  0
  4  2  1  0
  5  4  1  0
  5  6  1  6
  7  5  1  0
  7  8  2  0
  9  7  1  0
 10  9  1  0
 10 11  1  0
 11 12  2  0
 11 19  1  0
 14 15  2  0
 14 13  1  0
 16 14  1  0
 17 16  1  0
 18 17  1  1
 19 18  1  0
 20 18  1  0
 20 22  1  0
 21 20  2  0
M  END
$$$$
