NGQ.pdb
     RDKit          3D

 22 21  0  0  1  0  0  0  0  0999 V2000
    4.9824  -19.9247   23.5281 N   0  0  0  0  0  0  0  0  0  0  0  0
    5.5845  -19.7850   22.2302 C   0  0  0  0  0  0  0  0  0  0  0  0
    5.1222  -20.5171   21.3365 O   0  0  0  0  0  0  0  0  0  0  0  0
    6.6661  -18.8401   21.9970 C   0  0  0  0  0  0  0  0  0  0  0  0
    7.9973  -19.4507   21.6331 C   0  0  2  0  0  0  0  0  0  0  0  0
    8.2912  -20.4777   22.6754 N   0  0  0  0  0  0  0  0  0  0  0  0
    9.1009  -18.4707   21.7064 C   0  0  0  0  0  0  0  0  0  0  0  0
   10.2851  -18.9258   21.7137 O   0  0  0  0  0  0  0  0  0  0  0  0
    8.9138  -17.0673   21.7640 N   0  0  0  0  0  0  0  0  0  0  0  0
   10.0806  -16.2282   21.8487 C   0  0  0  0  0  0  0  0  0  0  0  0
   10.7122  -16.1406   23.1586 C   0  0  0  0  0  0  0  0  0  0  0  0
   11.7954  -15.4607   23.2159 O   0  0  0  0  0  0  0  0  0  0  0  0
   10.1451  -13.5823   29.5849 N   0  0  0  0  0  0  0  0  0  0  0  0
    9.8013  -13.9830   28.2766 C   0  0  0  0  0  0  0  0  0  0  0  0
    8.8631  -13.4984   27.6355 O   0  0  0  0  0  0  0  0  0  0  0  0
   10.6369  -15.0669   27.6357 C   0  0  0  0  0  0  0  0  0  0  0  0
   10.0636  -15.4251   26.3133 C   0  0  0  0  0  0  0  0  0  0  0  0
   10.9097  -16.4593   25.6226 C   0  0  2  0  0  0  0  0  0  0  0  0
   10.2362  -16.7322   24.3433 N   0  0  0  0  0  0  0  0  0  0  0  0
   10.9778  -17.7211   26.3705 C   0  0  0  0  0  0  0  0  0  0  0  0
   10.2354  -18.6928   26.1058 O   0  0  0  0  0  0  0  0  0  0  0  0
   11.8923  -17.8979   27.4324 O   0  0  0  0  0  0  0  0  0  0  0  0
  2  1  1  0
  3  2  2  0
  4  2  1  0
  5  4  1  0
  5  6  1  1
  7  5  1  0
  7  8  2  0
  9  7  1  0
 10  9  1  0
 10 11  1  0
 11 12  2  0
 11 19  1  0
 14 15  2  0
 14 13  1  0
 16 14  1  0
 17 16  1  0
 18 17  1  1
 19 18  1  0
 20 18  1  0
 20 22  1  0
 21 20  2  0
M  END
$$$$
