NGQ.pdb
     RDKit          3D

 22 21  0  0  1  0  0  0  0  0999 V2000
    9.5984  -18.7600   17.8263 N   0  0  0  0  0  0  0  0  0  0  0  0
   10.5403  -18.0639   16.9927 C   0  0  0  0  0  0  0  0  0  0  0  0
   10.1892  -17.8822   15.8129 O   0  0  0  0  0  0  0  0  0  0  0  0
   11.8194  -17.6083   17.5158 C   0  0  0  0  0  0  0  0  0  0  0  0
   12.1103  -17.9881   18.9471 C   0  0  2  0  0  0  0  0  0  0  0  0
   11.2014  -19.1252   19.2765 N   0  0  0  0  0  0  0  0  0  0  0  0
   11.7666  -16.9066   19.8936 C   0  0  0  0  0  0  0  0  0  0  0  0
   12.5757  -15.9337   19.9860 O   0  0  0  0  0  0  0  0  0  0  0  0
   10.5958  -16.8924   20.6916 N   0  0  0  0  0  0  0  0  0  0  0  0
   10.5996  -16.0965   21.8913 C   0  0  0  0  0  0  0  0  0  0  0  0
   10.5648  -16.8329   23.1480 C   0  0  0  0  0  0  0  0  0  0  0  0
    9.5697  -17.6218   23.3097 O   0  0  0  0  0  0  0  0  0  0  0  0
   11.8139  -21.6154   22.2561 N   0  0  0  0  0  0  0  0  0  0  0  0
   12.3532  -20.8157   23.2857 C   0  0  0  0  0  0  0  0  0  0  0  0
   13.4576  -21.0157   23.8019 O   0  0  0  0  0  0  0  0  0  0  0  0
   11.5220  -19.6523   23.7748 C   0  0  0  0  0  0  0  0  0  0  0  0
   12.2715  -18.9038   24.8156 C   0  0  0  0  0  0  0  0  0  0  0  0
   11.4874  -17.7112   25.2902 C   0  0  2  0  0  0  0  0  0  0  0  0
   11.5191  -16.7480   24.1785 N   0  0  0  0  0  0  0  0  0  0  0  0
   12.0978  -17.0656   26.4593 C   0  0  0  0  0  0  0  0  0  0  0  0
   12.1571  -17.6281   27.5752 O   0  0  0  0  0  0  0  0  0  0  0  0
   12.6509  -15.7684   26.3774 O   0  0  0  0  0  0  0  0  0  0  0  0
  2  1  1  0
  3  2  2  0
  4  2  1  0
  5  4  1  0
  5  6  1  1
  7  5  1  0
  7  8  2  0
  9  7  1  0
 10  9  1  0
 10 11  1  0
 11 12  2  0
 11 19  1  0
 14 15  2  0
 14 13  1  0
 16 14  1  0
 17 16  1  0
 18 17  1  6
 19 18  1  0
 20 18  1  0
 20 22  1  0
 21 20  2  0
M  END
$$$$
