NGQ.pdb
     RDKit          3D

 22 21  0  0  1  0  0  0  0  0999 V2000
    7.8060  -18.1094   16.3405 N   0  0  0  0  0  0  0  0  0  0  0  0
    7.6957  -17.0159   17.2670 C   0  0  0  0  0  0  0  0  0  0  0  0
    8.0053  -15.8956   16.8226 O   0  0  0  0  0  0  0  0  0  0  0  0
    7.2477  -17.2271   18.6351 C   0  0  0  0  0  0  0  0  0  0  0  0
    8.0666  -16.5424   19.7018 C   0  0  2  0  0  0  0  0  0  0  0  0
    9.3675  -17.2708   19.7697 N   0  0  0  0  0  0  0  0  0  0  0  0
    7.4589  -16.6714   21.0425 C   0  0  0  0  0  0  0  0  0  0  0  0
    6.4372  -15.9613   21.2904 O   0  0  0  0  0  0  0  0  0  0  0  0
    7.9442  -17.5368   22.0542 N   0  0  0  0  0  0  0  0  0  0  0  0
    7.2649  -17.5483   23.3234 C   0  0  0  0  0  0  0  0  0  0  0  0
    7.6761  -16.5281   24.2787 C   0  0  0  0  0  0  0  0  0  0  0  0
    7.3270  -16.7235   25.4948 O   0  0  0  0  0  0  0  0  0  0  0  0
    6.3352  -10.5917   26.1867 N   0  0  0  0  0  0  0  0  0  0  0  0
    6.3314  -11.9314   26.6289 C   0  0  0  0  0  0  0  0  0  0  0  0
    5.3539  -12.4787   27.1496 O   0  0  0  0  0  0  0  0  0  0  0  0
    7.6017  -12.7300   26.4491 C   0  0  0  0  0  0  0  0  0  0  0  0
    7.4866  -13.5892   25.2432 C   0  0  0  0  0  0  0  0  0  0  0  0
    8.7343  -14.4049   25.0429 C   0  0  2  0  0  0  0  0  0  0  0  0
    8.4119  -15.3672   23.9777 N   0  0  0  0  0  0  0  0  0  0  0  0
    9.1043  -15.1702   26.2403 C   0  0  0  0  0  0  0  0  0  0  0  0
   10.0525  -14.8289   26.9818 O   0  0  0  0  0  0  0  0  0  0  0  0
    8.4012  -16.3371   26.6133 O   0  0  0  0  0  0  0  0  0  0  0  0
  2  1  1  0
  3  2  2  0
  4  2  1  0
  5  4  1  0
  5  6  1  1
  7  5  1  0
  7  8  2  0
  9  7  1  0
 10  9  1  0
 10 11  1  0
 11 12  2  0
 11 19  1  0
 14 15  2  0
 14 13  1  0
 16 14  1  0
 17 16  1  0
 18 17  1  1
 19 18  1  0
 20 18  1  0
 20 22  1  0
 21 20  2  0
M  END
$$$$
