NGQ.pdb
     RDKit          3D

 22 21  0  0  1  0  0  0  0  0999 V2000
    8.1034  -14.7440   16.3460 N   0  0  0  0  0  0  0  0  0  0  0  0
    8.5277  -13.7520   17.2960 C   0  0  0  0  0  0  0  0  0  0  0  0
    8.7259  -12.6122   16.8376 O   0  0  0  0  0  0  0  0  0  0  0  0
    8.7080  -14.0808   18.7018 C   0  0  0  0  0  0  0  0  0  0  0  0
    8.3773  -15.5022   19.0859 C   0  0  2  0  0  0  0  0  0  0  0  0
    6.8881  -15.5987   19.1103 N   0  0  0  0  0  0  0  0  0  0  0  0
    8.8277  -15.8310   20.4544 C   0  0  0  0  0  0  0  0  0  0  0  0
   10.0786  -15.8869   20.6589 O   0  0  0  0  0  0  0  0  0  0  0  0
    7.9518  -16.0802   21.5400 N   0  0  0  0  0  0  0  0  0  0  0  0
    8.4862  -16.7237   22.7117 C   0  0  0  0  0  0  0  0  0  0  0  0
    9.0286  -15.8406   23.7357 C   0  0  0  0  0  0  0  0  0  0  0  0
   10.2399  -15.4622   23.5673 O   0  0  0  0  0  0  0  0  0  0  0  0
    6.5547  -11.4886   26.9222 N   0  0  0  0  0  0  0  0  0  0  0  0
    5.9178  -12.5842   26.3021 C   0  0  0  0  0  0  0  0  0  0  0  0
    4.7096  -12.6206   26.0475 O   0  0  0  0  0  0  0  0  0  0  0  0
    6.7746  -13.7735   25.9340 C   0  0  0  0  0  0  0  0  0  0  0  0
    8.1817  -13.5206   26.3360 C   0  0  0  0  0  0  0  0  0  0  0  0
    9.0702  -14.6654   25.9331 C   0  0  2  0  0  0  0  0  0  0  0  0
    8.3410  -15.3792   24.8733 N   0  0  0  0  0  0  0  0  0  0  0  0
    9.3018  -15.6114   27.0321 C   0  0  0  0  0  0  0  0  0  0  0  0
    8.8232  -16.7673   27.0273 O   0  0  0  0  0  0  0  0  0  0  0  0
   10.0821  -15.2572   28.1549 O   0  0  0  0  0  0  0  0  0  0  0  0
  2  1  1  0
  3  2  2  0
  4  2  1  0
  5  4  1  0
  5  6  1  1
  7  5  1  0
  7  8  2  0
  9  7  1  0
 10  9  1  0
 10 11  1  0
 11 12  2  0
 11 19  1  0
 14 15  2  0
 14 13  1  0
 16 14  1  0
 17 16  1  0
 18 17  1  1
 19 18  1  0
 20 18  1  0
 20 22  1  0
 21 20  2  0
M  END
$$$$
