NGQ.pdb
     RDKit          3D

 22 21  0  0  1  0  0  0  0  0999 V2000
    5.7702  -13.6363   17.4167 N   0  0  0  0  0  0  0  0  0  0  0  0
    7.2072  -13.6566   17.3850 C   0  0  0  0  0  0  0  0  0  0  0  0
    7.7234  -14.6490   16.8400 O   0  0  0  0  0  0  0  0  0  0  0  0
    7.9909  -12.5738   17.9599 C   0  0  0  0  0  0  0  0  0  0  0  0
    9.0912  -12.9955   18.9027 C   0  0  2  0  0  0  0  0  0  0  0  0
    9.8777  -14.0464   18.1924 N   0  0  0  0  0  0  0  0  0  0  0  0
    8.5648  -13.6390   20.1244 C   0  0  0  0  0  0  0  0  0  0  0  0
    7.8665  -12.9236   20.9056 O   0  0  0  0  0  0  0  0  0  0  0  0
    8.7895  -14.9955   20.4670 N   0  0  0  0  0  0  0  0  0  0  0  0
    8.2605  -15.4786   21.7158 C   0  0  0  0  0  0  0  0  0  0  0  0
    9.1944  -15.5200   22.8332 C   0  0  0  0  0  0  0  0  0  0  0  0
   10.4251  -15.3169   22.5450 O   0  0  0  0  0  0  0  0  0  0  0  0
   10.2871  -14.0660   29.8748 N   0  0  0  0  0  0  0  0  0  0  0  0
    9.5617  -14.1636   28.6687 C   0  0  0  0  0  0  0  0  0  0  0  0
    8.4182  -13.7210   28.5187 O   0  0  0  0  0  0  0  0  0  0  0  0
   10.2341  -14.8509   27.5028 C   0  0  0  0  0  0  0  0  0  0  0  0
    9.2832  -14.9554   26.3669 C   0  0  0  0  0  0  0  0  0  0  0  0
    9.8992  -15.7038   25.2167 C   0  0  2  0  0  0  0  0  0  0  0  0
    8.8586  -15.7610   24.1782 N   0  0  0  0  0  0  0  0  0  0  0  0
   10.2554  -17.0839   25.5698 C   0  0  0  0  0  0  0  0  0  0  0  0
    9.4517  -18.0335   25.4371 O   0  0  0  0  0  0  0  0  0  0  0  0
   11.5325  -17.4060   26.0801 O   0  0  0  0  0  0  0  0  0  0  0  0
  2  1  1  0
  3  2  2  0
  4  2  1  0
  5  4  1  0
  5  6  1  6
  7  5  1  0
  7  8  2  0
  9  7  1  0
 10  9  1  0
 10 11  1  0
 11 12  2  0
 11 19  1  0
 14 15  2  0
 14 13  1  0
 16 14  1  0
 17 16  1  0
 18 17  1  1
 19 18  1  0
 20 18  1  0
 20 22  1  0
 21 20  2  0
M  END
$$$$
