NGQ.pdb
     RDKit          3D

 22 21  0  0  1  0  0  0  0  0999 V2000
    1.1573  -19.3764   20.7925 N   0  0  0  0  0  0  0  0  0  0  0  0
    2.1426  -19.1972   21.8238 C   0  0  0  0  0  0  0  0  0  0  0  0
    1.9494  -19.8347   22.8748 O   0  0  0  0  0  0  0  0  0  0  0  0
    3.2875  -18.3203   21.6305 C   0  0  0  0  0  0  0  0  0  0  0  0
    4.6290  -18.9126   21.9869 C   0  0  2  0  0  0  0  0  0  0  0  0
    4.6266  -19.1063   23.4668 N   0  0  0  0  0  0  0  0  0  0  0  0
    5.7435  -17.9854   21.7009 C   0  0  0  0  0  0  0  0  0  0  0  0
    6.0833  -17.8389   20.4873 O   0  0  0  0  0  0  0  0  0  0  0  0
    6.4436  -17.2555   22.6934 N   0  0  0  0  0  0  0  0  0  0  0  0
    7.4640  -16.3337   22.2673 C   0  0  0  0  0  0  0  0  0  0  0  0
    8.2333  -15.6957   23.3273 C   0  0  0  0  0  0  0  0  0  0  0  0
    7.7095  -14.6519   23.8517 O   0  0  0  0  0  0  0  0  0  0  0  0
   10.1775  -16.3902   28.6021 N   0  0  0  0  0  0  0  0  0  0  0  0
   10.0573  -14.9940   28.4391 C   0  0  0  0  0  0  0  0  0  0  0  0
   10.2360  -14.1795   29.3505 O   0  0  0  0  0  0  0  0  0  0  0  0
    9.6887  -14.4800   27.0666 C   0  0  0  0  0  0  0  0  0  0  0  0
    9.5441  -15.6209   26.1268 C   0  0  0  0  0  0  0  0  0  0  0  0
   10.2020  -15.3184   24.8085 C   0  0  2  0  0  0  0  0  0  0  0  0
    9.4822  -16.1265   23.8117 N   0  0  0  0  0  0  0  0  0  0  0  0
   11.6132  -15.7232   24.7780 C   0  0  0  0  0  0  0  0  0  0  0  0
   12.5297  -14.9732   25.1815 O   0  0  0  0  0  0  0  0  0  0  0  0
   12.0046  -16.9887   24.2875 O   0  0  0  0  0  0  0  0  0  0  0  0
  2  1  1  0
  3  2  2  0
  4  2  1  0
  5  4  1  0
  5  6  1  1
  7  5  1  0
  7  8  2  0
  9  7  1  0
 10  9  1  0
 10 11  1  0
 11 12  2  0
 11 19  1  0
 14 15  2  0
 14 13  1  0
 16 14  1  0
 17 16  1  0
 18 17  1  1
 19 18  1  0
 20 18  1  0
 20 22  1  0
 21 20  2  0
M  END
$$$$
