NGQ.pdb
     RDKit          3D

 22 21  0  0  1  0  0  0  0  0999 V2000
    9.1815  -21.0068   19.7854 N   0  0  0  0  0  0  0  0  0  0  0  0
    9.4188  -19.7923   19.0538 C   0  0  0  0  0  0  0  0  0  0  0  0
   10.5791  -19.3459   19.1060 O   0  0  0  0  0  0  0  0  0  0  0  0
    8.3545  -19.1413   18.3050 C   0  0  0  0  0  0  0  0  0  0  0  0
    8.3930  -17.6328   18.2962 C   0  0  2  0  0  0  0  0  0  0  0  0
    9.8227  -17.2446   18.4774 N   0  0  0  0  0  0  0  0  0  0  0  0
    7.6655  -17.0480   19.4418 C   0  0  0  0  0  0  0  0  0  0  0  0
    6.3994  -17.1296   19.4316 O   0  0  0  0  0  0  0  0  0  0  0  0
    8.2947  -16.4125   20.5410 N   0  0  0  0  0  0  0  0  0  0  0  0
    7.4715  -15.9835   21.6414 C   0  0  0  0  0  0  0  0  0  0  0  0
    8.1727  -15.3873   22.7708 C   0  0  0  0  0  0  0  0  0  0  0  0
    9.4490  -15.4849   22.7549 O   0  0  0  0  0  0  0  0  0  0  0  0
    5.7588  -12.2505   27.4984 N   0  0  0  0  0  0  0  0  0  0  0  0
    6.3298  -11.5144   26.4389 C   0  0  0  0  0  0  0  0  0  0  0  0
    6.1128  -10.3142   26.2429 O   0  0  0  0  0  0  0  0  0  0  0  0
    7.2574  -12.2486   25.4985 C   0  0  0  0  0  0  0  0  0  0  0  0
    7.4381  -13.6472   25.9639 C   0  0  0  0  0  0  0  0  0  0  0  0
    8.3660  -14.4020   25.0520 C   0  0  2  0  0  0  0  0  0  0  0  0
    7.5709  -14.7255   23.8570 N   0  0  0  0  0  0  0  0  0  0  0  0
    8.8262  -15.6668   25.6391 C   0  0  0  0  0  0  0  0  0  0  0  0
    8.1885  -16.7346   25.5035 O   0  0  0  0  0  0  0  0  0  0  0  0
   10.0201  -15.7370   26.3907 O   0  0  0  0  0  0  0  0  0  0  0  0
  2  1  1  0
  3  2  2  0
  4  2  1  0
  5  4  1  0
  5  6  1  1
  7  5  1  0
  7  8  2  0
  9  7  1  0
 10  9  1  0
 10 11  1  0
 11 12  2  0
 11 19  1  0
 14 15  2  0
 14 13  1  0
 16 14  1  0
 17 16  1  0
 18 17  1  1
 19 18  1  0
 20 18  1  0
 20 22  1  0
 21 20  2  0
M  END
$$$$
