NGQ.pdb
     RDKit          3D

 22 21  0  0  1  0  0  0  0  0999 V2000
   11.1470  -13.2575   19.3893 N   0  0  0  0  0  0  0  0  0  0  0  0
   10.8231  -14.4820   18.7096 C   0  0  0  0  0  0  0  0  0  0  0  0
   11.6203  -15.4226   18.8778 O   0  0  0  0  0  0  0  0  0  0  0  0
    9.6320  -14.5941   17.8814 C   0  0  0  0  0  0  0  0  0  0  0  0
    8.3578  -14.0724   18.4991 C   0  0  2  0  0  0  0  0  0  0  0  0
    8.5908  -12.6280   18.7943 N   0  0  0  0  0  0  0  0  0  0  0  0
    8.0646  -14.7102   19.7995 C   0  0  0  0  0  0  0  0  0  0  0  0
    7.8452  -15.9598   19.7996 O   0  0  0  0  0  0  0  0  0  0  0  0
    8.0195  -14.0141   21.0328 N   0  0  0  0  0  0  0  0  0  0  0  0
    7.6325  -14.7435   22.2122 C   0  0  0  0  0  0  0  0  0  0  0  0
    8.7016  -15.0548   23.1517 C   0  0  0  0  0  0  0  0  0  0  0  0
    9.8946  -14.8616   22.7297 O   0  0  0  0  0  0  0  0  0  0  0  0
   10.5629  -14.6242   30.1088 N   0  0  0  0  0  0  0  0  0  0  0  0
    9.8870  -14.2972   28.9143 C   0  0  0  0  0  0  0  0  0  0  0  0
    8.9440  -13.5013   28.8561 O   0  0  0  0  0  0  0  0  0  0  0  0
   10.3538  -14.9658   27.6420 C   0  0  0  0  0  0  0  0  0  0  0  0
    9.2574  -14.9571   26.6403 C   0  0  0  0  0  0  0  0  0  0  0  0
    9.6867  -15.6328   25.3669 C   0  0  2  0  0  0  0  0  0  0  0  0
    8.5312  -15.5417   24.4608 N   0  0  0  0  0  0  0  0  0  0  0  0
    9.9924  -17.0559   25.5607 C   0  0  0  0  0  0  0  0  0  0  0  0
   11.0699  -17.4427   26.0652 O   0  0  0  0  0  0  0  0  0  0  0  0
    9.0763  -18.0626   25.1831 O   0  0  0  0  0  0  0  0  0  0  0  0
  2  1  1  0
  3  2  2  0
  4  2  1  0
  5  4  1  0
  5  6  1  1
  7  5  1  0
  7  8  2  0
  9  7  1  0
 10  9  1  0
 10 11  1  0
 11 12  2  0
 11 19  1  0
 14 15  2  0
 14 13  1  0
 16 14  1  0
 17 16  1  0
 18 17  1  1
 19 18  1  0
 20 18  1  0
 20 22  1  0
 21 20  2  0
M  END
$$$$
