GCK.pdb
     RDKit          3D

 20 19  0  0  1  0  0  0  0  0999 V2000
   28.4342  -21.7341  -15.9882 N   0  0  0  0  0  0  0  0  0  0  0  0
   28.0937  -20.8283  -14.9328 C   0  0  0  0  0  0  0  0  0  0  0  0
   26.9930  -21.3305  -14.0868 C   0  0  0  0  0  0  0  0  0  0  0  0
   26.1289  -22.1458  -14.4999 O   0  0  0  0  0  0  0  0  0  0  0  0
   26.8829  -20.8899  -12.7465 N   0  0  0  0  0  0  0  0  0  0  0  0
   25.8122  -21.2221  -11.8644 C   0  0  1  0  0  0  0  0  0  0  0  0
   26.0875  -20.7890  -10.4421 C   0  0  0  0  0  0  0  0  0  0  0  0
   24.5865  -21.0360   -9.4385 S   0  0  0  0  0  0  0  0  0  0  0  0
   24.5098  -20.6410  -12.2751 C   0  0  0  0  0  0  0  0  0  0  0  0
   24.3649  -19.3994  -12.3606 O   0  0  0  0  0  0  0  0  0  0  0  0
   23.4107  -21.4666  -12.5772 N   0  0  0  0  0  0  0  0  0  0  0  0
   22.1778  -20.8537  -13.0668 C   0  0  1  0  0  0  0  0  0  0  0  0
   21.7096  -21.5470  -14.3164 C   0  0  0  0  0  0  0  0  0  0  0  0
   20.4053  -20.9481  -14.7569 C   0  0  0  0  0  0  0  0  0  0  0  0
   20.5223  -20.3314  -16.1497 C   0  0  0  0  0  0  0  0  0  0  0  0
   19.1411  -19.7625  -16.4643 C   0  0  0  0  0  0  0  0  0  0  0  0
   19.2098  -18.9974  -17.6730 N   0  0  0  0  0  0  0  0  0  0  0  0
   21.1660  -20.7899  -12.0139 C   0  0  0  0  0  0  0  0  0  0  0  0
   21.0988  -21.7574  -11.1837 O   0  0  0  0  0  0  0  0  0  0  0  0
   20.2622  -19.7682  -11.8222 O   0  0  0  0  0  0  0  0  0  0  0  0
  1  2  1  0
  3  2  1  0
  3  5  1  0
  4  3  2  0
  6  5  1  0
  6  7  1  1
  8  7  1  0
  9  6  1  0
 10  9  2  0
 11  9  1  0
 12 13  1  6
 12 11  1  0
 13 14  1  0
 14 15  1  0
 15 16  1  0
 16 17  1  0
 18 12  1  0
 19 18  2  0
 20 18  1  0
M  END
$$$$
