GCK.pdb
     RDKit          3D

 20 19  0  0  1  0  0  0  0  0999 V2000
   28.4556  -18.9199  -16.2709 N   0  0  0  0  0  0  0  0  0  0  0  0
   27.8574  -18.5042  -15.0382 C   0  0  0  0  0  0  0  0  0  0  0  0
   27.3251  -19.6369  -14.2551 C   0  0  0  0  0  0  0  0  0  0  0  0
   27.3885  -20.8303  -14.6472 O   0  0  0  0  0  0  0  0  0  0  0  0
   26.7110  -19.3955  -13.0032 N   0  0  0  0  0  0  0  0  0  0  0  0
   26.1448  -20.4017  -12.1653 C   0  0  1  0  0  0  0  0  0  0  0  0
   26.0441  -19.9557  -10.7241 C   0  0  0  0  0  0  0  0  0  0  0  0
   25.4062  -21.3317   -9.7135 S   0  0  0  0  0  0  0  0  0  0  0  0
   24.7967  -20.8416  -12.6030 C   0  0  0  0  0  0  0  0  0  0  0  0
   23.9324  -20.0015  -12.9453 O   0  0  0  0  0  0  0  0  0  0  0  0
   24.4576  -22.2070  -12.6440 N   0  0  0  0  0  0  0  0  0  0  0  0
   23.1980  -22.6057  -13.2686 C   0  0  1  0  0  0  0  0  0  0  0  0
   23.1978  -24.0831  -13.5486 C   0  0  0  0  0  0  0  0  0  0  0  0
   21.9059  -24.4618  -14.2131 C   0  0  0  0  0  0  0  0  0  0  0  0
   21.8627  -25.9563  -14.5268 C   0  0  0  0  0  0  0  0  0  0  0  0
   20.6066  -26.1630  -15.3691 C   0  0  0  0  0  0  0  0  0  0  0  0
   20.5508  -27.5254  -15.8072 N   0  0  0  0  0  0  0  0  0  0  0  0
   22.0525  -22.1550  -12.4805 C   0  0  0  0  0  0  0  0  0  0  0  0
   22.1860  -22.0784  -11.2131 O   0  0  0  0  0  0  0  0  0  0  0  0
   20.8200  -21.7944  -12.9790 O   0  0  0  0  0  0  0  0  0  0  0  0
  1  2  1  0
  3  2  1  0
  3  5  1  0
  4  3  2  0
  6  5  1  0
  6  7  1  1
  8  7  1  0
  9  6  1  0
 10  9  2  0
 11  9  1  0
 12 13  1  1
 12 11  1  0
 13 14  1  0
 14 15  1  0
 15 16  1  0
 16 17  1  0
 18 12  1  0
 19 18  2  0
 20 18  1  0
M  END
$$$$
