GCK.pdb
     RDKit          3D

 20 19  0  0  1  0  0  0  0  0999 V2000
   28.7458  -20.8932  -14.4344 N   0  0  0  0  0  0  0  0  0  0  0  0
   27.8082  -20.0117  -13.8065 C   0  0  0  0  0  0  0  0  0  0  0  0
   26.5921  -20.7107  -13.3464 C   0  0  0  0  0  0  0  0  0  0  0  0
   25.9815  -21.5569  -14.0487 O   0  0  0  0  0  0  0  0  0  0  0  0
   26.0694  -20.4340  -12.0608 N   0  0  0  0  0  0  0  0  0  0  0  0
   24.8813  -21.0114  -11.5221 C   0  0  1  0  0  0  0  0  0  0  0  0
   24.7922  -20.8418  -10.0222 C   0  0  0  0  0  0  0  0  0  0  0  0
   26.3929  -21.2852   -9.2722 S   0  0  0  0  0  0  0  0  0  0  0  0
   23.6380  -20.4633  -12.1188 C   0  0  0  0  0  0  0  0  0  0  0  0
   23.3394  -19.2554  -11.9714 O   0  0  0  0  0  0  0  0  0  0  0  0
   22.7677  -21.2831  -12.8615 N   0  0  0  0  0  0  0  0  0  0  0  0
   21.6388  -20.6700  -13.5580 C   0  0  1  0  0  0  0  0  0  0  0  0
   21.8909  -20.6433  -15.0402 C   0  0  0  0  0  0  0  0  0  0  0  0
   20.7591  -19.9316  -15.7230 C   0  0  0  0  0  0  0  0  0  0  0  0
   20.9311  -19.9478  -17.2409 C   0  0  0  0  0  0  0  0  0  0  0  0
   19.7784  -19.1138  -17.7938 C   0  0  0  0  0  0  0  0  0  0  0  0
   19.8528  -19.0950  -19.2240 N   0  0  0  0  0  0  0  0  0  0  0  0
   20.3786  -21.3103  -13.1858 C   0  0  0  0  0  0  0  0  0  0  0  0
   19.3117  -20.6105  -13.2286 O   0  0  0  0  0  0  0  0  0  0  0  0
   20.2239  -22.6203  -12.7889 O   0  0  0  0  0  0  0  0  0  0  0  0
  1  2  1  0
  3  2  1  0
  3  5  1  0
  4  3  2  0
  6  5  1  0
  6  7  1  1
  8  7  1  0
  9  6  1  0
 10  9  2  0
 11  9  1  0
 12 13  1  6
 12 11  1  0
 13 14  1  0
 14 15  1  0
 15 16  1  0
 16 17  1  0
 18 12  1  0
 19 18  2  0
 20 18  1  0
M  END
$$$$
