GCK.pdb
     RDKit          3D

 20 19  0  0  1  0  0  0  0  0999 V2000
   27.6830  -11.1233  -16.3343 N   0  0  0  0  0  0  0  0  0  0  0  0
   26.7011  -10.9622  -15.3046 C   0  0  0  0  0  0  0  0  0  0  0  0
   25.3667  -10.6271  -15.8399 C   0  0  0  0  0  0  0  0  0  0  0  0
   25.1408  -10.4706  -17.0673 O   0  0  0  0  0  0  0  0  0  0  0  0
   24.2757  -10.4693  -14.9526 N   0  0  0  0  0  0  0  0  0  0  0  0
   22.9289  -10.2215  -15.3524 C   0  0  1  0  0  0  0  0  0  0  0  0
   21.9280  -10.8809  -14.4306 C   0  0  0  0  0  0  0  0  0  0  0  0
   22.0055  -12.6878  -14.6550 S   0  0  0  0  0  0  0  0  0  0  0  0
   22.5950   -8.7777  -15.4319 C   0  0  0  0  0  0  0  0  0  0  0  0
   22.9350   -7.9939  -14.5153 O   0  0  0  0  0  0  0  0  0  0  0  0
   21.8917   -8.2558  -16.5336 N   0  0  0  0  0  0  0  0  0  0  0  0
   21.6651   -6.8142  -16.6112 C   0  0  1  0  0  0  0  0  0  0  0  0
   21.7482   -6.3479  -18.0384 C   0  0  0  0  0  0  0  0  0  0  0  0
   21.5528   -4.8601  -18.0862 C   0  0  0  0  0  0  0  0  0  0  0  0
   21.5221   -4.3524  -19.5268 C   0  0  0  0  0  0  0  0  0  0  0  0
   21.2369   -2.8560  -19.4288 C   0  0  0  0  0  0  0  0  0  0  0  0
   21.1685   -2.3012  -20.7474 N   0  0  0  0  0  0  0  0  0  0  0  0
   20.4223   -6.4387  -15.9398 C   0  0  0  0  0  0  0  0  0  0  0  0
   19.4578   -7.2751  -15.9457 O   0  0  0  0  0  0  0  0  0  0  0  0
   20.1843   -5.2500  -15.2855 O   0  0  0  0  0  0  0  0  0  0  0  0
  1  2  1  0
  3  2  1  0
  3  5  1  0
  4  3  2  0
  6  5  1  0
  6  7  1  1
  8  7  1  0
  9  6  1  0
 10  9  2  0
 11  9  1  0
 12 13  1  6
 12 11  1  0
 13 14  1  0
 14 15  1  0
 15 16  1  0
 16 17  1  0
 18 12  1  0
 19 18  2  0
 20 18  1  0
M  END
$$$$
