GCK.pdb
     RDKit          3D

 20 19  0  0  1  0  0  0  0  0999 V2000
   18.8427  -10.0202  -16.3464 N   0  0  0  0  0  0  0  0  0  0  0  0
   19.1738   -8.8096  -15.6572 C   0  0  0  0  0  0  0  0  0  0  0  0
   19.0774   -8.9468  -14.1904 C   0  0  0  0  0  0  0  0  0  0  0  0
   18.4847   -9.9041  -13.6297 O   0  0  0  0  0  0  0  0  0  0  0  0
   19.6704   -7.9704  -13.3553 N   0  0  0  0  0  0  0  0  0  0  0  0
   19.6075   -7.9695  -11.9301 C   0  0  1  0  0  0  0  0  0  0  0  0
   20.8297   -7.3367  -11.3040 C   0  0  0  0  0  0  0  0  0  0  0  0
   21.0438   -5.6550  -11.9727 S   0  0  0  0  0  0  0  0  0  0  0  0
   18.4092   -7.2769  -11.3946 C   0  0  0  0  0  0  0  0  0  0  0  0
   18.0187   -6.1981  -11.8983 O   0  0  0  0  0  0  0  0  0  0  0  0
   17.6852   -7.8124  -10.3128 N   0  0  0  0  0  0  0  0  0  0  0  0
   16.4372   -7.1691   -9.9079 C   0  0  1  0  0  0  0  0  0  0  0  0
   15.5195   -8.1693   -9.2607 C   0  0  0  0  0  0  0  0  0  0  0  0
   14.2036   -7.5124   -8.9591 C   0  0  0  0  0  0  0  0  0  0  0  0
   13.2198   -8.5036   -8.3397 C   0  0  0  0  0  0  0  0  0  0  0  0
   11.9437   -7.7074   -8.0796 C   0  0  0  0  0  0  0  0  0  0  0  0
   10.9391   -8.5836   -7.5558 N   0  0  0  0  0  0  0  0  0  0  0  0
   16.6948   -5.9879   -9.0865 C   0  0  0  0  0  0  0  0  0  0  0  0
   15.8696   -5.0160   -9.1534 O   0  0  0  0  0  0  0  0  0  0  0  0
   17.7585   -5.8166   -8.2281 O   0  0  0  0  0  0  0  0  0  0  0  0
  1  2  1  0
  3  2  1  0
  3  5  1  0
  4  3  2  0
  6  5  1  0
  6  7  1  1
  8  7  1  0
  9  6  1  0
 10  9  2  0
 11  9  1  0
 12 13  1  1
 12 11  1  0
 13 14  1  0
 14 15  1  0
 15 16  1  0
 16 17  1  0
 18 12  1  0
 19 18  2  0
 20 18  1  0
M  END
$$$$
