GCK.pdb
     RDKit          3D

 20 19  0  0  1  0  0  0  0  0999 V2000
   23.0059  -20.5069  -14.9756 N   0  0  0  0  0  0  0  0  0  0  0  0
   23.3743  -19.6416  -16.0553 C   0  0  0  0  0  0  0  0  0  0  0  0
   23.5402  -18.2385  -15.6270 C   0  0  0  0  0  0  0  0  0  0  0  0
   22.6223  -17.5772  -15.0773 O   0  0  0  0  0  0  0  0  0  0  0  0
   24.7785  -17.5852  -15.8331 N   0  0  0  0  0  0  0  0  0  0  0  0
   25.0016  -16.1870  -15.6586 C   0  0  1  0  0  0  0  0  0  0  0  0
   26.4582  -15.8671  -15.4086 C   0  0  0  0  0  0  0  0  0  0  0  0
   26.6197  -14.1035  -14.9787 S   0  0  0  0  0  0  0  0  0  0  0  0
   24.5454  -15.3702  -16.8106 C   0  0  0  0  0  0  0  0  0  0  0  0
   24.8525  -15.6930  -17.9817 O   0  0  0  0  0  0  0  0  0  0  0  0
   23.7604  -14.2182  -16.6168 N   0  0  0  0  0  0  0  0  0  0  0  0
   23.3155  -13.4595  -17.7838 C   0  0  1  0  0  0  0  0  0  0  0  0
   21.9069  -12.9723  -17.5849 C   0  0  0  0  0  0  0  0  0  0  0  0
   21.3885  -12.4124  -18.8778 C   0  0  0  0  0  0  0  0  0  0  0  0
   19.9268  -11.9869  -18.7497 C   0  0  0  0  0  0  0  0  0  0  0  0
   19.5211  -11.4890  -20.1345 C   0  0  0  0  0  0  0  0  0  0  0  0
   18.1297  -11.1494  -20.1251 N   0  0  0  0  0  0  0  0  0  0  0  0
   24.2646  -12.3988  -18.1166 C   0  0  0  0  0  0  0  0  0  0  0  0
   24.2384  -11.9160  -19.2981 O   0  0  0  0  0  0  0  0  0  0  0  0
   25.2007  -11.8553  -17.2646 O   0  0  0  0  0  0  0  0  0  0  0  0
  1  2  1  0
  3  2  1  0
  3  5  1  0
  4  3  2  0
  6  5  1  0
  6  7  1  6
  8  7  1  0
  9  6  1  0
 10  9  2  0
 11  9  1  0
 12 13  1  1
 12 11  1  0
 13 14  1  0
 14 15  1  0
 15 16  1  0
 16 17  1  0
 18 12  1  0
 19 18  2  0
 20 18  1  0
M  END
$$$$
