GCK.pdb
     RDKit          3D

 20 19  0  0  1  0  0  0  0  0999 V2000
   18.1018  -10.9871  -14.7311 N   0  0  0  0  0  0  0  0  0  0  0  0
   18.5674  -10.0189  -15.6777 C   0  0  0  0  0  0  0  0  0  0  0  0
   18.9124   -8.7292  -15.0477 C   0  0  0  0  0  0  0  0  0  0  0  0
   18.0730   -8.0195  -14.4363 O   0  0  0  0  0  0  0  0  0  0  0  0
   20.2409   -8.2473  -15.1208 N   0  0  0  0  0  0  0  0  0  0  0  0
   20.7098   -7.0514  -14.5004 C   0  0  1  0  0  0  0  0  0  0  0  0
   22.0831   -7.2234  -13.8914 C   0  0  0  0  0  0  0  0  0  0  0  0
   22.5664   -5.6779  -13.0553 S   0  0  0  0  0  0  0  0  0  0  0  0
   20.7614   -5.8908  -15.4238 C   0  0  0  0  0  0  0  0  0  0  0  0
   21.3798   -5.9686  -16.5108 O   0  0  0  0  0  0  0  0  0  0  0  0
   20.1199   -4.6798  -15.1028 N   0  0  0  0  0  0  0  0  0  0  0  0
   20.1516   -3.5836  -16.0686 C   0  0  1  0  0  0  0  0  0  0  0  0
   18.7535   -3.1809  -16.4485 C   0  0  0  0  0  0  0  0  0  0  0  0
   18.8137   -2.1304  -17.5194 C   0  0  0  0  0  0  0  0  0  0  0  0
   17.4138   -1.6673  -17.9192 C   0  0  0  0  0  0  0  0  0  0  0  0
   17.6194   -0.6808  -19.0658 C   0  0  0  0  0  0  0  0  0  0  0  0
   16.3440   -0.2939  -19.5900 N   0  0  0  0  0  0  0  0  0  0  0  0
   20.9725   -2.4761  -15.5828 C   0  0  0  0  0  0  0  0  0  0  0  0
   21.2124   -2.4082  -14.3307 O   0  0  0  0  0  0  0  0  0  0  0  0
   21.5268   -1.4806  -16.3569 O   0  0  0  0  0  0  0  0  0  0  0  0
  1  2  1  0
  3  2  1  0
  3  5  1  0
  4  3  2  0
  6  5  1  0
  6  7  1  6
  8  7  1  0
  9  6  1  0
 10  9  2  0
 11  9  1  0
 12 13  1  1
 12 11  1  0
 13 14  1  0
 14 15  1  0
 15 16  1  0
 16 17  1  0
 18 12  1  0
 19 18  2  0
 20 18  1  0
M  END
$$$$
