GCK.pdb
     RDKit          3D

 20 19  0  0  1  0  0  0  0  0999 V2000
   25.9159  -22.1834  -14.7707 N   0  0  0  0  0  0  0  0  0  0  0  0
   24.5035  -22.2067  -15.0046 C   0  0  0  0  0  0  0  0  0  0  0  0
   23.7363  -21.5800  -13.9100 C   0  0  0  0  0  0  0  0  0  0  0  0
   24.2606  -21.2216  -12.8243 O   0  0  0  0  0  0  0  0  0  0  0  0
   22.3468  -21.3615  -14.0645 N   0  0  0  0  0  0  0  0  0  0  0  0
   21.4862  -20.8392  -13.0537 C   0  0  1  0  0  0  0  0  0  0  0  0
   20.7064  -19.6355  -13.5324 C   0  0  0  0  0  0  0  0  0  0  0  0
   19.8063  -18.9057  -12.1258 S   0  0  0  0  0  0  0  0  0  0  0  0
   20.5163  -21.8352  -12.5345 C   0  0  0  0  0  0  0  0  0  0  0  0
   19.8442  -22.5406  -13.3223 O   0  0  0  0  0  0  0  0  0  0  0  0
   20.3285  -22.0112  -11.1507 N   0  0  0  0  0  0  0  0  0  0  0  0
   19.3527  -22.9955  -10.6877 C   0  0  1  0  0  0  0  0  0  0  0  0
   19.5190  -23.2434   -9.2139 C   0  0  0  0  0  0  0  0  0  0  0  0
   18.5697  -24.3235   -8.7824 C   0  0  0  0  0  0  0  0  0  0  0  0
   18.7083  -24.6176   -7.2897 C   0  0  0  0  0  0  0  0  0  0  0  0
   17.6459  -25.6685   -6.9779 C   0  0  0  0  0  0  0  0  0  0  0  0
   17.8150  -26.1256   -5.6311 N   0  0  0  0  0  0  0  0  0  0  0  0
   17.9951  -22.6134  -11.0717 C   0  0  0  0  0  0  0  0  0  0  0  0
   17.2606  -23.4896  -11.6397 O   0  0  0  0  0  0  0  0  0  0  0  0
   17.4167  -21.3788  -10.8749 O   0  0  0  0  0  0  0  0  0  0  0  0
  1  2  1  0
  3  2  1  0
  3  5  1  0
  4  3  2  0
  6  5  1  0
  6  7  1  6
  8  7  1  0
  9  6  1  0
 10  9  2  0
 11  9  1  0
 12 13  1  1
 12 11  1  0
 13 14  1  0
 14 15  1  0
 15 16  1  0
 16 17  1  0
 18 12  1  0
 19 18  2  0
 20 18  1  0
M  END
$$$$
