GCK.pdb
     RDKit          3D

 20 19  0  0  1  0  0  0  0  0999 V2000
   11.8615  -10.9734   -9.2185 N   0  0  0  0  0  0  0  0  0  0  0  0
   13.2316  -10.6803   -8.9237 C   0  0  0  0  0  0  0  0  0  0  0  0
   13.6000   -9.2907   -9.2599 C   0  0  0  0  0  0  0  0  0  0  0  0
   12.9320   -8.5778  -10.0521 O   0  0  0  0  0  0  0  0  0  0  0  0
   14.7523   -8.7114   -8.6777 N   0  0  0  0  0  0  0  0  0  0  0  0
   15.2826   -7.4317   -9.0190 C   0  0  1  0  0  0  0  0  0  0  0  0
   15.7721   -6.6734   -7.8058 C   0  0  0  0  0  0  0  0  0  0  0  0
   16.3334   -5.0175   -8.3197 S   0  0  0  0  0  0  0  0  0  0  0  0
   16.3971   -7.4985   -9.9967 C   0  0  0  0  0  0  0  0  0  0  0  0
   17.3322   -8.3179   -9.8417 O   0  0  0  0  0  0  0  0  0  0  0  0
   16.4308   -6.6468  -11.1168 N   0  0  0  0  0  0  0  0  0  0  0  0
   17.3873   -6.9213  -12.1869 C   0  0  1  0  0  0  0  0  0  0  0  0
   17.1766   -8.3060  -12.7341 C   0  0  0  0  0  0  0  0  0  0  0  0
   18.1561   -8.5548  -13.8443 C   0  0  0  0  0  0  0  0  0  0  0  0
   18.0418   -9.9837  -14.3727 C   0  0  0  0  0  0  0  0  0  0  0  0
   19.1630  -10.1334  -15.3977 C   0  0  0  0  0  0  0  0  0  0  0  0
   19.2176  -11.4938  -15.8424 N   0  0  0  0  0  0  0  0  0  0  0  0
   17.3543   -5.8735  -13.2055 C   0  0  0  0  0  0  0  0  0  0  0  0
   16.2333   -5.3202  -13.4643 O   0  0  0  0  0  0  0  0  0  0  0  0
   18.4340   -5.4123  -13.9259 O   0  0  0  0  0  0  0  0  0  0  0  0
  1  2  1  0
  3  2  1  0
  3  5  1  0
  4  3  2  0
  6  5  1  0
  6  7  1  1
  8  7  1  0
  9  6  1  0
 10  9  2  0
 11  9  1  0
 12 13  1  6
 12 11  1  0
 13 14  1  0
 14 15  1  0
 15 16  1  0
 16 17  1  0
 18 12  1  0
 19 18  2  0
 20 18  1  0
M  END
$$$$
