GCK.pdb
     RDKit          3D

 20 19  0  0  1  0  0  0  0  0999 V2000
   26.3039  -15.7361  -19.5531 N   0  0  0  0  0  0  0  0  0  0  0  0
   26.1918  -14.3154  -19.6922 C   0  0  0  0  0  0  0  0  0  0  0  0
   25.6441  -13.6681  -18.4836 C   0  0  0  0  0  0  0  0  0  0  0  0
   24.4922  -13.9094  -18.0399 O   0  0  0  0  0  0  0  0  0  0  0  0
   26.4309  -12.7299  -17.7742 N   0  0  0  0  0  0  0  0  0  0  0  0
   25.9830  -11.9746  -16.6499 C   0  0  1  0  0  0  0  0  0  0  0  0
   27.1320  -11.4000  -15.8525 C   0  0  0  0  0  0  0  0  0  0  0  0
   28.2048  -12.7582  -15.2821 S   0  0  0  0  0  0  0  0  0  0  0  0
   25.0763  -10.8580  -17.0149 C   0  0  0  0  0  0  0  0  0  0  0  0
   25.3269  -10.1312  -18.0043 O   0  0  0  0  0  0  0  0  0  0  0  0
   23.9178  -10.5891  -16.2621 N   0  0  0  0  0  0  0  0  0  0  0  0
   22.9914   -9.5606  -16.7304 C   0  0  1  0  0  0  0  0  0  0  0  0
   21.5768  -10.0678  -16.6774 C   0  0  0  0  0  0  0  0  0  0  0  0
   20.6468   -8.9954  -17.1665 C   0  0  0  0  0  0  0  0  0  0  0  0
   19.1889   -9.4417  -17.0704 C   0  0  0  0  0  0  0  0  0  0  0  0
   18.3696   -8.2991  -17.6647 C   0  0  0  0  0  0  0  0  0  0  0  0
   16.9867   -8.6712  -17.6865 N   0  0  0  0  0  0  0  0  0  0  0  0
   23.1938   -8.3026  -16.0142 C   0  0  0  0  0  0  0  0  0  0  0  0
   23.7385   -8.3472  -14.8605 O   0  0  0  0  0  0  0  0  0  0  0  0
   22.8515   -7.0487  -16.4704 O   0  0  0  0  0  0  0  0  0  0  0  0
  1  2  1  0
  3  2  1  0
  3  5  1  0
  4  3  2  0
  6  5  1  0
  6  7  1  6
  8  7  1  0
  9  6  1  0
 10  9  2  0
 11  9  1  0
 12 13  1  1
 12 11  1  0
 13 14  1  0
 14 15  1  0
 15 16  1  0
 16 17  1  0
 18 12  1  0
 19 18  2  0
 20 18  1  0
M  END
$$$$
