GCK.pdb
     RDKit          3D

 20 19  0  0  1  0  0  0  0  0999 V2000
   23.2870  -24.9487  -14.1988 N   0  0  0  0  0  0  0  0  0  0  0  0
   24.5941  -24.3969  -14.3917 C   0  0  0  0  0  0  0  0  0  0  0  0
   24.6223  -22.9308  -14.2209 C   0  0  0  0  0  0  0  0  0  0  0  0
   23.7214  -22.1725  -14.6630 O   0  0  0  0  0  0  0  0  0  0  0  0
   25.7008  -22.3265  -13.5323 N   0  0  0  0  0  0  0  0  0  0  0  0
   25.9200  -20.9204  -13.4339 C   0  0  1  0  0  0  0  0  0  0  0  0
   26.8436  -20.5641  -12.2909 C   0  0  0  0  0  0  0  0  0  0  0  0
   26.1769  -21.2566  -10.7427 S   0  0  0  0  0  0  0  0  0  0  0  0
   26.4756  -20.3234  -14.6737 C   0  0  0  0  0  0  0  0  0  0  0  0
   27.4036  -20.8924  -15.2943 O   0  0  0  0  0  0  0  0  0  0  0  0
   25.9762  -19.1090  -15.1806 N   0  0  0  0  0  0  0  0  0  0  0  0
   26.4375  -18.6433  -16.4866 C   0  0  1  0  0  0  0  0  0  0  0  0
   25.2648  -18.3152  -17.3689 C   0  0  0  0  0  0  0  0  0  0  0  0
   25.2479  -16.8392  -17.6428 C   0  0  0  0  0  0  0  0  0  0  0  0
   24.1038  -16.4643  -18.5831 C   0  0  0  0  0  0  0  0  0  0  0  0
   24.3111  -14.9886  -18.9143 C   0  0  0  0  0  0  0  0  0  0  0  0
   23.2182  -14.5267  -19.7164 N   0  0  0  0  0  0  0  0  0  0  0  0
   27.3955  -17.5482  -16.3480 C   0  0  0  0  0  0  0  0  0  0  0  0
   28.1481  -17.2766  -17.3429 O   0  0  0  0  0  0  0  0  0  0  0  0
   27.5685  -16.7622  -15.2301 O   0  0  0  0  0  0  0  0  0  0  0  0
  1  2  1  0
  3  2  1  0
  3  5  1  0
  4  3  2  0
  6  5  1  0
  6  7  1  1
  8  7  1  0
  9  6  1  0
 10  9  2  0
 11  9  1  0
 12 13  1  6
 12 11  1  0
 13 14  1  0
 14 15  1  0
 15 16  1  0
 16 17  1  0
 18 12  1  0
 19 18  2  0
 20 18  1  0
M  END
$$$$
