GCK.pdb
     RDKit          3D

 20 19  0  0  1  0  0  0  0  0999 V2000
   33.8008  -11.7699  -18.9753 N   0  0  0  0  0  0  0  0  0  0  0  0
   32.8710  -11.6747  -17.8906 C   0  0  0  0  0  0  0  0  0  0  0  0
   31.5707  -12.3012  -18.2007 C   0  0  0  0  0  0  0  0  0  0  0  0
   31.2607  -12.7015  -19.3522 O   0  0  0  0  0  0  0  0  0  0  0  0
   30.6122  -12.4706  -17.1736 N   0  0  0  0  0  0  0  0  0  0  0  0
   29.3284  -13.0680  -17.3467 C   0  0  1  0  0  0  0  0  0  0  0  0
   28.8095  -13.6890  -16.0694 C   0  0  0  0  0  0  0  0  0  0  0  0
   27.2130  -14.5020  -16.4031 S   0  0  0  0  0  0  0  0  0  0  0  0
   28.3007  -12.1201  -17.8444 C   0  0  0  0  0  0  0  0  0  0  0  0
   28.1227  -11.0175  -17.2765 O   0  0  0  0  0  0  0  0  0  0  0  0
   27.5044  -12.4350  -18.9615 N   0  0  0  0  0  0  0  0  0  0  0  0
   26.5572  -11.4399  -19.4595 C   0  0  1  0  0  0  0  0  0  0  0  0
   26.9699  -10.9622  -20.8243 C   0  0  0  0  0  0  0  0  0  0  0  0
   26.0054   -9.9122  -21.2949 C   0  0  0  0  0  0  0  0  0  0  0  0
   26.3891   -9.3889  -22.6779 C   0  0  0  0  0  0  0  0  0  0  0  0
   25.3501   -8.3231  -23.0165 C   0  0  0  0  0  0  0  0  0  0  0  0
   25.6082   -7.8124  -24.3294 N   0  0  0  0  0  0  0  0  0  0  0  0
   25.1855  -11.9412  -19.4003 C   0  0  0  0  0  0  0  0  0  0  0  0
   25.0058  -13.2052  -19.3973 O   0  0  0  0  0  0  0  0  0  0  0  0
   24.0451  -11.1707  -19.3429 O   0  0  0  0  0  0  0  0  0  0  0  0
  1  2  1  0
  3  2  1  0
  3  5  1  0
  4  3  2  0
  6  5  1  0
  6  7  1  1
  8  7  1  0
  9  6  1  0
 10  9  2  0
 11  9  1  0
 12 13  1  6
 12 11  1  0
 13 14  1  0
 14 15  1  0
 15 16  1  0
 16 17  1  0
 18 12  1  0
 19 18  2  0
 20 18  1  0
M  END
$$$$
