LMT.pdb
     RDKit          3D

 24 23  0  0  1  0  0  0  0  0999 V2000
    7.1403  -13.5935   18.4263 C   0  0  0  0  0  0  0  0  0  0  0  0
    7.7408  -13.3132   19.7675 C   0  0  2  0  0  0  0  0  0  0  0  0
    7.9633  -11.8437   19.9618 C   0  0  0  0  0  0  0  0  0  0  0  0
    8.9649  -14.1351   20.0056 C   0  0  0  0  0  0  0  0  0  0  0  0
    8.7261  -15.4324   20.7177 C   0  0  2  0  0  0  0  0  0  0  0  0
    7.4100  -15.9531   20.4821 N   0  0  0  0  0  0  0  0  0  0  0  0
    8.9161  -15.1841   22.1722 C   0  0  0  0  0  0  0  0  0  0  0  0
   10.0435  -14.8255   22.6384 O   0  0  0  0  0  0  0  0  0  0  0  0
    7.3240  -11.1347   26.8899 C   0  0  0  0  0  0  0  0  0  0  0  0
    6.1360  -12.5021   26.8412 S   0  0  0  0  0  0  0  0  0  0  0  0
    7.0570  -14.0661   26.5670 C   0  0  0  0  0  0  0  0  0  0  0  0
    7.0041  -14.3494   25.1065 C   0  0  0  0  0  0  0  0  0  0  0  0
    8.1575  -15.1556   24.5718 C   0  0  2  0  0  0  0  0  0  0  0  0
    7.8735  -15.3247   23.1378 N   0  0  0  0  0  0  0  0  0  0  0  0
    8.3244  -16.4664   25.2181 C   0  0  0  0  0  0  0  0  0  0  0  0
    7.3112  -17.2336   25.3463 O   0  0  0  0  0  0  0  0  0  0  0  0
   10.2796  -19.0116   24.0062 C   0  0  0  0  0  0  0  0  0  0  0  0
   10.7910  -18.8734   25.4042 C   0  0  1  0  0  0  0  0  0  0  0  0
   11.9734  -18.1024   25.3292 O   0  0  0  0  0  0  0  0  0  0  0  0
    9.7973  -18.1347   26.2858 C   0  0  2  0  0  0  0  0  0  0  0  0
    9.6050  -16.8434   25.6810 N   0  0  0  0  0  0  0  0  0  0  0  0
   10.2580  -18.0572   27.6810 C   0  0  0  0  0  0  0  0  0  0  0  0
   10.3189  -19.1109   28.3567 O   0  0  0  0  0  0  0  0  0  0  0  0
   10.6127  -16.8488   28.2248 O   0  0  0  0  0  0  0  0  0  0  0  0
  2  1  1  6
  3  2  1  0
  4  2  1  0
  5  4  1  0
  5  6  1  1
  7  8  2  0
  7  5  1  0
  9 10  1  0
 11 10  1  0
 12 11  1  0
 13 12  1  1
 13 14  1  0
 14  7  1  0
 15 13  1  0
 15 16  2  0
 18 17  1  6
 19 18  1  0
 20 21  1  6
 20 18  1  0
 21 15  1  0
 22 20  1  0
 23 22  2  0
 24 22  1  0
M  END
$$$$
