LMT.pdb
     RDKit          3D

 24 23  0  0  1  0  0  0  0  0999 V2000
    6.7244  -14.8034   18.3994 C   0  0  0  0  0  0  0  0  0  0  0  0
    7.3961  -16.0529   18.8744 C   0  0  2  0  0  0  0  0  0  0  0  0
    6.5406  -17.2563   18.6160 C   0  0  0  0  0  0  0  0  0  0  0  0
    7.8389  -15.9340   20.2959 C   0  0  0  0  0  0  0  0  0  0  0  0
    8.6178  -14.6932   20.6132 C   0  0  2  0  0  0  0  0  0  0  0  0
    9.8294  -14.5962   19.8507 N   0  0  0  0  0  0  0  0  0  0  0  0
    8.9386  -14.7276   22.0655 C   0  0  0  0  0  0  0  0  0  0  0  0
   10.0909  -15.0720   22.4785 O   0  0  0  0  0  0  0  0  0  0  0  0
    6.6185  -10.7137   26.5708 C   0  0  0  0  0  0  0  0  0  0  0  0
    6.3005  -12.3294   27.3272 S   0  0  0  0  0  0  0  0  0  0  0  0
    7.5467  -13.5228   26.7007 C   0  0  0  0  0  0  0  0  0  0  0  0
    7.3896  -13.5763   25.2214 C   0  0  0  0  0  0  0  0  0  0  0  0
    8.3902  -14.4438   24.5055 C   0  0  2  0  0  0  0  0  0  0  0  0
    8.0017  -14.3850   23.0874 N   0  0  0  0  0  0  0  0  0  0  0  0
    8.4170  -15.8389   24.9710 C   0  0  0  0  0  0  0  0  0  0  0  0
    7.3686  -16.5584   24.8500 O   0  0  0  0  0  0  0  0  0  0  0  0
   10.3239  -18.4599   23.7581 C   0  0  0  0  0  0  0  0  0  0  0  0
   10.6989  -18.4202   25.2048 C   0  0  1  0  0  0  0  0  0  0  0  0
   11.9042  -17.6869   25.2915 O   0  0  0  0  0  0  0  0  0  0  0  0
    9.6444  -17.7004   26.0296 C   0  0  2  0  0  0  0  0  0  0  0  0
    9.6055  -16.3476   25.5411 N   0  0  0  0  0  0  0  0  0  0  0  0
    9.9263  -17.7869   27.4711 C   0  0  0  0  0  0  0  0  0  0  0  0
   10.2129  -16.7383   28.0948 O   0  0  0  0  0  0  0  0  0  0  0  0
    9.8743  -18.9980   28.1133 O   0  0  0  0  0  0  0  0  0  0  0  0
  2  1  1  1
  3  2  1  0
  4  2  1  0
  5  4  1  0
  5  6  1  6
  7  8  2  0
  7  5  1  0
  9 10  1  0
 11 10  1  0
 12 11  1  0
 13 12  1  1
 13 14  1  0
 14  7  1  0
 15 13  1  0
 15 16  2  0
 18 17  1  6
 19 18  1  0
 20 21  1  6
 20 18  1  0
 21 15  1  0
 22 20  1  0
 23 22  2  0
 24 22  1  0
M  END
$$$$
