LMT.pdb
     RDKit          3D

 24 23  0  0  1  0  0  0  0  0999 V2000
    7.3202  -14.2639   17.9708 C   0  0  0  0  0  0  0  0  0  0  0  0
    7.6938  -13.5150   19.2108 C   0  0  2  0  0  0  0  0  0  0  0  0
    7.8482  -12.0507   18.9299 C   0  0  0  0  0  0  0  0  0  0  0  0
    8.8836  -14.1191   19.8816 C   0  0  0  0  0  0  0  0  0  0  0  0
    8.6179  -15.4088   20.5980 C   0  0  2  0  0  0  0  0  0  0  0  0
    7.2508  -15.8288   20.4823 N   0  0  0  0  0  0  0  0  0  0  0  0
    8.9611  -15.2016   22.0307 C   0  0  0  0  0  0  0  0  0  0  0  0
   10.1561  -14.9646   22.3952 O   0  0  0  0  0  0  0  0  0  0  0  0
    6.4445  -11.9460   28.5787 C   0  0  0  0  0  0  0  0  0  0  0  0
    6.1768  -12.5532   26.8925 S   0  0  0  0  0  0  0  0  0  0  0  0
    7.5395  -13.7060   26.4638 C   0  0  0  0  0  0  0  0  0  0  0  0
    7.3498  -14.0896   25.0380 C   0  0  0  0  0  0  0  0  0  0  0  0
    8.4075  -15.0027   24.4779 C   0  0  2  0  0  0  0  0  0  0  0  0
    8.0000  -15.2509   23.0858 N   0  0  0  0  0  0  0  0  0  0  0  0
    8.5488  -16.2741   25.2039 C   0  0  0  0  0  0  0  0  0  0  0  0
    7.5298  -17.0319   25.3414 O   0  0  0  0  0  0  0  0  0  0  0  0
   10.4021  -18.8228   24.0369 C   0  0  0  0  0  0  0  0  0  0  0  0
   10.9683  -18.6656   25.4116 C   0  0  1  0  0  0  0  0  0  0  0  0
   12.1426  -17.8898   25.2805 O   0  0  0  0  0  0  0  0  0  0  0  0
   10.0066  -17.9213   26.3237 C   0  0  2  0  0  0  0  0  0  0  0  0
    9.8119  -16.6248   25.7311 N   0  0  0  0  0  0  0  0  0  0  0  0
   10.5057  -17.8564   27.7063 C   0  0  0  0  0  0  0  0  0  0  0  0
   10.9308  -16.7619   28.1445 O   0  0  0  0  0  0  0  0  0  0  0  0
   10.5022  -18.9787   28.4950 O   0  0  0  0  0  0  0  0  0  0  0  0
  2  1  1  6
  3  2  1  0
  4  2  1  0
  5  4  1  0
  5  6  1  1
  7  8  2  0
  7  5  1  0
  9 10  1  0
 11 10  1  0
 12 11  1  0
 13 12  1  1
 13 14  1  0
 14  7  1  0
 15 13  1  0
 15 16  2  0
 18 17  1  6
 19 18  1  0
 20 21  1  6
 20 18  1  0
 21 15  1  0
 22 20  1  0
 23 22  2  0
 24 22  1  0
M  END
$$$$
