LMT.pdb
     RDKit          3D

 24 23  0  0  1  0  0  0  0  0999 V2000
    8.2844  -14.5093   18.1110 C   0  0  0  0  0  0  0  0  0  0  0  0
    7.6206  -13.6322   19.1250 C   0  0  2  0  0  0  0  0  0  0  0  0
    7.5359  -12.2165   18.6398 C   0  0  0  0  0  0  0  0  0  0  0  0
    8.2603  -13.7616   20.4684 C   0  0  0  0  0  0  0  0  0  0  0  0
    8.3182  -15.1587   21.0086 C   0  0  2  0  0  0  0  0  0  0  0  0
    7.0492  -15.8252   20.9428 N   0  0  0  0  0  0  0  0  0  0  0  0
    8.7677  -15.0710   22.4240 C   0  0  0  0  0  0  0  0  0  0  0  0
    9.9436  -14.6884   22.7202 O   0  0  0  0  0  0  0  0  0  0  0  0
    7.2330  -11.8532   27.7676 C   0  0  0  0  0  0  0  0  0  0  0  0
    6.0319  -12.4603   26.5541 S   0  0  0  0  0  0  0  0  0  0  0  0
    6.9445  -13.2847   25.1914 C   0  0  0  0  0  0  0  0  0  0  0  0
    7.3469  -14.6282   25.6904 C   0  0  0  0  0  0  0  0  0  0  0  0
    8.4500  -15.2931   24.9109 C   0  0  2  0  0  0  0  0  0  0  0  0
    7.9353  -15.4011   23.5365 N   0  0  0  0  0  0  0  0  0  0  0  0
    8.8298  -16.6196   25.4205 C   0  0  0  0  0  0  0  0  0  0  0  0
    7.9684  -17.5627   25.4118 O   0  0  0  0  0  0  0  0  0  0  0  0
   12.4616  -19.7011   26.1757 C   0  0  0  0  0  0  0  0  0  0  0  0
   11.9247  -18.3671   25.7669 C   0  0  1  0  0  0  0  0  0  0  0  0
   11.7968  -18.3951   24.3595 O   0  0  0  0  0  0  0  0  0  0  0  0
   10.5492  -18.1182   26.3641 C   0  0  2  0  0  0  0  0  0  0  0  0
   10.1416  -16.8162   25.9072 N   0  0  0  0  0  0  0  0  0  0  0  0
   10.5609  -18.2392   27.8304 C   0  0  0  0  0  0  0  0  0  0  0  0
   10.4593  -19.3780   28.3436 O   0  0  0  0  0  0  0  0  0  0  0  0
   10.6812  -17.1201   28.6145 O   0  0  0  0  0  0  0  0  0  0  0  0
  2  1  1  6
  3  2  1  0
  4  2  1  0
  5  4  1  0
  5  6  1  1
  7  8  2  0
  7  5  1  0
  9 10  1  0
 11 10  1  0
 12 11  1  0
 13 12  1  1
 13 14  1  0
 14  7  1  0
 15 13  1  0
 15 16  2  0
 18 17  1  1
 19 18  1  0
 20 21  1  1
 20 18  1  0
 21 15  1  0
 22 20  1  0
 23 22  2  0
 24 22  1  0
M  END
$$$$
