LMT.pdb
     RDKit          3D

 24 23  0  0  1  0  0  0  0  0999 V2000
    8.4048  -14.2066   17.9337 C   0  0  0  0  0  0  0  0  0  0  0  0
    7.9192  -13.4091   19.1026 C   0  0  2  0  0  0  0  0  0  0  0  0
    7.8318  -11.9520   18.7617 C   0  0  0  0  0  0  0  0  0  0  0  0
    8.7247  -13.6839   20.3298 C   0  0  0  0  0  0  0  0  0  0  0  0
    8.5310  -15.0481   20.9203 C   0  0  2  0  0  0  0  0  0  0  0  0
    7.2382  -15.5955   20.6236 N   0  0  0  0  0  0  0  0  0  0  0  0
    8.6989  -14.9241   22.3933 C   0  0  0  0  0  0  0  0  0  0  0  0
    9.8054  -14.5593   22.9026 O   0  0  0  0  0  0  0  0  0  0  0  0
    6.4889  -11.2481   26.9432 C   0  0  0  0  0  0  0  0  0  0  0  0
    7.5895  -12.6688   27.1752 S   0  0  0  0  0  0  0  0  0  0  0  0
    6.6531  -14.2011   26.7947 C   0  0  0  0  0  0  0  0  0  0  0  0
    6.6799  -14.3688   25.3158 C   0  0  0  0  0  0  0  0  0  0  0  0
    7.9000  -15.0660   24.7758 C   0  0  2  0  0  0  0  0  0  0  0  0
    7.6567  -15.1978   23.3305 N   0  0  0  0  0  0  0  0  0  0  0  0
    8.1516  -16.3858   25.3746 C   0  0  0  0  0  0  0  0  0  0  0  0
    7.1911  -17.2224   25.4695 O   0  0  0  0  0  0  0  0  0  0  0  0
   10.1281  -18.8128   24.1018 C   0  0  0  0  0  0  0  0  0  0  0  0
   10.6977  -18.6769   25.4773 C   0  0  1  0  0  0  0  0  0  0  0  0
   11.8510  -17.8680   25.3607 O   0  0  0  0  0  0  0  0  0  0  0  0
    9.7224  -17.9815   26.4132 C   0  0  2  0  0  0  0  0  0  0  0  0
    9.4532  -16.6941   25.8298 N   0  0  0  0  0  0  0  0  0  0  0  0
   10.2486  -17.8965   27.7846 C   0  0  0  0  0  0  0  0  0  0  0  0
   10.4053  -18.9542   28.4384 O   0  0  0  0  0  0  0  0  0  0  0  0
   10.5594  -16.6770   28.3305 O   0  0  0  0  0  0  0  0  0  0  0  0
  2  1  1  6
  3  2  1  0
  4  2  1  0
  5  4  1  0
  5  6  1  1
  7  8  2  0
  7  5  1  0
  9 10  1  0
 11 10  1  0
 12 11  1  0
 13 12  1  1
 13 14  1  0
 14  7  1  0
 15 13  1  0
 15 16  2  0
 18 17  1  6
 19 18  1  0
 20 21  1  6
 20 18  1  0
 21 15  1  0
 22 20  1  0
 23 22  2  0
 24 22  1  0
M  END
$$$$
