LMT.pdb
     RDKit          3D

 24 23  0  0  1  0  0  0  0  0999 V2000
    8.0380  -12.7801   18.1819 C   0  0  0  0  0  0  0  0  0  0  0  0
    8.5155  -14.1967   18.2389 C   0  0  2  0  0  0  0  0  0  0  0  0
    7.6091  -15.1026   17.4614 C   0  0  0  0  0  0  0  0  0  0  0  0
    8.7393  -14.6463   19.6455 C   0  0  0  0  0  0  0  0  0  0  0  0
    9.6112  -13.7443   20.4659 C   0  0  2  0  0  0  0  0  0  0  0  0
   10.9916  -13.8170   20.0809 N   0  0  0  0  0  0  0  0  0  0  0  0
    9.4633  -14.1544   21.8883 C   0  0  0  0  0  0  0  0  0  0  0  0
   10.3420  -14.8720   22.4627 O   0  0  0  0  0  0  0  0  0  0  0  0
    7.2625  -11.9169   28.6872 C   0  0  0  0  0  0  0  0  0  0  0  0
    7.4597  -11.8284   26.8880 S   0  0  0  0  0  0  0  0  0  0  0  0
    6.9747  -13.4454   26.1673 C   0  0  0  0  0  0  0  0  0  0  0  0
    7.1602  -13.3361   24.6943 C   0  0  0  0  0  0  0  0  0  0  0  0
    8.3555  -14.0693   24.1467 C   0  0  2  0  0  0  0  0  0  0  0  0
    8.3503  -13.7843   22.7030 N   0  0  0  0  0  0  0  0  0  0  0  0
    8.3286  -15.5212   24.3815 C   0  0  0  0  0  0  0  0  0  0  0  0
    7.3194  -16.1990   23.9896 O   0  0  0  0  0  0  0  0  0  0  0  0
   10.3053  -17.9668   23.0315 C   0  0  0  0  0  0  0  0  0  0  0  0
   10.5293  -18.1521   24.4979 C   0  0  1  0  0  0  0  0  0  0  0  0
   11.7235  -17.4659   24.8159 O   0  0  0  0  0  0  0  0  0  0  0  0
    9.3996  -17.5413   25.3111 C   0  0  2  0  0  0  0  0  0  0  0  0
    9.4233  -16.1293   25.0358 N   0  0  0  0  0  0  0  0  0  0  0  0
    9.5274  -17.8536   26.7433 C   0  0  0  0  0  0  0  0  0  0  0  0
    9.7894  -16.9250   27.5432 O   0  0  0  0  0  0  0  0  0  0  0  0
    9.3613  -19.1410   27.1867 O   0  0  0  0  0  0  0  0  0  0  0  0
  2  1  1  1
  3  2  1  0
  4  2  1  0
  5  4  1  0
  5  6  1  6
  7  8  2  0
  7  5  1  0
  9 10  1  0
 11 10  1  0
 12 11  1  0
 13 12  1  1
 13 14  1  0
 14  7  1  0
 15 13  1  0
 15 16  2  0
 18 17  1  6
 19 18  1  0
 20 21  1  1
 20 18  1  0
 21 15  1  0
 22 20  1  0
 23 22  2  0
 24 22  1  0
M  END
$$$$
