LMT.pdb
     RDKit          3D

 24 23  0  0  1  0  0  0  0  0999 V2000
    9.0112  -13.2276   19.0125 C   0  0  0  0  0  0  0  0  0  0  0  0
    7.6649  -13.8303   19.2621 C   0  0  2  0  0  0  0  0  0  0  0  0
    6.5722  -12.9328   18.7648 C   0  0  0  0  0  0  0  0  0  0  0  0
    7.4979  -14.2330   20.6906 C   0  0  0  0  0  0  0  0  0  0  0  0
    8.6445  -15.0079   21.2667 C   0  0  2  0  0  0  0  0  0  0  0  0
    8.8553  -16.2574   20.5935 N   0  0  0  0  0  0  0  0  0  0  0  0
    8.3393  -15.2547   22.7017 C   0  0  0  0  0  0  0  0  0  0  0  0
    7.9274  -14.3198   23.4588 O   0  0  0  0  0  0  0  0  0  0  0  0
    6.4481  -20.6049   25.9661 C   0  0  0  0  0  0  0  0  0  0  0  0
    5.8471  -20.0950   24.3344 S   0  0  0  0  0  0  0  0  0  0  0  0
    6.3238  -18.3441   24.0575 C   0  0  0  0  0  0  0  0  0  0  0  0
    7.5708  -18.1067   24.8351 C   0  0  0  0  0  0  0  0  0  0  0  0
    8.1214  -16.7085   24.7446 C   0  0  2  0  0  0  0  0  0  0  0  0
    8.4805  -16.5300   23.3288 N   0  0  0  0  0  0  0  0  0  0  0  0
    9.2912  -16.4673   25.6033 C   0  0  0  0  0  0  0  0  0  0  0  0
   10.4556  -16.7660   25.1715 O   0  0  0  0  0  0  0  0  0  0  0  0
   10.0903  -13.2934   27.5774 C   0  0  0  0  0  0  0  0  0  0  0  0
   10.0059  -14.4538   28.5162 C   0  0  1  0  0  0  0  0  0  0  0  0
    8.6995  -14.4450   29.0557 O   0  0  0  0  0  0  0  0  0  0  0  0
   10.2095  -15.7714   27.7861 C   0  0  2  0  0  0  0  0  0  0  0  0
    9.0952  -15.9094   26.8865 N   0  0  0  0  0  0  0  0  0  0  0  0
   10.3405  -16.8992   28.7220 C   0  0  0  0  0  0  0  0  0  0  0  0
    9.4651  -17.7960   28.7138 O   0  0  0  0  0  0  0  0  0  0  0  0
   11.4051  -16.9603   29.5849 O   0  0  0  0  0  0  0  0  0  0  0  0
  2  1  1  1
  3  2  1  0
  4  2  1  0
  5  4  1  0
  5  6  1  6
  7  8  2  0
  7  5  1  0
  9 10  1  0
 11 10  1  0
 12 11  1  0
 13 12  1  6
 13 14  1  0
 14  7  1  0
 15 13  1  0
 15 16  2  0
 18 17  1  6
 19 18  1  0
 20 21  1  6
 20 18  1  0
 21 15  1  0
 22 20  1  0
 23 22  2  0
 24 22  1  0
M  END
$$$$
