LMT.pdb
     RDKit          3D

 24 23  0  0  1  0  0  0  0  0999 V2000
    7.6699  -12.7660   18.6134 C   0  0  0  0  0  0  0  0  0  0  0  0
    7.8293  -14.2535   18.6283 C   0  0  2  0  0  0  0  0  0  0  0  0
    6.6843  -14.9251   17.9322 C   0  0  0  0  0  0  0  0  0  0  0  0
    8.0678  -14.7681   20.0099 C   0  0  0  0  0  0  0  0  0  0  0  0
    9.1367  -14.0489   20.7762 C   0  0  2  0  0  0  0  0  0  0  0  0
   10.4537  -14.3442   20.2890 N   0  0  0  0  0  0  0  0  0  0  0  0
    9.0217  -14.4657   22.1997 C   0  0  0  0  0  0  0  0  0  0  0  0
    9.8104  -15.3284   22.7003 O   0  0  0  0  0  0  0  0  0  0  0  0
    7.7706  -12.7422   29.2028 C   0  0  0  0  0  0  0  0  0  0  0  0
    7.9813  -12.6316   27.4064 S   0  0  0  0  0  0  0  0  0  0  0  0
    6.7543  -13.7372   26.6054 C   0  0  0  0  0  0  0  0  0  0  0  0
    6.9087  -13.5623   25.1351 C   0  0  0  0  0  0  0  0  0  0  0  0
    8.0898  -14.2729   24.5298 C   0  0  2  0  0  0  0  0  0  0  0  0
    8.0408  -13.9432   23.0965 N   0  0  0  0  0  0  0  0  0  0  0  0
    8.0750  -15.7314   24.7199 C   0  0  0  0  0  0  0  0  0  0  0  0
    7.0410  -16.3964   24.3730 O   0  0  0  0  0  0  0  0  0  0  0  0
    9.5767  -18.4280   23.3342 C   0  0  0  0  0  0  0  0  0  0  0  0
   10.0561  -18.5050   24.7482 C   0  0  1  0  0  0  0  0  0  0  0  0
   11.3291  -17.8913   24.7789 O   0  0  0  0  0  0  0  0  0  0  0  0
    9.1368  -17.7393   25.6859 C   0  0  2  0  0  0  0  0  0  0  0  0
    9.2084  -16.3601   25.2823 N   0  0  0  0  0  0  0  0  0  0  0  0
    9.4989  -17.9489   27.0965 C   0  0  0  0  0  0  0  0  0  0  0  0
    9.9306  -16.9773   27.7603 O   0  0  0  0  0  0  0  0  0  0  0  0
    9.3636  -19.1889   27.6672 O   0  0  0  0  0  0  0  0  0  0  0  0
  2  1  1  1
  3  2  1  0
  4  2  1  0
  5  4  1  0
  5  6  1  6
  7  8  2  0
  7  5  1  0
  9 10  1  0
 11 10  1  0
 12 11  1  0
 13 12  1  1
 13 14  1  0
 14  7  1  0
 15 13  1  0
 15 16  2  0
 18 17  1  6
 19 18  1  0
 20 21  1  6
 20 18  1  0
 21 15  1  0
 22 20  1  0
 23 22  2  0
 24 22  1  0
M  END
$$$$
