LMT.pdb
     RDKit          3D

 24 23  0  0  1  0  0  0  0  0999 V2000
    8.1603  -14.4558   17.6454 C   0  0  0  0  0  0  0  0  0  0  0  0
    7.5741  -13.6075   18.7293 C   0  0  2  0  0  0  0  0  0  0  0  0
    7.4539  -12.1793   18.2904 C   0  0  0  0  0  0  0  0  0  0  0  0
    8.3120  -13.7722   20.0174 C   0  0  0  0  0  0  0  0  0  0  0  0
    8.2976  -15.1613   20.5806 C   0  0  2  0  0  0  0  0  0  0  0  0
    6.9922  -15.7558   20.5404 N   0  0  0  0  0  0  0  0  0  0  0  0
    8.7685  -15.0759   21.9892 C   0  0  0  0  0  0  0  0  0  0  0  0
    9.9530  -14.7066   22.2675 O   0  0  0  0  0  0  0  0  0  0  0  0
    7.3316  -11.9154   28.6220 C   0  0  0  0  0  0  0  0  0  0  0  0
    6.7647  -12.5208   27.0109 S   0  0  0  0  0  0  0  0  0  0  0  0
    7.7024  -14.0435   26.5965 C   0  0  0  0  0  0  0  0  0  0  0  0
    7.4205  -14.3501   25.1673 C   0  0  0  0  0  0  0  0  0  0  0  0
    8.4543  -15.2042   24.4831 C   0  0  2  0  0  0  0  0  0  0  0  0
    7.9484  -15.3939   23.1143 N   0  0  0  0  0  0  0  0  0  0  0  0
    8.6809  -16.5059   25.1296 C   0  0  0  0  0  0  0  0  0  0  0  0
    7.6928  -17.2955   25.3083 O   0  0  0  0  0  0  0  0  0  0  0  0
   10.9795  -18.8903   23.8515 C   0  0  0  0  0  0  0  0  0  0  0  0
   11.3671  -18.7590   25.2894 C   0  0  1  0  0  0  0  0  0  0  0  0
   12.4765  -17.8841   25.3324 O   0  0  0  0  0  0  0  0  0  0  0  0
   10.2451  -18.1441   26.1103 C   0  0  2  0  0  0  0  0  0  0  0  0
    9.9895  -16.8496   25.5366 N   0  0  0  0  0  0  0  0  0  0  0  0
   10.5843  -18.0861   27.5409 C   0  0  0  0  0  0  0  0  0  0  0  0
   10.8252  -16.9711   28.0600 O   0  0  0  0  0  0  0  0  0  0  0  0
   10.6339  -19.2368   28.2859 O   0  0  0  0  0  0  0  0  0  0  0  0
  2  1  1  6
  3  2  1  0
  4  2  1  0
  5  4  1  0
  5  6  1  1
  7  8  2  0
  7  5  1  0
  9 10  1  0
 11 10  1  0
 12 11  1  0
 13 12  1  1
 13 14  1  0
 14  7  1  0
 15 13  1  0
 15 16  2  0
 18 17  1  6
 19 18  1  0
 20 21  1  6
 20 18  1  0
 21 15  1  0
 22 20  1  0
 23 22  2  0
 24 22  1  0
M  END
$$$$
