LMT.pdb
     RDKit          3D

 24 23  0  0  1  0  0  0  0  0999 V2000
    8.4676  -12.4939   18.6532 C   0  0  0  0  0  0  0  0  0  0  0  0
    8.0440  -13.6746   19.4683 C   0  0  2  0  0  0  0  0  0  0  0  0
    6.5855  -13.6008   19.8062 C   0  0  0  0  0  0  0  0  0  0  0  0
    8.9208  -13.8626   20.6627 C   0  0  0  0  0  0  0  0  0  0  0  0
    8.8919  -15.2383   21.2574 C   0  0  2  0  0  0  0  0  0  0  0  0
    7.6392  -15.9035   21.0400 N   0  0  0  0  0  0  0  0  0  0  0  0
    9.1402  -15.0979   22.7175 C   0  0  0  0  0  0  0  0  0  0  0  0
   10.2771  -14.7415   23.1620 O   0  0  0  0  0  0  0  0  0  0  0  0
    5.6445  -11.9129   27.4380 C   0  0  0  0  0  0  0  0  0  0  0  0
    7.3666  -11.9867   26.8791 S   0  0  0  0  0  0  0  0  0  0  0  0
    7.4400  -12.9920   25.3450 C   0  0  0  0  0  0  0  0  0  0  0  0
    7.4208  -14.4208   25.7623 C   0  0  0  0  0  0  0  0  0  0  0  0
    8.4902  -15.2800   25.1422 C   0  0  2  0  0  0  0  0  0  0  0  0
    8.1466  -15.3457   23.7128 N   0  0  0  0  0  0  0  0  0  0  0  0
    8.5768  -16.6341   25.7102 C   0  0  0  0  0  0  0  0  0  0  0  0
    7.5053  -17.3054   25.8916 O   0  0  0  0  0  0  0  0  0  0  0  0
   10.4308  -19.2401   24.2243 C   0  0  0  0  0  0  0  0  0  0  0  0
   10.9265  -19.2252   25.6347 C   0  0  1  0  0  0  0  0  0  0  0  0
   12.1480  -18.5140   25.6280 O   0  0  0  0  0  0  0  0  0  0  0  0
    9.9582  -18.4977   26.5532 C   0  0  2  0  0  0  0  0  0  0  0  0
    9.8466  -17.1580   26.0405 N   0  0  0  0  0  0  0  0  0  0  0  0
   10.3973  -18.5453   27.9567 C   0  0  0  0  0  0  0  0  0  0  0  0
   10.8191  -17.4945   28.4939 O   0  0  0  0  0  0  0  0  0  0  0  0
   10.3427  -19.7232   28.6577 O   0  0  0  0  0  0  0  0  0  0  0  0
  2  1  1  1
  3  2  1  0
  4  2  1  0
  5  4  1  0
  5  6  1  1
  7  8  2  0
  7  5  1  0
  9 10  1  0
 11 10  1  0
 12 11  1  0
 13 12  1  1
 13 14  1  0
 14  7  1  0
 15 13  1  0
 15 16  2  0
 18 17  1  6
 19 18  1  0
 20 21  1  6
 20 18  1  0
 21 15  1  0
 22 20  1  0
 23 22  2  0
 24 22  1  0
M  END
$$$$
