LMT.pdb
     RDKit          3D

 24 23  0  0  1  0  0  0  0  0999 V2000
    6.6825  -16.9438   18.5996 C   0  0  0  0  0  0  0  0  0  0  0  0
    7.5472  -18.0697   19.0714 C   0  0  2  0  0  0  0  0  0  0  0  0
    6.7495  -19.3274   19.2407 C   0  0  0  0  0  0  0  0  0  0  0  0
    8.3264  -17.6930   20.2886 C   0  0  0  0  0  0  0  0  0  0  0  0
    8.8846  -16.3018   20.2759 C   0  0  2  0  0  0  0  0  0  0  0  0
   10.0830  -16.1989   19.4934 N   0  0  0  0  0  0  0  0  0  0  0  0
    9.1705  -15.9234   21.6860 C   0  0  0  0  0  0  0  0  0  0  0  0
   10.3107  -16.1350   22.2076 O   0  0  0  0  0  0  0  0  0  0  0  0
    6.4679  -11.5935   27.7130 C   0  0  0  0  0  0  0  0  0  0  0  0
    6.3205  -12.2405   26.0268 S   0  0  0  0  0  0  0  0  0  0  0  0
    7.6157  -13.5169   25.7759 C   0  0  0  0  0  0  0  0  0  0  0  0
    7.5370  -13.9392   24.3506 C   0  0  0  0  0  0  0  0  0  0  0  0
    8.5694  -14.9501   23.9279 C   0  0  2  0  0  0  0  0  0  0  0  0
    8.2112  -15.3072   22.5459 N   0  0  0  0  0  0  0  0  0  0  0  0
    8.6121  -16.1537   24.7724 C   0  0  0  0  0  0  0  0  0  0  0  0
    7.5580  -16.8631   24.9032 O   0  0  0  0  0  0  0  0  0  0  0  0
   10.4409  -18.9465   24.1394 C   0  0  0  0  0  0  0  0  0  0  0  0
   10.8914  -18.6036   25.5230 C   0  0  1  0  0  0  0  0  0  0  0  0
   12.1143  -17.9071   25.3907 O   0  0  0  0  0  0  0  0  0  0  0  0
    9.8961  -17.6884   26.2175 C   0  0  2  0  0  0  0  0  0  0  0  0
    9.8217  -16.4943   25.4182 N   0  0  0  0  0  0  0  0  0  0  0  0
   10.2780  -17.4266   27.6142 C   0  0  0  0  0  0  0  0  0  0  0  0
   10.6221  -16.2662   27.9392 O   0  0  0  0  0  0  0  0  0  0  0  0
   10.2551  -18.4406   28.5378 O   0  0  0  0  0  0  0  0  0  0  0  0
  2  1  1  1
  3  2  1  0
  4  2  1  0
  5  4  1  0
  5  6  1  6
  7  8  2  0
  7  5  1  0
  9 10  1  0
 11 10  1  0
 12 11  1  0
 13 12  1  1
 13 14  1  0
 14  7  1  0
 15 13  1  0
 15 16  2  0
 18 17  1  6
 19 18  1  0
 20 21  1  6
 20 18  1  0
 21 15  1  0
 22 20  1  0
 23 22  2  0
 24 22  1  0
M  END
$$$$
