LMT.pdb
     RDKit          3D

 24 23  0  0  1  0  0  0  0  0999 V2000
    8.5873  -13.9776   18.3264 C   0  0  0  0  0  0  0  0  0  0  0  0
    7.7681  -13.2606   19.3525 C   0  0  2  0  0  0  0  0  0  0  0  0
    7.5738  -11.8223   18.9780 C   0  0  0  0  0  0  0  0  0  0  0  0
    8.3217  -13.4461   20.7272 C   0  0  0  0  0  0  0  0  0  0  0  0
    8.4699  -14.8732   21.1614 C   0  0  2  0  0  0  0  0  0  0  0  0
    7.2519  -15.6185   21.0205 N   0  0  0  0  0  0  0  0  0  0  0  0
    8.8917  -14.8635   22.5880 C   0  0  0  0  0  0  0  0  0  0  0  0
   10.0343  -14.4265   22.9351 O   0  0  0  0  0  0  0  0  0  0  0  0
    7.4115  -11.6956   28.0582 C   0  0  0  0  0  0  0  0  0  0  0  0
    6.2681  -12.6194   26.9986 S   0  0  0  0  0  0  0  0  0  0  0  0
    7.2067  -13.2871   25.5694 C   0  0  0  0  0  0  0  0  0  0  0  0
    7.4763  -14.7219   25.8606 C   0  0  0  0  0  0  0  0  0  0  0  0
    8.5731  -15.3437   25.0380 C   0  0  2  0  0  0  0  0  0  0  0  0
    8.0677  -15.3323   23.6560 N   0  0  0  0  0  0  0  0  0  0  0  0
    8.9242  -16.7136   25.4430 C   0  0  0  0  0  0  0  0  0  0  0  0
    8.0660  -17.6481   25.2957 O   0  0  0  0  0  0  0  0  0  0  0  0
   12.3254  -20.0064   26.0323 C   0  0  0  0  0  0  0  0  0  0  0  0
   11.8411  -18.6409   25.6637 C   0  0  1  0  0  0  0  0  0  0  0  0
   11.5544  -18.6719   24.2799 O   0  0  0  0  0  0  0  0  0  0  0  0
   10.5622  -18.2889   26.4061 C   0  0  2  0  0  0  0  0  0  0  0  0
   10.2053  -16.9600   25.9853 N   0  0  0  0  0  0  0  0  0  0  0  0
   10.7262  -18.4097   27.8632 C   0  0  0  0  0  0  0  0  0  0  0  0
   10.9967  -17.3824   28.5282 O   0  0  0  0  0  0  0  0  0  0  0  0
   10.5840  -19.6291   28.4752 O   0  0  0  0  0  0  0  0  0  0  0  0
  2  1  1  6
  3  2  1  0
  4  2  1  0
  5  4  1  0
  5  6  1  1
  7  8  2  0
  7  5  1  0
  9 10  1  0
 11 10  1  0
 12 11  1  0
 13 12  1  1
 13 14  1  0
 14  7  1  0
 15 13  1  0
 15 16  2  0
 18 17  1  1
 19 18  1  0
 20 21  1  1
 20 18  1  0
 21 15  1  0
 22 20  1  0
 23 22  2  0
 24 22  1  0
M  END
$$$$
