LMT.pdb
     RDKit          3D

 24 23  0  0  1  0  0  0  0  0999 V2000
    6.5961  -13.8101   19.9047 C   0  0  0  0  0  0  0  0  0  0  0  0
    8.0383  -13.4205   19.9845 C   0  0  2  0  0  0  0  0  0  0  0  0
    8.3207  -12.2215   19.1305 C   0  0  0  0  0  0  0  0  0  0  0  0
    8.9381  -14.5777   19.6984 C   0  0  0  0  0  0  0  0  0  0  0  0
    8.7052  -15.7859   20.5547 C   0  0  2  0  0  0  0  0  0  0  0  0
    7.3563  -16.2675   20.4684 N   0  0  0  0  0  0  0  0  0  0  0  0
    9.0140  -15.4033   21.9588 C   0  0  0  0  0  0  0  0  0  0  0  0
   10.1747  -15.0071   22.2945 O   0  0  0  0  0  0  0  0  0  0  0  0
    6.8393  -11.5857   28.1908 C   0  0  0  0  0  0  0  0  0  0  0  0
    6.4503  -12.3510   26.5950 S   0  0  0  0  0  0  0  0  0  0  0  0
    7.6060  -13.7507   26.3216 C   0  0  0  0  0  0  0  0  0  0  0  0
    7.4014  -14.2140   24.9218 C   0  0  0  0  0  0  0  0  0  0  0  0
    8.4575  -15.1518   24.4005 C   0  0  2  0  0  0  0  0  0  0  0  0
    8.0554  -15.4487   23.0164 N   0  0  0  0  0  0  0  0  0  0  0  0
    8.5892  -16.3966   25.1730 C   0  0  0  0  0  0  0  0  0  0  0  0
    7.5906  -17.1886   25.2572 O   0  0  0  0  0  0  0  0  0  0  0  0
   10.4364  -18.8677   24.1223 C   0  0  0  0  0  0  0  0  0  0  0  0
   10.9957  -18.7171   25.5005 C   0  0  1  0  0  0  0  0  0  0  0  0
   12.1739  -17.9458   25.3782 O   0  0  0  0  0  0  0  0  0  0  0  0
   10.0321  -17.9717   26.4096 C   0  0  2  0  0  0  0  0  0  0  0  0
    9.8207  -16.6843   25.8029 N   0  0  0  0  0  0  0  0  0  0  0  0
   10.5389  -17.8852   27.7882 C   0  0  0  0  0  0  0  0  0  0  0  0
   10.8553  -16.7625   28.2464 O   0  0  0  0  0  0  0  0  0  0  0  0
   10.6600  -19.0185   28.5517 O   0  0  0  0  0  0  0  0  0  0  0  0
  2  1  1  6
  3  2  1  0
  4  2  1  0
  5  4  1  0
  5  6  1  1
  7  8  2  0
  7  5  1  0
  9 10  1  0
 11 10  1  0
 12 11  1  0
 13 12  1  1
 13 14  1  0
 14  7  1  0
 15 13  1  0
 15 16  2  0
 18 17  1  6
 19 18  1  0
 20 21  1  6
 20 18  1  0
 21 15  1  0
 22 20  1  0
 23 22  2  0
 24 22  1  0
M  END
$$$$
