IFN.pdb
     RDKit          3D

 28 28  0  0  1  0  0  0  0  0999 V2000
   26.0281  -22.4922  -20.1737 C   0  0  0  0  0  0  0  0  0  0  0  0
   27.0040  -22.7466  -19.0440 C   0  0  0  0  0  0  0  0  0  0  0  0
   26.2145  -22.8582  -17.7794 C   0  0  2  0  0  0  0  0  0  0  0  0
   25.4183  -21.5845  -17.6075 C   0  0  0  0  0  0  0  0  0  0  0  0
   27.0371  -23.1159  -16.5444 C   0  0  2  0  0  0  0  0  0  0  0  0
   27.6399  -24.4259  -16.6836 N   0  0  0  0  0  0  0  0  0  0  0  0
   26.2731  -23.0615  -15.3017 C   0  0  0  0  0  0  0  0  0  0  0  0
   25.4544  -23.9438  -14.9311 O   0  0  0  0  0  0  0  0  0  0  0  0
   26.4454  -21.9526  -14.4363 N   0  0  0  0  0  0  0  0  0  0  0  0
   25.6966  -21.7681  -13.2024 C   0  0  1  0  0  0  0  0  0  0  0  0
   26.5490  -21.0080  -12.2199 C   0  0  0  0  0  0  0  0  0  0  0  0
   25.8801  -20.6765  -10.9624 C   0  0  0  0  0  0  0  0  0  0  0  0
   24.5478  -20.9608  -10.7195 C   0  0  0  0  0  0  0  0  0  0  0  0
   23.9018  -20.6717   -9.5507 C   0  0  0  0  0  0  0  0  0  0  0  0
   24.6214  -20.0498   -8.5292 C   0  0  0  0  0  0  0  0  0  0  0  0
   25.9429  -19.7663   -8.7658 C   0  0  0  0  0  0  0  0  0  0  0  0
   26.5809  -20.0606   -9.9413 C   0  0  0  0  0  0  0  0  0  0  0  0
   24.4470  -21.0406  -13.5135 C   0  0  0  0  0  0  0  0  0  0  0  0
   24.4644  -19.8979  -14.0568 O   0  0  0  0  0  0  0  0  0  0  0  0
   20.5360  -19.8998  -15.8000 N   0  0  0  0  0  0  0  0  0  0  0  0
   20.2942  -21.2240  -15.3543 C   0  0  0  0  0  0  0  0  0  0  0  0
   19.4858  -21.9291  -15.9935 O   0  0  0  0  0  0  0  0  0  0  0  0
   20.9752  -21.7504  -14.1755 C   0  0  0  0  0  0  0  0  0  0  0  0
   21.9357  -20.8238  -13.5066 C   0  0  2  0  0  0  0  0  0  0  0  0
   23.1536  -21.5634  -13.2287 N   0  0  0  0  0  0  0  0  0  0  0  0
   21.4000  -20.1777  -12.2903 C   0  0  0  0  0  0  0  0  0  0  0  0
   21.3001  -20.8309  -11.2260 O   0  0  0  0  0  0  0  0  0  0  0  0
   20.9841  -18.8465  -12.2441 O   0  0  0  0  0  0  0  0  0  0  0  0
  2  3  1  0
  2  1  1  0
  3  5  1  0
  3  4  1  1
  5  6  1  6
  7  8  2  0
  7  5  1  0
  9  7  1  0
 10  9  1  0
 10 11  1  1
 11 12  1  0
 12 13  2  0
 12 17  1  0
 13 14  1  0
 14 15  2  0
 16 15  1  0
 17 16  2  0
 18 10  1  0
 19 18  2  0
 20 21  1  0
 21 22  2  0
 21 23  1  0
 24 23  1  1
 24 26  1  0
 24 25  1  0
 25 18  1  0
 26 28  1  0
 27 26  2  0
M  END
$$$$
