IFN.pdb
     RDKit          3D

 28 28  0  0  1  0  0  0  0  0999 V2000
   28.5185  -20.2997  -16.0717 C   0  0  0  0  0  0  0  0  0  0  0  0
   27.3881  -19.7985  -15.1975 C   0  0  0  0  0  0  0  0  0  0  0  0
   27.3628  -20.6403  -13.9624 C   0  0  2  0  0  0  0  0  0  0  0  0
   27.2563  -22.0888  -14.3819 C   0  0  0  0  0  0  0  0  0  0  0  0
   26.2569  -20.3067  -12.9958 C   0  0  2  0  0  0  0  0  0  0  0  0
   26.1288  -18.8643  -12.9556 N   0  0  0  0  0  0  0  0  0  0  0  0
   26.4781  -20.8134  -11.6448 C   0  0  0  0  0  0  0  0  0  0  0  0
   26.5163  -22.0350  -11.3409 O   0  0  0  0  0  0  0  0  0  0  0  0
   26.6655  -19.8904  -10.5860 N   0  0  0  0  0  0  0  0  0  0  0  0
   26.7570  -20.2761   -9.1860 C   0  0  1  0  0  0  0  0  0  0  0  0
   27.8501  -19.4759   -8.5267 C   0  0  0  0  0  0  0  0  0  0  0  0
   27.9543  -19.6636   -7.0802 C   0  0  0  0  0  0  0  0  0  0  0  0
   27.3032  -18.8539   -6.1662 C   0  0  0  0  0  0  0  0  0  0  0  0
   27.3750  -19.0138   -4.8110 C   0  0  0  0  0  0  0  0  0  0  0  0
   28.1517  -20.0571   -4.3046 C   0  0  0  0  0  0  0  0  0  0  0  0
   28.7988  -20.8626   -5.2076 C   0  0  0  0  0  0  0  0  0  0  0  0
   28.7198  -20.6935   -6.5642 C   0  0  0  0  0  0  0  0  0  0  0  0
   25.4462  -20.0364   -8.5442 C   0  0  0  0  0  0  0  0  0  0  0  0
   24.7584  -19.0076   -8.8086 O   0  0  0  0  0  0  0  0  0  0  0  0
   20.7409  -22.7754   -9.0660 N   0  0  0  0  0  0  0  0  0  0  0  0
   21.3757  -21.5504   -8.7390 C   0  0  0  0  0  0  0  0  0  0  0  0
   20.6608  -20.5618   -8.4729 O   0  0  0  0  0  0  0  0  0  0  0  0
   22.8315  -21.4482   -8.7137 C   0  0  0  0  0  0  0  0  0  0  0  0
   23.4367  -21.0495   -7.4087 C   0  0  2  0  0  0  0  0  0  0  0  0
   24.8713  -20.9303   -7.5967 N   0  0  0  0  0  0  0  0  0  0  0  0
   23.1065  -21.9573   -6.2904 C   0  0  0  0  0  0  0  0  0  0  0  0
   23.0229  -21.5095   -5.1234 O   0  0  0  0  0  0  0  0  0  0  0  0
   22.8738  -23.3239   -6.4500 O   0  0  0  0  0  0  0  0  0  0  0  0
  2  3  1  0
  2  1  1  0
  3  5  1  0
  3  4  1  6
  5  6  1  1
  7  8  2  0
  7  5  1  0
  9  7  1  0
 10  9  1  0
 10 11  1  1
 11 12  1  0
 12 13  2  0
 12 17  1  0
 13 14  1  0
 14 15  2  0
 16 15  1  0
 17 16  2  0
 18 10  1  0
 19 18  2  0
 20 21  1  0
 21 22  2  0
 21 23  1  0
 24 23  1  6
 24 26  1  0
 24 25  1  0
 25 18  1  0
 26 28  1  0
 27 26  2  0
M  END
$$$$
