IFN.pdb
     RDKit          3D

 28 28  0  0  1  0  0  0  0  0999 V2000
   28.5304  -17.6971  -15.2528 C   0  0  0  0  0  0  0  0  0  0  0  0
   28.0380  -18.9436  -15.9578 C   0  0  0  0  0  0  0  0  0  0  0  0
   27.1517  -19.6821  -15.0070 C   0  0  2  0  0  0  0  0  0  0  0  0
   25.9493  -18.8139  -14.7133 C   0  0  0  0  0  0  0  0  0  0  0  0
   27.8135  -20.0900  -13.7170 C   0  0  2  0  0  0  0  0  0  0  0  0
   28.9724  -20.8921  -14.0523 N   0  0  0  0  0  0  0  0  0  0  0  0
   26.9445  -20.8427  -12.8176 C   0  0  0  0  0  0  0  0  0  0  0  0
   26.6303  -22.0516  -12.9789 O   0  0  0  0  0  0  0  0  0  0  0  0
   26.4049  -20.1937  -11.6792 N   0  0  0  0  0  0  0  0  0  0  0  0
   25.5345  -20.8482  -10.7142 C   0  0  1  0  0  0  0  0  0  0  0  0
   25.6214  -20.1171   -9.3998 C   0  0  0  0  0  0  0  0  0  0  0  0
   26.9120  -20.2338   -8.7222 C   0  0  0  0  0  0  0  0  0  0  0  0
   27.9050  -21.1038   -9.1368 C   0  0  0  0  0  0  0  0  0  0  0  0
   29.1227  -21.2249   -8.5287 C   0  0  0  0  0  0  0  0  0  0  0  0
   29.3936  -20.4253   -7.4173 C   0  0  0  0  0  0  0  0  0  0  0  0
   28.4117  -19.5610   -7.0030 C   0  0  0  0  0  0  0  0  0  0  0  0
   27.1945  -19.4474   -7.6201 C   0  0  0  0  0  0  0  0  0  0  0  0
   24.1546  -20.8459  -11.2465 C   0  0  0  0  0  0  0  0  0  0  0  0
   23.1667  -21.1703  -10.5252 O   0  0  0  0  0  0  0  0  0  0  0  0
   20.0170  -18.2724  -13.8426 N   0  0  0  0  0  0  0  0  0  0  0  0
   21.0340  -18.9819  -14.5303 C   0  0  0  0  0  0  0  0  0  0  0  0
   20.7863  -19.4188  -15.6736 O   0  0  0  0  0  0  0  0  0  0  0  0
   22.3404  -19.1960  -13.9155 C   0  0  0  0  0  0  0  0  0  0  0  0
   22.4766  -20.4255  -13.0799 C   0  0  2  0  0  0  0  0  0  0  0  0
   23.8411  -20.4851  -12.5877 N   0  0  0  0  0  0  0  0  0  0  0  0
   22.0927  -21.6712  -13.7761 C   0  0  0  0  0  0  0  0  0  0  0  0
   22.9690  -22.3765  -14.3274 O   0  0  0  0  0  0  0  0  0  0  0  0
   20.7782  -22.1310  -13.8646 O   0  0  0  0  0  0  0  0  0  0  0  0
  2  3  1  0
  2  1  1  0
  3  5  1  0
  3  4  1  1
  5  6  1  6
  7  8  2  0
  7  5  1  0
  9  7  1  0
 10  9  1  0
 10 11  1  1
 11 12  1  0
 12 13  2  0
 12 17  1  0
 13 14  1  0
 14 15  2  0
 16 15  1  0
 17 16  2  0
 18 10  1  0
 19 18  2  0
 20 21  1  0
 21 22  2  0
 21 23  1  0
 24 23  1  6
 24 26  1  0
 24 25  1  0
 25 18  1  0
 26 28  1  0
 27 26  2  0
M  END
$$$$
