IFN.pdb
     RDKit          3D

 28 28  0  0  1  0  0  0  0  0999 V2000
   23.8038   -6.5009  -23.5425 C   0  0  0  0  0  0  0  0  0  0  0  0
   24.8748   -6.8659  -22.5361 C   0  0  0  0  0  0  0  0  0  0  0  0
   24.1884   -7.2988  -21.2806 C   0  0  2  0  0  0  0  0  0  0  0  0
   23.4246   -6.1161  -20.7297 C   0  0  0  0  0  0  0  0  0  0  0  0
   25.1045   -7.8525  -20.2210 C   0  0  2  0  0  0  0  0  0  0  0  0
   25.8386   -8.9551  -20.8075 N   0  0  0  0  0  0  0  0  0  0  0  0
   24.4125   -8.3123  -19.0209 C   0  0  0  0  0  0  0  0  0  0  0  0
   23.7271   -9.3669  -18.9553 O   0  0  0  0  0  0  0  0  0  0  0  0
   24.5015   -7.5392  -17.8365 N   0  0  0  0  0  0  0  0  0  0  0  0
   23.8520   -7.9014  -16.5859 C   0  0  1  0  0  0  0  0  0  0  0  0
   24.8907   -7.9767  -15.4971 C   0  0  0  0  0  0  0  0  0  0  0  0
   25.7059   -9.1906  -15.5163 C   0  0  0  0  0  0  0  0  0  0  0  0
   26.9850   -9.2313  -16.0429 C   0  0  0  0  0  0  0  0  0  0  0  0
   27.7714  -10.3486  -16.0637 C   0  0  0  0  0  0  0  0  0  0  0  0
   27.2628  -11.5302  -15.5222 C   0  0  0  0  0  0  0  0  0  0  0  0
   25.9950  -11.4941  -14.9988 C   0  0  0  0  0  0  0  0  0  0  0  0
   25.2151  -10.3685  -14.9828 C   0  0  0  0  0  0  0  0  0  0  0  0
   22.8184   -6.8884  -16.2808 C   0  0  0  0  0  0  0  0  0  0  0  0
   23.1010   -5.6574  -16.2029 O   0  0  0  0  0  0  0  0  0  0  0  0
   18.4709   -4.1931  -16.5679 N   0  0  0  0  0  0  0  0  0  0  0  0
   19.5058   -4.3911  -17.5167 C   0  0  0  0  0  0  0  0  0  0  0  0
   19.5522   -3.6395  -18.5128 O   0  0  0  0  0  0  0  0  0  0  0  0
   20.4942   -5.4492  -17.3325 C   0  0  0  0  0  0  0  0  0  0  0  0
   20.3986   -6.2189  -16.0570 C   0  0  2  0  0  0  0  0  0  0  0  0
   21.4517   -7.2182  -16.0554 N   0  0  0  0  0  0  0  0  0  0  0  0
   19.0718   -6.8241  -15.8179 C   0  0  0  0  0  0  0  0  0  0  0  0
   18.6608   -7.7463  -16.5596 O   0  0  0  0  0  0  0  0  0  0  0  0
   18.2171   -6.4260  -14.7892 O   0  0  0  0  0  0  0  0  0  0  0  0
  2  3  1  0
  2  1  1  0
  3  5  1  0
  3  4  1  1
  5  6  1  6
  7  8  2  0
  7  5  1  0
  9  7  1  0
 10  9  1  0
 10 11  1  1
 11 12  1  0
 12 13  2  0
 12 17  1  0
 13 14  1  0
 14 15  2  0
 16 15  1  0
 17 16  2  0
 18 10  1  0
 19 18  2  0
 20 21  1  0
 21 22  2  0
 21 23  1  0
 24 23  1  6
 24 26  1  0
 24 25  1  0
 25 18  1  0
 26 28  1  0
 27 26  2  0
M  END
$$$$
