IFN.pdb
     RDKit          3D

 28 28  0  0  1  0  0  0  0  0999 V2000
   16.3792  -15.7406  -18.5003 C   0  0  0  0  0  0  0  0  0  0  0  0
   17.8320  -15.9596  -18.8670 C   0  0  0  0  0  0  0  0  0  0  0  0
   18.6575  -15.0559  -18.0087 C   0  0  2  0  0  0  0  0  0  0  0  0
   18.2463  -13.6295  -18.2951 C   0  0  0  0  0  0  0  0  0  0  0  0
   20.1457  -15.2033  -18.1881 C   0  0  2  0  0  0  0  0  0  0  0  0
   20.4695  -16.6071  -18.0359 N   0  0  0  0  0  0  0  0  0  0  0  0
   20.9366  -14.4167  -17.2466 C   0  0  0  0  0  0  0  0  0  0  0  0
   20.9586  -14.6087  -16.0022 O   0  0  0  0  0  0  0  0  0  0  0  0
   21.7426  -13.3605  -17.7396 N   0  0  0  0  0  0  0  0  0  0  0  0
   22.4848  -12.4456  -16.8856 C   0  0  1  0  0  0  0  0  0  0  0  0
   23.9331  -12.4526  -17.3004 C   0  0  0  0  0  0  0  0  0  0  0  0
   24.7734  -11.4863  -16.5941 C   0  0  0  0  0  0  0  0  0  0  0  0
   25.3971  -11.7672  -15.3912 C   0  0  0  0  0  0  0  0  0  0  0  0
   26.1953  -10.8871  -14.7163 C   0  0  0  0  0  0  0  0  0  0  0  0
   26.4020   -9.6207  -15.2657 C   0  0  0  0  0  0  0  0  0  0  0  0
   25.7857   -9.3382  -16.4586 C   0  0  0  0  0  0  0  0  0  0  0  0
   24.9876  -10.2281  -17.1269 C   0  0  0  0  0  0  0  0  0  0  0  0
   21.8907  -11.0970  -17.0109 C   0  0  0  0  0  0  0  0  0  0  0  0
   21.4687  -10.6603  -18.1211 O   0  0  0  0  0  0  0  0  0  0  0  0
   18.6336   -6.9985  -17.1713 N   0  0  0  0  0  0  0  0  0  0  0  0
   19.1012   -7.5863  -15.9687 C   0  0  0  0  0  0  0  0  0  0  0  0
   18.9256   -6.9699  -14.8970 O   0  0  0  0  0  0  0  0  0  0  0  0
   19.7720   -8.8826  -15.9836 C   0  0  0  0  0  0  0  0  0  0  0  0
   21.2622   -8.8471  -16.0637 C   0  0  2  0  0  0  0  0  0  0  0  0
   21.7527  -10.2048  -15.9098 N   0  0  0  0  0  0  0  0  0  0  0  0
   21.8945   -7.9256  -15.0969 C   0  0  0  0  0  0  0  0  0  0  0  0
   22.3971   -8.3737  -14.0406 O   0  0  0  0  0  0  0  0  0  0  0  0
   21.9729   -6.5452  -15.2858 O   0  0  0  0  0  0  0  0  0  0  0  0
  2  3  1  0
  2  1  1  0
  3  5  1  0
  3  4  1  6
  5  6  1  1
  7  8  2  0
  7  5  1  0
  9  7  1  0
 10  9  1  0
 10 11  1  6
 11 12  1  0
 12 13  2  0
 12 17  1  0
 13 14  1  0
 14 15  2  0
 16 15  1  0
 17 16  2  0
 18 10  1  0
 19 18  2  0
 20 21  1  0
 21 22  2  0
 21 23  1  0
 24 23  1  1
 24 26  1  0
 24 25  1  0
 25 18  1  0
 26 28  1  0
 27 26  2  0
M  END
$$$$
