IFN.pdb
     RDKit          3D

 28 28  0  0  1  0  0  0  0  0999 V2000
   27.1334  -17.5662  -15.1001 C   0  0  0  0  0  0  0  0  0  0  0  0
   27.1232  -19.0620  -15.3363 C   0  0  0  0  0  0  0  0  0  0  0  0
   26.8406  -19.7258  -14.0270 C   0  0  2  0  0  0  0  0  0  0  0  0
   25.4867  -19.2573  -13.5440 C   0  0  0  0  0  0  0  0  0  0  0  0
   27.8754  -19.4806  -12.9604 C   0  0  2  0  0  0  0  0  0  0  0  0
   29.1634  -19.8638  -13.5016 N   0  0  0  0  0  0  0  0  0  0  0  0
   27.6321  -20.2106  -11.7200 C   0  0  0  0  0  0  0  0  0  0  0  0
   27.6878  -21.4639  -11.6100 O   0  0  0  0  0  0  0  0  0  0  0  0
   27.3102  -19.4846  -10.5463 N   0  0  0  0  0  0  0  0  0  0  0  0
   27.0774  -20.1061   -9.2515 C   0  0  1  0  0  0  0  0  0  0  0  0
   27.2453  -19.0689   -8.1718 C   0  0  0  0  0  0  0  0  0  0  0  0
   27.4759  -19.6140   -6.8344 C   0  0  0  0  0  0  0  0  0  0  0  0
   26.5679  -19.4795   -5.7988 C   0  0  0  0  0  0  0  0  0  0  0  0
   26.7537  -19.9877   -4.5441 C   0  0  0  0  0  0  0  0  0  0  0  0
   27.9308  -20.6891   -4.2782 C   0  0  0  0  0  0  0  0  0  0  0  0
   28.8336  -20.8250   -5.3024 C   0  0  0  0  0  0  0  0  0  0  0  0
   28.6373  -20.3117   -6.5567 C   0  0  0  0  0  0  0  0  0  0  0  0
   25.7154  -20.6827   -9.2432 C   0  0  0  0  0  0  0  0  0  0  0  0
   25.3276  -21.4508   -8.3153 O   0  0  0  0  0  0  0  0  0  0  0  0
   20.6170  -21.3586   -8.9794 N   0  0  0  0  0  0  0  0  0  0  0  0
   21.0597  -20.2780   -9.7836 C   0  0  0  0  0  0  0  0  0  0  0  0
   20.2147  -19.6507  -10.4558 O   0  0  0  0  0  0  0  0  0  0  0  0
   22.4710  -19.9075   -9.8241 C   0  0  0  0  0  0  0  0  0  0  0  0
   23.4185  -20.9848  -10.2366 C   0  0  2  0  0  0  0  0  0  0  0  0
   24.7560  -20.4208  -10.2623 N   0  0  0  0  0  0  0  0  0  0  0  0
   23.0735  -21.6297  -11.5207 C   0  0  0  0  0  0  0  0  0  0  0  0
   23.6207  -21.2475  -12.5809 O   0  0  0  0  0  0  0  0  0  0  0  0
   22.1499  -22.6692  -11.6376 O   0  0  0  0  0  0  0  0  0  0  0  0
  2  3  1  0
  2  1  1  0
  3  5  1  0
  3  4  1  1
  5  6  1  6
  7  8  2  0
  7  5  1  0
  9  7  1  0
 10  9  1  0
 10 11  1  1
 11 12  1  0
 12 13  2  0
 12 17  1  0
 13 14  1  0
 14 15  2  0
 16 15  1  0
 17 16  2  0
 18 10  1  0
 19 18  2  0
 20 21  1  0
 21 22  2  0
 21 23  1  0
 24 23  1  6
 24 26  1  0
 24 25  1  0
 25 18  1  0
 26 28  1  0
 27 26  2  0
M  END
$$$$
