IFN.pdb
     RDKit          3D

 28 28  0  0  1  0  0  0  0  0999 V2000
   26.8876  -18.8860  -16.1703 C   0  0  0  0  0  0  0  0  0  0  0  0
   28.0651  -19.4543  -15.4065 C   0  0  0  0  0  0  0  0  0  0  0  0
   27.5626  -19.9160  -14.0764 C   0  0  2  0  0  0  0  0  0  0  0  0
   27.0297  -18.7133  -13.3312 C   0  0  0  0  0  0  0  0  0  0  0  0
   28.5845  -20.6286  -13.2300 C   0  0  2  0  0  0  0  0  0  0  0  0
   29.0553  -21.7743  -13.9814 N   0  0  0  0  0  0  0  0  0  0  0  0
   28.0765  -21.0713  -11.9352 C   0  0  0  0  0  0  0  0  0  0  0  0
   27.2715  -22.0268  -11.7761 O   0  0  0  0  0  0  0  0  0  0  0  0
   28.5016  -20.3984  -10.7628 N   0  0  0  0  0  0  0  0  0  0  0  0
   28.0252  -20.7249   -9.4273 C   0  0  1  0  0  0  0  0  0  0  0  0
   28.9186  -20.0618   -8.4115 C   0  0  0  0  0  0  0  0  0  0  0  0
   28.4377  -20.1422   -7.0328 C   0  0  0  0  0  0  0  0  0  0  0  0
   27.6703  -19.1530   -6.4433 C   0  0  0  0  0  0  0  0  0  0  0  0
   27.1995  -19.2080   -5.1617 C   0  0  0  0  0  0  0  0  0  0  0  0
   27.5058  -20.3287   -4.3881 C   0  0  0  0  0  0  0  0  0  0  0  0
   28.2662  -21.3121   -4.9690 C   0  0  0  0  0  0  0  0  0  0  0  0
   28.7330  -21.2469   -6.2548 C   0  0  0  0  0  0  0  0  0  0  0  0
   26.6250  -20.2655   -9.3008 C   0  0  0  0  0  0  0  0  0  0  0  0
   26.3061  -19.0554   -9.4889 O   0  0  0  0  0  0  0  0  0  0  0  0
   21.1108  -21.5654  -10.4107 N   0  0  0  0  0  0  0  0  0  0  0  0
   22.1013  -20.5619  -10.2612 C   0  0  0  0  0  0  0  0  0  0  0  0
   21.7361  -19.3695  -10.1984 O   0  0  0  0  0  0  0  0  0  0  0  0
   23.5153  -20.9154  -10.1822 C   0  0  0  0  0  0  0  0  0  0  0  0
   24.1766  -20.6771   -8.8653 C   0  0  2  0  0  0  0  0  0  0  0  0
   25.5504  -21.1363   -8.9630 N   0  0  0  0  0  0  0  0  0  0  0  0
   23.4753  -21.2937   -7.7200 C   0  0  0  0  0  0  0  0  0  0  0  0
   22.2929  -20.9706   -7.4614 O   0  0  0  0  0  0  0  0  0  0  0  0
   24.0586  -22.2424   -6.8790 O   0  0  0  0  0  0  0  0  0  0  0  0
  2  3  1  0
  2  1  1  0
  3  5  1  0
  3  4  1  1
  5  6  1  6
  7  8  2  0
  7  5  1  0
  9  7  1  0
 10  9  1  0
 10 11  1  1
 11 12  1  0
 12 13  2  0
 12 17  1  0
 13 14  1  0
 14 15  2  0
 16 15  1  0
 17 16  2  0
 18 10  1  0
 19 18  2  0
 20 21  1  0
 21 22  2  0
 21 23  1  0
 24 23  1  6
 24 26  1  0
 24 25  1  0
 25 18  1  0
 26 28  1  0
 27 26  2  0
M  END
$$$$
