IFN.pdb
     RDKit          3D

 28 28  0  0  1  0  0  0  0  0999 V2000
   25.5705  -17.3189  -20.7978 C   0  0  0  0  0  0  0  0  0  0  0  0
   26.7682  -17.6135  -19.9192 C   0  0  0  0  0  0  0  0  0  0  0  0
   26.3217  -18.5503  -18.8432 C   0  0  2  0  0  0  0  0  0  0  0  0
   25.1576  -17.9139  -18.1181 C   0  0  0  0  0  0  0  0  0  0  0  0
   27.3925  -18.9296  -17.8543 C   0  0  2  0  0  0  0  0  0  0  0  0
   28.4435  -19.6091  -18.5840 N   0  0  0  0  0  0  0  0  0  0  0  0
   26.9212  -19.7856  -16.7700 C   0  0  0  0  0  0  0  0  0  0  0  0
   26.6062  -20.9974  -16.9063 O   0  0  0  0  0  0  0  0  0  0  0  0
   26.8009  -19.2419  -15.4669 N   0  0  0  0  0  0  0  0  0  0  0  0
   26.2655  -19.9779  -14.3317 C   0  0  1  0  0  0  0  0  0  0  0  0
   27.0175  -19.5786  -13.0888 C   0  0  0  0  0  0  0  0  0  0  0  0
   26.5347  -20.2034  -11.8579 C   0  0  0  0  0  0  0  0  0  0  0  0
   25.7119  -19.5531  -10.9551 C   0  0  0  0  0  0  0  0  0  0  0  0
   25.2383  -20.1167   -9.8039 C   0  0  0  0  0  0  0  0  0  0  0  0
   25.6010  -21.4319   -9.5092 C   0  0  0  0  0  0  0  0  0  0  0  0
   26.4166  -22.0805  -10.4019 C   0  0  0  0  0  0  0  0  0  0  0  0
   26.8855  -21.5061  -11.5532 C   0  0  0  0  0  0  0  0  0  0  0  0
   24.8223  -19.6769  -14.2130 C   0  0  0  0  0  0  0  0  0  0  0  0
   24.3924  -18.4867  -14.2118 O   0  0  0  0  0  0  0  0  0  0  0  0
   19.6287  -19.8687  -14.0266 N   0  0  0  0  0  0  0  0  0  0  0  0
   20.2529  -20.4817  -15.1424 C   0  0  0  0  0  0  0  0  0  0  0  0
   19.5442  -20.8030  -16.1190 O   0  0  0  0  0  0  0  0  0  0  0  0
   21.6911  -20.7308  -15.1489 C   0  0  0  0  0  0  0  0  0  0  0  0
   22.4218  -20.3778  -13.8959 C   0  0  2  0  0  0  0  0  0  0  0  0
   23.8264  -20.6875  -14.0928 N   0  0  0  0  0  0  0  0  0  0  0  0
   21.8843  -21.0285  -12.6829 C   0  0  0  0  0  0  0  0  0  0  0  0
   22.2321  -22.1963  -12.3918 O   0  0  0  0  0  0  0  0  0  0  0  0
   20.9867  -20.4115  -11.8106 O   0  0  0  0  0  0  0  0  0  0  0  0
  2  3  1  0
  2  1  1  0
  3  5  1  0
  3  4  1  1
  5  6  1  6
  7  8  2  0
  7  5  1  0
  9  7  1  0
 10  9  1  0
 10 11  1  1
 11 12  1  0
 12 13  2  0
 12 17  1  0
 13 14  1  0
 14 15  2  0
 16 15  1  0
 17 16  2  0
 18 10  1  0
 19 18  2  0
 20 21  1  0
 21 22  2  0
 21 23  1  0
 24 23  1  6
 24 26  1  0
 24 25  1  0
 25 18  1  0
 26 28  1  0
 27 26  2  0
M  END
$$$$
