IFN.pdb
     RDKit          3D

 28 28  0  0  1  0  0  0  0  0999 V2000
   26.1629  -22.0285  -20.6893 C   0  0  0  0  0  0  0  0  0  0  0  0
   27.0812  -21.7746  -19.5123 C   0  0  0  0  0  0  0  0  0  0  0  0
   26.3416  -22.1548  -18.2700 C   0  0  2  0  0  0  0  0  0  0  0  0
   25.0399  -21.3863  -18.2431 C   0  0  0  0  0  0  0  0  0  0  0  0
   27.0990  -21.9198  -16.9895 C   0  0  2  0  0  0  0  0  0  0  0  0
   28.2803  -22.7581  -17.0177 N   0  0  0  0  0  0  0  0  0  0  0  0
   26.3277  -22.2065  -15.7838 C   0  0  0  0  0  0  0  0  0  0  0  0
   26.0434  -23.3651  -15.3803 O   0  0  0  0  0  0  0  0  0  0  0  0
   25.8553  -21.1271  -14.9965 N   0  0  0  0  0  0  0  0  0  0  0  0
   25.0254  -21.2941  -13.8131 C   0  0  1  0  0  0  0  0  0  0  0  0
   25.5296  -20.3800  -12.7268 C   0  0  0  0  0  0  0  0  0  0  0  0
   24.7873  -20.4611  -11.4695 C   0  0  0  0  0  0  0  0  0  0  0  0
   25.3041  -21.0428  -10.3252 C   0  0  0  0  0  0  0  0  0  0  0  0
   24.6365  -21.1222   -9.1356 C   0  0  0  0  0  0  0  0  0  0  0  0
   23.3503  -20.5858   -9.0576 C   0  0  0  0  0  0  0  0  0  0  0  0
   22.8341  -20.0078  -10.1900 C   0  0  0  0  0  0  0  0  0  0  0  0
   23.5121  -19.9334  -11.3775 C   0  0  0  0  0  0  0  0  0  0  0  0
   23.6239  -20.9880  -14.1730 C   0  0  0  0  0  0  0  0  0  0  0  0
   23.3378  -20.0766  -15.0030 O   0  0  0  0  0  0  0  0  0  0  0  0
   19.1535  -20.4138  -16.5398 N   0  0  0  0  0  0  0  0  0  0  0  0
   19.6156  -21.6259  -15.9672 C   0  0  0  0  0  0  0  0  0  0  0  0
   18.8356  -22.6002  -15.9259 O   0  0  0  0  0  0  0  0  0  0  0  0
   20.9721  -21.7318  -15.4388 C   0  0  0  0  0  0  0  0  0  0  0  0
   21.1411  -21.3861  -13.9965 C   0  0  2  0  0  0  0  0  0  0  0  0
   22.5114  -21.6843  -13.6208 N   0  0  0  0  0  0  0  0  0  0  0  0
   20.1726  -22.0523  -13.1010 C   0  0  0  0  0  0  0  0  0  0  0  0
   18.9581  -21.7498  -13.1553 O   0  0  0  0  0  0  0  0  0  0  0  0
   20.5293  -23.0271  -12.1684 O   0  0  0  0  0  0  0  0  0  0  0  0
  2  3  1  0
  2  1  1  0
  3  5  1  0
  3  4  1  1
  5  6  1  6
  7  8  2  0
  7  5  1  0
  9  7  1  0
 10  9  1  0
 10 11  1  1
 11 12  1  0
 12 13  2  0
 12 17  1  0
 13 14  1  0
 14 15  2  0
 16 15  1  0
 17 16  2  0
 18 10  1  0
 19 18  2  0
 20 21  1  0
 21 22  2  0
 21 23  1  0
 24 23  1  6
 24 26  1  0
 24 25  1  0
 25 18  1  0
 26 28  1  0
 27 26  2  0
M  END
$$$$
