IFN.pdb
     RDKit          3D

 28 28  0  0  1  0  0  0  0  0999 V2000
   26.7366  -20.3477  -20.6359 C   0  0  0  0  0  0  0  0  0  0  0  0
   27.6885  -20.5954  -19.4845 C   0  0  0  0  0  0  0  0  0  0  0  0
   26.8674  -20.9409  -18.2839 C   0  0  2  0  0  0  0  0  0  0  0  0
   25.8605  -19.8340  -18.0677 C   0  0  0  0  0  0  0  0  0  0  0  0
   27.6595  -21.1632  -17.0223 C   0  0  2  0  0  0  0  0  0  0  0  0
   28.6509  -22.1825  -17.2999 N   0  0  0  0  0  0  0  0  0  0  0  0
   26.8495  -21.5711  -15.8784 C   0  0  0  0  0  0  0  0  0  0  0  0
   26.1790  -22.6359  -15.8255 O   0  0  0  0  0  0  0  0  0  0  0  0
   26.7970  -20.7313  -14.7382 N   0  0  0  0  0  0  0  0  0  0  0  0
   25.9648  -21.0005  -13.5754 C   0  0  1  0  0  0  0  0  0  0  0  0
   26.5766  -20.3363  -12.3695 C   0  0  0  0  0  0  0  0  0  0  0  0
   25.7677  -20.4172  -11.1538 C   0  0  0  0  0  0  0  0  0  0  0  0
   26.1448  -21.1546  -10.0452 C   0  0  0  0  0  0  0  0  0  0  0  0
   25.4136  -21.2385   -8.8940 C   0  0  0  0  0  0  0  0  0  0  0  0
   24.2073  -20.5403   -8.8198 C   0  0  0  0  0  0  0  0  0  0  0  0
   23.8298  -19.8076   -9.9168 C   0  0  0  0  0  0  0  0  0  0  0  0
   24.5706  -19.7302  -11.0660 C   0  0  0  0  0  0  0  0  0  0  0  0
   24.6022  -20.4914  -13.8427 C   0  0  0  0  0  0  0  0  0  0  0  0
   24.4117  -19.4012  -14.4564 O   0  0  0  0  0  0  0  0  0  0  0  0
   19.5634  -19.9666  -14.8207 N   0  0  0  0  0  0  0  0  0  0  0  0
   20.5378  -20.5039  -15.6995 C   0  0  0  0  0  0  0  0  0  0  0  0
   20.2375  -20.6524  -16.9025 O   0  0  0  0  0  0  0  0  0  0  0  0
   21.8616  -20.8743  -15.2088 C   0  0  0  0  0  0  0  0  0  0  0  0
   22.0913  -20.6917  -13.7451 C   0  0  2  0  0  0  0  0  0  0  0  0
   23.4235  -21.1787  -13.4354 N   0  0  0  0  0  0  0  0  0  0  0  0
   21.0660  -21.3274  -12.8916 C   0  0  0  0  0  0  0  0  0  0  0  0
   21.2783  -22.4566  -12.3925 O   0  0  0  0  0  0  0  0  0  0  0  0
   19.8372  -20.7370  -12.5936 O   0  0  0  0  0  0  0  0  0  0  0  0
  2  3  1  0
  2  1  1  0
  3  5  1  0
  3  4  1  1
  5  6  1  6
  7  8  2  0
  7  5  1  0
  9  7  1  0
 10  9  1  0
 10 11  1  1
 11 12  1  0
 12 13  2  0
 12 17  1  0
 13 14  1  0
 14 15  2  0
 16 15  1  0
 17 16  2  0
 18 10  1  0
 19 18  2  0
 20 21  1  0
 21 22  2  0
 21 23  1  0
 24 23  1  6
 24 26  1  0
 24 25  1  0
 25 18  1  0
 26 28  1  0
 27 26  2  0
M  END
$$$$
