LYE.pdb
     RDKit          3D

 30 30  0  0  1  0  0  0  0  0999 V2000
    7.2314  -12.2875   19.0476 C   0  0  0  0  0  0  0  0  0  0  0  0
    7.4250  -13.7310   19.4614 C   0  0  1  0  0  0  0  0  0  0  0  0
    7.0389  -14.6927   18.3387 C   0  0  0  0  0  0  0  0  0  0  0  0
    8.8311  -14.0114   19.9628 C   0  0  0  0  0  0  0  0  0  0  0  0
    8.8216  -15.2439   20.7913 C   0  0  2  0  0  0  0  0  0  0  0  0
    7.4961  -15.6944   21.0511 N   0  0  0  0  0  0  0  0  0  0  0  0
    9.5626  -15.1256   22.0658 C   0  0  0  0  0  0  0  0  0  0  0  0
   10.7713  -14.7708   22.1207 O   0  0  0  0  0  0  0  0  0  0  0  0
   10.6336  -15.4697   30.8797 O   0  0  0  0  0  0  0  0  0  0  0  0
   10.1054  -15.4056   29.6100 C   0  0  0  0  0  0  0  0  0  0  0  0
    9.5758  -16.4997   28.9657 C   0  0  0  0  0  0  0  0  0  0  0  0
    9.0530  -16.4253   27.6940 C   0  0  0  0  0  0  0  0  0  0  0  0
    9.0481  -15.2021   27.0110 C   0  0  0  0  0  0  0  0  0  0  0  0
    8.5655  -15.0917   25.6341 C   0  0  0  0  0  0  0  0  0  0  0  0
    9.5832  -15.3438   24.6029 C   0  0  2  0  0  0  0  0  0  0  0  0
    8.9193  -15.4126   23.2728 N   0  0  0  0  0  0  0  0  0  0  0  0
   10.2923  -16.6132   24.7284 C   0  0  0  0  0  0  0  0  0  0  0  0
    9.6328  -17.6753   24.4371 O   0  0  0  0  0  0  0  0  0  0  0  0
    9.5779  -14.1137   27.6597 C   0  0  0  0  0  0  0  0  0  0  0  0
   10.0897  -14.2120   28.9208 C   0  0  0  0  0  0  0  0  0  0  0  0
   11.6399  -16.8314   25.1228 N   0  0  0  0  0  0  0  0  0  0  0  0
   12.2451  -18.1018   25.2548 C   0  0  1  0  0  0  0  0  0  0  0  0
   13.3740  -18.5008   24.4066 C   0  0  0  0  0  0  0  0  0  0  0  0
   13.1311  -18.1913   22.9504 C   0  0  0  0  0  0  0  0  0  0  0  0
   14.3561  -18.4649   22.1575 C   0  0  0  0  0  0  0  0  0  0  0  0
   14.3796  -19.4550   21.3907 O   0  0  0  0  0  0  0  0  0  0  0  0
   12.5827  -18.4914   26.6719 C   0  0  0  0  0  0  0  0  0  0  0  0
   12.3589  -17.5697   27.6651 O   0  0  0  0  0  0  0  0  0  0  0  0
   15.4392  -17.6184   22.2862 O   0  0  0  0  0  0  0  0  0  0  0  0
   13.0435  -19.6010   26.9152 O   0  0  0  0  0  0  0  0  0  0  0  0
  2  1  1  6
  2  3  1  0
  4  2  1  0
  5  4  1  0
  5  6  1  1
  7  5  1  0
  7  8  2  0
  9 10  1  0
 10 11  2  0
 11 12  1  0
 13 12  2  0
 13 14  1  0
 15 14  1  1
 15 16  1  0
 16  7  1  0
 17 15  1  0
 18 17  2  0
 19 13  1  0
 20 10  1  0
 20 19  2  0
 21 17  1  0
 22 21  1  0
 23 24  1  0
 22 23  1  6
 24 25  1  0
 25 26  2  0
 27 22  1  0
 27 28  1  0
 29 25  1  0
 30 27  2  0
M  END
$$$$
