LYE.pdb
     RDKit          3D

 30 30  0  0  1  0  0  0  0  0999 V2000
    6.9951  -11.9925   19.0535 C   0  0  0  0  0  0  0  0  0  0  0  0
    7.5187  -13.3972   19.2656 C   0  0  1  0  0  0  0  0  0  0  0  0
    9.0254  -13.4762   19.0249 C   0  0  0  0  0  0  0  0  0  0  0  0
    7.1522  -13.9576   20.6290 C   0  0  0  0  0  0  0  0  0  0  0  0
    7.9950  -15.1463   20.9153 C   0  0  2  0  0  0  0  0  0  0  0  0
    7.2120  -16.3280   21.0492 N   0  0  0  0  0  0  0  0  0  0  0  0
    8.8736  -14.9987   22.0959 C   0  0  0  0  0  0  0  0  0  0  0  0
   10.0790  -14.6396   22.0075 O   0  0  0  0  0  0  0  0  0  0  0  0
   10.9503  -15.2911   30.7320 O   0  0  0  0  0  0  0  0  0  0  0  0
   10.2813  -15.2269   29.5304 C   0  0  0  0  0  0  0  0  0  0  0  0
    9.6938  -16.3238   28.9437 C   0  0  0  0  0  0  0  0  0  0  0  0
    9.0299  -16.2492   27.7396 C   0  0  0  0  0  0  0  0  0  0  0  0
    8.9351  -15.0230   27.0687 C   0  0  0  0  0  0  0  0  0  0  0  0
    8.2989  -14.9115   25.7558 C   0  0  0  0  0  0  0  0  0  0  0  0
    9.1862  -15.1881   24.6161 C   0  0  2  0  0  0  0  0  0  0  0  0
    8.3710  -15.2613   23.3733 N   0  0  0  0  0  0  0  0  0  0  0  0
    9.8891  -16.4658   24.6731 C   0  0  0  0  0  0  0  0  0  0  0  0
    9.1740  -17.5251   24.5535 O   0  0  0  0  0  0  0  0  0  0  0  0
    9.5234  -13.9318   27.6598 C   0  0  0  0  0  0  0  0  0  0  0  0
   10.1754  -14.0304   28.8544 C   0  0  0  0  0  0  0  0  0  0  0  0
   11.2824  -16.6956   24.8319 N   0  0  0  0  0  0  0  0  0  0  0  0
   11.8897  -17.9714   24.8666 C   0  0  1  0  0  0  0  0  0  0  0  0
   12.9796  -18.3225   23.9491 C   0  0  0  0  0  0  0  0  0  0  0  0
   12.6889  -17.9019   22.5300 C   0  0  0  0  0  0  0  0  0  0  0  0
   13.8825  -17.2498   21.9345 C   0  0  0  0  0  0  0  0  0  0  0  0
   14.9148  -17.1120   22.6303 O   0  0  0  0  0  0  0  0  0  0  0  0
   12.2877  -18.4393   26.2438 C   0  0  0  0  0  0  0  0  0  0  0  0
   12.1008  -17.5779   27.2969 O   0  0  0  0  0  0  0  0  0  0  0  0
   13.8228  -16.8120   20.6265 O   0  0  0  0  0  0  0  0  0  0  0  0
   12.7637  -19.5577   26.4035 O   0  0  0  0  0  0  0  0  0  0  0  0
  2  1  1  1
  2  3  1  0
  4  2  1  0
  5  4  1  0
  5  6  1  1
  7  5  1  0
  7  8  2  0
  9 10  1  0
 10 11  2  0
 11 12  1  0
 13 12  2  0
 13 14  1  0
 15 14  1  1
 15 16  1  0
 16  7  1  0
 17 15  1  0
 18 17  2  0
 19 13  1  0
 20 10  1  0
 20 19  2  0
 21 17  1  0
 22 21  1  0
 23 24  1  0
 22 23  1  6
 24 25  1  0
 25 26  2  0
 27 22  1  0
 27 28  1  0
 29 25  1  0
 30 27  2  0
M  END
$$$$
