LYE.pdb
     RDKit          3D

 30 30  0  0  1  0  0  0  0  0999 V2000
    6.7284  -12.3437   18.0250 C   0  0  0  0  0  0  0  0  0  0  0  0
    7.1133  -13.6612   18.6642 C   0  0  1  0  0  0  0  0  0  0  0  0
    7.6999  -14.6311   17.6398 C   0  0  0  0  0  0  0  0  0  0  0  0
    8.0477  -13.4849   19.8487 C   0  0  0  0  0  0  0  0  0  0  0  0
    8.2842  -14.8035   20.4896 C   0  0  2  0  0  0  0  0  0  0  0  0
    7.0682  -15.5146   20.6969 N   0  0  0  0  0  0  0  0  0  0  0  0
    9.0403  -14.7357   21.7589 C   0  0  0  0  0  0  0  0  0  0  0  0
   10.2734  -14.4764   21.8044 O   0  0  0  0  0  0  0  0  0  0  0  0
   10.1786  -14.7202   30.5623 O   0  0  0  0  0  0  0  0  0  0  0  0
    9.6358  -14.7179   29.2970 C   0  0  0  0  0  0  0  0  0  0  0  0
    9.1086  -15.8443   28.7089 C   0  0  0  0  0  0  0  0  0  0  0  0
    8.5712  -15.8317   27.4411 C   0  0  0  0  0  0  0  0  0  0  0  0
    8.5483  -14.6408   26.7037 C   0  0  0  0  0  0  0  0  0  0  0  0
    8.0496  -14.5967   25.3289 C   0  0  0  0  0  0  0  0  0  0  0  0
    9.0532  -14.9070   24.2997 C   0  0  2  0  0  0  0  0  0  0  0  0
    8.3842  -14.9641   22.9715 N   0  0  0  0  0  0  0  0  0  0  0  0
    9.7058  -16.2047   24.4410 C   0  0  0  0  0  0  0  0  0  0  0  0
    9.0058  -17.2394   24.1460 O   0  0  0  0  0  0  0  0  0  0  0  0
    9.0758  -13.5198   27.2965 C   0  0  0  0  0  0  0  0  0  0  0  0
    9.6023  -13.5569   28.5548 C   0  0  0  0  0  0  0  0  0  0  0  0
   11.0375  -16.4777   24.8549 N   0  0  0  0  0  0  0  0  0  0  0  0
   11.5940  -17.7712   24.9775 C   0  0  1  0  0  0  0  0  0  0  0  0
   12.7846  -18.1646   24.2155 C   0  0  0  0  0  0  0  0  0  0  0  0
   12.7085  -17.7303   22.7730 C   0  0  0  0  0  0  0  0  0  0  0  0
   13.9500  -18.1160   22.0559 C   0  0  0  0  0  0  0  0  0  0  0  0
   13.8689  -18.8523   21.0459 O   0  0  0  0  0  0  0  0  0  0  0  0
   11.7900  -18.2375   26.3980 C   0  0  0  0  0  0  0  0  0  0  0  0
   11.5165  -17.3519   27.4113 O   0  0  0  0  0  0  0  0  0  0  0  0
   15.1636  -17.6512   22.5221 O   0  0  0  0  0  0  0  0  0  0  0  0
   12.1831  -19.3760   26.6265 O   0  0  0  0  0  0  0  0  0  0  0  0
  2  1  1  6
  2  3  1  0
  4  2  1  0
  5  4  1  0
  5  6  1  1
  7  5  1  0
  7  8  2  0
  9 10  1  0
 10 11  2  0
 11 12  1  0
 13 12  2  0
 13 14  1  0
 15 14  1  1
 15 16  1  0
 16  7  1  0
 17 15  1  0
 18 17  2  0
 19 13  1  0
 20 10  1  0
 20 19  2  0
 21 17  1  0
 22 21  1  0
 23 24  1  0
 22 23  1  1
 24 25  1  0
 25 26  2  0
 27 22  1  0
 27 28  1  0
 29 25  1  0
 30 27  2  0
M  END
$$$$
