LYE.pdb
     RDKit          3D

 30 30  0  0  1  0  0  0  0  0999 V2000
    8.4814  -22.8935   20.5005 C   0  0  0  0  0  0  0  0  0  0  0  0
    7.9824  -21.5021   20.1727 C   0  0  1  0  0  0  0  0  0  0  0  0
    6.7246  -21.1558   20.9679 C   0  0  0  0  0  0  0  0  0  0  0  0
    9.0533  -20.4400   20.3526 C   0  0  0  0  0  0  0  0  0  0  0  0
    8.4769  -19.1043   20.0543 C   0  0  2  0  0  0  0  0  0  0  0  0
    8.0666  -18.9988   18.6949 N   0  0  0  0  0  0  0  0  0  0  0  0
    9.3636  -17.9699   20.3927 C   0  0  0  0  0  0  0  0  0  0  0  0
   10.3261  -17.6152   19.6596 O   0  0  0  0  0  0  0  0  0  0  0  0
    7.0969  -12.2901   17.8792 O   0  0  0  0  0  0  0  0  0  0  0  0
    7.6368  -12.9203   18.9777 C   0  0  0  0  0  0  0  0  0  0  0  0
    8.9888  -12.9527   19.2301 C   0  0  0  0  0  0  0  0  0  0  0  0
    9.5187  -13.5891   20.3303 C   0  0  0  0  0  0  0  0  0  0  0  0
    8.6709  -14.2334   21.2405 C   0  0  0  0  0  0  0  0  0  0  0  0
    9.1952  -14.9792   22.3850 C   0  0  0  0  0  0  0  0  0  0  0  0
   10.0273  -16.1400   22.0346 C   0  0  2  0  0  0  0  0  0  0  0  0
    9.1466  -17.2449   21.5677 N   0  0  0  0  0  0  0  0  0  0  0  0
   10.7872  -16.7148   23.1401 C   0  0  0  0  0  0  0  0  0  0  0  0
   10.1710  -16.8470   24.2584 O   0  0  0  0  0  0  0  0  0  0  0  0
    7.3223  -14.1972   20.9831 C   0  0  0  0  0  0  0  0  0  0  0  0
    6.8205  -13.5593   19.8862 C   0  0  0  0  0  0  0  0  0  0  0  0
   12.1343  -17.1669   23.1387 N   0  0  0  0  0  0  0  0  0  0  0  0
   12.9919  -17.1474   24.2621 C   0  0  1  0  0  0  0  0  0  0  0  0
   14.4220  -16.8491   24.1248 C   0  0  0  0  0  0  0  0  0  0  0  0
   14.8536  -16.7746   22.6815 C   0  0  0  0  0  0  0  0  0  0  0  0
   16.3114  -16.5066   22.5961 C   0  0  0  0  0  0  0  0  0  0  0  0
   17.0473  -17.3167   21.9871 O   0  0  0  0  0  0  0  0  0  0  0  0
   12.4730  -16.3520   25.4334 C   0  0  0  0  0  0  0  0  0  0  0  0
   13.1057  -16.4982   26.6435 O   0  0  0  0  0  0  0  0  0  0  0  0
   16.8183  -15.3686   23.1913 O   0  0  0  0  0  0  0  0  0  0  0  0
   11.5134  -15.6018   25.2950 O   0  0  0  0  0  0  0  0  0  0  0  0
  2  1  1  1
  2  3  1  0
  4  2  1  0
  5  4  1  0
  5  6  1  6
  7  5  1  0
  7  8  2  0
  9 10  1  0
 10 11  2  0
 11 12  1  0
 13 12  2  0
 13 14  1  0
 15 14  1  1
 15 16  1  0
 16  7  1  0
 17 15  1  0
 18 17  2  0
 19 13  1  0
 20 10  1  0
 20 19  2  0
 21 17  1  0
 22 21  1  0
 23 24  1  0
 22 23  1  6
 24 25  1  0
 25 26  2  0
 27 22  1  0
 27 28  1  0
 29 25  1  0
 30 27  2  0
M  END
$$$$
