LYE.pdb
     RDKit          3D

 30 30  0  0  1  0  0  0  0  0999 V2000
    8.0851  -12.0861   19.5837 C   0  0  0  0  0  0  0  0  0  0  0  0
    7.8674  -13.3597   20.3731 C   0  0  1  0  0  0  0  0  0  0  0  0
    6.3809  -13.6340   20.5958 C   0  0  0  0  0  0  0  0  0  0  0  0
    8.5577  -14.5596   19.7480 C   0  0  0  0  0  0  0  0  0  0  0  0
    8.5493  -15.6895   20.7118 C   0  0  2  0  0  0  0  0  0  0  0  0
    7.2243  -16.0588   21.0797 N   0  0  0  0  0  0  0  0  0  0  0  0
    9.3541  -15.4553   21.9303 C   0  0  0  0  0  0  0  0  0  0  0  0
   10.5684  -15.1184   21.8905 O   0  0  0  0  0  0  0  0  0  0  0  0
   10.5849  -14.9932   30.8139 O   0  0  0  0  0  0  0  0  0  0  0  0
   10.1006  -15.0224   29.5254 C   0  0  0  0  0  0  0  0  0  0  0  0
    9.8596  -13.8833   28.7926 C   0  0  0  0  0  0  0  0  0  0  0  0
    9.3717  -13.9237   27.5056 C   0  0  0  0  0  0  0  0  0  0  0  0
    9.1038  -15.1574   26.8983 C   0  0  0  0  0  0  0  0  0  0  0  0
    8.5210  -15.2452   25.5590 C   0  0  0  0  0  0  0  0  0  0  0  0
    9.4976  -15.4140   24.4725 C   0  0  2  0  0  0  0  0  0  0  0  0
    8.7677  -15.6064   23.1899 N   0  0  0  0  0  0  0  0  0  0  0  0
   10.3575  -16.5876   24.5882 C   0  0  0  0  0  0  0  0  0  0  0  0
    9.8343  -17.7200   24.2854 O   0  0  0  0  0  0  0  0  0  0  0  0
    9.3467  -16.2907   27.6350 C   0  0  0  0  0  0  0  0  0  0  0  0
    9.8313  -16.2254   28.9089 C   0  0  0  0  0  0  0  0  0  0  0  0
   11.7211  -16.6418   24.9842 N   0  0  0  0  0  0  0  0  0  0  0  0
   12.5486  -17.7819   24.8697 C   0  0  1  0  0  0  0  0  0  0  0  0
   13.7735  -17.7574   24.0624 C   0  0  0  0  0  0  0  0  0  0  0  0
   14.4681  -19.0961   24.0381 C   0  0  0  0  0  0  0  0  0  0  0  0
   15.7022  -19.0179   23.2163 C   0  0  0  0  0  0  0  0  0  0  0  0
   16.5549  -19.9310   23.3053 O   0  0  0  0  0  0  0  0  0  0  0  0
   12.8825  -18.4486   26.1804 C   0  0  0  0  0  0  0  0  0  0  0  0
   13.1537  -19.7948   26.1689 O   0  0  0  0  0  0  0  0  0  0  0  0
   15.8772  -17.9385   22.3733 O   0  0  0  0  0  0  0  0  0  0  0  0
   12.9065  -17.7958   27.2178 O   0  0  0  0  0  0  0  0  0  0  0  0
  2  1  1  6
  2  3  1  0
  4  2  1  0
  5  4  1  0
  5  6  1  1
  7  5  1  0
  7  8  2  0
  9 10  1  0
 10 11  2  0
 11 12  1  0
 13 12  2  0
 13 14  1  0
 15 14  1  1
 15 16  1  0
 16  7  1  0
 17 15  1  0
 18 17  2  0
 19 13  1  0
 20 10  1  0
 20 19  2  0
 21 17  1  0
 22 21  1  0
 23 24  1  0
 22 23  1  1
 24 25  1  0
 25 26  2  0
 27 22  1  0
 27 28  1  0
 29 25  1  0
 30 27  2  0
M  END
$$$$
