LYE.pdb
     RDKit          3D

 30 30  0  0  1  0  0  0  0  0999 V2000
    7.2743  -18.9892   18.6929 C   0  0  0  0  0  0  0  0  0  0  0  0
    7.9639  -17.6580   18.9044 C   0  0  1  0  0  0  0  0  0  0  0  0
    6.9902  -16.4911   18.7473 C   0  0  0  0  0  0  0  0  0  0  0  0
    8.6966  -17.5843   20.2329 C   0  0  0  0  0  0  0  0  0  0  0  0
    9.2862  -16.2310   20.3954 C   0  0  2  0  0  0  0  0  0  0  0  0
   10.1269  -15.8870   19.2989 N   0  0  0  0  0  0  0  0  0  0  0  0
   10.0226  -16.0368   21.6632 C   0  0  0  0  0  0  0  0  0  0  0  0
   11.2501  -16.2979   21.7851 O   0  0  0  0  0  0  0  0  0  0  0  0
   10.2947  -14.5440   30.5169 O   0  0  0  0  0  0  0  0  0  0  0  0
   10.0363  -14.5699   29.1648 C   0  0  0  0  0  0  0  0  0  0  0  0
   10.9507  -14.1605   28.2221 C   0  0  0  0  0  0  0  0  0  0  0  0
   10.6806  -14.1873   26.8721 C   0  0  0  0  0  0  0  0  0  0  0  0
    9.4369  -14.6445   26.4173 C   0  0  0  0  0  0  0  0  0  0  0  0
    9.0827  -14.6260   24.9977 C   0  0  0  0  0  0  0  0  0  0  0  0
    9.9809  -15.4012   24.1288 C   0  0  2  0  0  0  0  0  0  0  0  0
    9.3535  -15.5442   22.7870 N   0  0  0  0  0  0  0  0  0  0  0  0
   10.2370  -16.7701   24.5651 C   0  0  0  0  0  0  0  0  0  0  0  0
    9.3265  -17.6383   24.3101 O   0  0  0  0  0  0  0  0  0  0  0  0
    8.5286  -15.0520   27.3633 C   0  0  0  0  0  0  0  0  0  0  0  0
    8.8196  -15.0170   28.6960 C   0  0  0  0  0  0  0  0  0  0  0  0
   11.3836  -17.2794   25.2323 N   0  0  0  0  0  0  0  0  0  0  0  0
   11.6323  -18.6495   25.4751 C   0  0  1  0  0  0  0  0  0  0  0  0
   12.6959  -19.3690   24.7653 C   0  0  0  0  0  0  0  0  0  0  0  0
   12.7632  -20.8232   25.1604 C   0  0  0  0  0  0  0  0  0  0  0  0
   13.8951  -21.4900   24.4685 C   0  0  0  0  0  0  0  0  0  0  0  0
   14.3262  -22.5793   24.9116 O   0  0  0  0  0  0  0  0  0  0  0  0
   11.7286  -19.0205   26.9334 C   0  0  0  0  0  0  0  0  0  0  0  0
   11.4871  -20.3261   27.2843 O   0  0  0  0  0  0  0  0  0  0  0  0
   14.4433  -20.8904   23.3521 O   0  0  0  0  0  0  0  0  0  0  0  0
   12.0142  -18.1713   27.7701 O   0  0  0  0  0  0  0  0  0  0  0  0
  2  1  1  1
  2  3  1  0
  4  2  1  0
  5  4  1  0
  5  6  1  6
  7  5  1  0
  7  8  2  0
  9 10  1  0
 10 11  2  0
 11 12  1  0
 13 12  2  0
 13 14  1  0
 15 14  1  1
 15 16  1  0
 16  7  1  0
 17 15  1  0
 18 17  2  0
 19 13  1  0
 20 10  1  0
 20 19  2  0
 21 17  1  0
 22 21  1  0
 23 24  1  0
 22 23  1  6
 24 25  1  0
 25 26  2  0
 27 22  1  0
 27 28  1  0
 29 25  1  0
 30 27  2  0
M  END
$$$$
