LYE.pdb
     RDKit          3D

 30 30  0  0  1  0  0  0  0  0999 V2000
    6.8265  -12.1599   19.1809 C   0  0  0  0  0  0  0  0  0  0  0  0
    7.1799  -13.5738   19.5914 C   0  0  1  0  0  0  0  0  0  0  0  0
    7.1808  -14.5218   18.3933 C   0  0  0  0  0  0  0  0  0  0  0  0
    8.4930  -13.6505   20.3510 C   0  0  0  0  0  0  0  0  0  0  0  0
    8.6157  -14.9864   20.9882 C   0  0  2  0  0  0  0  0  0  0  0  0
    7.3411  -15.5571   21.2658 N   0  0  0  0  0  0  0  0  0  0  0  0
    9.4422  -15.0015   22.2146 C   0  0  0  0  0  0  0  0  0  0  0  0
   10.6531  -14.6500   22.2245 O   0  0  0  0  0  0  0  0  0  0  0  0
   11.0430  -15.3722   30.9245 O   0  0  0  0  0  0  0  0  0  0  0  0
   10.4405  -15.3332   29.6872 C   0  0  0  0  0  0  0  0  0  0  0  0
    9.8686  -16.4381   29.1002 C   0  0  0  0  0  0  0  0  0  0  0  0
    9.2715  -16.3888   27.8604 C   0  0  0  0  0  0  0  0  0  0  0  0
    9.2317  -15.1811   27.1516 C   0  0  0  0  0  0  0  0  0  0  0  0
    8.6686  -15.0985   25.8036 C   0  0  0  0  0  0  0  0  0  0  0  0
    9.6127  -15.4155   24.7215 C   0  0  2  0  0  0  0  0  0  0  0  0
    8.8816  -15.4178   23.4252 N   0  0  0  0  0  0  0  0  0  0  0  0
   10.2272  -16.7368   24.8018 C   0  0  0  0  0  0  0  0  0  0  0  0
    9.4314  -17.7411   24.8774 O   0  0  0  0  0  0  0  0  0  0  0  0
    9.8040  -14.0817   27.7431 C   0  0  0  0  0  0  0  0  0  0  0  0
   10.3893  -14.1550   28.9735 C   0  0  0  0  0  0  0  0  0  0  0  0
   11.6099  -17.0644   24.7934 N   0  0  0  0  0  0  0  0  0  0  0  0
   12.1285  -18.3734   24.9179 C   0  0  1  0  0  0  0  0  0  0  0  0
   13.3482  -18.7810   24.2115 C   0  0  0  0  0  0  0  0  0  0  0  0
   13.3018  -18.4325   22.7446 C   0  0  0  0  0  0  0  0  0  0  0  0
   14.6286  -18.6660   22.1206 C   0  0  0  0  0  0  0  0  0  0  0  0
   14.8173  -18.3106   20.9344 O   0  0  0  0  0  0  0  0  0  0  0  0
   12.2379  -18.8722   26.3368 C   0  0  0  0  0  0  0  0  0  0  0  0
   12.6253  -20.1748   26.5347 O   0  0  0  0  0  0  0  0  0  0  0  0
   15.6215  -19.2696   22.8662 O   0  0  0  0  0  0  0  0  0  0  0  0
   11.9846  -18.1260   27.2759 O   0  0  0  0  0  0  0  0  0  0  0  0
  2  1  1  6
  2  3  1  0
  4  2  1  0
  5  4  1  0
  5  6  1  1
  7  5  1  0
  7  8  2  0
  9 10  1  0
 10 11  2  0
 11 12  1  0
 13 12  2  0
 13 14  1  0
 15 14  1  1
 15 16  1  0
 16  7  1  0
 17 15  1  0
 18 17  2  0
 19 13  1  0
 20 10  1  0
 20 19  2  0
 21 17  1  0
 22 21  1  0
 23 24  1  0
 22 23  1  1
 24 25  1  0
 25 26  2  0
 27 22  1  0
 27 28  1  0
 29 25  1  0
 30 27  2  0
M  END
$$$$
