LYE.pdb
     RDKit          3D

 30 30  0  0  1  0  0  0  0  0999 V2000
   10.2252  -12.6938   28.6171 C   0  0  0  0  0  0  0  0  0  0  0  0
   10.1150  -14.1327   28.1592 C   0  0  1  0  0  0  0  0  0  0  0  0
   10.5017  -15.1061   29.2716 C   0  0  0  0  0  0  0  0  0  0  0  0
    8.7438  -14.4630   27.5953 C   0  0  0  0  0  0  0  0  0  0  0  0
    8.8484  -15.6520   26.7116 C   0  0  2  0  0  0  0  0  0  0  0  0
   10.1880  -16.1261   26.6220 N   0  0  0  0  0  0  0  0  0  0  0  0
    8.3035  -15.4487   25.3518 C   0  0  0  0  0  0  0  0  0  0  0  0
    7.1213  -15.0637   25.1420 O   0  0  0  0  0  0  0  0  0  0  0  0
    7.7036  -12.4681   17.2045 O   0  0  0  0  0  0  0  0  0  0  0  0
    7.8979  -12.8776   18.5045 C   0  0  0  0  0  0  0  0  0  0  0  0
    6.9161  -13.4892   19.2492 C   0  0  0  0  0  0  0  0  0  0  0  0
    7.1200  -13.8919   20.5501 C   0  0  0  0  0  0  0  0  0  0  0  0
    8.3640  -13.6827   21.1594 C   0  0  0  0  0  0  0  0  0  0  0  0
    8.6032  -14.0323   22.5600 C   0  0  0  0  0  0  0  0  0  0  0  0
    8.6685  -15.4761   22.8316 C   0  0  2  0  0  0  0  0  0  0  0  0
    9.1120  -15.6857   24.2367 N   0  0  0  0  0  0  0  0  0  0  0  0
    9.6338  -16.2160   22.0250 C   0  0  0  0  0  0  0  0  0  0  0  0
    9.1630  -17.1187   21.2432 O   0  0  0  0  0  0  0  0  0  0  0  0
    9.3400  -13.0719   20.4107 C   0  0  0  0  0  0  0  0  0  0  0  0
    9.1144  -12.6824   19.1226 C   0  0  0  0  0  0  0  0  0  0  0  0
   11.0452  -16.0578   21.9796 N   0  0  0  0  0  0  0  0  0  0  0  0
   11.9396  -16.9724   21.3785 C   0  0  1  0  0  0  0  0  0  0  0  0
   13.0422  -16.5129   20.5264 C   0  0  0  0  0  0  0  0  0  0  0  0
   12.6113  -15.4285   19.5706 C   0  0  0  0  0  0  0  0  0  0  0  0
   13.7468  -15.0322   18.7001 C   0  0  0  0  0  0  0  0  0  0  0  0
   14.2936  -15.8967   17.9772 O   0  0  0  0  0  0  0  0  0  0  0  0
   12.4949  -18.0147   22.3161 C   0  0  0  0  0  0  0  0  0  0  0  0
   12.1785  -19.3299   22.0790 O   0  0  0  0  0  0  0  0  0  0  0  0
   14.1706  -13.7182   18.7101 O   0  0  0  0  0  0  0  0  0  0  0  0
   13.2056  -17.6832   23.2583 O   0  0  0  0  0  0  0  0  0  0  0  0
  2  1  1  1
  2  3  1  0
  4  2  1  0
  5  4  1  0
  5  6  1  6
  7  5  1  0
  7  8  2  0
  9 10  1  0
 10 11  2  0
 11 12  1  0
 13 12  2  0
 13 14  1  0
 15 14  1  6
 15 16  1  0
 16  7  1  0
 17 15  1  0
 18 17  2  0
 19 13  1  0
 20 10  1  0
 20 19  2  0
 21 17  1  0
 22 21  1  0
 23 24  1  0
 22 23  1  1
 24 25  1  0
 25 26  2  0
 27 22  1  0
 27 28  1  0
 29 25  1  0
 30 27  2  0
M  END
$$$$
