LYE.pdb
     RDKit          3D

 30 30  0  0  1  0  0  0  0  0999 V2000
    7.1424  -12.1078   19.2019 C   0  0  0  0  0  0  0  0  0  0  0  0
    7.2876  -13.5500   19.6394 C   0  0  1  0  0  0  0  0  0  0  0  0
    7.0372  -14.5150   18.4817 C   0  0  0  0  0  0  0  0  0  0  0  0
    8.6253  -13.8271   20.3034 C   0  0  0  0  0  0  0  0  0  0  0  0
    8.5752  -15.1489   20.9786 C   0  0  2  0  0  0  0  0  0  0  0  0
    7.2428  -15.5155   21.3216 N   0  0  0  0  0  0  0  0  0  0  0  0
    9.4404  -15.2545   22.1735 C   0  0  0  0  0  0  0  0  0  0  0  0
   10.6994  -15.2376   22.1067 O   0  0  0  0  0  0  0  0  0  0  0  0
   10.8637  -15.4308   31.0424 O   0  0  0  0  0  0  0  0  0  0  0  0
   10.3666  -15.3189   29.7634 C   0  0  0  0  0  0  0  0  0  0  0  0
   10.4107  -14.1464   29.0452 C   0  0  0  0  0  0  0  0  0  0  0  0
    9.9073  -14.0445   27.7676 C   0  0  0  0  0  0  0  0  0  0  0  0
    9.3248  -15.1616   27.1550 C   0  0  0  0  0  0  0  0  0  0  0  0
    8.7167  -15.0809   25.8266 C   0  0  0  0  0  0  0  0  0  0  0  0
    9.6378  -15.3442   24.7108 C   0  0  2  0  0  0  0  0  0  0  0  0
    8.8635  -15.3783   23.4404 N   0  0  0  0  0  0  0  0  0  0  0  0
   10.3216  -16.6325   24.7618 C   0  0  0  0  0  0  0  0  0  0  0  0
    9.6168  -17.6722   24.4972 O   0  0  0  0  0  0  0  0  0  0  0  0
    9.2841  -16.3292   27.8770 C   0  0  0  0  0  0  0  0  0  0  0  0
    9.7904  -16.4060   29.1417 C   0  0  0  0  0  0  0  0  0  0  0  0
   11.6875  -16.8909   25.0564 N   0  0  0  0  0  0  0  0  0  0  0  0
   12.2759  -18.1757   25.0876 C   0  0  1  0  0  0  0  0  0  0  0  0
   13.4762  -18.4842   24.3022 C   0  0  0  0  0  0  0  0  0  0  0  0
   13.4201  -17.8902   22.9168 C   0  0  0  0  0  0  0  0  0  0  0  0
   14.7908  -17.7519   22.3631 C   0  0  0  0  0  0  0  0  0  0  0  0
   15.6911  -17.2535   23.0771 O   0  0  0  0  0  0  0  0  0  0  0  0
   12.4828  -18.7372   26.4717 C   0  0  0  0  0  0  0  0  0  0  0  0
   12.9580  -20.0209   26.5828 O   0  0  0  0  0  0  0  0  0  0  0  0
   15.0372  -18.1778   21.0730 O   0  0  0  0  0  0  0  0  0  0  0  0
   12.2292  -18.0569   27.4594 O   0  0  0  0  0  0  0  0  0  0  0  0
  2  1  1  6
  2  3  1  0
  4  2  1  0
  5  4  1  0
  5  6  1  1
  7  5  1  0
  7  8  2  0
  9 10  1  0
 10 11  2  0
 11 12  1  0
 13 12  2  0
 13 14  1  0
 15 14  1  1
 15 16  1  0
 16  7  1  0
 17 15  1  0
 18 17  2  0
 19 13  1  0
 20 10  1  0
 20 19  2  0
 21 17  1  0
 22 21  1  0
 23 24  1  0
 22 23  1  1
 24 25  1  0
 25 26  2  0
 27 22  1  0
 27 28  1  0
 29 25  1  0
 30 27  2  0
M  END
$$$$
