LYE.pdb
     RDKit          3D

 30 30  0  0  1  0  0  0  0  0999 V2000
    7.9466  -11.9767   19.7505 C   0  0  0  0  0  0  0  0  0  0  0  0
    7.7512  -13.3239   20.4132 C   0  0  1  0  0  0  0  0  0  0  0  0
    6.3151  -13.8219   20.2582 C   0  0  0  0  0  0  0  0  0  0  0  0
    8.7464  -14.3637   19.9275 C   0  0  0  0  0  0  0  0  0  0  0  0
    8.7070  -15.5421   20.8304 C   0  0  2  0  0  0  0  0  0  0  0  0
    7.3710  -15.9211   21.1448 N   0  0  0  0  0  0  0  0  0  0  0  0
    9.4814  -15.3772   22.0796 C   0  0  0  0  0  0  0  0  0  0  0  0
   10.6977  -15.0450   22.0884 O   0  0  0  0  0  0  0  0  0  0  0  0
   10.7741  -14.9880   30.8560 O   0  0  0  0  0  0  0  0  0  0  0  0
   10.2095  -15.0689   29.6029 C   0  0  0  0  0  0  0  0  0  0  0  0
    9.8008  -16.2575   29.0437 C   0  0  0  0  0  0  0  0  0  0  0  0
    9.2403  -16.3276   27.7878 C   0  0  0  0  0  0  0  0  0  0  0  0
    9.0689  -15.1600   27.0330 C   0  0  0  0  0  0  0  0  0  0  0  0
    8.5413  -15.1964   25.6687 C   0  0  0  0  0  0  0  0  0  0  0  0
    9.5496  -15.4325   24.6246 C   0  0  2  0  0  0  0  0  0  0  0  0
    8.8627  -15.5921   23.3142 N   0  0  0  0  0  0  0  0  0  0  0  0
   10.3322  -16.6540   24.7831 C   0  0  0  0  0  0  0  0  0  0  0  0
    9.7411  -17.7595   24.5070 O   0  0  0  0  0  0  0  0  0  0  0  0
    9.4787  -13.9767   27.5970 C   0  0  0  0  0  0  0  0  0  0  0  0
   10.0309  -13.9322   28.8440 C   0  0  0  0  0  0  0  0  0  0  0  0
   11.6860  -16.7827   25.1954 N   0  0  0  0  0  0  0  0  0  0  0  0
   12.4173  -17.9923   25.1939 C   0  0  1  0  0  0  0  0  0  0  0  0
   13.5851  -18.1764   24.3250 C   0  0  0  0  0  0  0  0  0  0  0  0
   14.7407  -17.2943   24.7272 C   0  0  0  0  0  0  0  0  0  0  0  0
   15.4138  -16.7504   23.5208 C   0  0  0  0  0  0  0  0  0  0  0  0
   14.9675  -15.7077   22.9894 O   0  0  0  0  0  0  0  0  0  0  0  0
   12.7858  -18.5039   26.5636 C   0  0  0  0  0  0  0  0  0  0  0  0
   13.3255  -19.7632   26.6583 O   0  0  0  0  0  0  0  0  0  0  0  0
   16.5168  -17.4098   23.0157 O   0  0  0  0  0  0  0  0  0  0  0  0
   12.6028  -17.8058   27.5545 O   0  0  0  0  0  0  0  0  0  0  0  0
  2  1  1  6
  2  3  1  0
  4  2  1  0
  5  4  1  0
  5  6  1  1
  7  5  1  0
  7  8  2  0
  9 10  1  0
 10 11  2  0
 11 12  1  0
 13 12  2  0
 13 14  1  0
 15 14  1  1
 15 16  1  0
 16  7  1  0
 17 15  1  0
 18 17  2  0
 19 13  1  0
 20 10  1  0
 20 19  2  0
 21 17  1  0
 22 21  1  0
 23 24  1  0
 22 23  1  6
 24 25  1  0
 25 26  2  0
 27 22  1  0
 27 28  1  0
 29 25  1  0
 30 27  2  0
M  END
$$$$
