QIE.pdb
     RDKit          3D

 27 26  0  0  1  0  0  0  0  0999 V2000
    8.2658  -12.7006   17.9938 N   0  0  0  0  0  0  0  0  0  0  0  0
    7.8843  -13.9460   17.3771 C   0  0  0  0  0  0  0  0  0  0  0  0
    7.4534  -13.9259   16.1933 O   0  0  0  0  0  0  0  0  0  0  0  0
    8.0181  -15.1956   18.1677 C   0  0  0  0  0  0  0  0  0  0  0  0
    8.6182  -14.9906   19.5202 C   0  0  0  0  0  0  0  0  0  0  0  0
    7.7286  -15.3623   20.6620 C   0  0  2  0  0  0  0  0  0  0  0  0
    6.3769  -14.8619   20.5034 N   0  0  0  0  0  0  0  0  0  0  0  0
    8.2841  -14.7039   21.8976 C   0  0  0  0  0  0  0  0  0  0  0  0
    9.3512  -14.0397   21.8277 O   0  0  0  0  0  0  0  0  0  0  0  0
    7.2756  -11.9658   27.1551 C   0  0  0  0  0  0  0  0  0  0  0  0
    8.1295  -12.9875   26.4367 C   0  0  0  0  0  0  0  0  0  0  0  0
    7.3730  -13.4691   25.1987 C   0  0  2  0  0  0  0  0  0  0  0  0
    6.1961  -14.2683   25.7134 C   0  0  0  0  0  0  0  0  0  0  0  0
    8.2514  -14.4088   24.4002 C   0  0  2  0  0  0  0  0  0  0  0  0
    7.6411  -14.8041   23.1608 N   0  0  0  0  0  0  0  0  0  0  0  0
    8.6261  -15.5813   25.2384 C   0  0  0  0  0  0  0  0  0  0  0  0
    7.7447  -16.4174   25.5610 O   0  0  0  0  0  0  0  0  0  0  0  0
    9.9354  -15.8127   25.6995 N   0  0  0  0  0  0  0  0  0  0  0  0
   10.3694  -17.0543   26.3490 C   0  0  1  0  0  0  0  0  0  0  0  0
   11.6014  -17.5876   25.7155 C   0  0  0  0  0  0  0  0  0  0  0  0
   12.1632  -18.8561   26.2008 C   0  0  0  0  0  0  0  0  0  0  0  0
   13.3738  -19.3677   25.5704 C   0  0  0  0  0  0  0  0  0  0  0  0
   13.4329  -19.7398   24.3903 O   0  0  0  0  0  0  0  0  0  0  0  0
   10.2957  -17.0014   27.8017 C   0  0  0  0  0  0  0  0  0  0  0  0
   10.0296  -18.1401   28.5588 O   0  0  0  0  0  0  0  0  0  0  0  0
   14.5772  -19.4645   26.3072 O   0  0  0  0  0  0  0  0  0  0  0  0
   10.4633  -15.9282   28.4327 O   0  0  0  0  0  0  0  0  0  0  0  0
  2  1  1  0
  3  2  2  0
  4  2  1  0
  5  4  1  0
  6  5  1  0
  6  7  1  6
  8 15  1  0
  8  6  1  0
  9  8  2  0
 11 10  1  0
 11 12  1  0
 12 14  1  0
 12 13  1  1
 14 15  1  6
 16 18  1  0
 16 14  1  0
 17 16  2  0
 19 18  1  0
 19 24  1  0
 19 20  1  1
 21 20  1  0
 22 26  1  0
 22 21  1  0
 23 22  2  0
 24 25  1  0
 27 24  2  0
M  END
$$$$
