QIE.pdb
     RDKit          3D

 27 26  0  0  1  0  0  0  0  0999 V2000
    7.5899  -19.2562   21.0142 N   0  0  0  0  0  0  0  0  0  0  0  0
    6.9561  -18.5467   19.9317 C   0  0  0  0  0  0  0  0  0  0  0  0
    6.5687  -19.2005   18.9267 O   0  0  0  0  0  0  0  0  0  0  0  0
    6.7893  -17.0763   20.0530 C   0  0  0  0  0  0  0  0  0  0  0  0
    7.2662  -16.5220   21.3556 C   0  0  0  0  0  0  0  0  0  0  0  0
    7.1612  -15.0365   21.4792 C   0  0  2  0  0  0  0  0  0  0  0  0
    7.7339  -14.3392   20.3441 N   0  0  0  0  0  0  0  0  0  0  0  0
    7.9695  -14.6271   22.6824 C   0  0  0  0  0  0  0  0  0  0  0  0
    9.2157  -14.4813   22.5800 O   0  0  0  0  0  0  0  0  0  0  0  0
    5.7636  -11.5862   26.6368 C   0  0  0  0  0  0  0  0  0  0  0  0
    6.8009  -12.1324   25.6803 C   0  0  0  0  0  0  0  0  0  0  0  0
    7.3022  -13.4719   26.2199 C   0  0  2  0  0  0  0  0  0  0  0  0
    8.2305  -13.1386   27.3671 C   0  0  0  0  0  0  0  0  0  0  0  0
    8.1204  -14.1737   25.1569 C   0  0  2  0  0  0  0  0  0  0  0  0
    7.3718  -14.3950   23.9505 N   0  0  0  0  0  0  0  0  0  0  0  0
    8.6812  -15.4388   25.7073 C   0  0  0  0  0  0  0  0  0  0  0  0
    7.9031  -16.3748   26.0211 O   0  0  0  0  0  0  0  0  0  0  0  0
   10.0588  -15.6519   25.9005 N   0  0  0  0  0  0  0  0  0  0  0  0
   10.6458  -16.9455   26.2659 C   0  0  1  0  0  0  0  0  0  0  0  0
   11.7625  -17.3031   25.3555 C   0  0  0  0  0  0  0  0  0  0  0  0
   13.1207  -16.8399   25.6737 C   0  0  0  0  0  0  0  0  0  0  0  0
   14.0735  -16.6755   24.5830 C   0  0  0  0  0  0  0  0  0  0  0  0
   14.5115  -15.5790   24.2086 O   0  0  0  0  0  0  0  0  0  0  0  0
   10.8318  -17.1098   27.7001 C   0  0  0  0  0  0  0  0  0  0  0  0
   11.0954  -18.3572   28.2616 O   0  0  0  0  0  0  0  0  0  0  0  0
   14.5562  -17.8037   23.8796 O   0  0  0  0  0  0  0  0  0  0  0  0
   10.7577  -16.1369   28.4913 O   0  0  0  0  0  0  0  0  0  0  0  0
  2  1  1  0
  3  2  2  0
  4  2  1  0
  5  4  1  0
  6  5  1  0
  6  7  1  6
  8 15  1  0
  8  6  1  0
  9  8  2  0
 11 10  1  0
 11 12  1  0
 12 14  1  0
 12 13  1  1
 14 15  1  6
 16 18  1  0
 16 14  1  0
 17 16  2  0
 19 18  1  0
 19 24  1  0
 19 20  1  6
 21 20  1  0
 22 26  1  0
 22 21  1  0
 23 22  2  0
 24 25  1  0
 27 24  2  0
M  END
$$$$
