QIE.pdb
     RDKit          3D

 27 26  0  0  1  0  0  0  0  0999 V2000
    8.8900  -12.5519   18.1584 N   0  0  0  0  0  0  0  0  0  0  0  0
    8.0510  -13.6481   17.7446 C   0  0  0  0  0  0  0  0  0  0  0  0
    7.6351  -13.6741   16.5556 O   0  0  0  0  0  0  0  0  0  0  0  0
    7.7167  -14.6968   18.7411 C   0  0  0  0  0  0  0  0  0  0  0  0
    8.2253  -14.4053   20.1151 C   0  0  0  0  0  0  0  0  0  0  0  0
    8.0246  -15.5080   21.1034 C   0  0  2  0  0  0  0  0  0  0  0  0
    6.6256  -15.8352   21.2994 N   0  0  0  0  0  0  0  0  0  0  0  0
    8.5379  -15.0196   22.4325 C   0  0  0  0  0  0  0  0  0  0  0  0
    9.7439  -14.6788   22.5515 O   0  0  0  0  0  0  0  0  0  0  0  0
    5.9429  -11.8389   25.7099 C   0  0  0  0  0  0  0  0  0  0  0  0
    7.0883  -12.5635   25.0375 C   0  0  0  0  0  0  0  0  0  0  0  0
    7.3191  -13.8882   25.7645 C   0  0  2  0  0  0  0  0  0  0  0  0
    8.0889  -13.5462   27.0211 C   0  0  0  0  0  0  0  0  0  0  0  0
    8.1973  -14.7857   24.9186 C   0  0  2  0  0  0  0  0  0  0  0  0
    7.7013  -14.9263   23.5773 N   0  0  0  0  0  0  0  0  0  0  0  0
    8.3682  -16.1025   25.5928 C   0  0  0  0  0  0  0  0  0  0  0  0
    7.7311  -17.1004   25.1706 O   0  0  0  0  0  0  0  0  0  0  0  0
    9.2183  -16.2989   26.6971 N   0  0  0  0  0  0  0  0  0  0  0  0
   10.0482  -17.4926   26.8918 C   0  0  1  0  0  0  0  0  0  0  0  0
   10.7966  -17.8319   25.6554 C   0  0  0  0  0  0  0  0  0  0  0  0
   11.6772  -19.0086   25.6529 C   0  0  0  0  0  0  0  0  0  0  0  0
   12.3948  -19.3385   24.4279 C   0  0  0  0  0  0  0  0  0  0  0  0
   12.7173  -18.5041   23.5711 O   0  0  0  0  0  0  0  0  0  0  0  0
   10.7564  -17.5015   28.1633 C   0  0  0  0  0  0  0  0  0  0  0  0
   10.9475  -16.3335   28.8981 O   0  0  0  0  0  0  0  0  0  0  0  0
   12.7671  -20.6756   24.1556 O   0  0  0  0  0  0  0  0  0  0  0  0
   11.2287  -18.5595   28.6487 O   0  0  0  0  0  0  0  0  0  0  0  0
  2  1  1  0
  3  2  2  0
  4  2  1  0
  5  4  1  0
  6  5  1  0
  6  7  1  1
  8 15  1  0
  8  6  1  0
  9  8  2  0
 11 10  1  0
 11 12  1  0
 12 14  1  0
 12 13  1  1
 14 15  1  6
 16 18  1  0
 16 14  1  0
 17 16  2  0
 19 18  1  0
 19 24  1  0
 19 20  1  6
 21 20  1  0
 22 26  1  0
 22 21  1  0
 23 22  2  0
 24 25  1  0
 27 24  2  0
M  END
$$$$
