QIE.pdb
     RDKit          3D

 27 26  0  0  1  0  0  0  0  0999 V2000
    6.1957  -19.5911   21.7417 N   0  0  0  0  0  0  0  0  0  0  0  0
    6.1039  -19.1089   20.3868 C   0  0  0  0  0  0  0  0  0  0  0  0
    5.7526  -19.9131   19.4827 O   0  0  0  0  0  0  0  0  0  0  0  0
    6.4279  -17.6846   20.1206 C   0  0  0  0  0  0  0  0  0  0  0  0
    6.6573  -16.8784   21.3571 C   0  0  0  0  0  0  0  0  0  0  0  0
    7.0095  -15.4466   21.1139 C   0  0  2  0  0  0  0  0  0  0  0  0
    7.8962  -15.2739   19.9797 N   0  0  0  0  0  0  0  0  0  0  0  0
    7.7638  -14.9576   22.3225 C   0  0  0  0  0  0  0  0  0  0  0  0
    9.0196  -15.0399   22.3529 O   0  0  0  0  0  0  0  0  0  0  0  0
    6.7925  -11.7985   27.6141 C   0  0  0  0  0  0  0  0  0  0  0  0
    7.6763  -12.6938   26.7736 C   0  0  0  0  0  0  0  0  0  0  0  0
    6.9181  -13.0684   25.5002 C   0  0  2  0  0  0  0  0  0  0  0  0
    5.7247  -13.8825   25.9492 C   0  0  0  0  0  0  0  0  0  0  0  0
    7.7841  -13.9615   24.6373 C   0  0  2  0  0  0  0  0  0  0  0  0
    7.1036  -14.3973   23.4492 N   0  0  0  0  0  0  0  0  0  0  0  0
    8.2878  -15.1065   25.4454 C   0  0  0  0  0  0  0  0  0  0  0  0
    7.4747  -15.9593   25.8831 O   0  0  0  0  0  0  0  0  0  0  0  0
    9.6481  -15.2934   25.7538 N   0  0  0  0  0  0  0  0  0  0  0  0
   10.1740  -16.4584   26.4734 C   0  0  1  0  0  0  0  0  0  0  0  0
   11.4018  -16.9804   25.8225 C   0  0  0  0  0  0  0  0  0  0  0  0
   11.3216  -17.4824   24.4434 C   0  0  0  0  0  0  0  0  0  0  0  0
   12.5393  -17.9708   23.8085 C   0  0  0  0  0  0  0  0  0  0  0  0
   13.6484  -17.9822   24.3601 O   0  0  0  0  0  0  0  0  0  0  0  0
   10.1635  -16.2958   27.9198 C   0  0  0  0  0  0  0  0  0  0  0  0
    9.8546  -15.0736   28.5125 O   0  0  0  0  0  0  0  0  0  0  0  0
   12.5046  -18.4711   22.4860 O   0  0  0  0  0  0  0  0  0  0  0  0
   10.4369  -17.2473   28.6932 O   0  0  0  0  0  0  0  0  0  0  0  0
  2  1  1  0
  3  2  2  0
  4  2  1  0
  5  4  1  0
  6  5  1  0
  6  7  1  6
  8 15  1  0
  8  6  1  0
  9  8  2  0
 11 10  1  0
 11 12  1  0
 12 14  1  0
 12 13  1  1
 14 15  1  6
 16 18  1  0
 16 14  1  0
 17 16  2  0
 19 18  1  0
 19 24  1  0
 19 20  1  6
 21 20  1  0
 22 26  1  0
 22 21  1  0
 23 22  2  0
 24 25  1  0
 27 24  2  0
M  END
$$$$
