QIE.pdb
     RDKit          3D

 27 26  0  0  1  0  0  0  0  0999 V2000
    3.2167  -19.9684   22.5824 N   0  0  0  0  0  0  0  0  0  0  0  0
    4.6324  -19.8796   22.3277 C   0  0  0  0  0  0  0  0  0  0  0  0
    5.3640  -20.8568   22.6396 O   0  0  0  0  0  0  0  0  0  0  0  0
    5.1620  -18.6385   21.7083 C   0  0  0  0  0  0  0  0  0  0  0  0
    6.1058  -17.8833   22.5860 C   0  0  0  0  0  0  0  0  0  0  0  0
    6.1673  -16.4140   22.3202 C   0  0  2  0  0  0  0  0  0  0  0  0
    6.5663  -16.1082   20.9601 N   0  0  0  0  0  0  0  0  0  0  0  0
    7.2331  -15.8393   23.2160 C   0  0  0  0  0  0  0  0  0  0  0  0
    8.4424  -15.9038   22.8722 O   0  0  0  0  0  0  0  0  0  0  0  0
    5.9318  -11.6760   26.4775 C   0  0  0  0  0  0  0  0  0  0  0  0
    6.7642  -12.5206   25.5379 C   0  0  0  0  0  0  0  0  0  0  0  0
    7.3493  -13.6921   26.3265 C   0  0  2  0  0  0  0  0  0  0  0  0
    8.5032  -13.1241   27.1231 C   0  0  0  0  0  0  0  0  0  0  0  0
    7.9150  -14.7180   25.3675 C   0  0  2  0  0  0  0  0  0  0  0  0
    6.9232  -15.2164   24.4550 N   0  0  0  0  0  0  0  0  0  0  0  0
    8.5718  -15.8137   26.1330 C   0  0  0  0  0  0  0  0  0  0  0  0
    7.8741  -16.5617   26.8634 O   0  0  0  0  0  0  0  0  0  0  0  0
    9.9556  -16.0657   26.0854 N   0  0  0  0  0  0  0  0  0  0  0  0
   10.6026  -17.2168   26.7241 C   0  0  1  0  0  0  0  0  0  0  0  0
   11.8201  -17.6273   25.9804 C   0  0  0  0  0  0  0  0  0  0  0  0
   12.6359  -18.7341   26.4999 C   0  0  0  0  0  0  0  0  0  0  0  0
   13.8427  -19.1097   25.7738 C   0  0  0  0  0  0  0  0  0  0  0  0
   13.9007  -19.2188   24.5413 O   0  0  0  0  0  0  0  0  0  0  0  0
   10.6710  -17.1087   28.1739 C   0  0  0  0  0  0  0  0  0  0  0  0
   10.6914  -15.8701   28.8112 O   0  0  0  0  0  0  0  0  0  0  0  0
   15.0435  -19.3754   26.4725 O   0  0  0  0  0  0  0  0  0  0  0  0
   10.7197  -18.1253   28.9103 O   0  0  0  0  0  0  0  0  0  0  0  0
  2  1  1  0
  3  2  2  0
  4  2  1  0
  5  4  1  0
  6  5  1  0
  6  7  1  6
  8 15  1  0
  8  6  1  0
  9  8  2  0
 11 10  1  0
 11 12  1  0
 12 14  1  0
 12 13  1  1
 14 15  1  1
 16 18  1  0
 16 14  1  0
 17 16  2  0
 19 18  1  0
 19 24  1  0
 19 20  1  6
 21 20  1  0
 22 26  1  0
 22 21  1  0
 23 22  2  0
 24 25  1  0
 27 24  2  0
M  END
$$$$
