QIE.pdb
     RDKit          3D

 27 26  0  0  1  0  0  0  0  0999 V2000
    9.1302  -21.6263   19.3006 N   0  0  0  0  0  0  0  0  0  0  0  0
    8.9993  -21.4758   17.8733 C   0  0  0  0  0  0  0  0  0  0  0  0
    8.6780  -22.4827   17.1875 O   0  0  0  0  0  0  0  0  0  0  0  0
    9.2495  -20.1387   17.2783 C   0  0  0  0  0  0  0  0  0  0  0  0
    9.5883  -19.0867   18.2833 C   0  0  0  0  0  0  0  0  0  0  0  0
    9.7896  -17.7197   17.7142 C   0  0  2  0  0  0  0  0  0  0  0  0
   10.9655  -17.6332   16.8701 N   0  0  0  0  0  0  0  0  0  0  0  0
   10.0247  -16.7819   18.8692 C   0  0  0  0  0  0  0  0  0  0  0  0
   11.1982  -16.5592   19.2666 O   0  0  0  0  0  0  0  0  0  0  0  0
    6.9159  -12.3315   19.8478 C   0  0  0  0  0  0  0  0  0  0  0  0
    8.0767  -13.2919   19.7092 C   0  0  0  0  0  0  0  0  0  0  0  0
    8.0231  -14.2896   20.8662 C   0  0  2  0  0  0  0  0  0  0  0  0
    8.3096  -13.4915   22.1190 C   0  0  0  0  0  0  0  0  0  0  0  0
    9.1304  -15.3099   20.7090 C   0  0  2  0  0  0  0  0  0  0  0  0
    8.9567  -16.1271   19.5399 N   0  0  0  0  0  0  0  0  0  0  0  0
    9.2428  -16.1255   21.9499 C   0  0  0  0  0  0  0  0  0  0  0  0
    8.2891  -16.8713   22.2879 O   0  0  0  0  0  0  0  0  0  0  0  0
   10.3770  -16.1098   22.7830 N   0  0  0  0  0  0  0  0  0  0  0  0
   10.5423  -16.9687   23.9605 C   0  0  1  0  0  0  0  0  0  0  0  0
   11.9396  -17.4567   24.0753 C   0  0  0  0  0  0  0  0  0  0  0  0
   12.6485  -17.8871   22.8618 C   0  0  0  0  0  0  0  0  0  0  0  0
   14.0336  -17.4709   22.6802 C   0  0  0  0  0  0  0  0  0  0  0  0
   14.4742  -16.9771   21.6331 O   0  0  0  0  0  0  0  0  0  0  0  0
    9.8818  -16.4506   25.1495 C   0  0  0  0  0  0  0  0  0  0  0  0
    9.7838  -17.2068   26.3154 O   0  0  0  0  0  0  0  0  0  0  0  0
   14.9680  -17.6189   23.7316 O   0  0  0  0  0  0  0  0  0  0  0  0
    9.3687  -15.3042   25.1732 O   0  0  0  0  0  0  0  0  0  0  0  0
  2  1  1  0
  3  2  2  0
  4  2  1  0
  5  4  1  0
  6  5  1  0
  6  7  1  6
  8 15  1  0
  8  6  1  0
  9  8  2  0
 11 10  1  0
 11 12  1  0
 12 14  1  0
 12 13  1  1
 14 15  1  6
 16 18  1  0
 16 14  1  0
 17 16  2  0
 19 18  1  0
 19 24  1  0
 19 20  1  1
 21 20  1  0
 22 26  1  0
 22 21  1  0
 23 22  2  0
 24 25  1  0
 27 24  2  0
M  END
$$$$
