QIE.pdb
     RDKit          3D

 27 26  0  0  1  0  0  0  0  0999 V2000
    9.3375  -12.6357   18.3402 N   0  0  0  0  0  0  0  0  0  0  0  0
    8.2178  -13.4400   17.9204 C   0  0  0  0  0  0  0  0  0  0  0  0
    7.9907  -13.5610   16.6870 O   0  0  0  0  0  0  0  0  0  0  0  0
    7.3842  -14.0893   18.9634 C   0  0  0  0  0  0  0  0  0  0  0  0
    7.8806  -13.8676   20.3548 C   0  0  0  0  0  0  0  0  0  0  0  0
    7.8514  -15.0787   21.2296 C   0  0  2  0  0  0  0  0  0  0  0  0
    6.5087  -15.5836   21.4407 N   0  0  0  0  0  0  0  0  0  0  0  0
    8.3697  -14.6683   22.5831 C   0  0  0  0  0  0  0  0  0  0  0  0
    9.5537  -14.2578   22.7025 O   0  0  0  0  0  0  0  0  0  0  0  0
    5.4807  -11.8968   25.8817 C   0  0  0  0  0  0  0  0  0  0  0  0
    6.7418  -12.4414   25.2475 C   0  0  0  0  0  0  0  0  0  0  0  0
    7.1163  -13.7453   25.9519 C   0  0  2  0  0  0  0  0  0  0  0  0
    7.8650  -13.3435   27.2035 C   0  0  0  0  0  0  0  0  0  0  0  0
    8.0690  -14.5373   25.0818 C   0  0  2  0  0  0  0  0  0  0  0  0
    7.5620  -14.7269   23.7507 N   0  0  0  0  0  0  0  0  0  0  0  0
    8.3988  -15.8298   25.7441 C   0  0  0  0  0  0  0  0  0  0  0  0
    7.4878  -16.6727   25.9428 O   0  0  0  0  0  0  0  0  0  0  0  0
    9.6968  -16.1694   26.1691 N   0  0  0  0  0  0  0  0  0  0  0  0
   10.0477  -17.4505   26.7913 C   0  0  1  0  0  0  0  0  0  0  0  0
   10.8318  -18.3007   25.8607 C   0  0  0  0  0  0  0  0  0  0  0  0
   12.0880  -17.7800   25.3030 C   0  0  0  0  0  0  0  0  0  0  0  0
   12.8841  -18.6515   24.4479 C   0  0  0  0  0  0  0  0  0  0  0  0
   12.4061  -19.3715   23.5604 O   0  0  0  0  0  0  0  0  0  0  0  0
   10.5002  -17.3181   28.1683 C   0  0  0  0  0  0  0  0  0  0  0  0
   10.6558  -18.4297   28.9934 O   0  0  0  0  0  0  0  0  0  0  0  0
   14.2888  -18.7143   24.6011 O   0  0  0  0  0  0  0  0  0  0  0  0
   10.7643  -16.1978   28.6717 O   0  0  0  0  0  0  0  0  0  0  0  0
  2  1  1  0
  3  2  2  0
  4  2  1  0
  5  4  1  0
  6  5  1  0
  6  7  1  1
  8 15  1  0
  8  6  1  0
  9  8  2  0
 11 10  1  0
 11 12  1  0
 12 14  1  0
 12 13  1  1
 14 15  1  6
 16 18  1  0
 16 14  1  0
 17 16  2  0
 19 18  1  0
 19 24  1  0
 19 20  1  6
 21 20  1  0
 22 26  1  0
 22 21  1  0
 23 22  2  0
 24 25  1  0
 27 24  2  0
M  END
$$$$
