QIE.pdb
     RDKit          3D

 27 26  0  0  1  0  0  0  0  0999 V2000
    9.1023  -19.7591   21.4439 N   0  0  0  0  0  0  0  0  0  0  0  0
    7.8590  -19.5029   20.7616 C   0  0  0  0  0  0  0  0  0  0  0  0
    7.2935  -20.4549   20.1604 O   0  0  0  0  0  0  0  0  0  0  0  0
    7.3028  -18.1269   20.8003 C   0  0  0  0  0  0  0  0  0  0  0  0
    8.1266  -17.1669   21.5947 C   0  0  0  0  0  0  0  0  0  0  0  0
    7.5197  -15.8117   21.7626 C   0  0  2  0  0  0  0  0  0  0  0  0
    7.7235  -14.9608   20.6063 N   0  0  0  0  0  0  0  0  0  0  0  0
    8.2249  -15.1426   22.9132 C   0  0  0  0  0  0  0  0  0  0  0  0
    9.4461  -14.8529   22.8165 O   0  0  0  0  0  0  0  0  0  0  0  0
    5.5821  -11.6693   26.1538 C   0  0  0  0  0  0  0  0  0  0  0  0
    6.6903  -12.3079   25.3455 C   0  0  0  0  0  0  0  0  0  0  0  0
    7.2713  -13.4703   26.1506 C   0  0  2  0  0  0  0  0  0  0  0  0
    8.0916  -12.8433   27.2563 C   0  0  0  0  0  0  0  0  0  0  0  0
    8.2140  -14.2716   25.2780 C   0  0  2  0  0  0  0  0  0  0  0  0
    7.5556  -14.8196   24.1244 N   0  0  0  0  0  0  0  0  0  0  0  0
    8.8821  -15.3236   26.0932 C   0  0  0  0  0  0  0  0  0  0  0  0
    8.2015  -16.2757   26.5516 O   0  0  0  0  0  0  0  0  0  0  0  0
   10.2586  -15.3139   26.3863 N   0  0  0  0  0  0  0  0  0  0  0  0
   10.9335  -16.3375   27.1914 C   0  0  1  0  0  0  0  0  0  0  0  0
   12.2882  -16.6300   26.6596 C   0  0  0  0  0  0  0  0  0  0  0  0
   12.4839  -16.7066   25.2049 C   0  0  0  0  0  0  0  0  0  0  0  0
   13.8242  -16.9692   24.6957 C   0  0  0  0  0  0  0  0  0  0  0  0
   14.8623  -16.7168   25.3226 O   0  0  0  0  0  0  0  0  0  0  0  0
   10.7710  -16.1436   28.6248 C   0  0  0  0  0  0  0  0  0  0  0  0
   11.1401  -17.1279   29.5389 O   0  0  0  0  0  0  0  0  0  0  0  0
   14.0026  -17.5450   23.4162 O   0  0  0  0  0  0  0  0  0  0  0  0
   10.2872  -15.0848   29.0972 O   0  0  0  0  0  0  0  0  0  0  0  0
  2  1  1  0
  3  2  2  0
  4  2  1  0
  5  4  1  0
  6  5  1  0
  6  7  1  6
  8 15  1  0
  8  6  1  0
  9  8  2  0
 11 10  1  0
 11 12  1  0
 12 14  1  0
 12 13  1  1
 14 15  1  6
 16 18  1  0
 16 14  1  0
 17 16  2  0
 19 18  1  0
 19 24  1  0
 19 20  1  1
 21 20  1  0
 22 26  1  0
 22 21  1  0
 23 22  2  0
 24 25  1  0
 27 24  2  0
M  END
$$$$
