QIE.pdb
     RDKit          3D

 27 26  0  0  1  0  0  0  0  0999 V2000
   11.9138  -19.5168   15.3769 N   0  0  0  0  0  0  0  0  0  0  0  0
   10.6384  -19.3504   14.7270 C   0  0  0  0  0  0  0  0  0  0  0  0
   10.3881  -20.0414   13.7036 O   0  0  0  0  0  0  0  0  0  0  0  0
    9.6783  -18.3711   15.2959 C   0  0  0  0  0  0  0  0  0  0  0  0
   10.1939  -17.6525   16.4997 C   0  0  0  0  0  0  0  0  0  0  0  0
    9.5381  -18.0370   17.7863 C   0  0  2  0  0  0  0  0  0  0  0  0
    8.0911  -18.0492   17.6943 N   0  0  0  0  0  0  0  0  0  0  0  0
    9.8912  -16.9836   18.8033 C   0  0  0  0  0  0  0  0  0  0  0  0
   11.0944  -16.6539   18.9719 O   0  0  0  0  0  0  0  0  0  0  0  0
    6.5254  -12.8064   20.0052 C   0  0  0  0  0  0  0  0  0  0  0  0
    7.7608  -13.6351   19.7290 C   0  0  0  0  0  0  0  0  0  0  0  0
    8.0613  -14.4858   20.9629 C   0  0  2  0  0  0  0  0  0  0  0  0
    8.5260  -13.5213   22.0318 C   0  0  0  0  0  0  0  0  0  0  0  0
    9.2091  -15.4268   20.6640 C   0  0  2  0  0  0  0  0  0  0  0  0
    8.9039  -16.3359   19.5938 N   0  0  0  0  0  0  0  0  0  0  0  0
    9.6108  -16.1412   21.9074 C   0  0  0  0  0  0  0  0  0  0  0  0
    8.8592  -17.0316   22.3790 O   0  0  0  0  0  0  0  0  0  0  0  0
   10.8065  -15.8723   22.5992 N   0  0  0  0  0  0  0  0  0  0  0  0
   11.2512  -16.6097   23.7867 C   0  0  1  0  0  0  0  0  0  0  0  0
   12.7327  -16.6355   23.8772 C   0  0  0  0  0  0  0  0  0  0  0  0
   13.5087  -17.1676   22.7480 C   0  0  0  0  0  0  0  0  0  0  0  0
   14.9023  -16.7634   22.6092 C   0  0  0  0  0  0  0  0  0  0  0  0
   15.4828  -16.0053   23.3982 O   0  0  0  0  0  0  0  0  0  0  0  0
   10.4822  -16.2957   24.9819 C   0  0  0  0  0  0  0  0  0  0  0  0
    9.5544  -15.2567   24.9983 O   0  0  0  0  0  0  0  0  0  0  0  0
   15.6796  -17.2377   21.5269 O   0  0  0  0  0  0  0  0  0  0  0  0
   10.6259  -16.9435   26.0486 O   0  0  0  0  0  0  0  0  0  0  0  0
  2  1  1  0
  3  2  2  0
  4  2  1  0
  5  4  1  0
  6  5  1  0
  6  7  1  6
  8 15  1  0
  8  6  1  0
  9  8  2  0
 11 10  1  0
 11 12  1  0
 12 14  1  0
 12 13  1  1
 14 15  1  6
 16 18  1  0
 16 14  1  0
 17 16  2  0
 19 18  1  0
 19 24  1  0
 19 20  1  1
 21 20  1  0
 22 26  1  0
 22 21  1  0
 23 22  2  0
 24 25  1  0
 27 24  2  0
M  END
$$$$
