QIE.pdb
     RDKit          3D

 27 26  0  0  1  0  0  0  0  0999 V2000
    7.9606  -18.7419   19.2910 N   0  0  0  0  0  0  0  0  0  0  0  0
    7.6585  -19.0581   20.6641 C   0  0  0  0  0  0  0  0  0  0  0  0
    8.3915  -19.8863   21.2678 O   0  0  0  0  0  0  0  0  0  0  0  0
    6.4961  -18.3912   21.3032 C   0  0  0  0  0  0  0  0  0  0  0  0
    6.8592  -17.5468   22.4807 C   0  0  0  0  0  0  0  0  0  0  0  0
    7.1522  -16.1173   22.1587 C   0  0  2  0  0  0  0  0  0  0  0  0
    7.9881  -15.9691   20.9833 N   0  0  0  0  0  0  0  0  0  0  0  0
    7.9352  -15.5479   23.3126 C   0  0  0  0  0  0  0  0  0  0  0  0
    9.1913  -15.4920   23.2505 O   0  0  0  0  0  0  0  0  0  0  0  0
    5.7219  -11.4075   25.9806 C   0  0  0  0  0  0  0  0  0  0  0  0
    6.7721  -12.2748   25.3218 C   0  0  0  0  0  0  0  0  0  0  0  0
    7.1451  -13.4022   26.2844 C   0  0  2  0  0  0  0  0  0  0  0  0
    7.9940  -12.7662   27.3631 C   0  0  0  0  0  0  0  0  0  0  0  0
    8.0043  -14.4206   25.5655 C   0  0  2  0  0  0  0  0  0  0  0  0
    7.3023  -15.0630   24.4888 N   0  0  0  0  0  0  0  0  0  0  0  0
    8.5459  -15.4029   26.5450 C   0  0  0  0  0  0  0  0  0  0  0  0
    9.3557  -15.0160   27.4250 O   0  0  0  0  0  0  0  0  0  0  0  0
    8.1972  -16.7664   26.5430 N   0  0  0  0  0  0  0  0  0  0  0  0
    8.7545  -17.7574   27.4697 C   0  0  1  0  0  0  0  0  0  0  0  0
    8.1217  -19.0863   27.2765 C   0  0  0  0  0  0  0  0  0  0  0  0
    7.2537  -19.3020   26.1101 C   0  0  0  0  0  0  0  0  0  0  0  0
    6.7334  -20.6419   25.8680 C   0  0  0  0  0  0  0  0  0  0  0  0
    6.4954  -21.4623   26.7650 O   0  0  0  0  0  0  0  0  0  0  0  0
   10.2030  -17.6827   27.5913 C   0  0  0  0  0  0  0  0  0  0  0  0
   10.8702  -18.2249   28.6874 O   0  0  0  0  0  0  0  0  0  0  0  0
    6.4685  -21.0782   24.5489 O   0  0  0  0  0  0  0  0  0  0  0  0
   10.9109  -17.1230   26.7174 O   0  0  0  0  0  0  0  0  0  0  0  0
  2  1  1  0
  3  2  2  0
  4  2  1  0
  5  4  1  0
  6  5  1  0
  6  7  1  6
  8 15  1  0
  8  6  1  0
  9  8  2  0
 11 10  1  0
 11 12  1  0
 12 14  1  0
 12 13  1  1
 14 15  1  6
 16 18  1  0
 16 14  1  0
 17 16  2  0
 19 18  1  0
 19 24  1  0
 19 20  1  6
 21 20  1  0
 22 26  1  0
 22 21  1  0
 23 22  2  0
 24 25  1  0
 27 24  2  0
M  END
$$$$
