QIE.pdb
     RDKit          3D

 27 26  0  0  1  0  0  0  0  0999 V2000
    3.9387  -18.6443   21.8696 N   0  0  0  0  0  0  0  0  0  0  0  0
    4.6938  -18.9088   20.6710 C   0  0  0  0  0  0  0  0  0  0  0  0
    4.2406  -19.7451   19.8447 O   0  0  0  0  0  0  0  0  0  0  0  0
    5.9719  -18.1815   20.4667 C   0  0  0  0  0  0  0  0  0  0  0  0
    6.3548  -17.3037   21.6132 C   0  0  0  0  0  0  0  0  0  0  0  0
    6.7232  -15.9058   21.2348 C   0  0  2  0  0  0  0  0  0  0  0  0
    7.5029  -15.8442   20.0138 N   0  0  0  0  0  0  0  0  0  0  0  0
    7.6026  -15.3607   22.3295 C   0  0  0  0  0  0  0  0  0  0  0  0
    8.8535  -15.4730   22.2426 O   0  0  0  0  0  0  0  0  0  0  0  0
    7.2696  -11.8440   27.4661 C   0  0  0  0  0  0  0  0  0  0  0  0
    8.0418  -12.8048   26.5888 C   0  0  0  0  0  0  0  0  0  0  0  0
    7.1172  -13.2965   25.4752 C   0  0  2  0  0  0  0  0  0  0  0  0
    6.0115  -14.0684   26.1611 C   0  0  0  0  0  0  0  0  0  0  0  0
    7.8661  -14.2635   24.5829 C   0  0  2  0  0  0  0  0  0  0  0  0
    7.0680  -14.7136   23.4760 N   0  0  0  0  0  0  0  0  0  0  0  0
    8.3864  -15.3979   25.3953 C   0  0  0  0  0  0  0  0  0  0  0  0
    7.6093  -16.3288   25.7261 O   0  0  0  0  0  0  0  0  0  0  0  0
    9.7240  -15.4906   25.8230 N   0  0  0  0  0  0  0  0  0  0  0  0
   10.3221  -16.7039   26.3901 C   0  0  1  0  0  0  0  0  0  0  0  0
   11.5698  -17.0707   25.6742 C   0  0  0  0  0  0  0  0  0  0  0  0
   11.4802  -17.5934   24.3034 C   0  0  0  0  0  0  0  0  0  0  0  0
   12.7143  -17.9302   23.6048 C   0  0  0  0  0  0  0  0  0  0  0  0
   13.7382  -17.2339   23.6380 O   0  0  0  0  0  0  0  0  0  0  0  0
   10.3188  -16.7224   27.8455 C   0  0  0  0  0  0  0  0  0  0  0  0
   10.4758  -17.9088   28.5586 O   0  0  0  0  0  0  0  0  0  0  0  0
   12.7978  -19.1108   22.8303 O   0  0  0  0  0  0  0  0  0  0  0  0
   10.1694  -15.6725   28.5189 O   0  0  0  0  0  0  0  0  0  0  0  0
  2  1  1  0
  3  2  2  0
  4  2  1  0
  5  4  1  0
  6  5  1  0
  6  7  1  6
  8 15  1  0
  8  6  1  0
  9  8  2  0
 11 10  1  0
 11 12  1  0
 12 14  1  0
 12 13  1  1
 14 15  1  6
 16 18  1  0
 16 14  1  0
 17 16  2  0
 19 18  1  0
 19 24  1  0
 19 20  1  1
 21 20  1  0
 22 26  1  0
 22 21  1  0
 23 22  2  0
 24 25  1  0
 27 24  2  0
M  END
$$$$
