QIE.pdb
     RDKit          3D

 27 26  0  0  1  0  0  0  0  0999 V2000
    7.9208  -18.4208   19.7052 N   0  0  0  0  0  0  0  0  0  0  0  0
    6.9853  -17.6806   18.8967 C   0  0  0  0  0  0  0  0  0  0  0  0
    6.3629  -18.2883   17.9852 O   0  0  0  0  0  0  0  0  0  0  0  0
    6.7989  -16.2346   19.1774 C   0  0  0  0  0  0  0  0  0  0  0  0
    7.4988  -15.7660   20.4110 C   0  0  0  0  0  0  0  0  0  0  0  0
    7.2064  -14.3523   20.7973 C   0  0  2  0  0  0  0  0  0  0  0  0
    7.7388  -13.3925   19.8498 N   0  0  0  0  0  0  0  0  0  0  0  0
    7.9041  -14.0904   22.1063 C   0  0  0  0  0  0  0  0  0  0  0  0
    9.1509  -13.9180   22.1282 O   0  0  0  0  0  0  0  0  0  0  0  0
    5.5223  -11.5003   26.3531 C   0  0  0  0  0  0  0  0  0  0  0  0
    6.5672  -11.9724   25.3660 C   0  0  0  0  0  0  0  0  0  0  0  0
    6.9302  -13.4199   25.6974 C   0  0  2  0  0  0  0  0  0  0  0  0
    7.7204  -13.3673   26.9864 C   0  0  0  0  0  0  0  0  0  0  0  0
    7.8416  -13.9739   24.6229 C   0  0  2  0  0  0  0  0  0  0  0  0
    7.1994  -14.0290   23.3387 N   0  0  0  0  0  0  0  0  0  0  0  0
    8.3656  -15.3028   25.0439 C   0  0  0  0  0  0  0  0  0  0  0  0
    7.5805  -16.2815   25.1182 O   0  0  0  0  0  0  0  0  0  0  0  0
    9.7155  -15.5315   25.3698 N   0  0  0  0  0  0  0  0  0  0  0  0
   10.2770  -16.8554   25.6590 C   0  0  1  0  0  0  0  0  0  0  0  0
   11.4881  -17.1137   24.8403 C   0  0  0  0  0  0  0  0  0  0  0  0
   12.2439  -18.3561   25.0541 C   0  0  0  0  0  0  0  0  0  0  0  0
   13.4255  -18.6013   24.2367 C   0  0  0  0  0  0  0  0  0  0  0  0
   14.5752  -18.6791   24.6913 O   0  0  0  0  0  0  0  0  0  0  0  0
   10.3126  -17.1688   27.0799 C   0  0  0  0  0  0  0  0  0  0  0  0
   10.1059  -18.4658   27.5444 O   0  0  0  0  0  0  0  0  0  0  0  0
   13.3047  -18.7671   22.8372 O   0  0  0  0  0  0  0  0  0  0  0  0
   10.5256  -16.2842   27.9461 O   0  0  0  0  0  0  0  0  0  0  0  0
  2  1  1  0
  3  2  2  0
  4  2  1  0
  5  4  1  0
  6  5  1  0
  6  7  1  6
  8 15  1  0
  8  6  1  0
  9  8  2  0
 11 10  1  0
 11 12  1  0
 12 14  1  0
 12 13  1  1
 14 15  1  6
 16 18  1  0
 16 14  1  0
 17 16  2  0
 19 18  1  0
 19 24  1  0
 19 20  1  1
 21 20  1  0
 22 26  1  0
 22 21  1  0
 23 22  2  0
 24 25  1  0
 27 24  2  0
M  END
$$$$
