QIE.pdb
     RDKit          3D

 27 26  0  0  1  0  0  0  0  0999 V2000
    8.7002  -12.3149   17.3059 N   0  0  0  0  0  0  0  0  0  0  0  0
    8.3224  -13.5722   17.9002 C   0  0  0  0  0  0  0  0  0  0  0  0
    8.8479  -14.6295   17.4603 O   0  0  0  0  0  0  0  0  0  0  0  0
    7.3304  -13.5614   19.0048 C   0  0  0  0  0  0  0  0  0  0  0  0
    7.9453  -13.5150   20.3654 C   0  0  0  0  0  0  0  0  0  0  0  0
    7.8563  -14.7922   21.1360 C   0  0  2  0  0  0  0  0  0  0  0  0
    6.4904  -15.2477   21.3072 N   0  0  0  0  0  0  0  0  0  0  0  0
    8.3913  -14.5219   22.5178 C   0  0  0  0  0  0  0  0  0  0  0  0
    9.5764  -14.1232   22.6639 O   0  0  0  0  0  0  0  0  0  0  0  0
    5.3370  -12.0756   26.0255 C   0  0  0  0  0  0  0  0  0  0  0  0
    6.6097  -12.5134   25.3342 C   0  0  0  0  0  0  0  0  0  0  0  0
    7.0408  -13.8594   25.9163 C   0  0  2  0  0  0  0  0  0  0  0  0
    7.7027  -13.5487   27.2407 C   0  0  0  0  0  0  0  0  0  0  0  0
    8.0843  -14.4903   25.0190 C   0  0  2  0  0  0  0  0  0  0  0  0
    7.5986  -14.7018   23.6833 N   0  0  0  0  0  0  0  0  0  0  0  0
    8.5856  -15.7487   25.6378 C   0  0  0  0  0  0  0  0  0  0  0  0
    7.7676  -16.6456   25.9639 O   0  0  0  0  0  0  0  0  0  0  0  0
    9.9488  -15.9974   25.8837 N   0  0  0  0  0  0  0  0  0  0  0  0
   10.4778  -17.2854   26.3450 C   0  0  1  0  0  0  0  0  0  0  0  0
   11.4309  -17.8563   25.3604 C   0  0  0  0  0  0  0  0  0  0  0  0
   12.6169  -17.0766   24.9784 C   0  0  0  0  0  0  0  0  0  0  0  0
   13.4750  -17.5893   23.9177 C   0  0  0  0  0  0  0  0  0  0  0  0
   14.4557  -16.9805   23.4684 O   0  0  0  0  0  0  0  0  0  0  0  0
   10.8418  -17.2879   27.7542 C   0  0  0  0  0  0  0  0  0  0  0  0
   10.8850  -16.1101   28.4968 O   0  0  0  0  0  0  0  0  0  0  0  0
   13.2142  -18.8514   23.3347 O   0  0  0  0  0  0  0  0  0  0  0  0
   11.1367  -18.3493   28.3581 O   0  0  0  0  0  0  0  0  0  0  0  0
  2  1  1  0
  3  2  2  0
  4  2  1  0
  5  4  1  0
  6  5  1  0
  6  7  1  1
  8 15  1  0
  8  6  1  0
  9  8  2  0
 11 10  1  0
 11 12  1  0
 12 14  1  0
 12 13  1  1
 14 15  1  6
 16 18  1  0
 16 14  1  0
 17 16  2  0
 19 18  1  0
 19 24  1  0
 19 20  1  6
 21 20  1  0
 22 26  1  0
 22 21  1  0
 23 22  2  0
 24 25  1  0
 27 24  2  0
M  END
$$$$
