FSY.pdb
     RDKit          3D

 30 31  0  0  1  0  0  0  0  0999 V2000
   24.0758  -13.0659  -16.0123 N   0  0  0  0  0  0  0  0  0  0  0  0
   24.4614  -11.7815  -15.4586 C   0  0  1  0  0  0  0  0  0  0  0  0
   25.5950  -11.2783  -16.3135 C   0  0  0  0  0  0  0  0  0  0  0  0
   26.8240  -12.0685  -16.2392 C   0  0  0  0  0  0  0  0  0  0  0  0
   27.5198  -12.3243  -15.0865 C   0  0  0  0  0  0  0  0  0  0  0  0
   28.6677  -13.0830  -15.1001 C   0  0  0  0  0  0  0  0  0  0  0  0
   29.1601  -13.6136  -16.2739 C   0  0  0  0  0  0  0  0  0  0  0  0
   28.4724  -13.3651  -17.4380 C   0  0  0  0  0  0  0  0  0  0  0  0
   27.3258  -12.6051  -17.4113 C   0  0  0  0  0  0  0  0  0  0  0  0
   23.3051  -10.8558  -15.4257 C   0  0  0  0  0  0  0  0  0  0  0  0
   22.4725  -10.9389  -16.3874 O   0  0  0  0  0  0  0  0  0  0  0  0
   20.2513   -8.3644  -12.9131 O   0  0  0  0  0  0  0  0  0  0  0  0
   21.4219   -9.1457  -12.9324 C   0  0  0  0  0  0  0  0  0  0  0  0
   22.0040   -9.0447  -14.3174 C   0  0  2  0  0  0  0  0  0  0  0  0
   23.1476   -9.9347  -14.3764 N   0  0  0  0  0  0  0  0  0  0  0  0
   22.3525   -7.6638  -14.7023 C   0  0  0  0  0  0  0  0  0  0  0  0
   23.4784   -7.2252  -14.3513 O   0  0  0  0  0  0  0  0  0  0  0  0
   23.3182    0.1343  -18.5126 O   0  0  0  0  0  0  0  0  0  0  0  0
   22.9174   -1.1616  -18.1979 C   0  0  0  0  0  0  0  0  0  0  0  0
   21.6103   -1.5048  -17.9858 C   0  0  0  0  0  0  0  0  0  0  0  0
   21.2888   -2.8009  -17.6796 C   0  0  0  0  0  0  0  0  0  0  0  0
   22.2413   -3.8045  -17.5714 C   0  0  0  0  0  0  0  0  0  0  0  0
   21.9270   -5.2081  -17.2422 C   0  0  0  0  0  0  0  0  0  0  0  0
   21.8829   -5.4089  -15.7744 C   0  0  2  0  0  0  0  0  0  0  0  0
   21.5187   -6.7961  -15.4350 N   0  0  0  0  0  0  0  0  0  0  0  0
   21.0286   -4.4528  -15.0899 C   0  0  0  0  0  0  0  0  0  0  0  0
   19.8246   -4.7891  -14.8077 O   0  0  0  0  0  0  0  0  0  0  0  0
   23.5649   -3.4095  -17.7961 C   0  0  0  0  0  0  0  0  0  0  0  0
   23.9017   -2.1139  -18.1039 C   0  0  0  0  0  0  0  0  0  0  0  0
   21.4458   -3.1916  -14.7207 O   0  0  0  0  0  0  0  0  0  0  0  0
  2  1  1  6
  2  3  1  0
  3  4  1  0
  4  9  1  0
  4  5  2  0
  5  6  1  0
  6  7  2  0
  8  7  1  0
  9  8  2  0
 10 11  2  0
 10  2  1  0
 13 12  1  0
 14 13  1  1
 14 15  1  0
 15 10  1  0
 16 17  2  0
 16 14  1  0
 18 19  1  0
 19 29  2  0
 19 20  1  0
 20 21  2  0
 21 22  1  0
 22 23  1  0
 24 23  1  6
 24 25  1  0
 24 26  1  0
 25 16  1  0
 26 30  1  0
 27 26  2  0
 28 22  2  0
 29 28  1  0
M  END
$$$$
