FSY.pdb
     RDKit          3D

 30 31  0  0  1  0  0  0  0  0999 V2000
   28.6728  -20.8993  -11.7498 N   0  0  0  0  0  0  0  0  0  0  0  0
   27.3391  -21.3057  -11.3484 C   0  0  1  0  0  0  0  0  0  0  0  0
   26.9535  -20.4088  -10.2013 C   0  0  0  0  0  0  0  0  0  0  0  0
   27.8241  -20.4950   -9.0287 C   0  0  0  0  0  0  0  0  0  0  0  0
   29.1702  -20.7489   -9.0721 C   0  0  0  0  0  0  0  0  0  0  0  0
   29.9218  -20.8090   -7.9211 C   0  0  0  0  0  0  0  0  0  0  0  0
   29.3484  -20.6160   -6.6820 C   0  0  0  0  0  0  0  0  0  0  0  0
   27.9990  -20.3604   -6.6232 C   0  0  0  0  0  0  0  0  0  0  0  0
   27.2582  -20.3028   -7.7812 C   0  0  0  0  0  0  0  0  0  0  0  0
   26.3992  -21.2222  -12.4907 C   0  0  0  0  0  0  0  0  0  0  0  0
   26.3554  -20.1154  -13.1216 O   0  0  0  0  0  0  0  0  0  0  0  0
   23.7308  -24.2996  -13.2999 O   0  0  0  0  0  0  0  0  0  0  0  0
   24.3480  -23.6485  -14.3843 C   0  0  0  0  0  0  0  0  0  0  0  0
   24.6535  -22.2408  -13.9454 C   0  0  2  0  0  0  0  0  0  0  0  0
   25.6000  -22.3208  -12.8494 N   0  0  0  0  0  0  0  0  0  0  0  0
   23.4485  -21.4697  -13.5855 C   0  0  0  0  0  0  0  0  0  0  0  0
   23.3846  -20.9931  -12.4226 O   0  0  0  0  0  0  0  0  0  0  0  0
   17.6162  -15.1187  -13.5601 O   0  0  0  0  0  0  0  0  0  0  0  0
   18.6499  -16.0508  -13.6037 C   0  0  0  0  0  0  0  0  0  0  0  0
   19.1855  -16.6202  -12.4811 C   0  0  0  0  0  0  0  0  0  0  0  0
   20.2020  -17.5311  -12.5996 C   0  0  0  0  0  0  0  0  0  0  0  0
   20.7270  -17.9137  -13.8260 C   0  0  0  0  0  0  0  0  0  0  0  0
   21.8215  -18.8903  -13.9863 C   0  0  0  0  0  0  0  0  0  0  0  0
   21.2851  -20.2624  -14.1485 C   0  0  2  0  0  0  0  0  0  0  0  0
   22.3604  -21.2252  -14.4465 N   0  0  0  0  0  0  0  0  0  0  0  0
   20.2110  -20.3468  -15.1240 C   0  0  0  0  0  0  0  0  0  0  0  0
   19.0029  -20.4453  -14.7081 O   0  0  0  0  0  0  0  0  0  0  0  0
   20.1500  -17.3069  -14.9474 C   0  0  0  0  0  0  0  0  0  0  0  0
   19.1305  -16.3922  -14.8434 C   0  0  0  0  0  0  0  0  0  0  0  0
   20.4206  -20.3239  -16.4866 O   0  0  0  0  0  0  0  0  0  0  0  0
  2  1  1  6
  2  3  1  0
  3  4  1  0
  4  9  1  0
  4  5  2  0
  5  6  1  0
  6  7  2  0
  8  7  1  0
  9  8  2  0
 10 11  2  0
 10  2  1  0
 13 12  1  0
 14 13  1  1
 14 15  1  0
 15 10  1  0
 16 17  2  0
 16 14  1  0
 18 19  1  0
 19 29  2  0
 19 20  1  0
 20 21  2  0
 21 22  1  0
 22 23  1  0
 24 23  1  6
 24 25  1  0
 24 26  1  0
 25 16  1  0
 26 30  1  0
 27 26  2  0
 28 22  2  0
 29 28  1  0
M  END
$$$$
