FSY.pdb
     RDKit          3D

 30 31  0  0  1  0  0  0  0  0999 V2000
   23.9705  -15.5734  -20.2183 N   0  0  0  0  0  0  0  0  0  0  0  0
   24.9733  -15.3805  -19.1878 C   0  0  1  0  0  0  0  0  0  0  0  0
   24.2636  -14.7362  -18.0257 C   0  0  0  0  0  0  0  0  0  0  0  0
   23.6138  -13.4608  -18.3277 C   0  0  0  0  0  0  0  0  0  0  0  0
   24.2585  -12.3489  -18.8034 C   0  0  0  0  0  0  0  0  0  0  0  0
   23.5727  -11.1856  -19.0680 C   0  0  0  0  0  0  0  0  0  0  0  0
   22.2118  -11.0960  -18.8641 C   0  0  0  0  0  0  0  0  0  0  0  0
   21.5519  -12.2036  -18.3872 C   0  0  0  0  0  0  0  0  0  0  0  0
   22.2488  -13.3609  -18.1265 C   0  0  0  0  0  0  0  0  0  0  0  0
   25.6156  -16.6677  -18.8332 C   0  0  0  0  0  0  0  0  0  0  0  0
   24.8437  -17.6644  -18.6445 O   0  0  0  0  0  0  0  0  0  0  0  0
   29.8583  -17.2357  -18.3065 O   0  0  0  0  0  0  0  0  0  0  0  0
   29.0045  -18.0189  -19.1056 C   0  0  0  0  0  0  0  0  0  0  0  0
   27.6566  -18.0376  -18.4346 C   0  0  2  0  0  0  0  0  0  0  0  0
   27.0120  -16.7688  -18.7142 N   0  0  0  0  0  0  0  0  0  0  0  0
   27.7312  -18.3176  -16.9881 C   0  0  0  0  0  0  0  0  0  0  0  0
   27.7661  -17.3348  -16.2030 O   0  0  0  0  0  0  0  0  0  0  0  0
   25.3666  -20.6351   -9.0781 O   0  0  0  0  0  0  0  0  0  0  0  0
   25.6253  -20.2479  -10.3905 C   0  0  0  0  0  0  0  0  0  0  0  0
   26.2945  -19.0980  -10.7082 C   0  0  0  0  0  0  0  0  0  0  0  0
   26.5136  -18.7799  -12.0228 C   0  0  0  0  0  0  0  0  0  0  0  0
   26.0820  -19.5815  -13.0703 C   0  0  0  0  0  0  0  0  0  0  0  0
   26.3013  -19.2658  -14.4950 C   0  0  0  0  0  0  0  0  0  0  0  0
   27.5674  -19.8647  -14.9796 C   0  0  2  0  0  0  0  0  0  0  0  0
   27.7663  -19.6049  -16.4166 N   0  0  0  0  0  0  0  0  0  0  0  0
   27.6859  -21.2809  -14.6745 C   0  0  0  0  0  0  0  0  0  0  0  0
   27.0770  -22.1279  -15.4188 O   0  0  0  0  0  0  0  0  0  0  0  0
   25.4022  -20.7474  -12.7002 C   0  0  0  0  0  0  0  0  0  0  0  0
   25.1756  -21.0788  -11.3865 C   0  0  0  0  0  0  0  0  0  0  0  0
   28.4267  -21.7698  -13.6194 O   0  0  0  0  0  0  0  0  0  0  0  0
  2  1  1  6
  2  3  1  0
  3  4  1  0
  4  9  1  0
  4  5  2  0
  5  6  1  0
  6  7  2  0
  8  7  1  0
  9  8  2  0
 10 11  2  0
 10  2  1  0
 13 12  1  0
 14 13  1  1
 14 15  1  0
 15 10  1  0
 16 17  2  0
 16 14  1  0
 18 19  1  0
 19 29  2  0
 19 20  1  0
 20 21  2  0
 21 22  1  0
 22 23  1  0
 24 23  1  6
 24 25  1  0
 24 26  1  0
 25 16  1  0
 26 30  1  0
 27 26  2  0
 28 22  2  0
 29 28  1  0
M  END
$$$$
