FSY.pdb
     RDKit          3D

 30 31  0  0  1  0  0  0  0  0999 V2000
   24.2682  -20.5829  -19.1119 N   0  0  0  0  0  0  0  0  0  0  0  0
   24.7142  -19.5348  -18.2133 C   0  0  1  0  0  0  0  0  0  0  0  0
   23.4811  -18.7627  -17.8229 C   0  0  0  0  0  0  0  0  0  0  0  0
   22.9372  -17.8955  -18.8681 C   0  0  0  0  0  0  0  0  0  0  0  0
   23.5470  -16.7617  -19.3381 C   0  0  0  0  0  0  0  0  0  0  0  0
   22.9709  -16.0011  -20.3296 C   0  0  0  0  0  0  0  0  0  0  0  0
   21.7591  -16.3517  -20.8866 C   0  0  0  0  0  0  0  0  0  0  0  0
   21.1360  -17.4868  -20.4249 C   0  0  0  0  0  0  0  0  0  0  0  0
   21.7222  -18.2389  -19.4331 C   0  0  0  0  0  0  0  0  0  0  0  0
   25.4301  -20.1100  -17.0507 C   0  0  0  0  0  0  0  0  0  0  0  0
   25.0808  -21.2782  -16.6789 O   0  0  0  0  0  0  0  0  0  0  0  0
   28.4619  -17.9990  -15.1262 O   0  0  0  0  0  0  0  0  0  0  0  0
   28.5459  -19.3965  -15.2716 C   0  0  0  0  0  0  0  0  0  0  0  0
   27.1394  -19.9337  -15.2483 C   0  0  2  0  0  0  0  0  0  0  0  0
   26.4447  -19.3888  -16.3990 N   0  0  0  0  0  0  0  0  0  0  0  0
   26.4306  -19.6527  -13.9854 C   0  0  0  0  0  0  0  0  0  0  0  0
   25.9214  -18.5110  -13.8418 O   0  0  0  0  0  0  0  0  0  0  0  0
   19.6644  -20.1550   -8.8806 O   0  0  0  0  0  0  0  0  0  0  0  0
   20.6587  -20.2684   -9.8489 C   0  0  0  0  0  0  0  0  0  0  0  0
   20.5088  -21.0163  -10.9844 C   0  0  0  0  0  0  0  0  0  0  0  0
   21.5306  -21.0823  -11.8948 C   0  0  0  0  0  0  0  0  0  0  0  0
   22.7351  -20.4153  -11.7200 C   0  0  0  0  0  0  0  0  0  0  0  0
   23.8539  -20.4676  -12.6807 C   0  0  0  0  0  0  0  0  0  0  0  0
   25.1545  -20.5345  -11.9733 C   0  0  2  0  0  0  0  0  0  0  0  0
   26.2797  -20.5675  -12.9245 N   0  0  0  0  0  0  0  0  0  0  0  0
   25.2331  -21.6283  -11.0193 C   0  0  0  0  0  0  0  0  0  0  0  0
   25.3561  -22.8258  -11.4588 O   0  0  0  0  0  0  0  0  0  0  0  0
   22.8454  -19.6626  -10.5455 C   0  0  0  0  0  0  0  0  0  0  0  0
   21.8292  -19.5873   -9.6242 C   0  0  0  0  0  0  0  0  0  0  0  0
   25.1848  -21.4479   -9.6532 O   0  0  0  0  0  0  0  0  0  0  0  0
  2  1  1  6
  2  3  1  0
  3  4  1  0
  4  9  1  0
  4  5  2  0
  5  6  1  0
  6  7  2  0
  8  7  1  0
  9  8  2  0
 10 11  2  0
 10  2  1  0
 13 12  1  0
 14 13  1  1
 14 15  1  0
 15 10  1  0
 16 17  2  0
 16 14  1  0
 18 19  1  0
 19 29  2  0
 19 20  1  0
 20 21  2  0
 21 22  1  0
 22 23  1  0
 24 23  1  6
 24 25  1  0
 24 26  1  0
 25 16  1  0
 26 30  1  0
 27 26  2  0
 28 22  2  0
 29 28  1  0
M  END
$$$$
