FSY.pdb
     RDKit          3D

 30 31  0  0  1  0  0  0  0  0999 V2000
   28.2303  -21.7823   -8.4058 N   0  0  0  0  0  0  0  0  0  0  0  0
   26.9144  -21.1715   -8.3924 C   0  0  1  0  0  0  0  0  0  0  0  0
   27.0956  -19.7950   -7.8082 C   0  0  0  0  0  0  0  0  0  0  0  0
   27.5180  -19.7679   -6.4077 C   0  0  0  0  0  0  0  0  0  0  0  0
   28.7880  -19.4803   -5.9803 C   0  0  0  0  0  0  0  0  0  0  0  0
   29.1044  -19.4704   -4.6412 C   0  0  0  0  0  0  0  0  0  0  0  0
   28.1555  -19.7494   -3.6803 C   0  0  0  0  0  0  0  0  0  0  0  0
   26.8772  -20.0397   -4.0946 C   0  0  0  0  0  0  0  0  0  0  0  0
   26.5733  -20.0464   -5.4365 C   0  0  0  0  0  0  0  0  0  0  0  0
   26.3317  -21.1509   -9.7545 C   0  0  0  0  0  0  0  0  0  0  0  0
   27.1423  -20.9959  -10.7260 O   0  0  0  0  0  0  0  0  0  0  0  0
   22.4210  -20.3035  -10.4103 O   0  0  0  0  0  0  0  0  0  0  0  0
   22.8761  -21.4288  -11.1228 C   0  0  0  0  0  0  0  0  0  0  0  0
   24.3670  -21.2862  -11.2786 C   0  0  2  0  0  0  0  0  0  0  0  0
   24.9479  -21.2968   -9.9497 N   0  0  0  0  0  0  0  0  0  0  0  0
   24.7594  -20.0905  -12.0484 C   0  0  0  0  0  0  0  0  0  0  0  0
   25.0585  -19.0519  -11.4039 O   0  0  0  0  0  0  0  0  0  0  0  0
   27.3148  -14.0254  -17.7508 O   0  0  0  0  0  0  0  0  0  0  0  0
   27.1156  -15.1743  -16.9896 C   0  0  0  0  0  0  0  0  0  0  0  0
   27.0114  -16.4222  -17.5402 C   0  0  0  0  0  0  0  0  0  0  0  0
   26.8155  -17.5089  -16.7292 C   0  0  0  0  0  0  0  0  0  0  0  0
   26.7153  -17.4062  -15.3488 C   0  0  0  0  0  0  0  0  0  0  0  0
   26.5033  -18.5566  -14.4493 C   0  0  0  0  0  0  0  0  0  0  0  0
   25.0584  -18.7723  -14.1996 C   0  0  2  0  0  0  0  0  0  0  0  0
   24.8252  -20.0221  -13.4542 N   0  0  0  0  0  0  0  0  0  0  0  0
   24.2528  -18.7164  -15.4081 C   0  0  0  0  0  0  0  0  0  0  0  0
   24.0499  -19.7962  -16.0677 O   0  0  0  0  0  0  0  0  0  0  0  0
   26.8275  -16.1121  -14.8283 C   0  0  0  0  0  0  0  0  0  0  0  0
   27.0240  -15.0136  -15.6294 C   0  0  0  0  0  0  0  0  0  0  0  0
   23.6863  -17.5548  -15.8886 O   0  0  0  0  0  0  0  0  0  0  0  0
  2  1  1  6
  2  3  1  0
  3  4  1  0
  4  9  1  0
  4  5  2  0
  5  6  1  0
  6  7  2  0
  8  7  1  0
  9  8  2  0
 10 11  2  0
 10  2  1  0
 13 12  1  0
 14 13  1  1
 14 15  1  0
 15 10  1  0
 16 17  2  0
 16 14  1  0
 18 19  1  0
 19 29  2  0
 19 20  1  0
 20 21  2  0
 21 22  1  0
 22 23  1  0
 24 23  1  6
 24 25  1  0
 24 26  1  0
 25 16  1  0
 26 30  1  0
 27 26  2  0
 28 22  2  0
 29 28  1  0
M  END
$$$$
