FSY.pdb
     RDKit          3D

 30 31  0  0  1  0  0  0  0  0999 V2000
   27.9242  -20.2220  -11.7980 N   0  0  0  0  0  0  0  0  0  0  0  0
   26.9721  -21.2923  -11.5679 C   0  0  1  0  0  0  0  0  0  0  0  0
   26.3146  -20.9931  -10.2461 C   0  0  0  0  0  0  0  0  0  0  0  0
   27.2355  -20.8101   -9.1241 C   0  0  0  0  0  0  0  0  0  0  0  0
   26.9814  -20.0342   -8.0234 C   0  0  0  0  0  0  0  0  0  0  0  0
   27.9001  -19.9177   -7.0057 C   0  0  0  0  0  0  0  0  0  0  0  0
   29.1101  -20.5774   -7.0560 C   0  0  0  0  0  0  0  0  0  0  0  0
   29.3786  -21.3594   -8.1542 C   0  0  0  0  0  0  0  0  0  0  0  0
   28.4518  -21.4678   -9.1653 C   0  0  0  0  0  0  0  0  0  0  0  0
   26.0065  -21.3852  -12.6877 C   0  0  0  0  0  0  0  0  0  0  0  0
   25.6255  -20.2881  -13.2131 O   0  0  0  0  0  0  0  0  0  0  0  0
   23.8682  -24.9027  -13.5333 O   0  0  0  0  0  0  0  0  0  0  0  0
   24.4435  -24.1725  -14.5901 C   0  0  0  0  0  0  0  0  0  0  0  0
   24.5113  -22.7328  -14.1539 C   0  0  2  0  0  0  0  0  0  0  0  0
   25.5416  -22.6324  -13.1381 N   0  0  0  0  0  0  0  0  0  0  0  0
   23.2152  -22.2053  -13.6867 C   0  0  0  0  0  0  0  0  0  0  0  0
   23.0983  -21.9412  -12.4620 O   0  0  0  0  0  0  0  0  0  0  0  0
   17.7784  -15.5919  -13.3420 O   0  0  0  0  0  0  0  0  0  0  0  0
   18.7497  -16.5791  -13.4877 C   0  0  0  0  0  0  0  0  0  0  0  0
   19.3672  -17.1774  -12.4238 C   0  0  0  0  0  0  0  0  0  0  0  0
   20.3149  -18.1424  -12.6424 C   0  0  0  0  0  0  0  0  0  0  0  0
   20.6882  -18.5525  -13.9147 C   0  0  0  0  0  0  0  0  0  0  0  0
   21.7053  -19.5874  -14.1825 C   0  0  0  0  0  0  0  0  0  0  0  0
   21.0869  -20.9331  -14.2400 C   0  0  2  0  0  0  0  0  0  0  0  0
   22.0950  -21.9739  -14.5092 N   0  0  0  0  0  0  0  0  0  0  0  0
   19.9765  -21.0146  -15.1742 C   0  0  0  0  0  0  0  0  0  0  0  0
   20.2263  -21.1787  -16.4204 O   0  0  0  0  0  0  0  0  0  0  0  0
   20.0316  -17.9146  -14.9732 C   0  0  0  0  0  0  0  0  0  0  0  0
   19.0797  -16.9456  -14.7688 C   0  0  0  0  0  0  0  0  0  0  0  0
   18.6549  -20.9272  -14.7908 O   0  0  0  0  0  0  0  0  0  0  0  0
  2  1  1  6
  2  3  1  0
  3  4  1  0
  4  9  1  0
  4  5  2  0
  5  6  1  0
  6  7  2  0
  8  7  1  0
  9  8  2  0
 10 11  2  0
 10  2  1  0
 13 12  1  0
 14 13  1  1
 14 15  1  0
 15 10  1  0
 16 17  2  0
 16 14  1  0
 18 19  1  0
 19 29  2  0
 19 20  1  0
 20 21  2  0
 21 22  1  0
 22 23  1  0
 24 23  1  6
 24 25  1  0
 24 26  1  0
 25 16  1  0
 26 30  1  0
 27 26  2  0
 28 22  2  0
 29 28  1  0
M  END
$$$$
