FSY.pdb
     RDKit          3D

 30 31  0  0  1  0  0  0  0  0999 V2000
   19.1985  -13.3601  -16.8351 N   0  0  0  0  0  0  0  0  0  0  0  0
   19.0429  -11.9178  -16.8206 C   0  0  1  0  0  0  0  0  0  0  0  0
   17.6785  -11.6479  -16.2422 C   0  0  0  0  0  0  0  0  0  0  0  0
   16.5572  -11.9747  -17.1232 C   0  0  0  0  0  0  0  0  0  0  0  0
   15.9476  -13.2003  -17.1899 C   0  0  0  0  0  0  0  0  0  0  0  0
   14.8925  -13.4263  -18.0438 C   0  0  0  0  0  0  0  0  0  0  0  0
   14.4098  -12.4280  -18.8636 C   0  0  0  0  0  0  0  0  0  0  0  0
   15.0117  -11.1933  -18.8073 C   0  0  0  0  0  0  0  0  0  0  0  0
   16.0659  -10.9799  -17.9493 C   0  0  0  0  0  0  0  0  0  0  0  0
   20.1357  -11.2799  -16.0498 C   0  0  0  0  0  0  0  0  0  0  0  0
   20.9157  -12.0555  -15.4056 O   0  0  0  0  0  0  0  0  0  0  0  0
   22.7611   -9.3202  -17.2144 O   0  0  0  0  0  0  0  0  0  0  0  0
   22.6692   -9.7801  -15.8873 C   0  0  0  0  0  0  0  0  0  0  0  0
   21.3795   -9.2501  -15.3189 C   0  0  2  0  0  0  0  0  0  0  0  0
   20.2918   -9.8835  -16.0394 N   0  0  0  0  0  0  0  0  0  0  0  0
   21.2893   -7.7781  -15.3559 C   0  0  0  0  0  0  0  0  0  0  0  0
   21.0504   -7.2343  -16.4652 O   0  0  0  0  0  0  0  0  0  0  0  0
   17.1865   -6.5995   -9.6128 O   0  0  0  0  0  0  0  0  0  0  0  0
   17.8353   -6.2770  -10.8020 C   0  0  0  0  0  0  0  0  0  0  0  0
   17.9112   -7.1358  -11.8641 C   0  0  0  0  0  0  0  0  0  0  0  0
   18.5664   -6.7509  -13.0041 C   0  0  0  0  0  0  0  0  0  0  0  0
   19.1697   -5.5083  -13.1392 C   0  0  0  0  0  0  0  0  0  0  0  0
   19.8832   -5.0654  -14.3526 C   0  0  0  0  0  0  0  0  0  0  0  0
   21.3092   -5.4663  -14.3024 C   0  0  2  0  0  0  0  0  0  0  0  0
   21.4508   -6.9320  -14.2409 N   0  0  0  0  0  0  0  0  0  0  0  0
   22.0508   -4.8157  -13.2351 C   0  0  0  0  0  0  0  0  0  0  0  0
   22.0974   -3.5354  -13.2045 O   0  0  0  0  0  0  0  0  0  0  0  0
   19.0679   -4.6621  -12.0293 C   0  0  0  0  0  0  0  0  0  0  0  0
   18.4141   -5.0347  -10.8801 C   0  0  0  0  0  0  0  0  0  0  0  0
   22.7120   -5.5057  -12.2413 O   0  0  0  0  0  0  0  0  0  0  0  0
  2  1  1  1
  2  3  1  0
  3  4  1  0
  4  9  1  0
  4  5  2  0
  5  6  1  0
  6  7  2  0
  8  7  1  0
  9  8  2  0
 10 11  2  0
 10  2  1  0
 13 12  1  0
 14 13  1  6
 14 15  1  0
 15 10  1  0
 16 17  2  0
 16 14  1  0
 18 19  1  0
 19 29  2  0
 19 20  1  0
 20 21  2  0
 21 22  1  0
 22 23  1  0
 24 23  1  1
 24 25  1  0
 24 26  1  0
 25 16  1  0
 26 30  1  0
 27 26  2  0
 28 22  2  0
 29 28  1  0
M  END
$$$$
