FSY.pdb
     RDKit          3D

 30 31  0  0  1  0  0  0  0  0999 V2000
   20.9815  -12.8736  -18.8362 N   0  0  0  0  0  0  0  0  0  0  0  0
   20.9628  -11.8510  -19.8652 C   0  0  1  0  0  0  0  0  0  0  0  0
   19.5775  -11.8745  -20.4563 C   0  0  0  0  0  0  0  0  0  0  0  0
   19.3036  -13.0027  -21.3465 C   0  0  0  0  0  0  0  0  0  0  0  0
   18.5310  -14.0863  -21.0192 C   0  0  0  0  0  0  0  0  0  0  0  0
   18.3170  -15.1066  -21.9173 C   0  0  0  0  0  0  0  0  0  0  0  0
   18.8720  -15.0763  -23.1793 C   0  0  0  0  0  0  0  0  0  0  0  0
   19.6494  -13.9954  -23.5214 C   0  0  0  0  0  0  0  0  0  0  0  0
   19.8559  -12.9814  -22.6145 C   0  0  0  0  0  0  0  0  0  0  0  0
   21.3294  -10.5313  -19.3000 C   0  0  0  0  0  0  0  0  0  0  0  0
   20.9632  -10.2953  -18.1021 O   0  0  0  0  0  0  0  0  0  0  0  0
   23.6714   -6.3772  -19.9325 O   0  0  0  0  0  0  0  0  0  0  0  0
   23.3512   -7.6392  -20.4672 C   0  0  0  0  0  0  0  0  0  0  0  0
   22.3297   -8.2651  -19.5549 C   0  0  2  0  0  0  0  0  0  0  0  0
   22.0478   -9.5944  -20.0619 N   0  0  0  0  0  0  0  0  0  0  0  0
   21.1063   -7.4538  -19.4085 C   0  0  0  0  0  0  0  0  0  0  0  0
   20.1345   -7.7195  -20.1624 O   0  0  0  0  0  0  0  0  0  0  0  0
   13.8964   -3.1019  -17.9406 O   0  0  0  0  0  0  0  0  0  0  0  0
   15.0310   -3.9003  -18.0607 C   0  0  0  0  0  0  0  0  0  0  0  0
   15.5666   -4.2542  -19.2686 C   0  0  0  0  0  0  0  0  0  0  0  0
   16.6858   -5.0433  -19.3110 C   0  0  0  0  0  0  0  0  0  0  0  0
   17.3169   -5.5118  -18.1672 C   0  0  0  0  0  0  0  0  0  0  0  0
   18.5218   -6.3636  -18.1801 C   0  0  0  0  0  0  0  0  0  0  0  0
   19.7387   -5.5531  -18.4231 C   0  0  2  0  0  0  0  0  0  0  0  0
   20.9423   -6.4012  -18.4865 N   0  0  0  0  0  0  0  0  0  0  0  0
   19.9038   -4.4668  -17.4717 C   0  0  0  0  0  0  0  0  0  0  0  0
   20.8640   -4.5256  -16.6250 O   0  0  0  0  0  0  0  0  0  0  0  0
   16.7358   -5.1260  -16.9540 C   0  0  0  0  0  0  0  0  0  0  0  0
   15.6140   -4.3353  -16.8965 C   0  0  0  0  0  0  0  0  0  0  0  0
   19.0783   -3.3632  -17.4300 O   0  0  0  0  0  0  0  0  0  0  0  0
  2  1  1  1
  2  3  1  0
  3  4  1  0
  4  9  1  0
  4  5  2  0
  5  6  1  0
  6  7  2  0
  8  7  1  0
  9  8  2  0
 10 11  2  0
 10  2  1  0
 13 12  1  0
 14 13  1  6
 14 15  1  0
 15 10  1  0
 16 17  2  0
 16 14  1  0
 18 19  1  0
 19 29  2  0
 19 20  1  0
 20 21  2  0
 21 22  1  0
 22 23  1  0
 24 23  1  1
 24 25  1  0
 24 26  1  0
 25 16  1  0
 26 30  1  0
 27 26  2  0
 28 22  2  0
 29 28  1  0
M  END
$$$$
