FSY.pdb
     RDKit          3D

 30 31  0  0  1  0  0  0  0  0999 V2000
   16.3738  -14.5489    5.9181 N   0  0  0  0  0  0  0  0  0  0  0  0
   17.0980  -15.5042    5.1010 C   0  0  1  0  0  0  0  0  0  0  0  0
   18.5596  -15.2815    5.3894 C   0  0  0  0  0  0  0  0  0  0  0  0
   19.1183  -14.0475    4.8368 C   0  0  0  0  0  0  0  0  0  0  0  0
   18.7096  -13.4596    3.6681 C   0  0  0  0  0  0  0  0  0  0  0  0
   19.2839  -12.2931    3.2180 C   0  0  0  0  0  0  0  0  0  0  0  0
   20.2916  -11.6727    3.9262 C   0  0  0  0  0  0  0  0  0  0  0  0
   20.7116  -12.2511    5.1004 C   0  0  0  0  0  0  0  0  0  0  0  0
   20.1294  -13.4177    5.5399 C   0  0  0  0  0  0  0  0  0  0  0  0
   16.6538  -16.8873    5.3928 C   0  0  0  0  0  0  0  0  0  0  0  0
   16.5312  -17.2064    6.6208 O   0  0  0  0  0  0  0  0  0  0  0  0
   16.4082  -19.7192    2.3797 O   0  0  0  0  0  0  0  0  0  0  0  0
   15.4070  -19.7328    3.3689 C   0  0  0  0  0  0  0  0  0  0  0  0
   16.0132  -19.1684    4.6264 C   0  0  2  0  0  0  0  0  0  0  0  0
   16.3842  -17.7932    4.3531 N   0  0  0  0  0  0  0  0  0  0  0  0
   17.1498  -19.9621    5.1309 C   0  0  0  0  0  0  0  0  0  0  0  0
   18.2563  -19.8373    4.5450 O   0  0  0  0  0  0  0  0  0  0  0  0
   21.5357  -16.5768    8.5274 O   0  0  0  0  0  0  0  0  0  0  0  0
   20.7564  -17.7260    8.4224 C   0  0  0  0  0  0  0  0  0  0  0  0
   19.3890  -17.7024    8.4529 C   0  0  0  0  0  0  0  0  0  0  0  0
   18.6863  -18.8735    8.3441 C   0  0  0  0  0  0  0  0  0  0  0  0
   19.3037  -20.1082    8.2016 C   0  0  0  0  0  0  0  0  0  0  0  0
   18.5752  -21.3860    8.0833 C   0  0  0  0  0  0  0  0  0  0  0  0
   18.2324  -21.6694    6.6695 C   0  0  2  0  0  0  0  0  0  0  0  0
   17.0909  -20.8519    6.2217 N   0  0  0  0  0  0  0  0  0  0  0  0
   18.0110  -23.0813    6.4049 C   0  0  0  0  0  0  0  0  0  0  0  0
   18.9162  -23.9239    6.7408 O   0  0  0  0  0  0  0  0  0  0  0  0
   20.7027  -20.0860    8.1753 C   0  0  0  0  0  0  0  0  0  0  0  0
   21.4201  -18.9196    8.2833 C   0  0  0  0  0  0  0  0  0  0  0  0
   16.8681  -23.5709    5.8088 O   0  0  0  0  0  0  0  0  0  0  0  0
  2  1  1  1
  2  3  1  0
  3  4  1  0
  4  9  1  0
  4  5  2  0
  5  6  1  0
  6  7  2  0
  8  7  1  0
  9  8  2  0
 10 11  2  0
 10  2  1  0
 13 12  1  0
 14 13  1  6
 14 15  1  0
 15 10  1  0
 16 17  2  0
 16 14  1  0
 18 19  1  0
 19 29  2  0
 19 20  1  0
 20 21  2  0
 21 22  1  0
 22 23  1  0
 24 23  1  1
 24 25  1  0
 24 26  1  0
 25 16  1  0
 26 30  1  0
 27 26  2  0
 28 22  2  0
 29 28  1  0
M  END
$$$$
