FSY.pdb
     RDKit          3D

 30 31  0  0  1  0  0  0  0  0999 V2000
   26.5288  -18.9143  -17.1603 N   0  0  0  0  0  0  0  0  0  0  0  0
   26.8167  -18.6767  -15.7584 C   0  0  1  0  0  0  0  0  0  0  0  0
   25.6723  -17.8535  -15.2277 C   0  0  0  0  0  0  0  0  0  0  0  0
   25.6934  -16.4427  -15.6145 C   0  0  0  0  0  0  0  0  0  0  0  0
   24.7836  -15.8479  -16.4493 C   0  0  0  0  0  0  0  0  0  0  0  0
   24.8699  -14.5105  -16.7609 C   0  0  0  0  0  0  0  0  0  0  0  0
   25.8748  -13.7196  -16.2448 C   0  0  0  0  0  0  0  0  0  0  0  0
   26.7945  -14.3028  -15.4059 C   0  0  0  0  0  0  0  0  0  0  0  0
   26.6975  -15.6411  -15.1019 C   0  0  0  0  0  0  0  0  0  0  0  0
   26.9938  -19.9574  -15.0348 C   0  0  0  0  0  0  0  0  0  0  0  0
   26.4132  -20.9813  -15.5242 O   0  0  0  0  0  0  0  0  0  0  0  0
   28.9275  -20.0973  -11.3524 O   0  0  0  0  0  0  0  0  0  0  0  0
   29.1394  -21.1454  -12.2677 C   0  0  0  0  0  0  0  0  0  0  0  0
   27.8986  -21.2579  -13.1135 C   0  0  2  0  0  0  0  0  0  0  0  0
   27.7688  -20.0240  -13.8646 N   0  0  0  0  0  0  0  0  0  0  0  0
   26.6866  -21.5629  -12.3298 C   0  0  0  0  0  0  0  0  0  0  0  0
   26.6511  -22.6570  -11.7092 O   0  0  0  0  0  0  0  0  0  0  0  0
   19.3542  -21.5296   -7.5768 O   0  0  0  0  0  0  0  0  0  0  0  0
   20.4927  -21.1671   -8.2921 C   0  0  0  0  0  0  0  0  0  0  0  0
   20.4502  -20.3712   -9.4039 C   0  0  0  0  0  0  0  0  0  0  0  0
   21.6115  -20.0549  -10.0583 C   0  0  0  0  0  0  0  0  0  0  0  0
   22.8548  -20.5103   -9.6424 C   0  0  0  0  0  0  0  0  0  0  0  0
   24.1222  -20.1884  -10.3260 C   0  0  0  0  0  0  0  0  0  0  0  0
   24.3382  -21.0842  -11.4868 C   0  0  2  0  0  0  0  0  0  0  0  0
   25.5623  -20.7205  -12.2226 N   0  0  0  0  0  0  0  0  0  0  0  0
   23.1889  -21.1619  -12.3732 C   0  0  0  0  0  0  0  0  0  0  0  0
   23.0501  -20.2738  -13.2867 O   0  0  0  0  0  0  0  0  0  0  0  0
   22.8520  -21.3209   -8.5016 C   0  0  0  0  0  0  0  0  0  0  0  0
   21.6954  -21.6461   -7.8356 C   0  0  0  0  0  0  0  0  0  0  0  0
   22.2305  -22.1494  -12.2874 O   0  0  0  0  0  0  0  0  0  0  0  0
  2  1  1  6
  2  3  1  0
  3  4  1  0
  4  9  1  0
  4  5  2  0
  5  6  1  0
  6  7  2  0
  8  7  1  0
  9  8  2  0
 10 11  2  0
 10  2  1  0
 13 12  1  0
 14 13  1  1
 14 15  1  0
 15 10  1  0
 16 17  2  0
 16 14  1  0
 18 19  1  0
 19 29  2  0
 19 20  1  0
 20 21  2  0
 21 22  1  0
 22 23  1  0
 24 23  1  1
 24 25  1  0
 24 26  1  0
 25 16  1  0
 26 30  1  0
 27 26  2  0
 28 22  2  0
 29 28  1  0
M  END
$$$$
