FSY.pdb
     RDKit          3D

 30 31  0  0  1  0  0  0  0  0999 V2000
   23.2547  -31.7246  -18.0632 N   0  0  0  0  0  0  0  0  0  0  0  0
   22.5443  -32.4238  -17.0090 C   0  0  1  0  0  0  0  0  0  0  0  0
   22.6571  -33.8917  -17.3278 C   0  0  0  0  0  0  0  0  0  0  0  0
   21.8151  -34.3515  -18.4323 C   0  0  0  0  0  0  0  0  0  0  0  0
   20.4449  -34.3202  -18.4356 C   0  0  0  0  0  0  0  0  0  0  0  0
   19.7242  -34.7680  -19.5189 C   0  0  0  0  0  0  0  0  0  0  0  0
   20.3539  -35.2646  -20.6407 C   0  0  0  0  0  0  0  0  0  0  0  0
   21.7281  -35.3019  -20.6514 C   0  0  0  0  0  0  0  0  0  0  0  0
   22.4375  -34.8513  -19.5621 C   0  0  0  0  0  0  0  0  0  0  0  0
   23.1003  -32.0748  -15.6808 C   0  0  0  0  0  0  0  0  0  0  0  0
   24.3661  -31.9469  -15.6012 O   0  0  0  0  0  0  0  0  0  0  0  0
   20.7142  -32.1529  -12.3482 O   0  0  0  0  0  0  0  0  0  0  0  0
   21.6406  -31.0951  -12.4109 C   0  0  0  0  0  0  0  0  0  0  0  0
   22.7913  -31.5587  -13.2643 C   0  0  2  0  0  0  0  0  0  0  0  0
   22.2583  -31.8962  -14.5702 N   0  0  0  0  0  0  0  0  0  0  0  0
   23.5463  -32.6756  -12.6653 C   0  0  0  0  0  0  0  0  0  0  0  0
   23.2510  -33.8433  -13.0296 O   0  0  0  0  0  0  0  0  0  0  0  0
   25.0010  -33.0162   -4.7950 O   0  0  0  0  0  0  0  0  0  0  0  0
   25.3246  -33.0105   -6.1494 C   0  0  0  0  0  0  0  0  0  0  0  0
   24.9938  -31.9822   -6.9886 C   0  0  0  0  0  0  0  0  0  0  0  0
   25.3449  -32.0444   -8.3115 C   0  0  0  0  0  0  0  0  0  0  0  0
   26.0334  -33.1199   -8.8549 C   0  0  0  0  0  0  0  0  0  0  0  0
   26.4244  -33.2168  -10.2745 C   0  0  0  0  0  0  0  0  0  0  0  0
   25.2856  -33.6740  -11.1057 C   0  0  2  0  0  0  0  0  0  0  0  0
   24.5758  -32.5346  -11.7138 N   0  0  0  0  0  0  0  0  0  0  0  0
   24.3710  -34.5506  -10.3932 C   0  0  0  0  0  0  0  0  0  0  0  0
   24.7115  -35.7696  -10.1924 O   0  0  0  0  0  0  0  0  0  0  0  0
   26.3515  -34.1489   -7.9614 C   0  0  0  0  0  0  0  0  0  0  0  0
   26.0058  -34.0999   -6.6329 C   0  0  0  0  0  0  0  0  0  0  0  0
   23.1455  -34.1394   -9.9136 O   0  0  0  0  0  0  0  0  0  0  0  0
  2  1  1  6
  2  3  1  0
  3  4  1  0
  4  9  1  0
  4  5  2  0
  5  6  1  0
  6  7  2  0
  8  7  1  0
  9  8  2  0
 10 11  2  0
 10  2  1  0
 13 12  1  0
 14 13  1  1
 14 15  1  0
 15 10  1  0
 16 17  2  0
 16 14  1  0
 18 19  1  0
 19 29  2  0
 19 20  1  0
 20 21  2  0
 21 22  1  0
 22 23  1  0
 24 23  1  1
 24 25  1  0
 24 26  1  0
 25 16  1  0
 26 30  1  0
 27 26  2  0
 28 22  2  0
 29 28  1  0
M  END
$$$$
