FSY.pdb
     RDKit          3D

 30 31  0  0  1  0  0  0  0  0999 V2000
   27.9642  -14.1638  -20.9098 N   0  0  0  0  0  0  0  0  0  0  0  0
   26.9504  -13.7063  -21.8412 C   0  0  1  0  0  0  0  0  0  0  0  0
   26.3454  -14.9459  -22.4466 C   0  0  0  0  0  0  0  0  0  0  0  0
   27.1028  -15.5257  -23.5559 C   0  0  0  0  0  0  0  0  0  0  0  0
   27.0501  -15.0848  -24.8525 C   0  0  0  0  0  0  0  0  0  0  0  0
   27.7996  -15.6825  -25.8397 C   0  0  0  0  0  0  0  0  0  0  0  0
   28.6309  -16.7467  -25.5607 C   0  0  0  0  0  0  0  0  0  0  0  0
   28.6938  -17.1996  -24.2643 C   0  0  0  0  0  0  0  0  0  0  0  0
   27.9396  -16.5936  -23.2860 C   0  0  0  0  0  0  0  0  0  0  0  0
   25.9542  -12.8514  -21.1542 C   0  0  0  0  0  0  0  0  0  0  0  0
   26.0102  -12.8098  -19.8814 O   0  0  0  0  0  0  0  0  0  0  0  0
   22.8963   -9.2261  -21.4732 O   0  0  0  0  0  0  0  0  0  0  0  0
   23.7608  -10.1056  -22.1517 C   0  0  0  0  0  0  0  0  0  0  0  0
   24.0398  -11.2604  -21.2265 C   0  0  2  0  0  0  0  0  0  0  0  0
   24.9986  -12.1263  -21.8858 N   0  0  0  0  0  0  0  0  0  0  0  0
   22.8219  -11.9864  -20.8191 C   0  0  0  0  0  0  0  0  0  0  0  0
   22.6819  -13.1688  -21.2262 O   0  0  0  0  0  0  0  0  0  0  0  0
   21.2885  -17.7519  -22.5719 O   0  0  0  0  0  0  0  0  0  0  0  0
   21.3114  -16.7047  -21.6543 C   0  0  0  0  0  0  0  0  0  0  0  0
   22.4716  -16.1674  -21.1680 C   0  0  0  0  0  0  0  0  0  0  0  0
   22.4182  -15.1372  -20.2663 C   0  0  0  0  0  0  0  0  0  0  0  0
   21.2222  -14.5998  -19.8116 C   0  0  0  0  0  0  0  0  0  0  0  0
   21.1319  -13.4921  -18.8408 C   0  0  0  0  0  0  0  0  0  0  0  0
   20.6665  -12.2490  -19.5001 C   0  0  2  0  0  0  0  0  0  0  0  0
   21.8005  -11.4556  -20.0067 N   0  0  0  0  0  0  0  0  0  0  0  0
   19.7905  -11.4481  -18.6612 C   0  0  0  0  0  0  0  0  0  0  0  0
   18.7322  -11.9866  -18.1791 O   0  0  0  0  0  0  0  0  0  0  0  0
   20.0606  -15.1790  -20.3346 C   0  0  0  0  0  0  0  0  0  0  0  0
   20.0991  -16.2121  -21.2391 C   0  0  0  0  0  0  0  0  0  0  0  0
   20.0380  -10.1281  -18.3491 O   0  0  0  0  0  0  0  0  0  0  0  0
  2  1  1  1
  2  3  1  0
  3  4  1  0
  4  9  1  0
  4  5  2  0
  5  6  1  0
  6  7  2  0
  8  7  1  0
  9  8  2  0
 10 11  2  0
 10  2  1  0
 13 12  1  0
 14 13  1  6
 14 15  1  0
 15 10  1  0
 16 17  2  0
 16 14  1  0
 18 19  1  0
 19 29  2  0
 19 20  1  0
 20 21  2  0
 21 22  1  0
 22 23  1  0
 24 23  1  1
 24 25  1  0
 24 26  1  0
 25 16  1  0
 26 30  1  0
 27 26  2  0
 28 22  2  0
 29 28  1  0
M  END
$$$$
