FSY.pdb
     RDKit          3D

 30 31  0  0  1  0  0  0  0  0999 V2000
   28.9470  -21.3266   -9.4708 N   0  0  0  0  0  0  0  0  0  0  0  0
   27.5490  -20.9488   -9.3833 C   0  0  1  0  0  0  0  0  0  0  0  0
   27.5132  -19.6380   -8.6418 C   0  0  0  0  0  0  0  0  0  0  0  0
   27.8488  -19.7218   -7.2203 C   0  0  0  0  0  0  0  0  0  0  0  0
   29.0465  -19.3372   -6.6764 C   0  0  0  0  0  0  0  0  0  0  0  0
   29.2828  -19.4435   -5.3250 C   0  0  0  0  0  0  0  0  0  0  0  0
   28.3232  -19.9408   -4.4685 C   0  0  0  0  0  0  0  0  0  0  0  0
   27.1169  -20.3306   -5.0002 C   0  0  0  0  0  0  0  0  0  0  0  0
   26.8928  -20.2194   -6.3531 C   0  0  0  0  0  0  0  0  0  0  0  0
   26.9418  -20.8683  -10.7323 C   0  0  0  0  0  0  0  0  0  0  0  0
   27.5355  -20.1342  -11.5889 O   0  0  0  0  0  0  0  0  0  0  0  0
   24.6073  -23.6520  -12.2214 O   0  0  0  0  0  0  0  0  0  0  0  0
   25.0871  -22.6320  -13.0643 C   0  0  0  0  0  0  0  0  0  0  0  0
   25.0495  -21.3481  -12.2784 C   0  0  2  0  0  0  0  0  0  0  0  0
   25.7660  -21.5743  -11.0379 N   0  0  0  0  0  0  0  0  0  0  0  0
   23.6811  -20.8474  -12.0479 C   0  0  0  0  0  0  0  0  0  0  0  0
   23.4836  -20.1313  -11.0322 O   0  0  0  0  0  0  0  0  0  0  0  0
   23.6012  -17.0817  -17.5483 O   0  0  0  0  0  0  0  0  0  0  0  0
   22.9995  -17.5539  -16.3846 C   0  0  0  0  0  0  0  0  0  0  0  0
   21.6640  -17.8376  -16.3004 C   0  0  0  0  0  0  0  0  0  0  0  0
   21.1400  -18.2994  -15.1218 C   0  0  0  0  0  0  0  0  0  0  0  0
   21.9110  -18.4981  -13.9850 C   0  0  0  0  0  0  0  0  0  0  0  0
   21.3763  -18.9926  -12.7017 C   0  0  0  0  0  0  0  0  0  0  0  0
   21.2585  -20.4700  -12.7131 C   0  0  2  0  0  0  0  0  0  0  0  0
   22.5753  -21.1104  -12.8803 N   0  0  0  0  0  0  0  0  0  0  0  0
   20.3009  -20.9615  -13.6899 C   0  0  0  0  0  0  0  0  0  0  0  0
   19.0656  -20.6462  -13.5592 O   0  0  0  0  0  0  0  0  0  0  0  0
   23.2711  -18.1955  -14.1156 C   0  0  0  0  0  0  0  0  0  0  0  0
   23.8100  -17.7319  -15.2910 C   0  0  0  0  0  0  0  0  0  0  0  0
   20.6507  -21.7544  -14.7623 O   0  0  0  0  0  0  0  0  0  0  0  0
  2  1  1  6
  2  3  1  0
  3  4  1  0
  4  9  1  0
  4  5  2  0
  5  6  1  0
  6  7  2  0
  8  7  1  0
  9  8  2  0
 10 11  2  0
 10  2  1  0
 13 12  1  0
 14 13  1  1
 14 15  1  0
 15 10  1  0
 16 17  2  0
 16 14  1  0
 18 19  1  0
 19 29  2  0
 19 20  1  0
 20 21  2  0
 21 22  1  0
 22 23  1  0
 24 23  1  6
 24 25  1  0
 24 26  1  0
 25 16  1  0
 26 30  1  0
 27 26  2  0
 28 22  2  0
 29 28  1  0
M  END
$$$$
