FSY.pdb
     RDKit          3D

 30 31  0  0  1  0  0  0  0  0999 V2000
   27.1976  -21.0384  -16.4910 N   0  0  0  0  0  0  0  0  0  0  0  0
   27.1683  -20.4133  -15.1821 C   0  0  1  0  0  0  0  0  0  0  0  0
   26.9450  -18.9432  -15.4231 C   0  0  0  0  0  0  0  0  0  0  0  0
   27.9932  -18.2767  -16.1960 C   0  0  0  0  0  0  0  0  0  0  0  0
   29.3015  -18.1645  -15.8036 C   0  0  0  0  0  0  0  0  0  0  0  0
   30.2301  -17.5249  -16.5923 C   0  0  0  0  0  0  0  0  0  0  0  0
   29.8784  -16.9734  -17.8063 C   0  0  0  0  0  0  0  0  0  0  0  0
   28.5694  -17.0785  -18.2128 C   0  0  0  0  0  0  0  0  0  0  0  0
   27.6503  -17.7204  -17.4152 C   0  0  0  0  0  0  0  0  0  0  0  0
   26.1219  -21.0266  -14.3312 C   0  0  0  0  0  0  0  0  0  0  0  0
   25.0957  -21.4937  -14.9259 O   0  0  0  0  0  0  0  0  0  0  0  0
   26.0609  -20.4567  -10.1975 O   0  0  0  0  0  0  0  0  0  0  0  0
   25.7647  -21.7383  -10.6983 C   0  0  0  0  0  0  0  0  0  0  0  0
   25.1966  -21.5577  -12.0811 C   0  0  2  0  0  0  0  0  0  0  0  0
   26.2686  -21.0830  -12.9349 N   0  0  0  0  0  0  0  0  0  0  0  0
   24.0215  -20.6664  -12.1149 C   0  0  0  0  0  0  0  0  0  0  0  0
   24.2187  -19.4473  -12.3562 O   0  0  0  0  0  0  0  0  0  0  0  0
   17.1115  -16.0025  -13.8374 O   0  0  0  0  0  0  0  0  0  0  0  0
   18.1688  -16.9046  -13.7516 C   0  0  0  0  0  0  0  0  0  0  0  0
   18.1155  -18.1651  -14.2803 C   0  0  0  0  0  0  0  0  0  0  0  0
   19.1950  -18.9998  -14.1580 C   0  0  0  0  0  0  0  0  0  0  0  0
   20.3642  -18.6241  -13.5115 C   0  0  0  0  0  0  0  0  0  0  0  0
   21.5424  -19.4999  -13.3624 C   0  0  0  0  0  0  0  0  0  0  0  0
   21.5279  -20.1852  -12.0483 C   0  0  2  0  0  0  0  0  0  0  0  0
   22.6914  -21.0770  -11.8973 N   0  0  0  0  0  0  0  0  0  0  0  0
   20.2830  -20.8862  -11.7807 C   0  0  0  0  0  0  0  0  0  0  0  0
   20.1338  -22.0770  -12.2302 O   0  0  0  0  0  0  0  0  0  0  0  0
   20.3754  -17.3271  -12.9860 C   0  0  0  0  0  0  0  0  0  0  0  0
   19.3005  -16.4795  -13.1012 C   0  0  0  0  0  0  0  0  0  0  0  0
   19.2434  -20.3373  -11.0603 O   0  0  0  0  0  0  0  0  0  0  0  0
  2  1  1  6
  2  3  1  0
  3  4  1  0
  4  9  1  0
  4  5  2  0
  5  6  1  0
  6  7  2  0
  8  7  1  0
  9  8  2  0
 10 11  2  0
 10  2  1  0
 13 12  1  0
 14 13  1  1
 14 15  1  0
 15 10  1  0
 16 17  2  0
 16 14  1  0
 18 19  1  0
 19 29  2  0
 19 20  1  0
 20 21  2  0
 21 22  1  0
 22 23  1  0
 24 23  1  6
 24 25  1  0
 24 26  1  0
 25 16  1  0
 26 30  1  0
 27 26  2  0
 28 22  2  0
 29 28  1  0
M  END
$$$$
