SFI.pdb
     RDKit          3D

 26 26  0  0  1  0  0  0  0  0999 V2000
   11.3570  -19.5442   19.8661 O   0  0  0  0  0  0  0  0  0  0  0  0
   11.3120  -18.5812   20.8682 C   0  0  0  0  0  0  0  0  0  0  0  0
   10.6795  -17.2874   20.3743 C   0  0  2  0  0  0  0  0  0  0  0  0
   11.6764  -16.6251   19.5557 N   0  0  0  0  0  0  0  0  0  0  0  0
   10.3987  -16.4775   21.6144 C   0  0  0  0  0  0  0  0  0  0  0  0
   11.3166  -15.8074   22.1514 O   0  0  0  0  0  0  0  0  0  0  0  0
    9.1217  -16.4338   22.2179 N   0  0  0  0  0  0  0  0  0  0  0  0
    8.8030  -15.6346   23.3724 C   0  0  1  0  0  0  0  0  0  0  0  0
    7.3518  -15.2073   23.4147 C   0  0  0  0  0  0  0  0  0  0  0  0
    7.0249  -14.2866   24.4894 C   0  0  0  0  0  0  0  0  0  0  0  0
    7.4369  -12.9761   24.4331 C   0  0  0  0  0  0  0  0  0  0  0  0
    7.1304  -12.0757   25.4624 C   0  0  0  0  0  0  0  0  0  0  0  0
    6.4057  -12.5056   26.5486 C   0  0  0  0  0  0  0  0  0  0  0  0
    5.9862  -13.8252   26.6138 C   0  0  0  0  0  0  0  0  0  0  0  0
    6.3010  -14.7130   25.5763 C   0  0  0  0  0  0  0  0  0  0  0  0
    9.1672  -16.3271   24.6447 C   0  0  0  0  0  0  0  0  0  0  0  0
    8.9383  -17.5542   24.7941 O   0  0  0  0  0  0  0  0  0  0  0  0
   10.4420  -13.6666   29.5820 C   0  0  0  0  0  0  0  0  0  0  0  0
    9.8198  -14.5755   28.5482 C   0  0  0  0  0  0  0  0  0  0  0  0
   10.9360  -15.3178   27.8456 C   0  0  2  0  0  0  0  0  0  0  0  0
   11.8164  -14.3015   27.1669 C   0  0  0  0  0  0  0  0  0  0  0  0
   10.3868  -16.3290   26.8594 C   0  0  2  0  0  0  0  0  0  0  0  0
    9.7799  -15.6407   25.7287 N   0  0  0  0  0  0  0  0  0  0  0  0
    9.3688  -17.1965   27.5013 C   0  0  0  0  0  0  0  0  0  0  0  0
    8.0357  -17.1184   27.1216 O   0  0  0  0  0  0  0  0  0  0  0  0
    9.6681  -18.0237   28.4003 O   0  0  0  0  0  0  0  0  0  0  0  0
  2  1  1  0
  3  2  1  0
  3  4  1  6
  5  3  1  0
  5  7  1  0
  6  5  2  0
  8  7  1  0
  8  9  1  1
  9 10  1  0
 10 11  2  0
 11 12  1  0
 13 12  2  0
 14 13  1  0
 15 10  1  0
 15 14  2  0
 16  8  1  0
 17 16  2  0
 19 18  1  0
 19 20  1  0
 20 22  1  0
 20 21  1  6
 22 23  1  6
 22 24  1  0
 23 16  1  0
 24 25  1  0
 26 24  2  0
M  END
$$$$
