SFI.pdb
     RDKit          3D

 26 26  0  0  1  0  0  0  0  0999 V2000
   10.8291  -19.1197   21.6288 O   0  0  0  0  0  0  0  0  0  0  0  0
   11.6986  -18.3124   20.9038 C   0  0  0  0  0  0  0  0  0  0  0  0
   11.0059  -17.0546   20.3982 C   0  0  2  0  0  0  0  0  0  0  0  0
   11.9906  -16.3206   19.6274 N   0  0  0  0  0  0  0  0  0  0  0  0
   10.6255  -16.2800   21.6342 C   0  0  0  0  0  0  0  0  0  0  0  0
   11.4925  -15.6107   22.2509 O   0  0  0  0  0  0  0  0  0  0  0  0
    9.3085  -16.2691   22.1464 N   0  0  0  0  0  0  0  0  0  0  0  0
    8.9003  -15.5163   23.3039 C   0  0  1  0  0  0  0  0  0  0  0  0
    7.4291  -15.1614   23.2910 C   0  0  0  0  0  0  0  0  0  0  0  0
    7.0112  -14.2814   24.3682 C   0  0  0  0  0  0  0  0  0  0  0  0
    7.3704  -12.9543   24.3624 C   0  0  0  0  0  0  0  0  0  0  0  0
    6.9758  -12.0927   25.3950 C   0  0  0  0  0  0  0  0  0  0  0  0
    6.2168  -12.5782   26.4332 C   0  0  0  0  0  0  0  0  0  0  0  0
    5.8500  -13.9150   26.4473 C   0  0  0  0  0  0  0  0  0  0  0  0
    6.2527  -14.7634   25.4072 C   0  0  0  0  0  0  0  0  0  0  0  0
    9.2424  -16.2229   24.5746 C   0  0  0  0  0  0  0  0  0  0  0  0
    9.2390  -17.4788   24.6300 O   0  0  0  0  0  0  0  0  0  0  0  0
   10.7506  -12.9167   28.7981 C   0  0  0  0  0  0  0  0  0  0  0  0
   10.9279  -13.9381   27.6993 C   0  0  0  0  0  0  0  0  0  0  0  0
   10.1769  -15.1899   28.0986 C   0  0  2  0  0  0  0  0  0  0  0  0
   10.8659  -15.7834   29.2992 C   0  0  0  0  0  0  0  0  0  0  0  0
   10.1054  -16.1766   26.9507 C   0  0  2  0  0  0  0  0  0  0  0  0
    9.5822  -15.5181   25.7618 N   0  0  0  0  0  0  0  0  0  0  0  0
    9.2307  -17.3250   27.2925 C   0  0  0  0  0  0  0  0  0  0  0  0
    9.7770  -18.5121   27.7614 O   0  0  0  0  0  0  0  0  0  0  0  0
    7.9797  -17.2698   27.1731 O   0  0  0  0  0  0  0  0  0  0  0  0
  2  1  1  0
  3  2  1  0
  3  4  1  6
  5  3  1  0
  5  7  1  0
  6  5  2  0
  8  7  1  0
  8  9  1  6
  9 10  1  0
 10 11  2  0
 11 12  1  0
 13 12  2  0
 14 13  1  0
 15 10  1  0
 15 14  2  0
 16  8  1  0
 17 16  2  0
 19 18  1  0
 19 20  1  0
 20 22  1  0
 20 21  1  1
 22 23  1  6
 22 24  1  0
 23 16  1  0
 24 25  1  0
 26 24  2  0
M  END
$$$$
