SFI.pdb
     RDKit          3D

 26 26  0  0  1  0  0  0  0  0999 V2000
   11.4912  -18.7658   21.5879 O   0  0  0  0  0  0  0  0  0  0  0  0
   10.6387  -18.2965   20.5945 C   0  0  0  0  0  0  0  0  0  0  0  0
   10.8408  -16.8094   20.3388 C   0  0  2  0  0  0  0  0  0  0  0  0
   12.2439  -16.6308   20.0196 N   0  0  0  0  0  0  0  0  0  0  0  0
   10.5098  -16.1281   21.6421 C   0  0  0  0  0  0  0  0  0  0  0  0
   11.4284  -15.6531   22.3567 O   0  0  0  0  0  0  0  0  0  0  0  0
    9.1838  -15.9939   22.1119 N   0  0  0  0  0  0  0  0  0  0  0  0
    8.8242  -15.3052   23.3241 C   0  0  1  0  0  0  0  0  0  0  0  0
    7.3733  -14.8758   23.3531 C   0  0  0  0  0  0  0  0  0  0  0  0
    7.0078  -14.0617   24.4991 C   0  0  0  0  0  0  0  0  0  0  0  0
    6.1867  -14.5675   25.4791 C   0  0  0  0  0  0  0  0  0  0  0  0
    5.8243  -13.7942   26.5905 C   0  0  0  0  0  0  0  0  0  0  0  0
    6.2952  -12.5080   26.7069 C   0  0  0  0  0  0  0  0  0  0  0  0
    7.1236  -11.9899   25.7235 C   0  0  0  0  0  0  0  0  0  0  0  0
    7.4767  -12.7760   24.6185 C   0  0  0  0  0  0  0  0  0  0  0  0
    9.1394  -16.1165   24.5379 C   0  0  0  0  0  0  0  0  0  0  0  0
    9.0914  -17.3721   24.4992 O   0  0  0  0  0  0  0  0  0  0  0  0
   10.9159  -13.1908   28.9492 C   0  0  0  0  0  0  0  0  0  0  0  0
   10.9424  -14.1033   27.7455 C   0  0  0  0  0  0  0  0  0  0  0  0
   10.1952  -15.3701   28.1024 C   0  0  2  0  0  0  0  0  0  0  0  0
   10.9439  -16.0547   29.2155 C   0  0  0  0  0  0  0  0  0  0  0  0
   10.0388  -16.2734   26.8957 C   0  0  2  0  0  0  0  0  0  0  0  0
    9.5026  -15.5150   25.7740 N   0  0  0  0  0  0  0  0  0  0  0  0
    9.1271  -17.4048   27.1950 C   0  0  0  0  0  0  0  0  0  0  0  0
    9.6346  -18.6263   27.6167 O   0  0  0  0  0  0  0  0  0  0  0  0
    7.8785  -17.3040   27.0806 O   0  0  0  0  0  0  0  0  0  0  0  0
  2  1  1  0
  3  2  1  0
  3  4  1  1
  5  3  1  0
  5  7  1  0
  6  5  2  0
  8  7  1  0
  8  9  1  6
  9 10  1  0
 10 11  2  0
 11 12  1  0
 13 12  2  0
 14 13  1  0
 15 10  1  0
 15 14  2  0
 16  8  1  0
 17 16  2  0
 19 18  1  0
 19 20  1  0
 20 22  1  0
 20 21  1  1
 22 23  1  6
 22 24  1  0
 23 16  1  0
 24 25  1  0
 26 24  2  0
M  END
$$$$
