SFI.pdb
     RDKit          3D

 26 26  0  0  1  0  0  0  0  0999 V2000
   11.7502  -18.8437   21.6915 O   0  0  0  0  0  0  0  0  0  0  0  0
   10.6115  -18.5584   20.9462 C   0  0  0  0  0  0  0  0  0  0  0  0
   10.6283  -17.1294   20.4215 C   0  0  2  0  0  0  0  0  0  0  0  0
   11.9730  -16.8807   19.9394 N   0  0  0  0  0  0  0  0  0  0  0  0
   10.3312  -16.2586   21.6157 C   0  0  0  0  0  0  0  0  0  0  0  0
   11.2559  -15.6142   22.1722 O   0  0  0  0  0  0  0  0  0  0  0  0
    9.0310  -16.1280   22.1537 N   0  0  0  0  0  0  0  0  0  0  0  0
    8.7218  -15.3719   23.3394 C   0  0  1  0  0  0  0  0  0  0  0  0
    7.2654  -14.9687   23.4217 C   0  0  0  0  0  0  0  0  0  0  0  0
    6.9566  -14.0381   24.4933 C   0  0  0  0  0  0  0  0  0  0  0  0
    7.5109  -12.7799   24.5043 C   0  0  0  0  0  0  0  0  0  0  0  0
    7.2235  -11.8710   25.5317 C   0  0  0  0  0  0  0  0  0  0  0  0
    6.3737  -12.2393   26.5476 C   0  0  0  0  0  0  0  0  0  0  0  0
    5.8104  -13.5059   26.5446 C   0  0  0  0  0  0  0  0  0  0  0  0
    6.1079  -14.4030   25.5100 C   0  0  0  0  0  0  0  0  0  0  0  0
    9.1194  -16.1000   24.5815 C   0  0  0  0  0  0  0  0  0  0  0  0
    9.0143  -17.3507   24.6522 O   0  0  0  0  0  0  0  0  0  0  0  0
   10.3721  -12.9670   29.0049 C   0  0  0  0  0  0  0  0  0  0  0  0
   10.6607  -13.8544   27.8169 C   0  0  0  0  0  0  0  0  0  0  0  0
   10.0852  -15.2241   28.1054 C   0  0  2  0  0  0  0  0  0  0  0  0
   10.8375  -15.8092   29.2716 C   0  0  0  0  0  0  0  0  0  0  0  0
   10.1614  -16.1195   26.8851 C   0  0  2  0  0  0  0  0  0  0  0  0
    9.6273  -15.4222   25.7235 N   0  0  0  0  0  0  0  0  0  0  0  0
    9.3908  -17.3695   27.0959 C   0  0  0  0  0  0  0  0  0  0  0  0
    8.0091  -17.3771   26.9605 O   0  0  0  0  0  0  0  0  0  0  0  0
    9.9495  -18.4545   27.4007 O   0  0  0  0  0  0  0  0  0  0  0  0
  2  1  1  0
  3  2  1  0
  3  4  1  1
  5  3  1  0
  5  7  1  0
  6  5  2  0
  8  7  1  0
  8  9  1  1
  9 10  1  0
 10 11  2  0
 11 12  1  0
 13 12  2  0
 14 13  1  0
 15 10  1  0
 15 14  2  0
 16  8  1  0
 17 16  2  0
 19 18  1  0
 19 20  1  0
 20 22  1  0
 20 21  1  1
 22 23  1  6
 22 24  1  0
 23 16  1  0
 24 25  1  0
 26 24  2  0
M  END
$$$$
