SFI.pdb
     RDKit          3D

 26 26  0  0  1  0  0  0  0  0999 V2000
   12.6858  -15.8734   19.5543 O   0  0  0  0  0  0  0  0  0  0  0  0
   11.4873  -16.5321   19.3028 C   0  0  0  0  0  0  0  0  0  0  0  0
   11.0693  -17.4040   20.4788 C   0  0  2  0  0  0  0  0  0  0  0  0
    9.9119  -18.1608   20.0426 N   0  0  0  0  0  0  0  0  0  0  0  0
   10.6837  -16.4436   21.5749 C   0  0  0  0  0  0  0  0  0  0  0  0
   11.5504  -15.6923   22.0891 O   0  0  0  0  0  0  0  0  0  0  0  0
    9.3621  -16.3441   22.0652 N   0  0  0  0  0  0  0  0  0  0  0  0
    8.9682  -15.4856   23.1518 C   0  0  1  0  0  0  0  0  0  0  0  0
    7.4946  -15.1413   23.1305 C   0  0  0  0  0  0  0  0  0  0  0  0
    7.0752  -14.2195   24.1716 C   0  0  0  0  0  0  0  0  0  0  0  0
    7.4147  -12.8890   24.1018 C   0  0  0  0  0  0  0  0  0  0  0  0
    7.0184  -11.9872   25.0989 C   0  0  0  0  0  0  0  0  0  0  0  0
    6.2776  -12.4361   26.1663 C   0  0  0  0  0  0  0  0  0  0  0  0
    5.9307  -13.7759   26.2448 C   0  0  0  0  0  0  0  0  0  0  0  0
    6.3348  -14.6647   25.2397 C   0  0  0  0  0  0  0  0  0  0  0  0
    9.3365  -16.0647   24.4785 C   0  0  0  0  0  0  0  0  0  0  0  0
    9.4501  -17.3080   24.6253 O   0  0  0  0  0  0  0  0  0  0  0  0
   10.8499  -14.0227   30.1657 C   0  0  0  0  0  0  0  0  0  0  0  0
   10.9453  -15.1244   29.1365 C   0  0  0  0  0  0  0  0  0  0  0  0
   10.2388  -14.6557   27.8828 C   0  0  2  0  0  0  0  0  0  0  0  0
    8.8548  -14.2045   28.2691 C   0  0  0  0  0  0  0  0  0  0  0  0
   10.1980  -15.7493   26.8345 C   0  0  2  0  0  0  0  0  0  0  0  0
    9.5720  -15.2486   25.6187 N   0  0  0  0  0  0  0  0  0  0  0  0
    9.4350  -16.9240   27.3234 C   0  0  0  0  0  0  0  0  0  0  0  0
    8.1956  -17.2350   26.7808 O   0  0  0  0  0  0  0  0  0  0  0  0
    9.8736  -17.6726   28.2342 O   0  0  0  0  0  0  0  0  0  0  0  0
  2  1  1  0
  3  2  1  0
  3  4  1  6
  5  3  1  0
  5  7  1  0
  6  5  2  0
  8  7  1  0
  8  9  1  1
  9 10  1  0
 10 11  2  0
 11 12  1  0
 13 12  2  0
 14 13  1  0
 15 10  1  0
 15 14  2  0
 16  8  1  0
 17 16  2  0
 19 18  1  0
 19 20  1  0
 20 22  1  0
 20 21  1  1
 22 23  1  6
 22 24  1  0
 23 16  1  0
 24 25  1  0
 26 24  2  0
M  END
$$$$
