SFI.pdb
     RDKit          3D

 26 26  0  0  1  0  0  0  0  0999 V2000
   11.7066  -18.8790   21.5877 O   0  0  0  0  0  0  0  0  0  0  0  0
   10.7621  -18.3663   20.7053 C   0  0  0  0  0  0  0  0  0  0  0  0
   10.9694  -16.8773   20.4650 C   0  0  2  0  0  0  0  0  0  0  0  0
   12.3823  -16.6939   20.1953 N   0  0  0  0  0  0  0  0  0  0  0  0
   10.5923  -16.2042   21.7601 C   0  0  0  0  0  0  0  0  0  0  0  0
   11.4848  -15.7337   22.5097 O   0  0  0  0  0  0  0  0  0  0  0  0
    9.2504  -16.0731   22.1834 N   0  0  0  0  0  0  0  0  0  0  0  0
    8.8464  -15.3771   23.3773 C   0  0  1  0  0  0  0  0  0  0  0  0
    7.3790  -15.0067   23.3791 C   0  0  0  0  0  0  0  0  0  0  0  0
    6.9706  -14.1650   24.4901 C   0  0  0  0  0  0  0  0  0  0  0  0
    7.2906  -12.8280   24.5052 C   0  0  0  0  0  0  0  0  0  0  0  0
    6.9045  -12.0029   25.5704 C   0  0  0  0  0  0  0  0  0  0  0  0
    6.1937  -12.5351   26.6198 C   0  0  0  0  0  0  0  0  0  0  0  0
    5.8666  -13.8822   26.6129 C   0  0  0  0  0  0  0  0  0  0  0  0
    6.2602  -14.6937   25.5404 C   0  0  0  0  0  0  0  0  0  0  0  0
    9.1775  -16.1520   24.6105 C   0  0  0  0  0  0  0  0  0  0  0  0
    9.1578  -17.4089   24.6017 O   0  0  0  0  0  0  0  0  0  0  0  0
   10.8398  -13.0599   28.9233 C   0  0  0  0  0  0  0  0  0  0  0  0
   10.9220  -14.0227   27.7621 C   0  0  0  0  0  0  0  0  0  0  0  0
   10.2060  -15.2957   28.1585 C   0  0  2  0  0  0  0  0  0  0  0  0
   10.9776  -15.9331   29.2840 C   0  0  0  0  0  0  0  0  0  0  0  0
   10.0618  -16.2347   26.9777 C   0  0  2  0  0  0  0  0  0  0  0  0
    9.5247  -15.5132   25.8324 N   0  0  0  0  0  0  0  0  0  0  0  0
    9.1576  -17.3641   27.3059 C   0  0  0  0  0  0  0  0  0  0  0  0
    9.6734  -18.5732   27.7523 O   0  0  0  0  0  0  0  0  0  0  0  0
    7.9080  -17.2725   27.1946 O   0  0  0  0  0  0  0  0  0  0  0  0
  2  1  1  0
  3  2  1  0
  3  4  1  1
  5  3  1  0
  5  7  1  0
  6  5  2  0
  8  7  1  0
  8  9  1  6
  9 10  1  0
 10 11  2  0
 11 12  1  0
 13 12  2  0
 14 13  1  0
 15 10  1  0
 15 14  2  0
 16  8  1  0
 17 16  2  0
 19 18  1  0
 19 20  1  0
 20 22  1  0
 20 21  1  1
 22 23  1  6
 22 24  1  0
 23 16  1  0
 24 25  1  0
 26 24  2  0
M  END
$$$$
