SFI.pdb
     RDKit          3D

 26 26  0  0  1  0  0  0  0  0999 V2000
   11.5446  -19.4723   20.0582 O   0  0  0  0  0  0  0  0  0  0  0  0
   11.0323  -18.6388   21.0463 C   0  0  0  0  0  0  0  0  0  0  0  0
   10.6365  -17.2804   20.4842 C   0  0  2  0  0  0  0  0  0  0  0  0
   11.7960  -16.7701   19.7789 N   0  0  0  0  0  0  0  0  0  0  0  0
   10.3341  -16.4205   21.6849 C   0  0  0  0  0  0  0  0  0  0  0  0
   11.2531  -15.7673   22.2405 O   0  0  0  0  0  0  0  0  0  0  0  0
    9.0351  -16.3100   22.2302 N   0  0  0  0  0  0  0  0  0  0  0  0
    8.7126  -15.5206   23.3903 C   0  0  1  0  0  0  0  0  0  0  0  0
    7.2647  -15.0814   23.4242 C   0  0  0  0  0  0  0  0  0  0  0  0
    6.9208  -14.2223   24.5436 C   0  0  0  0  0  0  0  0  0  0  0  0
    7.4324  -12.9489   24.6271 C   0  0  0  0  0  0  0  0  0  0  0  0
    7.1107  -12.1082   25.7013 C   0  0  0  0  0  0  0  0  0  0  0  0
    6.2699  -12.5601   26.6905 C   0  0  0  0  0  0  0  0  0  0  0  0
    5.7494  -13.8427   26.6146 C   0  0  0  0  0  0  0  0  0  0  0  0
    6.0808  -14.6709   25.5339 C   0  0  0  0  0  0  0  0  0  0  0  0
    9.0591  -16.2301   24.6582 C   0  0  0  0  0  0  0  0  0  0  0  0
    8.7380  -17.4337   24.8270 O   0  0  0  0  0  0  0  0  0  0  0  0
   10.8334  -13.4518   29.3767 C   0  0  0  0  0  0  0  0  0  0  0  0
   10.0286  -14.2999   28.4200 C   0  0  0  0  0  0  0  0  0  0  0  0
   10.9551  -15.3352   27.8199 C   0  0  2  0  0  0  0  0  0  0  0  0
   12.0466  -14.6095   27.0780 C   0  0  0  0  0  0  0  0  0  0  0  0
   10.2007  -16.2871   26.9135 C   0  0  2  0  0  0  0  0  0  0  0  0
    9.7574  -15.5863   25.7163 N   0  0  0  0  0  0  0  0  0  0  0  0
    9.0189  -16.8551   27.6074 C   0  0  0  0  0  0  0  0  0  0  0  0
    9.1719  -17.8631   28.5498 O   0  0  0  0  0  0  0  0  0  0  0  0
    7.8503  -16.4526   27.3735 O   0  0  0  0  0  0  0  0  0  0  0  0
  2  1  1  0
  3  2  1  0
  3  4  1  1
  5  3  1  0
  5  7  1  0
  6  5  2  0
  8  7  1  0
  8  9  1  1
  9 10  1  0
 10 11  2  0
 11 12  1  0
 13 12  2  0
 14 13  1  0
 15 10  1  0
 15 14  2  0
 16  8  1  0
 17 16  2  0
 19 18  1  0
 19 20  1  0
 20 22  1  0
 20 21  1  6
 22 23  1  6
 22 24  1  0
 23 16  1  0
 24 25  1  0
 26 24  2  0
M  END
$$$$
