SFI.pdb
     RDKit          3D

 26 26  0  0  1  0  0  0  0  0999 V2000
    9.7091  -18.6993   21.0894 O   0  0  0  0  0  0  0  0  0  0  0  0
    8.9533  -17.9921   20.1609 C   0  0  0  0  0  0  0  0  0  0  0  0
    9.4851  -16.5791   19.9646 C   0  0  2  0  0  0  0  0  0  0  0  0
   10.8033  -16.7107   19.3752 N   0  0  0  0  0  0  0  0  0  0  0  0
    9.5872  -15.9915   21.3490 C   0  0  0  0  0  0  0  0  0  0  0  0
   10.6767  -16.0358   21.9744 O   0  0  0  0  0  0  0  0  0  0  0  0
    8.4902  -15.3776   21.9947 N   0  0  0  0  0  0  0  0  0  0  0  0
    8.5245  -14.8830   23.3464 C   0  0  1  0  0  0  0  0  0  0  0  0
    7.3205  -14.0362   23.6980 C   0  0  0  0  0  0  0  0  0  0  0  0
    7.3598  -13.4541   25.0281 C   0  0  0  0  0  0  0  0  0  0  0  0
    6.3883  -13.7608   25.9514 C   0  0  0  0  0  0  0  0  0  0  0  0
    6.4119  -13.2066   27.2386 C   0  0  0  0  0  0  0  0  0  0  0  0
    7.4213  -12.3414   27.5881 C   0  0  0  0  0  0  0  0  0  0  0  0
    8.4050  -12.0265   26.6635 C   0  0  0  0  0  0  0  0  0  0  0  0
    8.3671  -12.5891   25.3806 C   0  0  0  0  0  0  0  0  0  0  0  0
    8.6763  -15.9890   24.3386 C   0  0  0  0  0  0  0  0  0  0  0  0
    7.8389  -16.9255   24.3869 O   0  0  0  0  0  0  0  0  0  0  0  0
   12.6945  -18.9509   24.2225 C   0  0  0  0  0  0  0  0  0  0  0  0
   11.3141  -18.3944   24.4803 C   0  0  0  0  0  0  0  0  0  0  0  0
   11.2973  -17.8138   25.8779 C   0  0  2  0  0  0  0  0  0  0  0  0
   11.5884  -18.9280   26.8486 C   0  0  0  0  0  0  0  0  0  0  0  0
    9.9717  -17.1433   26.1777 C   0  0  2  0  0  0  0  0  0  0  0  0
    9.7583  -16.0328   25.2600 N   0  0  0  0  0  0  0  0  0  0  0  0
    9.9386  -16.6335   27.5705 C   0  0  0  0  0  0  0  0  0  0  0  0
    9.5180  -17.4513   28.6105 O   0  0  0  0  0  0  0  0  0  0  0  0
   10.2847  -15.4593   27.8597 O   0  0  0  0  0  0  0  0  0  0  0  0
  2  1  1  0
  3  2  1  0
  3  4  1  1
  5  3  1  0
  5  7  1  0
  6  5  2  0
  8  7  1  0
  8  9  1  1
  9 10  1  0
 10 11  2  0
 11 12  1  0
 13 12  2  0
 14 13  1  0
 15 10  1  0
 15 14  2  0
 16  8  1  0
 17 16  2  0
 19 18  1  0
 19 20  1  0
 20 22  1  0
 20 21  1  1
 22 23  1  6
 22 24  1  0
 23 16  1  0
 24 25  1  0
 26 24  2  0
M  END
$$$$
