SFI.pdb
     RDKit          3D

 26 26  0  0  1  0  0  0  0  0999 V2000
    8.8165  -19.0139   19.4173 O   0  0  0  0  0  0  0  0  0  0  0  0
    9.0605  -18.1901   20.5107 C   0  0  0  0  0  0  0  0  0  0  0  0
    9.1161  -16.7234   20.1063 C   0  0  2  0  0  0  0  0  0  0  0  0
   10.2946  -16.5670   19.2760 N   0  0  0  0  0  0  0  0  0  0  0  0
    9.2778  -15.9566   21.3940 C   0  0  0  0  0  0  0  0  0  0  0  0
   10.4261  -15.6731   21.8195 O   0  0  0  0  0  0  0  0  0  0  0  0
    8.1735  -15.5300   22.1658 N   0  0  0  0  0  0  0  0  0  0  0  0
    8.2881  -14.8667   23.4386 C   0  0  1  0  0  0  0  0  0  0  0  0
    7.0167  -14.1586   23.8540 C   0  0  0  0  0  0  0  0  0  0  0  0
    7.1049  -13.4542   25.1211 C   0  0  0  0  0  0  0  0  0  0  0  0
    6.4722  -13.9475   26.2377 C   0  0  0  0  0  0  0  0  0  0  0  0
    6.5470  -13.2789   27.4672 C   0  0  0  0  0  0  0  0  0  0  0  0
    7.2639  -12.1099   27.5632 C   0  0  0  0  0  0  0  0  0  0  0  0
    7.9050  -11.6052   26.4425 C   0  0  0  0  0  0  0  0  0  0  0  0
    7.8204  -12.2857   25.2204 C   0  0  0  0  0  0  0  0  0  0  0  0
    8.7238  -15.8048   24.5161 C   0  0  0  0  0  0  0  0  0  0  0  0
    8.0720  -16.8529   24.7550 O   0  0  0  0  0  0  0  0  0  0  0  0
   13.8648  -16.8377   24.5137 C   0  0  0  0  0  0  0  0  0  0  0  0
   12.3599  -16.9229   24.6131 C   0  0  0  0  0  0  0  0  0  0  0  0
   11.9648  -16.5804   26.0333 C   0  0  2  0  0  0  0  0  0  0  0  0
   12.6076  -17.5867   26.9513 C   0  0  0  0  0  0  0  0  0  0  0  0
   10.4580  -16.5598   26.1939 C   0  0  2  0  0  0  0  0  0  0  0  0
    9.8780  -15.5590   25.3092 N   0  0  0  0  0  0  0  0  0  0  0  0
   10.0783  -16.2469   27.5935 C   0  0  0  0  0  0  0  0  0  0  0  0
    9.8558  -17.2672   28.5083 O   0  0  0  0  0  0  0  0  0  0  0  0
    9.9451  -15.0641   28.0003 O   0  0  0  0  0  0  0  0  0  0  0  0
  2  1  1  0
  3  2  1  0
  3  4  1  6
  5  3  1  0
  5  7  1  0
  6  5  2  0
  8  7  1  0
  8  9  1  1
  9 10  1  0
 10 11  2  0
 11 12  1  0
 13 12  2  0
 14 13  1  0
 15 10  1  0
 15 14  2  0
 16  8  1  0
 17 16  2  0
 19 18  1  0
 19 20  1  0
 20 22  1  0
 20 21  1  1
 22 23  1  6
 22 24  1  0
 23 16  1  0
 24 25  1  0
 26 24  2  0
M  END
$$$$
