SFI.pdb
     RDKit          3D

 26 26  0  0  1  0  0  0  0  0999 V2000
    9.9174  -19.1921   19.8264 O   0  0  0  0  0  0  0  0  0  0  0  0
   10.1239  -18.2874   20.8620 C   0  0  0  0  0  0  0  0  0  0  0  0
   10.0190  -16.8477   20.3781 C   0  0  2  0  0  0  0  0  0  0  0  0
   11.2203  -16.5798   19.6115 N   0  0  0  0  0  0  0  0  0  0  0  0
    9.9962  -16.0038   21.6270 C   0  0  0  0  0  0  0  0  0  0  0  0
   11.0734  -15.6211   22.1495 O   0  0  0  0  0  0  0  0  0  0  0  0
    8.7924  -15.6121   22.2551 N   0  0  0  0  0  0  0  0  0  0  0  0
    8.7300  -14.9082   23.5095 C   0  0  1  0  0  0  0  0  0  0  0  0
    7.3962  -14.2324   23.7438 C   0  0  0  0  0  0  0  0  0  0  0  0
    7.3075  -13.4876   24.9875 C   0  0  0  0  0  0  0  0  0  0  0  0
    7.9453  -12.2770   25.1213 C   0  0  0  0  0  0  0  0  0  0  0  0
    7.8699  -11.5467   26.3152 C   0  0  0  0  0  0  0  0  0  0  0  0
    7.1472  -12.0453   27.3729 C   0  0  0  0  0  0  0  0  0  0  0  0
    6.5008  -13.2652   27.2470 C   0  0  0  0  0  0  0  0  0  0  0  0
    6.5860  -13.9830   26.0465 C   0  0  0  0  0  0  0  0  0  0  0  0
    9.0592  -15.7986   24.6627 C   0  0  0  0  0  0  0  0  0  0  0  0
    8.4861  -16.9093   24.7982 O   0  0  0  0  0  0  0  0  0  0  0  0
   14.0086  -16.8935   25.3060 C   0  0  0  0  0  0  0  0  0  0  0  0
   12.4983  -16.8885   25.2759 C   0  0  0  0  0  0  0  0  0  0  0  0
   12.0049  -16.4401   26.6345 C   0  0  2  0  0  0  0  0  0  0  0  0
   12.5327  -17.4048   27.6636 C   0  0  0  0  0  0  0  0  0  0  0  0
   10.4920  -16.3582   26.6693 C   0  0  2  0  0  0  0  0  0  0  0  0
   10.0210  -15.4362   25.6451 N   0  0  0  0  0  0  0  0  0  0  0  0
   10.0167  -15.8927   27.9952 C   0  0  0  0  0  0  0  0  0  0  0  0
    9.7834  -16.8009   29.0190 O   0  0  0  0  0  0  0  0  0  0  0  0
    9.8095  -14.6765   28.2406 O   0  0  0  0  0  0  0  0  0  0  0  0
  2  1  1  0
  3  2  1  0
  3  4  1  6
  5  3  1  0
  5  7  1  0
  6  5  2  0
  8  7  1  0
  8  9  1  1
  9 10  1  0
 10 11  2  0
 11 12  1  0
 13 12  2  0
 14 13  1  0
 15 10  1  0
 15 14  2  0
 16  8  1  0
 17 16  2  0
 19 18  1  0
 19 20  1  0
 20 22  1  0
 20 21  1  1
 22 23  1  6
 22 24  1  0
 23 16  1  0
 24 25  1  0
 26 24  2  0
M  END
$$$$
