SFI.pdb
     RDKit          3D

 26 26  0  0  1  0  0  0  0  0999 V2000
   12.0672  -18.7604   21.7496 O   0  0  0  0  0  0  0  0  0  0  0  0
   11.1496  -18.3859   20.7742 C   0  0  0  0  0  0  0  0  0  0  0  0
   11.2472  -16.9009   20.4531 C   0  0  2  0  0  0  0  0  0  0  0  0
   12.6440  -16.6280   20.1754 N   0  0  0  0  0  0  0  0  0  0  0  0
   10.8144  -16.1882   21.7090 C   0  0  0  0  0  0  0  0  0  0  0  0
   11.6744  -15.7110   22.4917 O   0  0  0  0  0  0  0  0  0  0  0  0
    9.4547  -16.0261   22.0582 N   0  0  0  0  0  0  0  0  0  0  0  0
    9.0018  -15.3168   23.2264 C   0  0  1  0  0  0  0  0  0  0  0  0
    7.5326  -14.9583   23.1691 C   0  0  0  0  0  0  0  0  0  0  0  0
    7.0615  -14.1627   24.2892 C   0  0  0  0  0  0  0  0  0  0  0  0
    6.2380  -14.7178   25.2401 C   0  0  0  0  0  0  0  0  0  0  0  0
    5.7743  -13.9630   26.3262 C   0  0  0  0  0  0  0  0  0  0  0  0
    6.1465  -12.6452   26.4469 C   0  0  0  0  0  0  0  0  0  0  0  0
    6.9765  -12.0773   25.4928 C   0  0  0  0  0  0  0  0  0  0  0  0
    7.4315  -12.8455   24.4128 C   0  0  0  0  0  0  0  0  0  0  0  0
    9.2930  -16.0717   24.4819 C   0  0  0  0  0  0  0  0  0  0  0  0
    9.1459  -17.3194   24.5277 O   0  0  0  0  0  0  0  0  0  0  0  0
   11.3232  -13.0086   28.6679 C   0  0  0  0  0  0  0  0  0  0  0  0
   11.2586  -13.9985   27.5287 C   0  0  0  0  0  0  0  0  0  0  0  0
   10.4358  -15.1839   27.9853 C   0  0  2  0  0  0  0  0  0  0  0  0
   11.1641  -15.8448   29.1260 C   0  0  0  0  0  0  0  0  0  0  0  0
   10.1875  -16.1512   26.8454 C   0  0  2  0  0  0  0  0  0  0  0  0
    9.7431  -15.4237   25.6647 N   0  0  0  0  0  0  0  0  0  0  0  0
    9.1560  -17.1516   27.2143 C   0  0  0  0  0  0  0  0  0  0  0  0
    9.5218  -18.4423   27.5716 O   0  0  0  0  0  0  0  0  0  0  0  0
    7.9290  -16.8747   27.2180 O   0  0  0  0  0  0  0  0  0  0  0  0
  2  1  1  0
  3  2  1  0
  3  4  1  1
  5  3  1  0
  5  7  1  0
  6  5  2  0
  8  7  1  0
  8  9  1  6
  9 10  1  0
 10 11  2  0
 11 12  1  0
 13 12  2  0
 14 13  1  0
 15 10  1  0
 15 14  2  0
 16  8  1  0
 17 16  2  0
 19 18  1  0
 19 20  1  0
 20 22  1  0
 20 21  1  1
 22 23  1  6
 22 24  1  0
 23 16  1  0
 24 25  1  0
 26 24  2  0
M  END
$$$$
