HNP.pdb
     RDKit          3D

 26 27  0  0  1  0  0  0  0  0999 V2000
    7.6694  -17.3183   19.6937 N   0  0  0  0  0  0  0  0  0  0  0  0
    8.3993  -16.8003   20.8244 C   0  0  1  0  0  0  0  0  0  0  0  0
    9.3414  -15.7327   20.3461 C   0  0  0  0  0  0  0  0  0  0  0  0
    8.6619  -14.6858   19.5418 C   0  0  0  0  0  0  0  0  0  0  0  0
    7.3499  -14.6618   19.1327 C   0  0  0  0  0  0  0  0  0  0  0  0
    7.1823  -13.5173   18.4311 N   0  0  0  0  0  0  0  0  0  0  0  0
    8.3390  -12.8436   18.3965 C   0  0  0  0  0  0  0  0  0  0  0  0
    9.2333  -13.5653   19.0759 N   0  0  0  0  0  0  0  0  0  0  0  0
    7.5283  -16.2599   21.8749 C   0  0  0  0  0  0  0  0  0  0  0  0
    6.4004  -15.8119   21.5795 O   0  0  0  0  0  0  0  0  0  0  0  0
    8.3622  -17.9009   25.1215 N   0  0  0  0  0  0  0  0  0  0  0  0
    6.9754  -17.8301   25.3814 C   0  0  0  0  0  0  0  0  0  0  0  0
    6.3320  -18.6967   26.0380 O   0  0  0  0  0  0  0  0  0  0  0  0
    6.2103  -16.6587   24.8461 C   0  0  0  0  0  0  0  0  0  0  0  0
    7.1964  -15.6454   24.2996 C   0  0  2  0  0  0  0  0  0  0  0  0
    7.9618  -16.2459   23.2474 N   0  0  0  0  0  0  0  0  0  0  0  0
    8.0340  -15.0108   25.3034 C   0  0  0  0  0  0  0  0  0  0  0  0
    9.3079  -15.3043   25.1355 O   0  0  0  0  0  0  0  0  0  0  0  0
    7.7099  -14.1749   26.3695 N   0  0  0  0  0  0  0  0  0  0  0  0
    6.3448  -13.9091   26.8249 C   0  0  0  0  0  0  0  0  0  0  0  0
    6.4024  -12.3791   26.8312 C   0  0  0  0  0  0  0  0  0  0  0  0
    7.6967  -12.1590   27.6092 C   0  0  0  0  0  0  0  0  0  0  0  0
    8.5404  -13.3998   27.2379 C   0  0  1  0  0  0  0  0  0  0  0  0
    8.7687  -14.2052   28.4715 C   0  0  0  0  0  0  0  0  0  0  0  0
    8.0203  -15.1986   28.6550 O   0  0  0  0  0  0  0  0  0  0  0  0
    9.7373  -13.9329   29.4143 O   0  0  0  0  0  0  0  0  0  0  0  0
  2  3  1  0
  2  1  1  6
  4  3  1  0
  5  4  2  0
  6  5  1  0
  7  6  1  0
  7  8  2  0
  8  4  1  0
  9  2  1  0
  9 10  2  0
 11 12  1  0
 12 14  1  0
 13 12  2  0
 15 14  1  1
 15 16  1  0
 16  9  1  0
 17 15  1  0
 18 17  2  0
 19 17  1  0
 19 20  1  0
 20 21  1  0
 22 21  1  0
 23 19  1  0
 23 22  1  0
 23 24  1  1
 25 24  2  0
 26 24  1  0
M  END
$$$$
