HNP.pdb
     RDKit          3D

 26 27  0  0  1  0  0  0  0  0999 V2000
    7.0053  -16.5051   19.8589 N   0  0  0  0  0  0  0  0  0  0  0  0
    7.5956  -15.4974   20.7050 C   0  0  1  0  0  0  0  0  0  0  0  0
    7.2295  -14.1414   20.1727 C   0  0  0  0  0  0  0  0  0  0  0  0
    7.9010  -13.8295   18.8857 C   0  0  0  0  0  0  0  0  0  0  0  0
    8.7262  -12.7665   18.6059 C   0  0  0  0  0  0  0  0  0  0  0  0
    9.1029  -12.8964   17.3131 N   0  0  0  0  0  0  0  0  0  0  0  0
    8.5406  -13.9954   16.7945 C   0  0  0  0  0  0  0  0  0  0  0  0
    7.8102  -14.5555   17.7615 N   0  0  0  0  0  0  0  0  0  0  0  0
    7.1819  -15.6082   22.1088 C   0  0  0  0  0  0  0  0  0  0  0  0
    5.9886  -15.4158   22.4236 O   0  0  0  0  0  0  0  0  0  0  0  0
    5.4762  -18.3062   24.5189 N   0  0  0  0  0  0  0  0  0  0  0  0
    6.8125  -18.3095   24.0610 C   0  0  0  0  0  0  0  0  0  0  0  0
    7.2004  -18.8934   23.0099 O   0  0  0  0  0  0  0  0  0  0  0  0
    7.8426  -17.5797   24.8675 C   0  0  0  0  0  0  0  0  0  0  0  0
    7.7863  -16.1084   24.5070 C   0  0  2  0  0  0  0  0  0  0  0  0
    8.1412  -15.9423   23.1286 N   0  0  0  0  0  0  0  0  0  0  0  0
    8.5494  -15.2383   25.3859 C   0  0  0  0  0  0  0  0  0  0  0  0
    9.7903  -15.0862   24.9684 O   0  0  0  0  0  0  0  0  0  0  0  0
    8.1849  -14.5687   26.5517 N   0  0  0  0  0  0  0  0  0  0  0  0
    6.8530  -14.6264   27.1550 C   0  0  0  0  0  0  0  0  0  0  0  0
    6.6051  -13.1225   27.3004 C   0  0  0  0  0  0  0  0  0  0  0  0
    7.9074  -12.6961   27.9721 C   0  0  0  0  0  0  0  0  0  0  0  0
    8.9350  -13.7038   27.4085 C   0  0  1  0  0  0  0  0  0  0  0  0
    9.4538  -14.5326   28.5339 C   0  0  0  0  0  0  0  0  0  0  0  0
   10.2103  -13.9658   29.3628 O   0  0  0  0  0  0  0  0  0  0  0  0
    9.1605  -15.8668   28.7217 O   0  0  0  0  0  0  0  0  0  0  0  0
  2  3  1  0
  2  1  1  6
  4  3  1  0
  5  4  2  0
  6  5  1  0
  7  6  1  0
  7  8  2  0
  8  4  1  0
  9  2  1  0
  9 10  2  0
 11 12  1  0
 12 14  1  0
 13 12  2  0
 15 14  1  1
 15 16  1  0
 16  9  1  0
 17 15  1  0
 18 17  2  0
 19 17  1  0
 19 20  1  0
 20 21  1  0
 22 21  1  0
 23 19  1  0
 23 22  1  0
 23 24  1  1
 25 24  2  0
 26 24  1  0
M  END
$$$$
