HNP.pdb
     RDKit          3D

 26 27  0  0  1  0  0  0  0  0999 V2000
    7.0288  -16.2903   19.7570 N   0  0  0  0  0  0  0  0  0  0  0  0
    7.9156  -16.0633   20.8713 C   0  0  1  0  0  0  0  0  0  0  0  0
    8.8327  -14.9217   20.5370 C   0  0  0  0  0  0  0  0  0  0  0  0
    8.6564  -14.4320   19.1465 C   0  0  0  0  0  0  0  0  0  0  0  0
    7.8062  -14.9242   18.1851 C   0  0  0  0  0  0  0  0  0  0  0  0
    7.9865  -14.1640   17.0806 N   0  0  0  0  0  0  0  0  0  0  0  0
    8.9119  -13.2291   17.3306 C   0  0  0  0  0  0  0  0  0  0  0  0
    9.3133  -13.4024   18.5920 N   0  0  0  0  0  0  0  0  0  0  0  0
    7.2062  -15.7799   22.1246 C   0  0  0  0  0  0  0  0  0  0  0  0
    6.2096  -15.0270   22.1198 O   0  0  0  0  0  0  0  0  0  0  0  0
    6.9449  -18.0932   22.9848 N   0  0  0  0  0  0  0  0  0  0  0  0
    6.4777  -18.3565   24.2917 C   0  0  0  0  0  0  0  0  0  0  0  0
    6.0162  -19.4705   24.6686 O   0  0  0  0  0  0  0  0  0  0  0  0
    6.5259  -17.2502   25.3007 C   0  0  0  0  0  0  0  0  0  0  0  0
    7.0921  -16.0119   24.6346 C   0  0  2  0  0  0  0  0  0  0  0  0
    7.6473  -16.3676   23.3624 N   0  0  0  0  0  0  0  0  0  0  0  0
    8.0220  -15.2531   25.4540 C   0  0  0  0  0  0  0  0  0  0  0  0
    9.2673  -15.4031   25.0491 O   0  0  0  0  0  0  0  0  0  0  0  0
    7.8072  -14.4262   26.5542 N   0  0  0  0  0  0  0  0  0  0  0  0
    6.4987  -14.1870   27.1643 C   0  0  0  0  0  0  0  0  0  0  0  0
    6.5288  -12.6562   27.1713 C   0  0  0  0  0  0  0  0  0  0  0  0
    7.8996  -12.4142   27.7970 C   0  0  0  0  0  0  0  0  0  0  0  0
    8.7175  -13.6381   27.3255 C   0  0  1  0  0  0  0  0  0  0  0  0
    9.1004  -14.4424   28.5209 C   0  0  0  0  0  0  0  0  0  0  0  0
    8.4291  -15.4796   28.7537 O   0  0  0  0  0  0  0  0  0  0  0  0
   10.1321  -14.1247   29.3788 O   0  0  0  0  0  0  0  0  0  0  0  0
  2  3  1  0
  2  1  1  6
  4  3  1  0
  5  4  2  0
  6  5  1  0
  7  6  1  0
  7  8  2  0
  8  4  1  0
  9  2  1  0
  9 10  2  0
 11 12  1  0
 12 14  1  0
 13 12  2  0
 15 14  1  1
 15 16  1  0
 16  9  1  0
 17 15  1  0
 18 17  2  0
 19 17  1  0
 19 20  1  0
 20 21  1  0
 22 21  1  0
 23 19  1  0
 23 22  1  0
 23 24  1  1
 25 24  2  0
 26 24  1  0
M  END
$$$$
