HNP.pdb
     RDKit          3D

 26 27  0  0  1  0  0  0  0  0999 V2000
    9.0546  -15.7622   20.4265 N   0  0  0  0  0  0  0  0  0  0  0  0
    8.4303  -14.5649   20.9329 C   0  0  1  0  0  0  0  0  0  0  0  0
    7.3390  -14.1497   19.9881 C   0  0  0  0  0  0  0  0  0  0  0  0
    7.7925  -14.0964   18.5753 C   0  0  0  0  0  0  0  0  0  0  0  0
    8.5549  -13.1229   17.9750 C   0  0  0  0  0  0  0  0  0  0  0  0
    8.7194  -13.4978   16.6856 N   0  0  0  0  0  0  0  0  0  0  0  0
    8.0881  -14.6601   16.4766 C   0  0  0  0  0  0  0  0  0  0  0  0
    7.5266  -15.0148   17.6346 N   0  0  0  0  0  0  0  0  0  0  0  0
    7.8817  -14.7278   22.2845 C   0  0  0  0  0  0  0  0  0  0  0  0
    7.2208  -13.8041   22.8041 O   0  0  0  0  0  0  0  0  0  0  0  0
    5.2017  -17.8512   23.6973 N   0  0  0  0  0  0  0  0  0  0  0  0
    6.5738  -18.1799   23.6286 C   0  0  0  0  0  0  0  0  0  0  0  0
    7.0789  -18.9354   22.7509 O   0  0  0  0  0  0  0  0  0  0  0  0
    7.4959  -17.6033   24.6590 C   0  0  0  0  0  0  0  0  0  0  0  0
    7.6746  -16.1250   24.3755 C   0  0  2  0  0  0  0  0  0  0  0  0
    8.0953  -15.9484   23.0170 N   0  0  0  0  0  0  0  0  0  0  0  0
    8.5314  -15.4252   25.3179 C   0  0  0  0  0  0  0  0  0  0  0  0
    9.8063  -15.5510   25.0080 O   0  0  0  0  0  0  0  0  0  0  0  0
    8.2240  -14.6735   26.4496 N   0  0  0  0  0  0  0  0  0  0  0  0
    6.8640  -14.4077   26.9199 C   0  0  0  0  0  0  0  0  0  0  0  0
    6.9652  -12.8860   27.0562 C   0  0  0  0  0  0  0  0  0  0  0  0
    8.2599  -12.7702   27.8557 C   0  0  0  0  0  0  0  0  0  0  0  0
    9.0704  -13.9991   27.3842 C   0  0  1  0  0  0  0  0  0  0  0  0
    9.2672  -14.9123   28.5461 C   0  0  0  0  0  0  0  0  0  0  0  0
   10.0644  -14.5366   29.4426 O   0  0  0  0  0  0  0  0  0  0  0  0
    8.6380  -16.1298   28.6984 O   0  0  0  0  0  0  0  0  0  0  0  0
  2  3  1  0
  2  1  1  6
  4  3  1  0
  5  4  2  0
  6  5  1  0
  7  6  1  0
  7  8  2  0
  8  4  1  0
  9  2  1  0
  9 10  2  0
 11 12  1  0
 12 14  1  0
 13 12  2  0
 15 14  1  1
 15 16  1  0
 16  9  1  0
 17 15  1  0
 18 17  2  0
 19 17  1  0
 19 20  1  0
 20 21  1  0
 22 21  1  0
 23 19  1  0
 23 22  1  0
 23 24  1  1
 25 24  2  0
 26 24  1  0
M  END
$$$$
