HNP.pdb
     RDKit          3D

 26 27  0  0  1  0  0  0  0  0999 V2000
    7.2295  -16.6460   20.1777 N   0  0  0  0  0  0  0  0  0  0  0  0
    7.7067  -15.6145   21.0655 C   0  0  1  0  0  0  0  0  0  0  0  0
    7.2208  -14.2831   20.5682 C   0  0  0  0  0  0  0  0  0  0  0  0
    7.7352  -13.9533   19.2150 C   0  0  0  0  0  0  0  0  0  0  0  0
    8.6697  -13.0022   18.8814 C   0  0  0  0  0  0  0  0  0  0  0  0
    8.8246  -13.0632   17.5389 N   0  0  0  0  0  0  0  0  0  0  0  0
    8.0222  -14.0129   17.0415 C   0  0  0  0  0  0  0  0  0  0  0  0
    7.3630  -14.5480   18.0717 N   0  0  0  0  0  0  0  0  0  0  0  0
    7.2829  -15.8097   22.4571 C   0  0  0  0  0  0  0  0  0  0  0  0
    6.0771  -16.0020   22.7199 O   0  0  0  0  0  0  0  0  0  0  0  0
    7.4669  -19.1428   26.7721 N   0  0  0  0  0  0  0  0  0  0  0  0
    7.0091  -17.8837   26.3243 C   0  0  0  0  0  0  0  0  0  0  0  0
    6.3918  -17.0544   27.0505 O   0  0  0  0  0  0  0  0  0  0  0  0
    7.2643  -17.4997   24.8989 C   0  0  0  0  0  0  0  0  0  0  0  0
    7.9235  -16.1350   24.8759 C   0  0  2  0  0  0  0  0  0  0  0  0
    8.2483  -15.7861   23.5245 N   0  0  0  0  0  0  0  0  0  0  0  0
    9.0570  -15.9930   25.7742 C   0  0  0  0  0  0  0  0  0  0  0  0
   10.0751  -16.7423   25.4008 O   0  0  0  0  0  0  0  0  0  0  0  0
    9.2248  -15.2186   26.9198 N   0  0  0  0  0  0  0  0  0  0  0  0
    8.1417  -14.5123   27.6049 C   0  0  0  0  0  0  0  0  0  0  0  0
    8.7870  -13.1258   27.6791 C   0  0  0  0  0  0  0  0  0  0  0  0
   10.1557  -13.4930   28.2453 C   0  0  0  0  0  0  0  0  0  0  0  0
   10.3969  -14.9109   27.6789 C   0  0  1  0  0  0  0  0  0  0  0  0
   10.4559  -15.8728   28.8163 C   0  0  0  0  0  0  0  0  0  0  0  0
   11.4447  -15.7888   29.5882 O   0  0  0  0  0  0  0  0  0  0  0  0
    9.5060  -16.8388   29.0728 O   0  0  0  0  0  0  0  0  0  0  0  0
  2  3  1  0
  2  1  1  6
  4  3  1  0
  5  4  2  0
  6  5  1  0
  7  6  1  0
  7  8  2  0
  8  4  1  0
  9  2  1  0
  9 10  2  0
 11 12  1  0
 12 14  1  0
 13 12  2  0
 15 14  1  6
 15 16  1  0
 16  9  1  0
 17 15  1  0
 18 17  2  0
 19 17  1  0
 19 20  1  0
 20 21  1  0
 22 21  1  0
 23 19  1  0
 23 22  1  0
 23 24  1  1
 25 24  2  0
 26 24  1  0
M  END
$$$$
