HNP.pdb
     RDKit          3D

 26 27  0  0  1  0  0  0  0  0999 V2000
    8.9471  -15.3711   20.2178 N   0  0  0  0  0  0  0  0  0  0  0  0
    8.1504  -14.2635   20.6849 C   0  0  1  0  0  0  0  0  0  0  0  0
    7.0603  -13.9949   19.6872 C   0  0  0  0  0  0  0  0  0  0  0  0
    7.5761  -13.8246   18.3054 C   0  0  0  0  0  0  0  0  0  0  0  0
    8.3334  -12.7879   17.8143 C   0  0  0  0  0  0  0  0  0  0  0  0
    8.5688  -13.0619   16.5106 N   0  0  0  0  0  0  0  0  0  0  0  0
    7.9856  -14.2232   16.1880 C   0  0  0  0  0  0  0  0  0  0  0  0
    7.3833  -14.6784   17.2891 N   0  0  0  0  0  0  0  0  0  0  0  0
    7.5646  -14.4930   22.0110 C   0  0  0  0  0  0  0  0  0  0  0  0
    6.7186  -13.6941   22.4649 O   0  0  0  0  0  0  0  0  0  0  0  0
    6.5131  -18.3936   22.3236 N   0  0  0  0  0  0  0  0  0  0  0  0
    6.2148  -17.8050   23.5726 C   0  0  0  0  0  0  0  0  0  0  0  0
    5.0451  -17.6649   24.0292 O   0  0  0  0  0  0  0  0  0  0  0  0
    7.3504  -17.3099   24.4150 C   0  0  0  0  0  0  0  0  0  0  0  0
    7.5389  -15.8291   24.1513 C   0  0  2  0  0  0  0  0  0  0  0  0
    7.9542  -15.6367   22.7934 N   0  0  0  0  0  0  0  0  0  0  0  0
    8.4056  -15.1491   25.0991 C   0  0  0  0  0  0  0  0  0  0  0  0
    9.6767  -15.2624   24.7696 O   0  0  0  0  0  0  0  0  0  0  0  0
    8.1105  -14.4261   26.2526 N   0  0  0  0  0  0  0  0  0  0  0  0
    6.7560  -14.1791   26.7483 C   0  0  0  0  0  0  0  0  0  0  0  0
    6.8512  -12.6605   26.9193 C   0  0  0  0  0  0  0  0  0  0  0  0
    8.1566  -12.5565   27.7029 C   0  0  0  0  0  0  0  0  0  0  0  0
    8.9666  -13.7693   27.1909 C   0  0  1  0  0  0  0  0  0  0  0  0
    9.1848  -14.7087   28.3278 C   0  0  0  0  0  0  0  0  0  0  0  0
   10.0231  -14.3682   29.2007 O   0  0  0  0  0  0  0  0  0  0  0  0
    8.5336  -15.9143   28.4813 O   0  0  0  0  0  0  0  0  0  0  0  0
  2  3  1  0
  2  1  1  6
  4  3  1  0
  5  4  2  0
  6  5  1  0
  7  6  1  0
  7  8  2  0
  8  4  1  0
  9  2  1  0
  9 10  2  0
 11 12  1  0
 12 14  1  0
 13 12  2  0
 15 14  1  1
 15 16  1  0
 16  9  1  0
 17 15  1  0
 18 17  2  0
 19 17  1  0
 19 20  1  0
 20 21  1  0
 22 21  1  0
 23 19  1  0
 23 22  1  0
 23 24  1  1
 25 24  2  0
 26 24  1  0
M  END
$$$$
