HNP.pdb
     RDKit          3D

 26 27  0  0  1  0  0  0  0  0999 V2000
   11.1201  -14.7661   21.0295 N   0  0  0  0  0  0  0  0  0  0  0  0
    9.8004  -14.3034   21.3817 C   0  0  1  0  0  0  0  0  0  0  0  0
    8.7849  -15.2467   20.8029 C   0  0  0  0  0  0  0  0  0  0  0  0
    8.3020  -14.8201   19.4653 C   0  0  0  0  0  0  0  0  0  0  0  0
    8.7613  -13.7733   18.7020 C   0  0  0  0  0  0  0  0  0  0  0  0
    8.0280  -13.7698   17.5652 N   0  0  0  0  0  0  0  0  0  0  0  0
    7.1408  -14.7720   17.6054 C   0  0  0  0  0  0  0  0  0  0  0  0
    7.3166  -15.4046   18.7678 N   0  0  0  0  0  0  0  0  0  0  0  0
    9.5986  -14.1840   22.8305 C   0  0  0  0  0  0  0  0  0  0  0  0
   10.5315  -14.4588   23.6142 O   0  0  0  0  0  0  0  0  0  0  0  0
    6.4027  -11.8594   27.0466 N   0  0  0  0  0  0  0  0  0  0  0  0
    6.3704  -13.1394   26.4500 C   0  0  0  0  0  0  0  0  0  0  0  0
    6.1425  -14.2101   27.0808 O   0  0  0  0  0  0  0  0  0  0  0  0
    6.6240  -13.2445   24.9773 C   0  0  0  0  0  0  0  0  0  0  0  0
    8.0791  -13.6103   24.7616 C   0  0  2  0  0  0  0  0  0  0  0  0
    8.3324  -13.7473   23.3579 N   0  0  0  0  0  0  0  0  0  0  0  0
    8.5353  -14.7607   25.5233 C   0  0  0  0  0  0  0  0  0  0  0  0
    8.4937  -15.8685   24.8104 O   0  0  0  0  0  0  0  0  0  0  0  0
    8.9911  -14.8667   26.8353 N   0  0  0  0  0  0  0  0  0  0  0  0
    8.6269  -13.9458   27.9128 C   0  0  0  0  0  0  0  0  0  0  0  0
   10.0354  -13.6178   28.4157 C   0  0  0  0  0  0  0  0  0  0  0  0
   10.6087  -15.0252   28.5556 C   0  0  0  0  0  0  0  0  0  0  0  0
    9.8726  -15.8118   27.4472 C   0  0  1  0  0  0  0  0  0  0  0  0
    9.0271  -16.8584   28.0893 C   0  0  0  0  0  0  0  0  0  0  0  0
    9.5920  -17.6335   28.9021 O   0  0  0  0  0  0  0  0  0  0  0  0
    7.6798  -17.0293   27.8508 O   0  0  0  0  0  0  0  0  0  0  0  0
  2  3  1  0
  2  1  1  1
  4  3  1  0
  5  4  2  0
  6  5  1  0
  7  6  1  0
  7  8  2  0
  8  4  1  0
  9  2  1  0
  9 10  2  0
 11 12  1  0
 12 14  1  0
 13 12  2  0
 15 14  1  6
 15 16  1  0
 16  9  1  0
 17 15  1  0
 18 17  2  0
 19 17  1  0
 19 20  1  0
 20 21  1  0
 22 21  1  0
 23 19  1  0
 23 22  1  0
 23 24  1  1
 25 24  2  0
 26 24  1  0
M  END
$$$$
