HNP.pdb
     RDKit          3D

 26 27  0  0  1  0  0  0  0  0999 V2000
    9.2630  -15.2126   20.5376 N   0  0  0  0  0  0  0  0  0  0  0  0
    8.2724  -14.2680   20.9914 C   0  0  1  0  0  0  0  0  0  0  0  0
    7.1447  -14.2332   19.9999 C   0  0  0  0  0  0  0  0  0  0  0  0
    7.6126  -14.0308   18.6054 C   0  0  0  0  0  0  0  0  0  0  0  0
    8.3979  -13.0108   18.1235 C   0  0  0  0  0  0  0  0  0  0  0  0
    8.5681  -13.2423   16.8015 N   0  0  0  0  0  0  0  0  0  0  0  0
    7.9182  -14.3618   16.4590 C   0  0  0  0  0  0  0  0  0  0  0  0
    7.3394  -14.8332   17.5658 N   0  0  0  0  0  0  0  0  0  0  0  0
    7.7496  -14.5774   22.3275 C   0  0  0  0  0  0  0  0  0  0  0  0
    6.8356  -13.8801   22.8156 O   0  0  0  0  0  0  0  0  0  0  0  0
    7.9395  -18.6187   26.5916 N   0  0  0  0  0  0  0  0  0  0  0  0
    7.0884  -17.6760   25.9733 C   0  0  0  0  0  0  0  0  0  0  0  0
    6.1369  -17.0875   26.5603 O   0  0  0  0  0  0  0  0  0  0  0  0
    7.3190  -17.3488   24.5296 C   0  0  0  0  0  0  0  0  0  0  0  0
    7.9036  -15.9533   24.4370 C   0  0  2  0  0  0  0  0  0  0  0  0
    8.2793  -15.6838   23.0807 N   0  0  0  0  0  0  0  0  0  0  0  0
    8.9793  -15.6822   25.3758 C   0  0  0  0  0  0  0  0  0  0  0  0
   10.1264  -16.1854   24.9657 O   0  0  0  0  0  0  0  0  0  0  0  0
    8.9830  -15.0002   26.5904 N   0  0  0  0  0  0  0  0  0  0  0  0
    7.7935  -14.4211   27.2158 C   0  0  0  0  0  0  0  0  0  0  0  0
    8.3330  -13.0101   27.4650 C   0  0  0  0  0  0  0  0  0  0  0  0
    9.6627  -13.3422   28.1364 C   0  0  0  0  0  0  0  0  0  0  0  0
   10.0529  -14.6893   27.4867 C   0  0  1  0  0  0  0  0  0  0  0  0
   10.0672  -15.7400   28.5443 C   0  0  0  0  0  0  0  0  0  0  0  0
    9.0641  -16.4943   28.6174 O   0  0  0  0  0  0  0  0  0  0  0  0
   11.0989  -15.9350   29.4381 O   0  0  0  0  0  0  0  0  0  0  0  0
  2  3  1  0
  2  1  1  6
  4  3  1  0
  5  4  2  0
  6  5  1  0
  7  6  1  0
  7  8  2  0
  8  4  1  0
  9  2  1  0
  9 10  2  0
 11 12  1  0
 12 14  1  0
 13 12  2  0
 15 14  1  6
 15 16  1  0
 16  9  1  0
 17 15  1  0
 18 17  2  0
 19 17  1  0
 19 20  1  0
 20 21  1  0
 22 21  1  0
 23 19  1  0
 23 22  1  0
 23 24  1  1
 25 24  2  0
 26 24  1  0
M  END
$$$$
