HNP.pdb
     RDKit          3D

 26 27  0  0  1  0  0  0  0  0999 V2000
    7.9513  -17.0032   19.6037 N   0  0  0  0  0  0  0  0  0  0  0  0
    7.8125  -15.7625   20.3256 C   0  0  1  0  0  0  0  0  0  0  0  0
    6.9588  -14.8253   19.5203 C   0  0  0  0  0  0  0  0  0  0  0  0
    7.6075  -14.4032   18.2532 C   0  0  0  0  0  0  0  0  0  0  0  0
    8.8243  -14.8077   17.7583 C   0  0  0  0  0  0  0  0  0  0  0  0
    8.9976  -14.1660   16.5800 N   0  0  0  0  0  0  0  0  0  0  0  0
    7.9356  -13.3874   16.3375 C   0  0  0  0  0  0  0  0  0  0  0  0
    7.0955  -13.5395   17.3638 N   0  0  0  0  0  0  0  0  0  0  0  0
    7.2346  -15.9353   21.6637 C   0  0  0  0  0  0  0  0  0  0  0  0
    6.1033  -16.4488   21.7920 O   0  0  0  0  0  0  0  0  0  0  0  0
    6.6890  -16.3371   26.6335 N   0  0  0  0  0  0  0  0  0  0  0  0
    6.7861  -17.4545   25.7748 C   0  0  0  0  0  0  0  0  0  0  0  0
    6.5275  -18.6411   26.1232 O   0  0  0  0  0  0  0  0  0  0  0  0
    7.2256  -17.2287   24.3605 C   0  0  0  0  0  0  0  0  0  0  0  0
    7.4921  -15.7491   24.1669 C   0  0  2  0  0  0  0  0  0  0  0  0
    7.9644  -15.5212   22.8333 N   0  0  0  0  0  0  0  0  0  0  0  0
    8.3549  -15.1510   25.1717 C   0  0  0  0  0  0  0  0  0  0  0  0
    9.6236  -15.4416   24.9641 O   0  0  0  0  0  0  0  0  0  0  0  0
    8.0585  -14.3512   26.2729 N   0  0  0  0  0  0  0  0  0  0  0  0
    6.7023  -14.0273   26.7171 C   0  0  0  0  0  0  0  0  0  0  0  0
    6.8493  -12.5056   26.8020 C   0  0  0  0  0  0  0  0  0  0  0  0
    8.1380  -12.4019   27.6128 C   0  0  0  0  0  0  0  0  0  0  0  0
    8.9149  -13.6709   27.1940 C   0  0  1  0  0  0  0  0  0  0  0  0
    9.0702  -14.5486   28.3891 C   0  0  0  0  0  0  0  0  0  0  0  0
    8.3376  -15.5684   28.4511 O   0  0  0  0  0  0  0  0  0  0  0  0
    9.9559  -14.3156   29.4199 O   0  0  0  0  0  0  0  0  0  0  0  0
  2  3  1  0
  2  1  1  6
  4  3  1  0
  5  4  2  0
  6  5  1  0
  7  6  1  0
  7  8  2  0
  8  4  1  0
  9  2  1  0
  9 10  2  0
 11 12  1  0
 12 14  1  0
 13 12  2  0
 15 14  1  1
 15 16  1  0
 16  9  1  0
 17 15  1  0
 18 17  2  0
 19 17  1  0
 19 20  1  0
 20 21  1  0
 22 21  1  0
 23 19  1  0
 23 22  1  0
 23 24  1  1
 25 24  2  0
 26 24  1  0
M  END
$$$$
