HNP.pdb
     RDKit          3D

 26 27  0  0  1  0  0  0  0  0999 V2000
    7.2696  -16.5370   19.7180 N   0  0  0  0  0  0  0  0  0  0  0  0
    7.5717  -15.4799   20.6513 C   0  0  1  0  0  0  0  0  0  0  0  0
    7.0271  -14.1875   20.1136 C   0  0  0  0  0  0  0  0  0  0  0  0
    7.6297  -13.8086   18.8107 C   0  0  0  0  0  0  0  0  0  0  0  0
    8.5919  -12.8552   18.5768 C   0  0  0  0  0  0  0  0  0  0  0  0
    8.8316  -12.8631   17.2454 N   0  0  0  0  0  0  0  0  0  0  0  0
    8.0545  -13.7826   16.6592 C   0  0  0  0  0  0  0  0  0  0  0  0
    7.3262  -14.3518   17.6224 N   0  0  0  0  0  0  0  0  0  0  0  0
    7.0335  -15.7251   21.9946 C   0  0  0  0  0  0  0  0  0  0  0  0
    5.8804  -16.1860   22.1291 O   0  0  0  0  0  0  0  0  0  0  0  0
    7.6567  -18.9956   26.3883 N   0  0  0  0  0  0  0  0  0  0  0  0
    7.0097  -17.8554   25.8624 C   0  0  0  0  0  0  0  0  0  0  0  0
    6.1359  -17.1866   26.4832 O   0  0  0  0  0  0  0  0  0  0  0  0
    7.3739  -17.4046   24.4809 C   0  0  0  0  0  0  0  0  0  0  0  0
    7.4681  -15.8917   24.4746 C   0  0  2  0  0  0  0  0  0  0  0  0
    7.8270  -15.4428   23.1619 N   0  0  0  0  0  0  0  0  0  0  0  0
    8.3247  -15.3324   25.5066 C   0  0  0  0  0  0  0  0  0  0  0  0
    9.5747  -15.7290   25.3743 O   0  0  0  0  0  0  0  0  0  0  0  0
    8.0388  -14.4771   26.5683 N   0  0  0  0  0  0  0  0  0  0  0  0
    6.6882  -14.1698   27.0404 C   0  0  0  0  0  0  0  0  0  0  0  0
    6.7869  -12.6419   27.0295 C   0  0  0  0  0  0  0  0  0  0  0  0
    8.0979  -12.4488   27.7863 C   0  0  0  0  0  0  0  0  0  0  0  0
    8.9025  -13.7157   27.4163 C   0  0  1  0  0  0  0  0  0  0  0  0
    9.1272  -14.5141   28.6551 C   0  0  0  0  0  0  0  0  0  0  0  0
    9.8908  -14.0221   29.5242 O   0  0  0  0  0  0  0  0  0  0  0  0
    8.5579  -15.7447   28.9056 O   0  0  0  0  0  0  0  0  0  0  0  0
  2  3  1  0
  2  1  1  6
  4  3  1  0
  5  4  2  0
  6  5  1  0
  7  6  1  0
  7  8  2  0
  8  4  1  0
  9  2  1  0
  9 10  2  0
 11 12  1  0
 12 14  1  0
 13 12  2  0
 15 14  1  6
 15 16  1  0
 16  9  1  0
 17 15  1  0
 18 17  2  0
 19 17  1  0
 19 20  1  0
 20 21  1  0
 22 21  1  0
 23 19  1  0
 23 22  1  0
 23 24  1  1
 25 24  2  0
 26 24  1  0
M  END
$$$$
