HNP.pdb
     RDKit          3D

 26 27  0  0  1  0  0  0  0  0999 V2000
    8.7133  -15.7336   20.5307 N   0  0  0  0  0  0  0  0  0  0  0  0
    8.1656  -14.5616   21.1678 C   0  0  1  0  0  0  0  0  0  0  0  0
    7.0869  -13.9921   20.2915 C   0  0  0  0  0  0  0  0  0  0  0  0
    7.5378  -13.7751   18.8936 C   0  0  0  0  0  0  0  0  0  0  0  0
    8.1809  -12.6739   18.3808 C   0  0  0  0  0  0  0  0  0  0  0  0
    8.3957  -12.9249   17.0689 N   0  0  0  0  0  0  0  0  0  0  0  0
    7.9095  -14.1342   16.7622 C   0  0  0  0  0  0  0  0  0  0  0  0
    7.3887  -14.6426   17.8815 N   0  0  0  0  0  0  0  0  0  0  0  0
    7.6274  -14.8310   22.5065 C   0  0  0  0  0  0  0  0  0  0  0  0
    6.3943  -14.9423   22.6713 O   0  0  0  0  0  0  0  0  0  0  0  0
    7.5086  -18.6626   26.1932 N   0  0  0  0  0  0  0  0  0  0  0  0
    6.9036  -17.4166   25.9163 C   0  0  0  0  0  0  0  0  0  0  0  0
    6.1104  -16.8235   26.7008 O   0  0  0  0  0  0  0  0  0  0  0  0
    7.2136  -16.7496   24.6111 C   0  0  0  0  0  0  0  0  0  0  0  0
    8.0974  -15.5478   24.8797 C   0  0  2  0  0  0  0  0  0  0  0  0
    8.5111  -14.9734   23.6338 N   0  0  0  0  0  0  0  0  0  0  0  0
    9.2156  -15.8036   25.7720 C   0  0  0  0  0  0  0  0  0  0  0  0
   10.1101  -16.5996   25.2211 O   0  0  0  0  0  0  0  0  0  0  0  0
    9.4754  -15.3547   27.0647 N   0  0  0  0  0  0  0  0  0  0  0  0
    8.4899  -14.6984   27.9246 C   0  0  0  0  0  0  0  0  0  0  0  0
    9.3121  -13.4660   28.3114 C   0  0  0  0  0  0  0  0  0  0  0  0
   10.6160  -14.1330   28.7404 C   0  0  0  0  0  0  0  0  0  0  0  0
   10.6721  -15.3929   27.8466 C   0  0  1  0  0  0  0  0  0  0  0  0
   10.5948  -16.5985   28.7202 C   0  0  0  0  0  0  0  0  0  0  0  0
    9.4846  -17.1839   28.7935 O   0  0  0  0  0  0  0  0  0  0  0  0
   11.6515  -17.1069   29.4456 O   0  0  0  0  0  0  0  0  0  0  0  0
  2  3  1  0
  2  1  1  6
  4  3  1  0
  5  4  2  0
  6  5  1  0
  7  6  1  0
  7  8  2  0
  8  4  1  0
  9  2  1  0
  9 10  2  0
 11 12  1  0
 12 14  1  0
 13 12  2  0
 15 14  1  6
 15 16  1  0
 16  9  1  0
 17 15  1  0
 18 17  2  0
 19 17  1  0
 19 20  1  0
 20 21  1  0
 22 21  1  0
 23 19  1  0
 23 22  1  0
 23 24  1  1
 25 24  2  0
 26 24  1  0
M  END
$$$$
