HNP.pdb
     RDKit          3D

 26 27  0  0  1  0  0  0  0  0999 V2000
    8.9586  -17.1184   19.6614 N   0  0  0  0  0  0  0  0  0  0  0  0
    9.6395  -16.6142   20.8284 C   0  0  1  0  0  0  0  0  0  0  0  0
   10.6797  -15.6222   20.3926 C   0  0  0  0  0  0  0  0  0  0  0  0
   11.8257  -16.2603   19.6969 C   0  0  0  0  0  0  0  0  0  0  0  0
   13.0122  -16.6822   20.2478 C   0  0  0  0  0  0  0  0  0  0  0  0
   13.7470  -17.2015   19.2375 N   0  0  0  0  0  0  0  0  0  0  0  0
   13.0560  -17.1128   18.0940 C   0  0  0  0  0  0  0  0  0  0  0  0
   11.8873  -16.5373   18.3860 N   0  0  0  0  0  0  0  0  0  0  0  0
    8.7337  -15.9897   21.7999 C   0  0  0  0  0  0  0  0  0  0  0  0
    8.0988  -14.9605   21.4874 O   0  0  0  0  0  0  0  0  0  0  0  0
    6.0539  -17.0346   22.3120 N   0  0  0  0  0  0  0  0  0  0  0  0
    5.9225  -17.5770   23.6097 C   0  0  0  0  0  0  0  0  0  0  0  0
    5.0901  -18.4746   23.9221 O   0  0  0  0  0  0  0  0  0  0  0  0
    6.8207  -17.0596   24.6913 C   0  0  0  0  0  0  0  0  0  0  0  0
    7.7108  -15.9809   24.1065 C   0  0  2  0  0  0  0  0  0  0  0  0
    8.5665  -16.5574   23.1121 N   0  0  0  0  0  0  0  0  0  0  0  0
    8.4463  -15.2022   25.0886 C   0  0  0  0  0  0  0  0  0  0  0  0
    9.7484  -15.3698   24.9716 O   0  0  0  0  0  0  0  0  0  0  0  0
    8.0042  -14.3419   26.0910 N   0  0  0  0  0  0  0  0  0  0  0  0
    6.5966  -14.0663   26.3810 C   0  0  0  0  0  0  0  0  0  0  0  0
    6.6563  -12.5365   26.3584 C   0  0  0  0  0  0  0  0  0  0  0  0
    7.8536  -12.2977   27.2740 C   0  0  0  0  0  0  0  0  0  0  0  0
    8.7316  -13.5464   27.0305 C   0  0  1  0  0  0  0  0  0  0  0  0
    8.8156  -14.3227   28.3005 C   0  0  0  0  0  0  0  0  0  0  0  0
    9.5526  -13.8604   29.2080 O   0  0  0  0  0  0  0  0  0  0  0  0
    8.1445  -15.5031   28.5406 O   0  0  0  0  0  0  0  0  0  0  0  0
  2  3  1  0
  2  1  1  6
  4  3  1  0
  5  4  2  0
  6  5  1  0
  7  6  1  0
  7  8  2  0
  8  4  1  0
  9  2  1  0
  9 10  2  0
 11 12  1  0
 12 14  1  0
 13 12  2  0
 15 14  1  1
 15 16  1  0
 16  9  1  0
 17 15  1  0
 18 17  2  0
 19 17  1  0
 19 20  1  0
 20 21  1  0
 22 21  1  0
 23 19  1  0
 23 22  1  0
 23 24  1  1
 25 24  2  0
 26 24  1  0
M  END
$$$$
