HNP.pdb
     RDKit          3D

 26 27  0  0  1  0  0  0  0  0999 V2000
    8.8680  -15.8396   20.2626 N   0  0  0  0  0  0  0  0  0  0  0  0
    8.2098  -14.6918   20.8362 C   0  0  1  0  0  0  0  0  0  0  0  0
    7.0717  -14.2883   19.9430 C   0  0  0  0  0  0  0  0  0  0  0  0
    7.4808  -14.1399   18.5234 C   0  0  0  0  0  0  0  0  0  0  0  0
    8.1184  -13.0703   17.9415 C   0  0  0  0  0  0  0  0  0  0  0  0
    8.2896  -13.3828   16.6364 N   0  0  0  0  0  0  0  0  0  0  0  0
    7.7822  -14.5993   16.4002 C   0  0  0  0  0  0  0  0  0  0  0  0
    7.2917  -15.0505   17.5570 N   0  0  0  0  0  0  0  0  0  0  0  0
    7.7128  -14.9318   22.1962 C   0  0  0  0  0  0  0  0  0  0  0  0
    6.7676  -14.2488   22.6435 O   0  0  0  0  0  0  0  0  0  0  0  0
    6.3305  -18.2223   26.6265 N   0  0  0  0  0  0  0  0  0  0  0  0
    7.5780  -18.0003   26.0019 C   0  0  0  0  0  0  0  0  0  0  0  0
    8.6895  -18.0508   26.6003 O   0  0  0  0  0  0  0  0  0  0  0  0
    7.5939  -17.6811   24.5383 C   0  0  0  0  0  0  0  0  0  0  0  0
    7.8882  -16.2039   24.3683 C   0  0  2  0  0  0  0  0  0  0  0  0
    8.3039  -15.9536   23.0199 N   0  0  0  0  0  0  0  0  0  0  0  0
    8.8113  -15.6523   25.3457 C   0  0  0  0  0  0  0  0  0  0  0  0
   10.0665  -15.9010   25.0295 O   0  0  0  0  0  0  0  0  0  0  0  0
    8.5820  -14.9311   26.5152 N   0  0  0  0  0  0  0  0  0  0  0  0
    7.2596  -14.7038   27.0991 C   0  0  0  0  0  0  0  0  0  0  0  0
    7.3421  -13.1835   27.2612 C   0  0  0  0  0  0  0  0  0  0  0  0
    8.6947  -13.0573   27.9565 C   0  0  0  0  0  0  0  0  0  0  0  0
    9.4879  -14.2587   27.3937 C   0  0  1  0  0  0  0  0  0  0  0  0
    9.7956  -15.1917   28.5152 C   0  0  0  0  0  0  0  0  0  0  0  0
    9.0456  -16.1914   28.6521 O   0  0  0  0  0  0  0  0  0  0  0  0
   10.8384  -15.0297   29.4026 O   0  0  0  0  0  0  0  0  0  0  0  0
  2  3  1  0
  2  1  1  6
  4  3  1  0
  5  4  2  0
  6  5  1  0
  7  6  1  0
  7  8  2  0
  8  4  1  0
  9  2  1  0
  9 10  2  0
 11 12  1  0
 12 14  1  0
 13 12  2  0
 15 14  1  6
 15 16  1  0
 16  9  1  0
 17 15  1  0
 18 17  2  0
 19 17  1  0
 19 20  1  0
 20 21  1  0
 22 21  1  0
 23 19  1  0
 23 22  1  0
 23 24  1  1
 25 24  2  0
 26 24  1  0
M  END
$$$$
