RFF.pdb
     RDKit          3D

 34 35  0  0  1  0  0  0  0  0999 V2000
   27.6762  -17.7938  -21.6900 N   0  0  0  0  0  0  0  0  0  0  0  0
   26.7126  -17.0991  -20.8993 C   0  0  0  0  0  0  0  0  0  0  0  0
   25.9506  -16.2297  -21.4435 N   0  0  0  0  0  0  0  0  0  0  0  0
   26.5760  -17.3508  -19.5051 N   0  0  0  0  0  0  0  0  0  0  0  0
   26.4949  -18.6758  -18.9449 C   0  0  0  0  0  0  0  0  0  0  0  0
   25.2427  -19.3812  -19.3936 C   0  0  0  0  0  0  0  0  0  0  0  0
   24.7285  -20.3465  -18.3477 C   0  0  0  0  0  0  0  0  0  0  0  0
   25.8494  -21.1742  -17.7637 C   0  0  2  0  0  0  0  0  0  0  0  0
   26.1706  -22.3220  -18.5516 N   0  0  0  0  0  0  0  0  0  0  0  0
   25.4383  -21.5514  -16.3693 C   0  0  0  0  0  0  0  0  0  0  0  0
   24.5131  -22.3801  -16.1768 O   0  0  0  0  0  0  0  0  0  0  0  0
   25.2253  -15.7510  -20.8915 N   0  0  0  0  0  0  0  0  0  0  0  0
   26.0699  -20.9941  -15.2288 C   0  0  2  0  0  0  0  0  0  0  0  0
   25.6117  -21.1857  -13.8735 C   0  0  0  0  0  0  0  0  0  0  0  0
   26.6637  -20.7938  -12.8574 C   0  0  0  0  0  0  0  0  0  0  0  0
   26.1423  -20.8194  -11.4674 C   0  0  0  0  0  0  0  0  0  0  0  0
   25.8718  -19.6366  -10.7826 C   0  0  0  0  0  0  0  0  0  0  0  0
   25.3885  -19.6430   -9.4944 C   0  0  0  0  0  0  0  0  0  0  0  0
   25.1506  -20.8095   -8.8247 C   0  0  0  0  0  0  0  0  0  0  0  0
   25.4117  -21.9989   -9.4842 C   0  0  0  0  0  0  0  0  0  0  0  0
   25.8989  -21.9904  -10.7828 C   0  0  0  0  0  0  0  0  0  0  0  0
   24.4124  -20.3602  -13.5993 O   0  0  0  0  0  0  0  0  0  0  0  0
   24.4790  -19.1224  -13.7771 N   0  0  0  0  0  0  0  0  0  0  0  0
   23.1861  -20.9018  -13.1435 C   0  0  1  0  0  0  0  0  0  0  0  0
   22.0552  -20.0619  -12.7245 C   0  0  0  0  0  0  0  0  0  0  0  0
   21.6350  -19.2801  -13.9263 C   0  0  0  0  0  0  0  0  0  0  0  0
   20.9971  -20.0561  -14.9851 C   0  0  0  0  0  0  0  0  0  0  0  0
   21.6419  -20.2063  -16.1957 C   0  0  0  0  0  0  0  0  0  0  0  0
   21.0821  -20.9375  -17.2449 C   0  0  0  0  0  0  0  0  0  0  0  0
   19.8437  -21.5318  -17.0716 C   0  0  0  0  0  0  0  0  0  0  0  0
   19.1856  -21.3925  -15.8704 C   0  0  0  0  0  0  0  0  0  0  0  0
   19.7655  -20.6550  -14.8318 C   0  0  0  0  0  0  0  0  0  0  0  0
   21.0339  -20.9597  -12.1840 O   0  0  0  0  0  0  0  0  0  0  0  0
   19.8526  -20.5257  -11.5760 O   0  0  0  0  0  0  0  0  0  0  0  0
  2  3  2  0
  2  1  1  0
  4  2  1  0
  5  4  1  0
  6  7  1  0
  6  5  1  0
  8  9  1  6
  8  7  1  0
 10 12  1  0
 10  8  1  0
 11 10  2  0
 13 21  1  0
 13 14  1  1
 13 12  1  0
 15 16  2  0
 15 14  1  0
 17 16  1  0
 18 17  2  0
 19 18  1  0
 19 20  2  0
 20 15  1  0
 21 23  1  0
 22 21  2  0
 23 24  1  0
 24 25  1  1
 25 26  1  0
 26 27  2  0
 26 31  1  0
 27 28  1  0
 28 29  2  0
 30 29  1  0
 31 30  2  0
 32 33  1  0
 32 24  1  0
 34 32  2  0
M  END
$$$$
