RFF.pdb
     RDKit          3D

 34 35  0  0  1  0  0  0  0  0999 V2000
   22.2622  -34.9262  -19.6141 N   0  0  0  0  0  0  0  0  0  0  0  0
   23.3246  -35.8607  -19.4293 C   0  0  0  0  0  0  0  0  0  0  0  0
   23.4065  -36.8883  -20.1844 N   0  0  0  0  0  0  0  0  0  0  0  0
   24.3062  -35.6776  -18.4151 N   0  0  0  0  0  0  0  0  0  0  0  0
   24.3158  -34.5502  -17.5180 C   0  0  0  0  0  0  0  0  0  0  0  0
   25.2752  -33.4890  -17.9873 C   0  0  0  0  0  0  0  0  0  0  0  0
   25.4136  -32.3643  -16.9841 C   0  0  0  0  0  0  0  0  0  0  0  0
   24.6047  -31.1565  -17.3957 C   0  0  2  0  0  0  0  0  0  0  0  0
   25.3123  -30.2776  -18.2719 N   0  0  0  0  0  0  0  0  0  0  0  0
   24.1767  -30.4624  -16.1345 C   0  0  0  0  0  0  0  0  0  0  0  0
   24.9540  -29.6705  -15.5442 O   0  0  0  0  0  0  0  0  0  0  0  0
   24.1950  -37.5438  -20.0919 N   0  0  0  0  0  0  0  0  0  0  0  0
   22.8942  -30.6704  -15.5668 C   0  0  2  0  0  0  0  0  0  0  0  0
   22.4280  -30.0299  -14.3602 C   0  0  0  0  0  0  0  0  0  0  0  0
   21.0325  -29.4645  -14.5199 C   0  0  0  0  0  0  0  0  0  0  0  0
   20.5447  -28.8083  -13.2805 C   0  0  0  0  0  0  0  0  0  0  0  0
   21.0630  -27.5826  -12.8681 C   0  0  0  0  0  0  0  0  0  0  0  0
   20.6220  -26.9614  -11.7224 C   0  0  0  0  0  0  0  0  0  0  0  0
   19.6544  -27.5165  -10.9339 C   0  0  0  0  0  0  0  0  0  0  0  0
   19.1232  -28.7349  -11.3229 C   0  0  0  0  0  0  0  0  0  0  0  0
   19.5692  -29.3596  -12.4782 C   0  0  0  0  0  0  0  0  0  0  0  0
   22.3820  -30.9923  -13.2348 O   0  0  0  0  0  0  0  0  0  0  0  0
   21.9483  -32.1478  -13.4471 N   0  0  0  0  0  0  0  0  0  0  0  0
   22.8058  -30.6714  -11.9224 C   0  0  2  0  0  0  0  0  0  0  0  0
   22.8478  -31.6625  -10.8380 C   0  0  0  0  0  0  0  0  0  0  0  0
   23.8131  -31.1442   -9.8222 C   0  0  0  0  0  0  0  0  0  0  0  0
   24.0000  -31.9912   -8.6484 C   0  0  0  0  0  0  0  0  0  0  0  0
   24.9641  -32.9780   -8.6729 C   0  0  0  0  0  0  0  0  0  0  0  0
   25.1892  -33.8180   -7.5809 C   0  0  0  0  0  0  0  0  0  0  0  0
   24.4256  -33.6612   -6.4367 C   0  0  0  0  0  0  0  0  0  0  0  0
   23.4590  -32.6818   -6.3942 C   0  0  0  0  0  0  0  0  0  0  0  0
   23.2502  -31.8506   -7.5007 C   0  0  0  0  0  0  0  0  0  0  0  0
   21.4756  -31.8281  -10.3575 O   0  0  0  0  0  0  0  0  0  0  0  0
   20.4976  -30.8318  -10.4230 O   0  0  0  0  0  0  0  0  0  0  0  0
  2  3  2  0
  2  1  1  0
  4  2  1  0
  5  4  1  0
  6  7  1  0
  6  5  1  0
  8  9  1  6
  8  7  1  0
 10 12  1  0
 10  8  1  0
 11 10  2  0
 13 21  1  0
 13 14  1  6
 13 12  1  0
 15 16  2  0
 15 14  1  0
 17 16  1  0
 18 17  2  0
 19 18  1  0
 19 20  2  0
 20 15  1  0
 21 23  1  0
 22 21  2  0
 23 24  1  0
 24 25  1  1
 25 26  1  0
 26 27  2  0
 26 31  1  0
 27 28  1  0
 28 29  2  0
 30 29  1  0
 31 30  2  0
 32 33  1  0
 32 24  1  0
 34 32  2  0
M  END
$$$$
