RFF.pdb
     RDKit          3D

 34 35  0  0  1  0  0  0  0  0999 V2000
   17.5780  -14.5778  -17.1170 N   0  0  0  0  0  0  0  0  0  0  0  0
   18.0570  -14.6242  -15.7737 C   0  0  0  0  0  0  0  0  0  0  0  0
   18.1213  -15.7429  -15.1595 N   0  0  0  0  0  0  0  0  0  0  0  0
   18.4694  -13.4452  -15.0915 N   0  0  0  0  0  0  0  0  0  0  0  0
   18.7862  -12.2115  -15.7651 C   0  0  0  0  0  0  0  0  0  0  0  0
   19.4530  -12.4702  -17.0900 C   0  0  0  0  0  0  0  0  0  0  0  0
   19.9586  -11.1954  -17.7301 C   0  0  0  0  0  0  0  0  0  0  0  0
   18.8186  -10.3469  -18.2428 C   0  0  2  0  0  0  0  0  0  0  0  0
   18.4302  -10.6739  -19.5782 N   0  0  0  0  0  0  0  0  0  0  0  0
   19.2476   -8.9127  -18.1213 C   0  0  0  0  0  0  0  0  0  0  0  0
   20.1718   -8.4578  -18.8416 O   0  0  0  0  0  0  0  0  0  0  0  0
   18.4771  -15.7902  -14.1945 N   0  0  0  0  0  0  0  0  0  0  0  0
   18.6345   -8.0260  -17.2003 C   0  0  2  0  0  0  0  0  0  0  0  0
   19.0350   -6.6527  -17.0077 C   0  0  0  0  0  0  0  0  0  0  0  0
   17.8641   -5.6989  -17.1165 C   0  0  0  0  0  0  0  0  0  0  0  0
   17.4134   -5.5170  -18.5195 C   0  0  0  0  0  0  0  0  0  0  0  0
   18.0715   -4.6348  -19.3739 C   0  0  0  0  0  0  0  0  0  0  0  0
   17.6666   -4.4546  -20.6765 C   0  0  0  0  0  0  0  0  0  0  0  0
   16.5997   -5.1322  -21.1949 C   0  0  0  0  0  0  0  0  0  0  0  0
   15.9290   -6.0151  -20.3652 C   0  0  0  0  0  0  0  0  0  0  0  0
   16.3387   -6.1953  -19.0523 C   0  0  0  0  0  0  0  0  0  0  0  0
   19.6310   -6.4593  -15.6652 O   0  0  0  0  0  0  0  0  0  0  0  0
   19.0474   -6.9474  -14.6704 N   0  0  0  0  0  0  0  0  0  0  0  0
   20.8346   -5.7462  -15.4467 C   0  0  1  0  0  0  0  0  0  0  0  0
   21.4186   -5.5667  -14.1100 C   0  0  0  0  0  0  0  0  0  0  0  0
   22.7619   -6.2201  -14.1390 C   0  0  0  0  0  0  0  0  0  0  0  0
   22.7523   -7.6578  -14.3903 C   0  0  0  0  0  0  0  0  0  0  0  0
   23.0873   -8.1277  -15.6435 C   0  0  0  0  0  0  0  0  0  0  0  0
   23.0966   -9.4911  -15.9430 C   0  0  0  0  0  0  0  0  0  0  0  0
   22.7606  -10.4037  -14.9575 C   0  0  0  0  0  0  0  0  0  0  0  0
   22.4235   -9.9530  -13.7010 C   0  0  0  0  0  0  0  0  0  0  0  0
   22.4208   -8.5814  -13.4226 C   0  0  0  0  0  0  0  0  0  0  0  0
   21.4375   -4.1283  -13.8420 O   0  0  0  0  0  0  0  0  0  0  0  0
   21.8954   -3.5600  -12.6501 O   0  0  0  0  0  0  0  0  0  0  0  0
  2  3  2  0
  2  1  1  0
  4  2  1  0
  5  4  1  0
  6  7  1  0
  6  5  1  0
  8  9  1  6
  8  7  1  0
 10 12  1  0
 10  8  1  0
 11 10  2  0
 13 21  1  0
 13 14  1  6
 13 12  1  0
 15 16  2  0
 15 14  1  0
 17 16  1  0
 18 17  2  0
 19 18  1  0
 19 20  2  0
 20 15  1  0
 21 23  1  0
 22 21  2  0
 23 24  1  0
 24 25  1  1
 25 26  1  0
 26 27  2  0
 26 31  1  0
 27 28  1  0
 28 29  2  0
 30 29  1  0
 31 30  2  0
 32 33  1  0
 32 24  1  0
 34 32  2  0
M  END
$$$$
