RFF.pdb
     RDKit          3D

 34 35  0  0  1  0  0  0  0  0999 V2000
   24.0866  -23.8968  -15.6493 N   0  0  0  0  0  0  0  0  0  0  0  0
   24.7659  -25.1502  -15.7109 C   0  0  0  0  0  0  0  0  0  0  0  0
   24.4612  -26.0800  -14.8891 N   0  0  0  0  0  0  0  0  0  0  0  0
   25.7852  -25.3954  -16.6734 N   0  0  0  0  0  0  0  0  0  0  0  0
   26.1990  -24.4228  -17.6526 C   0  0  0  0  0  0  0  0  0  0  0  0
   27.6090  -23.9601  -17.3985 C   0  0  0  0  0  0  0  0  0  0  0  0
   27.6521  -22.7116  -16.5443 C   0  0  0  0  0  0  0  0  0  0  0  0
   27.1403  -21.5085  -17.3012 C   0  0  2  0  0  0  0  0  0  0  0  0
   28.0288  -21.0724  -18.3316 N   0  0  0  0  0  0  0  0  0  0  0  0
   26.8845  -20.4278  -16.2901 C   0  0  0  0  0  0  0  0  0  0  0  0
   27.4763  -20.4356  -15.1812 O   0  0  0  0  0  0  0  0  0  0  0  0
   24.8717  -27.0191  -14.9862 N   0  0  0  0  0  0  0  0  0  0  0  0
   25.9762  -19.3690  -16.5433 C   0  0  2  0  0  0  0  0  0  0  0  0
   24.5434  -19.4799  -16.4076 C   0  0  0  0  0  0  0  0  0  0  0  0
   23.9109  -20.1627  -17.6019 C   0  0  0  0  0  0  0  0  0  0  0  0
   23.8156  -19.2643  -18.7801 C   0  0  0  0  0  0  0  0  0  0  0  0
   24.3085  -19.6583  -20.0223 C   0  0  0  0  0  0  0  0  0  0  0  0
   24.2280  -18.8378  -21.1238 C   0  0  0  0  0  0  0  0  0  0  0  0
   23.6609  -17.5971  -21.0526 C   0  0  0  0  0  0  0  0  0  0  0  0
   23.1635  -17.1825  -19.8285 C   0  0  0  0  0  0  0  0  0  0  0  0
   23.2456  -18.0111  -18.7192 C   0  0  0  0  0  0  0  0  0  0  0  0
   24.1860  -20.2763  -15.2106 O   0  0  0  0  0  0  0  0  0  0  0  0
   24.5403  -21.4762  -15.1570 N   0  0  0  0  0  0  0  0  0  0  0  0
   23.4594  -19.7476  -14.1163 C   0  0  1  0  0  0  0  0  0  0  0  0
   23.1170  -20.5468  -12.9314 C   0  0  0  0  0  0  0  0  0  0  0  0
   23.3405  -19.6680  -11.7438 C   0  0  0  0  0  0  0  0  0  0  0  0
   22.8800  -20.2104  -10.4695 C   0  0  0  0  0  0  0  0  0  0  0  0
   23.7744  -20.8714   -9.6530 C   0  0  0  0  0  0  0  0  0  0  0  0
   23.3927  -21.4105   -8.4232 C   0  0  0  0  0  0  0  0  0  0  0  0
   22.0792  -21.2814   -8.0051 C   0  0  0  0  0  0  0  0  0  0  0  0
   21.1727  -20.6249   -8.8068 C   0  0  0  0  0  0  0  0  0  0  0  0
   21.5771  -20.0920  -10.0362 C   0  0  0  0  0  0  0  0  0  0  0  0
   21.7389  -21.0055  -13.1093 O   0  0  0  0  0  0  0  0  0  0  0  0
   21.2537  -22.2283  -12.6374 O   0  0  0  0  0  0  0  0  0  0  0  0
  2  3  2  0
  2  1  1  0
  4  2  1  0
  5  4  1  0
  6  7  1  0
  6  5  1  0
  8  9  1  6
  8  7  1  0
 10 12  1  0
 10  8  1  0
 11 10  2  0
 13 21  1  0
 13 14  1  6
 13 12  1  0
 15 16  2  0
 15 14  1  0
 17 16  1  0
 18 17  2  0
 19 18  1  0
 19 20  2  0
 20 15  1  0
 21 23  1  0
 22 21  2  0
 23 24  1  0
 24 25  1  6
 25 26  1  0
 26 27  2  0
 26 31  1  0
 27 28  1  0
 28 29  2  0
 30 29  1  0
 31 30  2  0
 32 33  1  0
 32 24  1  0
 34 32  2  0
M  END
$$$$
