RFF.pdb
     RDKit          3D

 34 35  0  0  1  0  0  0  0  0999 V2000
   30.3713  -20.6986  -20.5474 N   0  0  0  0  0  0  0  0  0  0  0  0
   30.2363  -19.3201  -20.2040 C   0  0  0  0  0  0  0  0  0  0  0  0
   30.6745  -18.4207  -20.9989 N   0  0  0  0  0  0  0  0  0  0  0  0
   29.6203  -18.9153  -18.9866 N   0  0  0  0  0  0  0  0  0  0  0  0
   29.0199  -19.8395  -18.0584 C   0  0  0  0  0  0  0  0  0  0  0  0
   27.5850  -20.1185  -18.4190 C   0  0  0  0  0  0  0  0  0  0  0  0
   26.7475  -20.4494  -17.2027 C   0  0  0  0  0  0  0  0  0  0  0  0
   27.2716  -21.6737  -16.4896 C   0  0  2  0  0  0  0  0  0  0  0  0
   27.1771  -22.8647  -17.2731 N   0  0  0  0  0  0  0  0  0  0  0  0
   26.5109  -21.7919  -15.2000 C   0  0  0  0  0  0  0  0  0  0  0  0
   25.4216  -22.4173  -15.1544 O   0  0  0  0  0  0  0  0  0  0  0  0
   30.5646  -17.4227  -20.7710 N   0  0  0  0  0  0  0  0  0  0  0  0
   26.9858  -21.2096  -13.9976 C   0  0  2  0  0  0  0  0  0  0  0  0
   26.2722  -21.2433  -12.7434 C   0  0  0  0  0  0  0  0  0  0  0  0
   27.1015  -20.6919  -11.6029 C   0  0  0  0  0  0  0  0  0  0  0  0
   26.3337  -20.6120  -10.3345 C   0  0  0  0  0  0  0  0  0  0  0  0
   25.7952  -21.7566   -9.7506 C   0  0  0  0  0  0  0  0  0  0  0  0
   25.0813  -21.6997   -8.5757 C   0  0  0  0  0  0  0  0  0  0  0  0
   24.8662  -20.5180   -7.9251 C   0  0  0  0  0  0  0  0  0  0  0  0
   25.3916  -19.3659   -8.4858 C   0  0  0  0  0  0  0  0  0  0  0  0
   26.1109  -19.4253   -9.6702 C   0  0  0  0  0  0  0  0  0  0  0  0
   25.0364  -20.4294  -12.8165 O   0  0  0  0  0  0  0  0  0  0  0  0
   25.1187  -19.2419  -13.2055 N   0  0  0  0  0  0  0  0  0  0  0  0
   23.7580  -20.9279  -12.4669 C   0  0  1  0  0  0  0  0  0  0  0  0
   22.5205  -20.1696  -12.6988 C   0  0  0  0  0  0  0  0  0  0  0  0
   22.4099  -19.9731  -14.1758 C   0  0  0  0  0  0  0  0  0  0  0  0
   21.1681  -19.3576  -14.6331 C   0  0  0  0  0  0  0  0  0  0  0  0
   21.1021  -17.9859  -14.7664 C   0  0  0  0  0  0  0  0  0  0  0  0
   19.9425  -17.3408  -15.1999 C   0  0  0  0  0  0  0  0  0  0  0  0
   18.8223  -18.0944  -15.5067 C   0  0  0  0  0  0  0  0  0  0  0  0
   18.8697  -19.4644  -15.3796 C   0  0  0  0  0  0  0  0  0  0  0  0
   20.0429  -20.0905  -14.9432 C   0  0  0  0  0  0  0  0  0  0  0  0
   21.4304  -20.9364  -12.0947 O   0  0  0  0  0  0  0  0  0  0  0  0
   20.3489  -20.3620  -11.4211 O   0  0  0  0  0  0  0  0  0  0  0  0
  2  3  2  0
  2  1  1  0
  4  2  1  0
  5  4  1  0
  6  7  1  0
  6  5  1  0
  8  9  1  6
  8  7  1  0
 10 12  1  0
 10  8  1  0
 11 10  2  0
 13 21  1  0
 13 14  1  1
 13 12  1  0
 15 16  2  0
 15 14  1  0
 17 16  1  0
 18 17  2  0
 19 18  1  0
 19 20  2  0
 20 15  1  0
 21 23  1  0
 22 21  2  0
 23 24  1  0
 24 25  1  1
 25 26  1  0
 26 27  2  0
 26 31  1  0
 27 28  1  0
 28 29  2  0
 30 29  1  0
 31 30  2  0
 32 33  1  0
 32 24  1  0
 34 32  2  0
M  END
$$$$
