RFF.pdb
     RDKit          3D

 34 35  0  0  1  0  0  0  0  0999 V2000
   24.7742  -25.8886  -16.4905 N   0  0  0  0  0  0  0  0  0  0  0  0
   24.2413  -26.0668  -17.8022 C   0  0  0  0  0  0  0  0  0  0  0  0
   23.1468  -26.7065  -17.9627 N   0  0  0  0  0  0  0  0  0  0  0  0
   24.9033  -25.5460  -18.9494 N   0  0  0  0  0  0  0  0  0  0  0  0
   26.0822  -24.7209  -18.8758 C   0  0  0  0  0  0  0  0  0  0  0  0
   25.7248  -23.2831  -18.6078 C   0  0  0  0  0  0  0  0  0  0  0  0
   25.6449  -22.9841  -17.1264 C   0  0  0  0  0  0  0  0  0  0  0  0
   27.0185  -22.7835  -16.5302 C   0  0  2  0  0  0  0  0  0  0  0  0
   27.9420  -23.8141  -16.8855 N   0  0  0  0  0  0  0  0  0  0  0  0
   26.8422  -22.6803  -15.0423 C   0  0  0  0  0  0  0  0  0  0  0  0
   26.5757  -23.6997  -14.3570 O   0  0  0  0  0  0  0  0  0  0  0  0
   22.7826  -26.8910  -18.9078 N   0  0  0  0  0  0  0  0  0  0  0  0
   26.9679  -21.4437  -14.3601 C   0  0  2  0  0  0  0  0  0  0  0  0
   26.8792  -21.2957  -12.9270 C   0  0  0  0  0  0  0  0  0  0  0  0
   27.6397  -20.0832  -12.4331 C   0  0  0  0  0  0  0  0  0  0  0  0
   27.5893  -19.9494  -10.9552 C   0  0  0  0  0  0  0  0  0  0  0  0
   28.5447  -20.5632  -10.1480 C   0  0  0  0  0  0  0  0  0  0  0  0
   28.5122  -20.4492   -8.7772 C   0  0  0  0  0  0  0  0  0  0  0  0
   27.5414  -19.7284   -8.1415 C   0  0  0  0  0  0  0  0  0  0  0  0
   26.5801  -19.1085   -8.9223 C   0  0  0  0  0  0  0  0  0  0  0  0
   26.6146  -19.2248  -10.3040 C   0  0  0  0  0  0  0  0  0  0  0  0
   25.4706  -21.1304  -12.4989 O   0  0  0  0  0  0  0  0  0  0  0  0
   24.7453  -20.3153  -13.1135 N   0  0  0  0  0  0  0  0  0  0  0  0
   24.8976  -21.8514  -11.4234 C   0  0  2  0  0  0  0  0  0  0  0  0
   23.4875  -21.7080  -11.0344 C   0  0  0  0  0  0  0  0  0  0  0  0
   23.2224  -22.7492   -9.9962 C   0  0  0  0  0  0  0  0  0  0  0  0
   21.8442  -22.8214   -9.5212 C   0  0  0  0  0  0  0  0  0  0  0  0
   20.8424  -23.1718  -10.4029 C   0  0  0  0  0  0  0  0  0  0  0  0
   19.5066  -23.2581  -10.0067 C   0  0  0  0  0  0  0  0  0  0  0  0
   19.1709  -22.9852   -8.6915 C   0  0  0  0  0  0  0  0  0  0  0  0
   20.1574  -22.6339   -7.7976 C   0  0  0  0  0  0  0  0  0  0  0  0
   21.4904  -22.5535   -8.2165 C   0  0  0  0  0  0  0  0  0  0  0  0
   23.3071  -20.3274  -10.5843 O   0  0  0  0  0  0  0  0  0  0  0  0
   22.2091  -19.5311  -10.9218 O   0  0  0  0  0  0  0  0  0  0  0  0
  2  3  2  0
  2  1  1  0
  4  2  1  0
  5  4  1  0
  6  7  1  0
  6  5  1  0
  8  9  1  1
  8  7  1  0
 10 12  1  0
 10  8  1  0
 11 10  2  0
 13 21  1  0
 13 14  1  6
 13 12  1  0
 15 16  2  0
 15 14  1  0
 17 16  1  0
 18 17  2  0
 19 18  1  0
 19 20  2  0
 20 15  1  0
 21 23  1  0
 22 21  2  0
 23 24  1  0
 24 25  1  1
 25 26  1  0
 26 27  2  0
 26 31  1  0
 27 28  1  0
 28 29  2  0
 30 29  1  0
 31 30  2  0
 32 33  1  0
 32 24  1  0
 34 32  2  0
M  END
$$$$
