RFF.pdb
     RDKit          3D

 34 35  0  0  1  0  0  0  0  0999 V2000
   27.3853  -19.5285  -20.7659 N   0  0  0  0  0  0  0  0  0  0  0  0
   28.6721  -19.6841  -20.1690 C   0  0  0  0  0  0  0  0  0  0  0  0
   29.5535  -18.7697  -20.3099 N   0  0  0  0  0  0  0  0  0  0  0  0
   29.0044  -20.8432  -19.4129 N   0  0  0  0  0  0  0  0  0  0  0  0
   28.0699  -21.9062  -19.1430 C   0  0  0  0  0  0  0  0  0  0  0  0
   26.8220  -21.3803  -18.4852 C   0  0  0  0  0  0  0  0  0  0  0  0
   26.3296  -22.2967  -17.3861 C   0  0  0  0  0  0  0  0  0  0  0  0
   27.2893  -22.3229  -16.2196 C   0  0  2  0  0  0  0  0  0  0  0  0
   28.1562  -23.4585  -16.2296 N   0  0  0  0  0  0  0  0  0  0  0  0
   26.4625  -22.2625  -14.9673 C   0  0  0  0  0  0  0  0  0  0  0  0
   25.8253  -23.2712  -14.5717 O   0  0  0  0  0  0  0  0  0  0  0  0
   30.4859  -18.8721  -19.8855 N   0  0  0  0  0  0  0  0  0  0  0  0
   26.3690  -21.0796  -14.1912 C   0  0  2  0  0  0  0  0  0  0  0  0
   25.5930  -20.9640  -12.9796 C   0  0  0  0  0  0  0  0  0  0  0  0
   26.2221  -20.0047  -11.9915 C   0  0  0  0  0  0  0  0  0  0  0  0
   27.5250  -20.4981  -11.4779 C   0  0  0  0  0  0  0  0  0  0  0  0
   28.6882  -20.3666  -12.2334 C   0  0  0  0  0  0  0  0  0  0  0  0
   29.9032  -20.8184  -11.7722 C   0  0  0  0  0  0  0  0  0  0  0  0
   30.0275  -21.4178  -10.5510 C   0  0  0  0  0  0  0  0  0  0  0  0
   28.8853  -21.5602   -9.7810 C   0  0  0  0  0  0  0  0  0  0  0  0
   27.6614  -21.1041  -10.2477 C   0  0  0  0  0  0  0  0  0  0  0  0
   24.2311  -20.4585  -13.2706 O   0  0  0  0  0  0  0  0  0  0  0  0
   24.1066  -19.4387  -13.9867 N   0  0  0  0  0  0  0  0  0  0  0  0
   23.0544  -21.0730  -12.7777 C   0  0  1  0  0  0  0  0  0  0  0  0
   21.7072  -20.5975  -13.1228 C   0  0  0  0  0  0  0  0  0  0  0  0
   21.3438  -21.2460  -14.4188 C   0  0  0  0  0  0  0  0  0  0  0  0
   21.2880  -22.7042  -14.3940 C   0  0  0  0  0  0  0  0  0  0  0  0
   22.3881  -23.4302  -14.8019 C   0  0  0  0  0  0  0  0  0  0  0  0
   22.3940  -24.8262  -14.7995 C   0  0  0  0  0  0  0  0  0  0  0  0
   21.2658  -25.5079  -14.3763 C   0  0  0  0  0  0  0  0  0  0  0  0
   20.1587  -24.8000  -13.9657 C   0  0  0  0  0  0  0  0  0  0  0  0
   20.1745  -23.4005  -13.9762 C   0  0  0  0  0  0  0  0  0  0  0  0
   20.8343  -20.9345  -11.9977 O   0  0  0  0  0  0  0  0  0  0  0  0
   21.2211  -21.7348  -10.9191 O   0  0  0  0  0  0  0  0  0  0  0  0
  2  3  2  0
  2  1  1  0
  4  2  1  0
  5  4  1  0
  6  7  1  0
  6  5  1  0
  8  9  1  1
  8  7  1  0
 10 12  1  0
 10  8  1  0
 11 10  2  0
 13 21  1  0
 13 14  1  6
 13 12  1  0
 15 16  2  0
 15 14  1  0
 17 16  1  0
 18 17  2  0
 19 18  1  0
 19 20  2  0
 20 15  1  0
 21 23  1  0
 22 21  2  0
 23 24  1  0
 24 25  1  1
 25 26  1  0
 26 27  2  0
 26 31  1  0
 27 28  1  0
 28 29  2  0
 30 29  1  0
 31 30  2  0
 32 33  1  0
 32 24  1  0
 34 32  2  0
M  END
$$$$
