RFF.pdb
     RDKit          3D

 34 35  0  0  1  0  0  0  0  0999 V2000
   22.6212  -20.4218  -18.3808 N   0  0  0  0  0  0  0  0  0  0  0  0
   22.7269  -19.0394  -18.7185 C   0  0  0  0  0  0  0  0  0  0  0  0
   22.1138  -18.5863  -19.7440 N   0  0  0  0  0  0  0  0  0  0  0  0
   23.5056  -18.1416  -17.9355 N   0  0  0  0  0  0  0  0  0  0  0  0
   24.1876  -18.5324  -16.7279 C   0  0  0  0  0  0  0  0  0  0  0  0
   25.2385  -19.5733  -17.0085 C   0  0  0  0  0  0  0  0  0  0  0  0
   26.2812  -19.6376  -15.9135 C   0  0  0  0  0  0  0  0  0  0  0  0
   26.7822  -21.0486  -15.7123 C   0  0  2  0  0  0  0  0  0  0  0  0
   26.0875  -22.0110  -16.5074 N   0  0  0  0  0  0  0  0  0  0  0  0
   26.6705  -21.3508  -14.2454 C   0  0  0  0  0  0  0  0  0  0  0  0
   25.7885  -22.1385  -13.8195 O   0  0  0  0  0  0  0  0  0  0  0  0
   22.2465  -17.6104  -20.0438 N   0  0  0  0  0  0  0  0  0  0  0  0
   27.5450  -20.7665  -13.2945 C   0  0  2  0  0  0  0  0  0  0  0  0
   27.3448  -20.8238  -11.8662 C   0  0  0  0  0  0  0  0  0  0  0  0
   28.4493  -20.1173  -11.1089 C   0  0  0  0  0  0  0  0  0  0  0  0
   28.2420  -20.1599   -9.6393 C   0  0  0  0  0  0  0  0  0  0  0  0
   28.7482  -21.2092   -8.8752 C   0  0  0  0  0  0  0  0  0  0  0  0
   28.5649  -21.2637   -7.5127 C   0  0  0  0  0  0  0  0  0  0  0  0
   27.8777  -20.2913   -6.8433 C   0  0  0  0  0  0  0  0  0  0  0  0
   27.3646  -19.2374   -7.5808 C   0  0  0  0  0  0  0  0  0  0  0  0
   27.5504  -19.1844   -8.9543 C   0  0  0  0  0  0  0  0  0  0  0  0
   26.0697  -20.1729  -11.4847 O   0  0  0  0  0  0  0  0  0  0  0  0
   25.7867  -19.0610  -11.9864 N   0  0  0  0  0  0  0  0  0  0  0  0
   25.1480  -20.7468  -10.5759 C   0  0  1  0  0  0  0  0  0  0  0  0
   23.8334  -20.1513  -10.2976 C   0  0  0  0  0  0  0  0  0  0  0  0
   22.9779  -20.4269  -11.4910 C   0  0  0  0  0  0  0  0  0  0  0  0
   21.5901  -19.9889  -11.3797 C   0  0  0  0  0  0  0  0  0  0  0  0
   20.5948  -20.9303  -11.2158 C   0  0  0  0  0  0  0  0  0  0  0  0
   19.2504  -20.5718  -11.1029 C   0  0  0  0  0  0  0  0  0  0  0  0
   18.8991  -19.2337  -11.1561 C   0  0  0  0  0  0  0  0  0  0  0  0
   19.8789  -18.2803  -11.3191 C   0  0  0  0  0  0  0  0  0  0  0  0
   21.2208  -18.6622  -11.4303 C   0  0  0  0  0  0  0  0  0  0  0  0
   23.3548  -20.7390   -9.0458 O   0  0  0  0  0  0  0  0  0  0  0  0
   23.9064  -21.8793   -8.4551 O   0  0  0  0  0  0  0  0  0  0  0  0
  2  3  2  0
  2  1  1  0
  4  2  1  0
  5  4  1  0
  6  7  1  0
  6  5  1  0
  8  9  1  6
  8  7  1  0
 10 12  1  0
 10  8  1  0
 11 10  2  0
 13 21  1  0
 13 14  1  6
 13 12  1  0
 15 16  2  0
 15 14  1  0
 17 16  1  0
 18 17  2  0
 19 18  1  0
 19 20  2  0
 20 15  1  0
 21 23  1  0
 22 21  2  0
 23 24  1  0
 24 25  1  1
 25 26  1  0
 26 27  2  0
 26 31  1  0
 27 28  1  0
 28 29  2  0
 30 29  1  0
 31 30  2  0
 32 33  1  0
 32 24  1  0
 34 32  2  0
M  END
$$$$
