RFF.pdb
     RDKit          3D

 34 35  0  0  1  0  0  0  0  0999 V2000
   28.5468  -18.7241  -17.3087 N   0  0  0  0  0  0  0  0  0  0  0  0
   28.1221  -17.4219  -16.9085 C   0  0  0  0  0  0  0  0  0  0  0  0
   28.0677  -16.4782  -17.7684 N   0  0  0  0  0  0  0  0  0  0  0  0
   27.7535  -17.1424  -15.5625 N   0  0  0  0  0  0  0  0  0  0  0  0
   27.7586  -18.1355  -14.5186 C   0  0  0  0  0  0  0  0  0  0  0  0
   26.5577  -19.0380  -14.6197 C   0  0  0  0  0  0  0  0  0  0  0  0
   26.2202  -19.6853  -13.2940 C   0  0  0  0  0  0  0  0  0  0  0  0
   27.2358  -20.7400  -12.9217 C   0  0  2  0  0  0  0  0  0  0  0  0
   27.1883  -21.8903  -13.7678 N   0  0  0  0  0  0  0  0  0  0  0  0
   26.9949  -21.0951  -11.4825 C   0  0  0  0  0  0  0  0  0  0  0  0
   26.1541  -21.9765  -11.1727 O   0  0  0  0  0  0  0  0  0  0  0  0
   27.7556  -15.5366  -17.4926 N   0  0  0  0  0  0  0  0  0  0  0  0
   27.6979  -20.4576  -10.4289 C   0  0  2  0  0  0  0  0  0  0  0  0
   27.4241  -20.6685   -9.0275 C   0  0  0  0  0  0  0  0  0  0  0  0
   28.3840  -19.9046   -8.1400 C   0  0  0  0  0  0  0  0  0  0  0  0
   28.0756  -20.0751   -6.6976 C   0  0  0  0  0  0  0  0  0  0  0  0
   27.3912  -19.0887   -5.9906 C   0  0  0  0  0  0  0  0  0  0  0  0
   27.0977  -19.2311   -4.6540 C   0  0  0  0  0  0  0  0  0  0  0  0
   27.4632  -20.3467   -3.9555 C   0  0  0  0  0  0  0  0  0  0  0  0
   28.1448  -21.3417   -4.6362 C   0  0  0  0  0  0  0  0  0  0  0  0
   28.4397  -21.1962   -5.9837 C   0  0  0  0  0  0  0  0  0  0  0  0
   26.0567  -20.2148   -8.6820 O   0  0  0  0  0  0  0  0  0  0  0  0
   25.6824  -19.0826   -9.0644 N   0  0  0  0  0  0  0  0  0  0  0  0
   25.1444  -21.0005   -7.9367 C   0  0  1  0  0  0  0  0  0  0  0  0
   23.6986  -20.7373   -7.9223 C   0  0  0  0  0  0  0  0  0  0  0  0
   23.2356  -20.8154   -9.3406 C   0  0  0  0  0  0  0  0  0  0  0  0
   21.8029  -20.6226   -9.5419 C   0  0  0  0  0  0  0  0  0  0  0  0
   20.9773  -21.7250   -9.6256 C   0  0  0  0  0  0  0  0  0  0  0  0
   19.5998  -21.6033   -9.8167 C   0  0  0  0  0  0  0  0  0  0  0  0
   19.0397  -20.3419   -9.9261 C   0  0  0  0  0  0  0  0  0  0  0  0
   19.8481  -19.2304   -9.8450 C   0  0  0  0  0  0  0  0  0  0  0  0
   21.2269  -19.3756   -9.6531 C   0  0  0  0  0  0  0  0  0  0  0  0
   23.0948  -21.7191   -7.0208 O   0  0  0  0  0  0  0  0  0  0  0  0
   21.9051  -21.5090   -6.3180 O   0  0  0  0  0  0  0  0  0  0  0  0
  2  3  2  0
  2  1  1  0
  4  2  1  0
  5  4  1  0
  6  7  1  0
  6  5  1  0
  8  9  1  6
  8  7  1  0
 10 12  1  0
 10  8  1  0
 11 10  2  0
 13 21  1  0
 13 14  1  6
 13 12  1  0
 15 16  2  0
 15 14  1  0
 17 16  1  0
 18 17  2  0
 19 18  1  0
 19 20  2  0
 20 15  1  0
 21 23  1  0
 22 21  2  0
 23 24  1  0
 24 25  1  1
 25 26  1  0
 26 27  2  0
 26 31  1  0
 27 28  1  0
 28 29  2  0
 30 29  1  0
 31 30  2  0
 32 33  1  0
 32 24  1  0
 34 32  2  0
M  END
$$$$
