RFF.pdb
     RDKit          3D

 34 35  0  0  1  0  0  0  0  0999 V2000
   25.4816  -10.5023   11.9506 N   0  0  0  0  0  0  0  0  0  0  0  0
   25.0556  -11.2232   13.1060 C   0  0  0  0  0  0  0  0  0  0  0  0
   25.7094  -11.1173   14.1988 N   0  0  0  0  0  0  0  0  0  0  0  0
   23.9097  -12.0667   13.0740 N   0  0  0  0  0  0  0  0  0  0  0  0
   22.7780  -11.8312   12.2139 C   0  0  0  0  0  0  0  0  0  0  0  0
   21.5257  -11.5924   13.0149 C   0  0  0  0  0  0  0  0  0  0  0  0
   20.3108  -12.2258   12.3723 C   0  0  0  0  0  0  0  0  0  0  0  0
   20.1393  -11.7640   10.9441 C   0  0  2  0  0  0  0  0  0  0  0  0
   19.0733  -10.8271   10.7799 N   0  0  0  0  0  0  0  0  0  0  0  0
   19.9369  -12.9930   10.1049 C   0  0  0  0  0  0  0  0  0  0  0  0
   18.8104  -13.5472   10.0427 O   0  0  0  0  0  0  0  0  0  0  0  0
   25.4014  -11.6191   15.0434 N   0  0  0  0  0  0  0  0  0  0  0  0
   20.9956  -13.5698    9.3588 C   0  0  2  0  0  0  0  0  0  0  0  0
   20.8654  -14.7608    8.5538 C   0  0  0  0  0  0  0  0  0  0  0  0
   21.3694  -14.5501    7.1418 C   0  0  0  0  0  0  0  0  0  0  0  0
   20.5390  -13.5789    6.3856 C   0  0  0  0  0  0  0  0  0  0  0  0
   19.3913  -13.9909    5.7117 C   0  0  0  0  0  0  0  0  0  0  0  0
   18.6109  -13.1039    5.0065 C   0  0  0  0  0  0  0  0  0  0  0  0
   18.9240  -11.7762    4.9331 C   0  0  0  0  0  0  0  0  0  0  0  0
   20.0604  -11.3420    5.5947 C   0  0  0  0  0  0  0  0  0  0  0  0
   20.8458  -12.2378    6.3051 C   0  0  0  0  0  0  0  0  0  0  0  0
   21.6469  -15.8782    9.1331 O   0  0  0  0  0  0  0  0  0  0  0  0
   22.8971  -15.8062    9.1274 N   0  0  0  0  0  0  0  0  0  0  0  0
   21.0496  -17.0316    9.6970 C   0  0  1  0  0  0  0  0  0  0  0  0
   21.8368  -18.1395   10.2563 C   0  0  0  0  0  0  0  0  0  0  0  0
   21.5244  -18.1915   11.7164 C   0  0  0  0  0  0  0  0  0  0  0  0
   22.3359  -17.3203   12.5606 C   0  0  0  0  0  0  0  0  0  0  0  0
   23.6367  -17.6786   12.8493 C   0  0  0  0  0  0  0  0  0  0  0  0
   24.4608  -16.8858   13.6499 C   0  0  0  0  0  0  0  0  0  0  0  0
   23.9639  -15.7039   14.1726 C   0  0  0  0  0  0  0  0  0  0  0  0
   22.6682  -15.3304   13.8952 C   0  0  0  0  0  0  0  0  0  0  0  0
   21.8593  -16.1405   13.0900 C   0  0  0  0  0  0  0  0  0  0  0  0
   21.4758  -19.3419    9.5045 O   0  0  0  0  0  0  0  0  0  0  0  0
   22.3063  -20.4575    9.3663 O   0  0  0  0  0  0  0  0  0  0  0  0
  2  3  2  0
  2  1  1  0
  4  2  1  0
  5  4  1  0
  6  7  1  0
  6  5  1  0
  8  9  1  1
  8  7  1  0
 10 12  1  0
 10  8  1  0
 11 10  2  0
 13 21  1  0
 13 14  1  1
 13 12  1  0
 15 16  2  0
 15 14  1  0
 17 16  1  0
 18 17  2  0
 19 18  1  0
 19 20  2  0
 20 15  1  0
 21 23  1  0
 22 21  2  0
 23 24  1  0
 24 25  1  1
 25 26  1  0
 26 27  2  0
 26 31  1  0
 27 28  1  0
 28 29  2  0
 30 29  1  0
 31 30  2  0
 32 33  1  0
 32 24  1  0
 34 32  2  0
M  END
$$$$
