RFF.pdb
     RDKit          3D

 34 35  0  0  1  0  0  0  0  0999 V2000
   28.2488  -19.5654  -16.9493 N   0  0  0  0  0  0  0  0  0  0  0  0
   29.0250  -20.2077  -17.9598 C   0  0  0  0  0  0  0  0  0  0  0  0
   30.0311  -19.6058  -18.4680 N   0  0  0  0  0  0  0  0  0  0  0  0
   28.7053  -21.5152  -18.4224 N   0  0  0  0  0  0  0  0  0  0  0  0
   28.3315  -22.5952  -17.5450 C   0  0  0  0  0  0  0  0  0  0  0  0
   27.0508  -23.2453  -17.9966 C   0  0  0  0  0  0  0  0  0  0  0  0
   26.0000  -23.2478  -16.9074 C   0  0  0  0  0  0  0  0  0  0  0  0
   26.5688  -23.7327  -15.5945 C   0  0  2  0  0  0  0  0  0  0  0  0
   26.6185  -25.1570  -15.4948 N   0  0  0  0  0  0  0  0  0  0  0  0
   25.7360  -23.1251  -14.5024 C   0  0  0  0  0  0  0  0  0  0  0  0
   24.8265  -23.7904  -13.9455 O   0  0  0  0  0  0  0  0  0  0  0  0
   30.6075  -20.0655  -19.1866 N   0  0  0  0  0  0  0  0  0  0  0  0
   25.9402  -21.7930  -14.0616 C   0  0  2  0  0  0  0  0  0  0  0  0
   25.0909  -21.1137  -13.1126 C   0  0  0  0  0  0  0  0  0  0  0  0
   25.8143  -19.9850  -12.4090 C   0  0  0  0  0  0  0  0  0  0  0  0
   26.8235  -20.4800  -11.4389 C   0  0  0  0  0  0  0  0  0  0  0  0
   28.1581  -20.6316  -11.8092 C   0  0  0  0  0  0  0  0  0  0  0  0
   29.1055  -21.0890  -10.9225 C   0  0  0  0  0  0  0  0  0  0  0  0
   28.7832  -21.4167   -9.6361 C   0  0  0  0  0  0  0  0  0  0  0  0
   27.4626  -21.2747   -9.2438 C   0  0  0  0  0  0  0  0  0  0  0  0
   26.5091  -20.8134  -10.1392 C   0  0  0  0  0  0  0  0  0  0  0  0
   23.9121  -20.5220  -13.7874 O   0  0  0  0  0  0  0  0  0  0  0  0
   24.0328  -20.1160  -14.9659 N   0  0  0  0  0  0  0  0  0  0  0  0
   22.6473  -20.3905  -13.1646 C   0  0  1  0  0  0  0  0  0  0  0  0
   21.4586  -19.9032  -13.8785 C   0  0  0  0  0  0  0  0  0  0  0  0
   20.7554  -21.1090  -14.4111 C   0  0  0  0  0  0  0  0  0  0  0  0
   20.2126  -22.0126  -13.4016 C   0  0  0  0  0  0  0  0  0  0  0  0
   20.7040  -23.2987  -13.3107 C   0  0  0  0  0  0  0  0  0  0  0  0
   20.2248  -24.2074  -12.3654 C   0  0  0  0  0  0  0  0  0  0  0  0
   19.2272  -23.8122  -11.4906 C   0  0  0  0  0  0  0  0  0  0  0  0
   18.7248  -22.5326  -11.5666 C   0  0  0  0  0  0  0  0  0  0  0  0
   19.2199  -21.6379  -12.5222 C   0  0  0  0  0  0  0  0  0  0  0  0
   20.6843  -19.1077  -12.9252 O   0  0  0  0  0  0  0  0  0  0  0  0
   19.5468  -18.3694  -13.2636 O   0  0  0  0  0  0  0  0  0  0  0  0
  2  3  2  0
  2  1  1  0
  4  2  1  0
  5  4  1  0
  6  7  1  0
  6  5  1  0
  8  9  1  6
  8  7  1  0
 10 12  1  0
 10  8  1  0
 11 10  2  0
 13 21  1  0
 13 14  1  1
 13 12  1  0
 15 16  2  0
 15 14  1  0
 17 16  1  0
 18 17  2  0
 19 18  1  0
 19 20  2  0
 20 15  1  0
 21 23  1  0
 22 21  2  0
 23 24  1  0
 24 25  1  6
 25 26  1  0
 26 27  2  0
 26 31  1  0
 27 28  1  0
 28 29  2  0
 30 29  1  0
 31 30  2  0
 32 33  1  0
 32 24  1  0
 34 32  2  0
M  END
$$$$
