RFF.pdb
     RDKit          3D

 34 35  0  0  1  0  0  0  0  0999 V2000
   34.0821  -24.0042  -12.6200 N   0  0  0  0  0  0  0  0  0  0  0  0
   34.0091  -24.5391  -13.9409 C   0  0  0  0  0  0  0  0  0  0  0  0
   34.9513  -25.2827  -14.3793 N   0  0  0  0  0  0  0  0  0  0  0  0
   32.9031  -24.2633  -14.7932 N   0  0  0  0  0  0  0  0  0  0  0  0
   31.8044  -23.4122  -14.4130 C   0  0  0  0  0  0  0  0  0  0  0  0
   32.0118  -22.0037  -14.9027 C   0  0  0  0  0  0  0  0  0  0  0  0
   30.8700  -21.0915  -14.5097 C   0  0  0  0  0  0  0  0  0  0  0  0
   29.5325  -21.7627  -14.7168 C   0  0  2  0  0  0  0  0  0  0  0  0
   29.1217  -21.7882  -16.0849 N   0  0  0  0  0  0  0  0  0  0  0  0
   28.5397  -21.0439  -13.8490 C   0  0  0  0  0  0  0  0  0  0  0  0
   28.6144  -19.7998  -13.6862 O   0  0  0  0  0  0  0  0  0  0  0  0
   34.8975  -25.6942  -15.3214 N   0  0  0  0  0  0  0  0  0  0  0  0
   27.4916  -21.7319  -13.1868 C   0  0  2  0  0  0  0  0  0  0  0  0
   26.3450  -21.0857  -12.5940 C   0  0  0  0  0  0  0  0  0  0  0  0
   25.0457  -21.5511  -13.2166 C   0  0  0  0  0  0  0  0  0  0  0  0
   23.8690  -20.8258  -12.6744 C   0  0  0  0  0  0  0  0  0  0  0  0
   23.6028  -19.5111  -13.0509 C   0  0  0  0  0  0  0  0  0  0  0  0
   22.5169  -18.8249  -12.5578 C   0  0  0  0  0  0  0  0  0  0  0  0
   21.6473  -19.3999  -11.6750 C   0  0  0  0  0  0  0  0  0  0  0  0
   21.8905  -20.7064  -11.2854 C   0  0  0  0  0  0  0  0  0  0  0  0
   22.9857  -21.3963  -11.7836 C   0  0  0  0  0  0  0  0  0  0  0  0
   26.2634  -21.3801  -11.1443 O   0  0  0  0  0  0  0  0  0  0  0  0
   26.4862  -22.5486  -10.7529 N   0  0  0  0  0  0  0  0  0  0  0  0
   25.9444  -20.4020  -10.1714 C   0  0  1  0  0  0  0  0  0  0  0  0
   25.7291  -20.7325   -8.7556 C   0  0  0  0  0  0  0  0  0  0  0  0
   26.0836  -19.5104   -7.9726 C   0  0  0  0  0  0  0  0  0  0  0  0
   27.2365  -19.6474   -7.0881 C   0  0  0  0  0  0  0  0  0  0  0  0
   28.0501  -18.5559   -6.8634 C   0  0  0  0  0  0  0  0  0  0  0  0
   29.1659  -18.6261   -6.0274 C   0  0  0  0  0  0  0  0  0  0  0  0
   29.4701  -19.8235   -5.4025 C   0  0  0  0  0  0  0  0  0  0  0  0
   28.6695  -20.9232   -5.6150 C   0  0  0  0  0  0  0  0  0  0  0  0
   27.5555  -20.8304   -6.4572 C   0  0  0  0  0  0  0  0  0  0  0  0
   24.3379  -21.1671   -8.6253 O   0  0  0  0  0  0  0  0  0  0  0  0
   23.8585  -21.9528   -7.5735 O   0  0  0  0  0  0  0  0  0  0  0  0
  2  3  2  0
  2  1  1  0
  4  2  1  0
  5  4  1  0
  6  7  1  0
  6  5  1  0
  8  9  1  6
  8  7  1  0
 10 12  1  0
 10  8  1  0
 11 10  2  0
 13 21  1  0
 13 14  1  6
 13 12  1  0
 15 16  2  0
 15 14  1  0
 17 16  1  0
 18 17  2  0
 19 18  1  0
 19 20  2  0
 20 15  1  0
 21 23  1  0
 22 21  2  0
 23 24  1  0
 24 25  1  1
 25 26  1  0
 26 27  2  0
 26 31  1  0
 27 28  1  0
 28 29  2  0
 30 29  1  0
 31 30  2  0
 32 33  1  0
 32 24  1  0
 34 32  2  0
M  END
$$$$
