GRT.pdb
     RDKit          3D

 23 22  0  0  1  0  0  0  0  0999 V2000
   15.1135   -6.2476  -18.1491 N   0  0  0  0  0  0  0  0  0  0  0  0
   16.3549   -6.6529  -18.7702 C   0  0  0  0  0  0  0  0  0  0  0  0
   17.3358   -6.9769  -17.7093 C   0  0  0  0  0  0  0  0  0  0  0  0
   17.0720   -6.7103  -16.5327 O   0  0  0  0  0  0  0  0  0  0  0  0
   23.7637  -13.0930  -17.2045 N   0  0  0  0  0  0  0  0  0  0  0  0
   23.9328  -12.3324  -16.0384 C   0  0  0  0  0  0  0  0  0  0  0  0
   24.8934  -12.6540  -15.2057 N   0  0  0  0  0  0  0  0  0  0  0  0
   23.0857  -11.2271  -15.7473 N   0  0  0  0  0  0  0  0  0  0  0  0
   22.1959  -10.7781  -16.7805 C   0  0  0  0  0  0  0  0  0  0  0  0
   21.3761   -9.5861  -16.3822 C   0  0  0  0  0  0  0  0  0  0  0  0
   20.4013   -9.1551  -17.4364 C   0  0  0  0  0  0  0  0  0  0  0  0
   19.5388   -7.9958  -16.9936 C   0  0  2  0  0  0  0  0  0  0  0  0
   18.5989   -7.6003  -18.0216 N   0  0  0  0  0  0  0  0  0  0  0  0
   20.4647   -6.8600  -16.7109 C   0  0  0  0  0  0  0  0  0  0  0  0
   21.2638   -6.5431  -17.6239 O   0  0  0  0  0  0  0  0  0  0  0  0
   25.0659  -12.0893  -14.3483 C   0  0  0  0  0  0  0  0  0  0  0  0
   19.9996   -3.4739  -16.5011 C   0  0  2  0  0  0  0  0  0  0  0  0
   20.5792   -3.7163  -15.1126 O   0  0  0  0  0  0  0  0  0  0  0  0
   19.5432   -3.8117  -14.1646 C   0  0  2  0  0  0  0  0  0  0  0  0
   21.2705   -5.0344  -15.1352 N   0  0  0  0  0  0  0  0  0  0  0  0
   20.4600   -6.1582  -15.4782 C   0  0  0  0  0  0  0  0  0  0  0  0
   22.0715   -5.3194  -13.9110 O   0  0  0  0  0  0  0  0  0  0  0  0
   22.9265   -4.4956  -13.5398 O   0  0  0  0  0  0  0  0  0  0  0  0
  1  2  1  0
  3  4  2  0
  3  2  1  0
  5  6  1  0
  6  8  1  0
  7  6  2  0
  8  9  1  0
  9 10  1  0
 10 11  1  0
 12 11  1  6
 12 13  1  0
 13  3  1  0
 14 12  1  0
 15 14  2  0
 17 16  1  1
 17 19  1  0
 18 17  1  0
 19 21  1  0
 19 20  1  1
 20 14  1  0
 21 23  1  0
 22 21  2  0
M  END
$$$$
