GRT.pdb
     RDKit          3D

 23 22  0  0  1  0  0  0  0  0999 V2000
   12.0270  -21.5744   -4.6646 N   0  0  0  0  0  0  0  0  0  0  0  0
   13.4228  -21.7063   -4.3102 C   0  0  0  0  0  0  0  0  0  0  0  0
   13.6200  -23.0026   -3.6221 C   0  0  0  0  0  0  0  0  0  0  0  0
   12.6745  -23.7909   -3.5236 O   0  0  0  0  0  0  0  0  0  0  0  0
   15.7255  -26.3198   -6.9881 N   0  0  0  0  0  0  0  0  0  0  0  0
   17.0917  -26.0481   -7.1509 C   0  0  0  0  0  0  0  0  0  0  0  0
   17.5627  -25.8706   -8.3618 N   0  0  0  0  0  0  0  0  0  0  0  0
   17.9669  -25.9627   -6.0326 N   0  0  0  0  0  0  0  0  0  0  0  0
   17.4159  -26.2221   -4.7327 C   0  0  0  0  0  0  0  0  0  0  0  0
   16.8630  -24.9967   -4.0661 C   0  0  0  0  0  0  0  0  0  0  0  0
   16.4340  -25.2322   -2.6491 C   0  0  0  0  0  0  0  0  0  0  0  0
   15.0977  -24.6015   -2.3323 C   0  0  2  0  0  0  0  0  0  0  0  0
   14.8986  -23.3664   -3.0615 N   0  0  0  0  0  0  0  0  0  0  0  0
   15.0996  -24.3129   -0.8681 C   0  0  0  0  0  0  0  0  0  0  0  0
   15.8983  -23.4331   -0.4676 O   0  0  0  0  0  0  0  0  0  0  0  0
   18.5638  -25.6286   -8.5134 C   0  0  0  0  0  0  0  0  0  0  0  0
   11.8172  -24.1056    1.5070 C   0  0  2  0  0  0  0  0  0  0  0  0
   12.8461  -25.0736    2.0787 O   0  0  0  0  0  0  0  0  0  0  0  0
   12.5227  -26.3947    1.7163 C   0  0  2  0  0  0  0  0  0  0  0  0
   14.1592  -24.7599    1.4515 N   0  0  0  0  0  0  0  0  0  0  0  0
   14.2491  -24.9872    0.0453 C   0  0  0  0  0  0  0  0  0  0  0  0
   15.3263  -25.3623    2.1562 O   0  0  0  0  0  0  0  0  0  0  0  0
   16.0786  -26.1336    1.5344 O   0  0  0  0  0  0  0  0  0  0  0  0
  1  2  1  0
  3  4  2  0
  3  2  1  0
  5  6  1  0
  6  8  1  0
  7  6  2  0
  8  9  1  0
  9 10  1  0
 10 11  1  0
 12 11  1  6
 12 13  1  0
 13  3  1  0
 14 12  1  0
 15 14  2  0
 17 16  1  1
 17 19  1  0
 18 17  1  0
 19 21  1  0
 19 20  1  1
 20 14  1  0
 21 23  1  0
 22 21  2  0
M  END
$$$$
