GRT.pdb
     RDKit          3D

 23 22  0  0  1  0  0  0  0  0999 V2000
   22.1291  -10.1597  -21.5383 N   0  0  0  0  0  0  0  0  0  0  0  0
   23.0038   -9.6883  -20.4876 C   0  0  0  0  0  0  0  0  0  0  0  0
   22.1865   -9.0149  -19.4526 C   0  0  0  0  0  0  0  0  0  0  0  0
   21.4973   -8.0374  -19.7602 O   0  0  0  0  0  0  0  0  0  0  0  0
   17.7875  -13.9697  -14.6543 N   0  0  0  0  0  0  0  0  0  0  0  0
   17.0899  -12.9077  -15.2478 C   0  0  0  0  0  0  0  0  0  0  0  0
   15.7898  -12.8374  -15.0913 N   0  0  0  0  0  0  0  0  0  0  0  0
   17.7647  -11.9141  -16.0102 N   0  0  0  0  0  0  0  0  0  0  0  0
   19.1955  -11.9948  -16.0940 C   0  0  0  0  0  0  0  0  0  0  0  0
   19.8015  -10.9277  -16.9574 C   0  0  0  0  0  0  0  0  0  0  0  0
   20.6928   -9.9870  -16.2036 C   0  0  0  0  0  0  0  0  0  0  0  0
   21.2917   -8.9175  -17.0876 C   0  0  2  0  0  0  0  0  0  0  0  0
   22.1778   -9.4780  -18.0862 N   0  0  0  0  0  0  0  0  0  0  0  0
   22.0702   -8.0121  -16.1924 C   0  0  0  0  0  0  0  0  0  0  0  0
   23.0807   -8.5025  -15.6348 O   0  0  0  0  0  0  0  0  0  0  0  0
   15.2370  -12.0898  -15.5595 C   0  0  0  0  0  0  0  0  0  0  0  0
   23.3430   -4.5609  -17.1209 C   0  0  2  0  0  0  0  0  0  0  0  0
   22.6048   -4.3635  -15.8023 O   0  0  0  0  0  0  0  0  0  0  0  0
   21.3206   -3.8384  -16.0394 C   0  0  2  0  0  0  0  0  0  0  0  0
   22.4188   -5.7044  -15.1833 N   0  0  0  0  0  0  0  0  0  0  0  0
   21.7050   -6.6599  -15.9674 C   0  0  0  0  0  0  0  0  0  0  0  0
   21.8825   -5.6608  -13.7933 O   0  0  0  0  0  0  0  0  0  0  0  0
   20.8769   -6.3358  -13.5093 O   0  0  0  0  0  0  0  0  0  0  0  0
  1  2  1  0
  3  4  2  0
  3  2  1  0
  5  6  1  0
  6  8  1  0
  7  6  2  0
  8  9  1  0
  9 10  1  0
 10 11  1  0
 12 11  1  1
 12 13  1  0
 13  3  1  0
 14 12  1  0
 15 14  2  0
 17 16  1  1
 17 19  1  0
 18 17  1  0
 19 21  1  0
 19 20  1  1
 20 14  1  0
 21 23  1  0
 22 21  2  0
M  END
$$$$
