GRT.pdb
     RDKit          3D

 23 22  0  0  1  0  0  0  0  0999 V2000
   17.8750  -24.8357   -5.5092 N   0  0  0  0  0  0  0  0  0  0  0  0
   16.5363  -24.2889   -5.5021 C   0  0  0  0  0  0  0  0  0  0  0  0
   16.0337  -24.2755   -4.1092 C   0  0  0  0  0  0  0  0  0  0  0  0
   16.7085  -24.7906   -3.2124 O   0  0  0  0  0  0  0  0  0  0  0  0
   11.3828  -18.2552    0.4379 N   0  0  0  0  0  0  0  0  0  0  0  0
   12.1508  -18.4725   -0.7154 C   0  0  0  0  0  0  0  0  0  0  0  0
   12.1942  -17.5371   -1.6334 N   0  0  0  0  0  0  0  0  0  0  0  0
   12.8770  -19.6813   -0.9032 N   0  0  0  0  0  0  0  0  0  0  0  0
   12.2366  -20.9098   -0.5269 C   0  0  0  0  0  0  0  0  0  0  0  0
   13.0931  -22.1206   -0.7548 C   0  0  0  0  0  0  0  0  0  0  0  0
   13.4875  -22.3095   -2.1887 C   0  0  0  0  0  0  0  0  0  0  0  0
   14.2990  -23.5652   -2.4093 C   0  0  2  0  0  0  0  0  0  0  0  0
   14.7670  -23.6709   -3.7755 N   0  0  0  0  0  0  0  0  0  0  0  0
   13.3952  -24.7142   -2.1091 C   0  0  0  0  0  0  0  0  0  0  0  0
   12.4551  -24.9177   -2.9137 O   0  0  0  0  0  0  0  0  0  0  0  0
   12.5897  -17.7343   -2.5759 C   0  0  0  0  0  0  0  0  0  0  0  0
   14.4172  -28.2905   -1.8572 C   0  0  2  0  0  0  0  0  0  0  0  0
   13.7651  -27.9706   -0.5174 O   0  0  0  0  0  0  0  0  0  0  0  0
   14.7464  -27.6139    0.4265 C   0  0  2  0  0  0  0  0  0  0  0  0
   12.8950  -26.7785   -0.7114 N   0  0  0  0  0  0  0  0  0  0  0  0
   13.5706  -25.5493   -0.9759 C   0  0  0  0  0  0  0  0  0  0  0  0
   11.8715  -26.5954    0.3566 O   0  0  0  0  0  0  0  0  0  0  0  0
   11.8777  -25.5495    1.0302 O   0  0  0  0  0  0  0  0  0  0  0  0
  1  2  1  0
  3  4  2  0
  3  2  1  0
  5  6  1  0
  6  8  1  0
  7  6  2  0
  8  9  1  0
  9 10  1  0
 10 11  1  0
 12 11  1  6
 12 13  1  0
 13  3  1  0
 14 12  1  0
 15 14  2  0
 17 16  1  1
 17 19  1  0
 18 17  1  0
 19 21  1  0
 19 20  1  1
 20 14  1  0
 21 23  1  0
 22 21  2  0
M  END
$$$$
