GRT.pdb
     RDKit          3D

 23 22  0  0  1  0  0  0  0  0999 V2000
   28.6155  -22.3923  -17.3447 N   0  0  0  0  0  0  0  0  0  0  0  0
   28.3410  -21.3036  -16.4332 C   0  0  0  0  0  0  0  0  0  0  0  0
   26.9417  -21.4169  -15.9622 C   0  0  0  0  0  0  0  0  0  0  0  0
   26.1775  -22.2190  -16.5079 O   0  0  0  0  0  0  0  0  0  0  0  0
   25.7491  -20.6636   -7.8442 N   0  0  0  0  0  0  0  0  0  0  0  0
   24.6298  -20.7957   -8.6788 C   0  0  0  0  0  0  0  0  0  0  0  0
   23.4328  -20.7517   -8.1454 N   0  0  0  0  0  0  0  0  0  0  0  0
   24.7717  -20.9751  -10.0830 N   0  0  0  0  0  0  0  0  0  0  0  0
   26.0974  -21.1603  -10.6015 C   0  0  0  0  0  0  0  0  0  0  0  0
   26.1317  -21.3595  -12.0883 C   0  0  0  0  0  0  0  0  0  0  0  0
   25.1109  -20.5428  -12.8220 C   0  0  0  0  0  0  0  0  0  0  0  0
   25.1276  -20.7913  -14.3126 C   0  0  2  0  0  0  0  0  0  0  0  0
   26.4493  -20.6069  -14.8746 N   0  0  0  0  0  0  0  0  0  0  0  0
   24.1925  -19.7994  -14.9200 C   0  0  0  0  0  0  0  0  0  0  0  0
   24.4839  -18.5882  -14.7766 O   0  0  0  0  0  0  0  0  0  0  0  0
   22.5829  -20.8749   -8.7338 C   0  0  0  0  0  0  0  0  0  0  0  0
   23.1606  -19.5570  -18.4821 C   0  0  2  0  0  0  0  0  0  0  0  0
   21.8388  -19.6369  -17.7277 O   0  0  0  0  0  0  0  0  0  0  0  0
   21.3387  -20.9520  -17.7638 C   0  0  2  0  0  0  0  0  0  0  0  0
   22.1129  -19.3150  -16.3004 N   0  0  0  0  0  0  0  0  0  0  0  0
   23.0255  -20.1833  -15.6292 C   0  0  0  0  0  0  0  0  0  0  0  0
   20.8860  -19.1077  -15.4798 O   0  0  0  0  0  0  0  0  0  0  0  0
   20.7123  -19.8014  -14.4619 O   0  0  0  0  0  0  0  0  0  0  0  0
  1  2  1  0
  3  4  2  0
  3  2  1  0
  5  6  1  0
  6  8  1  0
  7  6  2  0
  8  9  1  0
  9 10  1  0
 10 11  1  0
 12 11  1  1
 12 13  1  0
 13  3  1  0
 14 12  1  0
 15 14  2  0
 17 16  1  6
 17 19  1  0
 18 17  1  0
 19 21  1  0
 19 20  1  1
 20 14  1  0
 21 23  1  0
 22 21  2  0
M  END
$$$$
