GRT.pdb
     RDKit          3D

 23 22  0  0  1  0  0  0  0  0999 V2000
   18.7470  -21.5800  -11.7818 N   0  0  0  0  0  0  0  0  0  0  0  0
   19.9284  -22.2161  -12.3211 C   0  0  0  0  0  0  0  0  0  0  0  0
   20.8945  -21.1676  -12.7211 C   0  0  0  0  0  0  0  0  0  0  0  0
   20.5044  -20.0063  -12.8770 O   0  0  0  0  0  0  0  0  0  0  0  0
   29.5760  -21.2390  -11.9914 N   0  0  0  0  0  0  0  0  0  0  0  0
   28.4664  -21.2191  -11.1340 C   0  0  0  0  0  0  0  0  0  0  0  0
   28.6361  -21.5263   -9.8706 N   0  0  0  0  0  0  0  0  0  0  0  0
   27.1707  -20.8739  -11.6095 N   0  0  0  0  0  0  0  0  0  0  0  0
   27.0810  -20.2091  -12.8787 C   0  0  0  0  0  0  0  0  0  0  0  0
   25.6798  -19.8191  -13.2476 C   0  0  0  0  0  0  0  0  0  0  0  0
   24.6556  -20.8436  -12.8619 C   0  0  0  0  0  0  0  0  0  0  0  0
   23.2570  -20.4574  -13.2845 C   0  0  2  0  0  0  0  0  0  0  0  0
   22.2881  -21.4745  -12.9336 N   0  0  0  0  0  0  0  0  0  0  0  0
   23.2889  -20.2999  -14.7682 C   0  0  0  0  0  0  0  0  0  0  0  0
   23.5556  -21.3255  -15.4387 O   0  0  0  0  0  0  0  0  0  0  0  0
   27.8295  -21.5376   -9.2125 C   0  0  0  0  0  0  0  0  0  0  0  0
   20.6240  -18.4000  -17.0260 C   0  0  2  0  0  0  0  0  0  0  0  0
   22.0105  -17.8263  -17.2925 O   0  0  0  0  0  0  0  0  0  0  0  0
   22.2048  -16.6560  -16.5350 C   0  0  2  0  0  0  0  0  0  0  0  0
   23.0104  -18.8219  -16.8183 N   0  0  0  0  0  0  0  0  0  0  0  0
   23.0334  -19.0617  -15.4115 C   0  0  0  0  0  0  0  0  0  0  0  0
   24.3894  -18.5879  -17.3333 O   0  0  0  0  0  0  0  0  0  0  0  0
   25.3225  -18.4401  -16.5240 O   0  0  0  0  0  0  0  0  0  0  0  0
  1  2  1  0
  3  4  2  0
  3  2  1  0
  5  6  1  0
  6  8  1  0
  7  6  2  0
  8  9  1  0
  9 10  1  0
 10 11  1  0
 12 11  1  6
 12 13  1  0
 13  3  1  0
 14 12  1  0
 15 14  2  0
 17 16  1  6
 17 19  1  0
 18 17  1  0
 19 21  1  0
 19 20  1  6
 20 14  1  0
 21 23  1  0
 22 21  2  0
M  END
$$$$
