GRT.pdb
     RDKit          3D

 23 22  0  0  1  0  0  0  0  0999 V2000
   21.7773  -29.4401  -10.3463 N   0  0  0  0  0  0  0  0  0  0  0  0
   20.9457  -28.9284  -11.4130 C   0  0  0  0  0  0  0  0  0  0  0  0
   20.5806  -27.5271  -11.1031 C   0  0  0  0  0  0  0  0  0  0  0  0
   20.8265  -27.0660   -9.9842 O   0  0  0  0  0  0  0  0  0  0  0  0
   21.7052  -21.6199  -16.7327 N   0  0  0  0  0  0  0  0  0  0  0  0
   20.9155  -22.7757  -16.8186 C   0  0  0  0  0  0  0  0  0  0  0  0
   20.3327  -23.0618  -17.9579 N   0  0  0  0  0  0  0  0  0  0  0  0
   20.7386  -23.6351  -15.6988 N   0  0  0  0  0  0  0  0  0  0  0  0
   21.4323  -23.3031  -14.4866 C   0  0  0  0  0  0  0  0  0  0  0  0
   21.1993  -24.2887  -13.3794 C   0  0  0  0  0  0  0  0  0  0  0  0
   19.7579  -24.4133  -12.9870 C   0  0  0  0  0  0  0  0  0  0  0  0
   19.5548  -25.3198  -11.7949 C   0  0  2  0  0  0  0  0  0  0  0  0
   19.9408  -26.6850  -12.0844 N   0  0  0  0  0  0  0  0  0  0  0  0
   18.0982  -25.2788  -11.4723 C   0  0  0  0  0  0  0  0  0  0  0  0
   17.3198  -25.7889  -12.3126 O   0  0  0  0  0  0  0  0  0  0  0  0
   19.7194  -23.8983  -18.0468 C   0  0  0  0  0  0  0  0  0  0  0  0
   16.5528  -26.2381   -8.0033 C   0  0  2  0  0  0  0  0  0  0  0  0
   16.0156  -24.8642   -8.3861 O   0  0  0  0  0  0  0  0  0  0  0  0
   16.7506  -23.8570   -7.7330 C   0  0  2  0  0  0  0  0  0  0  0  0
   16.2350  -24.6842   -9.8474 N   0  0  0  0  0  0  0  0  0  0  0  0
   17.5951  -24.6970  -10.2804 C   0  0  0  0  0  0  0  0  0  0  0  0
   15.5099  -23.5195  -10.4299 O   0  0  0  0  0  0  0  0  0  0  0  0
   16.1575  -22.6299  -11.0102 O   0  0  0  0  0  0  0  0  0  0  0  0
  1  2  1  0
  3  4  2  0
  3  2  1  0
  5  6  1  0
  6  8  1  0
  7  6  2  0
  8  9  1  0
  9 10  1  0
 10 11  1  0
 12 11  1  6
 12 13  1  0
 13  3  1  0
 14 12  1  0
 15 14  2  0
 17 16  1  1
 17 19  1  0
 18 17  1  0
 19 21  1  0
 19 20  1  6
 20 14  1  0
 21 23  1  0
 22 21  2  0
M  END
$$$$
