GRT.pdb
     RDKit          3D

 23 22  0  0  1  0  0  0  0  0999 V2000
   22.9225  -22.0574  -15.6558 N   0  0  0  0  0  0  0  0  0  0  0  0
   21.8250  -22.9850  -15.8188 C   0  0  0  0  0  0  0  0  0  0  0  0
   20.8064  -22.7063  -14.7807 C   0  0  0  0  0  0  0  0  0  0  0  0
   21.1650  -22.4626  -13.6244 O   0  0  0  0  0  0  0  0  0  0  0  0
   14.9935  -17.3184  -15.0951 N   0  0  0  0  0  0  0  0  0  0  0  0
   16.0308  -17.2067  -16.0324 C   0  0  0  0  0  0  0  0  0  0  0  0
   16.3887  -16.0137  -16.4424 N   0  0  0  0  0  0  0  0  0  0  0  0
   16.6948  -18.3575  -16.5410 N   0  0  0  0  0  0  0  0  0  0  0  0
   16.3639  -19.6290  -15.9625 C   0  0  0  0  0  0  0  0  0  0  0  0
   17.5435  -20.3318  -15.3574 C   0  0  0  0  0  0  0  0  0  0  0  0
   17.2034  -21.6691  -14.7716 C   0  0  0  0  0  0  0  0  0  0  0  0
   18.3913  -22.3394  -14.1208 C   0  0  2  0  0  0  0  0  0  0  0  0
   19.3978  -22.7133  -15.0922 N   0  0  0  0  0  0  0  0  0  0  0  0
   17.8728  -23.5688  -13.4522 C   0  0  0  0  0  0  0  0  0  0  0  0
   17.5541  -24.5249  -14.1983 O   0  0  0  0  0  0  0  0  0  0  0  0
   17.1544  -15.8973  -17.1380 C   0  0  0  0  0  0  0  0  0  0  0  0
   19.4862  -25.3366  -10.3718 C   0  0  2  0  0  0  0  0  0  0  0  0
   18.0201  -25.0896  -10.0370 O   0  0  0  0  0  0  0  0  0  0  0  0
   17.8920  -23.9343   -9.2434 C   0  0  2  0  0  0  0  0  0  0  0  0
   17.3037  -24.8215  -11.3140 N   0  0  0  0  0  0  0  0  0  0  0  0
   17.7380  -23.6745  -12.0440 C   0  0  0  0  0  0  0  0  0  0  0  0
   15.8185  -24.8327  -11.1893 O   0  0  0  0  0  0  0  0  0  0  0  0
   15.1770  -23.8084  -11.4839 O   0  0  0  0  0  0  0  0  0  0  0  0
  1  2  1  0
  3  4  2  0
  3  2  1  0
  5  6  1  0
  6  8  1  0
  7  6  2  0
  8  9  1  0
  9 10  1  0
 10 11  1  0
 12 11  1  6
 12 13  1  0
 13  3  1  0
 14 12  1  0
 15 14  2  0
 17 16  1  1
 17 19  1  0
 18 17  1  0
 19 21  1  0
 19 20  1  6
 20 14  1  0
 21 23  1  0
 22 21  2  0
M  END
$$$$
