GRT.pdb
     RDKit          3D

 23 22  0  0  1  0  0  0  0  0999 V2000
   25.3034  -18.7067  -18.0265 N   0  0  0  0  0  0  0  0  0  0  0  0
   25.2373  -18.2922  -16.6426 C   0  0  0  0  0  0  0  0  0  0  0  0
   24.4896  -19.3134  -15.8739 C   0  0  0  0  0  0  0  0  0  0  0  0
   23.8467  -20.1797  -16.4751 O   0  0  0  0  0  0  0  0  0  0  0  0
   28.3493  -19.6974  -11.9675 N   0  0  0  0  0  0  0  0  0  0  0  0
   28.5894  -20.8957  -11.2797 C   0  0  0  0  0  0  0  0  0  0  0  0
   29.8100  -21.3739  -11.2468 N   0  0  0  0  0  0  0  0  0  0  0  0
   27.5387  -21.5946  -10.6228 N   0  0  0  0  0  0  0  0  0  0  0  0
   26.2132  -21.0522  -10.7209 C   0  0  0  0  0  0  0  0  0  0  0  0
   25.6988  -20.9910  -12.1292 C   0  0  0  0  0  0  0  0  0  0  0  0
   24.3267  -20.3967  -12.2364 C   0  0  0  0  0  0  0  0  0  0  0  0
   23.8241  -20.3440  -13.6607 C   0  0  2  0  0  0  0  0  0  0  0  0
   24.4958  -19.3184  -14.4312 N   0  0  0  0  0  0  0  0  0  0  0  0
   22.3674  -20.0282  -13.5866 C   0  0  0  0  0  0  0  0  0  0  0  0
   22.0268  -19.1199  -12.7920 O   0  0  0  0  0  0  0  0  0  0  0  0
   30.0396  -22.2080  -10.6676 C   0  0  0  0  0  0  0  0  0  0  0  0
   20.0040  -18.9882  -16.3519 C   0  0  2  0  0  0  0  0  0  0  0  0
   19.4025  -20.2548  -15.7549 O   0  0  0  0  0  0  0  0  0  0  0  0
   19.7700  -21.3751  -16.5236 C   0  0  2  0  0  0  0  0  0  0  0  0
   19.9950  -20.4423  -14.4022 N   0  0  0  0  0  0  0  0  0  0  0  0
   21.3969  -20.7080  -14.3666 C   0  0  0  0  0  0  0  0  0  0  0  0
   19.2551  -21.4126  -13.5461 O   0  0  0  0  0  0  0  0  0  0  0  0
   18.0755  -21.1702  -13.2342 O   0  0  0  0  0  0  0  0  0  0  0  0
  1  2  1  0
  3  4  2  0
  3  2  1  0
  5  6  1  0
  6  8  1  0
  7  6  2  0
  8  9  1  0
  9 10  1  0
 10 11  1  0
 12 11  1  1
 12 13  1  0
 13  3  1  0
 14 12  1  0
 15 14  2  0
 17 16  1  6
 17 19  1  0
 18 17  1  0
 19 21  1  0
 19 20  1  1
 20 14  1  0
 21 23  1  0
 22 21  2  0
M  END
$$$$
