GRT.pdb
     RDKit          3D

 23 22  0  0  1  0  0  0  0  0999 V2000
   19.5364  -28.3598   -1.3502 N   0  0  0  0  0  0  0  0  0  0  0  0
   18.9519  -28.4874   -2.6668 C   0  0  0  0  0  0  0  0  0  0  0  0
   18.5560  -27.1432   -3.1455 C   0  0  0  0  0  0  0  0  0  0  0  0
   18.5185  -26.1991   -2.3502 O   0  0  0  0  0  0  0  0  0  0  0  0
   19.3754  -23.6633  -11.1051 N   0  0  0  0  0  0  0  0  0  0  0  0
   18.4606  -24.6423  -10.6908 C   0  0  0  0  0  0  0  0  0  0  0  0
   17.9315  -25.4363  -11.5903 N   0  0  0  0  0  0  0  0  0  0  0  0
   18.1010  -24.7861   -9.3219 N   0  0  0  0  0  0  0  0  0  0  0  0
   18.6305  -23.8321   -8.3891 C   0  0  0  0  0  0  0  0  0  0  0  0
   18.1349  -24.0334   -6.9872 C   0  0  0  0  0  0  0  0  0  0  0  0
   18.3773  -25.4168   -6.4630 C   0  0  0  0  0  0  0  0  0  0  0  0
   17.9115  -25.5891   -5.0357 C   0  0  2  0  0  0  0  0  0  0  0  0
   18.2115  -26.9112   -4.5272 N   0  0  0  0  0  0  0  0  0  0  0  0
   16.4325  -25.3895   -5.0436 C   0  0  0  0  0  0  0  0  0  0  0  0
   15.7472  -26.2724   -5.6122 O   0  0  0  0  0  0  0  0  0  0  0  0
   17.1883  -26.1167  -11.3285 C   0  0  0  0  0  0  0  0  0  0  0  0
   14.0912  -24.6458   -1.9850 C   0  0  2  0  0  0  0  0  0  0  0  0
   13.9473  -23.5182   -3.0001 O   0  0  0  0  0  0  0  0  0  0  0  0
   14.7964  -22.4484   -2.6600 C   0  0  2  0  0  0  0  0  0  0  0  0
   14.4063  -24.0354   -4.3183 N   0  0  0  0  0  0  0  0  0  0  0  0
   15.8095  -24.2648   -4.4443 C   0  0  0  0  0  0  0  0  0  0  0  0
   13.8945  -23.2609   -5.4844 O   0  0  0  0  0  0  0  0  0  0  0  0
   14.7053  -22.7733   -6.2921 O   0  0  0  0  0  0  0  0  0  0  0  0
  1  2  1  0
  3  4  2  0
  3  2  1  0
  5  6  1  0
  6  8  1  0
  7  6  2  0
  8  9  1  0
  9 10  1  0
 10 11  1  0
 12 11  1  6
 12 13  1  0
 13  3  1  0
 14 12  1  0
 15 14  2  0
 17 16  1  1
 17 19  1  0
 18 17  1  0
 19 21  1  0
 19 20  1  6
 20 14  1  0
 21 23  1  0
 22 21  2  0
M  END
$$$$
