GRT.pdb
     RDKit          3D

 23 22  0  0  1  0  0  0  0  0999 V2000
   15.2456  -13.3680  -11.7503 N   0  0  0  0  0  0  0  0  0  0  0  0
   15.2338  -12.1735  -12.5654 C   0  0  0  0  0  0  0  0  0  0  0  0
   16.0717  -11.1418  -11.9122 C   0  0  0  0  0  0  0  0  0  0  0  0
   16.5613  -11.3675  -10.8012 O   0  0  0  0  0  0  0  0  0  0  0  0
   22.2800   -7.1259  -15.5306 N   0  0  0  0  0  0  0  0  0  0  0  0
   21.7074   -6.5393  -14.3927 C   0  0  0  0  0  0  0  0  0  0  0  0
   22.1671   -5.3841  -13.9758 N   0  0  0  0  0  0  0  0  0  0  0  0
   20.6449   -7.1724  -13.6897 N   0  0  0  0  0  0  0  0  0  0  0  0
   20.1900   -8.4452  -14.1732 C   0  0  0  0  0  0  0  0  0  0  0  0
   19.1805   -9.0964  -13.2740 C   0  0  0  0  0  0  0  0  0  0  0  0
   18.0716   -8.1767  -12.8596 C   0  0  0  0  0  0  0  0  0  0  0  0
   17.0995   -8.8295  -11.9042 C   0  0  2  0  0  0  0  0  0  0  0  0
   16.3296   -9.8729  -12.5485 N   0  0  0  0  0  0  0  0  0  0  0  0
   16.1757   -7.7548  -11.4364 C   0  0  0  0  0  0  0  0  0  0  0  0
   15.2468   -7.4314  -12.2142 O   0  0  0  0  0  0  0  0  0  0  0  0
   21.7321   -4.8999  -13.1634 C   0  0  0  0  0  0  0  0  0  0  0  0
   14.5285   -7.3795   -7.8162 C   0  0  2  0  0  0  0  0  0  0  0  0
   15.2950   -6.1097   -8.1668 O   0  0  0  0  0  0  0  0  0  0  0  0
   16.5773   -6.1418   -7.5874 C   0  0  2  0  0  0  0  0  0  0  0  0
   15.4853   -6.0898   -9.6431 N   0  0  0  0  0  0  0  0  0  0  0  0
   16.3209   -7.1157  -10.1783 C   0  0  0  0  0  0  0  0  0  0  0  0
   15.8772   -4.7578  -10.1853 O   0  0  0  0  0  0  0  0  0  0  0  0
   16.9221   -4.6579  -10.8529 O   0  0  0  0  0  0  0  0  0  0  0  0
  1  2  1  0
  3  4  2  0
  3  2  1  0
  5  6  1  0
  6  8  1  0
  7  6  2  0
  8  9  1  0
  9 10  1  0
 10 11  1  0
 12 11  1  6
 12 13  1  0
 13  3  1  0
 14 12  1  0
 15 14  2  0
 17 16  1  1
 17 19  1  0
 18 17  1  0
 19 21  1  0
 19 20  1  6
 20 14  1  0
 21 23  1  0
 22 21  2  0
M  END
$$$$
