FCK.pdb
     RDKit          3D

 27 27  0  0  1  0  0  0  0  0999 V2000
   24.8476  -20.6503   -7.8666 N   0  0  0  0  0  0  0  0  0  0  0  0
   26.0483  -20.1247   -8.4463 C   0  0  1  0  0  0  0  0  0  0  0  0
   27.2431  -20.9512   -8.0214 C   0  0  0  0  0  0  0  0  0  0  0  0
   27.6976  -20.4460   -6.7036 C   0  0  0  0  0  0  0  0  0  0  0  0
   27.8892  -19.0980   -6.4963 C   0  0  0  0  0  0  0  0  0  0  0  0
   28.3150  -18.6167   -5.2710 C   0  0  0  0  0  0  0  0  0  0  0  0
   28.5596  -19.5016   -4.2148 C   0  0  0  0  0  0  0  0  0  0  0  0
   28.3638  -20.8355   -4.4404 C   0  0  0  0  0  0  0  0  0  0  0  0
   27.9347  -21.3123   -5.6774 C   0  0  0  0  0  0  0  0  0  0  0  0
   25.9117  -20.1054   -9.9330 C   0  0  0  0  0  0  0  0  0  0  0  0
   25.0133  -20.7474  -10.5335 O   0  0  0  0  0  0  0  0  0  0  0  0
   26.8055  -19.3450  -10.7731 N   0  0  0  0  0  0  0  0  0  0  0  0
   26.5855  -19.2355  -12.1992 C   0  0  1  0  0  0  0  0  0  0  0  0
   27.6393  -18.3650  -12.8567 C   0  0  0  0  0  0  0  0  0  0  0  0
   27.2950  -18.1645  -14.6344 S   0  0  0  0  0  0  0  0  0  0  0  0
   26.4236  -20.5356  -12.8564 C   0  0  0  0  0  0  0  0  0  0  0  0
   27.0708  -21.5472  -12.4274 O   0  0  0  0  0  0  0  0  0  0  0  0
   25.5938  -20.7966  -13.9576 N   0  0  0  0  0  0  0  0  0  0  0  0
   25.3343  -22.0038  -14.6269 C   0  0  1  0  0  0  0  0  0  0  0  0
   24.1494  -22.7934  -14.1942 C   0  0  0  0  0  0  0  0  0  0  0  0
   22.8235  -22.1697  -14.5539 C   0  0  0  0  0  0  0  0  0  0  0  0
   21.6845  -23.0213  -14.0615 C   0  0  0  0  0  0  0  0  0  0  0  0
   20.3199  -22.4487  -14.3518 C   0  0  0  0  0  0  0  0  0  0  0  0
   19.2803  -23.2854  -13.7693 N   0  0  0  0  0  0  0  0  0  0  0  0
   25.1792  -21.7495  -16.0828 C   0  0  0  0  0  0  0  0  0  0  0  0
   25.0203  -20.5839  -16.4754 O   0  0  0  0  0  0  0  0  0  0  0  0
   25.2137  -22.8034  -16.9734 O   0  0  0  0  0  0  0  0  0  0  0  0
  2  1  1  1
  2 10  1  0
  2  3  1  0
  3  4  1  0
  4  5  2  0
  4  9  1  0
  5  6  1  0
  6  7  2  0
  8  7  1  0
  9  8  2  0
 10 12  1  0
 11 10  2  0
 13 12  1  0
 13 14  1  6
 13 16  1  0
 14 15  1  0
 16 18  1  0
 16 17  2  0
 18 19  1  0
 19 25  1  0
 19 20  1  1
 21 20  1  0
 22 21  1  0
 23 22  1  0
 24 23  1  0
 25 26  2  0
 25 27  1  0
M  END
$$$$
