FCK.pdb
     RDKit          3D

 27 27  0  0  1  0  0  0  0  0999 V2000
   29.4965  -30.2621  -15.7534 N   0  0  0  0  0  0  0  0  0  0  0  0
   29.2717  -29.4736  -16.9288 C   0  0  1  0  0  0  0  0  0  0  0  0
   28.0312  -29.9509  -17.6531 C   0  0  0  0  0  0  0  0  0  0  0  0
   28.3776  -31.2032  -18.3672 C   0  0  0  0  0  0  0  0  0  0  0  0
   29.2056  -31.1783  -19.4675 C   0  0  0  0  0  0  0  0  0  0  0  0
   29.5331  -32.3411  -20.1420 C   0  0  0  0  0  0  0  0  0  0  0  0
   29.0226  -33.5710  -19.7115 C   0  0  0  0  0  0  0  0  0  0  0  0
   28.2027  -33.5748  -18.6178 C   0  0  0  0  0  0  0  0  0  0  0  0
   27.8775  -32.3993  -17.9439 C   0  0  0  0  0  0  0  0  0  0  0  0
   29.1472  -28.0365  -16.5432 C   0  0  0  0  0  0  0  0  0  0  0  0
   28.1517  -27.5927  -15.9171 O   0  0  0  0  0  0  0  0  0  0  0  0
   30.1663  -27.0671  -16.8664 N   0  0  0  0  0  0  0  0  0  0  0  0
   30.0816  -25.7017  -16.3945 C   0  0  1  0  0  0  0  0  0  0  0  0
   31.4473  -25.1605  -16.0173 C   0  0  0  0  0  0  0  0  0  0  0  0
   32.1007  -26.0200  -14.5499 S   0  0  0  0  0  0  0  0  0  0  0  0
   29.3490  -24.8225  -17.3102 C   0  0  0  0  0  0  0  0  0  0  0  0
   29.1787  -25.1729  -18.5245 O   0  0  0  0  0  0  0  0  0  0  0  0
   28.7894  -23.5795  -16.9767 N   0  0  0  0  0  0  0  0  0  0  0  0
   27.9764  -22.7220  -17.7359 C   0  0  1  0  0  0  0  0  0  0  0  0
   26.8320  -22.0651  -17.0476 C   0  0  0  0  0  0  0  0  0  0  0  0
   26.0057  -21.1685  -17.9362 C   0  0  0  0  0  0  0  0  0  0  0  0
   24.8903  -20.5279  -17.1550 C   0  0  0  0  0  0  0  0  0  0  0  0
   24.1167  -19.4897  -17.9284 C   0  0  0  0  0  0  0  0  0  0  0  0
   23.1019  -18.8748  -17.0844 N   0  0  0  0  0  0  0  0  0  0  0  0
   28.8033  -21.6411  -18.3327 C   0  0  0  0  0  0  0  0  0  0  0  0
   29.8249  -21.2678  -17.7369 O   0  0  0  0  0  0  0  0  0  0  0  0
   28.4287  -21.0703  -19.5323 O   0  0  0  0  0  0  0  0  0  0  0  0
  2  1  1  1
  2 10  1  0
  2  3  1  0
  3  4  1  0
  4  5  2  0
  4  9  1  0
  5  6  1  0
  6  7  2  0
  8  7  1  0
  9  8  2  0
 10 12  1  0
 11 10  2  0
 13 12  1  0
 13 14  1  6
 13 16  1  0
 14 15  1  0
 16 18  1  0
 16 17  2  0
 18 19  1  0
 19 25  1  0
 19 20  1  1
 21 20  1  0
 22 21  1  0
 23 22  1  0
 24 23  1  0
 25 26  2  0
 25 27  1  0
M  END
$$$$
