FCK.pdb
     RDKit          3D

 27 27  0  0  1  0  0  0  0  0999 V2000
   29.0379  -12.4919  -20.8484 N   0  0  0  0  0  0  0  0  0  0  0  0
   28.6006  -13.5932  -20.0424 C   0  0  1  0  0  0  0  0  0  0  0  0
   28.5218  -13.1819  -18.5878 C   0  0  0  0  0  0  0  0  0  0  0  0
   29.9015  -12.9080  -18.1193 C   0  0  0  0  0  0  0  0  0  0  0  0
   30.8123  -13.9318  -17.9803 C   0  0  0  0  0  0  0  0  0  0  0  0
   32.1015  -13.6868  -17.5420 C   0  0  0  0  0  0  0  0  0  0  0  0
   32.5021  -12.3826  -17.2305 C   0  0  0  0  0  0  0  0  0  0  0  0
   31.5838  -11.3805  -17.3748 C   0  0  0  0  0  0  0  0  0  0  0  0
   30.2871  -11.6353  -17.8169 C   0  0  0  0  0  0  0  0  0  0  0  0
   27.2751  -14.0713  -20.5365 C   0  0  0  0  0  0  0  0  0  0  0  0
   26.3173  -13.2874  -20.7559 O   0  0  0  0  0  0  0  0  0  0  0  0
   27.0130  -15.4670  -20.7936 N   0  0  0  0  0  0  0  0  0  0  0  0
   25.7305  -15.9108  -21.2959 C   0  0  1  0  0  0  0  0  0  0  0  0
   25.7795  -16.1660  -22.7903 C   0  0  0  0  0  0  0  0  0  0  0  0
   27.3242  -15.5181  -23.5066 S   0  0  0  0  0  0  0  0  0  0  0  0
   25.1764  -17.0372  -20.5394 C   0  0  0  0  0  0  0  0  0  0  0  0
   25.9397  -17.7372  -19.7954 O   0  0  0  0  0  0  0  0  0  0  0  0
   23.8337  -17.4450  -20.5474 N   0  0  0  0  0  0  0  0  0  0  0  0
   23.1990  -18.4775  -19.8376 C   0  0  1  0  0  0  0  0  0  0  0  0
   22.5851  -18.1381  -18.5250 C   0  0  0  0  0  0  0  0  0  0  0  0
   22.1148  -19.3331  -17.7330 C   0  0  0  0  0  0  0  0  0  0  0  0
   20.8330  -19.0199  -17.0092 C   0  0  0  0  0  0  0  0  0  0  0  0
   20.2711  -20.1798  -16.2260 C   0  0  0  0  0  0  0  0  0  0  0  0
   19.0142  -19.8074  -15.5923 N   0  0  0  0  0  0  0  0  0  0  0  0
   22.1298  -19.0812  -20.6746 C   0  0  0  0  0  0  0  0  0  0  0  0
   21.2105  -18.3587  -21.0879 O   0  0  0  0  0  0  0  0  0  0  0  0
   22.1716  -20.4267  -20.9799 O   0  0  0  0  0  0  0  0  0  0  0  0
  2  1  1  6
  2 10  1  0
  2  3  1  0
  3  4  1  0
  4  5  2  0
  4  9  1  0
  5  6  1  0
  6  7  2  0
  8  7  1  0
  9  8  2  0
 10 12  1  0
 11 10  2  0
 13 12  1  0
 13 14  1  6
 13 16  1  0
 14 15  1  0
 16 18  1  0
 16 17  2  0
 18 19  1  0
 19 25  1  0
 19 20  1  1
 21 20  1  0
 22 21  1  0
 23 22  1  0
 24 23  1  0
 25 26  2  0
 25 27  1  0
M  END
$$$$
