FCK.pdb
     RDKit          3D

 27 27  0  0  1  0  0  0  0  0999 V2000
   15.3342  -16.1068    5.1173 N   0  0  0  0  0  0  0  0  0  0  0  0
   16.2989  -17.1590    4.9906 C   0  0  1  0  0  0  0  0  0  0  0  0
   17.6937  -16.5827    4.8738 C   0  0  0  0  0  0  0  0  0  0  0  0
   17.8021  -15.9242    3.5499 C   0  0  0  0  0  0  0  0  0  0  0  0
   17.7416  -14.5526    3.4406 C   0  0  0  0  0  0  0  0  0  0  0  0
   17.8398  -13.9286    2.2096 C   0  0  0  0  0  0  0  0  0  0  0  0
   18.0033  -14.6899    1.0467 C   0  0  0  0  0  0  0  0  0  0  0  0
   18.0609  -16.0495    1.1761 C   0  0  0  0  0  0  0  0  0  0  0  0
   17.9613  -16.6704    2.4195 C   0  0  0  0  0  0  0  0  0  0  0  0
   16.1929  -18.0708    6.1683 C   0  0  0  0  0  0  0  0  0  0  0  0
   15.8473  -17.6619    7.3055 O   0  0  0  0  0  0  0  0  0  0  0  0
   16.4810  -19.4816    6.0712 N   0  0  0  0  0  0  0  0  0  0  0  0
   17.1362  -20.1908    7.1491 C   0  0  1  0  0  0  0  0  0  0  0  0
   17.0603  -21.6925    6.9506 C   0  0  0  0  0  0  0  0  0  0  0  0
   18.2516  -22.5486    8.0307 S   0  0  0  0  0  0  0  0  0  0  0  0
   18.4984  -19.7141    7.4051 C   0  0  0  0  0  0  0  0  0  0  0  0
   19.2817  -19.4792    6.4266 O   0  0  0  0  0  0  0  0  0  0  0  0
   19.0569  -19.4778    8.6707 N   0  0  0  0  0  0  0  0  0  0  0  0
   20.3149  -18.9603    9.0205 C   0  0  1  0  0  0  0  0  0  0  0  0
   20.3483  -17.7460    9.8802 C   0  0  0  0  0  0  0  0  0  0  0  0
   21.7366  -17.2403   10.1855 C   0  0  0  0  0  0  0  0  0  0  0  0
   21.6778  -16.0417   11.0937 C   0  0  0  0  0  0  0  0  0  0  0  0
   23.0255  -15.4399   11.4038 C   0  0  0  0  0  0  0  0  0  0  0  0
   22.8848  -14.3156   12.3183 N   0  0  0  0  0  0  0  0  0  0  0  0
   21.1148  -20.0046    9.7118 C   0  0  0  0  0  0  0  0  0  0  0  0
   22.3515  -19.9692    9.6254 O   0  0  0  0  0  0  0  0  0  0  0  0
   20.4785  -20.9928   10.4355 O   0  0  0  0  0  0  0  0  0  0  0  0
  2  1  1  1
  2 10  1  0
  2  3  1  0
  3  4  1  0
  4  5  2  0
  4  9  1  0
  5  6  1  0
  6  7  2  0
  8  7  1  0
  9  8  2  0
 10 12  1  0
 11 10  2  0
 13 12  1  0
 13 14  1  6
 13 16  1  0
 14 15  1  0
 16 18  1  0
 16 17  2  0
 18 19  1  0
 19 25  1  0
 19 20  1  1
 21 20  1  0
 22 21  1  0
 23 22  1  0
 24 23  1  0
 25 26  2  0
 25 27  1  0
M  END
$$$$
