FCK.pdb
     RDKit          3D

 27 27  0  0  1  0  0  0  0  0999 V2000
   29.8258   -9.9513  -17.2563 N   0  0  0  0  0  0  0  0  0  0  0  0
   28.6639   -9.9288  -18.0950 C   0  0  1  0  0  0  0  0  0  0  0  0
   28.0063  -11.2919  -18.1194 C   0  0  0  0  0  0  0  0  0  0  0  0
   28.8795  -12.2293  -17.3731 C   0  0  0  0  0  0  0  0  0  0  0  0
   28.6405  -12.5056  -16.0451 C   0  0  0  0  0  0  0  0  0  0  0  0
   29.4506  -13.3772  -15.3393 C   0  0  0  0  0  0  0  0  0  0  0  0
   30.5352  -13.9964  -15.9710 C   0  0  0  0  0  0  0  0  0  0  0  0
   30.7558  -13.7092  -17.2890 C   0  0  0  0  0  0  0  0  0  0  0  0
   29.9353  -12.8301  -17.9930 C   0  0  0  0  0  0  0  0  0  0  0  0
   27.7171   -8.8860  -17.5994 C   0  0  0  0  0  0  0  0  0  0  0  0
   27.4459   -8.7499  -16.3796 O   0  0  0  0  0  0  0  0  0  0  0  0
   27.0545   -7.9677  -18.4941 N   0  0  0  0  0  0  0  0  0  0  0  0
   26.2177   -6.8998  -17.9906 C   0  0  1  0  0  0  0  0  0  0  0  0
   26.7261   -5.5416  -18.4352 C   0  0  0  0  0  0  0  0  0  0  0  0
   28.2398   -5.0892  -17.5282 S   0  0  0  0  0  0  0  0  0  0  0  0
   24.7947   -7.1018  -18.2775 C   0  0  0  0  0  0  0  0  0  0  0  0
   24.4258   -7.4285  -19.4537 O   0  0  0  0  0  0  0  0  0  0  0  0
   23.7478   -6.9679  -17.3526 N   0  0  0  0  0  0  0  0  0  0  0  0
   22.3789   -7.2500  -17.4907 C   0  0  1  0  0  0  0  0  0  0  0  0
   21.5734   -7.3921  -16.2474 C   0  0  0  0  0  0  0  0  0  0  0  0
   20.0998   -7.6123  -16.4850 C   0  0  0  0  0  0  0  0  0  0  0  0
   19.4125   -8.0276  -15.2122 C   0  0  0  0  0  0  0  0  0  0  0  0
   17.9131   -8.1381  -15.3321 C   0  0  0  0  0  0  0  0  0  0  0  0
   17.3416   -8.6838  -14.1091 N   0  0  0  0  0  0  0  0  0  0  0  0
   21.7278   -6.1971  -18.3127 C   0  0  0  0  0  0  0  0  0  0  0  0
   21.8980   -5.0068  -18.0087 O   0  0  0  0  0  0  0  0  0  0  0  0
   20.9484   -6.5522  -19.3951 O   0  0  0  0  0  0  0  0  0  0  0  0
  2  1  1  1
  2 10  1  0
  2  3  1  0
  3  4  1  0
  4  5  2  0
  4  9  1  0
  5  6  1  0
  6  7  2  0
  8  7  1  0
  9  8  2  0
 10 12  1  0
 11 10  2  0
 13 12  1  0
 13 14  1  6
 13 16  1  0
 14 15  1  0
 16 18  1  0
 16 17  2  0
 18 19  1  0
 19 25  1  0
 19 20  1  1
 21 20  1  0
 22 21  1  0
 23 22  1  0
 24 23  1  0
 25 26  2  0
 25 27  1  0
M  END
$$$$
