FCK.pdb
     RDKit          3D

 27 27  0  0  1  0  0  0  0  0999 V2000
   26.1672  -20.5648  -17.1782 N   0  0  0  0  0  0  0  0  0  0  0  0
   26.6698  -19.9938  -15.9636 C   0  0  1  0  0  0  0  0  0  0  0  0
   26.4116  -18.5025  -15.9371 C   0  0  0  0  0  0  0  0  0  0  0  0
   27.6220  -17.8241  -16.4594 C   0  0  0  0  0  0  0  0  0  0  0  0
   27.5338  -16.9455  -17.5163 C   0  0  0  0  0  0  0  0  0  0  0  0
   28.6576  -16.3089  -18.0123 C   0  0  0  0  0  0  0  0  0  0  0  0
   29.9122  -16.5514  -17.4415 C   0  0  0  0  0  0  0  0  0  0  0  0
   29.9790  -17.4266  -16.3937 C   0  0  0  0  0  0  0  0  0  0  0  0
   28.8424  -18.0638  -15.8999 C   0  0  0  0  0  0  0  0  0  0  0  0
   26.0274  -20.6695  -14.7973 C   0  0  0  0  0  0  0  0  0  0  0  0
   25.0184  -21.4088  -14.9213 O   0  0  0  0  0  0  0  0  0  0  0  0
   26.5286  -20.5148  -13.4528 N   0  0  0  0  0  0  0  0  0  0  0  0
   25.8194  -21.0662  -12.3183 C   0  0  1  0  0  0  0  0  0  0  0  0
   26.6690  -21.0278  -11.0624 C   0  0  0  0  0  0  0  0  0  0  0  0
   28.3486  -21.6479  -11.3987 S   0  0  0  0  0  0  0  0  0  0  0  0
   24.4907  -20.4768  -12.1304 C   0  0  0  0  0  0  0  0  0  0  0  0
   24.3811  -19.3054  -11.6385 O   0  0  0  0  0  0  0  0  0  0  0  0
   23.2710  -21.0933  -12.4494 N   0  0  0  0  0  0  0  0  0  0  0  0
   21.9650  -20.5770  -12.4271 C   0  0  1  0  0  0  0  0  0  0  0  0
   21.5262  -19.7558  -13.5881 C   0  0  0  0  0  0  0  0  0  0  0  0
   21.6271  -20.4596  -14.9188 C   0  0  0  0  0  0  0  0  0  0  0  0
   21.1212  -19.5759  -16.0271 C   0  0  0  0  0  0  0  0  0  0  0  0
   21.2427  -20.1846  -17.4015 C   0  0  0  0  0  0  0  0  0  0  0  0
   20.7158  -19.2769  -18.4108 N   0  0  0  0  0  0  0  0  0  0  0  0
   20.9869  -21.6867  -12.2850 C   0  0  0  0  0  0  0  0  0  0  0  0
   21.3433  -22.8411  -12.5648 O   0  0  0  0  0  0  0  0  0  0  0  0
   19.7048  -21.4226  -11.8470 O   0  0  0  0  0  0  0  0  0  0  0  0
  2  1  1  6
  2 10  1  0
  2  3  1  0
  3  4  1  0
  4  5  2  0
  4  9  1  0
  5  6  1  0
  6  7  2  0
  8  7  1  0
  9  8  2  0
 10 12  1  0
 11 10  2  0
 13 12  1  0
 13 14  1  1
 13 16  1  0
 14 15  1  0
 16 18  1  0
 16 17  2  0
 18 19  1  0
 19 25  1  0
 19 20  1  6
 21 20  1  0
 22 21  1  0
 23 22  1  0
 24 23  1  0
 25 26  2  0
 25 27  1  0
M  END
$$$$
