FCK.pdb
     RDKit          3D

 27 27  0  0  1  0  0  0  0  0999 V2000
   20.8195  -21.4037  -14.9450 N   0  0  0  0  0  0  0  0  0  0  0  0
   20.2208  -22.7038  -15.0153 C   0  0  1  0  0  0  0  0  0  0  0  0
   20.9655  -23.5730  -16.0058 C   0  0  0  0  0  0  0  0  0  0  0  0
   20.5414  -23.1719  -17.3686 C   0  0  0  0  0  0  0  0  0  0  0  0
   19.3838  -23.6744  -17.9203 C   0  0  0  0  0  0  0  0  0  0  0  0
   18.9804  -23.3079  -19.1920 C   0  0  0  0  0  0  0  0  0  0  0  0
   19.7506  -22.4128  -19.9431 C   0  0  0  0  0  0  0  0  0  0  0  0
   20.8959  -21.9254  -19.3782 C   0  0  0  0  0  0  0  0  0  0  0  0
   21.2955  -22.2994  -18.0967 C   0  0  0  0  0  0  0  0  0  0  0  0
   20.2196  -23.3212  -13.6558 C   0  0  0  0  0  0  0  0  0  0  0  0
   21.1820  -23.1908  -12.8578 O   0  0  0  0  0  0  0  0  0  0  0  0
   19.1090  -24.1069  -13.1739 N   0  0  0  0  0  0  0  0  0  0  0  0
   19.1051  -24.6622  -11.8376 C   0  0  1  0  0  0  0  0  0  0  0  0
   17.9107  -24.1755  -11.0393 C   0  0  0  0  0  0  0  0  0  0  0  0
   17.9457  -24.8498   -9.3473 S   0  0  0  0  0  0  0  0  0  0  0  0
   19.2499  -26.1206  -11.8217 C   0  0  0  0  0  0  0  0  0  0  0  0
   18.5558  -26.8349  -12.6182 O   0  0  0  0  0  0  0  0  0  0  0  0
   20.1110  -26.8470  -10.9849 N   0  0  0  0  0  0  0  0  0  0  0  0
   20.3365  -28.2309  -10.9035 C   0  0  1  0  0  0  0  0  0  0  0  0
   21.4249  -28.7024  -10.0046 C   0  0  0  0  0  0  0  0  0  0  0  0
   21.6382  -30.1959  -10.0195 C   0  0  0  0  0  0  0  0  0  0  0  0
   22.8106  -30.5739   -9.1549 C   0  0  0  0  0  0  0  0  0  0  0  0
   23.0138  -32.0616   -9.0125 C   0  0  0  0  0  0  0  0  0  0  0  0
   24.2006  -32.3412   -8.2166 N   0  0  0  0  0  0  0  0  0  0  0  0
   19.0910  -28.9202  -10.4768 C   0  0  0  0  0  0  0  0  0  0  0  0
   18.4229  -28.4351   -9.5514 O   0  0  0  0  0  0  0  0  0  0  0  0
   18.6953  -30.0814  -11.1094 O   0  0  0  0  0  0  0  0  0  0  0  0
  2  1  1  1
  2 10  1  0
  2  3  1  0
  3  4  1  0
  4  5  2  0
  4  9  1  0
  5  6  1  0
  6  7  2  0
  8  7  1  0
  9  8  2  0
 10 12  1  0
 11 10  2  0
 13 12  1  0
 13 14  1  6
 13 16  1  0
 14 15  1  0
 16 18  1  0
 16 17  2  0
 18 19  1  0
 19 25  1  0
 19 20  1  1
 21 20  1  0
 22 21  1  0
 23 22  1  0
 24 23  1  0
 25 26  2  0
 25 27  1  0
M  END
$$$$
