FCK.pdb
     RDKit          3D

 27 27  0  0  1  0  0  0  0  0999 V2000
   23.0744  -20.4459  -15.0943 N   0  0  0  0  0  0  0  0  0  0  0  0
   23.4011  -19.6508  -13.9476 C   0  0  1  0  0  0  0  0  0  0  0  0
   22.5222  -18.4197  -13.8934 C   0  0  0  0  0  0  0  0  0  0  0  0
   21.1780  -18.8008  -14.3893 C   0  0  0  0  0  0  0  0  0  0  0  0
   20.1913  -19.1939  -13.5125 C   0  0  0  0  0  0  0  0  0  0  0  0
   18.9344  -19.5534  -13.9655 C   0  0  0  0  0  0  0  0  0  0  0  0
   18.6451  -19.5226  -15.3344 C   0  0  0  0  0  0  0  0  0  0  0  0
   19.6376  -19.1299  -16.1884 C   0  0  0  0  0  0  0  0  0  0  0  0
   20.9010  -18.7693  -15.7243 C   0  0  0  0  0  0  0  0  0  0  0  0
   23.2439  -20.4761  -12.7132 C   0  0  0  0  0  0  0  0  0  0  0  0
   22.6151  -21.5645  -12.7083 O   0  0  0  0  0  0  0  0  0  0  0  0
   23.8071  -20.0729  -11.4471 N   0  0  0  0  0  0  0  0  0  0  0  0
   23.6648  -20.8956  -10.2651 C   0  0  1  0  0  0  0  0  0  0  0  0
   24.7161  -20.5577   -9.2255 C   0  0  0  0  0  0  0  0  0  0  0  0
   24.2176  -21.1632   -7.5812 S   0  0  0  0  0  0  0  0  0  0  0  0
   22.3023  -20.8933   -9.7250 C   0  0  0  0  0  0  0  0  0  0  0  0
   21.6473  -19.8009   -9.6629 O   0  0  0  0  0  0  0  0  0  0  0  0
   21.6108  -22.0173   -9.2475 N   0  0  0  0  0  0  0  0  0  0  0  0
   20.3229  -22.1187   -8.6966 C   0  0  1  0  0  0  0  0  0  0  0  0
   19.2819  -22.8196   -9.4967 C   0  0  0  0  0  0  0  0  0  0  0  0
   17.9230  -22.8645   -8.8427 C   0  0  0  0  0  0  0  0  0  0  0  0
   16.9116  -23.4949   -9.7617 C   0  0  0  0  0  0  0  0  0  0  0  0
   15.5006  -23.4727   -9.2293 C   0  0  0  0  0  0  0  0  0  0  0  0
   14.5922  -24.1239  -10.1625 N   0  0  0  0  0  0  0  0  0  0  0  0
   20.3909  -22.8013   -7.3784 C   0  0  0  0  0  0  0  0  0  0  0  0
   21.4578  -23.3284   -7.0293 O   0  0  0  0  0  0  0  0  0  0  0  0
   19.2766  -22.8405   -6.5649 O   0  0  0  0  0  0  0  0  0  0  0  0
  2  1  1  6
  2 10  1  0
  2  3  1  0
  3  4  1  0
  4  5  2  0
  4  9  1  0
  5  6  1  0
  6  7  2  0
  8  7  1  0
  9  8  2  0
 10 12  1  0
 11 10  2  0
 13 12  1  0
 13 14  1  1
 13 16  1  0
 14 15  1  0
 16 18  1  0
 16 17  2  0
 18 19  1  0
 19 25  1  0
 19 20  1  6
 21 20  1  0
 22 21  1  0
 23 22  1  0
 24 23  1  0
 25 26  2  0
 25 27  1  0
M  END
$$$$
