FCK.pdb
     RDKit          3D

 27 27  0  0  1  0  0  0  0  0999 V2000
   23.6057  -14.3639  -19.9712 N   0  0  0  0  0  0  0  0  0  0  0  0
   22.5957  -13.3516  -19.8766 C   0  0  1  0  0  0  0  0  0  0  0  0
   21.3462  -13.9137  -19.2331 C   0  0  0  0  0  0  0  0  0  0  0  0
   20.7152  -14.8408  -20.2029 C   0  0  0  0  0  0  0  0  0  0  0  0
   19.8372  -14.3710  -21.1544 C   0  0  0  0  0  0  0  0  0  0  0  0
   19.2416  -15.2282  -22.0626 C   0  0  0  0  0  0  0  0  0  0  0  0
   19.5256  -16.5981  -22.0267 C   0  0  0  0  0  0  0  0  0  0  0  0
   20.3994  -17.0447  -21.0751 C   0  0  0  0  0  0  0  0  0  0  0  0
   20.9951  -16.1749  -20.1639 C   0  0  0  0  0  0  0  0  0  0  0  0
   23.1269  -12.1954  -19.0954 C   0  0  0  0  0  0  0  0  0  0  0  0
   24.0425  -12.3238  -18.2438 O   0  0  0  0  0  0  0  0  0  0  0  0
   22.6198  -10.8558  -19.2720 N   0  0  0  0  0  0  0  0  0  0  0  0
   23.2197   -9.7291  -18.5902 C   0  0  1  0  0  0  0  0  0  0  0  0
   24.3916   -9.1682  -19.3729 C   0  0  0  0  0  0  0  0  0  0  0  0
   24.1402   -9.3929  -21.1632 S   0  0  0  0  0  0  0  0  0  0  0  0
   22.2440   -8.7053  -18.2056 C   0  0  0  0  0  0  0  0  0  0  0  0
   21.3947   -8.2868  -19.0600 O   0  0  0  0  0  0  0  0  0  0  0  0
   22.1407   -8.1099  -16.9390 N   0  0  0  0  0  0  0  0  0  0  0  0
   21.2073   -7.1808  -16.4511 C   0  0  1  0  0  0  0  0  0  0  0  0
   20.8388   -7.2620  -15.0115 C   0  0  0  0  0  0  0  0  0  0  0  0
   19.6667   -8.1667  -14.7214 C   0  0  0  0  0  0  0  0  0  0  0  0
   19.2974   -8.1072  -13.2637 C   0  0  0  0  0  0  0  0  0  0  0  0
   18.2083   -9.0719  -12.8665 C   0  0  0  0  0  0  0  0  0  0  0  0
   17.9475   -8.9875  -11.4364 N   0  0  0  0  0  0  0  0  0  0  0  0
   21.6955   -5.7991  -16.6977 C   0  0  0  0  0  0  0  0  0  0  0  0
   22.8975   -5.6222  -16.9466 O   0  0  0  0  0  0  0  0  0  0  0  0
   20.8140   -4.7382  -16.6477 O   0  0  0  0  0  0  0  0  0  0  0  0
  2  1  1  1
  2 10  1  0
  2  3  1  0
  3  4  1  0
  4  5  2  0
  4  9  1  0
  5  6  1  0
  6  7  2  0
  8  7  1  0
  9  8  2  0
 10 12  1  0
 11 10  2  0
 13 12  1  0
 13 14  1  6
 13 16  1  0
 14 15  1  0
 16 18  1  0
 16 17  2  0
 18 19  1  0
 19 25  1  0
 19 20  1  1
 21 20  1  0
 22 21  1  0
 23 22  1  0
 24 23  1  0
 25 26  2  0
 25 27  1  0
M  END
$$$$
