FCK.pdb
     RDKit          3D

 27 27  0  0  1  0  0  0  0  0999 V2000
   24.1894  -19.7026  -16.6041 N   0  0  0  0  0  0  0  0  0  0  0  0
   22.8206  -20.0759  -16.4019 C   0  0  1  0  0  0  0  0  0  0  0  0
   22.4781  -21.2914  -17.2364 C   0  0  0  0  0  0  0  0  0  0  0  0
   22.4460  -20.8704  -18.6576 C   0  0  0  0  0  0  0  0  0  0  0  0
   21.4353  -20.0616  -19.1279 C   0  0  0  0  0  0  0  0  0  0  0  0
   21.3953  -19.6649  -20.4528 C   0  0  0  0  0  0  0  0  0  0  0  0
   22.3909  -20.0842  -21.3425 C   0  0  0  0  0  0  0  0  0  0  0  0
   23.3852  -20.8865  -20.8566 C   0  0  0  0  0  0  0  0  0  0  0  0
   23.4185  -21.2818  -19.5208 C   0  0  0  0  0  0  0  0  0  0  0  0
   22.5901  -20.3403  -14.9505 C   0  0  0  0  0  0  0  0  0  0  0  0
   23.4062  -19.9815  -14.0644 O   0  0  0  0  0  0  0  0  0  0  0  0
   21.4118  -21.0252  -14.4759 N   0  0  0  0  0  0  0  0  0  0  0  0
   21.0353  -20.9932  -13.0790 C   0  0  1  0  0  0  0  0  0  0  0  0
   20.8851  -19.5693  -12.5785 C   0  0  0  0  0  0  0  0  0  0  0  0
   20.4558  -19.5481  -10.8082 S   0  0  0  0  0  0  0  0  0  0  0  0
   19.8719  -21.8326  -12.7788 C   0  0  0  0  0  0  0  0  0  0  0  0
   18.7187  -21.4925  -13.2039 O   0  0  0  0  0  0  0  0  0  0  0  0
   19.8940  -23.0253  -12.0397 N   0  0  0  0  0  0  0  0  0  0  0  0
   18.8400  -23.8727  -11.6606 C   0  0  1  0  0  0  0  0  0  0  0  0
   19.1170  -24.8960  -10.6161 C   0  0  0  0  0  0  0  0  0  0  0  0
   17.9698  -25.8400  -10.3532 C   0  0  0  0  0  0  0  0  0  0  0  0
   18.3788  -26.9165   -9.3843 C   0  0  0  0  0  0  0  0  0  0  0  0
   17.2619  -27.8554   -9.0025 C   0  0  0  0  0  0  0  0  0  0  0  0
   17.7677  -28.9410   -8.1744 N   0  0  0  0  0  0  0  0  0  0  0  0
   17.6897  -23.0629  -11.1817 C   0  0  0  0  0  0  0  0  0  0  0  0
   17.9114  -22.0286  -10.5342 O   0  0  0  0  0  0  0  0  0  0  0  0
   16.3997  -23.4670  -11.4603 O   0  0  0  0  0  0  0  0  0  0  0  0
  2  1  1  1
  2 10  1  0
  2  3  1  0
  3  4  1  0
  4  5  2  0
  4  9  1  0
  5  6  1  0
  6  7  2  0
  8  7  1  0
  9  8  2  0
 10 12  1  0
 11 10  2  0
 13 12  1  0
 13 14  1  6
 13 16  1  0
 14 15  1  0
 16 18  1  0
 16 17  2  0
 18 19  1  0
 19 25  1  0
 19 20  1  1
 21 20  1  0
 22 21  1  0
 23 22  1  0
 24 23  1  0
 25 26  2  0
 25 27  1  0
M  END
$$$$
