FCK.pdb
     RDKit          3D

 27 27  0  0  1  0  0  0  0  0999 V2000
   24.4967  -21.1935  -10.5421 N   0  0  0  0  0  0  0  0  0  0  0  0
   25.4803  -20.1750  -10.7631 C   0  0  1  0  0  0  0  0  0  0  0  0
   26.7624  -20.5147  -10.0336 C   0  0  0  0  0  0  0  0  0  0  0  0
   26.6429  -20.0047   -8.6467 C   0  0  0  0  0  0  0  0  0  0  0  0
   26.5278  -18.6542   -8.4024 C   0  0  0  0  0  0  0  0  0  0  0  0
   26.4178  -18.1681   -7.1117 C   0  0  0  0  0  0  0  0  0  0  0  0
   26.4222  -19.0506   -6.0255 C   0  0  0  0  0  0  0  0  0  0  0  0
   26.5375  -20.3870   -6.2886 C   0  0  0  0  0  0  0  0  0  0  0  0
   26.6479  -20.8687   -7.5915 C   0  0  0  0  0  0  0  0  0  0  0  0
   25.7206  -20.0304  -12.2297 C   0  0  0  0  0  0  0  0  0  0  0  0
   25.5115  -20.9679  -13.0404 O   0  0  0  0  0  0  0  0  0  0  0  0
   26.2084  -18.8009  -12.8070 N   0  0  0  0  0  0  0  0  0  0  0  0
   26.4953  -18.6966  -14.2215 C   0  0  1  0  0  0  0  0  0  0  0  0
   26.9856  -17.3084  -14.5861 C   0  0  0  0  0  0  0  0  0  0  0  0
   27.5501  -17.2561  -16.3175 S   0  0  0  0  0  0  0  0  0  0  0  0
   27.3757  -19.7623  -14.7086 C   0  0  0  0  0  0  0  0  0  0  0  0
   28.4866  -19.9835  -14.1228 O   0  0  0  0  0  0  0  0  0  0  0  0
   27.1133  -20.6034  -15.8008 N   0  0  0  0  0  0  0  0  0  0  0  0
   27.9018  -21.6165  -16.3707 C   0  0  1  0  0  0  0  0  0  0  0  0
   27.4094  -23.0170  -16.2663 C   0  0  0  0  0  0  0  0  0  0  0  0
   28.3060  -24.0398  -16.9191 C   0  0  0  0  0  0  0  0  0  0  0  0
   27.6849  -25.4092  -16.8550 C   0  0  0  0  0  0  0  0  0  0  0  0
   28.5073  -26.4877  -17.5145 C   0  0  0  0  0  0  0  0  0  0  0  0
   27.8171  -27.7682  -17.4495 N   0  0  0  0  0  0  0  0  0  0  0  0
   28.1149  -21.3370  -17.8146 C   0  0  0  0  0  0  0  0  0  0  0  0
   27.1835  -20.8560  -18.4772 O   0  0  0  0  0  0  0  0  0  0  0  0
   29.3357  -21.6131  -18.3965 O   0  0  0  0  0  0  0  0  0  0  0  0
  2  1  1  6
  2 10  1  0
  2  3  1  0
  3  4  1  0
  4  5  2  0
  4  9  1  0
  5  6  1  0
  6  7  2  0
  8  7  1  0
  9  8  2  0
 10 12  1  0
 11 10  2  0
 13 12  1  0
 13 14  1  1
 13 16  1  0
 14 15  1  0
 16 18  1  0
 16 17  2  0
 18 19  1  0
 19 25  1  0
 19 20  1  6
 21 20  1  0
 22 21  1  0
 23 22  1  0
 24 23  1  0
 25 26  2  0
 25 27  1  0
M  END
$$$$
