FCK.pdb
     RDKit          3D

 27 27  0  0  1  0  0  0  0  0999 V2000
   26.6094  -19.9686  -17.8633 N   0  0  0  0  0  0  0  0  0  0  0  0
   26.9195  -19.3598  -16.6035 C   0  0  1  0  0  0  0  0  0  0  0  0
   26.4502  -17.9208  -16.5849 C   0  0  0  0  0  0  0  0  0  0  0  0
   27.2929  -17.1574  -17.5364 C   0  0  0  0  0  0  0  0  0  0  0  0
   28.6526  -17.0534  -17.3431 C   0  0  0  0  0  0  0  0  0  0  0  0
   29.4474  -16.3417  -18.2241 C   0  0  0  0  0  0  0  0  0  0  0  0
   28.8752  -15.7111  -19.3347 C   0  0  0  0  0  0  0  0  0  0  0  0
   27.5243  -15.8259  -19.5089 C   0  0  0  0  0  0  0  0  0  0  0  0
   26.7307  -16.5445  -18.6171 C   0  0  0  0  0  0  0  0  0  0  0  0
   26.2823  -20.1453  -15.5051 C   0  0  0  0  0  0  0  0  0  0  0  0
   25.1352  -20.6471  -15.6162 O   0  0  0  0  0  0  0  0  0  0  0  0
   26.9476  -20.3773  -14.2457 N   0  0  0  0  0  0  0  0  0  0  0  0
   26.2606  -21.0042  -13.1370 C   0  0  1  0  0  0  0  0  0  0  0  0
   27.1453  -21.0767  -11.9071 C   0  0  0  0  0  0  0  0  0  0  0  0
   26.1719  -21.5337  -10.4365 S   0  0  0  0  0  0  0  0  0  0  0  0
   24.9483  -20.4106  -12.8656 C   0  0  0  0  0  0  0  0  0  0  0  0
   24.8285  -19.1429  -12.7962 O   0  0  0  0  0  0  0  0  0  0  0  0
   23.7555  -21.1223  -12.6651 N   0  0  0  0  0  0  0  0  0  0  0  0
   22.4723  -20.6587  -12.3317 C   0  0  1  0  0  0  0  0  0  0  0  0
   21.3137  -21.2523  -13.0531 C   0  0  0  0  0  0  0  0  0  0  0  0
   19.9742  -20.6936  -12.6408 C   0  0  0  0  0  0  0  0  0  0  0  0
   18.8747  -21.2639  -13.4956 C   0  0  0  0  0  0  0  0  0  0  0  0
   17.4981  -20.7589  -13.1425 C   0  0  0  0  0  0  0  0  0  0  0  0
   16.5006  -21.3252  -14.0394 N   0  0  0  0  0  0  0  0  0  0  0  0
   22.2271  -20.8551  -10.8793 C   0  0  0  0  0  0  0  0  0  0  0  0
   22.8639  -21.7316  -10.2758 O   0  0  0  0  0  0  0  0  0  0  0  0
   21.3022  -20.0672  -10.2244 O   0  0  0  0  0  0  0  0  0  0  0  0
  2  1  1  6
  2 10  1  0
  2  3  1  0
  3  4  1  0
  4  5  2  0
  4  9  1  0
  5  6  1  0
  6  7  2  0
  8  7  1  0
  9  8  2  0
 10 12  1  0
 11 10  2  0
 13 12  1  0
 13 14  1  1
 13 16  1  0
 14 15  1  0
 16 18  1  0
 16 17  2  0
 18 19  1  0
 19 25  1  0
 19 20  1  6
 21 20  1  0
 22 21  1  0
 23 22  1  0
 24 23  1  0
 25 26  2  0
 25 27  1  0
M  END
$$$$
