FCK.pdb
     RDKit          3D

 27 27  0  0  1  0  0  0  0  0999 V2000
   28.3815  -20.3982   -9.0378 N   0  0  0  0  0  0  0  0  0  0  0  0
   26.9920  -20.6003   -8.7506 C   0  0  1  0  0  0  0  0  0  0  0  0
   26.5256  -19.6222   -7.6938 C   0  0  0  0  0  0  0  0  0  0  0  0
   27.4468  -19.7317   -6.5373 C   0  0  0  0  0  0  0  0  0  0  0  0
   28.0310  -18.6082   -5.9958 C   0  0  0  0  0  0  0  0  0  0  0  0
   28.8936  -18.7000   -4.9179 C   0  0  0  0  0  0  0  0  0  0  0  0
   29.1876  -19.9482   -4.3574 C   0  0  0  0  0  0  0  0  0  0  0  0
   28.5980  -21.0511   -4.9089 C   0  0  0  0  0  0  0  0  0  0  0  0
   27.7303  -20.9503   -5.9946 C   0  0  0  0  0  0  0  0  0  0  0  0
   26.2007  -20.4485  -10.0077 C   0  0  0  0  0  0  0  0  0  0  0  0
   25.8781  -19.3237  -10.4668 O   0  0  0  0  0  0  0  0  0  0  0  0
   25.7576  -21.5880  -10.7745 N   0  0  0  0  0  0  0  0  0  0  0  0
   24.9397  -21.4260  -11.9573 C   0  0  1  0  0  0  0  0  0  0  0  0
   25.7361  -21.6878  -13.2213 C   0  0  0  0  0  0  0  0  0  0  0  0
   27.2683  -20.7023  -13.2359 S   0  0  0  0  0  0  0  0  0  0  0  0
   23.6891  -22.1880  -11.8990 C   0  0  0  0  0  0  0  0  0  0  0  0
   23.7230  -23.4467  -11.6967 O   0  0  0  0  0  0  0  0  0  0  0  0
   22.3997  -21.6547  -12.0487 N   0  0  0  0  0  0  0  0  0  0  0  0
   21.1457  -22.2758  -11.9286 C   0  0  1  0  0  0  0  0  0  0  0  0
   20.5147  -22.3047  -10.5811 C   0  0  0  0  0  0  0  0  0  0  0  0
   19.2081  -23.0569  -10.5243 C   0  0  0  0  0  0  0  0  0  0  0  0
   18.6922  -23.1201   -9.1119 C   0  0  0  0  0  0  0  0  0  0  0  0
   18.0912  -24.4515   -8.7368 C   0  0  0  0  0  0  0  0  0  0  0  0
   17.7488  -24.4771   -7.3218 N   0  0  0  0  0  0  0  0  0  0  0  0
   20.1740  -21.6317  -12.8501 C   0  0  0  0  0  0  0  0  0  0  0  0
   20.4598  -20.5349  -13.3534 O   0  0  0  0  0  0  0  0  0  0  0  0
   18.9757  -22.2555  -13.1330 O   0  0  0  0  0  0  0  0  0  0  0  0
  2  1  1  6
  2 10  1  0
  2  3  1  0
  3  4  1  0
  4  5  2  0
  4  9  1  0
  5  6  1  0
  6  7  2  0
  8  7  1  0
  9  8  2  0
 10 12  1  0
 11 10  2  0
 13 12  1  0
 13 14  1  6
 13 16  1  0
 14 15  1  0
 16 18  1  0
 16 17  2  0
 18 19  1  0
 19 25  1  0
 19 20  1  1
 21 20  1  0
 22 21  1  0
 23 22  1  0
 24 23  1  0
 25 26  2  0
 25 27  1  0
M  END
$$$$
