FCK.pdb
     RDKit          3D

 27 27  0  0  1  0  0  0  0  0999 V2000
   27.8495  -19.8850  -16.0270 N   0  0  0  0  0  0  0  0  0  0  0  0
   27.1209  -19.2859  -14.9481 C   0  0  1  0  0  0  0  0  0  0  0  0
   26.0941  -18.3113  -15.4840 C   0  0  0  0  0  0  0  0  0  0  0  0
   26.8187  -17.1145  -15.9747 C   0  0  0  0  0  0  0  0  0  0  0  0
   27.1177  -16.9736  -17.3117 C   0  0  0  0  0  0  0  0  0  0  0  0
   27.7952  -15.8616  -17.7792 C   0  0  0  0  0  0  0  0  0  0  0  0
   28.1902  -14.8544  -16.8914 C   0  0  0  0  0  0  0  0  0  0  0  0
   27.8843  -15.0128  -15.5686 C   0  0  0  0  0  0  0  0  0  0  0  0
   27.2016  -16.1358  -15.1055 C   0  0  0  0  0  0  0  0  0  0  0  0
   26.4704  -20.3571  -14.1365 C   0  0  0  0  0  0  0  0  0  0  0  0
   25.8353  -21.3060  -14.6620 O   0  0  0  0  0  0  0  0  0  0  0  0
   26.5324  -20.3680  -12.6947 N   0  0  0  0  0  0  0  0  0  0  0  0
   25.4412  -20.8884  -11.8993 C   0  0  1  0  0  0  0  0  0  0  0  0
   25.7121  -20.7284  -10.4156 C   0  0  0  0  0  0  0  0  0  0  0  0
   24.2228  -21.1169   -9.4408 S   0  0  0  0  0  0  0  0  0  0  0  0
   24.1344  -20.3623  -12.3039 C   0  0  0  0  0  0  0  0  0  0  0  0
   23.9625  -19.1028  -12.4058 O   0  0  0  0  0  0  0  0  0  0  0  0
   23.0010  -21.1331  -12.6050 N   0  0  0  0  0  0  0  0  0  0  0  0
   21.7231  -20.7330  -13.0288 C   0  0  1  0  0  0  0  0  0  0  0  0
   21.3489  -21.0004  -14.4442 C   0  0  0  0  0  0  0  0  0  0  0  0
   19.9506  -20.5662  -14.8085 C   0  0  0  0  0  0  0  0  0  0  0  0
   19.6148  -20.9817  -16.2155 C   0  0  0  0  0  0  0  0  0  0  0  0
   18.2298  -20.5823  -16.6594 C   0  0  0  0  0  0  0  0  0  0  0  0
   17.9770  -21.0403  -18.0183 N   0  0  0  0  0  0  0  0  0  0  0  0
   20.6867  -21.3720  -12.1769 C   0  0  0  0  0  0  0  0  0  0  0  0
   20.9685  -22.4157  -11.5691 O   0  0  0  0  0  0  0  0  0  0  0  0
   19.4340  -20.8021  -12.0723 O   0  0  0  0  0  0  0  0  0  0  0  0
  2  1  1  6
  2 10  1  0
  2  3  1  0
  3  4  1  0
  4  5  2  0
  4  9  1  0
  5  6  1  0
  6  7  2  0
  8  7  1  0
  9  8  2  0
 10 12  1  0
 11 10  2  0
 13 12  1  0
 13 14  1  1
 13 16  1  0
 14 15  1  0
 16 18  1  0
 16 17  2  0
 18 19  1  0
 19 25  1  0
 19 20  1  6
 21 20  1  0
 22 21  1  0
 23 22  1  0
 24 23  1  0
 25 26  2  0
 25 27  1  0
M  END
$$$$
