FWE.pdb
     RDKit          3D

 35 37  0  0  1  0  0  0  0  0999 V2000
    7.2774  -14.4853   20.4665 N   0  0  0  0  0  0  0  0  0  0  0  0
    7.8729  -15.7309   20.8355 C   0  0  1  0  0  0  0  0  0  0  0  0
    8.7598  -16.3106   19.7773 C   0  0  0  0  0  0  0  0  0  0  0  0
    8.6823  -17.7794   19.6918 C   0  0  0  0  0  0  0  0  0  0  0  0
    9.7826  -18.5006   20.1328 C   0  0  0  0  0  0  0  0  0  0  0  0
    9.7823  -19.8788   20.0845 C   0  0  0  0  0  0  0  0  0  0  0  0
    8.6549  -20.5226   19.5849 C   0  0  0  0  0  0  0  0  0  0  0  0
    7.5655  -19.7964   19.1487 C   0  0  0  0  0  0  0  0  0  0  0  0
    7.5620  -18.4310   19.1948 C   0  0  0  0  0  0  0  0  0  0  0  0
    8.6774  -15.5866   22.0806 C   0  0  0  0  0  0  0  0  0  0  0  0
    9.5312  -14.6588   22.2083 O   0  0  0  0  0  0  0  0  0  0  0  0
    8.5458  -16.4698   23.2000 N   0  0  0  0  0  0  0  0  0  0  0  0
    9.3347  -16.2898   24.3699 C   0  0  1  0  0  0  0  0  0  0  0  0
    8.5481  -16.1511   25.6542 C   0  0  0  0  0  0  0  0  0  0  0  0
    7.4633  -15.1436   25.5637 C   0  0  0  0  0  0  0  0  0  0  0  0
    6.1354  -15.3573   25.2251 C   0  0  0  0  0  0  0  0  0  0  0  0
    5.4601  -14.1937   25.2775 N   0  0  0  0  0  0  0  0  0  0  0  0
    6.2926  -13.1995   25.6411 C   0  0  0  0  0  0  0  0  0  0  0  0
    6.1347  -11.8458   25.8394 C   0  0  0  0  0  0  0  0  0  0  0  0
    7.1656  -11.0168   26.2136 C   0  0  0  0  0  0  0  0  0  0  0  0
    8.4098  -11.5823   26.3944 C   0  0  0  0  0  0  0  0  0  0  0  0
    8.5785  -12.9546   26.1956 C   0  0  0  0  0  0  0  0  0  0  0  0
    7.5440  -13.7859   25.8209 C   0  0  0  0  0  0  0  0  0  0  0  0
   10.3404  -17.3609   24.5920 C   0  0  0  0  0  0  0  0  0  0  0  0
    9.9754  -18.5336   24.3891 O   0  0  0  0  0  0  0  0  0  0  0  0
   11.6636  -17.1390   25.0111 N   0  0  0  0  0  0  0  0  0  0  0  0
   12.5015  -18.2878   25.4297 C   0  0  1  0  0  0  0  0  0  0  0  0
   13.9284  -17.9129   25.1257 C   0  0  0  0  0  0  0  0  0  0  0  0
   14.0791  -17.4929   23.7008 C   0  0  0  0  0  0  0  0  0  0  0  0
   15.1160  -16.4052   23.6746 C   0  0  0  0  0  0  0  0  0  0  0  0
   14.7877  -15.2901   23.2458 O   0  0  0  0  0  0  0  0  0  0  0  0
   12.2601  -18.5903   26.8494 C   0  0  0  0  0  0  0  0  0  0  0  0
   12.7926  -19.6655   27.5215 O   0  0  0  0  0  0  0  0  0  0  0  0
   16.4029  -16.6067   24.1076 O   0  0  0  0  0  0  0  0  0  0  0  0
   11.5053  -17.8172   27.5307 O   0  0  0  0  0  0  0  0  0  0  0  0
  2  1  1  6
  2  3  1  0
  3  4  1  0
  4  9  2  0
  5  6  2  0
  5  4  1  0
  6  7  1  0
  7  8  2  0
  9  8  1  0
 10  2  1  0
 11 10  2  0
 12 10  1  0
 13 12  1  0
 14 15  1  0
 13 14  1  1
 15 23  1  0
 16 17  1  0
 16 15  2  0
 17 18  1  0
 18 23  2  0
 18 19  1  0
 19 20  2  0
 20 21  1  0
 22 21  2  0
 23 22  1  0
 24 13  1  0
 24 25  2  0
 26 24  1  0
 27 26  1  0
 27 28  1  1
 28 29  1  0
 29 30  1  0
 30 34  1  0
 30 31  2  0
 32 27  1  0
 33 32  1  0
 35 32  2  0
M  END
$$$$
