FWE.pdb
     RDKit          3D

 35 37  0  0  1  0  0  0  0  0999 V2000
    5.6363  -17.3982   22.0271 N   0  0  0  0  0  0  0  0  0  0  0  0
    6.5160  -16.3793   21.5474 C   0  0  1  0  0  0  0  0  0  0  0  0
    5.8066  -15.1639   21.0355 C   0  0  0  0  0  0  0  0  0  0  0  0
    6.6780  -14.2628   20.2614 C   0  0  0  0  0  0  0  0  0  0  0  0
    6.9443  -13.0142   20.8050 C   0  0  0  0  0  0  0  0  0  0  0  0
    7.7525  -12.1176   20.1382 C   0  0  0  0  0  0  0  0  0  0  0  0
    8.2908  -12.4970   18.9129 C   0  0  0  0  0  0  0  0  0  0  0  0
    8.0198  -13.7411   18.3805 C   0  0  0  0  0  0  0  0  0  0  0  0
    7.2196  -14.6320   19.0379 C   0  0  0  0  0  0  0  0  0  0  0  0
    7.4584  -15.9451   22.6157 C   0  0  0  0  0  0  0  0  0  0  0  0
    7.2981  -14.8472   23.2281 O   0  0  0  0  0  0  0  0  0  0  0  0
    8.5913  -16.7228   23.0186 N   0  0  0  0  0  0  0  0  0  0  0  0
    9.5190  -16.2226   23.9740 C   0  0  1  0  0  0  0  0  0  0  0  0
    9.0755  -16.3401   25.4152 C   0  0  0  0  0  0  0  0  0  0  0  0
    7.9573  -15.4264   25.7540 C   0  0  0  0  0  0  0  0  0  0  0  0
    6.5987  -15.7042   25.7257 C   0  0  0  0  0  0  0  0  0  0  0  0
    5.9050  -14.6213   26.1241 N   0  0  0  0  0  0  0  0  0  0  0  0
    6.7547  -13.6193   26.4204 C   0  0  0  0  0  0  0  0  0  0  0  0
    6.5888  -12.3247   26.8599 C   0  0  0  0  0  0  0  0  0  0  0  0
    7.6406  -11.4701   27.0916 C   0  0  0  0  0  0  0  0  0  0  0  0
    8.9148  -11.9465   26.8685 C   0  0  0  0  0  0  0  0  0  0  0  0
    9.0919  -13.2586   26.4229 C   0  0  0  0  0  0  0  0  0  0  0  0
    8.0367  -14.1155   26.1914 C   0  0  0  0  0  0  0  0  0  0  0  0
   10.8691  -16.8367   23.8853 C   0  0  0  0  0  0  0  0  0  0  0  0
   10.9580  -18.0521   24.1391 O   0  0  0  0  0  0  0  0  0  0  0  0
   12.0405  -16.1424   23.5365 N   0  0  0  0  0  0  0  0  0  0  0  0
   13.3258  -16.8749   23.4442 C   0  0  1  0  0  0  0  0  0  0  0  0
   14.2614  -16.0033   22.6480 C   0  0  0  0  0  0  0  0  0  0  0  0
   13.8316  -15.9218   21.2203 C   0  0  0  0  0  0  0  0  0  0  0  0
   14.8523  -15.0817   20.5054 C   0  0  0  0  0  0  0  0  0  0  0  0
   15.8598  -14.7221   21.1305 O   0  0  0  0  0  0  0  0  0  0  0  0
   13.8182  -17.1905   24.7945 C   0  0  0  0  0  0  0  0  0  0  0  0
   13.2603  -16.7200   25.9601 O   0  0  0  0  0  0  0  0  0  0  0  0
   14.7047  -14.7045   19.1939 O   0  0  0  0  0  0  0  0  0  0  0  0
   14.8355  -17.9519   24.9237 O   0  0  0  0  0  0  0  0  0  0  0  0
  2  1  1  1
  2  3  1  0
  3  4  1  0
  4  9  2  0
  5  6  2  0
  5  4  1  0
  6  7  1  0
  7  8  2  0
  9  8  1  0
 10  2  1  0
 11 10  2  0
 12 10  1  0
 13 12  1  0
 14 15  1  0
 13 14  1  1
 15 23  1  0
 16 17  1  0
 16 15  2  0
 17 18  1  0
 18 23  2  0
 18 19  1  0
 19 20  2  0
 20 21  1  0
 22 21  2  0
 23 22  1  0
 24 13  1  0
 24 25  2  0
 26 24  1  0
 27 26  1  0
 27 28  1  1
 28 29  1  0
 29 30  1  0
 30 34  1  0
 30 31  2  0
 32 27  1  0
 33 32  1  0
 35 32  2  0
M  END
$$$$
