FWE.pdb
     RDKit          3D

 35 37  0  0  1  0  0  0  0  0999 V2000
    7.8994  -17.4913   20.9491 N   0  0  0  0  0  0  0  0  0  0  0  0
    9.1781  -16.8621   20.8433 C   0  0  1  0  0  0  0  0  0  0  0  0
    9.1955  -15.6874   19.9146 C   0  0  0  0  0  0  0  0  0  0  0  0
    8.3180  -14.5869   20.3498 C   0  0  0  0  0  0  0  0  0  0  0  0
    8.8555  -13.3077   20.3503 C   0  0  0  0  0  0  0  0  0  0  0  0
    8.0937  -12.2277   20.7440 C   0  0  0  0  0  0  0  0  0  0  0  0
    6.7790  -12.4543   21.1380 C   0  0  0  0  0  0  0  0  0  0  0  0
    6.2536  -13.7305   21.1341 C   0  0  0  0  0  0  0  0  0  0  0  0
    7.0051  -14.8029   20.7450 C   0  0  0  0  0  0  0  0  0  0  0  0
    9.6547  -16.4005   22.1766 C   0  0  0  0  0  0  0  0  0  0  0  0
   10.6357  -15.6055   22.2856 O   0  0  0  0  0  0  0  0  0  0  0  0
    9.0499  -16.8150   23.4067 N   0  0  0  0  0  0  0  0  0  0  0  0
    9.7230  -16.6403   24.6476 C   0  0  1  0  0  0  0  0  0  0  0  0
    8.8215  -16.5963   25.8612 C   0  0  0  0  0  0  0  0  0  0  0  0
    7.6924  -15.6464   25.7105 C   0  0  0  0  0  0  0  0  0  0  0  0
    6.4016  -15.9258   25.2868 C   0  0  0  0  0  0  0  0  0  0  0  0
    5.6633  -14.8001   25.3060 N   0  0  0  0  0  0  0  0  0  0  0  0
    6.4171  -13.7677   25.7297 C   0  0  0  0  0  0  0  0  0  0  0  0
    6.1751  -12.4266   25.9289 C   0  0  0  0  0  0  0  0  0  0  0  0
    7.1349  -11.5488   26.3745 C   0  0  0  0  0  0  0  0  0  0  0  0
    8.3936  -12.0500   26.6290 C   0  0  0  0  0  0  0  0  0  0  0  0
    8.6474  -13.4092   26.4299 C   0  0  0  0  0  0  0  0  0  0  0  0
    7.6843  -14.2894   25.9836 C   0  0  0  0  0  0  0  0  0  0  0  0
   10.7653  -17.6637   24.9197 C   0  0  0  0  0  0  0  0  0  0  0  0
   10.4266  -18.8580   24.8266 O   0  0  0  0  0  0  0  0  0  0  0  0
   12.0954  -17.3747   25.2710 N   0  0  0  0  0  0  0  0  0  0  0  0
   13.0479  -18.4854   25.5078 C   0  0  1  0  0  0  0  0  0  0  0  0
   14.2514  -18.2114   24.6444 C   0  0  0  0  0  0  0  0  0  0  0  0
   15.1128  -17.1517   25.2482 C   0  0  0  0  0  0  0  0  0  0  0  0
   16.0118  -16.6459   24.1551 C   0  0  0  0  0  0  0  0  0  0  0  0
   16.6196  -15.5820   24.3388 O   0  0  0  0  0  0  0  0  0  0  0  0
   13.3596  -18.5779   26.9430 C   0  0  0  0  0  0  0  0  0  0  0  0
   14.0702  -19.6016   27.5245 O   0  0  0  0  0  0  0  0  0  0  0  0
   16.1791  -17.3199   22.9710 O   0  0  0  0  0  0  0  0  0  0  0  0
   12.9528  -17.6566   27.7286 O   0  0  0  0  0  0  0  0  0  0  0  0
  2  1  1  1
  2  3  1  0
  3  4  1  0
  4  9  2  0
  5  6  2  0
  5  4  1  0
  6  7  1  0
  7  8  2  0
  9  8  1  0
 10  2  1  0
 11 10  2  0
 12 10  1  0
 13 12  1  0
 14 15  1  0
 13 14  1  1
 15 23  1  0
 16 17  1  0
 16 15  2  0
 17 18  1  0
 18 23  2  0
 18 19  1  0
 19 20  2  0
 20 21  1  0
 22 21  2  0
 23 22  1  0
 24 13  1  0
 24 25  2  0
 26 24  1  0
 27 26  1  0
 27 28  1  6
 28 29  1  0
 29 30  1  0
 30 34  1  0
 30 31  2  0
 32 27  1  0
 33 32  1  0
 35 32  2  0
M  END
$$$$
