FWE.pdb
     RDKit          3D

 35 37  0  0  1  0  0  0  0  0999 V2000
    8.0754  -16.8738   21.4812 N   0  0  0  0  0  0  0  0  0  0  0  0
    9.2649  -16.8303   20.6903 C   0  0  1  0  0  0  0  0  0  0  0  0
    9.1243  -16.0247   19.4359 C   0  0  0  0  0  0  0  0  0  0  0  0
    8.5270  -14.6966   19.6597 C   0  0  0  0  0  0  0  0  0  0  0  0
    7.1595  -14.6453   19.8896 C   0  0  0  0  0  0  0  0  0  0  0  0
    6.5306  -13.4377   20.1083 C   0  0  0  0  0  0  0  0  0  0  0  0
    7.3001  -12.2790   20.0927 C   0  0  0  0  0  0  0  0  0  0  0  0
    8.6596  -12.3405   19.8631 C   0  0  0  0  0  0  0  0  0  0  0  0
    9.2863  -13.5348   19.6458 C   0  0  0  0  0  0  0  0  0  0  0  0
   10.4018  -16.2688   21.4717 C   0  0  0  0  0  0  0  0  0  0  0  0
   11.5964  -16.6251   21.2435 O   0  0  0  0  0  0  0  0  0  0  0  0
   10.2285  -15.3053   22.5167 N   0  0  0  0  0  0  0  0  0  0  0  0
    9.5274  -15.6380   23.7089 C   0  0  1  0  0  0  0  0  0  0  0  0
    8.0358  -15.8232   23.5406 C   0  0  0  0  0  0  0  0  0  0  0  0
    7.2540  -15.3062   24.6903 C   0  0  0  0  0  0  0  0  0  0  0  0
    6.3006  -15.9813   25.4380 C   0  0  0  0  0  0  0  0  0  0  0  0
    5.8331  -15.1769   26.4112 N   0  0  0  0  0  0  0  0  0  0  0  0
    6.4421  -13.9776   26.3431 C   0  0  0  0  0  0  0  0  0  0  0  0
    6.3434  -12.8134   27.0722 C   0  0  0  0  0  0  0  0  0  0  0  0
    7.0878  -11.6906   26.7977 C   0  0  0  0  0  0  0  0  0  0  0  0
    7.9696  -11.7487   25.7397 C   0  0  0  0  0  0  0  0  0  0  0  0
    8.0760  -12.9259   24.9951 C   0  0  0  0  0  0  0  0  0  0  0  0
    7.3297  -14.0521   25.2712 C   0  0  0  0  0  0  0  0  0  0  0  0
   10.0398  -16.8534   24.3929 C   0  0  0  0  0  0  0  0  0  0  0  0
    9.5509  -17.9461   24.0514 O   0  0  0  0  0  0  0  0  0  0  0  0
   11.0311  -16.8504   25.3896 N   0  0  0  0  0  0  0  0  0  0  0  0
   11.7234  -18.1141   25.7375 C   0  0  1  0  0  0  0  0  0  0  0  0
   13.0952  -18.0369   25.1201 C   0  0  0  0  0  0  0  0  0  0  0  0
   13.4019  -19.2738   24.3419 C   0  0  0  0  0  0  0  0  0  0  0  0
   14.3518  -18.8754   23.2474 C   0  0  0  0  0  0  0  0  0  0  0  0
   14.0339  -19.1200   22.0751 O   0  0  0  0  0  0  0  0  0  0  0  0
   11.7423  -18.2867   27.1987 C   0  0  0  0  0  0  0  0  0  0  0  0
   11.1098  -17.4547   28.0926 O   0  0  0  0  0  0  0  0  0  0  0  0
   15.5488  -18.2545   23.5037 O   0  0  0  0  0  0  0  0  0  0  0  0
   12.3849  -19.2696   27.7009 O   0  0  0  0  0  0  0  0  0  0  0  0
  2  1  1  1
  2  3  1  0
  3  4  1  0
  4  9  2  0
  5  6  2  0
  5  4  1  0
  6  7  1  0
  7  8  2  0
  9  8  1  0
 10  2  1  0
 11 10  2  0
 12 10  1  0
 13 12  1  0
 14 15  1  0
 13 14  1  6
 15 23  1  0
 16 17  1  0
 16 15  2  0
 17 18  1  0
 18 23  2  0
 18 19  1  0
 19 20  2  0
 20 21  1  0
 22 21  2  0
 23 22  1  0
 24 13  1  0
 24 25  2  0
 26 24  1  0
 27 26  1  0
 27 28  1  1
 28 29  1  0
 29 30  1  0
 30 34  1  0
 30 31  2  0
 32 27  1  0
 33 32  1  0
 35 32  2  0
M  END
$$$$
