FWE.pdb
     RDKit          3D

 35 37  0  0  1  0  0  0  0  0999 V2000
    7.4358  -18.1349   21.1941 N   0  0  0  0  0  0  0  0  0  0  0  0
    7.8445  -16.7715   21.0672 C   0  0  1  0  0  0  0  0  0  0  0  0
    6.7071  -15.7977   21.0898 C   0  0  0  0  0  0  0  0  0  0  0  0
    7.1125  -14.4198   20.7618 C   0  0  0  0  0  0  0  0  0  0  0  0
    7.5150  -14.1692   19.4577 C   0  0  0  0  0  0  0  0  0  0  0  0
    7.9074  -12.9033   19.0766 C   0  0  0  0  0  0  0  0  0  0  0  0
    7.8885  -11.8901   20.0296 C   0  0  0  0  0  0  0  0  0  0  0  0
    7.4866  -12.1495   21.3241 C   0  0  0  0  0  0  0  0  0  0  0  0
    7.0972  -13.4022   21.7056 C   0  0  0  0  0  0  0  0  0  0  0  0
    8.7909  -16.3975   22.1547 C   0  0  0  0  0  0  0  0  0  0  0  0
    9.8333  -15.7178   21.9149 O   0  0  0  0  0  0  0  0  0  0  0  0
    8.5938  -16.7729   23.5225 N   0  0  0  0  0  0  0  0  0  0  0  0
    9.5456  -16.4246   24.5206 C   0  0  1  0  0  0  0  0  0  0  0  0
    8.9827  -16.2859   25.9175 C   0  0  0  0  0  0  0  0  0  0  0  0
    7.8048  -15.3866   25.9813 C   0  0  0  0  0  0  0  0  0  0  0  0
    6.4650  -15.7411   25.9274 C   0  0  0  0  0  0  0  0  0  0  0  0
    5.6986  -14.6399   26.0397 N   0  0  0  0  0  0  0  0  0  0  0  0
    6.4810  -13.5512   26.1674 C   0  0  0  0  0  0  0  0  0  0  0  0
    6.2286  -12.2046   26.3078 C   0  0  0  0  0  0  0  0  0  0  0  0
    7.2233  -11.2618   26.4168 C   0  0  0  0  0  0  0  0  0  0  0  0
    8.5296  -11.7011   26.3820 C   0  0  0  0  0  0  0  0  0  0  0  0
    8.7944  -13.0653   26.2402 C   0  0  0  0  0  0  0  0  0  0  0  0
    7.7962  -14.0106   26.1315 C   0  0  0  0  0  0  0  0  0  0  0  0
   10.6982  -17.3582   24.6094 C   0  0  0  0  0  0  0  0  0  0  0  0
   10.4736  -18.4967   25.0598 O   0  0  0  0  0  0  0  0  0  0  0  0
   12.0121  -17.0434   24.2213 N   0  0  0  0  0  0  0  0  0  0  0  0
   13.0705  -18.0770   24.3143 C   0  0  1  0  0  0  0  0  0  0  0  0
   14.1743  -17.6471   23.3839 C   0  0  0  0  0  0  0  0  0  0  0  0
   14.8223  -16.3915   23.8667 C   0  0  0  0  0  0  0  0  0  0  0  0
   15.9077  -16.0553   22.8830 C   0  0  0  0  0  0  0  0  0  0  0  0
   16.0699  -16.8028   21.9083 O   0  0  0  0  0  0  0  0  0  0  0  0
   13.5016  -18.2250   25.7134 C   0  0  0  0  0  0  0  0  0  0  0  0
   14.2829  -19.2532   26.1864 O   0  0  0  0  0  0  0  0  0  0  0  0
   16.7167  -14.9561   23.0292 O   0  0  0  0  0  0  0  0  0  0  0  0
   13.1385  -17.3520   26.5721 O   0  0  0  0  0  0  0  0  0  0  0  0
  2  1  1  1
  2  3  1  0
  3  4  1  0
  4  9  2  0
  5  6  2  0
  5  4  1  0
  6  7  1  0
  7  8  2  0
  9  8  1  0
 10  2  1  0
 11 10  2  0
 12 10  1  0
 13 12  1  0
 14 15  1  0
 13 14  1  1
 15 23  1  0
 16 17  1  0
 16 15  2  0
 17 18  1  0
 18 23  2  0
 18 19  1  0
 19 20  2  0
 20 21  1  0
 22 21  2  0
 23 22  1  0
 24 13  1  0
 24 25  2  0
 26 24  1  0
 27 26  1  0
 27 28  1  6
 28 29  1  0
 29 30  1  0
 30 34  1  0
 30 31  2  0
 32 27  1  0
 33 32  1  0
 35 32  2  0
M  END
$$$$
