FWE.pdb
     RDKit          3D

 35 37  0  0  1  0  0  0  0  0999 V2000
    8.0208  -16.9916   21.1190 N   0  0  0  0  0  0  0  0  0  0  0  0
    9.4238  -16.7443   21.2314 C   0  0  1  0  0  0  0  0  0  0  0  0
    9.8767  -15.5109   20.5131 C   0  0  0  0  0  0  0  0  0  0  0  0
    8.8765  -14.4293   20.5240 C   0  0  0  0  0  0  0  0  0  0  0  0
    9.2040  -13.2541   19.8628 C   0  0  0  0  0  0  0  0  0  0  0  0
    8.3174  -12.1984   19.8295 C   0  0  0  0  0  0  0  0  0  0  0  0
    7.0925  -12.3430   20.4728 C   0  0  0  0  0  0  0  0  0  0  0  0
    6.7761  -13.5159   21.1277 C   0  0  0  0  0  0  0  0  0  0  0  0
    7.6517  -14.5639   21.1631 C   0  0  0  0  0  0  0  0  0  0  0  0
    9.8280  -16.6188   22.6593 C   0  0  0  0  0  0  0  0  0  0  0  0
   10.9551  -16.1390   22.9842 O   0  0  0  0  0  0  0  0  0  0  0  0
    8.9878  -17.0245   23.7456 N   0  0  0  0  0  0  0  0  0  0  0  0
    9.4206  -16.8907   25.0940 C   0  0  1  0  0  0  0  0  0  0  0  0
    8.3105  -16.7062   26.1045 C   0  0  0  0  0  0  0  0  0  0  0  0
    7.3726  -15.6155   25.7429 C   0  0  0  0  0  0  0  0  0  0  0  0
    6.1309  -15.7329   25.1361 C   0  0  0  0  0  0  0  0  0  0  0  0
    5.5767  -14.5140   24.9955 N   0  0  0  0  0  0  0  0  0  0  0  0
    6.4074  -13.5759   25.4889 C   0  0  0  0  0  0  0  0  0  0  0  0
    6.3445  -12.2041   25.5941 C   0  0  0  0  0  0  0  0  0  0  0  0
    7.3499  -11.4469   26.1471 C   0  0  0  0  0  0  0  0  0  0  0  0
    8.4670  -12.1064   26.6133 C   0  0  0  0  0  0  0  0  0  0  0  0
    8.5388  -13.4977   26.5107 C   0  0  0  0  0  0  0  0  0  0  0  0
    7.5298  -14.2569   25.9566 C   0  0  0  0  0  0  0  0  0  0  0  0
   10.2602  -18.0185   25.5746 C   0  0  0  0  0  0  0  0  0  0  0  0
    9.7808  -19.1635   25.4808 O   0  0  0  0  0  0  0  0  0  0  0  0
   11.5474  -17.8788   26.1218 N   0  0  0  0  0  0  0  0  0  0  0  0
   12.2550  -19.0725   26.6429 C   0  0  1  0  0  0  0  0  0  0  0  0
   13.6982  -18.9285   26.2363 C   0  0  0  0  0  0  0  0  0  0  0  0
   13.8185  -18.1946   24.9415 C   0  0  0  0  0  0  0  0  0  0  0  0
   15.2819  -18.1465   24.6024 C   0  0  0  0  0  0  0  0  0  0  0  0
   15.9098  -19.2135   24.5551 O   0  0  0  0  0  0  0  0  0  0  0  0
   12.0586  -19.1733   28.0978 C   0  0  0  0  0  0  0  0  0  0  0  0
   12.4789  -20.2290   28.8723 O   0  0  0  0  0  0  0  0  0  0  0  0
   15.9379  -16.9685   24.3453 O   0  0  0  0  0  0  0  0  0  0  0  0
   11.4570  -18.2283   28.7114 O   0  0  0  0  0  0  0  0  0  0  0  0
  2  1  1  1
  2  3  1  0
  3  4  1  0
  4  9  2  0
  5  6  2  0
  5  4  1  0
  6  7  1  0
  7  8  2  0
  9  8  1  0
 10  2  1  0
 11 10  2  0
 12 10  1  0
 13 12  1  0
 14 15  1  0
 13 14  1  1
 15 23  1  0
 16 17  1  0
 16 15  2  0
 17 18  1  0
 18 23  2  0
 18 19  1  0
 19 20  2  0
 20 21  1  0
 22 21  2  0
 23 22  1  0
 24 13  1  0
 24 25  2  0
 26 24  1  0
 27 26  1  0
 27 28  1  1
 28 29  1  0
 29 30  1  0
 30 34  1  0
 30 31  2  0
 32 27  1  0
 33 32  1  0
 35 32  2  0
M  END
$$$$
