FWE.pdb
     RDKit          3D

 35 37  0  0  1  0  0  0  0  0999 V2000
    8.2600  -16.2959   21.0587 N   0  0  0  0  0  0  0  0  0  0  0  0
    9.4078  -15.5108   21.3879 C   0  0  1  0  0  0  0  0  0  0  0  0
    9.1948  -14.0372   21.2280 C   0  0  0  0  0  0  0  0  0  0  0  0
    8.3346  -13.6933   20.0824 C   0  0  0  0  0  0  0  0  0  0  0  0
    8.8762  -13.8425   18.8136 C   0  0  0  0  0  0  0  0  0  0  0  0
    8.1303  -13.5413   17.6935 C   0  0  0  0  0  0  0  0  0  0  0  0
    6.8274  -13.0868   17.8691 C   0  0  0  0  0  0  0  0  0  0  0  0
    6.2978  -12.9418   19.1353 C   0  0  0  0  0  0  0  0  0  0  0  0
    7.0335  -13.2390   20.2474 C   0  0  0  0  0  0  0  0  0  0  0  0
    9.8388  -15.7628   22.7911 C   0  0  0  0  0  0  0  0  0  0  0  0
   10.9148  -15.2724   23.2469 O   0  0  0  0  0  0  0  0  0  0  0  0
    9.0824  -16.5626   23.7068 N   0  0  0  0  0  0  0  0  0  0  0  0
    9.5444  -16.7903   25.0328 C   0  0  1  0  0  0  0  0  0  0  0  0
    8.4623  -16.8172   26.0892 C   0  0  0  0  0  0  0  0  0  0  0  0
    7.5380  -15.6604   26.0018 C   0  0  0  0  0  0  0  0  0  0  0  0
    6.2099  -15.6662   25.6018 C   0  0  0  0  0  0  0  0  0  0  0  0
    5.7063  -14.4201   25.6803 N   0  0  0  0  0  0  0  0  0  0  0  0
    6.6550  -13.5719   26.1210 C   0  0  0  0  0  0  0  0  0  0  0  0
    6.6834  -12.2184   26.3742 C   0  0  0  0  0  0  0  0  0  0  0  0
    7.8041  -11.5627   26.8259 C   0  0  0  0  0  0  0  0  0  0  0  0
    8.9451  -12.3090   27.0297 C   0  0  0  0  0  0  0  0  0  0  0  0
    8.9248  -13.6825   26.7756 C   0  0  0  0  0  0  0  0  0  0  0  0
    7.8002  -14.3399   26.3233 C   0  0  0  0  0  0  0  0  0  0  0  0
   10.3354  -18.0381   25.1918 C   0  0  0  0  0  0  0  0  0  0  0  0
    9.7497  -19.1139   24.9703 O   0  0  0  0  0  0  0  0  0  0  0  0
   11.6881  -18.0828   25.5715 N   0  0  0  0  0  0  0  0  0  0  0  0
   12.3798  -19.3905   25.6639 C   0  0  1  0  0  0  0  0  0  0  0  0
   13.8146  -19.1465   25.2753 C   0  0  0  0  0  0  0  0  0  0  0  0
   14.6325  -20.3842   25.4447 C   0  0  0  0  0  0  0  0  0  0  0  0
   16.0252  -20.0519   24.9879 C   0  0  0  0  0  0  0  0  0  0  0  0
   16.6780  -19.2278   25.6435 O   0  0  0  0  0  0  0  0  0  0  0  0
   12.2208  -19.9443   27.0179 C   0  0  0  0  0  0  0  0  0  0  0  0
   11.6465  -19.2760   28.0737 O   0  0  0  0  0  0  0  0  0  0  0  0
   16.5912  -20.6280   23.8779 O   0  0  0  0  0  0  0  0  0  0  0  0
   12.6378  -21.1273   27.2592 O   0  0  0  0  0  0  0  0  0  0  0  0
  2  1  1  1
  2  3  1  0
  3  4  1  0
  4  9  2  0
  5  6  2  0
  5  4  1  0
  6  7  1  0
  7  8  2  0
  9  8  1  0
 10  2  1  0
 11 10  2  0
 12 10  1  0
 13 12  1  0
 14 15  1  0
 13 14  1  1
 15 23  1  0
 16 17  1  0
 16 15  2  0
 17 18  1  0
 18 23  2  0
 18 19  1  0
 19 20  2  0
 20 21  1  0
 22 21  2  0
 23 22  1  0
 24 13  1  0
 24 25  2  0
 26 24  1  0
 27 26  1  0
 27 28  1  1
 28 29  1  0
 29 30  1  0
 30 34  1  0
 30 31  2  0
 32 27  1  0
 33 32  1  0
 35 32  2  0
M  END
$$$$
