FWE.pdb
     RDKit          3D

 35 37  0  0  1  0  0  0  0  0999 V2000
   11.7054  -16.8771   19.3548 N   0  0  0  0  0  0  0  0  0  0  0  0
   10.7015  -15.8917   19.6063 C   0  0  1  0  0  0  0  0  0  0  0  0
    9.5071  -16.0075   18.7105 C   0  0  0  0  0  0  0  0  0  0  0  0
    8.4732  -14.9939   18.9833 C   0  0  0  0  0  0  0  0  0  0  0  0
    8.8207  -13.6642   18.7917 C   0  0  0  0  0  0  0  0  0  0  0  0
    7.9050  -12.6600   19.0258 C   0  0  0  0  0  0  0  0  0  0  0  0
    6.6306  -13.0143   19.4565 C   0  0  0  0  0  0  0  0  0  0  0  0
    6.2948  -14.3397   19.6441 C   0  0  0  0  0  0  0  0  0  0  0  0
    7.1990  -15.3373   19.4134 C   0  0  0  0  0  0  0  0  0  0  0  0
   10.2271  -15.9648   21.0161 C   0  0  0  0  0  0  0  0  0  0  0  0
   10.4539  -16.9839   21.7346 O   0  0  0  0  0  0  0  0  0  0  0  0
    9.4944  -14.9088   21.6475 N   0  0  0  0  0  0  0  0  0  0  0  0
    9.1034  -15.0045   23.0118 C   0  0  1  0  0  0  0  0  0  0  0  0
    7.7024  -14.5183   23.3090 C   0  0  0  0  0  0  0  0  0  0  0  0
    7.3801  -14.5287   24.7569 C   0  0  0  0  0  0  0  0  0  0  0  0
    7.0166  -15.6173   25.5356 C   0  0  0  0  0  0  0  0  0  0  0  0
    6.8284  -15.2226   26.8089 N   0  0  0  0  0  0  0  0  0  0  0  0
    7.0534  -13.8990   26.9139 C   0  0  0  0  0  0  0  0  0  0  0  0
    7.0017  -13.0009   27.9568 C   0  0  0  0  0  0  0  0  0  0  0  0
    7.2766  -11.6620   27.8086 C   0  0  0  0  0  0  0  0  0  0  0  0
    7.6179  -11.2129   26.5508 C   0  0  0  0  0  0  0  0  0  0  0  0
    7.6729  -12.1172   25.4875 C   0  0  0  0  0  0  0  0  0  0  0  0
    7.3979  -13.4602   25.6368 C   0  0  0  0  0  0  0  0  0  0  0  0
    9.2156  -16.3734   23.5787 C   0  0  0  0  0  0  0  0  0  0  0  0
    8.5120  -17.2613   23.0626 O   0  0  0  0  0  0  0  0  0  0  0  0
   10.0562  -16.7282   24.6480 N   0  0  0  0  0  0  0  0  0  0  0  0
   10.0859  -18.1326   25.1212 C   0  0  1  0  0  0  0  0  0  0  0  0
   11.3272  -18.7564   24.5388 C   0  0  0  0  0  0  0  0  0  0  0  0
   12.5442  -17.9769   24.9140 C   0  0  0  0  0  0  0  0  0  0  0  0
   13.7154  -18.6578   24.2632 C   0  0  0  0  0  0  0  0  0  0  0  0
   13.6261  -18.9649   23.0662 O   0  0  0  0  0  0  0  0  0  0  0  0
   10.0433  -18.1645   26.5917 C   0  0  0  0  0  0  0  0  0  0  0  0
    9.9732  -19.3115   27.3473 O   0  0  0  0  0  0  0  0  0  0  0  0
   14.8700  -18.9466   24.9471 O   0  0  0  0  0  0  0  0  0  0  0  0
   10.0707  -17.0638   27.2391 O   0  0  0  0  0  0  0  0  0  0  0  0
  2  1  1  6
  2  3  1  0
  3  4  1  0
  4  9  2  0
  5  6  2  0
  5  4  1  0
  6  7  1  0
  7  8  2  0
  9  8  1  0
 10  2  1  0
 11 10  2  0
 12 10  1  0
 13 12  1  0
 14 15  1  0
 13 14  1  6
 15 23  1  0
 16 17  1  0
 16 15  2  0
 17 18  1  0
 18 23  2  0
 18 19  1  0
 19 20  2  0
 20 21  1  0
 22 21  2  0
 23 22  1  0
 24 13  1  0
 24 25  2  0
 26 24  1  0
 27 26  1  0
 27 28  1  1
 28 29  1  0
 29 30  1  0
 30 34  1  0
 30 31  2  0
 32 27  1  0
 33 32  1  0
 35 32  2  0
M  END
$$$$
