FWE.pdb
     RDKit          3D

 35 37  0  0  1  0  0  0  0  0999 V2000
   11.4124  -16.6045   20.2803 N   0  0  0  0  0  0  0  0  0  0  0  0
   10.2907  -16.1400   21.0342 C   0  0  1  0  0  0  0  0  0  0  0  0
    9.0162  -16.0930   20.2494 C   0  0  0  0  0  0  0  0  0  0  0  0
    8.1358  -14.9760   20.6336 C   0  0  0  0  0  0  0  0  0  0  0  0
    8.6036  -13.6900   20.4038 C   0  0  0  0  0  0  0  0  0  0  0  0
    7.8346  -12.5947   20.7366 C   0  0  0  0  0  0  0  0  0  0  0  0
    6.5840  -12.8129   21.3053 C   0  0  0  0  0  0  0  0  0  0  0  0
    6.1277  -14.0959   21.5300 C   0  0  0  0  0  0  0  0  0  0  0  0
    6.8865  -15.1835   21.2018 C   0  0  0  0  0  0  0  0  0  0  0  0
   10.0625  -16.9983   22.2298 C   0  0  0  0  0  0  0  0  0  0  0  0
   10.8134  -17.9873   22.4827 O   0  0  0  0  0  0  0  0  0  0  0  0
    8.9980  -16.7711   23.1603 N   0  0  0  0  0  0  0  0  0  0  0  0
    9.2277  -16.8315   24.5628 C   0  0  1  0  0  0  0  0  0  0  0  0
    7.9829  -16.7418   25.4172 C   0  0  0  0  0  0  0  0  0  0  0  0
    7.2948  -15.4327   25.3035 C   0  0  0  0  0  0  0  0  0  0  0  0
    6.1183  -15.1506   24.6251 C   0  0  0  0  0  0  0  0  0  0  0  0
    5.8067  -13.8497   24.7773 N   0  0  0  0  0  0  0  0  0  0  0  0
    6.7383  -13.2438   25.5380 C   0  0  0  0  0  0  0  0  0  0  0  0
    6.9105  -11.9549   25.9916 C   0  0  0  0  0  0  0  0  0  0  0  0
    7.9749  -11.5697   26.7719 C   0  0  0  0  0  0  0  0  0  0  0  0
    8.9050  -12.5305   27.1071 C   0  0  0  0  0  0  0  0  0  0  0  0
    8.7377  -13.8404   26.6514 C   0  0  0  0  0  0  0  0  0  0  0  0
    7.6695  -14.2263   25.8694 C   0  0  0  0  0  0  0  0  0  0  0  0
    9.9682  -18.0422   25.0029 C   0  0  0  0  0  0  0  0  0  0  0  0
    9.3123  -19.0916   25.1373 O   0  0  0  0  0  0  0  0  0  0  0  0
   11.3470  -18.0800   25.2740 N   0  0  0  0  0  0  0  0  0  0  0  0
   11.9685  -19.3449   25.7332 C   0  0  1  0  0  0  0  0  0  0  0  0
   13.3617  -19.3721   25.1611 C   0  0  0  0  0  0  0  0  0  0  0  0
   14.2790  -18.4925   25.9450 C   0  0  0  0  0  0  0  0  0  0  0  0
   15.3173  -17.9814   24.9861 C   0  0  0  0  0  0  0  0  0  0  0  0
   15.9926  -18.8069   24.3557 O   0  0  0  0  0  0  0  0  0  0  0  0
   11.9321  -19.4139   27.2026 C   0  0  0  0  0  0  0  0  0  0  0  0
   12.3345  -20.4996   27.9447 O   0  0  0  0  0  0  0  0  0  0  0  0
   15.5381  -16.6410   24.7885 O   0  0  0  0  0  0  0  0  0  0  0  0
   11.4995  -18.4093   27.8622 O   0  0  0  0  0  0  0  0  0  0  0  0
  2  1  1  6
  2  3  1  0
  3  4  1  0
  4  9  2  0
  5  6  2  0
  5  4  1  0
  6  7  1  0
  7  8  2  0
  9  8  1  0
 10  2  1  0
 11 10  2  0
 12 10  1  0
 13 12  1  0
 14 15  1  0
 13 14  1  1
 15 23  1  0
 16 17  1  0
 16 15  2  0
 17 18  1  0
 18 23  2  0
 18 19  1  0
 19 20  2  0
 20 21  1  0
 22 21  2  0
 23 22  1  0
 24 13  1  0
 24 25  2  0
 26 24  1  0
 27 26  1  0
 27 28  1  1
 28 29  1  0
 29 30  1  0
 30 34  1  0
 30 31  2  0
 32 27  1  0
 33 32  1  0
 35 32  2  0
M  END
$$$$
