FWE.pdb
     RDKit          3D

 35 37  0  0  1  0  0  0  0  0999 V2000
    7.7214  -17.2623   21.0505 N   0  0  0  0  0  0  0  0  0  0  0  0
    9.0898  -16.8707   20.9227 C   0  0  1  0  0  0  0  0  0  0  0  0
    9.3013  -15.7188   19.9895 C   0  0  0  0  0  0  0  0  0  0  0  0
    8.4206  -14.5716   20.2702 C   0  0  0  0  0  0  0  0  0  0  0  0
    7.5231  -14.7015   21.3205 C   0  0  0  0  0  0  0  0  0  0  0  0
    6.6677  -13.6690   21.6429 C   0  0  0  0  0  0  0  0  0  0  0  0
    6.7290  -12.5002   20.8911 C   0  0  0  0  0  0  0  0  0  0  0  0
    7.6252  -12.3808   19.8484 C   0  0  0  0  0  0  0  0  0  0  0  0
    8.4741  -13.4014   19.5258 C   0  0  0  0  0  0  0  0  0  0  0  0
    9.6619  -16.5000   22.2469 C   0  0  0  0  0  0  0  0  0  0  0  0
   10.7673  -15.8868   22.3376 O   0  0  0  0  0  0  0  0  0  0  0  0
    9.0156  -16.8049   23.4879 N   0  0  0  0  0  0  0  0  0  0  0  0
    9.6673  -16.5658   24.7295 C   0  0  1  0  0  0  0  0  0  0  0  0
    8.7526  -16.5325   25.9335 C   0  0  0  0  0  0  0  0  0  0  0  0
    7.6548  -15.5439   25.8004 C   0  0  0  0  0  0  0  0  0  0  0  0
    6.3426  -15.7819   25.4194 C   0  0  0  0  0  0  0  0  0  0  0  0
    5.6467  -14.6296   25.4417 N   0  0  0  0  0  0  0  0  0  0  0  0
    6.4500  -13.6193   25.8259 C   0  0  0  0  0  0  0  0  0  0  0  0
    6.2632  -12.2673   26.0099 C   0  0  0  0  0  0  0  0  0  0  0  0
    7.2672  -11.4188   26.4124 C   0  0  0  0  0  0  0  0  0  0  0  0
    8.5139  -11.9621   26.6381 C   0  0  0  0  0  0  0  0  0  0  0  0
    8.7119  -13.3326   26.4541 C   0  0  0  0  0  0  0  0  0  0  0  0
    7.7044  -14.1834   26.0510 C   0  0  0  0  0  0  0  0  0  0  0  0
   10.7538  -17.5312   25.0382 C   0  0  0  0  0  0  0  0  0  0  0  0
   10.4752  -18.7423   24.9650 O   0  0  0  0  0  0  0  0  0  0  0  0
   12.0625  -17.1704   25.4030 N   0  0  0  0  0  0  0  0  0  0  0  0
   13.0405  -18.2256   25.7597 C   0  0  1  0  0  0  0  0  0  0  0  0
   14.3994  -17.6988   25.3792 C   0  0  0  0  0  0  0  0  0  0  0  0
   14.5208  -17.5523   23.8982 C   0  0  0  0  0  0  0  0  0  0  0  0
   15.4719  -16.4155   23.6494 C   0  0  0  0  0  0  0  0  0  0  0  0
   15.5943  -15.9940   22.4908 O   0  0  0  0  0  0  0  0  0  0  0  0
   12.9153  -18.5599   27.1872 C   0  0  0  0  0  0  0  0  0  0  0  0
   13.6192  -19.5565   27.8216 O   0  0  0  0  0  0  0  0  0  0  0  0
   16.2018  -15.8347   24.6566 O   0  0  0  0  0  0  0  0  0  0  0  0
   12.1016  -17.8947   27.9131 O   0  0  0  0  0  0  0  0  0  0  0  0
  2  1  1  1
  2  3  1  0
  3  4  1  0
  4  9  2  0
  5  6  2  0
  5  4  1  0
  6  7  1  0
  7  8  2  0
  9  8  1  0
 10  2  1  0
 11 10  2  0
 12 10  1  0
 13 12  1  0
 14 15  1  0
 13 14  1  1
 15 23  1  0
 16 17  1  0
 16 15  2  0
 17 18  1  0
 18 23  2  0
 18 19  1  0
 19 20  2  0
 20 21  1  0
 22 21  2  0
 23 22  1  0
 24 13  1  0
 24 25  2  0
 26 24  1  0
 27 26  1  0
 27 28  1  1
 28 29  1  0
 29 30  1  0
 30 34  1  0
 30 31  2  0
 32 27  1  0
 33 32  1  0
 35 32  2  0
M  END
$$$$
