FWE.pdb
     RDKit          3D

 35 37  0  0  1  0  0  0  0  0999 V2000
    7.6485  -18.4439   20.0990 N   0  0  0  0  0  0  0  0  0  0  0  0
    7.9594  -17.0514   20.0192 C   0  0  1  0  0  0  0  0  0  0  0  0
    6.7951  -16.1966   19.6240 C   0  0  0  0  0  0  0  0  0  0  0  0
    7.1407  -14.7718   19.4785 C   0  0  0  0  0  0  0  0  0  0  0  0
    6.7376  -13.9135   20.4916 C   0  0  0  0  0  0  0  0  0  0  0  0
    7.0262  -12.5666   20.4249 C   0  0  0  0  0  0  0  0  0  0  0  0
    7.7286  -12.0946   19.3210 C   0  0  0  0  0  0  0  0  0  0  0  0
    8.1251  -12.9564   18.3185 C   0  0  0  0  0  0  0  0  0  0  0  0
    7.8411  -14.2912   18.3808 C   0  0  0  0  0  0  0  0  0  0  0  0
    8.4780  -16.5477   21.3213 C   0  0  0  0  0  0  0  0  0  0  0  0
    9.5915  -15.9475   21.3982 O   0  0  0  0  0  0  0  0  0  0  0  0
    7.7685  -16.7037   22.5554 N   0  0  0  0  0  0  0  0  0  0  0  0
    8.2891  -16.1762   23.7696 C   0  0  1  0  0  0  0  0  0  0  0  0
    7.2915  -16.0798   24.9023 C   0  0  0  0  0  0  0  0  0  0  0  0
    7.7620  -15.2227   26.0177 C   0  0  0  0  0  0  0  0  0  0  0  0
    8.6168  -15.5730   27.0523 C   0  0  0  0  0  0  0  0  0  0  0  0
    8.8208  -14.5100   27.8529 N   0  0  0  0  0  0  0  0  0  0  0  0
    8.1284  -13.4514   27.3905 C   0  0  0  0  0  0  0  0  0  0  0  0
    7.9770  -12.1499   27.8144 C   0  0  0  0  0  0  0  0  0  0  0  0
    7.1897  -11.2335   27.1583 C   0  0  0  0  0  0  0  0  0  0  0  0
    6.5269  -11.6529   26.0246 C   0  0  0  0  0  0  0  0  0  0  0  0
    6.6752  -12.9714   25.5875 C   0  0  0  0  0  0  0  0  0  0  0  0
    7.4656  -13.8899   26.2456 C   0  0  0  0  0  0  0  0  0  0  0  0
    9.4681  -16.9136   24.2931 C   0  0  0  0  0  0  0  0  0  0  0  0
    9.3163  -18.1236   24.5429 O   0  0  0  0  0  0  0  0  0  0  0  0
   10.7311  -16.3404   24.5217 N   0  0  0  0  0  0  0  0  0  0  0  0
   11.8465  -17.1925   24.9981 C   0  0  1  0  0  0  0  0  0  0  0  0
   13.1193  -16.4520   24.6808 C   0  0  0  0  0  0  0  0  0  0  0  0
   13.8403  -17.0918   23.5404 C   0  0  0  0  0  0  0  0  0  0  0  0
   15.0878  -16.2866   23.3071 C   0  0  0  0  0  0  0  0  0  0  0  0
   16.1362  -16.6547   23.8551 O   0  0  0  0  0  0  0  0  0  0  0  0
   11.6747  -17.4847   26.4300 C   0  0  0  0  0  0  0  0  0  0  0  0
   11.1247  -16.6173   27.3446 O   0  0  0  0  0  0  0  0  0  0  0  0
   15.1015  -15.1672   22.5127 O   0  0  0  0  0  0  0  0  0  0  0  0
   12.0555  -18.6161   26.8843 O   0  0  0  0  0  0  0  0  0  0  0  0
  2  1  1  1
  2  3  1  0
  3  4  1  0
  4  9  2  0
  5  6  2  0
  5  4  1  0
  6  7  1  0
  7  8  2  0
  9  8  1  0
 10  2  1  0
 11 10  2  0
 12 10  1  0
 13 12  1  0
 14 15  1  0
 13 14  1  1
 15 23  1  0
 16 17  1  0
 16 15  2  0
 17 18  1  0
 18 23  2  0
 18 19  1  0
 19 20  2  0
 20 21  1  0
 22 21  2  0
 23 22  1  0
 24 13  1  0
 24 25  2  0
 26 24  1  0
 27 26  1  0
 27 28  1  1
 28 29  1  0
 29 30  1  0
 30 34  1  0
 30 31  2  0
 32 27  1  0
 33 32  1  0
 35 32  2  0
M  END
$$$$
