FWE.pdb
     RDKit          3D

 35 37  0  0  1  0  0  0  0  0999 V2000
    8.3402  -16.8038   21.2983 N   0  0  0  0  0  0  0  0  0  0  0  0
    9.7141  -16.4434   21.4546 C   0  0  1  0  0  0  0  0  0  0  0  0
   10.0621  -15.1204   20.8454 C   0  0  0  0  0  0  0  0  0  0  0  0
    8.8860  -14.2748   20.5766 C   0  0  0  0  0  0  0  0  0  0  0  0
    7.6636  -14.7120   21.0667 C   0  0  0  0  0  0  0  0  0  0  0  0
    6.5190  -13.9725   20.8552 C   0  0  0  0  0  0  0  0  0  0  0  0
    6.6226  -12.7830   20.1415 C   0  0  0  0  0  0  0  0  0  0  0  0
    7.8429  -12.3568   19.6581 C   0  0  0  0  0  0  0  0  0  0  0  0
    8.9791  -13.0865   19.8654 C   0  0  0  0  0  0  0  0  0  0  0  0
   10.0910  -16.3993   22.8947 C   0  0  0  0  0  0  0  0  0  0  0  0
   11.1861  -15.8854   23.2728 O   0  0  0  0  0  0  0  0  0  0  0  0
    9.2585  -16.9250   23.9345 N   0  0  0  0  0  0  0  0  0  0  0  0
    9.6601  -16.8564   25.2974 C   0  0  1  0  0  0  0  0  0  0  0  0
    8.5350  -16.6322   26.2830 C   0  0  0  0  0  0  0  0  0  0  0  0
    7.5586  -15.6134   25.8263 C   0  0  0  0  0  0  0  0  0  0  0  0
    6.3570  -15.8276   25.1673 C   0  0  0  0  0  0  0  0  0  0  0  0
    5.7452  -14.6494   24.9434 N   0  0  0  0  0  0  0  0  0  0  0  0
    6.4980  -13.6448   25.4310 C   0  0  0  0  0  0  0  0  0  0  0  0
    6.3555  -12.2755   25.4685 C   0  0  0  0  0  0  0  0  0  0  0  0
    7.2893  -11.4389   26.0325 C   0  0  0  0  0  0  0  0  0  0  0  0
    8.4159  -12.0129   26.5818 C   0  0  0  0  0  0  0  0  0  0  0  0
    8.5682  -13.4011   26.5482 C   0  0  0  0  0  0  0  0  0  0  0  0
    7.6309  -14.2400   25.9831 C   0  0  0  0  0  0  0  0  0  0  0  0
   10.4150  -18.0473   25.7662 C   0  0  0  0  0  0  0  0  0  0  0  0
    9.8317  -19.1458   25.7153 O   0  0  0  0  0  0  0  0  0  0  0  0
   11.7316  -18.0152   26.2577 N   0  0  0  0  0  0  0  0  0  0  0  0
   12.3384  -19.2509   26.8071 C   0  0  1  0  0  0  0  0  0  0  0  0
   13.8260  -19.1257   26.6063 C   0  0  0  0  0  0  0  0  0  0  0  0
   14.1573  -18.9444   25.1616 C   0  0  0  0  0  0  0  0  0  0  0  0
   15.6562  -18.8987   25.0609 C   0  0  0  0  0  0  0  0  0  0  0  0
   16.2510  -19.9160   24.6784 O   0  0  0  0  0  0  0  0  0  0  0  0
   11.9446  -19.4167   28.2152 C   0  0  0  0  0  0  0  0  0  0  0  0
   12.1901  -20.5405   28.9689 O   0  0  0  0  0  0  0  0  0  0  0  0
   16.3795  -17.7754   25.3758 O   0  0  0  0  0  0  0  0  0  0  0  0
   11.3283  -18.4660   28.8050 O   0  0  0  0  0  0  0  0  0  0  0  0
  2  1  1  1
  2  3  1  0
  3  4  1  0
  4  9  2  0
  5  6  2  0
  5  4  1  0
  6  7  1  0
  7  8  2  0
  9  8  1  0
 10  2  1  0
 11 10  2  0
 12 10  1  0
 13 12  1  0
 14 15  1  0
 13 14  1  1
 15 23  1  0
 16 17  1  0
 16 15  2  0
 17 18  1  0
 18 23  2  0
 18 19  1  0
 19 20  2  0
 20 21  1  0
 22 21  2  0
 23 22  1  0
 24 13  1  0
 24 25  2  0
 26 24  1  0
 27 26  1  0
 27 28  1  1
 28 29  1  0
 29 30  1  0
 30 34  1  0
 30 31  2  0
 32 27  1  0
 33 32  1  0
 35 32  2  0
M  END
$$$$
