FPV.pdb
     RDKit          3D

 26 27  0  0  1  0  0  0  0  0999 V2000
   25.4274  -21.5710  -12.1898 N   0  0  0  0  0  0  0  0  0  0  0  0
   26.6425  -20.9539  -11.7942 C   0  0  1  0  0  0  0  0  0  0  0  0
   26.4808  -19.4479  -11.8536 C   0  0  0  0  0  0  0  0  0  0  0  0
   26.9134  -18.9614  -13.1885 C   0  0  0  0  0  0  0  0  0  0  0  0
   26.0490  -18.4622  -14.1365 C   0  0  0  0  0  0  0  0  0  0  0  0
   26.4812  -18.0142  -15.3846 C   0  0  0  0  0  0  0  0  0  0  0  0
   27.8007  -18.0573  -15.7123 C   0  0  0  0  0  0  0  0  0  0  0  0
   28.7005  -18.5538  -14.7823 C   0  0  0  0  0  0  0  0  0  0  0  0
   28.2653  -18.9952  -13.5496 C   0  0  0  0  0  0  0  0  0  0  0  0
   27.2531  -21.4127  -10.5506 C   0  0  0  0  0  0  0  0  0  0  0  0
   26.4487  -22.0030   -9.7389 O   0  0  0  0  0  0  0  0  0  0  0  0
   28.5955  -21.2897  -10.1361 N   0  0  0  0  0  0  0  0  0  0  0  0
   29.7580  -20.7248  -10.7855 C   0  0  0  0  0  0  0  0  0  0  0  0
   30.8049  -21.8141  -10.5130 C   0  0  0  0  0  0  0  0  0  0  0  0
   30.3517  -22.4730   -9.2323 C   0  0  0  0  0  0  0  0  0  0  0  0
   29.0851  -21.7536   -8.8523 C   0  0  1  0  0  0  0  0  0  0  0  0
   29.4477  -20.6307   -7.9350 C   0  0  0  0  0  0  0  0  0  0  0  0
   29.5936  -19.4391   -8.3286 O   0  0  0  0  0  0  0  0  0  0  0  0
   27.0067  -20.7557   -4.9857 C   0  0  0  0  0  0  0  0  0  0  0  0
   27.7834  -19.5969   -5.5510 C   0  0  2  0  0  0  0  0  0  0  0  0
   27.2303  -19.2667   -6.9025 C   0  0  0  0  0  0  0  0  0  0  0  0
   29.2687  -19.8507   -5.5705 C   0  0  2  0  0  0  0  0  0  0  0  0
   29.6531  -20.8371   -6.5472 N   0  0  0  0  0  0  0  0  0  0  0  0
   29.6780  -20.2643   -4.1908 C   0  0  0  0  0  0  0  0  0  0  0  0
   29.9662  -19.3334   -3.2074 O   0  0  0  0  0  0  0  0  0  0  0  0
   29.7766  -21.4795   -3.8696 O   0  0  0  0  0  0  0  0  0  0  0  0
  2 10  1  0
  2  1  1  1
  3  2  1  0
  4  3  1  0
  5  4  2  0
  6  5  1  0
  7  6  2  0
  7  8  1  0
  8  9  2  0
  9  4  1  0
 10 12  1  0
 11 10  2  0
 12 13  1  0
 12 16  1  0
 13 14  1  0
 14 15  1  0
 16 15  1  0
 17 18  2  0
 16 17  1  1
 20 19  1  6
 20 22  1  0
 21 20  1  0
 22 23  1  6
 23 17  1  0
 24 22  1  0
 25 24  1  0
 26 24  2  0
M  END
$$$$
