FPV.pdb
     RDKit          3D

 26 27  0  0  1  0  0  0  0  0999 V2000
   20.8694  -12.6956  -17.4967 N   0  0  0  0  0  0  0  0  0  0  0  0
   20.6118  -11.3533  -17.8784 C   0  0  1  0  0  0  0  0  0  0  0  0
   19.1143  -11.1191  -17.9027 C   0  0  0  0  0  0  0  0  0  0  0  0
   18.4874  -12.0588  -18.8669 C   0  0  0  0  0  0  0  0  0  0  0  0
   17.9783  -13.2881  -18.5142 C   0  0  0  0  0  0  0  0  0  0  0  0
   17.3969  -14.1535  -19.4407 C   0  0  0  0  0  0  0  0  0  0  0  0
   17.3124  -13.8021  -20.7521 C   0  0  0  0  0  0  0  0  0  0  0  0
   17.8147  -12.5713  -21.1439 C   0  0  0  0  0  0  0  0  0  0  0  0
   18.3885  -11.7206  -20.2215 C   0  0  0  0  0  0  0  0  0  0  0  0
   21.3411  -10.3044  -17.1729 C   0  0  0  0  0  0  0  0  0  0  0  0
   21.8860  -10.6741  -16.0680 O   0  0  0  0  0  0  0  0  0  0  0  0
   21.5185   -8.9564  -17.5479 N   0  0  0  0  0  0  0  0  0  0  0  0
   21.0221   -8.1945  -18.6728 C   0  0  0  0  0  0  0  0  0  0  0  0
   22.2948   -7.4573  -19.1127 C   0  0  0  0  0  0  0  0  0  0  0  0
   23.1233   -7.3345  -17.8564 C   0  0  0  0  0  0  0  0  0  0  0  0
   22.3074   -8.0081  -16.7855 C   0  0  1  0  0  0  0  0  0  0  0  0
   21.4682   -6.9665  -16.1187 C   0  0  0  0  0  0  0  0  0  0  0  0
   20.2308   -6.8347  -16.3371 O   0  0  0  0  0  0  0  0  0  0  0  0
   20.3112   -7.9362  -13.7001 C   0  0  0  0  0  0  0  0  0  0  0  0
   21.0607   -6.8016  -13.0549 C   0  0  2  0  0  0  0  0  0  0  0  0
   20.3289   -6.3914  -11.8149 C   0  0  0  0  0  0  0  0  0  0  0  0
   21.3003   -5.6541  -14.0018 C   0  0  2  0  0  0  0  0  0  0  0  0
   22.0174   -6.0494  -15.1869 N   0  0  0  0  0  0  0  0  0  0  0  0
   22.0383   -4.5900  -13.2502 C   0  0  0  0  0  0  0  0  0  0  0  0
   21.3896   -3.4822  -12.7317 O   0  0  0  0  0  0  0  0  0  0  0  0
   23.2826   -4.6611  -13.0593 O   0  0  0  0  0  0  0  0  0  0  0  0
  2 10  1  0
  2  1  1  1
  3  2  1  0
  4  3  1  0
  5  4  2  0
  6  5  1  0
  7  6  2  0
  7  8  1  0
  8  9  2  0
  9  4  1  0
 10 12  1  0
 11 10  2  0
 12 13  1  0
 12 16  1  0
 13 14  1  0
 14 15  1  0
 16 15  1  0
 17 18  2  0
 16 17  1  6
 20 19  1  6
 20 22  1  0
 21 20  1  0
 22 23  1  6
 23 17  1  0
 24 22  1  0
 25 24  1  0
 26 24  2  0
M  END
$$$$
