FPV.pdb
     RDKit          3D

 26 27  0  0  1  0  0  0  0  0999 V2000
   26.2028  -21.2827  -17.0008 N   0  0  0  0  0  0  0  0  0  0  0  0
   26.7418  -20.4307  -16.0021 C   0  0  1  0  0  0  0  0  0  0  0  0
   26.0132  -19.1018  -16.0323 C   0  0  0  0  0  0  0  0  0  0  0  0
   26.5613  -18.2679  -17.1323 C   0  0  0  0  0  0  0  0  0  0  0  0
   25.9665  -18.1463  -18.3678 C   0  0  0  0  0  0  0  0  0  0  0  0
   26.5040  -17.3582  -19.3853 C   0  0  0  0  0  0  0  0  0  0  0  0
   27.6594  -16.6689  -19.1845 C   0  0  0  0  0  0  0  0  0  0  0  0
   28.2863  -16.7674  -17.9524 C   0  0  0  0  0  0  0  0  0  0  0  0
   27.7485  -17.5491  -16.9507 C   0  0  0  0  0  0  0  0  0  0  0  0
   26.8744  -20.9772  -14.6554 C   0  0  0  0  0  0  0  0  0  0  0  0
   26.0858  -21.9580  -14.3898 O   0  0  0  0  0  0  0  0  0  0  0  0
   27.7470  -20.5680  -13.6258 N   0  0  0  0  0  0  0  0  0  0  0  0
   28.8224  -19.6009  -13.5998 C   0  0  0  0  0  0  0  0  0  0  0  0
   29.9121  -20.3933  -12.8639 C   0  0  0  0  0  0  0  0  0  0  0  0
   29.1578  -21.3678  -11.9914 C   0  0  0  0  0  0  0  0  0  0  0  0
   27.7042  -21.1012  -12.2778 C   0  0  1  0  0  0  0  0  0  0  0  0
   27.2110  -20.1036  -11.2801 C   0  0  0  0  0  0  0  0  0  0  0  0
   27.1204  -18.8681  -11.5278 O   0  0  0  0  0  0  0  0  0  0  0  0
   24.3771  -20.3592  -11.6333 C   0  0  0  0  0  0  0  0  0  0  0  0
   24.3702  -20.6967  -10.1665 C   0  0  2  0  0  0  0  0  0  0  0  0
   23.0466  -20.2975   -9.5920 C   0  0  0  0  0  0  0  0  0  0  0  0
   25.5368  -20.0922   -9.4285 C   0  0  2  0  0  0  0  0  0  0  0  0
   26.8088  -20.4885   -9.9758 N   0  0  0  0  0  0  0  0  0  0  0  0
   25.4185  -20.4866   -7.9889 C   0  0  0  0  0  0  0  0  0  0  0  0
   25.3002  -19.5427   -6.9830 O   0  0  0  0  0  0  0  0  0  0  0  0
   25.4221  -21.6968   -7.6351 O   0  0  0  0  0  0  0  0  0  0  0  0
  2 10  1  0
  2  1  1  6
  3  2  1  0
  4  3  1  0
  5  4  2  0
  6  5  1  0
  7  6  2  0
  7  8  1  0
  8  9  2  0
  9  4  1  0
 10 12  1  0
 11 10  2  0
 12 13  1  0
 12 16  1  0
 13 14  1  0
 14 15  1  0
 16 15  1  0
 17 18  2  0
 16 17  1  1
 20 19  1  6
 20 22  1  0
 21 20  1  0
 22 23  1  6
 23 17  1  0
 24 22  1  0
 25 24  1  0
 26 24  2  0
M  END
$$$$
