FPV.pdb
     RDKit          3D

 26 27  0  0  1  0  0  0  0  0999 V2000
   27.4427  -17.5025  -15.8842 N   0  0  0  0  0  0  0  0  0  0  0  0
   27.0187  -18.5130  -14.9826 C   0  0  1  0  0  0  0  0  0  0  0  0
   26.5264  -17.8666  -13.7029 C   0  0  0  0  0  0  0  0  0  0  0  0
   26.1862  -18.9258  -12.7189 C   0  0  0  0  0  0  0  0  0  0  0  0
   27.1151  -19.5521  -11.9191 C   0  0  0  0  0  0  0  0  0  0  0  0
   26.7693  -20.5467  -11.0045 C   0  0  0  0  0  0  0  0  0  0  0  0
   25.4735  -20.9383  -10.8707 C   0  0  0  0  0  0  0  0  0  0  0  0
   24.5105  -20.3294  -11.6599 C   0  0  0  0  0  0  0  0  0  0  0  0
   24.8604  -19.3463  -12.5625 C   0  0  0  0  0  0  0  0  0  0  0  0
   26.1049  -19.5285  -15.4960 C   0  0  0  0  0  0  0  0  0  0  0  0
   25.1867  -19.0835  -16.2791 O   0  0  0  0  0  0  0  0  0  0  0  0
   26.1049  -20.9159  -15.2424 N   0  0  0  0  0  0  0  0  0  0  0  0
   26.8300  -21.7217  -14.2847 C   0  0  0  0  0  0  0  0  0  0  0  0
   27.3000  -22.8820  -15.1733 C   0  0  0  0  0  0  0  0  0  0  0  0
   26.2685  -22.9686  -16.2725 C   0  0  0  0  0  0  0  0  0  0  0  0
   25.2884  -21.8657  -15.9734 C   0  0  1  0  0  0  0  0  0  0  0  0
   24.1871  -22.4380  -15.1407 C   0  0  0  0  0  0  0  0  0  0  0  0
   24.3371  -22.7638  -13.9293 O   0  0  0  0  0  0  0  0  0  0  0  0
   21.3331  -20.0942  -15.6535 C   0  0  0  0  0  0  0  0  0  0  0  0
   21.5186  -21.0050  -14.4697 C   0  0  2  0  0  0  0  0  0  0  0  0
   22.6474  -20.4807  -13.6376 C   0  0  0  0  0  0  0  0  0  0  0  0
   21.7054  -22.4452  -14.8717 C   0  0  2  0  0  0  0  0  0  0  0  0
   22.8881  -22.6534  -15.6671 N   0  0  0  0  0  0  0  0  0  0  0  0
   20.4740  -22.8761  -15.6066 C   0  0  0  0  0  0  0  0  0  0  0  0
   20.4850  -23.1095  -16.9712 O   0  0  0  0  0  0  0  0  0  0  0  0
   19.3758  -23.0436  -15.0101 O   0  0  0  0  0  0  0  0  0  0  0  0
  2 10  1  0
  2  1  1  6
  3  2  1  0
  4  3  1  0
  5  4  2  0
  6  5  1  0
  7  6  2  0
  7  8  1  0
  8  9  2  0
  9  4  1  0
 10 12  1  0
 11 10  2  0
 12 13  1  0
 12 16  1  0
 13 14  1  0
 14 15  1  0
 16 15  1  0
 17 18  2  0
 16 17  1  1
 20 19  1  6
 20 22  1  0
 21 20  1  0
 22 23  1  6
 23 17  1  0
 24 22  1  0
 25 24  1  0
 26 24  2  0
M  END
$$$$
