FPV.pdb
     RDKit          3D

 26 27  0  0  1  0  0  0  0  0999 V2000
   22.4080  -21.5493  -14.7950 N   0  0  0  0  0  0  0  0  0  0  0  0
   23.4266  -20.6557  -14.3735 C   0  0  1  0  0  0  0  0  0  0  0  0
   22.7964  -19.3448  -13.9465 C   0  0  0  0  0  0  0  0  0  0  0  0
   22.3082  -18.6219  -15.1485 C   0  0  0  0  0  0  0  0  0  0  0  0
   23.1387  -18.0469  -16.0837 C   0  0  0  0  0  0  0  0  0  0  0  0
   22.6539  -17.3705  -17.2030 C   0  0  0  0  0  0  0  0  0  0  0  0
   21.3146  -17.2549  -17.4108 C   0  0  0  0  0  0  0  0  0  0  0  0
   20.4479  -17.8216  -16.4897 C   0  0  0  0  0  0  0  0  0  0  0  0
   20.9350  -18.4892  -15.3848 C   0  0  0  0  0  0  0  0  0  0  0  0
   24.4031  -21.1581  -13.4124 C   0  0  0  0  0  0  0  0  0  0  0  0
   23.9753  -22.1013  -12.6496 O   0  0  0  0  0  0  0  0  0  0  0  0
   25.7371  -20.7426  -13.2200 N   0  0  0  0  0  0  0  0  0  0  0  0
   26.5380  -19.7339  -13.8784 C   0  0  0  0  0  0  0  0  0  0  0  0
   27.8478  -20.5015  -14.1064 C   0  0  0  0  0  0  0  0  0  0  0  0
   27.8898  -21.5296  -13.0014 C   0  0  0  0  0  0  0  0  0  0  0  0
   26.6201  -21.3143  -12.2218 C   0  0  1  0  0  0  0  0  0  0  0  0
   26.9172  -20.3656  -11.1057 C   0  0  0  0  0  0  0  0  0  0  0  0
   26.9241  -19.1106  -11.2514 O   0  0  0  0  0  0  0  0  0  0  0  0
   24.4119  -20.8590   -8.7100 C   0  0  0  0  0  0  0  0  0  0  0  0
   25.6699  -20.7687   -7.8886 C   0  0  2  0  0  0  0  0  0  0  0  0
   25.3428  -20.1031   -6.5880 C   0  0  0  0  0  0  0  0  0  0  0  0
   26.7957  -20.0923   -8.6274 C   0  0  2  0  0  0  0  0  0  0  0  0
   27.2137  -20.8226   -9.7965 N   0  0  0  0  0  0  0  0  0  0  0  0
   27.9289  -19.9131   -7.6652 C   0  0  0  0  0  0  0  0  0  0  0  0
   28.0155  -18.8038   -6.8413 O   0  0  0  0  0  0  0  0  0  0  0  0
   28.8510  -20.7674   -7.5672 O   0  0  0  0  0  0  0  0  0  0  0  0
  2 10  1  0
  2  1  1  1
  3  2  1  0
  4  3  1  0
  5  4  2  0
  6  5  1  0
  7  6  2  0
  7  8  1  0
  8  9  2  0
  9  4  1  0
 10 12  1  0
 11 10  2  0
 12 13  1  0
 12 16  1  0
 13 14  1  0
 14 15  1  0
 16 15  1  0
 17 18  2  0
 16 17  1  1
 20 19  1  6
 20 22  1  0
 21 20  1  0
 22 23  1  6
 23 17  1  0
 24 22  1  0
 25 24  1  0
 26 24  2  0
M  END
$$$$
