FPV.pdb
     RDKit          3D

 26 27  0  0  1  0  0  0  0  0999 V2000
   27.1765  -21.4739  -17.1180 N   0  0  0  0  0  0  0  0  0  0  0  0
   27.4941  -20.5792  -16.0632 C   0  0  1  0  0  0  0  0  0  0  0  0
   26.6859  -19.3072  -16.2263 C   0  0  0  0  0  0  0  0  0  0  0  0
   27.2396  -18.5167  -17.3551 C   0  0  0  0  0  0  0  0  0  0  0  0
   28.4461  -17.8557  -17.3053 C   0  0  0  0  0  0  0  0  0  0  0  0
   28.9421  -17.1172  -18.3795 C   0  0  0  0  0  0  0  0  0  0  0  0
   28.2334  -17.0247  -19.5368 C   0  0  0  0  0  0  0  0  0  0  0  0
   27.0140  -17.6775  -19.6233 C   0  0  0  0  0  0  0  0  0  0  0  0
   26.5297  -18.4061  -18.5564 C   0  0  0  0  0  0  0  0  0  0  0  0
   27.4575  -21.1070  -14.7031 C   0  0  0  0  0  0  0  0  0  0  0  0
   26.6978  -22.1322  -14.5411 O   0  0  0  0  0  0  0  0  0  0  0  0
   28.1418  -20.6380  -13.5625 N   0  0  0  0  0  0  0  0  0  0  0  0
   29.1300  -19.5957  -13.3909 C   0  0  0  0  0  0  0  0  0  0  0  0
   30.1571  -20.3088  -12.5001 C   0  0  0  0  0  0  0  0  0  0  0  0
   29.3577  -21.3372  -11.7366 C   0  0  0  0  0  0  0  0  0  0  0  0
   27.9447  -21.1759  -12.2303 C   0  0  1  0  0  0  0  0  0  0  0  0
   27.2431  -20.2189  -11.3216 C   0  0  0  0  0  0  0  0  0  0  0  0
   27.2022  -18.9736  -11.5311 O   0  0  0  0  0  0  0  0  0  0  0  0
   24.5917  -20.4743  -12.3151 C   0  0  0  0  0  0  0  0  0  0  0  0
   24.2449  -20.8749  -10.9063 C   0  0  2  0  0  0  0  0  0  0  0  0
   22.8192  -20.5018  -10.6422 C   0  0  0  0  0  0  0  0  0  0  0  0
   25.1994  -20.3021   -9.8905 C   0  0  2  0  0  0  0  0  0  0  0  0
   26.5708  -20.6563  -10.1521 N   0  0  0  0  0  0  0  0  0  0  0  0
   24.7643  -20.7767   -8.5387 C   0  0  0  0  0  0  0  0  0  0  0  0
   24.2850  -19.9010   -7.5794 O   0  0  0  0  0  0  0  0  0  0  0  0
   24.8176  -21.9955   -8.2200 O   0  0  0  0  0  0  0  0  0  0  0  0
  2 10  1  0
  2  1  1  6
  3  2  1  0
  4  3  1  0
  5  4  2  0
  6  5  1  0
  7  6  2  0
  7  8  1  0
  8  9  2  0
  9  4  1  0
 10 12  1  0
 11 10  2  0
 12 13  1  0
 12 16  1  0
 13 14  1  0
 14 15  1  0
 16 15  1  0
 17 18  2  0
 16 17  1  1
 20 19  1  6
 20 22  1  0
 21 20  1  0
 22 23  1  6
 23 17  1  0
 24 22  1  0
 25 24  1  0
 26 24  2  0
M  END
$$$$
