FPV.pdb
     RDKit          3D

 26 27  0  0  1  0  0  0  0  0999 V2000
   27.5830  -17.7036  -15.9225 N   0  0  0  0  0  0  0  0  0  0  0  0
   27.1686  -18.7149  -15.0173 C   0  0  1  0  0  0  0  0  0  0  0  0
   26.9459  -18.1007  -13.6495 C   0  0  0  0  0  0  0  0  0  0  0  0
   26.5555  -19.1667  -12.6919 C   0  0  0  0  0  0  0  0  0  0  0  0
   27.4568  -19.9934  -12.0601 C   0  0  0  0  0  0  0  0  0  0  0  0
   27.0632  -20.9895  -11.1667 C   0  0  0  0  0  0  0  0  0  0  0  0
   25.7462  -21.1800  -10.8848 C   0  0  0  0  0  0  0  0  0  0  0  0
   24.8099  -20.3659  -11.5024 C   0  0  0  0  0  0  0  0  0  0  0  0
   25.2070  -19.3826  -12.3851 C   0  0  0  0  0  0  0  0  0  0  0  0
   26.0727  -19.5822  -15.4376 C   0  0  0  0  0  0  0  0  0  0  0  0
   25.1304  -18.9893  -16.0818 O   0  0  0  0  0  0  0  0  0  0  0  0
   25.9224  -20.9686  -15.2271 N   0  0  0  0  0  0  0  0  0  0  0  0
   26.6507  -21.9031  -14.3973 C   0  0  0  0  0  0  0  0  0  0  0  0
   26.8475  -23.0713  -15.3738 C   0  0  0  0  0  0  0  0  0  0  0  0
   25.6826  -22.9757  -16.3295 C   0  0  0  0  0  0  0  0  0  0  0  0
   24.9020  -21.7726  -15.8717 C   0  0  1  0  0  0  0  0  0  0  0  0
   23.8496  -22.2388  -14.9183 C   0  0  0  0  0  0  0  0  0  0  0  0
   24.0953  -22.5496  -13.7187 O   0  0  0  0  0  0  0  0  0  0  0  0
   22.7268  -19.8708  -13.6773 C   0  0  0  0  0  0  0  0  0  0  0  0
   21.4671  -20.3482  -14.3487 C   0  0  2  0  0  0  0  0  0  0  0  0
   20.2917  -19.7977  -13.6026 C   0  0  0  0  0  0  0  0  0  0  0  0
   21.4211  -21.8474  -14.4931 C   0  0  2  0  0  0  0  0  0  0  0  0
   22.4916  -22.3624  -15.3077 N   0  0  0  0  0  0  0  0  0  0  0  0
   20.0839  -22.2093  -15.0614 C   0  0  0  0  0  0  0  0  0  0  0  0
   19.1180  -22.8459  -14.3009 O   0  0  0  0  0  0  0  0  0  0  0  0
   19.7843  -21.9478  -16.2579 O   0  0  0  0  0  0  0  0  0  0  0  0
  2 10  1  0
  2  1  1  6
  3  2  1  0
  4  3  1  0
  5  4  2  0
  6  5  1  0
  7  6  2  0
  7  8  1  0
  8  9  2  0
  9  4  1  0
 10 12  1  0
 11 10  2  0
 12 13  1  0
 12 16  1  0
 13 14  1  0
 14 15  1  0
 16 15  1  0
 17 18  2  0
 16 17  1  1
 20 19  1  1
 20 22  1  0
 21 20  1  0
 22 23  1  6
 23 17  1  0
 24 22  1  0
 25 24  1  0
 26 24  2  0
M  END
$$$$
