FPV.pdb
     RDKit          3D

 26 27  0  0  1  0  0  0  0  0999 V2000
   24.3744  -21.5624  -13.0000 N   0  0  0  0  0  0  0  0  0  0  0  0
   25.5228  -20.8408  -12.5825 C   0  0  1  0  0  0  0  0  0  0  0  0
   25.2131  -19.3570  -12.5959 C   0  0  0  0  0  0  0  0  0  0  0  0
   25.8428  -18.7363  -13.7892 C   0  0  0  0  0  0  0  0  0  0  0  0
   25.1359  -18.3072  -14.8896 C   0  0  0  0  0  0  0  0  0  0  0  0
   25.7525  -17.7297  -15.9994 C   0  0  0  0  0  0  0  0  0  0  0  0
   27.1029  -17.5685  -16.0303 C   0  0  0  0  0  0  0  0  0  0  0  0
   27.8473  -17.9889  -14.9395 C   0  0  0  0  0  0  0  0  0  0  0  0
   27.2302  -18.5594  -13.8452 C   0  0  0  0  0  0  0  0  0  0  0  0
   26.1763  -21.2753  -11.3520 C   0  0  0  0  0  0  0  0  0  0  0  0
   25.4785  -22.0708  -10.6209 O   0  0  0  0  0  0  0  0  0  0  0  0
   27.4586  -20.9348  -10.8736 N   0  0  0  0  0  0  0  0  0  0  0  0
   28.4358  -19.9724  -11.3332 C   0  0  0  0  0  0  0  0  0  0  0  0
   29.7202  -20.8120  -11.2847 C   0  0  0  0  0  0  0  0  0  0  0  0
   29.4682  -21.8407  -10.2086 C   0  0  0  0  0  0  0  0  0  0  0  0
   28.0746  -21.5548   -9.7164 C   0  0  1  0  0  0  0  0  0  0  0  0
   28.1768  -20.6241   -8.5514 C   0  0  0  0  0  0  0  0  0  0  0  0
   28.0068  -19.3761   -8.6494 O   0  0  0  0  0  0  0  0  0  0  0  0
   27.6095  -20.5437   -3.5975 C   0  0  0  0  0  0  0  0  0  0  0  0
   28.1906  -21.2181   -4.8112 C   0  0  2  0  0  0  0  0  0  0  0  0
   29.6306  -21.5265   -4.5411 C   0  0  0  0  0  0  0  0  0  0  0  0
   27.9883  -20.4162   -6.0709 C   0  0  2  0  0  0  0  0  0  0  0  0
   28.4750  -21.0918   -7.2463 N   0  0  0  0  0  0  0  0  0  0  0  0
   28.6674  -19.0950   -5.8835 C   0  0  0  0  0  0  0  0  0  0  0  0
   28.1427  -18.1179   -5.0548 O   0  0  0  0  0  0  0  0  0  0  0  0
   29.7466  -18.8196   -6.4746 O   0  0  0  0  0  0  0  0  0  0  0  0
  2 10  1  0
  2  1  1  1
  3  2  1  0
  4  3  1  0
  5  4  2  0
  6  5  1  0
  7  6  2  0
  7  8  1  0
  8  9  2  0
  9  4  1  0
 10 12  1  0
 11 10  2  0
 12 13  1  0
 12 16  1  0
 13 14  1  0
 14 15  1  0
 16 15  1  0
 17 18  2  0
 16 17  1  1
 20 19  1  1
 20 22  1  0
 21 20  1  0
 22 23  1  6
 23 17  1  0
 24 22  1  0
 25 24  1  0
 26 24  2  0
M  END
$$$$
