FPV.pdb
     RDKit          3D

 26 27  0  0  1  0  0  0  0  0999 V2000
   21.3098  -11.9511  -18.4592 N   0  0  0  0  0  0  0  0  0  0  0  0
   20.7718  -10.6523  -18.6533 C   0  0  1  0  0  0  0  0  0  0  0  0
   19.2874  -10.6753  -18.3468 C   0  0  0  0  0  0  0  0  0  0  0  0
   18.6132  -11.6311  -19.2621 C   0  0  0  0  0  0  0  0  0  0  0  0
   18.4901  -11.4319  -20.6186 C   0  0  0  0  0  0  0  0  0  0  0  0
   17.8491  -12.3447  -21.4561 C   0  0  0  0  0  0  0  0  0  0  0  0
   17.3131  -13.4868  -20.9473 C   0  0  0  0  0  0  0  0  0  0  0  0
   17.4183  -13.7208  -19.5853 C   0  0  0  0  0  0  0  0  0  0  0  0
   18.0538  -12.8131  -18.7633 C   0  0  0  0  0  0  0  0  0  0  0  0
   21.4673   -9.5373  -18.0187 C   0  0  0  0  0  0  0  0  0  0  0  0
   22.2382   -9.8658  -17.0429 O   0  0  0  0  0  0  0  0  0  0  0  0
   21.3986   -8.1655  -18.3388 N   0  0  0  0  0  0  0  0  0  0  0  0
   20.6672   -7.4484  -19.3602 C   0  0  0  0  0  0  0  0  0  0  0  0
   21.7570   -6.5101  -19.8976 C   0  0  0  0  0  0  0  0  0  0  0  0
   22.6991   -6.3073  -18.7353 C   0  0  0  0  0  0  0  0  0  0  0  0
   22.1223   -7.1357  -17.6184 C   0  0  1  0  0  0  0  0  0  0  0  0
   21.2220   -6.2592  -16.8090 C   0  0  0  0  0  0  0  0  0  0  0  0
   19.9995   -6.0902  -17.0793 O   0  0  0  0  0  0  0  0  0  0  0  0
   22.1582   -5.9119  -12.7495 C   0  0  0  0  0  0  0  0  0  0  0  0
   20.8046   -5.8835  -13.4071 C   0  0  2  0  0  0  0  0  0  0  0  0
   20.3547   -7.2936  -13.6323 C   0  0  0  0  0  0  0  0  0  0  0  0
   20.7903   -5.0547  -14.6656 C   0  0  2  0  0  0  0  0  0  0  0  0
   21.6918   -5.5536  -15.6722 N   0  0  0  0  0  0  0  0  0  0  0  0
   21.1258   -3.6455  -14.2866 C   0  0  0  0  0  0  0  0  0  0  0  0
   20.1752   -2.7873  -13.7607 O   0  0  0  0  0  0  0  0  0  0  0  0
   22.2901   -3.1839  -14.4317 O   0  0  0  0  0  0  0  0  0  0  0  0
  2 10  1  0
  2  1  1  1
  3  2  1  0
  4  3  1  0
  5  4  2  0
  6  5  1  0
  7  6  2  0
  7  8  1  0
  8  9  2  0
  9  4  1  0
 10 12  1  0
 11 10  2  0
 12 13  1  0
 12 16  1  0
 13 14  1  0
 14 15  1  0
 16 15  1  0
 17 18  2  0
 16 17  1  1
 20 19  1  6
 20 22  1  0
 21 20  1  0
 22 23  1  6
 23 17  1  0
 24 22  1  0
 25 24  1  0
 26 24  2  0
M  END
$$$$
