FPV.pdb
     RDKit          3D

 26 27  0  0  1  0  0  0  0  0999 V2000
   25.3324  -21.8936  -12.3326 N   0  0  0  0  0  0  0  0  0  0  0  0
   26.4855  -21.1800  -11.9145 C   0  0  1  0  0  0  0  0  0  0  0  0
   26.1893  -19.6935  -11.9381 C   0  0  0  0  0  0  0  0  0  0  0  0
   26.6771  -19.1174  -13.2171 C   0  0  0  0  0  0  0  0  0  0  0  0
   28.0093  -19.0041  -13.5449 C   0  0  0  0  0  0  0  0  0  0  0  0
   28.4410  -18.4560  -14.7525 C   0  0  0  0  0  0  0  0  0  0  0  0
   27.5389  -18.0058  -15.6657 C   0  0  0  0  0  0  0  0  0  0  0  0
   26.1885  -18.1039  -15.3698 C   0  0  0  0  0  0  0  0  0  0  0  0
   25.7690  -18.6473  -14.1729 C   0  0  0  0  0  0  0  0  0  0  0  0
   27.1298  -21.6129  -10.6787 C   0  0  0  0  0  0  0  0  0  0  0  0
   26.3642  -22.2480   -9.8633 O   0  0  0  0  0  0  0  0  0  0  0  0
   28.4678  -21.4230  -10.2750 N   0  0  0  0  0  0  0  0  0  0  0  0
   29.6072  -20.8441  -10.9526 C   0  0  0  0  0  0  0  0  0  0  0  0
   30.6942  -21.8815  -10.6378 C   0  0  0  0  0  0  0  0  0  0  0  0
   30.2685  -22.5011   -9.3284 C   0  0  0  0  0  0  0  0  0  0  0  0
   28.9771  -21.8131   -8.9745 C   0  0  1  0  0  0  0  0  0  0  0  0
   29.3002  -20.6393   -8.1075 C   0  0  0  0  0  0  0  0  0  0  0  0
   29.3756  -19.4575   -8.5477 O   0  0  0  0  0  0  0  0  0  0  0  0
   26.9023  -20.7144   -5.1414 C   0  0  0  0  0  0  0  0  0  0  0  0
   27.6478  -19.5593   -5.7541 C   0  0  2  0  0  0  0  0  0  0  0  0
   27.0819  -19.2951   -7.1148 C   0  0  0  0  0  0  0  0  0  0  0  0
   29.1389  -19.7767   -5.7706 C   0  0  2  0  0  0  0  0  0  0  0  0
   29.5454  -20.7825   -6.7182 N   0  0  0  0  0  0  0  0  0  0  0  0
   29.5616  -20.1380   -4.3803 C   0  0  0  0  0  0  0  0  0  0  0  0
   29.8461  -19.1707   -3.4315 O   0  0  0  0  0  0  0  0  0  0  0  0
   29.6755  -21.3404   -4.0181 O   0  0  0  0  0  0  0  0  0  0  0  0
  2 10  1  0
  2  1  1  1
  3  2  1  0
  4  3  1  0
  5  4  2  0
  6  5  1  0
  7  6  2  0
  7  8  1  0
  8  9  2  0
  9  4  1  0
 10 12  1  0
 11 10  2  0
 12 13  1  0
 12 16  1  0
 13 14  1  0
 14 15  1  0
 16 15  1  0
 17 18  2  0
 16 17  1  1
 20 19  1  6
 20 22  1  0
 21 20  1  0
 22 23  1  6
 23 17  1  0
 24 22  1  0
 25 24  1  0
 26 24  2  0
M  END
$$$$
