GCH.pdb
     RDKit          3D

 21 21  0  0  1  0  0  0  0  0999 V2000
    7.4055  -14.6943   19.8199 N   0  0  0  0  0  0  0  0  0  0  0  0
    6.6331  -14.5164   21.0066 C   0  0  0  0  0  0  0  0  0  0  0  0
    7.4733  -14.3069   22.2171 C   0  0  0  0  0  0  0  0  0  0  0  0
    8.7215  -14.4409   22.1403 O   0  0  0  0  0  0  0  0  0  0  0  0
    6.9396  -13.9557   23.4878 N   0  0  0  0  0  0  0  0  0  0  0  0
    7.7768  -13.8163   24.6618 C   0  0  1  0  0  0  0  0  0  0  0  0
    7.0862  -12.8841   25.6488 C   0  0  0  0  0  0  0  0  0  0  0  0
    8.1565  -12.6314   27.0917 S   0  0  0  0  0  0  0  0  0  0  0  0
    8.1105  -15.1119   25.2772 C   0  0  0  0  0  0  0  0  0  0  0  0
    7.1746  -15.8949   25.5826 O   0  0  0  0  0  0  0  0  0  0  0  0
    9.4339  -15.5418   25.5521 N   0  0  0  0  0  0  0  0  0  0  0  0
    9.7620  -16.8243   26.1222 C   0  0  1  0  0  0  0  0  0  0  0  0
   10.8298  -17.4678   25.2975 C   0  0  0  0  0  0  0  0  0  0  0  0
   10.4490  -17.6447   23.8862 C   0  0  0  0  0  0  0  0  0  0  0  0
   10.7578  -16.7336   22.8979 C   0  0  0  0  0  0  0  0  0  0  0  0
   10.2834  -17.1652   21.7265 N   0  0  0  0  0  0  0  0  0  0  0  0
    9.6781  -18.3369   21.9574 C   0  0  0  0  0  0  0  0  0  0  0  0
    9.7808  -18.6223   23.2635 N   0  0  0  0  0  0  0  0  0  0  0  0
   10.1013  -16.7389   27.5572 C   0  0  0  0  0  0  0  0  0  0  0  0
   10.4386  -17.9186   28.2069 O   0  0  0  0  0  0  0  0  0  0  0  0
   10.1078  -15.6872   28.2299 O   0  0  0  0  0  0  0  0  0  0  0  0
  1  2  1  0
  3  4  2  0
  3  2  1  0
  5  3  1  0
  6  5  1  0
  6  7  1  1
  8  7  1  0
  9  6  1  0
  9 11  1  0
 10  9  2  0
 12 19  1  0
 12 11  1  0
 13 14  1  0
 12 13  1  6
 14 18  1  0
 15 14  2  0
 15 16  1  0
 16 17  1  0
 18 17  2  0
 19 20  1  0
 21 19  2  0
M  END
$$$$
