GCH.pdb
     RDKit          3D

 21 21  0  0  1  0  0  0  0  0999 V2000
    3.8903  -18.7434   20.9643 N   0  0  0  0  0  0  0  0  0  0  0  0
    4.0607  -17.3337   21.1067 C   0  0  0  0  0  0  0  0  0  0  0  0
    5.4690  -16.8982   20.9021 C   0  0  0  0  0  0  0  0  0  0  0  0
    6.4061  -17.7208   21.0667 O   0  0  0  0  0  0  0  0  0  0  0  0
    5.8310  -15.5762   20.5224 N   0  0  0  0  0  0  0  0  0  0  0  0
    7.2092  -15.1300   20.5086 C   0  0  1  0  0  0  0  0  0  0  0  0
    7.3111  -13.8788   19.6460 C   0  0  0  0  0  0  0  0  0  0  0  0
    9.0555  -13.4204   19.4499 S   0  0  0  0  0  0  0  0  0  0  0  0
    7.7456  -14.9050   21.8616 C   0  0  0  0  0  0  0  0  0  0  0  0
    7.1265  -14.1313   22.6363 O   0  0  0  0  0  0  0  0  0  0  0  0
    8.9292  -15.5103   22.3561 N   0  0  0  0  0  0  0  0  0  0  0  0
    9.3895  -15.3859   23.7163 C   0  0  1  0  0  0  0  0  0  0  0  0
    8.3143  -15.8566   24.6418 C   0  0  0  0  0  0  0  0  0  0  0  0
    7.5028  -14.7607   25.1976 C   0  0  0  0  0  0  0  0  0  0  0  0
    7.6783  -13.4371   24.8521 C   0  0  0  0  0  0  0  0  0  0  0  0
    6.8001  -12.6806   25.5155 N   0  0  0  0  0  0  0  0  0  0  0  0
    6.0701  -13.5053   26.2768 C   0  0  0  0  0  0  0  0  0  0  0  0
    6.4983  -14.7608   26.0813 N   0  0  0  0  0  0  0  0  0  0  0  0
   10.6887  -16.0520   23.9404 C   0  0  0  0  0  0  0  0  0  0  0  0
   10.8810  -17.2948   23.3523 O   0  0  0  0  0  0  0  0  0  0  0  0
   11.6264  -15.5826   24.6179 O   0  0  0  0  0  0  0  0  0  0  0  0
  1  2  1  0
  3  4  2  0
  3  2  1  0
  5  3  1  0
  6  5  1  0
  6  7  1  6
  8  7  1  0
  9  6  1  0
  9 11  1  0
 10  9  2  0
 12 19  1  0
 12 11  1  0
 13 14  1  0
 12 13  1  1
 14 18  1  0
 15 14  2  0
 15 16  1  0
 16 17  1  0
 18 17  2  0
 19 20  1  0
 21 19  2  0
M  END
$$$$
