GCH.pdb
     RDKit          3D

 21 21  0  0  1  0  0  0  0  0999 V2000
    5.6298  -19.1599   18.8593 N   0  0  0  0  0  0  0  0  0  0  0  0
    5.2959  -17.8750   19.3829 C   0  0  0  0  0  0  0  0  0  0  0  0
    6.4940  -17.0528   19.7047 C   0  0  0  0  0  0  0  0  0  0  0  0
    7.6032  -17.6148   19.8938 O   0  0  0  0  0  0  0  0  0  0  0  0
    6.4625  -15.6351   19.8144 N   0  0  0  0  0  0  0  0  0  0  0  0
    7.6049  -14.8739   20.2773 C   0  0  1  0  0  0  0  0  0  0  0  0
    7.2979  -13.3894   20.1289 C   0  0  0  0  0  0  0  0  0  0  0  0
    8.7570  -12.4204   20.6016 S   0  0  0  0  0  0  0  0  0  0  0  0
    7.9926  -15.2156   21.6563 C   0  0  0  0  0  0  0  0  0  0  0  0
    7.0875  -15.4179   22.5060 O   0  0  0  0  0  0  0  0  0  0  0  0
    9.3359  -15.3334   22.0963 N   0  0  0  0  0  0  0  0  0  0  0  0
    9.7212  -15.9011   23.3638 C   0  0  1  0  0  0  0  0  0  0  0  0
    9.3514  -17.3493   23.3842 C   0  0  0  0  0  0  0  0  0  0  0  0
    7.9536  -17.5883   23.7808 C   0  0  0  0  0  0  0  0  0  0  0  0
    7.0865  -16.5800   24.1466 C   0  0  0  0  0  0  0  0  0  0  0  0
    5.8956  -17.1019   24.4515 N   0  0  0  0  0  0  0  0  0  0  0  0
    5.9948  -18.4267   24.2843 C   0  0  0  0  0  0  0  0  0  0  0  0
    7.2398  -18.7156   23.8791 N   0  0  0  0  0  0  0  0  0  0  0  0
   11.1404  -15.6540   23.6899 C   0  0  0  0  0  0  0  0  0  0  0  0
   11.9648  -15.2086   22.6655 O   0  0  0  0  0  0  0  0  0  0  0  0
   11.6548  -15.8152   24.8160 O   0  0  0  0  0  0  0  0  0  0  0  0
  1  2  1  0
  3  4  2  0
  3  2  1  0
  5  3  1  0
  6  5  1  0
  6  7  1  1
  8  7  1  0
  9  6  1  0
  9 11  1  0
 10  9  2  0
 12 19  1  0
 12 11  1  0
 13 14  1  0
 12 13  1  6
 14 18  1  0
 15 14  2  0
 15 16  1  0
 16 17  1  0
 18 17  2  0
 19 20  1  0
 21 19  2  0
M  END
$$$$
