GCH.pdb
     RDKit          3D

 21 21  0  0  1  0  0  0  0  0999 V2000
    8.3959  -13.0815   17.3505 N   0  0  0  0  0  0  0  0  0  0  0  0
    7.8010  -13.9585   18.3062 C   0  0  0  0  0  0  0  0  0  0  0  0
    8.3726  -13.7993   19.6711 C   0  0  0  0  0  0  0  0  0  0  0  0
    9.4352  -13.1453   19.8295 O   0  0  0  0  0  0  0  0  0  0  0  0
    7.7775  -14.3546   20.8375 N   0  0  0  0  0  0  0  0  0  0  0  0
    8.4338  -14.3167   22.1284 C   0  0  1  0  0  0  0  0  0  0  0  0
    7.3705  -14.2841   23.2185 C   0  0  0  0  0  0  0  0  0  0  0  0
    8.1735  -14.2442   24.8449 S   0  0  0  0  0  0  0  0  0  0  0  0
    9.3757  -15.4328   22.3183 C   0  0  0  0  0  0  0  0  0  0  0  0
    8.9878  -16.6014   22.0615 O   0  0  0  0  0  0  0  0  0  0  0  0
   10.7085  -15.2761   22.7776 N   0  0  0  0  0  0  0  0  0  0  0  0
   11.6261  -16.3701   22.9748 C   0  0  1  0  0  0  0  0  0  0  0  0
   13.0206  -15.8887   22.7341 C   0  0  0  0  0  0  0  0  0  0  0  0
   13.2671  -15.4913   21.3378 C   0  0  0  0  0  0  0  0  0  0  0  0
   12.4480  -15.8565   20.2900 C   0  0  0  0  0  0  0  0  0  0  0  0
   12.9255  -15.3496   19.1504 N   0  0  0  0  0  0  0  0  0  0  0  0
   14.0357  -14.6683   19.4603 C   0  0  0  0  0  0  0  0  0  0  0  0
   14.2379  -14.7568   20.7828 N   0  0  0  0  0  0  0  0  0  0  0  0
   11.4517  -17.0296   24.2848 C   0  0  0  0  0  0  0  0  0  0  0  0
   12.3075  -18.0785   24.5928 O   0  0  0  0  0  0  0  0  0  0  0  0
   10.5937  -16.7158   25.1357 O   0  0  0  0  0  0  0  0  0  0  0  0
  1  2  1  0
  3  4  2  0
  3  2  1  0
  5  3  1  0
  6  5  1  0
  6  7  1  1
  8  7  1  0
  9  6  1  0
  9 11  1  0
 10  9  2  0
 12 19  1  0
 12 11  1  0
 13 14  1  0
 12 13  1  1
 14 18  1  0
 15 14  2  0
 15 16  1  0
 16 17  1  0
 18 17  2  0
 19 20  1  0
 21 19  2  0
M  END
$$$$
