GCH.pdb
     RDKit          3D

 21 21  0  0  1  0  0  0  0  0999 V2000
    7.6035  -12.5492   18.4387 N   0  0  0  0  0  0  0  0  0  0  0  0
    8.7347  -13.1645   19.0538 C   0  0  0  0  0  0  0  0  0  0  0  0
    8.3647  -14.3095   19.9297 C   0  0  0  0  0  0  0  0  0  0  0  0
    7.1533  -14.5370   20.1798 O   0  0  0  0  0  0  0  0  0  0  0  0
    9.3197  -15.1849   20.5167 N   0  0  0  0  0  0  0  0  0  0  0  0
    8.9419  -16.2053   21.4733 C   0  0  1  0  0  0  0  0  0  0  0  0
    9.4353  -17.5557   20.9706 C   0  0  0  0  0  0  0  0  0  0  0  0
    8.9277  -18.8547   22.1308 S   0  0  0  0  0  0  0  0  0  0  0  0
    9.4309  -15.9171   22.8322 C   0  0  0  0  0  0  0  0  0  0  0  0
   10.6121  -15.5092   22.9756 O   0  0  0  0  0  0  0  0  0  0  0  0
    8.6489  -16.0708   24.0055 N   0  0  0  0  0  0  0  0  0  0  0  0
    9.1318  -15.7997   25.3362 C   0  0  1  0  0  0  0  0  0  0  0  0
    7.9668  -15.5404   26.2362 C   0  0  0  0  0  0  0  0  0  0  0  0
    7.2736  -14.2750   25.9423 C   0  0  0  0  0  0  0  0  0  0  0  0
    7.7381  -13.3503   25.0305 C   0  0  0  0  0  0  0  0  0  0  0  0
    6.9013  -12.3107   24.9808 N   0  0  0  0  0  0  0  0  0  0  0  0
    5.9126  -12.5626   25.8479 C   0  0  0  0  0  0  0  0  0  0  0  0
    6.1420  -13.7503   26.4262 N   0  0  0  0  0  0  0  0  0  0  0  0
   10.0373  -16.8530   25.8384 C   0  0  0  0  0  0  0  0  0  0  0  0
   10.6240  -16.6544   27.0809 O   0  0  0  0  0  0  0  0  0  0  0  0
   10.3150  -17.9078   25.2309 O   0  0  0  0  0  0  0  0  0  0  0  0
  1  2  1  0
  3  4  2  0
  3  2  1  0
  5  3  1  0
  6  5  1  0
  6  7  1  6
  8  7  1  0
  9  6  1  0
  9 11  1  0
 10  9  2  0
 12 19  1  0
 12 11  1  0
 13 14  1  0
 12 13  1  1
 14 18  1  0
 15 14  2  0
 15 16  1  0
 16 17  1  0
 18 17  2  0
 19 20  1  0
 21 19  2  0
M  END
$$$$
