GCH.pdb
     RDKit          3D

 21 21  0  0  1  0  0  0  0  0999 V2000
    6.4407  -17.0094   20.2550 N   0  0  0  0  0  0  0  0  0  0  0  0
    6.0405  -16.3717   21.4673 C   0  0  0  0  0  0  0  0  0  0  0  0
    7.1541  -15.6401   22.1304 C   0  0  0  0  0  0  0  0  0  0  0  0
    8.3389  -15.8377   21.7577 O   0  0  0  0  0  0  0  0  0  0  0  0
    6.9574  -14.7076   23.1862 N   0  0  0  0  0  0  0  0  0  0  0  0
    8.0664  -14.1176   23.9079 C   0  0  1  0  0  0  0  0  0  0  0  0
    7.5542  -12.9244   24.7041 C   0  0  0  0  0  0  0  0  0  0  0  0
    6.3641  -13.4947   25.9491 S   0  0  0  0  0  0  0  0  0  0  0  0
    8.7638  -15.0886   24.7679 C   0  0  0  0  0  0  0  0  0  0  0  0
    8.0807  -15.9273   25.4098 O   0  0  0  0  0  0  0  0  0  0  0  0
   10.1727  -15.1420   24.9230 N   0  0  0  0  0  0  0  0  0  0  0  0
   10.8594  -16.1393   25.7048 C   0  0  1  0  0  0  0  0  0  0  0  0
   10.0230  -16.4916   26.8925 C   0  0  0  0  0  0  0  0  0  0  0  0
    9.8870  -15.3878   27.8576 C   0  0  0  0  0  0  0  0  0  0  0  0
   10.9425  -14.5940   28.2549 C   0  0  0  0  0  0  0  0  0  0  0  0
   10.5130  -13.6836   29.1325 N   0  0  0  0  0  0  0  0  0  0  0  0
    9.2001  -13.8886   29.2977 C   0  0  0  0  0  0  0  0  0  0  0  0
    8.8267  -14.9191   28.5255 N   0  0  0  0  0  0  0  0  0  0  0  0
   11.2625  -17.3125   24.9030 C   0  0  0  0  0  0  0  0  0  0  0  0
   12.0221  -18.2887   25.5334 O   0  0  0  0  0  0  0  0  0  0  0  0
   10.9721  -17.4929   23.7023 O   0  0  0  0  0  0  0  0  0  0  0  0
  1  2  1  0
  3  4  2  0
  3  2  1  0
  5  3  1  0
  6  5  1  0
  6  7  1  1
  8  7  1  0
  9  6  1  0
  9 11  1  0
 10  9  2  0
 12 19  1  0
 12 11  1  0
 13 14  1  0
 12 13  1  1
 14 18  1  0
 15 14  2  0
 15 16  1  0
 16 17  1  0
 18 17  2  0
 19 20  1  0
 21 19  2  0
M  END
$$$$
