GCH.pdb
     RDKit          3D

 21 21  0  0  1  0  0  0  0  0999 V2000
    7.2615  -18.5178   17.5017 N   0  0  0  0  0  0  0  0  0  0  0  0
    6.6107  -18.0731   18.6914 C   0  0  0  0  0  0  0  0  0  0  0  0
    7.4568  -17.1587   19.5057 C   0  0  0  0  0  0  0  0  0  0  0  0
    8.6645  -16.9884   19.1988 O   0  0  0  0  0  0  0  0  0  0  0  0
    6.9729  -16.4471   20.6381 N   0  0  0  0  0  0  0  0  0  0  0  0
    7.8500  -15.6734   21.4929 C   0  0  1  0  0  0  0  0  0  0  0  0
    7.0084  -14.6962   22.3034 C   0  0  0  0  0  0  0  0  0  0  0  0
    8.0908  -13.7119   23.3763 S   0  0  0  0  0  0  0  0  0  0  0  0
    8.6887  -16.5195   22.3587 C   0  0  0  0  0  0  0  0  0  0  0  0
    8.1398  -17.4355   23.0233 O   0  0  0  0  0  0  0  0  0  0  0  0
   10.0925  -16.3686   22.4952 N   0  0  0  0  0  0  0  0  0  0  0  0
   10.9019  -17.1465   23.3991 C   0  0  1  0  0  0  0  0  0  0  0  0
   12.3247  -17.1031   22.9429 C   0  0  0  0  0  0  0  0  0  0  0  0
   12.5762  -17.9152   21.7406 C   0  0  0  0  0  0  0  0  0  0  0  0
   11.6882  -18.8555   21.2617 C   0  0  0  0  0  0  0  0  0  0  0  0
   12.1897  -19.4272   20.1639 N   0  0  0  0  0  0  0  0  0  0  0  0
   13.3831  -18.8630   19.9395 C   0  0  0  0  0  0  0  0  0  0  0  0
   13.6121  -17.9503   20.8946 N   0  0  0  0  0  0  0  0  0  0  0  0
   10.7261  -16.7445   24.8095 C   0  0  0  0  0  0  0  0  0  0  0  0
   11.4366  -17.4512   25.7703 O   0  0  0  0  0  0  0  0  0  0  0  0
    9.9876  -15.8179   25.2031 O   0  0  0  0  0  0  0  0  0  0  0  0
  1  2  1  0
  3  4  2  0
  3  2  1  0
  5  3  1  0
  6  5  1  0
  6  7  1  1
  8  7  1  0
  9  6  1  0
  9 11  1  0
 10  9  2  0
 12 19  1  0
 12 11  1  0
 13 14  1  0
 12 13  1  6
 14 18  1  0
 15 14  2  0
 15 16  1  0
 16 17  1  0
 18 17  2  0
 19 20  1  0
 21 19  2  0
M  END
$$$$
