GCH.pdb
     RDKit          3D

 21 21  0  0  1  0  0  0  0  0999 V2000
   13.7997  -13.8417   18.8234 N   0  0  0  0  0  0  0  0  0  0  0  0
   13.6999  -15.1602   19.3603 C   0  0  0  0  0  0  0  0  0  0  0  0
   12.4404  -15.3802   20.1221 C   0  0  0  0  0  0  0  0  0  0  0  0
   11.6710  -14.4112   20.3476 O   0  0  0  0  0  0  0  0  0  0  0  0
   12.0421  -16.6500   20.6239 N   0  0  0  0  0  0  0  0  0  0  0  0
   10.9401  -16.7989   21.5525 C   0  0  1  0  0  0  0  0  0  0  0  0
   10.3593  -18.1991   21.4038 C   0  0  0  0  0  0  0  0  0  0  0  0
    9.4477  -18.3122   19.8393 S   0  0  0  0  0  0  0  0  0  0  0  0
   11.3292  -16.5146   22.9441 C   0  0  0  0  0  0  0  0  0  0  0  0
   12.5078  -16.7647   23.3053 O   0  0  0  0  0  0  0  0  0  0  0  0
   10.4524  -15.9705   23.9172 N   0  0  0  0  0  0  0  0  0  0  0  0
   10.8051  -15.7788   25.3015 C   0  0  1  0  0  0  0  0  0  0  0  0
    9.6550  -15.1460   26.0165 C   0  0  0  0  0  0  0  0  0  0  0  0
    9.9246  -14.8892   27.4412 C   0  0  0  0  0  0  0  0  0  0  0  0
   11.1183  -15.2047   28.0556 C   0  0  0  0  0  0  0  0  0  0  0  0
   11.0655  -14.8552   29.3435 N   0  0  0  0  0  0  0  0  0  0  0  0
    9.8554  -14.3225   29.5548 C   0  0  0  0  0  0  0  0  0  0  0  0
    9.1699  -14.3453   28.4028 N   0  0  0  0  0  0  0  0  0  0  0  0
   11.2832  -17.0199   25.9438 C   0  0  0  0  0  0  0  0  0  0  0  0
   10.5652  -18.1834   25.7030 O   0  0  0  0  0  0  0  0  0  0  0  0
   12.2835  -17.1021   26.6865 O   0  0  0  0  0  0  0  0  0  0  0  0
  1  2  1  0
  3  4  2  0
  3  2  1  0
  5  3  1  0
  6  5  1  0
  6  7  1  1
  8  7  1  0
  9  6  1  0
  9 11  1  0
 10  9  2  0
 12 19  1  0
 12 11  1  0
 13 14  1  0
 12 13  1  1
 14 18  1  0
 15 14  2  0
 15 16  1  0
 16 17  1  0
 18 17  2  0
 19 20  1  0
 21 19  2  0
M  END
$$$$
