GCH.pdb
     RDKit          3D

 21 21  0  0  1  0  0  0  0  0999 V2000
    3.0131  -18.5818   21.6207 N   0  0  0  0  0  0  0  0  0  0  0  0
    4.2961  -18.9357   22.1357 C   0  0  0  0  0  0  0  0  0  0  0  0
    5.0726  -17.7587   22.6118 C   0  0  0  0  0  0  0  0  0  0  0  0
    4.9812  -16.6631   22.0008 O   0  0  0  0  0  0  0  0  0  0  0  0
    5.9334  -17.7960   23.7433 N   0  0  0  0  0  0  0  0  0  0  0  0
    6.7761  -16.6747   24.1060 C   0  0  1  0  0  0  0  0  0  0  0  0
    6.9043  -16.6281   25.6230 C   0  0  0  0  0  0  0  0  0  0  0  0
    7.8087  -15.1317   26.1073 S   0  0  0  0  0  0  0  0  0  0  0  0
    8.0930  -16.7194   23.4483 C   0  0  0  0  0  0  0  0  0  0  0  0
    8.7068  -17.8161   23.3984 O   0  0  0  0  0  0  0  0  0  0  0  0
    8.7239  -15.5936   22.8597 N   0  0  0  0  0  0  0  0  0  0  0  0
    9.9629  -15.6571   22.1259 C   0  0  1  0  0  0  0  0  0  0  0  0
   10.0767  -14.4496   21.2523 C   0  0  0  0  0  0  0  0  0  0  0  0
    9.0049  -14.3543   20.2471 C   0  0  0  0  0  0  0  0  0  0  0  0
    8.2070  -13.2399   20.0932 C   0  0  0  0  0  0  0  0  0  0  0  0
    7.3304  -13.4492   19.1076 N   0  0  0  0  0  0  0  0  0  0  0  0
    7.5608  -14.6802   18.6341 C   0  0  0  0  0  0  0  0  0  0  0  0
    8.5732  -15.2229   19.3256 N   0  0  0  0  0  0  0  0  0  0  0  0
   11.1339  -15.8583   23.0032 C   0  0  0  0  0  0  0  0  0  0  0  0
   12.3778  -15.9670   22.3963 O   0  0  0  0  0  0  0  0  0  0  0  0
   11.0903  -15.9379   24.2484 O   0  0  0  0  0  0  0  0  0  0  0  0
  1  2  1  0
  3  4  2  0
  3  2  1  0
  5  3  1  0
  6  5  1  0
  6  7  1  1
  8  7  1  0
  9  6  1  0
  9 11  1  0
 10  9  2  0
 12 19  1  0
 12 11  1  0
 13 14  1  0
 12 13  1  1
 14 18  1  0
 15 14  2  0
 15 16  1  0
 16 17  1  0
 18 17  2  0
 19 20  1  0
 21 19  2  0
M  END
$$$$
