GCH.pdb
     RDKit          3D

 21 21  0  0  1  0  0  0  0  0999 V2000
    4.6740  -19.4821   22.6182 N   0  0  0  0  0  0  0  0  0  0  0  0
    4.5116  -18.1127   22.2510 C   0  0  0  0  0  0  0  0  0  0  0  0
    5.8076  -17.4202   22.0145 C   0  0  0  0  0  0  0  0  0  0  0  0
    6.8875  -18.0264   22.2342 O   0  0  0  0  0  0  0  0  0  0  0  0
    5.9040  -16.0816   21.5436 N   0  0  0  0  0  0  0  0  0  0  0  0
    7.1798  -15.4188   21.3656 C   0  0  1  0  0  0  0  0  0  0  0  0
    6.9911  -14.2361   20.4246 C   0  0  0  0  0  0  0  0  0  0  0  0
    8.6089  -13.5218   20.0197 S   0  0  0  0  0  0  0  0  0  0  0  0
    7.7883  -15.0084   22.6424 C   0  0  0  0  0  0  0  0  0  0  0  0
    7.2290  -14.1051   23.3157 O   0  0  0  0  0  0  0  0  0  0  0  0
    8.9786  -15.5708   23.1705 N   0  0  0  0  0  0  0  0  0  0  0  0
    9.5178  -15.2434   24.4665 C   0  0  1  0  0  0  0  0  0  0  0  0
    8.4994  -15.5589   25.5142 C   0  0  0  0  0  0  0  0  0  0  0  0
    7.6462  -14.4103   25.8622 C   0  0  0  0  0  0  0  0  0  0  0  0
    7.8042  -13.1550   25.3132 C   0  0  0  0  0  0  0  0  0  0  0  0
    6.8881  -12.3258   25.8200 N   0  0  0  0  0  0  0  0  0  0  0  0
    6.1514  -13.0371   26.6826 C   0  0  0  0  0  0  0  0  0  0  0  0
    6.6132  -14.2956   26.7046 N   0  0  0  0  0  0  0  0  0  0  0  0
   10.8288  -15.8773   24.7138 C   0  0  0  0  0  0  0  0  0  0  0  0
   11.2567  -16.8382   23.8077 O   0  0  0  0  0  0  0  0  0  0  0  0
   11.5809  -15.6148   25.6751 O   0  0  0  0  0  0  0  0  0  0  0  0
  1  2  1  0
  3  4  2  0
  3  2  1  0
  5  3  1  0
  6  5  1  0
  6  7  1  6
  8  7  1  0
  9  6  1  0
  9 11  1  0
 10  9  2  0
 12 19  1  0
 12 11  1  0
 13 14  1  0
 12 13  1  1
 14 18  1  0
 15 14  2  0
 15 16  1  0
 16 17  1  0
 18 17  2  0
 19 20  1  0
 21 19  2  0
M  END
$$$$
