GCH.pdb
     RDKit          3D

 21 21  0  0  1  0  0  0  0  0999 V2000
    6.9534  -18.4658   17.6673 N   0  0  0  0  0  0  0  0  0  0  0  0
    6.4427  -17.8111   18.8279 C   0  0  0  0  0  0  0  0  0  0  0  0
    7.4593  -16.9624   19.5071 C   0  0  0  0  0  0  0  0  0  0  0  0
    8.5252  -17.4818   19.9267 O   0  0  0  0  0  0  0  0  0  0  0  0
    7.2969  -15.5651   19.7169 N   0  0  0  0  0  0  0  0  0  0  0  0
    8.2288  -14.7935   20.5138 C   0  0  1  0  0  0  0  0  0  0  0  0
    7.8449  -13.3219   20.4296 C   0  0  0  0  0  0  0  0  0  0  0  0
    7.8400  -12.7971   18.6929 S   0  0  0  0  0  0  0  0  0  0  0  0
    8.3023  -15.2591   21.9090 C   0  0  0  0  0  0  0  0  0  0  0  0
    7.3159  -15.0632   22.6644 O   0  0  0  0  0  0  0  0  0  0  0  0
    9.4259  -15.9225   22.4654 N   0  0  0  0  0  0  0  0  0  0  0  0
    9.5209  -16.3253   23.8460 C   0  0  1  0  0  0  0  0  0  0  0  0
    9.4175  -17.8142   23.9297 C   0  0  0  0  0  0  0  0  0  0  0  0
    8.0680  -18.3222   23.6314 C   0  0  0  0  0  0  0  0  0  0  0  0
    7.0191  -17.5107   23.2526 C   0  0  0  0  0  0  0  0  0  0  0  0
    5.9277  -18.2537   23.0518 N   0  0  0  0  0  0  0  0  0  0  0  0
    6.2691  -19.5248   23.2978 C   0  0  0  0  0  0  0  0  0  0  0  0
    7.5629  -19.5611   23.6476 N   0  0  0  0  0  0  0  0  0  0  0  0
   10.7204  -15.7826   24.5156 C   0  0  0  0  0  0  0  0  0  0  0  0
   10.8169  -15.9492   25.8905 O   0  0  0  0  0  0  0  0  0  0  0  0
   11.6535  -15.1859   23.9396 O   0  0  0  0  0  0  0  0  0  0  0  0
  1  2  1  0
  3  4  2  0
  3  2  1  0
  5  3  1  0
  6  5  1  0
  6  7  1  1
  8  7  1  0
  9  6  1  0
  9 11  1  0
 10  9  2  0
 12 19  1  0
 12 11  1  0
 13 14  1  0
 12 13  1  6
 14 18  1  0
 15 14  2  0
 15 16  1  0
 16 17  1  0
 18 17  2  0
 19 20  1  0
 21 19  2  0
M  END
$$$$
