MEE.pdb
     RDKit          3D

 27 26  0  0  1  0  0  0  0  0999 V2000
   28.2405  -19.4093   -6.1143 C   0  0  0  0  0  0  0  0  0  0  0  0
   27.5370  -19.5426   -7.7788 S   0  0  0  0  0  0  0  0  0  0  0  0
   26.0722  -20.6444   -7.7351 C   0  0  0  0  0  0  0  0  0  0  0  0
   25.4531  -20.6499   -9.1136 C   0  0  0  0  0  0  0  0  0  0  0  0
   26.3935  -20.9840  -10.2090 C   0  0  2  0  0  0  0  0  0  0  0  0
   27.6003  -20.1528  -10.0710 N   0  0  0  0  0  0  0  0  0  0  0  0
   25.8976  -20.8327  -11.5764 C   0  0  0  0  0  0  0  0  0  0  0  0
   25.6843  -19.6598  -12.0585 O   0  0  0  0  0  0  0  0  0  0  0  0
   25.6048  -21.8800  -12.4939 N   0  0  0  0  0  0  0  0  0  0  0  0
   25.2242  -21.5817  -13.8828 C   0  0  1  0  0  0  0  0  0  0  0  0
   26.1871  -22.3550  -14.7243 C   0  0  0  0  0  0  0  0  0  0  0  0
   25.9866  -22.3103  -16.1919 C   0  0  0  0  0  0  0  0  0  0  0  0
   27.0296  -22.9762  -16.9926 C   0  0  0  0  0  0  0  0  0  0  0  0
   28.1488  -22.4662  -17.2308 O   0  0  0  0  0  0  0  0  0  0  0  0
   23.8272  -22.0204  -14.1510 C   0  0  0  0  0  0  0  0  0  0  0  0
   23.3998  -23.0615  -13.6022 O   0  0  0  0  0  0  0  0  0  0  0  0
   26.7931  -24.2571  -17.5348 O   0  0  0  0  0  0  0  0  0  0  0  0
   22.9270  -21.3288  -14.9977 N   0  0  0  0  0  0  0  0  0  0  0  0
   21.4864  -21.2456  -14.7506 C   0  0  1  0  0  0  0  0  0  0  0  0
   21.1649  -20.6101  -13.4568 C   0  0  0  0  0  0  0  0  0  0  0  0
   20.6182  -19.2179  -13.5964 C   0  0  0  0  0  0  0  0  0  0  0  0
   19.5502  -18.9444  -12.5874 C   0  0  0  0  0  0  0  0  0  0  0  0
   19.8242  -18.2472  -11.5927 O   0  0  0  0  0  0  0  0  0  0  0  0
   20.8595  -20.5397  -15.8738 C   0  0  0  0  0  0  0  0  0  0  0  0
   19.5332  -20.7771  -16.2657 O   0  0  0  0  0  0  0  0  0  0  0  0
   18.2904  -19.4553  -12.7634 O   0  0  0  0  0  0  0  0  0  0  0  0
   21.4521  -19.6769  -16.5658 O   0  0  0  0  0  0  0  0  0  0  0  0
  2  1  1  0
  3  2  1  0
  4  3  1  0
  4  5  1  0
  5  7  1  0
  5  6  1  6
  7  8  2  0
  9 10  1  0
  9  7  1  0
 10 11  1  6
 11 12  1  0
 13 14  2  0
 13 12  1  0
 15 16  2  0
 15 10  1  0
 17 13  1  0
 18 15  1  0
 19 18  1  0
 19 24  1  0
 19 20  1  1
 21 22  1  0
 21 20  1  0
 22 26  1  0
 23 22  2  0
 24 25  1  0
 27 24  2  0
M  END
$$$$
