MEE.pdb
     RDKit          3D

 27 26  0  0  1  0  0  0  0  0999 V2000
   12.0932   -9.5604  -14.1034 C   0  0  0  0  0  0  0  0  0  0  0  0
   12.2738  -11.3504  -14.3198 S   0  0  0  0  0  0  0  0  0  0  0  0
   14.0036  -11.8369  -13.9556 C   0  0  0  0  0  0  0  0  0  0  0  0
   14.5830  -10.8165  -13.0034 C   0  0  0  0  0  0  0  0  0  0  0  0
   15.9992  -11.0523  -12.6362 C   0  0  2  0  0  0  0  0  0  0  0  0
   16.1038  -12.3506  -11.9507 N   0  0  0  0  0  0  0  0  0  0  0  0
   16.6405  -10.0453  -11.7917 C   0  0  0  0  0  0  0  0  0  0  0  0
   16.4770  -10.0746  -10.5165 O   0  0  0  0  0  0  0  0  0  0  0  0
   17.4710   -8.9756  -12.2280 N   0  0  0  0  0  0  0  0  0  0  0  0
   18.0229   -8.0087  -11.2670 C   0  0  1  0  0  0  0  0  0  0  0  0
   19.3009   -7.5366  -11.8812 C   0  0  0  0  0  0  0  0  0  0  0  0
   20.0129   -6.4344  -11.1925 C   0  0  0  0  0  0  0  0  0  0  0  0
   21.2657   -5.9946  -11.8324 C   0  0  0  0  0  0  0  0  0  0  0  0
   22.1358   -6.7856  -12.2642 O   0  0  0  0  0  0  0  0  0  0  0  0
   17.0856   -6.8689  -11.0707 C   0  0  0  0  0  0  0  0  0  0  0  0
   16.5290   -6.3593  -12.0698 O   0  0  0  0  0  0  0  0  0  0  0  0
   21.5342   -4.6180  -11.9864 O   0  0  0  0  0  0  0  0  0  0  0  0
   16.7695   -6.3098   -9.8087 N   0  0  0  0  0  0  0  0  0  0  0  0
   15.7530   -5.2741   -9.6148 C   0  0  1  0  0  0  0  0  0  0  0  0
   15.1303   -5.3290   -8.2767 C   0  0  0  0  0  0  0  0  0  0  0  0
   14.1150   -4.2458   -8.0473 C   0  0  0  0  0  0  0  0  0  0  0  0
   13.4746   -4.3704   -6.7027 C   0  0  0  0  0  0  0  0  0  0  0  0
   13.8161   -5.3067   -5.9561 O   0  0  0  0  0  0  0  0  0  0  0  0
   16.3628   -3.9657   -9.8776 C   0  0  0  0  0  0  0  0  0  0  0  0
   15.6140   -2.8591  -10.3063 O   0  0  0  0  0  0  0  0  0  0  0  0
   12.5281   -3.4621   -6.3046 O   0  0  0  0  0  0  0  0  0  0  0  0
   17.5884   -3.7339   -9.7412 O   0  0  0  0  0  0  0  0  0  0  0  0
  2  1  1  0
  3  2  1  0
  4  3  1  0
  4  5  1  0
  5  7  1  0
  5  6  1  1
  7  8  2  0
  9 10  1  0
  9  7  1  0
 10 11  1  6
 11 12  1  0
 13 14  2  0
 13 12  1  0
 15 16  2  0
 15 10  1  0
 17 13  1  0
 18 15  1  0
 19 18  1  0
 19 24  1  0
 19 20  1  1
 21 22  1  0
 21 20  1  0
 22 26  1  0
 23 22  2  0
 24 25  1  0
 27 24  2  0
M  END
$$$$
