MEE.pdb
     RDKit          3D

 27 26  0  0  1  0  0  0  0  0999 V2000
   30.3514  -21.9708  -10.4863 C   0  0  0  0  0  0  0  0  0  0  0  0
   28.6868  -21.4147  -10.9369 S   0  0  0  0  0  0  0  0  0  0  0  0
   28.7726  -20.4155  -12.4717 C   0  0  0  0  0  0  0  0  0  0  0  0
   27.4029  -19.8279  -12.7213 C   0  0  0  0  0  0  0  0  0  0  0  0
   26.3220  -20.8301  -12.8735 C   0  0  2  0  0  0  0  0  0  0  0  0
   26.4775  -21.5050  -14.1722 N   0  0  0  0  0  0  0  0  0  0  0  0
   24.9472  -20.3397  -12.7837 C   0  0  0  0  0  0  0  0  0  0  0  0
   24.5370  -19.7643  -11.7093 O   0  0  0  0  0  0  0  0  0  0  0  0
   23.9485  -20.4233  -13.7936 N   0  0  0  0  0  0  0  0  0  0  0  0
   22.5837  -19.9338  -13.5473 C   0  0  1  0  0  0  0  0  0  0  0  0
   22.2740  -19.0454  -14.7084 C   0  0  0  0  0  0  0  0  0  0  0  0
   21.7789  -19.6980  -15.9433 C   0  0  0  0  0  0  0  0  0  0  0  0
   21.5072  -18.7902  -17.0722 C   0  0  0  0  0  0  0  0  0  0  0  0
   21.0885  -19.1797  -18.1868 O   0  0  0  0  0  0  0  0  0  0  0  0
   21.6213  -21.0679  -13.4863 C   0  0  0  0  0  0  0  0  0  0  0  0
   21.8071  -22.0645  -14.2212 O   0  0  0  0  0  0  0  0  0  0  0  0
   21.7160  -17.4023  -16.9279 O   0  0  0  0  0  0  0  0  0  0  0  0
   20.4886  -21.1025  -12.6372 N   0  0  0  0  0  0  0  0  0  0  0  0
   19.6351  -22.2810  -12.4752 C   0  0  1  0  0  0  0  0  0  0  0  0
   19.3435  -22.5843  -11.0595 C   0  0  0  0  0  0  0  0  0  0  0  0
   18.4120  -23.7491  -10.8794 C   0  0  0  0  0  0  0  0  0  0  0  0
   18.0900  -23.9758   -9.4377 C   0  0  0  0  0  0  0  0  0  0  0  0
   18.4973  -23.1571   -8.5924 O   0  0  0  0  0  0  0  0  0  0  0  0
   18.4070  -22.0791  -13.2522 C   0  0  0  0  0  0  0  0  0  0  0  0
   17.8233  -23.1013  -14.0161 O   0  0  0  0  0  0  0  0  0  0  0  0
   17.3549  -25.0698   -9.0608 O   0  0  0  0  0  0  0  0  0  0  0  0
   17.7871  -20.9890  -13.2952 O   0  0  0  0  0  0  0  0  0  0  0  0
  2  1  1  0
  3  2  1  0
  4  3  1  0
  4  5  1  0
  5  7  1  0
  5  6  1  6
  7  8  2  0
  9 10  1  0
  9  7  1  0
 10 11  1  6
 11 12  1  0
 13 14  2  0
 13 12  1  0
 15 16  2  0
 15 10  1  0
 17 13  1  0
 18 15  1  0
 19 18  1  0
 19 24  1  0
 19 20  1  1
 21 22  1  0
 21 20  1  0
 22 26  1  0
 23 22  2  0
 24 25  1  0
 27 24  2  0
M  END
$$$$
