MEE.pdb
     RDKit          3D

 27 26  0  0  1  0  0  0  0  0999 V2000
   28.3664  -11.5385  -15.5818 C   0  0  0  0  0  0  0  0  0  0  0  0
   27.9928  -13.2975  -15.8046 S   0  0  0  0  0  0  0  0  0  0  0  0
   26.3910  -13.6869  -15.0022 C   0  0  0  0  0  0  0  0  0  0  0  0
   25.3837  -12.6527  -15.4485 C   0  0  0  0  0  0  0  0  0  0  0  0
   24.1868  -13.2099  -16.1216 C   0  0  2  0  0  0  0  0  0  0  0  0
   24.5856  -13.7521  -17.4306 N   0  0  0  0  0  0  0  0  0  0  0  0
   23.0635  -12.2985  -16.3361 C   0  0  0  0  0  0  0  0  0  0  0  0
   23.0716  -11.4895  -17.3356 O   0  0  0  0  0  0  0  0  0  0  0  0
   21.8948  -12.1879  -15.5321 N   0  0  0  0  0  0  0  0  0  0  0  0
   20.8556  -11.1952  -15.8444 C   0  0  1  0  0  0  0  0  0  0  0  0
   19.5876  -11.7790  -15.3107 C   0  0  0  0  0  0  0  0  0  0  0  0
   18.3483  -10.9898  -15.5044 C   0  0  0  0  0  0  0  0  0  0  0  0
   17.1285  -11.5759  -14.9204 C   0  0  0  0  0  0  0  0  0  0  0  0
   16.5494  -12.5806  -15.3943 O   0  0  0  0  0  0  0  0  0  0  0  0
   21.1525   -9.8964  -15.1804 C   0  0  0  0  0  0  0  0  0  0  0  0
   21.6531   -9.8996  -14.0327 O   0  0  0  0  0  0  0  0  0  0  0  0
   16.5538  -11.0042  -13.7656 O   0  0  0  0  0  0  0  0  0  0  0  0
   20.9070   -8.6310  -15.7667 N   0  0  0  0  0  0  0  0  0  0  0  0
   21.2096   -7.3606  -15.1049 C   0  0  1  0  0  0  0  0  0  0  0  0
   21.8539   -6.3858  -16.0080 C   0  0  0  0  0  0  0  0  0  0  0  0
   22.0695   -5.0401  -15.3759 C   0  0  0  0  0  0  0  0  0  0  0  0
   22.7004   -4.0800  -16.3318 C   0  0  0  0  0  0  0  0  0  0  0  0
   22.8834   -2.9022  -15.9714 O   0  0  0  0  0  0  0  0  0  0  0  0
   19.9710   -6.8288  -14.5253 C   0  0  0  0  0  0  0  0  0  0  0  0
   19.9616   -6.0379  -13.3662 O   0  0  0  0  0  0  0  0  0  0  0  0
   23.0709   -4.4987  -17.5835 O   0  0  0  0  0  0  0  0  0  0  0  0
   18.8341   -7.0359  -15.0141 O   0  0  0  0  0  0  0  0  0  0  0  0
  2  1  1  0
  3  2  1  0
  4  3  1  0
  4  5  1  0
  5  7  1  0
  5  6  1  6
  7  8  2  0
  9 10  1  0
  9  7  1  0
 10 11  1  1
 11 12  1  0
 13 14  2  0
 13 12  1  0
 15 16  2  0
 15 10  1  0
 17 13  1  0
 18 15  1  0
 19 18  1  0
 19 24  1  0
 19 20  1  6
 21 22  1  0
 21 20  1  0
 22 26  1  0
 23 22  2  0
 24 25  1  0
 27 24  2  0
M  END
$$$$
