MEE.pdb
     RDKit          3D

 27 26  0  0  1  0  0  0  0  0999 V2000
   28.9806  -20.5473   -5.3098 C   0  0  0  0  0  0  0  0  0  0  0  0
   27.6595  -20.1430   -6.4821 S   0  0  0  0  0  0  0  0  0  0  0  0
   28.0834  -20.8160   -8.1341 C   0  0  0  0  0  0  0  0  0  0  0  0
   26.9565  -20.4711   -9.0799 C   0  0  0  0  0  0  0  0  0  0  0  0
   27.1119  -21.0193  -10.4479 C   0  0  2  0  0  0  0  0  0  0  0  0
   28.4468  -20.6627  -10.9552 N   0  0  0  0  0  0  0  0  0  0  0  0
   26.1263  -20.6018  -11.4442 C   0  0  0  0  0  0  0  0  0  0  0  0
   25.6934  -19.3910  -11.4546 O   0  0  0  0  0  0  0  0  0  0  0  0
   25.5530  -21.4131  -12.4628 N   0  0  0  0  0  0  0  0  0  0  0  0
   24.5665  -20.8592  -13.4025 C   0  0  1  0  0  0  0  0  0  0  0  0
   25.2708  -20.8074  -14.7196 C   0  0  0  0  0  0  0  0  0  0  0  0
   24.4876  -20.3326  -15.8846 C   0  0  0  0  0  0  0  0  0  0  0  0
   24.4565  -18.8710  -16.0716 C   0  0  0  0  0  0  0  0  0  0  0  0
   23.4133  -18.2304  -16.3374 O   0  0  0  0  0  0  0  0  0  0  0  0
   23.3680  -21.7382  -13.4856 C   0  0  0  0  0  0  0  0  0  0  0  0
   23.5265  -22.9762  -13.5860 O   0  0  0  0  0  0  0  0  0  0  0  0
   25.6440  -18.1186  -15.9512 O   0  0  0  0  0  0  0  0  0  0  0  0
   22.0335  -21.2653  -13.4557 N   0  0  0  0  0  0  0  0  0  0  0  0
   20.8639  -22.1361  -13.5869 C   0  0  1  0  0  0  0  0  0  0  0  0
   19.6346  -21.5268  -13.0405 C   0  0  0  0  0  0  0  0  0  0  0  0
   19.8601  -20.1705  -12.4352 C   0  0  0  0  0  0  0  0  0  0  0  0
   18.5773  -19.5523  -11.9815 C   0  0  0  0  0  0  0  0  0  0  0  0
   17.5177  -20.1922  -12.1178 O   0  0  0  0  0  0  0  0  0  0  0  0
   20.7086  -22.5005  -14.9997 C   0  0  0  0  0  0  0  0  0  0  0  0
   19.8564  -23.5325  -15.4213 O   0  0  0  0  0  0  0  0  0  0  0  0
   18.5765  -18.3005  -11.4229 O   0  0  0  0  0  0  0  0  0  0  0  0
   21.3180  -21.9250  -15.9335 O   0  0  0  0  0  0  0  0  0  0  0  0
  2  1  1  0
  3  2  1  0
  4  3  1  0
  4  5  1  0
  5  7  1  0
  5  6  1  6
  7  8  2  0
  9 10  1  0
  9  7  1  0
 10 11  1  6
 11 12  1  0
 13 14  2  0
 13 12  1  0
 15 16  2  0
 15 10  1  0
 17 13  1  0
 18 15  1  0
 19 18  1  0
 19 24  1  0
 19 20  1  6
 21 22  1  0
 21 20  1  0
 22 26  1  0
 23 22  2  0
 24 25  1  0
 27 24  2  0
M  END
$$$$
