MEE.pdb
     RDKit          3D

 27 26  0  0  1  0  0  0  0  0999 V2000
   26.8564  -19.6275   -4.9689 C   0  0  0  0  0  0  0  0  0  0  0  0
   28.4230  -19.2720   -5.8071 S   0  0  0  0  0  0  0  0  0  0  0  0
   28.6428  -20.4348   -7.2074 C   0  0  0  0  0  0  0  0  0  0  0  0
   27.6275  -20.0812   -8.2693 C   0  0  0  0  0  0  0  0  0  0  0  0
   27.6266  -20.9837   -9.4446 C   0  0  2  0  0  0  0  0  0  0  0  0
   28.9900  -21.0501   -9.9953 N   0  0  0  0  0  0  0  0  0  0  0  0
   26.7163  -20.6459  -10.5380 C   0  0  0  0  0  0  0  0  0  0  0  0
   26.9444  -19.6144  -11.2713 O   0  0  0  0  0  0  0  0  0  0  0  0
   25.5423  -21.3557  -10.9152 N   0  0  0  0  0  0  0  0  0  0  0  0
   24.7715  -20.9613  -12.1040 C   0  0  1  0  0  0  0  0  0  0  0  0
   24.9284  -22.0966  -13.0631 C   0  0  0  0  0  0  0  0  0  0  0  0
   26.1752  -22.1357  -13.8631 C   0  0  0  0  0  0  0  0  0  0  0  0
   26.3215  -23.3051  -14.7482 C   0  0  0  0  0  0  0  0  0  0  0  0
   27.3242  -23.5022  -15.4728 O   0  0  0  0  0  0  0  0  0  0  0  0
   23.3368  -20.7639  -11.7589 C   0  0  0  0  0  0  0  0  0  0  0  0
   22.8557  -21.3791  -10.7802 O   0  0  0  0  0  0  0  0  0  0  0  0
   25.3001  -24.2766  -14.8088 O   0  0  0  0  0  0  0  0  0  0  0  0
   22.4596  -19.9104  -12.4710 N   0  0  0  0  0  0  0  0  0  0  0  0
   21.0338  -19.7794  -12.1655 C   0  0  1  0  0  0  0  0  0  0  0  0
   20.3441  -18.8257  -13.0578 C   0  0  0  0  0  0  0  0  0  0  0  0
   20.3266  -19.2609  -14.4955 C   0  0  0  0  0  0  0  0  0  0  0  0
   20.1463  -18.0990  -15.4180 C   0  0  0  0  0  0  0  0  0  0  0  0
   20.0052  -16.9604  -14.9338 O   0  0  0  0  0  0  0  0  0  0  0  0
   20.4207  -21.1115  -12.2155 C   0  0  0  0  0  0  0  0  0  0  0  0
   19.2779  -21.4422  -11.4714 O   0  0  0  0  0  0  0  0  0  0  0  0
   20.1397  -18.2925  -16.7750 O   0  0  0  0  0  0  0  0  0  0  0  0
   20.8637  -22.0508  -12.9196 O   0  0  0  0  0  0  0  0  0  0  0  0
  2  1  1  0
  3  2  1  0
  4  3  1  0
  4  5  1  0
  5  7  1  0
  5  6  1  6
  7  8  2  0
  9 10  1  0
  9  7  1  0
 10 11  1  6
 11 12  1  0
 13 14  2  0
 13 12  1  0
 15 16  2  0
 15 10  1  0
 17 13  1  0
 18 15  1  0
 19 18  1  0
 19 24  1  0
 19 20  1  6
 21 22  1  0
 21 20  1  0
 22 26  1  0
 23 22  2  0
 24 25  1  0
 27 24  2  0
M  END
$$$$
