MEE.pdb
     RDKit          3D

 27 26  0  0  1  0  0  0  0  0999 V2000
   15.8080   -8.4020  -18.5288 C   0  0  0  0  0  0  0  0  0  0  0  0
   15.1342  -10.0200  -18.0694 S   0  0  0  0  0  0  0  0  0  0  0  0
   16.3724  -10.9359  -17.0747 C   0  0  0  0  0  0  0  0  0  0  0  0
   17.4275   -9.9521  -16.6252 C   0  0  0  0  0  0  0  0  0  0  0  0
   18.5032  -10.5409  -15.7931 C   0  0  2  0  0  0  0  0  0  0  0  0
   17.9081  -11.0898  -14.5639 N   0  0  0  0  0  0  0  0  0  0  0  0
   19.5997   -9.6548  -15.4046 C   0  0  0  0  0  0  0  0  0  0  0  0
   19.5195   -8.9669  -14.3212 O   0  0  0  0  0  0  0  0  0  0  0  0
   20.8147   -9.4461  -16.1150 N   0  0  0  0  0  0  0  0  0  0  0  0
   21.7847   -8.4343  -15.6696 C   0  0  1  0  0  0  0  0  0  0  0  0
   23.1104   -8.9285  -16.1510 C   0  0  0  0  0  0  0  0  0  0  0  0
   24.2790   -8.0433  -15.9341 C   0  0  0  0  0  0  0  0  0  0  0  0
   25.5762   -8.5919  -16.3685 C   0  0  0  0  0  0  0  0  0  0  0  0
   26.5773   -7.8820  -16.6198 O   0  0  0  0  0  0  0  0  0  0  0  0
   21.4732   -7.1075  -16.2686 C   0  0  0  0  0  0  0  0  0  0  0  0
   20.9853   -7.0590  -17.4207 O   0  0  0  0  0  0  0  0  0  0  0  0
   25.7385   -9.9853  -16.5192 O   0  0  0  0  0  0  0  0  0  0  0  0
   21.6910   -5.8707  -15.6143 N   0  0  0  0  0  0  0  0  0  0  0  0
   21.2592   -4.5815  -16.1574 C   0  0  1  0  0  0  0  0  0  0  0  0
   19.7909   -4.4747  -16.2751 C   0  0  0  0  0  0  0  0  0  0  0  0
   19.3243   -3.1081  -16.6894 C   0  0  0  0  0  0  0  0  0  0  0  0
   17.8341   -3.0421  -16.7815 C   0  0  0  0  0  0  0  0  0  0  0  0
   17.1724   -4.0834  -16.6132 O   0  0  0  0  0  0  0  0  0  0  0  0
   21.8170   -3.5120  -15.3221 C   0  0  0  0  0  0  0  0  0  0  0  0
   22.0238   -2.2107  -15.8047 O   0  0  0  0  0  0  0  0  0  0  0  0
   17.2134   -1.8487  -17.0454 O   0  0  0  0  0  0  0  0  0  0  0  0
   22.1496   -3.6731  -14.1230 O   0  0  0  0  0  0  0  0  0  0  0  0
  2  1  1  0
  3  2  1  0
  4  3  1  0
  4  5  1  0
  5  7  1  0
  5  6  1  1
  7  8  2  0
  9 10  1  0
  9  7  1  0
 10 11  1  6
 11 12  1  0
 13 14  2  0
 13 12  1  0
 15 16  2  0
 15 10  1  0
 17 13  1  0
 18 15  1  0
 19 18  1  0
 19 24  1  0
 19 20  1  1
 21 22  1  0
 21 20  1  0
 22 26  1  0
 23 22  2  0
 24 25  1  0
 27 24  2  0
M  END
$$$$
