MEE.pdb
     RDKit          3D

 27 26  0  0  1  0  0  0  0  0999 V2000
   17.2607  -13.9591  -17.2462 C   0  0  0  0  0  0  0  0  0  0  0  0
   17.6715  -14.1992  -18.9946 S   0  0  0  0  0  0  0  0  0  0  0  0
   19.4640  -13.9069  -19.2453 C   0  0  0  0  0  0  0  0  0  0  0  0
   19.9536  -13.0265  -18.1190 C   0  0  0  0  0  0  0  0  0  0  0  0
   21.3885  -12.6651  -18.1997 C   0  0  2  0  0  0  0  0  0  0  0  0
   22.1949  -13.8930  -18.1074 N   0  0  0  0  0  0  0  0  0  0  0  0
   21.8907  -11.7216  -17.2017 C   0  0  0  0  0  0  0  0  0  0  0  0
   21.3665  -11.6851  -16.0280 O   0  0  0  0  0  0  0  0  0  0  0  0
   22.9477  -10.7851  -17.3752 N   0  0  0  0  0  0  0  0  0  0  0  0
   23.3460   -9.8861  -16.2816 C   0  0  1  0  0  0  0  0  0  0  0  0
   24.8390   -9.8465  -16.3353 C   0  0  0  0  0  0  0  0  0  0  0  0
   25.5640  -11.0264  -15.8077 C   0  0  0  0  0  0  0  0  0  0  0  0
   27.0344  -10.9391  -15.8588 C   0  0  0  0  0  0  0  0  0  0  0  0
   27.6523   -9.9559  -16.3287 O   0  0  0  0  0  0  0  0  0  0  0  0
   22.7799   -8.5247  -16.4873 C   0  0  0  0  0  0  0  0  0  0  0  0
   22.3766   -8.1987  -17.6270 O   0  0  0  0  0  0  0  0  0  0  0  0
   27.8221  -11.9982  -15.3603 O   0  0  0  0  0  0  0  0  0  0  0  0
   22.6597   -7.5524  -15.4647 N   0  0  0  0  0  0  0  0  0  0  0  0
   21.9442   -6.2863  -15.6328 C   0  0  1  0  0  0  0  0  0  0  0  0
   20.5681   -6.4707  -16.1363 C   0  0  0  0  0  0  0  0  0  0  0  0
   19.7480   -5.2125  -16.1033 C   0  0  0  0  0  0  0  0  0  0  0  0
   18.3536   -5.4540  -16.5840 C   0  0  0  0  0  0  0  0  0  0  0  0
   18.0138   -6.6116  -16.8926 O   0  0  0  0  0  0  0  0  0  0  0  0
   21.9636   -5.5652  -14.3551 C   0  0  0  0  0  0  0  0  0  0  0  0
   21.6692   -4.1966  -14.2590 O   0  0  0  0  0  0  0  0  0  0  0  0
   17.4682   -4.4118  -16.6785 O   0  0  0  0  0  0  0  0  0  0  0  0
   22.2415   -6.1082  -13.2586 O   0  0  0  0  0  0  0  0  0  0  0  0
  2  1  1  0
  3  2  1  0
  4  3  1  0
  4  5  1  0
  5  7  1  0
  5  6  1  1
  7  8  2  0
  9 10  1  0
  9  7  1  0
 10 11  1  6
 11 12  1  0
 13 14  2  0
 13 12  1  0
 15 16  2  0
 15 10  1  0
 17 13  1  0
 18 15  1  0
 19 18  1  0
 19 24  1  0
 19 20  1  1
 21 22  1  0
 21 20  1  0
 22 26  1  0
 23 22  2  0
 24 25  1  0
 27 24  2  0
M  END
$$$$
