MEE.pdb
     RDKit          3D

 27 26  0  0  1  0  0  0  0  0999 V2000
   28.1748  -14.2546  -15.4443 C   0  0  0  0  0  0  0  0  0  0  0  0
   26.9103  -13.0762  -15.9882 S   0  0  0  0  0  0  0  0  0  0  0  0
   25.8810  -12.5815  -14.5538 C   0  0  0  0  0  0  0  0  0  0  0  0
   24.8939  -11.5399  -15.0271 C   0  0  0  0  0  0  0  0  0  0  0  0
   24.1334  -11.9194  -16.2410 C   0  0  2  0  0  0  0  0  0  0  0  0
   25.0118  -11.7863  -17.4145 N   0  0  0  0  0  0  0  0  0  0  0  0
   22.9049  -11.1742  -16.5125 C   0  0  0  0  0  0  0  0  0  0  0  0
   22.9533  -10.0677  -17.1659 O   0  0  0  0  0  0  0  0  0  0  0  0
   21.5863  -11.5403  -16.1229 N   0  0  0  0  0  0  0  0  0  0  0  0
   20.4366  -10.6860  -16.4564 C   0  0  1  0  0  0  0  0  0  0  0  0
   19.2910  -11.6288  -16.6360 C   0  0  0  0  0  0  0  0  0  0  0  0
   17.9498  -11.0301  -16.8330 C   0  0  0  0  0  0  0  0  0  0  0  0
   16.8410  -11.9926  -16.9611 C   0  0  0  0  0  0  0  0  0  0  0  0
   16.3928  -12.6621  -16.0017 O   0  0  0  0  0  0  0  0  0  0  0  0
   20.1558   -9.7276  -15.3524 C   0  0  0  0  0  0  0  0  0  0  0  0
   20.1242  -10.1488  -14.1736 O   0  0  0  0  0  0  0  0  0  0  0  0
   16.2250  -12.1972  -18.2138 O   0  0  0  0  0  0  0  0  0  0  0  0
   19.9197   -8.3444  -15.5431 N   0  0  0  0  0  0  0  0  0  0  0  0
   19.5266   -7.4350  -14.4652 C   0  0  1  0  0  0  0  0  0  0  0  0
   20.6701   -6.6883  -13.9030 C   0  0  0  0  0  0  0  0  0  0  0  0
   21.2791   -5.7139  -14.8706 C   0  0  0  0  0  0  0  0  0  0  0  0
   22.3985   -4.9466  -14.2447 C   0  0  0  0  0  0  0  0  0  0  0  0
   23.0930   -4.2007  -14.9603 O   0  0  0  0  0  0  0  0  0  0  0  0
   18.4845   -6.5341  -14.9705 C   0  0  0  0  0  0  0  0  0  0  0  0
   17.7352   -5.7014  -14.1254 O   0  0  0  0  0  0  0  0  0  0  0  0
   22.6485   -5.0663  -12.9022 O   0  0  0  0  0  0  0  0  0  0  0  0
   18.1835   -6.4368  -16.1847 O   0  0  0  0  0  0  0  0  0  0  0  0
  2  1  1  0
  3  2  1  0
  4  3  1  0
  4  5  1  0
  5  7  1  0
  5  6  1  6
  7  8  2  0
  9 10  1  0
  9  7  1  0
 10 11  1  1
 11 12  1  0
 13 14  2  0
 13 12  1  0
 15 16  2  0
 15 10  1  0
 17 13  1  0
 18 15  1  0
 19 18  1  0
 19 24  1  0
 19 20  1  6
 21 22  1  0
 21 20  1  0
 22 26  1  0
 23 22  2  0
 24 25  1  0
 27 24  2  0
M  END
$$$$
