MEE.pdb
     RDKit          3D

 27 26  0  0  1  0  0  0  0  0999 V2000
   16.0488  -11.8555  -21.0583 C   0  0  0  0  0  0  0  0  0  0  0  0
   16.0422  -11.6292  -19.2605 S   0  0  0  0  0  0  0  0  0  0  0  0
   16.1664   -9.8421  -18.8706 C   0  0  0  0  0  0  0  0  0  0  0  0
   16.0992   -9.6880  -17.3689 C   0  0  0  0  0  0  0  0  0  0  0  0
   17.4045   -9.8128  -16.6785 C   0  0  2  0  0  0  0  0  0  0  0  0
   17.4448  -11.0993  -15.9646 N   0  0  0  0  0  0  0  0  0  0  0  0
   17.7532   -8.7592  -15.7262 C   0  0  0  0  0  0  0  0  0  0  0  0
   17.1639   -8.7015  -14.5847 O   0  0  0  0  0  0  0  0  0  0  0  0
   18.7183   -7.7308  -15.9139 N   0  0  0  0  0  0  0  0  0  0  0  0
   18.8541   -6.6370  -14.9402 C   0  0  1  0  0  0  0  0  0  0  0  0
   20.3106   -6.5904  -14.6087 C   0  0  0  0  0  0  0  0  0  0  0  0
   20.7558   -5.5290  -13.6753 C   0  0  0  0  0  0  0  0  0  0  0  0
   22.2122   -5.4417  -13.4663 C   0  0  0  0  0  0  0  0  0  0  0  0
   22.8703   -4.3867  -13.6191 O   0  0  0  0  0  0  0  0  0  0  0  0
   18.4124   -5.3457  -15.5349 C   0  0  0  0  0  0  0  0  0  0  0  0
   18.8062   -5.0377  -16.6829 O   0  0  0  0  0  0  0  0  0  0  0  0
   22.9384   -6.5851  -13.0713 O   0  0  0  0  0  0  0  0  0  0  0  0
   17.5588   -4.4227  -14.8832 N   0  0  0  0  0  0  0  0  0  0  0  0
   17.1577   -3.1412  -15.4664 C   0  0  1  0  0  0  0  0  0  0  0  0
   16.0568   -2.4955  -14.7233 C   0  0  0  0  0  0  0  0  0  0  0  0
   15.6427   -1.1726  -15.3023 C   0  0  0  0  0  0  0  0  0  0  0  0
   14.5718   -0.5269  -14.4838 C   0  0  0  0  0  0  0  0  0  0  0  0
   14.1704   -1.1010  -13.4543 O   0  0  0  0  0  0  0  0  0  0  0  0
   18.3392   -2.2751  -15.5491 C   0  0  0  0  0  0  0  0  0  0  0  0
   18.5883   -1.4456  -16.6532 O   0  0  0  0  0  0  0  0  0  0  0  0
   14.0466    0.6800  -14.8668 O   0  0  0  0  0  0  0  0  0  0  0  0
   19.2114   -2.2072  -14.6496 O   0  0  0  0  0  0  0  0  0  0  0  0
  2  1  1  0
  3  2  1  0
  4  3  1  0
  4  5  1  0
  5  7  1  0
  5  6  1  1
  7  8  2  0
  9 10  1  0
  9  7  1  0
 10 11  1  6
 11 12  1  0
 13 14  2  0
 13 12  1  0
 15 16  2  0
 15 10  1  0
 17 13  1  0
 18 15  1  0
 19 18  1  0
 19 24  1  0
 19 20  1  1
 21 22  1  0
 21 20  1  0
 22 26  1  0
 23 22  2  0
 24 25  1  0
 27 24  2  0
M  END
$$$$
