MEE.pdb
     RDKit          3D

 27 26  0  0  1  0  0  0  0  0999 V2000
   27.0661  -18.3947   -5.7040 C   0  0  0  0  0  0  0  0  0  0  0  0
   28.3981  -19.5939   -5.4372 S   0  0  0  0  0  0  0  0  0  0  0  0
   28.3369  -20.8744   -6.7480 C   0  0  0  0  0  0  0  0  0  0  0  0
   27.5175  -20.3280   -7.8940 C   0  0  0  0  0  0  0  0  0  0  0  0
   27.4711  -21.2028   -9.0892 C   0  0  2  0  0  0  0  0  0  0  0  0
   28.8435  -21.4183   -9.5754 N   0  0  0  0  0  0  0  0  0  0  0  0
   26.6623  -20.7410  -10.2166 C   0  0  0  0  0  0  0  0  0  0  0  0
   26.9333  -19.6215  -10.7885 O   0  0  0  0  0  0  0  0  0  0  0  0
   25.5493  -21.4131  -10.7945 N   0  0  0  0  0  0  0  0  0  0  0  0
   24.9427  -20.9307  -12.0444 C   0  0  1  0  0  0  0  0  0  0  0  0
   25.4043  -21.8879  -13.0951 C   0  0  0  0  0  0  0  0  0  0  0  0
   24.9833  -21.6131  -14.4892 C   0  0  0  0  0  0  0  0  0  0  0  0
   25.4817  -22.5643  -15.4987 C   0  0  0  0  0  0  0  0  0  0  0  0
   24.7582  -23.0716  -16.3868 O   0  0  0  0  0  0  0  0  0  0  0  0
   23.4573  -20.9401  -11.9459 C   0  0  0  0  0  0  0  0  0  0  0  0
   22.8936  -21.8748  -11.3324 O   0  0  0  0  0  0  0  0  0  0  0  0
   26.8398  -22.9467  -15.4985 O   0  0  0  0  0  0  0  0  0  0  0  0
   22.6186  -19.9456  -12.5053 N   0  0  0  0  0  0  0  0  0  0  0  0
   21.1651  -19.9220  -12.3314 C   0  0  1  0  0  0  0  0  0  0  0  0
   20.5301  -18.7631  -12.9908 C   0  0  0  0  0  0  0  0  0  0  0  0
   19.0487  -18.6816  -12.7552 C   0  0  0  0  0  0  0  0  0  0  0  0
   18.4585  -17.4646  -13.3909 C   0  0  0  0  0  0  0  0  0  0  0  0
   18.4084  -17.3968  -14.6333 O   0  0  0  0  0  0  0  0  0  0  0  0
   20.6156  -21.1927  -12.8174 C   0  0  0  0  0  0  0  0  0  0  0  0
   21.1352  -21.8573  -13.9387 O   0  0  0  0  0  0  0  0  0  0  0  0
   17.9800  -16.4442  -12.6106 O   0  0  0  0  0  0  0  0  0  0  0  0
   19.6484  -21.7803  -12.2755 O   0  0  0  0  0  0  0  0  0  0  0  0
  2  1  1  0
  3  2  1  0
  4  3  1  0
  4  5  1  0
  5  7  1  0
  5  6  1  6
  7  8  2  0
  9 10  1  0
  9  7  1  0
 10 11  1  6
 11 12  1  0
 13 14  2  0
 13 12  1  0
 15 16  2  0
 15 10  1  0
 17 13  1  0
 18 15  1  0
 19 18  1  0
 19 24  1  0
 19 20  1  6
 21 22  1  0
 21 20  1  0
 22 26  1  0
 23 22  2  0
 24 25  1  0
 27 24  2  0
M  END
$$$$
