MEE.pdb
     RDKit          3D

 27 26  0  0  1  0  0  0  0  0999 V2000
   30.2193  -18.6622  -19.4942 C   0  0  0  0  0  0  0  0  0  0  0  0
   29.0330  -19.3032  -18.2838 S   0  0  0  0  0  0  0  0  0  0  0  0
   28.9588  -21.1306  -18.4116 C   0  0  0  0  0  0  0  0  0  0  0  0
   27.9548  -21.6274  -17.3974 C   0  0  0  0  0  0  0  0  0  0  0  0
   27.6015  -20.6424  -16.3481 C   0  0  2  0  0  0  0  0  0  0  0  0
   28.7310  -20.5170  -15.4127 N   0  0  0  0  0  0  0  0  0  0  0  0
   26.3970  -20.9134  -15.5644 C   0  0  0  0  0  0  0  0  0  0  0  0
   25.3086  -21.2606  -16.1547 O   0  0  0  0  0  0  0  0  0  0  0  0
   26.2701  -20.8376  -14.1493 N   0  0  0  0  0  0  0  0  0  0  0  0
   24.9866  -21.1232  -13.4906 C   0  0  1  0  0  0  0  0  0  0  0  0
   25.2730  -21.0351  -12.0265 C   0  0  0  0  0  0  0  0  0  0  0  0
   24.1313  -21.2347  -11.1031 C   0  0  0  0  0  0  0  0  0  0  0  0
   24.4720  -21.2392   -9.6691 C   0  0  0  0  0  0  0  0  0  0  0  0
   23.6188  -21.3314   -8.7565 O   0  0  0  0  0  0  0  0  0  0  0  0
   23.9594  -20.1196  -13.8830 C   0  0  0  0  0  0  0  0  0  0  0  0
   24.2362  -18.9011  -13.8017 O   0  0  0  0  0  0  0  0  0  0  0  0
   25.8195  -21.1379   -9.2634 O   0  0  0  0  0  0  0  0  0  0  0  0
   22.6657  -20.4507  -14.3540 N   0  0  0  0  0  0  0  0  0  0  0  0
   21.6640  -19.4534  -14.7352 C   0  0  1  0  0  0  0  0  0  0  0  0
   21.6090  -19.2282  -16.1938 C   0  0  0  0  0  0  0  0  0  0  0  0
   21.2901  -20.4700  -16.9767 C   0  0  0  0  0  0  0  0  0  0  0  0
   21.0166  -20.1580  -18.4125 C   0  0  0  0  0  0  0  0  0  0  0  0
   21.0387  -18.9705  -18.7867 O   0  0  0  0  0  0  0  0  0  0  0  0
   20.3628  -19.8694  -14.1998 C   0  0  0  0  0  0  0  0  0  0  0  0
   19.2384  -19.0302  -14.2184 O   0  0  0  0  0  0  0  0  0  0  0  0
   20.7486  -21.1699  -19.2975 O   0  0  0  0  0  0  0  0  0  0  0  0
   20.1535  -20.9961  -13.6886 O   0  0  0  0  0  0  0  0  0  0  0  0
  2  1  1  0
  3  2  1  0
  4  3  1  0
  4  5  1  0
  5  7  1  0
  5  6  1  1
  7  8  2  0
  9 10  1  0
  9  7  1  0
 10 11  1  1
 11 12  1  0
 13 14  2  0
 13 12  1  0
 15 16  2  0
 15 10  1  0
 17 13  1  0
 18 15  1  0
 19 18  1  0
 19 24  1  0
 19 20  1  6
 21 22  1  0
 21 20  1  0
 22 26  1  0
 23 22  2  0
 24 25  1  0
 27 24  2  0
M  END
$$$$
