MEE.pdb
     RDKit          3D

 27 26  0  0  1  0  0  0  0  0999 V2000
   28.5857  -14.0654  -15.1416 C   0  0  0  0  0  0  0  0  0  0  0  0
   27.4439  -12.8016  -15.7600 S   0  0  0  0  0  0  0  0  0  0  0  0
   26.2370  -13.5768  -16.9019 C   0  0  0  0  0  0  0  0  0  0  0  0
   25.2275  -12.5239  -17.2964 C   0  0  0  0  0  0  0  0  0  0  0  0
   24.5447  -11.8684  -16.1562 C   0  0  2  0  0  0  0  0  0  0  0  0
   23.9360  -12.9044  -15.3060 N   0  0  0  0  0  0  0  0  0  0  0  0
   23.5096  -10.8873  -16.4797 C   0  0  0  0  0  0  0  0  0  0  0  0
   23.7895   -9.8767  -17.2239 O   0  0  0  0  0  0  0  0  0  0  0  0
   22.1533  -10.9115  -16.0505 N   0  0  0  0  0  0  0  0  0  0  0  0
   21.2606   -9.7711  -16.3065 C   0  0  1  0  0  0  0  0  0  0  0  0
   19.9316  -10.1888  -15.7655 C   0  0  0  0  0  0  0  0  0  0  0  0
   18.8210   -9.2143  -15.8793 C   0  0  0  0  0  0  0  0  0  0  0  0
   17.5237   -9.6702  -15.3488 C   0  0  0  0  0  0  0  0  0  0  0  0
   16.8030   -8.9762  -14.5950 O   0  0  0  0  0  0  0  0  0  0  0  0
   21.7501   -8.5524  -15.6056 C   0  0  0  0  0  0  0  0  0  0  0  0
   22.2418   -8.6652  -14.4596 O   0  0  0  0  0  0  0  0  0  0  0  0
   17.0330  -10.9492  -15.6868 O   0  0  0  0  0  0  0  0  0  0  0  0
   21.7011   -7.2479  -16.1542 N   0  0  0  0  0  0  0  0  0  0  0  0
   22.2649   -6.0703  -15.4918 C   0  0  1  0  0  0  0  0  0  0  0  0
   22.1715   -4.8505  -16.3191 C   0  0  0  0  0  0  0  0  0  0  0  0
   22.7771   -3.6404  -15.6668 C   0  0  0  0  0  0  0  0  0  0  0  0
   22.5881   -2.4151  -16.5014 C   0  0  0  0  0  0  0  0  0  0  0  0
   22.0295   -1.4225  -15.9981 O   0  0  0  0  0  0  0  0  0  0  0  0
   21.5996   -5.9001  -14.1951 C   0  0  0  0  0  0  0  0  0  0  0  0
   22.2953   -5.5235  -13.0362 O   0  0  0  0  0  0  0  0  0  0  0  0
   23.0280   -2.3923  -17.7995 O   0  0  0  0  0  0  0  0  0  0  0  0
   20.3694   -6.0752  -14.0207 O   0  0  0  0  0  0  0  0  0  0  0  0
  2  1  1  0
  3  2  1  0
  4  3  1  0
  4  5  1  0
  5  7  1  0
  5  6  1  1
  7  8  2  0
  9 10  1  0
  9  7  1  0
 10 11  1  1
 11 12  1  0
 13 14  2  0
 13 12  1  0
 15 16  2  0
 15 10  1  0
 17 13  1  0
 18 15  1  0
 19 18  1  0
 19 24  1  0
 19 20  1  6
 21 22  1  0
 21 20  1  0
 22 26  1  0
 23 22  2  0
 24 25  1  0
 27 24  2  0
M  END
$$$$
