MEE.pdb
     RDKit          3D

 27 26  0  0  1  0  0  0  0  0999 V2000
   17.7167  -12.6298  -19.4593 C   0  0  0  0  0  0  0  0  0  0  0  0
   17.8874  -14.4100  -19.7510 S   0  0  0  0  0  0  0  0  0  0  0  0
   19.5946  -14.9346  -19.3367 C   0  0  0  0  0  0  0  0  0  0  0  0
   20.1682  -13.9274  -18.3672 C   0  0  0  0  0  0  0  0  0  0  0  0
   21.5721  -14.1866  -17.9695 C   0  0  2  0  0  0  0  0  0  0  0  0
   21.6244  -15.4362  -17.1936 N   0  0  0  0  0  0  0  0  0  0  0  0
   22.2425  -13.1459  -17.1912 C   0  0  0  0  0  0  0  0  0  0  0  0
   21.8871  -12.9200  -15.9761 O   0  0  0  0  0  0  0  0  0  0  0  0
   23.3000  -12.3033  -17.6340 N   0  0  0  0  0  0  0  0  0  0  0  0
   23.9030  -11.3116  -16.7307 C   0  0  1  0  0  0  0  0  0  0  0  0
   25.3755  -11.4200  -16.9619 C   0  0  0  0  0  0  0  0  0  0  0  0
   26.2443  -10.4663  -16.2327 C   0  0  0  0  0  0  0  0  0  0  0  0
   27.6904  -10.6176  -16.4740 C   0  0  0  0  0  0  0  0  0  0  0  0
   28.1749  -11.4636  -17.2607 O   0  0  0  0  0  0  0  0  0  0  0  0
   23.4226   -9.9412  -17.0583 C   0  0  0  0  0  0  0  0  0  0  0  0
   23.4383   -9.5592  -18.2507 O   0  0  0  0  0  0  0  0  0  0  0  0
   28.6091   -9.7826  -15.8035 O   0  0  0  0  0  0  0  0  0  0  0  0
   22.9363   -9.0203  -16.0988 N   0  0  0  0  0  0  0  0  0  0  0  0
   22.4490   -7.6817  -16.4370 C   0  0  1  0  0  0  0  0  0  0  0  0
   21.4560   -7.1743  -15.4687 C   0  0  0  0  0  0  0  0  0  0  0  0
   20.9659   -5.7906  -15.7879 C   0  0  0  0  0  0  0  0  0  0  0  0
   19.8638   -5.3736  -14.8685 C   0  0  0  0  0  0  0  0  0  0  0  0
   19.3157   -4.2695  -15.0455 O   0  0  0  0  0  0  0  0  0  0  0  0
   23.6013   -6.7813  -16.5566 C   0  0  0  0  0  0  0  0  0  0  0  0
   24.8848   -7.1392  -16.1167 O   0  0  0  0  0  0  0  0  0  0  0  0
   19.4674   -6.2010  -13.8500 O   0  0  0  0  0  0  0  0  0  0  0  0
   23.5323   -5.6324  -17.0564 O   0  0  0  0  0  0  0  0  0  0  0  0
  2  1  1  0
  3  2  1  0
  4  3  1  0
  4  5  1  0
  5  7  1  0
  5  6  1  1
  7  8  2  0
  9 10  1  0
  9  7  1  0
 10 11  1  6
 11 12  1  0
 13 14  2  0
 13 12  1  0
 15 16  2  0
 15 10  1  0
 17 13  1  0
 18 15  1  0
 19 18  1  0
 19 24  1  0
 19 20  1  1
 21 22  1  0
 21 20  1  0
 22 26  1  0
 23 22  2  0
 24 25  1  0
 27 24  2  0
M  END
$$$$
