YMK.pdb
     RDKit          3D

 30 30  0  0  1  0  0  0  0  0999 V2000
    6.9674  -12.6609   16.2638 O   0  0  0  0  0  0  0  0  0  0  0  0
    7.3000  -13.4688   17.3223 C   0  0  0  0  0  0  0  0  0  0  0  0
    8.3801  -13.1270   18.0897 C   0  0  0  0  0  0  0  0  0  0  0  0
    8.7052  -13.9552   19.1596 C   0  0  0  0  0  0  0  0  0  0  0  0
    7.9789  -15.0794   19.4493 C   0  0  0  0  0  0  0  0  0  0  0  0
    8.3339  -15.9413   20.5816 C   0  0  0  0  0  0  0  0  0  0  0  0
    9.5483  -15.3563   21.2586 C   0  0  2  0  0  0  0  0  0  0  0  0
   10.7719  -15.9557   20.8391 N   0  0  0  0  0  0  0  0  0  0  0  0
    9.3640  -15.4282   22.7488 C   0  0  0  0  0  0  0  0  0  0  0  0
   10.1340  -16.1659   23.4193 O   0  0  0  0  0  0  0  0  0  0  0  0
    6.9035  -15.3902   18.6585 C   0  0  0  0  0  0  0  0  0  0  0  0
    6.5317  -14.6027   17.5788 C   0  0  0  0  0  0  0  0  0  0  0  0
    7.9190  -11.4167   28.1746 C   0  0  0  0  0  0  0  0  0  0  0  0
    6.5614  -11.9452   27.1420 S   0  0  0  0  0  0  0  0  0  0  0  0
    6.6817  -13.6676   26.6316 C   0  0  0  0  0  0  0  0  0  0  0  0
    7.0903  -13.8894   25.2377 C   0  0  0  0  0  0  0  0  0  0  0  0
    8.2019  -14.7903   24.9085 C   0  0  2  0  0  0  0  0  0  0  0  0
    8.3748  -14.7129   23.4323 N   0  0  0  0  0  0  0  0  0  0  0  0
    8.1831  -16.1674   25.3556 C   0  0  0  0  0  0  0  0  0  0  0  0
    7.2352  -16.9692   25.3121 O   0  0  0  0  0  0  0  0  0  0  0  0
    9.3931  -16.7012   25.9245 N   0  0  0  0  0  0  0  0  0  0  0  0
    9.3955  -18.0341   26.5563 C   0  0  1  0  0  0  0  0  0  0  0  0
   10.5611  -18.7912   25.9340 C   0  0  0  0  0  0  0  0  0  0  0  0
   10.3141  -19.2567   24.5460 C   0  0  0  0  0  0  0  0  0  0  0  0
   11.4952  -20.0375   24.0370 C   0  0  0  0  0  0  0  0  0  0  0  0
   11.3172  -20.4745   22.6194 C   0  0  0  0  0  0  0  0  0  0  0  0
   12.4821  -21.2464   22.1860 N   0  0  0  0  0  0  0  0  0  0  0  0
    9.5983  -17.8948   28.0149 C   0  0  0  0  0  0  0  0  0  0  0  0
    9.4175  -18.9985   28.8414 O   0  0  0  0  0  0  0  0  0  0  0  0
    9.9297  -16.8299   28.5822 O   0  0  0  0  0  0  0  0  0  0  0  0
  2  1  1  0
  3  2  2  0
  4  3  1  0
  5  4  2  0
  5 11  1  0
  6  7  1  0
  6  5  1  0
  7  8  1  1
  9  7  1  0
 10  9  2  0
 11 12  2  0
 12  2  1  0
 14 13  1  0
 14 15  1  0
 16 15  1  0
 17 16  1  6
 17 18  1  0
 18  9  1  0
 19 21  1  0
 19 17  1  0
 20 19  2  0
 22 21  1  0
 22 28  1  0
 22 23  1  6
 24 25  1  0
 24 23  1  0
 25 26  1  0
 27 26  1  0
 28 29  1  0
 30 28  2  0
M  END
$$$$
