YMK.pdb
     RDKit          3D

 30 30  0  0  1  0  0  0  0  0999 V2000
    2.9547  -24.0100   23.7777 O   0  0  0  0  0  0  0  0  0  0  0  0
    3.8230  -22.9478   23.7425 C   0  0  0  0  0  0  0  0  0  0  0  0
    4.5020  -22.6984   22.5809 C   0  0  0  0  0  0  0  0  0  0  0  0
    5.3787  -21.6180   22.5599 C   0  0  0  0  0  0  0  0  0  0  0  0
    5.5679  -20.8201   23.6566 C   0  0  0  0  0  0  0  0  0  0  0  0
    6.4948  -19.6841   23.6177 C   0  0  0  0  0  0  0  0  0  0  0  0
    5.7037  -18.4391   23.3022 C   0  0  2  0  0  0  0  0  0  0  0  0
    5.1247  -18.4532   21.9996 N   0  0  0  0  0  0  0  0  0  0  0  0
    6.5744  -17.2334   23.5220 C   0  0  0  0  0  0  0  0  0  0  0  0
    6.2806  -16.1590   22.9339 O   0  0  0  0  0  0  0  0  0  0  0  0
    4.8705  -21.1004   24.8027 C   0  0  0  0  0  0  0  0  0  0  0  0
    3.9832  -22.1635   24.8831 C   0  0  0  0  0  0  0  0  0  0  0  0
    6.2095  -11.2518   26.0963 C   0  0  0  0  0  0  0  0  0  0  0  0
    6.1689  -12.9541   26.6342 S   0  0  0  0  0  0  0  0  0  0  0  0
    7.5947  -13.9088   26.0892 C   0  0  0  0  0  0  0  0  0  0  0  0
    7.2881  -15.1471   25.3600 C   0  0  0  0  0  0  0  0  0  0  0  0
    8.3599  -15.9989   24.8295 C   0  0  2  0  0  0  0  0  0  0  0  0
    7.7009  -17.2448   24.3515 N   0  0  0  0  0  0  0  0  0  0  0  0
    9.5189  -16.3055   25.6415 C   0  0  0  0  0  0  0  0  0  0  0  0
   10.0571  -15.5887   26.5016 O   0  0  0  0  0  0  0  0  0  0  0  0
   10.1463  -17.5874   25.4525 N   0  0  0  0  0  0  0  0  0  0  0  0
   11.4497  -17.6864   24.7691 C   0  0  1  0  0  0  0  0  0  0  0  0
   11.2402  -17.1002   23.3793 C   0  0  0  0  0  0  0  0  0  0  0  0
   12.4789  -17.0001   22.5669 C   0  0  0  0  0  0  0  0  0  0  0  0
   12.1467  -17.0242   21.0997 C   0  0  0  0  0  0  0  0  0  0  0  0
   13.3673  -16.9516   20.2411 C   0  0  0  0  0  0  0  0  0  0  0  0
   12.9838  -16.9459   18.8292 N   0  0  0  0  0  0  0  0  0  0  0  0
   12.4615  -16.8994   25.5073 C   0  0  0  0  0  0  0  0  0  0  0  0
   12.1800  -15.5862   25.8683 O   0  0  0  0  0  0  0  0  0  0  0  0
   13.5856  -17.3343   25.8433 O   0  0  0  0  0  0  0  0  0  0  0  0
  2  1  1  0
  3  2  2  0
  4  3  1  0
  5  4  2  0
  5 11  1  0
  6  7  1  0
  6  5  1  0
  7  8  1  6
  9  7  1  0
 10  9  2  0
 11 12  2  0
 12  2  1  0
 14 13  1  0
 14 15  1  0
 16 15  1  0
 17 16  1  1
 17 18  1  0
 18  9  1  0
 19 21  1  0
 19 17  1  0
 20 19  2  0
 22 21  1  0
 22 28  1  0
 22 23  1  6
 24 25  1  0
 24 23  1  0
 25 26  1  0
 27 26  1  0
 28 29  1  0
 30 28  2  0
M  END
$$$$
