YMK.pdb
     RDKit          3D

 30 30  0  0  1  0  0  0  0  0999 V2000
   12.4873  -17.4054   29.1449 O   0  0  0  0  0  0  0  0  0  0  0  0
   11.1536  -17.5066   28.8371 C   0  0  0  0  0  0  0  0  0  0  0  0
   10.5290  -16.4245   28.2790 C   0  0  0  0  0  0  0  0  0  0  0  0
    9.1767  -16.5417   27.9721 C   0  0  0  0  0  0  0  0  0  0  0  0
    8.4786  -17.6947   28.2140 C   0  0  0  0  0  0  0  0  0  0  0  0
    7.0538  -17.8026   27.8833 C   0  0  0  0  0  0  0  0  0  0  0  0
    6.9315  -18.4386   26.5210 C   0  0  2  0  0  0  0  0  0  0  0  0
    7.6812  -19.6443   26.3917 N   0  0  0  0  0  0  0  0  0  0  0  0
    7.2989  -17.4278   25.4707 C   0  0  0  0  0  0  0  0  0  0  0  0
    7.7654  -17.8361   24.3742 O   0  0  0  0  0  0  0  0  0  0  0  0
    9.1376  -18.7579   28.7742 C   0  0  0  0  0  0  0  0  0  0  0  0
   10.4843  -18.6999   29.1014 C   0  0  0  0  0  0  0  0  0  0  0  0
    5.3697  -11.3537   26.2460 C   0  0  0  0  0  0  0  0  0  0  0  0
    6.3694  -11.0843   24.7911 S   0  0  0  0  0  0  0  0  0  0  0  0
    7.2970  -12.5414   24.2830 C   0  0  0  0  0  0  0  0  0  0  0  0
    6.9939  -13.7756   25.0205 C   0  0  0  0  0  0  0  0  0  0  0  0
    7.6216  -15.0510   24.6532 C   0  0  2  0  0  0  0  0  0  0  0  0
    7.1478  -16.0487   25.6508 N   0  0  0  0  0  0  0  0  0  0  0  0
    9.0566  -15.1354   24.4786 C   0  0  0  0  0  0  0  0  0  0  0  0
    9.9362  -15.0493   25.3516 O   0  0  0  0  0  0  0  0  0  0  0  0
    9.5557  -15.3432   23.1443 N   0  0  0  0  0  0  0  0  0  0  0  0
   10.9522  -15.7661   22.9278 C   0  0  1  0  0  0  0  0  0  0  0  0
   11.1130  -17.0819   23.6775 C   0  0  0  0  0  0  0  0  0  0  0  0
   12.4205  -17.7511   23.4605 C   0  0  0  0  0  0  0  0  0  0  0  0
   12.4992  -19.0205   24.2643 C   0  0  0  0  0  0  0  0  0  0  0  0
   13.8072  -19.7213   24.0901 C   0  0  0  0  0  0  0  0  0  0  0  0
   13.8176  -20.9584   24.8713 N   0  0  0  0  0  0  0  0  0  0  0  0
   11.1938  -15.9696   21.4827 C   0  0  0  0  0  0  0  0  0  0  0  0
   10.1130  -16.0672   20.6132 O   0  0  0  0  0  0  0  0  0  0  0  0
   12.3286  -16.0641   20.9640 O   0  0  0  0  0  0  0  0  0  0  0  0
  2  1  1  0
  3  2  2  0
  4  3  1  0
  5  4  2  0
  5 11  1  0
  6  7  1  0
  6  5  1  0
  7  8  1  1
  9  7  1  0
 10  9  2  0
 11 12  2  0
 12  2  1  0
 14 13  1  0
 14 15  1  0
 16 15  1  0
 17 16  1  1
 17 18  1  0
 18  9  1  0
 19 21  1  0
 19 17  1  0
 20 19  2  0
 22 21  1  0
 22 28  1  0
 22 23  1  1
 24 25  1  0
 24 23  1  0
 25 26  1  0
 27 26  1  0
 28 29  1  0
 30 28  2  0
M  END
$$$$
