YMK.pdb
     RDKit          3D

 30 30  0  0  1  0  0  0  0  0999 V2000
    6.1847  -19.9546   16.9076 O   0  0  0  0  0  0  0  0  0  0  0  0
    6.6862  -19.4561   18.0839 C   0  0  0  0  0  0  0  0  0  0  0  0
    6.0743  -18.3685   18.6451 C   0  0  0  0  0  0  0  0  0  0  0  0
    6.5936  -17.8742   19.8378 C   0  0  0  0  0  0  0  0  0  0  0  0
    7.6808  -18.4454   20.4437 C   0  0  0  0  0  0  0  0  0  0  0  0
    8.2151  -17.9132   21.7016 C   0  0  0  0  0  0  0  0  0  0  0  0
    8.1195  -16.4085   21.6568 C   0  0  2  0  0  0  0  0  0  0  0  0
    8.7934  -15.8331   20.5400 N   0  0  0  0  0  0  0  0  0  0  0  0
    8.6053  -15.8450   22.9632 C   0  0  0  0  0  0  0  0  0  0  0  0
    8.9937  -14.6473   22.9991 O   0  0  0  0  0  0  0  0  0  0  0  0
    8.2677  -19.5336   19.8523 C   0  0  0  0  0  0  0  0  0  0  0  0
    7.7945  -20.0702   18.6639 C   0  0  0  0  0  0  0  0  0  0  0  0
    7.1437  -10.6575   25.8839 C   0  0  0  0  0  0  0  0  0  0  0  0
    6.6635  -12.3744   25.9858 S   0  0  0  0  0  0  0  0  0  0  0  0
    7.9232  -13.5052   25.3726 C   0  0  0  0  0  0  0  0  0  0  0  0
    7.5933  -14.9341   25.4667 C   0  0  0  0  0  0  0  0  0  0  0  0
    8.6483  -15.9548   25.4945 C   0  0  2  0  0  0  0  0  0  0  0  0
    8.6478  -16.5882   24.1478 N   0  0  0  0  0  0  0  0  0  0  0  0
    8.6665  -16.9584   26.5382 C   0  0  0  0  0  0  0  0  0  0  0  0
    8.5160  -16.7894   27.7596 O   0  0  0  0  0  0  0  0  0  0  0  0
    8.8836  -18.3263   26.1453 N   0  0  0  0  0  0  0  0  0  0  0  0
   10.0956  -19.0444   26.5823 C   0  0  1  0  0  0  0  0  0  0  0  0
   11.1312  -18.8244   25.4876 C   0  0  0  0  0  0  0  0  0  0  0  0
   12.4888  -19.3225   25.8239 C   0  0  0  0  0  0  0  0  0  0  0  0
   13.1268  -19.9592   24.6192 C   0  0  0  0  0  0  0  0  0  0  0  0
   14.5122  -20.4426   24.9006 C   0  0  0  0  0  0  0  0  0  0  0  0
   15.0933  -21.0225   23.6896 N   0  0  0  0  0  0  0  0  0  0  0  0
   10.5774  -18.4784   27.8612 C   0  0  0  0  0  0  0  0  0  0  0  0
   10.3484  -19.1685   29.0466 O   0  0  0  0  0  0  0  0  0  0  0  0
   11.1937  -17.3944   27.9649 O   0  0  0  0  0  0  0  0  0  0  0  0
  2  1  1  0
  3  2  2  0
  4  3  1  0
  5  4  2  0
  5 11  1  0
  6  7  1  0
  6  5  1  0
  7  8  1  6
  9  7  1  0
 10  9  2  0
 11 12  2  0
 12  2  1  0
 14 13  1  0
 14 15  1  0
 16 15  1  0
 17 16  1  1
 17 18  1  0
 18  9  1  0
 19 21  1  0
 19 17  1  0
 20 19  2  0
 22 21  1  0
 22 28  1  0
 22 23  1  6
 24 25  1  0
 24 23  1  0
 25 26  1  0
 27 26  1  0
 28 29  1  0
 30 28  2  0
M  END
$$$$
