YMK.pdb
     RDKit          3D

 30 30  0  0  1  0  0  0  0  0999 V2000
    6.4761  -11.9137   18.4211 O   0  0  0  0  0  0  0  0  0  0  0  0
    7.3825  -12.8035   18.9410 C   0  0  0  0  0  0  0  0  0  0  0  0
    7.1589  -14.1417   18.7628 C   0  0  0  0  0  0  0  0  0  0  0  0
    8.0864  -15.0320   19.2953 C   0  0  0  0  0  0  0  0  0  0  0  0
    9.1921  -14.6004   19.9781 C   0  0  0  0  0  0  0  0  0  0  0  0
   10.1611  -15.5519   20.5321 C   0  0  0  0  0  0  0  0  0  0  0  0
    9.4148  -16.5376   21.3962 C   0  0  2  0  0  0  0  0  0  0  0  0
    8.0917  -16.8026   20.9364 N   0  0  0  0  0  0  0  0  0  0  0  0
    9.4338  -16.0570   22.8206 C   0  0  0  0  0  0  0  0  0  0  0  0
   10.5406  -15.9702   23.4157 O   0  0  0  0  0  0  0  0  0  0  0  0
    9.3831  -13.2526   20.1370 C   0  0  0  0  0  0  0  0  0  0  0  0
    8.4930  -12.3180   19.6286 C   0  0  0  0  0  0  0  0  0  0  0  0
    6.2217  -12.1926   27.5148 C   0  0  0  0  0  0  0  0  0  0  0  0
    7.4268  -11.9210   26.2254 S   0  0  0  0  0  0  0  0  0  0  0  0
    7.2775  -13.0781   24.8541 C   0  0  0  0  0  0  0  0  0  0  0  0
    7.1698  -14.4950   25.2282 C   0  0  0  0  0  0  0  0  0  0  0  0
    8.2767  -15.4286   24.9857 C   0  0  2  0  0  0  0  0  0  0  0  0
    8.2775  -15.6993   23.5222 N   0  0  0  0  0  0  0  0  0  0  0  0
    8.3714  -16.6612   25.7397 C   0  0  0  0  0  0  0  0  0  0  0  0
    7.4423  -17.3447   26.2011 O   0  0  0  0  0  0  0  0  0  0  0  0
    9.6869  -17.1830   26.0037 N   0  0  0  0  0  0  0  0  0  0  0  0
    9.8558  -18.4088   26.8067 C   0  0  1  0  0  0  0  0  0  0  0  0
   10.5411  -19.4170   25.8939 C   0  0  0  0  0  0  0  0  0  0  0  0
   10.8499  -20.7158   26.5436 C   0  0  0  0  0  0  0  0  0  0  0  0
   11.4902  -21.6554   25.5583 C   0  0  0  0  0  0  0  0  0  0  0  0
   11.7755  -22.9948   26.1558 C   0  0  0  0  0  0  0  0  0  0  0  0
   13.1954  -23.0975   26.4936 N   0  0  0  0  0  0  0  0  0  0  0  0
   10.7079  -18.1227   27.9814 C   0  0  0  0  0  0  0  0  0  0  0  0
   10.6439  -18.9539   29.0944 O   0  0  0  0  0  0  0  0  0  0  0  0
   11.5066  -17.1624   28.0560 O   0  0  0  0  0  0  0  0  0  0  0  0
  2  1  1  0
  3  2  2  0
  4  3  1  0
  5  4  2  0
  5 11  1  0
  6  7  1  0
  6  5  1  0
  7  8  1  6
  9  7  1  0
 10  9  2  0
 11 12  2  0
 12  2  1  0
 14 13  1  0
 14 15  1  0
 16 15  1  0
 17 16  1  1
 17 18  1  0
 18  9  1  0
 19 21  1  0
 19 17  1  0
 20 19  2  0
 22 21  1  0
 22 28  1  0
 22 23  1  6
 24 25  1  0
 24 23  1  0
 25 26  1  0
 27 26  1  0
 28 29  1  0
 30 28  2  0
M  END
$$$$
