YMK.pdb
     RDKit          3D

 30 30  0  0  1  0  0  0  0  0999 V2000
    8.0238  -13.8229   15.2120 O   0  0  0  0  0  0  0  0  0  0  0  0
    8.2598  -14.2825   16.4835 C   0  0  0  0  0  0  0  0  0  0  0  0
    7.3808  -13.9400   17.4747 C   0  0  0  0  0  0  0  0  0  0  0  0
    7.6327  -14.4134   18.7588 C   0  0  0  0  0  0  0  0  0  0  0  0
    8.7200  -15.1973   19.0390 C   0  0  0  0  0  0  0  0  0  0  0  0
    8.9706  -15.6895   20.3977 C   0  0  0  0  0  0  0  0  0  0  0  0
    7.8356  -15.2359   21.2817 C   0  0  2  0  0  0  0  0  0  0  0  0
    7.2998  -13.9692   20.9069 N   0  0  0  0  0  0  0  0  0  0  0  0
    8.2887  -15.2575   22.7150 C   0  0  0  0  0  0  0  0  0  0  0  0
    9.5054  -15.0532   22.9686 O   0  0  0  0  0  0  0  0  0  0  0  0
    9.5788  -15.5200   18.0208 C   0  0  0  0  0  0  0  0  0  0  0  0
    9.3793  -15.0775   16.7214 C   0  0  0  0  0  0  0  0  0  0  0  0
    6.6658  -10.2782   26.4383 C   0  0  0  0  0  0  0  0  0  0  0  0
    6.3528  -12.0079   26.7526 S   0  0  0  0  0  0  0  0  0  0  0  0
    7.3365  -13.1096   25.7230 C   0  0  0  0  0  0  0  0  0  0  0  0
    7.1051  -14.5460   25.9293 C   0  0  0  0  0  0  0  0  0  0  0  0
    7.8875  -15.5516   25.1998 C   0  0  2  0  0  0  0  0  0  0  0  0
    7.4219  -15.4944   23.7873 N   0  0  0  0  0  0  0  0  0  0  0  0
    7.9405  -16.9195   25.6719 C   0  0  0  0  0  0  0  0  0  0  0  0
    7.1981  -17.8636   25.3549 O   0  0  0  0  0  0  0  0  0  0  0  0
    8.9655  -17.2577   26.6247 N   0  0  0  0  0  0  0  0  0  0  0  0
    9.2816  -18.6698   26.9104 C   0  0  1  0  0  0  0  0  0  0  0  0
    9.8302  -19.2477   25.6127 C   0  0  0  0  0  0  0  0  0  0  0  0
   10.2094  -20.6808   25.6959 C   0  0  0  0  0  0  0  0  0  0  0  0
   10.6587  -21.1830   24.3507 C   0  0  0  0  0  0  0  0  0  0  0  0
   11.1308  -22.5996   24.4035 C   0  0  0  0  0  0  0  0  0  0  0  0
   11.7324  -22.9724   23.1230 N   0  0  0  0  0  0  0  0  0  0  0  0
   10.3048  -18.7467   27.9758 C   0  0  0  0  0  0  0  0  0  0  0  0
   11.0543  -17.6183   28.2902 O   0  0  0  0  0  0  0  0  0  0  0  0
   10.5580  -19.7783   28.6372 O   0  0  0  0  0  0  0  0  0  0  0  0
  2  1  1  0
  3  2  2  0
  4  3  1  0
  5  4  2  0
  5 11  1  0
  6  7  1  0
  6  5  1  0
  7  8  1  6
  9  7  1  0
 10  9  2  0
 11 12  2  0
 12  2  1  0
 14 13  1  0
 14 15  1  0
 16 15  1  0
 17 16  1  1
 17 18  1  0
 18  9  1  0
 19 21  1  0
 19 17  1  0
 20 19  2  0
 22 21  1  0
 22 28  1  0
 22 23  1  6
 24 25  1  0
 24 23  1  0
 25 26  1  0
 27 26  1  0
 28 29  1  0
 30 28  2  0
M  END
$$$$
