YMK.pdb
     RDKit          3D

 30 30  0  0  1  0  0  0  0  0999 V2000
   11.5367  -18.6214   31.1921 O   0  0  0  0  0  0  0  0  0  0  0  0
   11.0411  -18.4019   29.9313 C   0  0  0  0  0  0  0  0  0  0  0  0
   10.8658  -17.1102   29.5149 C   0  0  0  0  0  0  0  0  0  0  0  0
   10.3628  -16.9029   28.2341 C   0  0  0  0  0  0  0  0  0  0  0  0
   10.0481  -17.9458   27.4043 C   0  0  0  0  0  0  0  0  0  0  0  0
    9.5201  -17.7104   26.0564 C   0  0  0  0  0  0  0  0  0  0  0  0
    8.0328  -17.4831   26.1643 C   0  0  2  0  0  0  0  0  0  0  0  0
    7.2966  -18.6768   26.4198 N   0  0  0  0  0  0  0  0  0  0  0  0
    7.5519  -16.7746   24.9287 C   0  0  0  0  0  0  0  0  0  0  0  0
    6.8470  -17.4111   24.1013 O   0  0  0  0  0  0  0  0  0  0  0  0
   10.2370  -19.2261   27.8556 C   0  0  0  0  0  0  0  0  0  0  0  0
   10.7350  -19.4943   29.1222 C   0  0  0  0  0  0  0  0  0  0  0  0
    6.1876  -12.0272   27.6555 C   0  0  0  0  0  0  0  0  0  0  0  0
    7.1959  -12.2989   26.2070 S   0  0  0  0  0  0  0  0  0  0  0  0
    6.3138  -13.1150   24.8664 C   0  0  0  0  0  0  0  0  0  0  0  0
    7.1134  -13.4148   23.6706 C   0  0  0  0  0  0  0  0  0  0  0  0
    7.5125  -14.7913   23.3518 C   0  0  2  0  0  0  0  0  0  0  0  0
    7.8496  -15.4363   24.6500 N   0  0  0  0  0  0  0  0  0  0  0  0
    8.5427  -15.0436   22.3660 C   0  0  0  0  0  0  0  0  0  0  0  0
    8.6363  -14.5655   21.2232 O   0  0  0  0  0  0  0  0  0  0  0  0
    9.5994  -15.9540   22.7226 N   0  0  0  0  0  0  0  0  0  0  0  0
   10.6096  -16.3520   21.7241 C   0  0  1  0  0  0  0  0  0  0  0  0
   11.8358  -16.7838   22.5172 C   0  0  0  0  0  0  0  0  0  0  0  0
   12.6672  -15.6587   23.0146 C   0  0  0  0  0  0  0  0  0  0  0  0
   13.8574  -16.1815   23.7721 C   0  0  0  0  0  0  0  0  0  0  0  0
   14.7306  -15.0825   24.2840 C   0  0  0  0  0  0  0  0  0  0  0  0
   15.8073  -15.6416   25.1019 N   0  0  0  0  0  0  0  0  0  0  0  0
   10.0980  -17.4832   20.9200 C   0  0  0  0  0  0  0  0  0  0  0  0
    8.8786  -18.0642   21.2507 O   0  0  0  0  0  0  0  0  0  0  0  0
   10.6935  -17.9745   19.9352 O   0  0  0  0  0  0  0  0  0  0  0  0
  2  1  1  0
  3  2  2  0
  4  3  1  0
  5  4  2  0
  5 11  1  0
  6  7  1  0
  6  5  1  0
  7  8  1  6
  9  7  1  0
 10  9  2  0
 11 12  2  0
 12  2  1  0
 14 13  1  0
 14 15  1  0
 16 15  1  0
 17 16  1  1
 17 18  1  0
 18  9  1  0
 19 21  1  0
 19 17  1  0
 20 19  2  0
 22 21  1  0
 22 28  1  0
 22 23  1  1
 24 25  1  0
 24 23  1  0
 25 26  1  0
 27 26  1  0
 28 29  1  0
 30 28  2  0
M  END
$$$$
