YMK.pdb
     RDKit          3D

 30 30  0  0  1  0  0  0  0  0999 V2000
   13.0609  -17.1141   31.7795 O   0  0  0  0  0  0  0  0  0  0  0  0
   12.3906  -16.9458   30.5938 C   0  0  0  0  0  0  0  0  0  0  0  0
   11.4456  -15.9594   30.5129 C   0  0  0  0  0  0  0  0  0  0  0  0
   10.7742  -15.8002   29.3044 C   0  0  0  0  0  0  0  0  0  0  0  0
   11.0380  -16.5958   28.2215 C   0  0  0  0  0  0  0  0  0  0  0  0
   10.3225  -16.4142   26.9542 C   0  0  0  0  0  0  0  0  0  0  0  0
    9.0430  -17.2107   27.0154 C   0  0  2  0  0  0  0  0  0  0  0  0
    9.2567  -18.6196   27.0568 N   0  0  0  0  0  0  0  0  0  0  0  0
    8.1557  -16.8059   25.8713 C   0  0  0  0  0  0  0  0  0  0  0  0
    7.7421  -17.6957   25.0815 O   0  0  0  0  0  0  0  0  0  0  0  0
   11.9912  -17.5735   28.3397 C   0  0  0  0  0  0  0  0  0  0  0  0
   12.6926  -17.7792   29.5187 C   0  0  0  0  0  0  0  0  0  0  0  0
    7.1773  -10.8220   26.0893 C   0  0  0  0  0  0  0  0  0  0  0  0
    5.7758  -11.6732   26.7963 S   0  0  0  0  0  0  0  0  0  0  0  0
    5.6765  -13.4055   26.3160 C   0  0  0  0  0  0  0  0  0  0  0  0
    6.2888  -13.7416   25.0232 C   0  0  0  0  0  0  0  0  0  0  0  0
    6.6662  -15.1232   24.7002 C   0  0  2  0  0  0  0  0  0  0  0  0
    7.7639  -15.4832   25.6385 N   0  0  0  0  0  0  0  0  0  0  0  0
    7.0068  -15.4889   23.3411 C   0  0  0  0  0  0  0  0  0  0  0  0
    6.3555  -16.2001   22.5581 O   0  0  0  0  0  0  0  0  0  0  0  0
    8.2431  -14.9836   22.8037 N   0  0  0  0  0  0  0  0  0  0  0  0
    8.6699  -15.3524   21.4407 C   0  0  1  0  0  0  0  0  0  0  0  0
    8.6269  -14.0669   20.6254 C   0  0  0  0  0  0  0  0  0  0  0  0
    9.0938  -14.2180   19.2242 C   0  0  0  0  0  0  0  0  0  0  0  0
    8.6829  -13.0259   18.4034 C   0  0  0  0  0  0  0  0  0  0  0  0
    8.7237  -13.3066   16.9365 C   0  0  0  0  0  0  0  0  0  0  0  0
    8.1892  -12.1639   16.1955 N   0  0  0  0  0  0  0  0  0  0  0  0
   10.0484  -15.8876   21.4769 C   0  0  0  0  0  0  0  0  0  0  0  0
   10.7921  -15.7897   22.6479 O   0  0  0  0  0  0  0  0  0  0  0  0
   10.6167  -16.4383   20.5076 O   0  0  0  0  0  0  0  0  0  0  0  0
  2  1  1  0
  3  2  2  0
  4  3  1  0
  5  4  2  0
  5 11  1  0
  6  7  1  0
  6  5  1  0
  7  8  1  6
  9  7  1  0
 10  9  2  0
 11 12  2  0
 12  2  1  0
 14 13  1  0
 14 15  1  0
 16 15  1  0
 17 16  1  6
 17 18  1  0
 18  9  1  0
 19 21  1  0
 19 17  1  0
 20 19  2  0
 22 21  1  0
 22 28  1  0
 22 23  1  6
 24 25  1  0
 24 23  1  0
 25 26  1  0
 27 26  1  0
 28 29  1  0
 30 28  2  0
M  END
$$$$
