YMK.pdb
     RDKit          3D

 30 30  0  0  1  0  0  0  0  0999 V2000
    4.0611  -23.6917   23.8870 O   0  0  0  0  0  0  0  0  0  0  0  0
    4.9209  -22.6302   23.7552 C   0  0  0  0  0  0  0  0  0  0  0  0
    5.9527  -22.7332   22.8623 C   0  0  0  0  0  0  0  0  0  0  0  0
    6.8163  -21.6490   22.7393 C   0  0  0  0  0  0  0  0  0  0  0  0
    6.6537  -20.5086   23.4798 C   0  0  0  0  0  0  0  0  0  0  0  0
    7.5719  -19.3739   23.3372 C   0  0  0  0  0  0  0  0  0  0  0  0
    6.8640  -18.2864   22.5680 C   0  0  2  0  0  0  0  0  0  0  0  0
    6.8488  -18.5094   21.1601 N   0  0  0  0  0  0  0  0  0  0  0  0
    7.4690  -16.9572   22.9245 C   0  0  0  0  0  0  0  0  0  0  0  0
    8.2219  -16.3907   22.0885 O   0  0  0  0  0  0  0  0  0  0  0  0
    5.6088  -20.4415   24.3642 C   0  0  0  0  0  0  0  0  0  0  0  0
    4.7161  -21.4901   24.5299 C   0  0  0  0  0  0  0  0  0  0  0  0
    5.4946  -10.6192   26.5482 C   0  0  0  0  0  0  0  0  0  0  0  0
    5.9290  -12.2933   26.9924 S   0  0  0  0  0  0  0  0  0  0  0  0
    7.2075  -13.0015   25.9411 C   0  0  0  0  0  0  0  0  0  0  0  0
    6.9042  -14.3238   25.3763 C   0  0  0  0  0  0  0  0  0  0  0  0
    7.8600  -15.0094   24.4977 C   0  0  2  0  0  0  0  0  0  0  0  0
    7.2365  -16.3140   24.1450 N   0  0  0  0  0  0  0  0  0  0  0  0
    9.2355  -15.1890   24.9132 C   0  0  0  0  0  0  0  0  0  0  0  0
   10.0170  -14.3284   25.3511 O   0  0  0  0  0  0  0  0  0  0  0  0
    9.7940  -16.5126   24.8190 N   0  0  0  0  0  0  0  0  0  0  0  0
   11.2013  -16.7562   25.1875 C   0  0  1  0  0  0  0  0  0  0  0  0
   11.3313  -18.2619   25.3745 C   0  0  0  0  0  0  0  0  0  0  0  0
   10.8180  -18.7611   26.6752 C   0  0  0  0  0  0  0  0  0  0  0  0
   10.8781  -20.2638   26.7204 C   0  0  0  0  0  0  0  0  0  0  0  0
   10.4798  -20.8070   28.0540 C   0  0  0  0  0  0  0  0  0  0  0  0
   10.4542  -22.2691   28.0091 N   0  0  0  0  0  0  0  0  0  0  0  0
   12.0894  -16.2992   24.0964 C   0  0  0  0  0  0  0  0  0  0  0  0
   11.5681  -16.1095   22.8212 O   0  0  0  0  0  0  0  0  0  0  0  0
   13.3104  -16.0625   24.2334 O   0  0  0  0  0  0  0  0  0  0  0  0
  2  1  1  0
  3  2  2  0
  4  3  1  0
  5  4  2  0
  5 11  1  0
  6  7  1  0
  6  5  1  0
  7  8  1  6
  9  7  1  0
 10  9  2  0
 11 12  2  0
 12  2  1  0
 14 13  1  0
 14 15  1  0
 16 15  1  0
 17 16  1  1
 17 18  1  0
 18  9  1  0
 19 21  1  0
 19 17  1  0
 20 19  2  0
 22 21  1  0
 22 28  1  0
 22 23  1  6
 24 25  1  0
 24 23  1  0
 25 26  1  0
 27 26  1  0
 28 29  1  0
 30 28  2  0
M  END
$$$$
