YMK.pdb
     RDKit          3D

 30 30  0  0  1  0  0  0  0  0999 V2000
    5.8301  -10.8607   27.9430 O   0  0  0  0  0  0  0  0  0  0  0  0
    6.3542  -12.0235   27.4364 C   0  0  0  0  0  0  0  0  0  0  0  0
    5.9047  -12.4672   26.2225 C   0  0  0  0  0  0  0  0  0  0  0  0
    6.4452  -13.6475   25.7213 C   0  0  0  0  0  0  0  0  0  0  0  0
    7.3965  -14.3545   26.4071 C   0  0  0  0  0  0  0  0  0  0  0  0
    7.9573  -15.5962   25.8642 C   0  0  0  0  0  0  0  0  0  0  0  0
    6.8460  -16.3620   25.1906 C   0  0  2  0  0  0  0  0  0  0  0  0
    6.5642  -17.6129   25.8138 N   0  0  0  0  0  0  0  0  0  0  0  0
    7.1692  -16.5168   23.7305 C   0  0  0  0  0  0  0  0  0  0  0  0
    7.8634  -17.5023   23.3651 O   0  0  0  0  0  0  0  0  0  0  0  0
    7.8226  -13.8795   27.6200 C   0  0  0  0  0  0  0  0  0  0  0  0
    7.3204  -12.7092   28.1700 C   0  0  0  0  0  0  0  0  0  0  0  0
    8.8364  -13.4227   17.3016 C   0  0  0  0  0  0  0  0  0  0  0  0
    8.6415  -14.1168   18.9353 S   0  0  0  0  0  0  0  0  0  0  0  0
    7.3767  -13.2911   19.9151 C   0  0  0  0  0  0  0  0  0  0  0  0
    7.1690  -13.8293   21.2666 C   0  0  0  0  0  0  0  0  0  0  0  0
    7.5939  -15.1913   21.6130 C   0  0  2  0  0  0  0  0  0  0  0  0
    6.7351  -15.6163   22.7518 N   0  0  0  0  0  0  0  0  0  0  0  0
    8.9880  -15.4754   21.8823 C   0  0  0  0  0  0  0  0  0  0  0  0
    9.6379  -15.1981   22.9040 O   0  0  0  0  0  0  0  0  0  0  0  0
    9.7389  -16.1601   20.8625 N   0  0  0  0  0  0  0  0  0  0  0  0
   11.1584  -16.4964   21.0806 C   0  0  1  0  0  0  0  0  0  0  0  0
   11.1898  -17.9791   21.4269 C   0  0  0  0  0  0  0  0  0  0  0  0
   12.5558  -18.5498   21.5397 C   0  0  0  0  0  0  0  0  0  0  0  0
   12.4856  -20.0144   21.8771 C   0  0  0  0  0  0  0  0  0  0  0  0
   13.8373  -20.6084   22.1066 C   0  0  0  0  0  0  0  0  0  0  0  0
   13.7132  -22.0421   22.3707 N   0  0  0  0  0  0  0  0  0  0  0  0
   11.9270  -16.2456   19.8419 C   0  0  0  0  0  0  0  0  0  0  0  0
   11.3565  -16.5413   18.6086 O   0  0  0  0  0  0  0  0  0  0  0  0
   13.0857  -15.7742   19.8142 O   0  0  0  0  0  0  0  0  0  0  0  0
  2  1  1  0
  3  2  2  0
  4  3  1  0
  5  4  2  0
  5 11  1  0
  6  7  1  0
  6  5  1  0
  7  8  1  1
  9  7  1  0
 10  9  2  0
 11 12  2  0
 12  2  1  0
 14 13  1  0
 14 15  1  0
 16 15  1  0
 17 16  1  1
 17 18  1  0
 18  9  1  0
 19 21  1  0
 19 17  1  0
 20 19  2  0
 22 21  1  0
 22 28  1  0
 22 23  1  6
 24 25  1  0
 24 23  1  0
 25 26  1  0
 27 26  1  0
 28 29  1  0
 30 28  2  0
M  END
$$$$
