YMK.pdb
     RDKit          3D

 30 30  0  0  1  0  0  0  0  0999 V2000
    7.6422  -13.3198   16.0241 O   0  0  0  0  0  0  0  0  0  0  0  0
    7.6524  -13.7932   17.3123 C   0  0  0  0  0  0  0  0  0  0  0  0
    7.3036  -15.0982   17.5306 C   0  0  0  0  0  0  0  0  0  0  0  0
    7.3188  -15.5642   18.8418 C   0  0  0  0  0  0  0  0  0  0  0  0
    7.6688  -14.7570   19.8911 C   0  0  0  0  0  0  0  0  0  0  0  0
    7.6811  -15.2640   21.2673 C   0  0  0  0  0  0  0  0  0  0  0  0
    9.0224  -14.9420   21.8778 C   0  0  2  0  0  0  0  0  0  0  0  0
   10.0894  -15.7177   21.3372 N   0  0  0  0  0  0  0  0  0  0  0  0
    8.9275  -15.0731   23.3724 C   0  0  0  0  0  0  0  0  0  0  0  0
    9.9388  -15.4681   24.0110 O   0  0  0  0  0  0  0  0  0  0  0  0
    8.0122  -13.4552   19.6341 C   0  0  0  0  0  0  0  0  0  0  0  0
    8.0154  -12.9348   18.3483 C   0  0  0  0  0  0  0  0  0  0  0  0
    7.0240  -11.3483   28.0473 C   0  0  0  0  0  0  0  0  0  0  0  0
    6.4082  -11.0115   26.4054 S   0  0  0  0  0  0  0  0  0  0  0  0
    6.5968  -12.3992   25.2740 C   0  0  0  0  0  0  0  0  0  0  0  0
    6.6657  -13.7256   25.9027 C   0  0  0  0  0  0  0  0  0  0  0  0
    7.7483  -14.6626   25.5775 C   0  0  2  0  0  0  0  0  0  0  0  0
    7.7660  -14.7766   24.0936 N   0  0  0  0  0  0  0  0  0  0  0  0
    7.7932  -15.9705   26.1973 C   0  0  0  0  0  0  0  0  0  0  0  0
    7.7255  -16.2422   27.4076 O   0  0  0  0  0  0  0  0  0  0  0  0
    7.9335  -17.1140   25.3340 N   0  0  0  0  0  0  0  0  0  0  0  0
    7.9497  -18.4769   25.8980 C   0  0  1  0  0  0  0  0  0  0  0  0
    8.0354  -19.4226   24.7074 C   0  0  0  0  0  0  0  0  0  0  0  0
    6.7449  -19.6366   24.0050 C   0  0  0  0  0  0  0  0  0  0  0  0
    6.9423  -20.5215   22.8044 C   0  0  0  0  0  0  0  0  0  0  0  0
    5.6608  -20.7989   22.0881 C   0  0  0  0  0  0  0  0  0  0  0  0
    5.9036  -21.7049   20.9652 N   0  0  0  0  0  0  0  0  0  0  0  0
    9.1346  -18.6432   26.7677 C   0  0  0  0  0  0  0  0  0  0  0  0
   10.1787  -17.7281   26.6874 O   0  0  0  0  0  0  0  0  0  0  0  0
    9.2771  -19.5705   27.5956 O   0  0  0  0  0  0  0  0  0  0  0  0
  2  1  1  0
  3  2  2  0
  4  3  1  0
  5  4  2  0
  5 11  1  0
  6  7  1  0
  6  5  1  0
  7  8  1  6
  9  7  1  0
 10  9  2  0
 11 12  2  0
 12  2  1  0
 14 13  1  0
 14 15  1  0
 16 15  1  0
 17 16  1  6
 17 18  1  0
 18  9  1  0
 19 21  1  0
 19 17  1  0
 20 19  2  0
 22 21  1  0
 22 28  1  0
 22 23  1  6
 24 25  1  0
 24 23  1  0
 25 26  1  0
 27 26  1  0
 28 29  1  0
 30 28  2  0
M  END
$$$$
