YMK.pdb
     RDKit          3D

 30 30  0  0  1  0  0  0  0  0999 V2000
   10.8152  -19.7239   18.3742 O   0  0  0  0  0  0  0  0  0  0  0  0
    9.7759  -19.0333   18.9457 C   0  0  0  0  0  0  0  0  0  0  0  0
    9.6832  -19.0058   20.3106 C   0  0  0  0  0  0  0  0  0  0  0  0
    8.6245  -18.3016   20.8759 C   0  0  0  0  0  0  0  0  0  0  0  0
    7.6967  -17.6517   20.1064 C   0  0  0  0  0  0  0  0  0  0  0  0
    6.5873  -16.9126   20.7178 C   0  0  0  0  0  0  0  0  0  0  0  0
    6.9833  -15.4603   20.8147 C   0  0  2  0  0  0  0  0  0  0  0  0
    7.6658  -14.9830   19.6577 N   0  0  0  0  0  0  0  0  0  0  0  0
    7.7826  -15.2504   22.0706 C   0  0  0  0  0  0  0  0  0  0  0  0
    9.0262  -15.0749   21.9747 O   0  0  0  0  0  0  0  0  0  0  0  0
    7.8218  -17.7013   18.7424 C   0  0  0  0  0  0  0  0  0  0  0  0
    8.8558  -18.3873   18.1225 C   0  0  0  0  0  0  0  0  0  0  0  0
    6.7173  -10.2949   26.9380 C   0  0  0  0  0  0  0  0  0  0  0  0
    7.4935  -11.9023   26.8872 S   0  0  0  0  0  0  0  0  0  0  0  0
    7.1164  -12.8298   25.3908 C   0  0  0  0  0  0  0  0  0  0  0  0
    7.1985  -14.2918   25.5129 C   0  0  0  0  0  0  0  0  0  0  0  0
    8.0187  -15.0842   24.5881 C   0  0  2  0  0  0  0  0  0  0  0  0
    7.2114  -15.2401   23.3476 N   0  0  0  0  0  0  0  0  0  0  0  0
    8.5726  -16.3545   25.0079 C   0  0  0  0  0  0  0  0  0  0  0  0
    7.9582  -17.3946   25.2974 O   0  0  0  0  0  0  0  0  0  0  0  0
   10.0049  -16.4563   25.1129 N   0  0  0  0  0  0  0  0  0  0  0  0
   10.6337  -17.7221   25.5348 C   0  0  1  0  0  0  0  0  0  0  0  0
   11.9967  -17.7598   24.8567 C   0  0  0  0  0  0  0  0  0  0  0  0
   11.9386  -17.8791   23.3779 C   0  0  0  0  0  0  0  0  0  0  0  0
   13.3191  -17.7735   22.7890 C   0  0  0  0  0  0  0  0  0  0  0  0
   13.3087  -17.8766   21.2985 C   0  0  0  0  0  0  0  0  0  0  0  0
   14.6761  -17.7974   20.7841 N   0  0  0  0  0  0  0  0  0  0  0  0
   10.7950  -17.7337   27.0051 C   0  0  0  0  0  0  0  0  0  0  0  0
   11.1859  -18.9057   27.6434 O   0  0  0  0  0  0  0  0  0  0  0  0
   10.6017  -16.7422   27.7435 O   0  0  0  0  0  0  0  0  0  0  0  0
  2  1  1  0
  3  2  2  0
  4  3  1  0
  5  4  2  0
  5 11  1  0
  6  7  1  0
  6  5  1  0
  7  8  1  6
  9  7  1  0
 10  9  2  0
 11 12  2  0
 12  2  1  0
 14 13  1  0
 14 15  1  0
 16 15  1  0
 17 16  1  1
 17 18  1  0
 18  9  1  0
 19 21  1  0
 19 17  1  0
 20 19  2  0
 22 21  1  0
 22 28  1  0
 22 23  1  6
 24 25  1  0
 24 23  1  0
 25 26  1  0
 27 26  1  0
 28 29  1  0
 30 28  2  0
M  END
$$$$
