VEQ.pdb
     RDKit          3D

 26 25  0  0  1  0  0  0  0  0999 V2000
    9.1792  -12.6253   20.4833 C   0  0  0  0  0  0  0  0  0  0  0  0
    8.1542  -13.3908   19.6830 C   0  0  1  0  0  0  0  0  0  0  0  0
    7.4725  -12.3915   18.7433 C   0  0  0  0  0  0  0  0  0  0  0  0
    8.7488  -14.4893   18.8479 C   0  0  2  0  0  0  0  0  0  0  0  0
    7.6459  -15.0890   18.1059 N   0  0  0  0  0  0  0  0  0  0  0  0
    9.3140  -15.5418   19.7331 C   0  0  0  0  0  0  0  0  0  0  0  0
    8.5608  -16.3637   20.3514 O   0  0  0  0  0  0  0  0  0  0  0  0
   10.6979  -15.6882   19.9360 N   0  0  0  0  0  0  0  0  0  0  0  0
   11.2517  -16.7674   20.7830 C   0  0  1  0  0  0  0  0  0  0  0  0
   12.6264  -17.0447   20.2219 C   0  0  0  0  0  0  0  0  0  0  0  0
   12.6364  -17.7912   18.9476 C   0  0  0  0  0  0  0  0  0  0  0  0
   13.9723  -18.1003   18.4127 C   0  0  0  0  0  0  0  0  0  0  0  0
   14.1774  -18.2994   17.1952 O   0  0  0  0  0  0  0  0  0  0  0  0
   11.2719  -16.3045   22.1925 C   0  0  0  0  0  0  0  0  0  0  0  0
   12.0514  -15.3366   22.4695 O   0  0  0  0  0  0  0  0  0  0  0  0
   15.0713  -18.1838   19.2543 O   0  0  0  0  0  0  0  0  0  0  0  0
    7.2057  -13.7731   25.4969 N   0  0  0  0  0  0  0  0  0  0  0  0
    6.9953  -15.1362   25.1223 C   0  0  0  0  0  0  0  0  0  0  0  0
    5.7882  -15.5000   25.1067 O   0  0  0  0  0  0  0  0  0  0  0  0
    8.1159  -16.0261   24.7858 C   0  0  0  0  0  0  0  0  0  0  0  0
    9.4655  -15.4140   24.8306 C   0  0  0  0  0  0  0  0  0  0  0  0
   10.6214  -16.2895   24.5699 C   0  0  2  0  0  0  0  0  0  0  0  0
   10.4870  -16.8646   23.2227 N   0  0  0  0  0  0  0  0  0  0  0  0
   10.8962  -17.3410   25.5453 C   0  0  0  0  0  0  0  0  0  0  0  0
   10.9235  -18.6931   25.2587 O   0  0  0  0  0  0  0  0  0  0  0  0
   11.1291  -17.0299   26.7413 O   0  0  0  0  0  0  0  0  0  0  0  0
  2  4  1  0
  2  1  1  6
  3  2  1  0
  4  6  1  0
  4  5  1  6
  6  7  2  0
  8  9  1  0
  8  6  1  0
  9 10  1  6
 11 10  1  0
 12 11  1  0
 12 13  2  0
 14 23  1  0
 14  9  1  0
 15 14  2  0
 16 12  1  0
 17 18  1  0
 18 19  2  0
 18 20  1  0
 20 21  1  0
 22 21  1  1
 22 23  1  0
 22 24  1  0
 24 25  1  0
 26 24  2  0
M  END
$$$$
