VEQ.pdb
     RDKit          3D

 26 25  0  0  1  0  0  0  0  0999 V2000
    8.6154  -12.7224   20.8582 C   0  0  0  0  0  0  0  0  0  0  0  0
    7.8640  -13.5486   19.8434 C   0  0  1  0  0  0  0  0  0  0  0  0
    7.6465  -12.6662   18.6103 C   0  0  0  0  0  0  0  0  0  0  0  0
    8.6053  -14.7825   19.4123 C   0  0  2  0  0  0  0  0  0  0  0  0
    7.7655  -15.4455   18.4216 N   0  0  0  0  0  0  0  0  0  0  0  0
    8.7490  -15.7094   20.5660 C   0  0  0  0  0  0  0  0  0  0  0  0
    7.7916  -16.4677   20.9312 O   0  0  0  0  0  0  0  0  0  0  0  0
    9.9378  -15.8007   21.3118 N   0  0  0  0  0  0  0  0  0  0  0  0
   10.0741  -16.7360   22.4499 C   0  0  1  0  0  0  0  0  0  0  0  0
   11.4280  -17.3816   22.2716 C   0  0  0  0  0  0  0  0  0  0  0  0
   11.4846  -18.4234   21.2263 C   0  0  0  0  0  0  0  0  0  0  0  0
   12.7017  -19.2510   21.2314 C   0  0  0  0  0  0  0  0  0  0  0  0
   13.8407  -18.7695   21.0449 O   0  0  0  0  0  0  0  0  0  0  0  0
    9.9474  -15.9701   23.7144 C   0  0  0  0  0  0  0  0  0  0  0  0
   11.0038  -15.4164   24.1604 O   0  0  0  0  0  0  0  0  0  0  0  0
   12.6282  -20.6189   21.4469 O   0  0  0  0  0  0  0  0  0  0  0  0
    5.5766  -12.2411   25.6249 N   0  0  0  0  0  0  0  0  0  0  0  0
    6.3994  -12.3548   26.7881 C   0  0  0  0  0  0  0  0  0  0  0  0
    6.3579  -11.3620   27.5641 O   0  0  0  0  0  0  0  0  0  0  0  0
    7.2220  -13.5472   27.0382 C   0  0  0  0  0  0  0  0  0  0  0  0
    7.4114  -14.4577   25.8836 C   0  0  0  0  0  0  0  0  0  0  0  0
    8.7690  -14.9734   25.6361 C   0  0  2  0  0  0  0  0  0  0  0  0
    8.7431  -15.8210   24.4343 N   0  0  0  0  0  0  0  0  0  0  0  0
    9.4287  -15.6721   26.7357 C   0  0  0  0  0  0  0  0  0  0  0  0
   10.1343  -15.0536   27.7509 O   0  0  0  0  0  0  0  0  0  0  0  0
    9.3710  -16.9269   26.7946 O   0  0  0  0  0  0  0  0  0  0  0  0
  2  4  1  0
  2  1  1  1
  3  2  1  0
  4  6  1  0
  4  5  1  6
  6  7  2  0
  8  9  1  0
  8  6  1  0
  9 10  1  1
 11 10  1  0
 12 11  1  0
 12 13  2  0
 14 23  1  0
 14  9  1  0
 15 14  2  0
 16 12  1  0
 17 18  1  0
 18 19  2  0
 18 20  1  0
 20 21  1  0
 22 21  1  1
 22 23  1  0
 22 24  1  0
 24 25  1  0
 26 24  2  0
M  END
$$$$
