VEQ.pdb
     RDKit          3D

 26 25  0  0  1  0  0  0  0  0999 V2000
    7.4586  -12.4207   19.6955 C   0  0  0  0  0  0  0  0  0  0  0  0
    8.1107  -13.4076   20.6326 C   0  0  1  0  0  0  0  0  0  0  0  0
    7.3201  -13.3793   21.9443 C   0  0  0  0  0  0  0  0  0  0  0  0
    8.1053  -14.8171   20.1120 C   0  0  2  0  0  0  0  0  0  0  0  0
    6.7058  -15.1963   19.9571 N   0  0  0  0  0  0  0  0  0  0  0  0
    8.7037  -15.7273   21.1241 C   0  0  0  0  0  0  0  0  0  0  0  0
    7.9893  -16.2820   22.0224 O   0  0  0  0  0  0  0  0  0  0  0  0
   10.0781  -16.0245   21.1468 N   0  0  0  0  0  0  0  0  0  0  0  0
   10.6495  -16.9978   22.1034 C   0  0  1  0  0  0  0  0  0  0  0  0
   11.4438  -17.9645   21.2572 C   0  0  0  0  0  0  0  0  0  0  0  0
   12.1538  -19.0136   22.0165 C   0  0  0  0  0  0  0  0  0  0  0  0
   13.0202  -19.8912   21.2131 C   0  0  0  0  0  0  0  0  0  0  0  0
   14.2208  -19.6237   20.9876 O   0  0  0  0  0  0  0  0  0  0  0  0
   11.4753  -16.2642   23.0940 C   0  0  0  0  0  0  0  0  0  0  0  0
   12.2243  -15.3373   22.6455 O   0  0  0  0  0  0  0  0  0  0  0  0
   12.5278  -21.0670   20.6673 O   0  0  0  0  0  0  0  0  0  0  0  0
   10.1424  -15.2853   29.0445 N   0  0  0  0  0  0  0  0  0  0  0  0
   10.0854  -14.2399   28.0714 C   0  0  0  0  0  0  0  0  0  0  0  0
    9.3579  -13.2605   28.3896 O   0  0  0  0  0  0  0  0  0  0  0  0
   10.8266  -14.3231   26.8047 C   0  0  0  0  0  0  0  0  0  0  0  0
   11.6925  -15.5148   26.6376 C   0  0  0  0  0  0  0  0  0  0  0  0
   12.3461  -15.7063   25.3313 C   0  0  2  0  0  0  0  0  0  0  0  0
   11.4735  -16.5292   24.4799 N   0  0  0  0  0  0  0  0  0  0  0  0
   13.7038  -16.2442   25.3363 C   0  0  0  0  0  0  0  0  0  0  0  0
   14.0600  -17.4869   24.8464 O   0  0  0  0  0  0  0  0  0  0  0  0
   14.6409  -15.5543   25.8129 O   0  0  0  0  0  0  0  0  0  0  0  0
  2  4  1  0
  2  1  1  6
  3  2  1  0
  4  6  1  0
  4  5  1  1
  6  7  2  0
  8  9  1  0
  8  6  1  0
  9 10  1  6
 11 10  1  0
 12 11  1  0
 12 13  2  0
 14 23  1  0
 14  9  1  0
 15 14  2  0
 16 12  1  0
 17 18  1  0
 18 19  2  0
 18 20  1  0
 20 21  1  0
 22 21  1  1
 22 23  1  0
 22 24  1  0
 24 25  1  0
 26 24  2  0
M  END
$$$$
