VEQ.pdb
     RDKit          3D

 26 25  0  0  1  0  0  0  0  0999 V2000
    7.7388  -12.3879   18.3966 C   0  0  0  0  0  0  0  0  0  0  0  0
    8.5459  -13.3808   19.1966 C   0  0  1  0  0  0  0  0  0  0  0  0
    7.9821  -13.3821   20.6209 C   0  0  0  0  0  0  0  0  0  0  0  0
    8.4683  -14.7822   18.6602 C   0  0  2  0  0  0  0  0  0  0  0  0
    7.0585  -15.1546   18.6763 N   0  0  0  0  0  0  0  0  0  0  0  0
    9.1840  -15.7096   19.5759 C   0  0  0  0  0  0  0  0  0  0  0  0
    8.6064  -16.2137   20.5944 O   0  0  0  0  0  0  0  0  0  0  0  0
   10.5256  -16.0791   19.3718 N   0  0  0  0  0  0  0  0  0  0  0  0
   11.1955  -17.0852   20.2249 C   0  0  1  0  0  0  0  0  0  0  0  0
   12.4133  -17.5186   19.4436 C   0  0  0  0  0  0  0  0  0  0  0  0
   13.2862  -18.4838   20.1419 C   0  0  0  0  0  0  0  0  0  0  0  0
   14.4776  -18.9096   19.3899 C   0  0  0  0  0  0  0  0  0  0  0  0
   15.6269  -18.5029   19.6684 O   0  0  0  0  0  0  0  0  0  0  0  0
   11.5231  -16.4610   21.5305 C   0  0  0  0  0  0  0  0  0  0  0  0
   11.5353  -15.1885   21.5733 O   0  0  0  0  0  0  0  0  0  0  0  0
   14.3668  -19.7927   18.3265 O   0  0  0  0  0  0  0  0  0  0  0  0
    7.3358  -15.1054   23.6528 N   0  0  0  0  0  0  0  0  0  0  0  0
    8.0246  -15.0029   24.9010 C   0  0  0  0  0  0  0  0  0  0  0  0
    7.3821  -14.4152   25.8128 O   0  0  0  0  0  0  0  0  0  0  0  0
    9.3776  -15.5482   25.0831 C   0  0  0  0  0  0  0  0  0  0  0  0
   10.0066  -16.1373   23.8767 C   0  0  0  0  0  0  0  0  0  0  0  0
   11.4026  -16.5945   23.9887 C   0  0  2  0  0  0  0  0  0  0  0  0
   11.8127  -17.1859   22.7059 N   0  0  0  0  0  0  0  0  0  0  0  0
   11.7229  -17.4987   25.0898 C   0  0  0  0  0  0  0  0  0  0  0  0
   12.1189  -18.8145   24.9382 O   0  0  0  0  0  0  0  0  0  0  0  0
   11.6435  -17.0837   26.2742 O   0  0  0  0  0  0  0  0  0  0  0  0
  2  4  1  0
  2  1  1  6
  3  2  1  0
  4  6  1  0
  4  5  1  1
  6  7  2  0
  8  9  1  0
  8  6  1  0
  9 10  1  6
 11 10  1  0
 12 11  1  0
 12 13  2  0
 14 23  1  0
 14  9  1  0
 15 14  2  0
 16 12  1  0
 17 18  1  0
 18 19  2  0
 18 20  1  0
 20 21  1  0
 22 21  1  6
 22 23  1  0
 22 24  1  0
 24 25  1  0
 26 24  2  0
M  END
$$$$
