VEQ.pdb
     RDKit          3D

 26 25  0  0  1  0  0  0  0  0999 V2000
    8.0630  -12.1354   19.0816 C   0  0  0  0  0  0  0  0  0  0  0  0
    8.4785  -13.1510   20.1176 C   0  0  1  0  0  0  0  0  0  0  0  0
    7.3878  -13.1755   21.1929 C   0  0  0  0  0  0  0  0  0  0  0  0
    8.6240  -14.5408   19.5653 C   0  0  2  0  0  0  0  0  0  0  0  0
    7.3328  -14.8941   18.9870 N   0  0  0  0  0  0  0  0  0  0  0  0
    8.8913  -15.4950   20.6737 C   0  0  0  0  0  0  0  0  0  0  0  0
    7.9466  -15.9562   21.3947 O   0  0  0  0  0  0  0  0  0  0  0  0
   10.1891  -15.9382   20.9859 N   0  0  0  0  0  0  0  0  0  0  0  0
   10.4400  -16.9139   22.0693 C   0  0  1  0  0  0  0  0  0  0  0  0
   11.7853  -17.5220   21.7502 C   0  0  0  0  0  0  0  0  0  0  0  0
   12.2691  -18.5083   22.7373 C   0  0  0  0  0  0  0  0  0  0  0  0
   13.5998  -19.0724   22.4594 C   0  0  0  0  0  0  0  0  0  0  0  0
   13.8067  -20.3043   22.4002 O   0  0  0  0  0  0  0  0  0  0  0  0
   10.4082  -16.2008   23.3701 C   0  0  0  0  0  0  0  0  0  0  0  0
   11.1221  -15.1510   23.4687 O   0  0  0  0  0  0  0  0  0  0  0  0
   14.6916  -18.2436   22.2496 O   0  0  0  0  0  0  0  0  0  0  0  0
    6.1390  -13.1736   25.5978 N   0  0  0  0  0  0  0  0  0  0  0  0
    7.1193  -13.0096   26.6249 C   0  0  0  0  0  0  0  0  0  0  0  0
    6.9097  -12.0427   27.4064 O   0  0  0  0  0  0  0  0  0  0  0  0
    8.2744  -13.9115   26.7406 C   0  0  0  0  0  0  0  0  0  0  0  0
    8.4679  -14.8636   25.6207 C   0  0  0  0  0  0  0  0  0  0  0  0
    9.6475  -15.7448   25.6697 C   0  0  2  0  0  0  0  0  0  0  0  0
    9.6421  -16.6117   24.4815 N   0  0  0  0  0  0  0  0  0  0  0  0
    9.8358  -16.5420   26.8787 C   0  0  0  0  0  0  0  0  0  0  0  0
    9.9636  -17.9183   26.9021 O   0  0  0  0  0  0  0  0  0  0  0  0
    9.8902  -15.9679   27.9961 O   0  0  0  0  0  0  0  0  0  0  0  0
  2  4  1  0
  2  1  1  6
  3  2  1  0
  4  6  1  0
  4  5  1  1
  6  7  2  0
  8  9  1  0
  8  6  1  0
  9 10  1  6
 11 10  1  0
 12 11  1  0
 12 13  2  0
 14 23  1  0
 14  9  1  0
 15 14  2  0
 16 12  1  0
 17 18  1  0
 18 19  2  0
 18 20  1  0
 20 21  1  0
 22 21  1  1
 22 23  1  0
 22 24  1  0
 24 25  1  0
 26 24  2  0
M  END
$$$$
