VEQ.pdb
     RDKit          3D

 26 25  0  0  1  0  0  0  0  0999 V2000
    7.3511  -12.0546   19.3096 C   0  0  0  0  0  0  0  0  0  0  0  0
    8.5983  -12.8379   19.6384 C   0  0  1  0  0  0  0  0  0  0  0  0
    8.2864  -13.6928   20.8706 C   0  0  0  0  0  0  0  0  0  0  0  0
    9.0365  -13.7538   18.5308 C   0  0  2  0  0  0  0  0  0  0  0  0
    7.8819  -14.5784   18.1939 N   0  0  0  0  0  0  0  0  0  0  0  0
   10.1038  -14.6632   19.0252 C   0  0  0  0  0  0  0  0  0  0  0  0
    9.8507  -15.8705   19.3466 O   0  0  0  0  0  0  0  0  0  0  0  0
   11.4398  -14.2464   19.1647 N   0  0  0  0  0  0  0  0  0  0  0  0
   12.5407  -15.2133   19.3688 C   0  0  1  0  0  0  0  0  0  0  0  0
   13.5927  -14.8353   18.3530 C   0  0  0  0  0  0  0  0  0  0  0  0
   14.9836  -14.9110   18.8440 C   0  0  0  0  0  0  0  0  0  0  0  0
   16.0180  -14.5819   17.8500 C   0  0  0  0  0  0  0  0  0  0  0  0
   15.7514  -14.3903   16.6434 O   0  0  0  0  0  0  0  0  0  0  0  0
   13.0115  -15.1105   20.7722 C   0  0  0  0  0  0  0  0  0  0  0  0
   13.4766  -13.9844   21.1423 O   0  0  0  0  0  0  0  0  0  0  0  0
   17.3491  -14.4705   18.2223 O   0  0  0  0  0  0  0  0  0  0  0  0
   11.4384  -18.4500   25.8941 N   0  0  0  0  0  0  0  0  0  0  0  0
   11.0164  -18.4309   24.5286 C   0  0  0  0  0  0  0  0  0  0  0  0
   10.0426  -19.1873   24.2655 O   0  0  0  0  0  0  0  0  0  0  0  0
   11.6824  -17.5863   23.5266 C   0  0  0  0  0  0  0  0  0  0  0  0
   12.8489  -16.8078   24.0074 C   0  0  0  0  0  0  0  0  0  0  0  0
   13.5233  -15.9220   23.0425 C   0  0  2  0  0  0  0  0  0  0  0  0
   12.9696  -16.1704   21.7027 N   0  0  0  0  0  0  0  0  0  0  0  0
   14.9826  -15.9642   23.0042 C   0  0  0  0  0  0  0  0  0  0  0  0
   15.8089  -15.5751   24.0420 O   0  0  0  0  0  0  0  0  0  0  0  0
   15.5626  -16.3789   21.9684 O   0  0  0  0  0  0  0  0  0  0  0  0
  2  4  1  0
  2  1  1  6
  3  2  1  0
  4  6  1  0
  4  5  1  1
  6  7  2  0
  8  9  1  0
  8  6  1  0
  9 10  1  6
 11 10  1  0
 12 11  1  0
 12 13  2  0
 14 23  1  0
 14  9  1  0
 15 14  2  0
 16 12  1  0
 17 18  1  0
 18 19  2  0
 18 20  1  0
 20 21  1  0
 22 21  1  1
 22 23  1  0
 22 24  1  0
 24 25  1  0
 26 24  2  0
M  END
$$$$
