VEQ.pdb
     RDKit          3D

 26 25  0  0  1  0  0  0  0  0999 V2000
    7.2267  -11.7839   19.0704 C   0  0  0  0  0  0  0  0  0  0  0  0
    8.3542  -12.7048   19.4678 C   0  0  1  0  0  0  0  0  0  0  0  0
    7.8356  -13.5956   20.6009 C   0  0  0  0  0  0  0  0  0  0  0  0
    8.8211  -13.5929   18.3492 C   0  0  2  0  0  0  0  0  0  0  0  0
    7.6748  -14.4059   17.9598 N   0  0  0  0  0  0  0  0  0  0  0  0
    9.8731  -14.5171   18.8489 C   0  0  0  0  0  0  0  0  0  0  0  0
    9.5793  -15.6656   19.3177 O   0  0  0  0  0  0  0  0  0  0  0  0
   11.2382  -14.1794   18.8326 N   0  0  0  0  0  0  0  0  0  0  0  0
   12.2782  -15.1135   19.3169 C   0  0  1  0  0  0  0  0  0  0  0  0
   13.5768  -14.5865   18.7534 C   0  0  0  0  0  0  0  0  0  0  0  0
   14.7872  -15.2886   19.2258 C   0  0  0  0  0  0  0  0  0  0  0  0
   16.0584  -14.7772   18.6884 C   0  0  0  0  0  0  0  0  0  0  0  0
   16.8789  -14.1481   19.3918 O   0  0  0  0  0  0  0  0  0  0  0  0
   12.2448  -15.1371   20.8001 C   0  0  0  0  0  0  0  0  0  0  0  0
   12.5070  -14.0445   21.3992 O   0  0  0  0  0  0  0  0  0  0  0  0
   16.3980  -14.9778   17.3590 O   0  0  0  0  0  0  0  0  0  0  0  0
    7.7695  -17.1705   24.2227 N   0  0  0  0  0  0  0  0  0  0  0  0
    8.7255  -16.7978   25.2177 C   0  0  0  0  0  0  0  0  0  0  0  0
    8.2880  -16.8045   26.4001 O   0  0  0  0  0  0  0  0  0  0  0  0
   10.1065  -16.4381   24.8649 C   0  0  0  0  0  0  0  0  0  0  0  0
   10.4279  -16.4432   23.4176 C   0  0  0  0  0  0  0  0  0  0  0  0
   11.8071  -16.1071   23.0232 C   0  0  2  0  0  0  0  0  0  0  0  0
   11.9404  -16.2805   21.5687 N   0  0  0  0  0  0  0  0  0  0  0  0
   12.8882  -16.8006   23.7181 C   0  0  0  0  0  0  0  0  0  0  0  0
   13.3309  -16.4927   24.9910 O   0  0  0  0  0  0  0  0  0  0  0  0
   13.4811  -17.7513   23.1472 O   0  0  0  0  0  0  0  0  0  0  0  0
  2  4  1  0
  2  1  1  6
  3  2  1  0
  4  6  1  0
  4  5  1  1
  6  7  2  0
  8  9  1  0
  8  6  1  0
  9 10  1  1
 11 10  1  0
 12 11  1  0
 12 13  2  0
 14 23  1  0
 14  9  1  0
 15 14  2  0
 16 12  1  0
 17 18  1  0
 18 19  2  0
 18 20  1  0
 20 21  1  0
 22 21  1  1
 22 23  1  0
 22 24  1  0
 24 25  1  0
 26 24  2  0
M  END
$$$$
