VEQ.pdb
     RDKit          3D

 26 25  0  0  1  0  0  0  0  0999 V2000
    8.0536  -12.2018   19.1956 C   0  0  0  0  0  0  0  0  0  0  0  0
    8.3905  -13.2705   20.2063 C   0  0  1  0  0  0  0  0  0  0  0  0
    7.2870  -13.2554   21.2686 C   0  0  0  0  0  0  0  0  0  0  0  0
    8.4542  -14.6507   19.6158 C   0  0  2  0  0  0  0  0  0  0  0  0
    7.1552  -14.8989   19.0014 N   0  0  0  0  0  0  0  0  0  0  0  0
    8.6322  -15.6521   20.7004 C   0  0  0  0  0  0  0  0  0  0  0  0
    7.6316  -16.1593   21.3059 O   0  0  0  0  0  0  0  0  0  0  0  0
    9.9021  -16.0916   21.1151 N   0  0  0  0  0  0  0  0  0  0  0  0
   10.0681  -17.0760   22.2069 C   0  0  1  0  0  0  0  0  0  0  0  0
   11.2911  -17.8795   21.8325 C   0  0  0  0  0  0  0  0  0  0  0  0
   11.1292  -18.7346   20.6393 C   0  0  0  0  0  0  0  0  0  0  0  0
   10.8465  -20.1520   20.9174 C   0  0  0  0  0  0  0  0  0  0  0  0
   11.0960  -20.6809   22.0228 O   0  0  0  0  0  0  0  0  0  0  0  0
   10.2121  -16.3452   23.4901 C   0  0  0  0  0  0  0  0  0  0  0  0
   11.1035  -15.4373   23.5387 O   0  0  0  0  0  0  0  0  0  0  0  0
   10.2836  -20.9666   19.9466 O   0  0  0  0  0  0  0  0  0  0  0  0
    5.7718  -13.3275   25.7221 N   0  0  0  0  0  0  0  0  0  0  0  0
    6.7787  -13.0344   26.6933 C   0  0  0  0  0  0  0  0  0  0  0  0
    6.4809  -12.1146   27.5026 O   0  0  0  0  0  0  0  0  0  0  0  0
    8.0551  -13.7628   26.7259 C   0  0  0  0  0  0  0  0  0  0  0  0
    8.2411  -14.7915   25.6746 C   0  0  0  0  0  0  0  0  0  0  0  0
    9.4725  -15.5992   25.7198 C   0  0  2  0  0  0  0  0  0  0  0  0
    9.4281  -16.5934   24.6367 N   0  0  0  0  0  0  0  0  0  0  0  0
    9.8017  -16.2445   26.9878 C   0  0  0  0  0  0  0  0  0  0  0  0
    9.2742  -17.4473   27.4192 O   0  0  0  0  0  0  0  0  0  0  0  0
   10.6203  -15.6943   27.7678 O   0  0  0  0  0  0  0  0  0  0  0  0
  2  4  1  0
  2  1  1  6
  3  2  1  0
  4  6  1  0
  4  5  1  1
  6  7  2  0
  8  9  1  0
  8  6  1  0
  9 10  1  6
 11 10  1  0
 12 11  1  0
 12 13  2  0
 14 23  1  0
 14  9  1  0
 15 14  2  0
 16 12  1  0
 17 18  1  0
 18 19  2  0
 18 20  1  0
 20 21  1  0
 22 21  1  1
 22 23  1  0
 22 24  1  0
 24 25  1  0
 26 24  2  0
M  END
$$$$
