VEQ.pdb
     RDKit          3D

 26 25  0  0  1  0  0  0  0  0999 V2000
    8.5307  -12.5182   21.3394 C   0  0  0  0  0  0  0  0  0  0  0  0
    7.5305  -13.2994   20.5230 C   0  0  1  0  0  0  0  0  0  0  0  0
    7.0871  -12.3997   19.3652 C   0  0  0  0  0  0  0  0  0  0  0  0
    8.0934  -14.5663   19.9435 C   0  0  2  0  0  0  0  0  0  0  0  0
    7.0147  -15.1908   19.1866 N   0  0  0  0  0  0  0  0  0  0  0  0
    8.4641  -15.4980   21.0413 C   0  0  0  0  0  0  0  0  0  0  0  0
    7.5791  -16.1570   21.6797 O   0  0  0  0  0  0  0  0  0  0  0  0
    9.7992  -15.7027   21.4332 N   0  0  0  0  0  0  0  0  0  0  0  0
   10.1628  -16.6826   22.4802 C   0  0  1  0  0  0  0  0  0  0  0  0
   11.4260  -17.3439   21.9817 C   0  0  0  0  0  0  0  0  0  0  0  0
   12.0335  -18.3073   22.9219 C   0  0  0  0  0  0  0  0  0  0  0  0
   13.2728  -18.9464   22.4509 C   0  0  0  0  0  0  0  0  0  0  0  0
   13.4663  -19.2287   21.2481 O   0  0  0  0  0  0  0  0  0  0  0  0
   10.3410  -15.9631   23.7656 C   0  0  0  0  0  0  0  0  0  0  0  0
   10.7302  -14.7526   23.6985 O   0  0  0  0  0  0  0  0  0  0  0  0
   14.2886  -19.2647   23.3396 O   0  0  0  0  0  0  0  0  0  0  0  0
    6.2979  -13.2438   25.3775 N   0  0  0  0  0  0  0  0  0  0  0  0
    7.1649  -12.8922   26.4580 C   0  0  0  0  0  0  0  0  0  0  0  0
    6.8535  -11.8300   27.0616 O   0  0  0  0  0  0  0  0  0  0  0  0
    8.3243  -13.7210   26.8185 C   0  0  0  0  0  0  0  0  0  0  0  0
    8.7448  -14.7214   25.8084 C   0  0  0  0  0  0  0  0  0  0  0  0
    9.8607  -15.6175   26.1582 C   0  0  2  0  0  0  0  0  0  0  0  0
   10.1038  -16.5341   25.0339 N   0  0  0  0  0  0  0  0  0  0  0  0
    9.7502  -16.3653   27.4077 C   0  0  0  0  0  0  0  0  0  0  0  0
    9.9830  -15.8377   28.6641 O   0  0  0  0  0  0  0  0  0  0  0  0
    9.4215  -17.5786   27.3756 O   0  0  0  0  0  0  0  0  0  0  0  0
  2  4  1  0
  2  1  1  6
  3  2  1  0
  4  6  1  0
  4  5  1  6
  6  7  2  0
  8  9  1  0
  8  6  1  0
  9 10  1  6
 11 10  1  0
 12 11  1  0
 12 13  2  0
 14 23  1  0
 14  9  1  0
 15 14  2  0
 16 12  1  0
 17 18  1  0
 18 19  2  0
 18 20  1  0
 20 21  1  0
 22 21  1  6
 22 23  1  0
 22 24  1  0
 24 25  1  0
 26 24  2  0
M  END
$$$$
