VEQ.pdb
     RDKit          3D

 26 25  0  0  1  0  0  0  0  0999 V2000
    6.0224  -10.7634   25.4190 C   0  0  0  0  0  0  0  0  0  0  0  0
    6.9247  -11.9393   25.1356 C   0  0  1  0  0  0  0  0  0  0  0  0
    8.0193  -11.9409   26.2071 C   0  0  0  0  0  0  0  0  0  0  0  0
    6.2144  -13.2623   25.1887 C   0  0  2  0  0  0  0  0  0  0  0  0
    5.7421  -13.4243   26.5588 N   0  0  0  0  0  0  0  0  0  0  0  0
    7.1795  -14.3604   24.9178 C   0  0  0  0  0  0  0  0  0  0  0  0
    7.7609  -14.9820   25.8669 O   0  0  0  0  0  0  0  0  0  0  0  0
    7.5020  -14.7710   23.6119 N   0  0  0  0  0  0  0  0  0  0  0  0
    8.3645  -15.9452   23.3546 C   0  0  1  0  0  0  0  0  0  0  0  0
    8.3521  -16.1241   21.8549 C   0  0  0  0  0  0  0  0  0  0  0  0
    9.2785  -17.1559   21.3464 C   0  0  0  0  0  0  0  0  0  0  0  0
    9.3236  -17.2908   19.8815 C   0  0  0  0  0  0  0  0  0  0  0  0
   10.1532  -16.6753   19.1768 O   0  0  0  0  0  0  0  0  0  0  0  0
    9.7154  -15.6744   23.9056 C   0  0  0  0  0  0  0  0  0  0  0  0
   10.0133  -14.4564   24.1270 O   0  0  0  0  0  0  0  0  0  0  0  0
    8.4317  -18.1198   19.2179 O   0  0  0  0  0  0  0  0  0  0  0  0
   11.0763  -15.4383   30.2824 N   0  0  0  0  0  0  0  0  0  0  0  0
   10.5355  -15.7644   29.0002 C   0  0  0  0  0  0  0  0  0  0  0  0
    9.2760  -15.7909   28.9488 O   0  0  0  0  0  0  0  0  0  0  0  0
   11.4014  -16.0438   27.8456 C   0  0  0  0  0  0  0  0  0  0  0  0
   10.7139  -16.1890   26.5402 C   0  0  0  0  0  0  0  0  0  0  0  0
   11.5473  -16.4591   25.3558 C   0  0  2  0  0  0  0  0  0  0  0  0
   10.6686  -16.6734   24.1958 N   0  0  0  0  0  0  0  0  0  0  0  0
   12.5241  -17.5399   25.4589 C   0  0  0  0  0  0  0  0  0  0  0  0
   12.2187  -18.8863   25.3886 O   0  0  0  0  0  0  0  0  0  0  0  0
   13.7393  -17.2618   25.6239 O   0  0  0  0  0  0  0  0  0  0  0  0
  2  4  1  0
  2  1  1  1
  3  2  1  0
  4  6  1  0
  4  5  1  1
  6  7  2  0
  8  9  1  0
  8  6  1  0
  9 10  1  6
 11 10  1  0
 12 11  1  0
 12 13  2  0
 14 23  1  0
 14  9  1  0
 15 14  2  0
 16 12  1  0
 17 18  1  0
 18 19  2  0
 18 20  1  0
 20 21  1  0
 22 21  1  1
 22 23  1  0
 22 24  1  0
 24 25  1  0
 26 24  2  0
M  END
$$$$
