VEQ.pdb
     RDKit          3D

 26 25  0  0  1  0  0  0  0  0999 V2000
    9.0150  -12.5618   20.5055 C   0  0  0  0  0  0  0  0  0  0  0  0
    8.1235  -13.5297   19.7669 C   0  0  1  0  0  0  0  0  0  0  0  0
    6.8726  -12.7575   19.3363 C   0  0  0  0  0  0  0  0  0  0  0  0
    8.7629  -14.1100   18.5372 C   0  0  2  0  0  0  0  0  0  0  0  0
    7.7999  -15.0485   17.9731 N   0  0  0  0  0  0  0  0  0  0  0  0
    9.9708  -14.8879   18.9201 C   0  0  0  0  0  0  0  0  0  0  0  0
    9.8795  -16.0794   19.3641 O   0  0  0  0  0  0  0  0  0  0  0  0
   11.2693  -14.3580   18.8149 N   0  0  0  0  0  0  0  0  0  0  0  0
   12.4716  -15.1921   19.0325 C   0  0  1  0  0  0  0  0  0  0  0  0
   13.5537  -14.5527   18.1949 C   0  0  0  0  0  0  0  0  0  0  0  0
   14.9082  -15.1010   18.4090 C   0  0  0  0  0  0  0  0  0  0  0  0
   15.9770  -14.4522   17.6326 C   0  0  0  0  0  0  0  0  0  0  0  0
   16.7654  -13.6241   18.1390 O   0  0  0  0  0  0  0  0  0  0  0  0
   12.7822  -15.2115   20.4833 C   0  0  0  0  0  0  0  0  0  0  0  0
   12.8347  -14.0857   21.0759 O   0  0  0  0  0  0  0  0  0  0  0  0
   16.1514  -14.7406   16.2874 O   0  0  0  0  0  0  0  0  0  0  0  0
   12.9788  -19.7747   25.8840 N   0  0  0  0  0  0  0  0  0  0  0  0
   12.3249  -18.5442   25.5657 C   0  0  0  0  0  0  0  0  0  0  0  0
   11.1259  -18.4683   25.9483 O   0  0  0  0  0  0  0  0  0  0  0  0
   13.0176  -17.4653   24.8468 C   0  0  0  0  0  0  0  0  0  0  0  0
   12.7260  -17.3614   23.3969 C   0  0  0  0  0  0  0  0  0  0  0  0
   13.3237  -16.2349   22.6592 C   0  0  2  0  0  0  0  0  0  0  0  0
   13.0146  -16.3865   21.2292 N   0  0  0  0  0  0  0  0  0  0  0  0
   14.7522  -15.9965   22.8470 C   0  0  0  0  0  0  0  0  0  0  0  0
   15.3010  -15.2964   23.9052 O   0  0  0  0  0  0  0  0  0  0  0  0
   15.5705  -16.4463   22.0047 O   0  0  0  0  0  0  0  0  0  0  0  0
  2  4  1  0
  2  1  1  6
  3  2  1  0
  4  6  1  0
  4  5  1  1
  6  7  2  0
  8  9  1  0
  8  6  1  0
  9 10  1  6
 11 10  1  0
 12 11  1  0
 12 13  2  0
 14 23  1  0
 14  9  1  0
 15 14  2  0
 16 12  1  0
 17 18  1  0
 18 19  2  0
 18 20  1  0
 20 21  1  0
 22 21  1  1
 22 23  1  0
 22 24  1  0
 24 25  1  0
 26 24  2  0
M  END
$$$$
