VEQ.pdb
     RDKit          3D

 26 25  0  0  1  0  0  0  0  0999 V2000
    7.5594  -12.5255   18.7204 C   0  0  0  0  0  0  0  0  0  0  0  0
    7.6839  -13.6741   19.6911 C   0  0  1  0  0  0  0  0  0  0  0  0
    7.7064  -14.9652   18.8669 C   0  0  0  0  0  0  0  0  0  0  0  0
    8.9378  -13.6232   20.5174 C   0  0  2  0  0  0  0  0  0  0  0  0
   10.0490  -13.8385   19.5979 N   0  0  0  0  0  0  0  0  0  0  0  0
    8.9420  -14.7466   21.4914 C   0  0  0  0  0  0  0  0  0  0  0  0
    7.9934  -14.9026   22.3285 O   0  0  0  0  0  0  0  0  0  0  0  0
    9.9829  -15.6910   21.5433 N   0  0  0  0  0  0  0  0  0  0  0  0
    9.9397  -16.8489   22.4632 C   0  0  1  0  0  0  0  0  0  0  0  0
   10.8824  -17.8656   21.8641 C   0  0  0  0  0  0  0  0  0  0  0  0
   10.4059  -18.4909   20.6138 C   0  0  0  0  0  0  0  0  0  0  0  0
   11.3728  -19.3797   19.9493 C   0  0  0  0  0  0  0  0  0  0  0  0
   12.0357  -19.0223   18.9510 O   0  0  0  0  0  0  0  0  0  0  0  0
   10.3424  -16.3969   23.8179 C   0  0  0  0  0  0  0  0  0  0  0  0
   11.2616  -15.5181   23.8819 O   0  0  0  0  0  0  0  0  0  0  0  0
   11.5874  -20.6683   20.4145 O   0  0  0  0  0  0  0  0  0  0  0  0
    9.2800  -12.1456   27.0847 N   0  0  0  0  0  0  0  0  0  0  0  0
    8.2738  -13.0432   26.6107 C   0  0  0  0  0  0  0  0  0  0  0  0
    7.1669  -12.5024   26.3421 O   0  0  0  0  0  0  0  0  0  0  0  0
    8.5331  -14.4819   26.4567 C   0  0  0  0  0  0  0  0  0  0  0  0
    9.9563  -14.8722   26.3148 C   0  0  0  0  0  0  0  0  0  0  0  0
   10.2695  -16.3114   26.2801 C   0  0  2  0  0  0  0  0  0  0  0  0
    9.7713  -16.8752   25.0162 N   0  0  0  0  0  0  0  0  0  0  0  0
    9.8187  -17.1204   27.4092 C   0  0  0  0  0  0  0  0  0  0  0  0
   10.1688  -16.8962   28.7277 O   0  0  0  0  0  0  0  0  0  0  0  0
    9.0564  -18.0991   27.2038 O   0  0  0  0  0  0  0  0  0  0  0  0
  2  4  1  0
  2  1  1  6
  3  2  1  0
  4  6  1  0
  4  5  1  6
  6  7  2  0
  8  9  1  0
  8  6  1  0
  9 10  1  6
 11 10  1  0
 12 11  1  0
 12 13  2  0
 14 23  1  0
 14  9  1  0
 15 14  2  0
 16 12  1  0
 17 18  1  0
 18 19  2  0
 18 20  1  0
 20 21  1  0
 22 21  1  1
 22 23  1  0
 22 24  1  0
 24 25  1  0
 26 24  2  0
M  END
$$$$
