VEQ.pdb
     RDKit          3D

 26 25  0  0  1  0  0  0  0  0999 V2000
    7.9016  -11.9491   25.1213 C   0  0  0  0  0  0  0  0  0  0  0  0
    6.7940  -12.5874   25.9231 C   0  0  1  0  0  0  0  0  0  0  0  0
    5.8010  -11.4797   26.2885 C   0  0  0  0  0  0  0  0  0  0  0  0
    6.0507  -13.6538   25.1695 C   0  0  2  0  0  0  0  0  0  0  0  0
    5.0512  -14.1890   26.0866 N   0  0  0  0  0  0  0  0  0  0  0  0
    6.9786  -14.7634   24.8254 C   0  0  0  0  0  0  0  0  0  0  0  0
    7.3908  -15.5825   25.7110 O   0  0  0  0  0  0  0  0  0  0  0  0
    7.4489  -14.9697   23.5161 N   0  0  0  0  0  0  0  0  0  0  0  0
    8.4039  -16.0523   23.1925 C   0  0  1  0  0  0  0  0  0  0  0  0
    8.4645  -16.0884   21.6837 C   0  0  0  0  0  0  0  0  0  0  0  0
    9.4368  -17.0498   21.1255 C   0  0  0  0  0  0  0  0  0  0  0  0
    9.4679  -17.1284   19.6561 C   0  0  0  0  0  0  0  0  0  0  0  0
    9.3703  -18.2126   19.0406 O   0  0  0  0  0  0  0  0  0  0  0  0
    9.7084  -15.7433   23.8283 C   0  0  0  0  0  0  0  0  0  0  0  0
   10.1339  -14.5482   23.7180 O   0  0  0  0  0  0  0  0  0  0  0  0
    9.6091  -15.9828   18.8876 O   0  0  0  0  0  0  0  0  0  0  0  0
   11.4598  -14.6135   29.1728 N   0  0  0  0  0  0  0  0  0  0  0  0
   10.4409  -15.5495   28.8141 C   0  0  0  0  0  0  0  0  0  0  0  0
    9.7413  -15.9645   29.7774 O   0  0  0  0  0  0  0  0  0  0  0  0
   10.2435  -15.9801   27.4225 C   0  0  0  0  0  0  0  0  0  0  0  0
   11.1171  -15.3336   26.4140 C   0  0  0  0  0  0  0  0  0  0  0  0
   11.6272  -16.1715   25.3149 C   0  0  2  0  0  0  0  0  0  0  0  0
   10.4870  -16.6817   24.5384 N   0  0  0  0  0  0  0  0  0  0  0  0
   12.5282  -17.2643   25.6710 C   0  0  0  0  0  0  0  0  0  0  0  0
   12.2610  -18.6045   25.4626 O   0  0  0  0  0  0  0  0  0  0  0  0
   13.6353  -17.0035   26.2074 O   0  0  0  0  0  0  0  0  0  0  0  0
  2  4  1  0
  2  1  1  6
  3  2  1  0
  4  6  1  0
  4  5  1  1
  6  7  2  0
  8  9  1  0
  8  6  1  0
  9 10  1  6
 11 10  1  0
 12 11  1  0
 12 13  2  0
 14 23  1  0
 14  9  1  0
 15 14  2  0
 16 12  1  0
 17 18  1  0
 18 19  2  0
 18 20  1  0
 20 21  1  0
 22 21  1  1
 22 23  1  0
 22 24  1  0
 24 25  1  0
 26 24  2  0
M  END
$$$$
