VEQ.pdb
     RDKit          3D

 26 25  0  0  1  0  0  0  0  0999 V2000
    8.4044  -12.5248   20.5388 C   0  0  0  0  0  0  0  0  0  0  0  0
    7.6587  -13.5656   19.7401 C   0  0  1  0  0  0  0  0  0  0  0  0
    6.6047  -12.8299   18.9068 C   0  0  0  0  0  0  0  0  0  0  0  0
    8.5397  -14.3419   18.8026 C   0  0  2  0  0  0  0  0  0  0  0  0
    7.6749  -15.2915   18.1122 N   0  0  0  0  0  0  0  0  0  0  0  0
    9.5313  -15.1286   19.5827 C   0  0  0  0  0  0  0  0  0  0  0  0
    9.1848  -16.1584   20.2494 O   0  0  0  0  0  0  0  0  0  0  0  0
   10.8941  -14.7840   19.6284 N   0  0  0  0  0  0  0  0  0  0  0  0
   11.8454  -15.4830   20.5200 C   0  0  1  0  0  0  0  0  0  0  0  0
   13.2055  -14.9391   20.1517 C   0  0  0  0  0  0  0  0  0  0  0  0
   14.3257  -15.4812   20.9471 C   0  0  0  0  0  0  0  0  0  0  0  0
   15.6661  -15.0542   20.5145 C   0  0  0  0  0  0  0  0  0  0  0  0
   16.2948  -14.1372   21.0868 O   0  0  0  0  0  0  0  0  0  0  0  0
   11.4640  -15.2146   21.9286 C   0  0  0  0  0  0  0  0  0  0  0  0
   10.8271  -14.1359   22.1570 O   0  0  0  0  0  0  0  0  0  0  0  0
   16.2912  -15.6639   19.4372 O   0  0  0  0  0  0  0  0  0  0  0  0
    7.0580  -17.6603   24.5399 N   0  0  0  0  0  0  0  0  0  0  0  0
    7.1067  -16.2705   24.2098 C   0  0  0  0  0  0  0  0  0  0  0  0
    6.0542  -15.6277   24.4718 O   0  0  0  0  0  0  0  0  0  0  0  0
    8.3029  -15.6606   23.6114 C   0  0  0  0  0  0  0  0  0  0  0  0
    9.4464  -16.5740   23.3746 C   0  0  0  0  0  0  0  0  0  0  0  0
   10.7234  -16.2552   24.0366 C   0  0  2  0  0  0  0  0  0  0  0  0
   11.7591  -16.0742   23.0079 N   0  0  0  0  0  0  0  0  0  0  0  0
   11.1890  -17.1775   25.0687 C   0  0  0  0  0  0  0  0  0  0  0  0
   11.6562  -18.4564   24.8290 O   0  0  0  0  0  0  0  0  0  0  0  0
   11.1782  -16.8152   26.2728 O   0  0  0  0  0  0  0  0  0  0  0  0
  2  4  1  0
  2  1  1  6
  3  2  1  0
  4  6  1  0
  4  5  1  1
  6  7  2  0
  8  9  1  0
  8  6  1  0
  9 10  1  1
 11 10  1  0
 12 11  1  0
 12 13  2  0
 14 23  1  0
 14  9  1  0
 15 14  2  0
 16 12  1  0
 17 18  1  0
 18 19  2  0
 18 20  1  0
 20 21  1  0
 22 21  1  6
 22 23  1  0
 22 24  1  0
 24 25  1  0
 26 24  2  0
M  END
$$$$
