ALD.pdb
     RDKit          3D

 22 21  0  0  1  0  0  0  0  0999 V2000
    6.4638  -16.2418   20.7980 C   0  0  0  0  0  0  0  0  0  0  0  0
    6.8598  -14.8046   21.0509 C   0  0  2  0  0  0  0  0  0  0  0  0
    7.6579  -14.2864   19.9289 N   0  0  0  0  0  0  0  0  0  0  0  0
    7.6803  -14.6922   22.2737 C   0  0  0  0  0  0  0  0  0  0  0  0
    8.9266  -14.8207   22.2016 O   0  0  0  0  0  0  0  0  0  0  0  0
    5.8575  -11.8050   26.7767 C   0  0  0  0  0  0  0  0  0  0  0  0
    6.7235  -12.2905   25.6021 C   0  0  1  0  0  0  0  0  0  0  0  0
    8.0154  -11.4681   25.6806 C   0  0  0  0  0  0  0  0  0  0  0  0
    7.1323  -13.7087   25.8765 C   0  0  0  0  0  0  0  0  0  0  0  0
    7.8574  -14.3063   24.7642 C   0  0  2  0  0  0  0  0  0  0  0  0
    7.1173  -14.4440   23.5313 N   0  0  0  0  0  0  0  0  0  0  0  0
    8.3149  -15.6783   25.1134 C   0  0  0  0  0  0  0  0  0  0  0  0
    7.5884  -16.6982   25.1564 O   0  0  0  0  0  0  0  0  0  0  0  0
    9.6960  -15.9221   25.4389 N   0  0  0  0  0  0  0  0  0  0  0  0
   10.1481  -17.2862   25.6931 C   0  0  1  0  0  0  0  0  0  0  0  0
   11.3867  -17.4664   24.8705 C   0  0  0  0  0  0  0  0  0  0  0  0
   12.0550  -18.7591   24.9964 C   0  0  0  0  0  0  0  0  0  0  0  0
   12.0140  -19.3091   26.1363 O   0  0  0  0  0  0  0  0  0  0  0  0
   10.4192  -17.4521   27.1476 C   0  0  0  0  0  0  0  0  0  0  0  0
   10.2204  -16.3394   27.9662 O   0  0  0  0  0  0  0  0  0  0  0  0
   12.7269  -19.4517   24.0199 O   0  0  0  0  0  0  0  0  0  0  0  0
   10.8079  -18.5131   27.6694 O   0  0  0  0  0  0  0  0  0  0  0  0
  2  1  1  6
  2  4  1  0
  2  3  1  0
  4  5  2  0
  7  6  1  1
  7  9  1  0
  8  7  1  0
 10  9  1  1
 10 11  1  0
 10 12  1  0
 11  4  1  0
 12 14  1  0
 13 12  2  0
 14 15  1  0
 15 19  1  0
 16 17  1  0
 15 16  1  6
 17 18  2  0
 19 22  2  0
 19 20  1  0
 21 17  1  0
M  END
$$$$
