ALD.pdb
     RDKit          3D

 22 21  0  0  1  0  0  0  0  0999 V2000
    6.8162  -16.3572   20.9300 C   0  0  0  0  0  0  0  0  0  0  0  0
    6.8854  -14.8731   21.2114 C   0  0  2  0  0  0  0  0  0  0  0  0
    7.4887  -14.1619   20.0737 N   0  0  0  0  0  0  0  0  0  0  0  0
    7.7170  -14.6014   22.4012 C   0  0  0  0  0  0  0  0  0  0  0  0
    8.9554  -14.4434   22.2729 O   0  0  0  0  0  0  0  0  0  0  0  0
    5.6807  -12.1541   27.0169 C   0  0  0  0  0  0  0  0  0  0  0  0
    6.5779  -12.4962   25.8155 C   0  0  1  0  0  0  0  0  0  0  0  0
    7.7448  -11.5035   25.8822 C   0  0  0  0  0  0  0  0  0  0  0  0
    7.1857  -13.8478   26.0549 C   0  0  0  0  0  0  0  0  0  0  0  0
    7.9329  -14.3361   24.9045 C   0  0  2  0  0  0  0  0  0  0  0  0
    7.1733  -14.5111   23.6882 N   0  0  0  0  0  0  0  0  0  0  0  0
    8.5356  -15.6647   25.1963 C   0  0  0  0  0  0  0  0  0  0  0  0
    7.9106  -16.7489   25.2580 O   0  0  0  0  0  0  0  0  0  0  0  0
    9.9501  -15.7831   25.4369 N   0  0  0  0  0  0  0  0  0  0  0  0
   10.5177  -17.0826   25.7818 C   0  0  1  0  0  0  0  0  0  0  0  0
   11.9585  -17.0198   25.3774 C   0  0  0  0  0  0  0  0  0  0  0  0
   12.2184  -16.9960   23.9402 C   0  0  0  0  0  0  0  0  0  0  0  0
   11.3481  -17.5398   23.1983 O   0  0  0  0  0  0  0  0  0  0  0  0
   10.3616  -17.3156   27.2439 C   0  0  0  0  0  0  0  0  0  0  0  0
    9.9981  -16.2218   28.0306 O   0  0  0  0  0  0  0  0  0  0  0  0
   13.3011  -16.4517   23.2952 O   0  0  0  0  0  0  0  0  0  0  0  0
   10.5343  -18.4165   27.7984 O   0  0  0  0  0  0  0  0  0  0  0  0
  2  1  1  6
  2  4  1  0
  2  3  1  0
  4  5  2  0
  7  6  1  1
  7  9  1  0
  8  7  1  0
 10  9  1  1
 10 11  1  0
 10 12  1  0
 11  4  1  0
 12 14  1  0
 13 12  2  0
 14 15  1  0
 15 19  1  0
 16 17  1  0
 15 16  1  1
 17 18  2  0
 19 22  2  0
 19 20  1  0
 21 17  1  0
M  END
$$$$
