ALD.pdb
     RDKit          3D

 22 21  0  0  1  0  0  0  0  0999 V2000
    6.6773  -19.7477   24.0597 C   0  0  0  0  0  0  0  0  0  0  0  0
    5.7709  -18.6374   23.5779 C   0  0  2  0  0  0  0  0  0  0  0  0
    5.3783  -18.8652   22.1786 N   0  0  0  0  0  0  0  0  0  0  0  0
    6.4577  -17.3316   23.6435 C   0  0  0  0  0  0  0  0  0  0  0  0
    7.1009  -16.9155   22.6494 O   0  0  0  0  0  0  0  0  0  0  0  0
    6.1140  -12.0645   26.8350 C   0  0  0  0  0  0  0  0  0  0  0  0
    6.9281  -12.9347   25.8627 C   0  0  1  0  0  0  0  0  0  0  0  0
    8.3057  -13.0970   26.5163 C   0  0  0  0  0  0  0  0  0  0  0  0
    6.3255  -14.3096   25.8481 C   0  0  0  0  0  0  0  0  0  0  0  0
    6.9696  -15.1917   24.8851 C   0  0  2  0  0  0  0  0  0  0  0  0
    6.4211  -16.5245   24.7868 N   0  0  0  0  0  0  0  0  0  0  0  0
    8.4078  -15.3729   25.2203 C   0  0  0  0  0  0  0  0  0  0  0  0
    9.2229  -14.4495   25.4502 O   0  0  0  0  0  0  0  0  0  0  0  0
    8.9727  -16.6946   25.3038 N   0  0  0  0  0  0  0  0  0  0  0  0
   10.4203  -16.8569   25.3928 C   0  0  1  0  0  0  0  0  0  0  0  0
   11.0037  -15.8400   24.4607 C   0  0  0  0  0  0  0  0  0  0  0  0
   12.1268  -16.2922   23.6435 C   0  0  0  0  0  0  0  0  0  0  0  0
   12.1384  -17.5179   23.3256 O   0  0  0  0  0  0  0  0  0  0  0  0
   10.8551  -16.6342   26.7992 C   0  0  0  0  0  0  0  0  0  0  0  0
   12.1215  -17.0977   27.1580 O   0  0  0  0  0  0  0  0  0  0  0  0
   13.1775  -15.5415   23.1774 O   0  0  0  0  0  0  0  0  0  0  0  0
   10.1626  -16.0652   27.6629 O   0  0  0  0  0  0  0  0  0  0  0  0
  2  1  1  6
  2  4  1  0
  2  3  1  0
  4  5  2  0
  7  6  1  1
  7  9  1  0
  8  7  1  0
 10  9  1  1
 10 11  1  0
 10 12  1  0
 11  4  1  0
 12 14  1  0
 13 12  2  0
 14 15  1  0
 15 19  1  0
 16 17  1  0
 15 16  1  6
 17 18  2  0
 19 22  2  0
 19 20  1  0
 21 17  1  0
M  END
$$$$
