ALD.pdb
     RDKit          3D

 22 21  0  0  1  0  0  0  0  0999 V2000
    6.8118  -15.2377   19.8970 C   0  0  0  0  0  0  0  0  0  0  0  0
    7.6663  -15.8919   20.9593 C   0  0  2  0  0  0  0  0  0  0  0  0
    6.9264  -16.9810   21.6153 N   0  0  0  0  0  0  0  0  0  0  0  0
    8.0472  -14.9177   22.0018 C   0  0  0  0  0  0  0  0  0  0  0  0
    8.8127  -13.9655   21.7148 O   0  0  0  0  0  0  0  0  0  0  0  0
    7.6979  -11.4878   25.8324 C   0  0  0  0  0  0  0  0  0  0  0  0
    7.3103  -12.8577   26.4141 C   0  0  1  0  0  0  0  0  0  0  0  0
    6.0639  -12.5998   27.2694 C   0  0  0  0  0  0  0  0  0  0  0  0
    6.8490  -13.7324   25.2847 C   0  0  0  0  0  0  0  0  0  0  0  0
    7.9361  -14.1161   24.3952 C   0  0  2  0  0  0  0  0  0  0  0  0
    7.5827  -15.0128   23.3191 N   0  0  0  0  0  0  0  0  0  0  0  0
    9.0156  -14.8043   25.1533 C   0  0  0  0  0  0  0  0  0  0  0  0
    9.5702  -14.3667   26.1881 O   0  0  0  0  0  0  0  0  0  0  0  0
    9.5092  -16.0834   24.7138 N   0  0  0  0  0  0  0  0  0  0  0  0
   10.6990  -16.6519   25.3391 C   0  0  1  0  0  0  0  0  0  0  0  0
   10.4042  -18.1078   25.5306 C   0  0  0  0  0  0  0  0  0  0  0  0
    9.7087  -18.4620   26.7653 C   0  0  0  0  0  0  0  0  0  0  0  0
    9.7015  -17.5883   27.6818 O   0  0  0  0  0  0  0  0  0  0  0  0
   11.8734  -16.4361   24.4499 C   0  0  0  0  0  0  0  0  0  0  0  0
   13.1227  -16.8259   24.9345 O   0  0  0  0  0  0  0  0  0  0  0  0
    9.0591  -19.6371   27.0515 O   0  0  0  0  0  0  0  0  0  0  0  0
   11.8061  -15.9342   23.3129 O   0  0  0  0  0  0  0  0  0  0  0  0
  2  1  1  6
  2  4  1  0
  2  3  1  0
  4  5  2  0
  7  6  1  6
  7  9  1  0
  8  7  1  0
 10  9  1  1
 10 11  1  0
 10 12  1  0
 11  4  1  0
 12 14  1  0
 13 12  2  0
 14 15  1  0
 15 19  1  0
 16 17  1  0
 15 16  1  6
 17 18  2  0
 19 22  2  0
 19 20  1  0
 21 17  1  0
M  END
$$$$
