ALD.pdb
     RDKit          3D

 22 21  0  0  1  0  0  0  0  0999 V2000
    7.5998  -16.8399   20.8787 C   0  0  0  0  0  0  0  0  0  0  0  0
    7.9057  -15.3844   21.1519 C   0  0  2  0  0  0  0  0  0  0  0  0
    8.8814  -14.8727   20.1770 N   0  0  0  0  0  0  0  0  0  0  0  0
    8.4861  -15.2125   22.4989 C   0  0  0  0  0  0  0  0  0  0  0  0
    9.7250  -15.3290   22.6629 O   0  0  0  0  0  0  0  0  0  0  0  0
    5.7912  -12.2141   26.4530 C   0  0  0  0  0  0  0  0  0  0  0  0
    6.9086  -12.6961   25.5124 C   0  0  1  0  0  0  0  0  0  0  0  0
    8.1342  -11.8447   25.8651 C   0  0  0  0  0  0  0  0  0  0  0  0
    7.2708  -14.1012   25.8972 C   0  0  0  0  0  0  0  0  0  0  0  0
    8.2002  -14.7152   24.9594 C   0  0  2  0  0  0  0  0  0  0  0  0
    7.6999  -14.9202   23.6198 N   0  0  0  0  0  0  0  0  0  0  0  0
    8.6200  -16.0588   25.4413 C   0  0  0  0  0  0  0  0  0  0  0  0
    7.8985  -17.0830   25.4594 O   0  0  0  0  0  0  0  0  0  0  0  0
    9.9542  -16.2666   25.9409 N   0  0  0  0  0  0  0  0  0  0  0  0
   10.3637  -17.5985   26.3746 C   0  0  1  0  0  0  0  0  0  0  0  0
   11.6554  -17.8788   25.6702 C   0  0  0  0  0  0  0  0  0  0  0  0
   12.3575  -19.0919   26.0815 C   0  0  0  0  0  0  0  0  0  0  0  0
   11.6392  -20.0487   26.4962 O   0  0  0  0  0  0  0  0  0  0  0  0
   10.5258  -17.6062   27.8545 C   0  0  0  0  0  0  0  0  0  0  0  0
   10.1884  -16.4389   28.5409 O   0  0  0  0  0  0  0  0  0  0  0  0
   13.7115  -19.3182   26.0724 O   0  0  0  0  0  0  0  0  0  0  0  0
   10.9397  -18.5819   28.5070 O   0  0  0  0  0  0  0  0  0  0  0  0
  2  1  1  6
  2  4  1  0
  2  3  1  0
  4  5  2  0
  7  6  1  1
  7  9  1  0
  8  7  1  0
 10  9  1  1
 10 11  1  0
 10 12  1  0
 11  4  1  0
 12 14  1  0
 13 12  2  0
 14 15  1  0
 15 19  1  0
 16 17  1  0
 15 16  1  6
 17 18  2  0
 19 22  2  0
 19 20  1  0
 21 17  1  0
M  END
$$$$
