ALD.pdb
     RDKit          3D

 22 21  0  0  1  0  0  0  0  0999 V2000
    7.0689  -14.5387   20.5742 C   0  0  0  0  0  0  0  0  0  0  0  0
    7.8227  -15.4560   21.5106 C   0  0  2  0  0  0  0  0  0  0  0  0
    6.9185  -16.4697   22.0753 N   0  0  0  0  0  0  0  0  0  0  0  0
    8.4035  -14.6970   22.6363 C   0  0  0  0  0  0  0  0  0  0  0  0
    9.4204  -13.9856   22.4492 O   0  0  0  0  0  0  0  0  0  0  0  0
    5.5933  -12.1086   26.7020 C   0  0  0  0  0  0  0  0  0  0  0  0
    6.5952  -12.4715   25.5930 C   0  0  1  0  0  0  0  0  0  0  0  0
    7.5551  -11.2789   25.5043 C   0  0  0  0  0  0  0  0  0  0  0  0
    7.4288  -13.6237   26.0736 C   0  0  0  0  0  0  0  0  0  0  0  0
    8.4004  -14.0624   25.0818 C   0  0  2  0  0  0  0  0  0  0  0  0
    7.8588  -14.7378   23.9254 N   0  0  0  0  0  0  0  0  0  0  0  0
    9.3716  -15.0148   25.6848 C   0  0  0  0  0  0  0  0  0  0  0  0
    9.8984  -14.8977   26.8156 O   0  0  0  0  0  0  0  0  0  0  0  0
    9.7815  -16.1894   24.9603 N   0  0  0  0  0  0  0  0  0  0  0  0
   10.6246  -17.1843   25.6155 C   0  0  1  0  0  0  0  0  0  0  0  0
    9.6859  -18.1941   26.2008 C   0  0  0  0  0  0  0  0  0  0  0  0
   10.1970  -18.9597   27.3349 C   0  0  0  0  0  0  0  0  0  0  0  0
   10.8364  -18.3106   28.2142 O   0  0  0  0  0  0  0  0  0  0  0  0
   11.5386  -17.7937   24.6107 C   0  0  0  0  0  0  0  0  0  0  0  0
   12.7590  -18.2880   25.0730 O   0  0  0  0  0  0  0  0  0  0  0  0
   10.0661  -20.3075   27.5609 O   0  0  0  0  0  0  0  0  0  0  0  0
   11.2802  -17.8867   23.3967 O   0  0  0  0  0  0  0  0  0  0  0  0
  2  1  1  6
  2  4  1  0
  2  3  1  0
  4  5  2  0
  7  6  1  1
  7  9  1  0
  8  7  1  0
 10  9  1  1
 10 11  1  0
 10 12  1  0
 11  4  1  0
 12 14  1  0
 13 12  2  0
 14 15  1  0
 15 19  1  0
 16 17  1  0
 15 16  1  6
 17 18  2  0
 19 22  2  0
 19 20  1  0
 21 17  1  0
M  END
$$$$
