ALD.pdb
     RDKit          3D

 22 21  0  0  1  0  0  0  0  0999 V2000
    8.4024  -18.1108   17.1625 C   0  0  0  0  0  0  0  0  0  0  0  0
    9.1635  -18.4036   18.4358 C   0  0  2  0  0  0  0  0  0  0  0  0
    8.2696  -18.9926   19.4449 N   0  0  0  0  0  0  0  0  0  0  0  0
    9.7295  -17.1651   19.0072 C   0  0  0  0  0  0  0  0  0  0  0  0
   10.7776  -16.6763   18.5196 O   0  0  0  0  0  0  0  0  0  0  0  0
    6.3639  -13.2111   20.5269 C   0  0  0  0  0  0  0  0  0  0  0  0
    7.6048  -13.8925   19.9259 C   0  0  1  0  0  0  0  0  0  0  0  0
    8.3786  -12.7762   19.2142 C   0  0  0  0  0  0  0  0  0  0  0  0
    8.4881  -14.3371   21.0554 C   0  0  0  0  0  0  0  0  0  0  0  0
    9.5559  -15.2232   20.6141 C   0  0  2  0  0  0  0  0  0  0  0  0
    9.1365  -16.5015   20.0880 N   0  0  0  0  0  0  0  0  0  0  0  0
   10.4773  -15.5349   21.7399 C   0  0  0  0  0  0  0  0  0  0  0  0
   11.1357  -14.6939   22.3950 O   0  0  0  0  0  0  0  0  0  0  0  0
   10.6730  -16.8975   22.1617 N   0  0  0  0  0  0  0  0  0  0  0  0
   11.5352  -17.1831   23.3040 C   0  0  1  0  0  0  0  0  0  0  0  0
   10.8932  -18.3285   24.0245 C   0  0  0  0  0  0  0  0  0  0  0  0
   11.5918  -18.8071   25.2147 C   0  0  0  0  0  0  0  0  0  0  0  0
   12.6473  -18.1873   25.5393 O   0  0  0  0  0  0  0  0  0  0  0  0
   12.8991  -17.5284   22.8173 C   0  0  0  0  0  0  0  0  0  0  0  0
   13.0758  -17.6434   21.4378 O   0  0  0  0  0  0  0  0  0  0  0  0
   11.2380  -19.8558   26.0269 O   0  0  0  0  0  0  0  0  0  0  0  0
   13.8792  -17.7180   23.5608 O   0  0  0  0  0  0  0  0  0  0  0  0
  2  1  1  6
  2  4  1  0
  2  3  1  0
  4  5  2  0
  7  6  1  1
  7  9  1  0
  8  7  1  0
 10  9  1  1
 10 11  1  0
 10 12  1  0
 11  4  1  0
 12 14  1  0
 13 12  2  0
 14 15  1  0
 15 19  1  0
 16 17  1  0
 15 16  1  6
 17 18  2  0
 19 22  2  0
 19 20  1  0
 21 17  1  0
M  END
$$$$
