ALD.pdb
     RDKit          3D

 22 21  0  0  1  0  0  0  0  0999 V2000
    7.2257  -14.7010   20.6128 C   0  0  0  0  0  0  0  0  0  0  0  0
    7.7416  -15.6935   21.6303 C   0  0  2  0  0  0  0  0  0  0  0  0
    6.6286  -16.4623   22.2084 N   0  0  0  0  0  0  0  0  0  0  0  0
    8.4307  -15.0013   22.7381 C   0  0  0  0  0  0  0  0  0  0  0  0
    9.4976  -14.3788   22.5159 O   0  0  0  0  0  0  0  0  0  0  0  0
    5.4824  -12.4294   26.5899 C   0  0  0  0  0  0  0  0  0  0  0  0
    6.5250  -12.7864   25.5170 C   0  0  1  0  0  0  0  0  0  0  0  0
    7.3214  -11.4980   25.2776 C   0  0  0  0  0  0  0  0  0  0  0  0
    7.5007  -13.7568   26.1167 C   0  0  0  0  0  0  0  0  0  0  0  0
    8.4728  -14.2426   25.1476 C   0  0  2  0  0  0  0  0  0  0  0  0
    7.9361  -15.0102   24.0478 N   0  0  0  0  0  0  0  0  0  0  0  0
    9.4716  -15.1276   25.8054 C   0  0  0  0  0  0  0  0  0  0  0  0
   10.1273  -14.8449   26.8350 O   0  0  0  0  0  0  0  0  0  0  0  0
    9.7545  -16.4312   25.2637 N   0  0  0  0  0  0  0  0  0  0  0  0
   10.7060  -17.3046   25.9431 C   0  0  1  0  0  0  0  0  0  0  0  0
    9.8905  -18.4056   26.5480 C   0  0  0  0  0  0  0  0  0  0  0  0
   10.6298  -19.3924   27.3312 C   0  0  0  0  0  0  0  0  0  0  0  0
   11.5356  -18.9456   28.0950 O   0  0  0  0  0  0  0  0  0  0  0  0
   11.6912  -17.8229   24.9546 C   0  0  0  0  0  0  0  0  0  0  0  0
   12.7714  -18.5538   25.4512 O   0  0  0  0  0  0  0  0  0  0  0  0
   10.4585  -20.7545   27.3363 O   0  0  0  0  0  0  0  0  0  0  0  0
   11.6080  -17.6443   23.7256 O   0  0  0  0  0  0  0  0  0  0  0  0
  2  1  1  6
  2  4  1  0
  2  3  1  0
  4  5  2  0
  7  6  1  1
  7  9  1  0
  8  7  1  0
 10  9  1  1
 10 11  1  0
 10 12  1  0
 11  4  1  0
 12 14  1  0
 13 12  2  0
 14 15  1  0
 15 19  1  0
 16 17  1  0
 15 16  1  6
 17 18  2  0
 19 22  2  0
 19 20  1  0
 21 17  1  0
M  END
$$$$
