ALD.pdb
     RDKit          3D

 22 21  0  0  1  0  0  0  0  0999 V2000
    8.2934  -18.0404   17.3484 C   0  0  0  0  0  0  0  0  0  0  0  0
    8.8479  -18.4021   18.7079 C   0  0  2  0  0  0  0  0  0  0  0  0
    7.7674  -18.8463   19.6020 N   0  0  0  0  0  0  0  0  0  0  0  0
    9.4995  -17.2361   19.3377 C   0  0  0  0  0  0  0  0  0  0  0  0
   10.5866  -16.8074   18.8800 O   0  0  0  0  0  0  0  0  0  0  0  0
    6.3138  -13.2352   21.0255 C   0  0  0  0  0  0  0  0  0  0  0  0
    7.4856  -13.9976   20.3842 C   0  0  1  0  0  0  0  0  0  0  0  0
    8.2445  -12.9554   19.5538 C   0  0  0  0  0  0  0  0  0  0  0  0
    8.4308  -14.4077   21.4759 C   0  0  0  0  0  0  0  0  0  0  0  0
    9.4431  -15.3473   21.0147 C   0  0  2  0  0  0  0  0  0  0  0  0
    8.9466  -16.5773   20.4425 N   0  0  0  0  0  0  0  0  0  0  0  0
   10.3296  -15.7558   22.1377 C   0  0  0  0  0  0  0  0  0  0  0  0
   10.9603  -14.9748   22.8874 O   0  0  0  0  0  0  0  0  0  0  0  0
   10.5212  -17.1502   22.4408 N   0  0  0  0  0  0  0  0  0  0  0  0
   11.3782  -17.5352   23.5575 C   0  0  1  0  0  0  0  0  0  0  0  0
   10.5169  -18.3513   24.4715 C   0  0  0  0  0  0  0  0  0  0  0  0
   11.1936  -18.9572   25.6154 C   0  0  0  0  0  0  0  0  0  0  0  0
   12.1433  -18.2945   26.1277 O   0  0  0  0  0  0  0  0  0  0  0  0
   12.5365  -18.3161   23.0427 C   0  0  0  0  0  0  0  0  0  0  0  0
   13.7668  -18.1264   23.6734 O   0  0  0  0  0  0  0  0  0  0  0  0
   10.9209  -20.1674   26.2034 O   0  0  0  0  0  0  0  0  0  0  0  0
   12.4716  -19.1190   22.0938 O   0  0  0  0  0  0  0  0  0  0  0  0
  2  1  1  6
  2  4  1  0
  2  3  1  0
  4  5  2  0
  7  6  1  1
  7  9  1  0
  8  7  1  0
 10  9  1  1
 10 11  1  0
 10 12  1  0
 11  4  1  0
 12 14  1  0
 13 12  2  0
 14 15  1  0
 15 19  1  0
 16 17  1  0
 15 16  1  1
 17 18  2  0
 19 22  2  0
 19 20  1  0
 21 17  1  0
M  END
$$$$
