ALD.pdb
     RDKit          3D

 22 21  0  0  1  0  0  0  0  0999 V2000
    7.6889  -13.0314   20.1004 C   0  0  0  0  0  0  0  0  0  0  0  0
    7.7993  -14.3879   20.7594 C   0  0  2  0  0  0  0  0  0  0  0  0
    6.4744  -15.0195   20.8602 N   0  0  0  0  0  0  0  0  0  0  0  0
    8.3426  -14.2659   22.1272 C   0  0  0  0  0  0  0  0  0  0  0  0
    9.5245  -13.8789   22.2958 O   0  0  0  0  0  0  0  0  0  0  0  0
    5.5792  -12.2355   26.4896 C   0  0  0  0  0  0  0  0  0  0  0  0
    6.7007  -12.5521   25.4860 C   0  0  1  0  0  0  0  0  0  0  0  0
    7.9393  -11.8178   26.0134 C   0  0  0  0  0  0  0  0  0  0  0  0
    7.0246  -14.0141   25.5918 C   0  0  0  0  0  0  0  0  0  0  0  0
    8.0331  -14.4340   24.6290 C   0  0  2  0  0  0  0  0  0  0  0  0
    7.5823  -14.5687   23.2631 N   0  0  0  0  0  0  0  0  0  0  0  0
    8.5917  -15.7621   25.0004 C   0  0  0  0  0  0  0  0  0  0  0  0
    8.1184  -16.5335   25.8669 O   0  0  0  0  0  0  0  0  0  0  0  0
    9.7734  -16.2611   24.3467 N   0  0  0  0  0  0  0  0  0  0  0  0
   10.3333  -17.5469   24.7501 C   0  0  1  0  0  0  0  0  0  0  0  0
   11.2451  -17.9631   23.6370 C   0  0  0  0  0  0  0  0  0  0  0  0
   10.6209  -18.1258   22.3265 C   0  0  0  0  0  0  0  0  0  0  0  0
    9.4959  -18.7068   22.3034 O   0  0  0  0  0  0  0  0  0  0  0  0
   11.0661  -17.3833   26.0356 C   0  0  0  0  0  0  0  0  0  0  0  0
   11.5361  -16.1064   26.3459 O   0  0  0  0  0  0  0  0  0  0  0  0
   11.1127  -17.7221   21.1101 O   0  0  0  0  0  0  0  0  0  0  0  0
   11.2811  -18.3084   26.8400 O   0  0  0  0  0  0  0  0  0  0  0  0
  2  1  1  1
  2  4  1  0
  2  3  1  0
  4  5  2  0
  7  6  1  1
  7  9  1  0
  8  7  1  0
 10  9  1  1
 10 11  1  0
 10 12  1  0
 11  4  1  0
 12 14  1  0
 13 12  2  0
 14 15  1  0
 15 19  1  0
 16 17  1  0
 15 16  1  6
 17 18  2  0
 19 22  2  0
 19 20  1  0
 21 17  1  0
M  END
$$$$
