LKL.pdb
     RDKit          3D

 26 25  0  0  1  0  0  0  0  0999 V2000
    6.8245  -12.5293   18.3837 C   0  0  0  0  0  0  0  0  0  0  0  0
    7.7883  -13.5876   18.8518 C   0  0  1  0  0  0  0  0  0  0  0  0
    9.2344  -13.1717   18.7131 C   0  0  0  0  0  0  0  0  0  0  0  0
    7.4603  -14.1899   20.1590 C   0  0  0  0  0  0  0  0  0  0  0  0
    8.3820  -15.2148   20.7057 C   0  0  2  0  0  0  0  0  0  0  0  0
    8.5573  -16.3863   19.9191 N   0  0  0  0  0  0  0  0  0  0  0  0
    7.9358  -15.6099   22.0520 C   0  0  0  0  0  0  0  0  0  0  0  0
    7.3142  -14.7851   22.7675 O   0  0  0  0  0  0  0  0  0  0  0  0
    8.1627  -16.8917   22.6183 N   0  0  0  0  0  0  0  0  0  0  0  0
    7.7851  -17.1865   23.9786 C   0  0  1  0  0  0  0  0  0  0  0  0
    8.0500  -18.6416   24.3351 C   0  0  0  0  0  0  0  0  0  0  0  0
    7.9504  -18.9207   25.7978 C   0  0  0  0  0  0  0  0  0  0  0  0
    6.9296  -19.9817   26.0332 C   0  0  0  0  0  0  0  0  0  0  0  0
    6.7321  -20.3187   27.4853 C   0  0  0  0  0  0  0  0  0  0  0  0
    8.0258  -20.6844   28.0592 N   0  0  0  0  0  0  0  0  0  0  0  0
    8.5534  -16.3784   24.9579 C   0  0  0  0  0  0  0  0  0  0  0  0
    9.8089  -16.4143   24.9171 O   0  0  0  0  0  0  0  0  0  0  0  0
    5.9082  -12.0532   26.9830 C   0  0  0  0  0  0  0  0  0  0  0  0
    7.0546  -12.8398   26.4528 C   0  0  1  0  0  0  0  0  0  0  0  0
    7.9096  -11.8627   25.6458 C   0  0  0  0  0  0  0  0  0  0  0  0
    7.8367  -13.6809   27.3553 C   0  0  0  0  0  0  0  0  0  0  0  0
    8.7709  -14.7095   26.8581 C   0  0  2  0  0  0  0  0  0  0  0  0
    7.9436  -15.5632   25.9423 N   0  0  0  0  0  0  0  0  0  0  0  0
    9.2348  -15.6241   27.8872 C   0  0  0  0  0  0  0  0  0  0  0  0
   10.0328  -15.1750   28.7906 O   0  0  0  0  0  0  0  0  0  0  0  0
    8.9252  -16.9606   28.0453 O   0  0  0  0  0  0  0  0  0  0  0  0
  2  4  1  0
  2  1  1  1
  3  2  1  0
  4  5  1  0
  5  6  1  6
  7  5  1  0
  7  8  2  0
  9  7  1  0
 10  9  1  0
 10 11  1  1
 12 11  1  0
 13 14  1  0
 13 12  1  0
 15 14  1  0
 16 23  1  0
 16 10  1  0
 17 16  2  0
 19 18  1  1
 19 21  1  0
 20 19  1  0
 22 21  1  1
 22 23  1  0
 24 26  1  0
 24 22  1  0
 25 24  2  0
M  END
$$$$
