LKL.pdb
     RDKit          3D

 26 25  0  0  1  0  0  0  0  0999 V2000
    7.7238  -11.7806   19.3668 C   0  0  0  0  0  0  0  0  0  0  0  0
    7.9857  -13.2491   19.1599 C   0  0  1  0  0  0  0  0  0  0  0  0
    9.2283  -13.5174   18.3427 C   0  0  0  0  0  0  0  0  0  0  0  0
    7.8796  -14.0753   20.3785 C   0  0  0  0  0  0  0  0  0  0  0  0
    8.1586  -15.5271   20.2634 C   0  0  2  0  0  0  0  0  0  0  0  0
    7.2382  -16.2846   19.4884 N   0  0  0  0  0  0  0  0  0  0  0  0
    8.2461  -16.1194   21.6085 C   0  0  0  0  0  0  0  0  0  0  0  0
    7.1940  -16.3518   22.2547 O   0  0  0  0  0  0  0  0  0  0  0  0
    9.4675  -16.4574   22.2483 N   0  0  0  0  0  0  0  0  0  0  0  0
    9.4856  -17.0321   23.5709 C   0  0  1  0  0  0  0  0  0  0  0  0
   10.5706  -18.0892   23.7121 C   0  0  0  0  0  0  0  0  0  0  0  0
   10.6096  -18.7212   25.0635 C   0  0  0  0  0  0  0  0  0  0  0  0
   11.6995  -19.7379   25.1056 C   0  0  0  0  0  0  0  0  0  0  0  0
   11.8241  -20.4354   26.4319 C   0  0  0  0  0  0  0  0  0  0  0  0
   13.0286  -21.2634   26.4120 N   0  0  0  0  0  0  0  0  0  0  0  0
    9.7649  -16.0163   24.6162 C   0  0  0  0  0  0  0  0  0  0  0  0
   10.7258  -15.2243   24.4466 O   0  0  0  0  0  0  0  0  0  0  0  0
    5.9998  -12.9507   26.7143 C   0  0  0  0  0  0  0  0  0  0  0  0
    7.3938  -13.3522   26.3833 C   0  0  1  0  0  0  0  0  0  0  0  0
    8.1591  -12.0584   26.1050 C   0  0  0  0  0  0  0  0  0  0  0  0
    8.1131  -14.2697   27.2634 C   0  0  0  0  0  0  0  0  0  0  0  0
    9.3851  -14.9040   26.8660 C   0  0  2  0  0  0  0  0  0  0  0  0
    9.0014  -15.8905   25.8022 N   0  0  0  0  0  0  0  0  0  0  0  0
    9.9865  -15.7131   27.9121 C   0  0  0  0  0  0  0  0  0  0  0  0
   10.5458  -15.1142   28.9036 O   0  0  0  0  0  0  0  0  0  0  0  0
   10.0415  -17.0900   28.0023 O   0  0  0  0  0  0  0  0  0  0  0  0
  2  4  1  0
  2  1  1  1
  3  2  1  0
  4  5  1  0
  5  6  1  6
  7  5  1  0
  7  8  2  0
  9  7  1  0
 10  9  1  0
 10 11  1  6
 12 11  1  0
 13 14  1  0
 13 12  1  0
 15 14  1  0
 16 23  1  0
 16 10  1  0
 17 16  2  0
 19 18  1  1
 19 21  1  0
 20 19  1  0
 22 21  1  1
 22 23  1  0
 24 26  1  0
 24 22  1  0
 25 24  2  0
M  END
$$$$
