LKL.pdb
     RDKit          3D

 26 25  0  0  1  0  0  0  0  0999 V2000
    6.9642  -12.2287   19.3618 C   0  0  0  0  0  0  0  0  0  0  0  0
    8.1155  -13.1996   19.3629 C   0  0  1  0  0  0  0  0  0  0  0  0
    9.4436  -12.5401   19.0717 C   0  0  0  0  0  0  0  0  0  0  0  0
    8.1447  -14.1249   20.5126 C   0  0  0  0  0  0  0  0  0  0  0  0
    9.2743  -15.0805   20.6103 C   0  0  2  0  0  0  0  0  0  0  0  0
    9.4293  -15.9837   19.5231 N   0  0  0  0  0  0  0  0  0  0  0  0
    9.1573  -15.8548   21.8571 C   0  0  0  0  0  0  0  0  0  0  0  0
    8.2267  -15.6000   22.6618 O   0  0  0  0  0  0  0  0  0  0  0  0
   10.0447  -16.8988   22.2285 N   0  0  0  0  0  0  0  0  0  0  0  0
    9.8263  -17.6775   23.4226 C   0  0  1  0  0  0  0  0  0  0  0  0
   10.4901  -19.0436   23.3348 C   0  0  0  0  0  0  0  0  0  0  0  0
    9.7765  -19.9919   22.4299 C   0  0  0  0  0  0  0  0  0  0  0  0
   10.5513  -21.2620   22.3299 C   0  0  0  0  0  0  0  0  0  0  0  0
    9.9284  -22.2791   21.4142 C   0  0  0  0  0  0  0  0  0  0  0  0
   10.7979  -23.4530   21.3609 N   0  0  0  0  0  0  0  0  0  0  0  0
   10.3947  -17.0225   24.6268 C   0  0  0  0  0  0  0  0  0  0  0  0
   11.4960  -16.4256   24.5260 O   0  0  0  0  0  0  0  0  0  0  0  0
   10.7083  -13.3779   27.7935 C   0  0  0  0  0  0  0  0  0  0  0  0
    9.7307  -14.3250   28.3950 C   0  0  1  0  0  0  0  0  0  0  0  0
    8.5063  -13.4934   28.7775 C   0  0  0  0  0  0  0  0  0  0  0  0
    9.3923  -15.5610   27.6940 C   0  0  0  0  0  0  0  0  0  0  0  0
   10.4226  -16.4317   27.0953 C   0  0  2  0  0  0  0  0  0  0  0  0
    9.7584  -17.0338   25.8919 N   0  0  0  0  0  0  0  0  0  0  0  0
   10.7774  -17.5716   27.9231 C   0  0  0  0  0  0  0  0  0  0  0  0
   11.8388  -17.4963   28.6459 O   0  0  0  0  0  0  0  0  0  0  0  0
   10.1085  -18.7724   28.0558 O   0  0  0  0  0  0  0  0  0  0  0  0
  2  4  1  0
  2  1  1  1
  3  2  1  0
  4  5  1  0
  5  6  1  6
  7  5  1  0
  7  8  2  0
  9  7  1  0
 10  9  1  0
 10 11  1  6
 12 11  1  0
 13 14  1  0
 13 12  1  0
 15 14  1  0
 16 23  1  0
 16 10  1  0
 17 16  2  0
 19 18  1  6
 19 21  1  0
 20 19  1  0
 22 21  1  1
 22 23  1  0
 24 26  1  0
 24 22  1  0
 25 24  2  0
M  END
$$$$
