LKL.pdb
     RDKit          3D

 26 25  0  0  1  0  0  0  0  0999 V2000
    6.8605  -12.4708   18.9774 C   0  0  0  0  0  0  0  0  0  0  0  0
    8.0689  -13.3577   19.1236 C   0  0  1  0  0  0  0  0  0  0  0  0
    9.3710  -12.6198   18.9152 C   0  0  0  0  0  0  0  0  0  0  0  0
    8.0575  -14.2292   20.3150 C   0  0  0  0  0  0  0  0  0  0  0  0
    9.2365  -15.0951   20.5570 C   0  0  2  0  0  0  0  0  0  0  0  0
    9.5883  -15.9862   19.5063 N   0  0  0  0  0  0  0  0  0  0  0  0
    9.0307  -15.8733   21.7899 C   0  0  0  0  0  0  0  0  0  0  0  0
    8.2720  -15.4275   22.6867 O   0  0  0  0  0  0  0  0  0  0  0  0
    9.6442  -17.1272   22.0479 N   0  0  0  0  0  0  0  0  0  0  0  0
    9.4799  -17.7940   23.3161 C   0  0  1  0  0  0  0  0  0  0  0  0
    9.9189  -19.2492   23.2497 C   0  0  0  0  0  0  0  0  0  0  0  0
    9.0317  -20.0974   22.4008 C   0  0  0  0  0  0  0  0  0  0  0  0
    9.6203  -21.4615   22.2745 C   0  0  0  0  0  0  0  0  0  0  0  0
    8.8436  -22.3728   21.3649 C   0  0  0  0  0  0  0  0  0  0  0  0
    9.5240  -23.6653   21.3078 N   0  0  0  0  0  0  0  0  0  0  0  0
   10.2973  -17.1680   24.3849 C   0  0  0  0  0  0  0  0  0  0  0  0
   11.3524  -16.5658   24.0633 O   0  0  0  0  0  0  0  0  0  0  0  0
    9.2667  -12.8242   27.7935 C   0  0  0  0  0  0  0  0  0  0  0  0
   10.1626  -14.0100   27.7209 C   0  0  1  0  0  0  0  0  0  0  0  0
   10.4323  -14.4339   29.1647 C   0  0  0  0  0  0  0  0  0  0  0  0
    9.8173  -15.1280   26.8466 C   0  0  0  0  0  0  0  0  0  0  0  0
   10.6503  -16.3432   26.7595 C   0  0  2  0  0  0  0  0  0  0  0  0
    9.9497  -17.2128   25.7570 N   0  0  0  0  0  0  0  0  0  0  0  0
   10.6626  -17.1321   27.9794 C   0  0  0  0  0  0  0  0  0  0  0  0
    9.6371  -17.8608   28.2473 O   0  0  0  0  0  0  0  0  0  0  0  0
   11.6607  -17.2206   28.9296 O   0  0  0  0  0  0  0  0  0  0  0  0
  2  4  1  0
  2  1  1  1
  3  2  1  0
  4  5  1  0
  5  6  1  6
  7  5  1  0
  7  8  2  0
  9  7  1  0
 10  9  1  0
 10 11  1  6
 12 11  1  0
 13 14  1  0
 13 12  1  0
 15 14  1  0
 16 23  1  0
 16 10  1  0
 17 16  2  0
 19 18  1  1
 19 21  1  0
 20 19  1  0
 22 21  1  1
 22 23  1  0
 24 26  1  0
 24 22  1  0
 25 24  2  0
M  END
$$$$
