LKL.pdb
     RDKit          3D

 26 25  0  0  1  0  0  0  0  0999 V2000
    9.1530  -13.6063   17.5825 C   0  0  0  0  0  0  0  0  0  0  0  0
    8.8014  -13.3673   19.0272 C   0  0  1  0  0  0  0  0  0  0  0  0
    8.6104  -11.9042   19.3537 C   0  0  0  0  0  0  0  0  0  0  0  0
    7.7401  -14.2440   19.5600 C   0  0  0  0  0  0  0  0  0  0  0  0
    7.9950  -15.7042   19.5972 C   0  0  2  0  0  0  0  0  0  0  0  0
    7.4055  -16.4721   18.5557 N   0  0  0  0  0  0  0  0  0  0  0  0
    7.5561  -16.2474   20.8934 C   0  0  0  0  0  0  0  0  0  0  0  0
    6.3361  -16.2304   21.1933 O   0  0  0  0  0  0  0  0  0  0  0  0
    8.4355  -16.8054   21.8582 N   0  0  0  0  0  0  0  0  0  0  0  0
    7.9472  -17.2834   23.1282 C   0  0  1  0  0  0  0  0  0  0  0  0
    8.3452  -18.7305   23.3775 C   0  0  0  0  0  0  0  0  0  0  0  0
    7.8798  -19.2544   24.6951 C   0  0  0  0  0  0  0  0  0  0  0  0
    8.4163  -20.6304   24.9007 C   0  0  0  0  0  0  0  0  0  0  0  0
    7.9184  -21.2916   26.1560 C   0  0  0  0  0  0  0  0  0  0  0  0
    6.4975  -21.5932   25.9921 N   0  0  0  0  0  0  0  0  0  0  0  0
    8.4978  -16.5054   24.2656 C   0  0  0  0  0  0  0  0  0  0  0  0
    9.7446  -16.3848   24.3670 O   0  0  0  0  0  0  0  0  0  0  0  0
    6.1094  -11.8711   26.4556 C   0  0  0  0  0  0  0  0  0  0  0  0
    7.1681  -12.8369   26.0547 C   0  0  1  0  0  0  0  0  0  0  0  0
    8.4774  -12.0487   26.0183 C   0  0  0  0  0  0  0  0  0  0  0  0
    7.2843  -14.1162   26.7500 C   0  0  0  0  0  0  0  0  0  0  0  0
    8.3025  -15.1197   26.3834 C   0  0  2  0  0  0  0  0  0  0  0  0
    7.6883  -15.8871   25.2495 N   0  0  0  0  0  0  0  0  0  0  0  0
    8.5367  -16.1176   27.4129 C   0  0  0  0  0  0  0  0  0  0  0  0
    7.7294  -17.1158   27.4927 O   0  0  0  0  0  0  0  0  0  0  0  0
    9.5468  -16.1536   28.3539 O   0  0  0  0  0  0  0  0  0  0  0  0
  2  4  1  0
  2  1  1  6
  3  2  1  0
  4  5  1  0
  5  6  1  6
  7  5  1  0
  7  8  2  0
  9  7  1  0
 10  9  1  0
 10 11  1  1
 12 11  1  0
 13 14  1  0
 13 12  1  0
 15 14  1  0
 16 23  1  0
 16 10  1  0
 17 16  2  0
 19 18  1  1
 19 21  1  0
 20 19  1  0
 22 21  1  1
 22 23  1  0
 24 26  1  0
 24 22  1  0
 25 24  2  0
M  END
$$$$
