LKL.pdb
     RDKit          3D

 26 25  0  0  1  0  0  0  0  0999 V2000
    7.8147  -12.0673   18.8117 C   0  0  0  0  0  0  0  0  0  0  0  0
    8.1049  -13.5421   18.9059 C   0  0  1  0  0  0  0  0  0  0  0  0
    9.5832  -13.8550   18.8855 C   0  0  0  0  0  0  0  0  0  0  0  0
    7.3556  -14.2551   19.9590 C   0  0  0  0  0  0  0  0  0  0  0  0
    7.5548  -15.7188   20.0875 C   0  0  2  0  0  0  0  0  0  0  0  0
    6.8927  -16.5302   19.1257 N   0  0  0  0  0  0  0  0  0  0  0  0
    7.1501  -16.1542   21.4345 C   0  0  0  0  0  0  0  0  0  0  0  0
    5.9728  -15.9538   21.8247 O   0  0  0  0  0  0  0  0  0  0  0  0
    8.0175  -16.8027   22.3523 N   0  0  0  0  0  0  0  0  0  0  0  0
    7.5919  -17.1091   23.6958 C   0  0  1  0  0  0  0  0  0  0  0  0
    7.8396  -18.5685   24.0472 C   0  0  0  0  0  0  0  0  0  0  0  0
    7.4482  -18.9158   25.4449 C   0  0  0  0  0  0  0  0  0  0  0  0
    7.7786  -20.3449   25.7132 C   0  0  0  0  0  0  0  0  0  0  0  0
    7.2910  -20.8375   27.0476 C   0  0  0  0  0  0  0  0  0  0  0  0
    7.8465  -22.1686   27.2847 N   0  0  0  0  0  0  0  0  0  0  0  0
    8.3284  -16.3131   24.7089 C   0  0  0  0  0  0  0  0  0  0  0  0
    9.5829  -16.2710   24.6479 O   0  0  0  0  0  0  0  0  0  0  0  0
    6.2203  -11.6601   26.6124 C   0  0  0  0  0  0  0  0  0  0  0  0
    7.2451  -12.6664   26.2234 C   0  0  1  0  0  0  0  0  0  0  0  0
    8.4368  -11.8780   25.6799 C   0  0  0  0  0  0  0  0  0  0  0  0
    7.6284  -13.7137   27.1667 C   0  0  0  0  0  0  0  0  0  0  0  0
    8.4887  -14.8471   26.7748 C   0  0  2  0  0  0  0  0  0  0  0  0
    7.6890  -15.5933   25.7474 N   0  0  0  0  0  0  0  0  0  0  0  0
    8.7043  -15.8123   27.8390 C   0  0  0  0  0  0  0  0  0  0  0  0
    7.9134  -16.8237   27.9175 O   0  0  0  0  0  0  0  0  0  0  0  0
    9.6803  -15.8033   28.8159 O   0  0  0  0  0  0  0  0  0  0  0  0
  2  4  1  0
  2  1  1  1
  3  2  1  0
  4  5  1  0
  5  6  1  6
  7  5  1  0
  7  8  2  0
  9  7  1  0
 10  9  1  0
 10 11  1  1
 12 11  1  0
 13 14  1  0
 13 12  1  0
 15 14  1  0
 16 23  1  0
 16 10  1  0
 17 16  2  0
 19 18  1  1
 19 21  1  0
 20 19  1  0
 22 21  1  1
 22 23  1  0
 24 26  1  0
 24 22  1  0
 25 24  2  0
M  END
$$$$
