LKL.pdb
     RDKit          3D

 26 25  0  0  1  0  0  0  0  0999 V2000
    6.3766  -12.8604   17.9243 C   0  0  0  0  0  0  0  0  0  0  0  0
    7.6998  -13.4800   18.2895 C   0  0  1  0  0  0  0  0  0  0  0  0
    8.8513  -12.5050   18.2047 C   0  0  0  0  0  0  0  0  0  0  0  0
    7.6864  -14.2860   19.5260 C   0  0  0  0  0  0  0  0  0  0  0  0
    8.9724  -14.8447   20.0084 C   0  0  2  0  0  0  0  0  0  0  0  0
    9.6789  -15.6752   19.0957 N   0  0  0  0  0  0  0  0  0  0  0  0
    8.7463  -15.5949   21.2549 C   0  0  0  0  0  0  0  0  0  0  0  0
    7.8675  -15.2054   22.0639 O   0  0  0  0  0  0  0  0  0  0  0  0
    9.4692  -16.7605   21.6213 N   0  0  0  0  0  0  0  0  0  0  0  0
    9.2430  -17.4148   22.8864 C   0  0  1  0  0  0  0  0  0  0  0  0
   10.0487  -18.6995   23.0094 C   0  0  0  0  0  0  0  0  0  0  0  0
    9.7880  -19.4432   24.2768 C   0  0  0  0  0  0  0  0  0  0  0  0
   10.5474  -20.7264   24.2654 C   0  0  0  0  0  0  0  0  0  0  0  0
   10.3637  -21.5481   25.5113 C   0  0  0  0  0  0  0  0  0  0  0  0
   11.1574  -22.7691   25.3858 N   0  0  0  0  0  0  0  0  0  0  0  0
    9.6489  -16.5654   24.0336 C   0  0  0  0  0  0  0  0  0  0  0  0
   10.7310  -15.9304   23.9613 O   0  0  0  0  0  0  0  0  0  0  0  0
    6.3776  -12.7333   27.1025 C   0  0  0  0  0  0  0  0  0  0  0  0
    7.7376  -13.1530   26.6685 C   0  0  1  0  0  0  0  0  0  0  0  0
    8.6365  -13.0362   27.8995 C   0  0  0  0  0  0  0  0  0  0  0  0
    7.9127  -14.4089   25.9437 C   0  0  0  0  0  0  0  0  0  0  0  0
    9.0898  -15.2756   26.1472 C   0  0  2  0  0  0  0  0  0  0  0  0
    8.8770  -16.4307   25.2132 N   0  0  0  0  0  0  0  0  0  0  0  0
    9.1487  -15.8810   27.4665 C   0  0  0  0  0  0  0  0  0  0  0  0
    8.3312  -16.8361   27.7387 O   0  0  0  0  0  0  0  0  0  0  0  0
    9.9951  -15.5699   28.5124 O   0  0  0  0  0  0  0  0  0  0  0  0
  2  4  1  0
  2  1  1  1
  3  2  1  0
  4  5  1  0
  5  6  1  6
  7  5  1  0
  7  8  2  0
  9  7  1  0
 10  9  1  0
 10 11  1  6
 12 11  1  0
 13 14  1  0
 13 12  1  0
 15 14  1  0
 16 23  1  0
 16 10  1  0
 17 16  2  0
 19 18  1  1
 19 21  1  0
 20 19  1  0
 22 21  1  1
 22 23  1  0
 24 26  1  0
 24 22  1  0
 25 24  2  0
M  END
$$$$
