LKL.pdb
     RDKit          3D

 26 25  0  0  1  0  0  0  0  0999 V2000
    4.6207  -11.8230   26.3857 C   0  0  0  0  0  0  0  0  0  0  0  0
    5.6384  -12.0131   25.2920 C   0  0  1  0  0  0  0  0  0  0  0  0
    6.3878  -10.7445   24.9564 C   0  0  0  0  0  0  0  0  0  0  0  0
    6.5052  -13.1973   25.4511 C   0  0  0  0  0  0  0  0  0  0  0  0
    7.6839  -13.3236   24.5605 C   0  0  2  0  0  0  0  0  0  0  0  0
    7.5271  -12.8297   23.2364 N   0  0  0  0  0  0  0  0  0  0  0  0
    8.1017  -14.7338   24.4942 C   0  0  0  0  0  0  0  0  0  0  0  0
    7.9664  -15.4701   25.5033 O   0  0  0  0  0  0  0  0  0  0  0  0
    8.6629  -15.3414   23.3404 N   0  0  0  0  0  0  0  0  0  0  0  0
    9.2526  -16.6562   23.3986 C   0  0  1  0  0  0  0  0  0  0  0  0
    9.7819  -17.0978   22.0423 C   0  0  0  0  0  0  0  0  0  0  0  0
   10.4084  -18.4522   22.0633 C   0  0  0  0  0  0  0  0  0  0  0  0
    9.6948  -19.3450   21.1057 C   0  0  0  0  0  0  0  0  0  0  0  0
   10.3050  -20.7141   20.9867 C   0  0  0  0  0  0  0  0  0  0  0  0
    9.5286  -21.4884   20.0200 N   0  0  0  0  0  0  0  0  0  0  0  0
   10.4096  -16.7075   24.3264 C   0  0  0  0  0  0  0  0  0  0  0  0
   11.3552  -15.8972   24.1574 O   0  0  0  0  0  0  0  0  0  0  0  0
   12.0696  -14.6094   28.3992 C   0  0  0  0  0  0  0  0  0  0  0  0
   10.8623  -15.4769   28.4640 C   0  0  1  0  0  0  0  0  0  0  0  0
    9.7577  -14.6296   29.0955 C   0  0  0  0  0  0  0  0  0  0  0  0
   10.4243  -16.2009   27.2734 C   0  0  0  0  0  0  0  0  0  0  0  0
   11.2381  -17.2681   26.6593 C   0  0  2  0  0  0  0  0  0  0  0  0
   10.5060  -17.6267   25.3994 N   0  0  0  0  0  0  0  0  0  0  0  0
   11.2627  -18.5002   27.4287 C   0  0  0  0  0  0  0  0  0  0  0  0
   10.2120  -19.2421   27.4298 O   0  0  0  0  0  0  0  0  0  0  0  0
   12.2968  -19.0141   28.1861 O   0  0  0  0  0  0  0  0  0  0  0  0
  2  4  1  0
  2  1  1  1
  3  2  1  0
  4  5  1  0
  5  6  1  6
  7  5  1  0
  7  8  2  0
  9  7  1  0
 10  9  1  0
 10 11  1  6
 12 11  1  0
 13 14  1  0
 13 12  1  0
 15 14  1  0
 16 23  1  0
 16 10  1  0
 17 16  2  0
 19 18  1  6
 19 21  1  0
 20 19  1  0
 22 21  1  1
 22 23  1  0
 24 26  1  0
 24 22  1  0
 25 24  2  0
M  END
$$$$
