LKL.pdb
     RDKit          3D

 26 25  0  0  1  0  0  0  0  0999 V2000
    7.4180  -11.7847   18.6645 C   0  0  0  0  0  0  0  0  0  0  0  0
    8.0870  -13.1339   18.6601 C   0  0  1  0  0  0  0  0  0  0  0  0
    9.5334  -13.0739   18.2265 C   0  0  0  0  0  0  0  0  0  0  0  0
    7.8578  -13.9432   19.8732 C   0  0  0  0  0  0  0  0  0  0  0  0
    8.6243  -15.2033   20.0260 C   0  0  2  0  0  0  0  0  0  0  0  0
    8.3447  -16.2278   19.0805 N   0  0  0  0  0  0  0  0  0  0  0  0
    8.4218  -15.7410   21.3817 C   0  0  0  0  0  0  0  0  0  0  0  0
    7.3884  -15.4307   22.0253 O   0  0  0  0  0  0  0  0  0  0  0  0
    9.3350  -16.6098   22.0348 N   0  0  0  0  0  0  0  0  0  0  0  0
    9.0255  -17.1950   23.3160 C   0  0  1  0  0  0  0  0  0  0  0  0
    9.8033  -18.4811   23.5518 C   0  0  0  0  0  0  0  0  0  0  0  0
    9.3363  -19.6192   22.7068 C   0  0  0  0  0  0  0  0  0  0  0  0
   10.2324  -20.7928   22.9140 C   0  0  0  0  0  0  0  0  0  0  0  0
    9.8127  -22.0162   22.1471 C   0  0  0  0  0  0  0  0  0  0  0  0
   10.8012  -23.0693   22.3718 N   0  0  0  0  0  0  0  0  0  0  0  0
    9.3763  -16.2922   24.4404 C   0  0  0  0  0  0  0  0  0  0  0  0
   10.4869  -15.7045   24.4187 O   0  0  0  0  0  0  0  0  0  0  0  0
    5.6592  -12.9307   26.9464 C   0  0  0  0  0  0  0  0  0  0  0  0
    6.9943  -13.3901   26.4767 C   0  0  1  0  0  0  0  0  0  0  0  0
    7.8870  -12.1496   26.4395 C   0  0  0  0  0  0  0  0  0  0  0  0
    7.6314  -14.5401   27.1134 C   0  0  0  0  0  0  0  0  0  0  0  0
    8.9102  -15.0966   26.6305 C   0  0  2  0  0  0  0  0  0  0  0  0
    8.5208  -16.0555   25.5439 N   0  0  0  0  0  0  0  0  0  0  0  0
    9.5975  -15.9185   27.6117 C   0  0  0  0  0  0  0  0  0  0  0  0
    9.3160  -17.1725   27.6645 O   0  0  0  0  0  0  0  0  0  0  0  0
   10.5536  -15.5326   28.5304 O   0  0  0  0  0  0  0  0  0  0  0  0
  2  4  1  0
  2  1  1  1
  3  2  1  0
  4  5  1  0
  5  6  1  6
  7  5  1  0
  7  8  2  0
  9  7  1  0
 10  9  1  0
 10 11  1  1
 12 11  1  0
 13 14  1  0
 13 12  1  0
 15 14  1  0
 16 23  1  0
 16 10  1  0
 17 16  2  0
 19 18  1  1
 19 21  1  0
 20 19  1  0
 22 21  1  1
 22 23  1  0
 24 26  1  0
 24 22  1  0
 25 24  2  0
M  END
$$$$
