LKL.pdb
     RDKit          3D

 26 25  0  0  1  0  0  0  0  0999 V2000
    6.6799  -12.4109   18.6031 C   0  0  0  0  0  0  0  0  0  0  0  0
    7.9105  -13.2394   18.8627 C   0  0  1  0  0  0  0  0  0  0  0  0
    9.1921  -12.4502   18.7282 C   0  0  0  0  0  0  0  0  0  0  0  0
    7.8478  -14.0792   20.0750 C   0  0  0  0  0  0  0  0  0  0  0  0
    9.0629  -14.8350   20.4635 C   0  0  2  0  0  0  0  0  0  0  0  0
    9.5494  -15.7744   19.5134 N   0  0  0  0  0  0  0  0  0  0  0  0
    8.8227  -15.5311   21.7385 C   0  0  0  0  0  0  0  0  0  0  0  0
    7.8296  -15.2164   22.4408 O   0  0  0  0  0  0  0  0  0  0  0  0
    9.6550  -16.5620   22.2482 N   0  0  0  0  0  0  0  0  0  0  0  0
    9.3468  -17.2275   23.4900 C   0  0  1  0  0  0  0  0  0  0  0  0
   10.1044  -18.5394   23.6304 C   0  0  0  0  0  0  0  0  0  0  0  0
    9.6282  -19.6013   22.6960 C   0  0  0  0  0  0  0  0  0  0  0  0
   10.5031  -20.8022   22.8209 C   0  0  0  0  0  0  0  0  0  0  0  0
   10.1449  -21.9119   21.8715 C   0  0  0  0  0  0  0  0  0  0  0  0
   11.0734  -23.0216   22.0796 N   0  0  0  0  0  0  0  0  0  0  0  0
    9.7232  -16.4090   24.6693 C   0  0  0  0  0  0  0  0  0  0  0  0
   10.8731  -15.9037   24.7111 O   0  0  0  0  0  0  0  0  0  0  0  0
    6.6299  -12.4485   26.7148 C   0  0  0  0  0  0  0  0  0  0  0  0
    7.8996  -13.1960   26.5065 C   0  0  1  0  0  0  0  0  0  0  0  0
    9.0302  -12.1865   26.7054 C   0  0  0  0  0  0  0  0  0  0  0  0
    8.1227  -14.4573   27.2085 C   0  0  0  0  0  0  0  0  0  0  0  0
    9.2836  -15.3218   26.9205 C   0  0  2  0  0  0  0  0  0  0  0  0
    8.8501  -16.1649   25.7573 N   0  0  0  0  0  0  0  0  0  0  0  0
    9.5755  -16.2786   27.9741 C   0  0  0  0  0  0  0  0  0  0  0  0
    9.0087  -17.4323   27.9274 O   0  0  0  0  0  0  0  0  0  0  0  0
   10.4133  -16.1236   29.0610 O   0  0  0  0  0  0  0  0  0  0  0  0
  2  4  1  0
  2  1  1  1
  3  2  1  0
  4  5  1  0
  5  6  1  6
  7  5  1  0
  7  8  2  0
  9  7  1  0
 10  9  1  0
 10 11  1  1
 12 11  1  0
 13 14  1  0
 13 12  1  0
 15 14  1  0
 16 23  1  0
 16 10  1  0
 17 16  2  0
 19 18  1  1
 19 21  1  0
 20 19  1  0
 22 21  1  1
 22 23  1  0
 24 26  1  0
 24 22  1  0
 25 24  2  0
M  END
$$$$
