LKL.pdb
     RDKit          3D

 26 25  0  0  1  0  0  0  0  0999 V2000
    7.7525  -11.9743   19.3339 C   0  0  0  0  0  0  0  0  0  0  0  0
    8.0219  -13.4470   19.1709 C   0  0  1  0  0  0  0  0  0  0  0  0
    9.2347  -13.7339   18.3163 C   0  0  0  0  0  0  0  0  0  0  0  0
    7.9717  -14.2284   20.4223 C   0  0  0  0  0  0  0  0  0  0  0  0
    8.2230  -15.6876   20.3439 C   0  0  2  0  0  0  0  0  0  0  0  0
    7.2143  -16.4662   19.7130 N   0  0  0  0  0  0  0  0  0  0  0  0
    8.4563  -16.2200   21.6967 C   0  0  0  0  0  0  0  0  0  0  0  0
    7.4805  -16.4221   22.4618 O   0  0  0  0  0  0  0  0  0  0  0  0
    9.7404  -16.5311   22.2159 N   0  0  0  0  0  0  0  0  0  0  0  0
    9.8964  -17.1241   23.5213 C   0  0  1  0  0  0  0  0  0  0  0  0
   11.1898  -17.9177   23.6297 C   0  0  0  0  0  0  0  0  0  0  0  0
   11.3514  -18.6107   24.9416 C   0  0  0  0  0  0  0  0  0  0  0  0
   12.6380  -19.3643   24.9507 C   0  0  0  0  0  0  0  0  0  0  0  0
   12.8927  -20.1093   26.2318 C   0  0  0  0  0  0  0  0  0  0  0  0
   14.1019  -20.9147   26.0704 N   0  0  0  0  0  0  0  0  0  0  0  0
    9.9523  -16.1011   24.5950 C   0  0  0  0  0  0  0  0  0  0  0  0
   10.5888  -15.0383   24.3835 O   0  0  0  0  0  0  0  0  0  0  0  0
    6.1270  -13.0914   26.7528 C   0  0  0  0  0  0  0  0  0  0  0  0
    7.5471  -13.4852   26.5471 C   0  0  1  0  0  0  0  0  0  0  0  0
    8.3903  -12.2702   26.9338 C   0  0  0  0  0  0  0  0  0  0  0  0
    8.0430  -14.7359   27.1159 C   0  0  0  0  0  0  0  0  0  0  0  0
    9.4293  -15.1977   26.9087 C   0  0  2  0  0  0  0  0  0  0  0  0
    9.3223  -16.2591   25.8534 N   0  0  0  0  0  0  0  0  0  0  0  0
    9.9948  -15.8833   28.0580 C   0  0  0  0  0  0  0  0  0  0  0  0
   10.6240  -15.1869   28.9375 O   0  0  0  0  0  0  0  0  0  0  0  0
    9.9472  -17.2305   28.3578 O   0  0  0  0  0  0  0  0  0  0  0  0
  2  4  1  0
  2  1  1  1
  3  2  1  0
  4  5  1  0
  5  6  1  1
  7  5  1  0
  7  8  2  0
  9  7  1  0
 10  9  1  0
 10 11  1  6
 12 11  1  0
 13 14  1  0
 13 12  1  0
 15 14  1  0
 16 23  1  0
 16 10  1  0
 17 16  2  0
 19 18  1  1
 19 21  1  0
 20 19  1  0
 22 21  1  1
 22 23  1  0
 24 26  1  0
 24 22  1  0
 25 24  2  0
M  END
$$$$
