LKL.pdb
     RDKit          3D

 26 25  0  0  1  0  0  0  0  0999 V2000
    8.1204  -11.8644   18.6729 C   0  0  0  0  0  0  0  0  0  0  0  0
    8.2770  -13.3464   18.4557 C   0  0  1  0  0  0  0  0  0  0  0  0
    9.5211  -13.7001   17.6742 C   0  0  0  0  0  0  0  0  0  0  0  0
    8.0698  -14.1745   19.6600 C   0  0  0  0  0  0  0  0  0  0  0  0
    8.3626  -15.6252   19.5678 C   0  0  2  0  0  0  0  0  0  0  0  0
    7.4919  -16.3912   18.7451 N   0  0  0  0  0  0  0  0  0  0  0  0
    8.3764  -16.2112   20.9185 C   0  0  0  0  0  0  0  0  0  0  0  0
    7.3036  -16.3068   21.5653 O   0  0  0  0  0  0  0  0  0  0  0  0
    9.5470  -16.6902   21.5632 N   0  0  0  0  0  0  0  0  0  0  0  0
    9.5051  -17.1913   22.9149 C   0  0  1  0  0  0  0  0  0  0  0  0
   10.6381  -18.1687   23.1898 C   0  0  0  0  0  0  0  0  0  0  0  0
   10.5864  -18.7665   24.5562 C   0  0  0  0  0  0  0  0  0  0  0  0
   11.7085  -19.7350   24.7181 C   0  0  0  0  0  0  0  0  0  0  0  0
   11.6930  -20.4633   26.0335 C   0  0  0  0  0  0  0  0  0  0  0  0
   12.0348  -19.5174   27.0943 N   0  0  0  0  0  0  0  0  0  0  0  0
    9.6488  -16.1056   23.9164 C   0  0  0  0  0  0  0  0  0  0  0  0
   10.6734  -15.3791   23.8762 O   0  0  0  0  0  0  0  0  0  0  0  0
    7.9245  -11.8163   26.9709 C   0  0  0  0  0  0  0  0  0  0  0  0
    7.2536  -13.1374   27.1076 C   0  0  1  0  0  0  0  0  0  0  0  0
    5.7639  -12.8460   27.2888 C   0  0  0  0  0  0  0  0  0  0  0  0
    7.5206  -14.1912   26.1320 C   0  0  0  0  0  0  0  0  0  0  0  0
    8.8787  -14.7197   25.8987 C   0  0  2  0  0  0  0  0  0  0  0  0
    8.6866  -15.8424   24.9216 N   0  0  0  0  0  0  0  0  0  0  0  0
    9.4687  -15.3511   27.0665 C   0  0  0  0  0  0  0  0  0  0  0  0
   10.4117  -14.7329   27.6856 O   0  0  0  0  0  0  0  0  0  0  0  0
    9.1458  -16.5675   27.6350 O   0  0  0  0  0  0  0  0  0  0  0  0
  2  4  1  0
  2  1  1  1
  3  2  1  0
  4  5  1  0
  5  6  1  6
  7  5  1  0
  7  8  2  0
  9  7  1  0
 10  9  1  0
 10 11  1  6
 12 11  1  0
 13 14  1  0
 13 12  1  0
 15 14  1  0
 16 23  1  0
 16 10  1  0
 17 16  2  0
 19 18  1  6
 19 21  1  0
 20 19  1  0
 22 21  1  1
 22 23  1  0
 24 26  1  0
 24 22  1  0
 25 24  2  0
M  END
$$$$
