VHR.pdb
     RDKit          3D

 29 29  0  0  1  0  0  0  0  0999 V2000
   19.6104  -12.8996  -17.5511 C   0  0  0  0  0  0  0  0  0  0  0  0
   20.5415  -12.3402  -18.5658 C   0  0  2  0  0  0  0  0  0  0  0  0
   20.5980  -13.3216  -19.7425 C   0  0  0  0  0  0  0  0  0  0  0  0
   21.9311  -12.0409  -18.0575 C   0  0  2  0  0  0  0  0  0  0  0  0
   22.5336  -13.2420  -17.5739 N   0  0  0  0  0  0  0  0  0  0  0  0
   21.8368  -11.0403  -16.9672 C   0  0  0  0  0  0  0  0  0  0  0  0
   21.6071  -11.4252  -15.8146 O   0  0  0  0  0  0  0  0  0  0  0  0
   21.9903   -9.6541  -17.1334 N   0  0  0  0  0  0  0  0  0  0  0  0
   21.9484   -8.6909  -16.1287 C   0  0  1  0  0  0  0  0  0  0  0  0
   23.1379   -7.9279  -15.7044 C   0  0  0  0  0  0  0  0  0  0  0  0
   24.2754   -8.8064  -15.3756 C   0  0  0  0  0  0  0  0  0  0  0  0
   24.3457   -9.7874  -14.4350 C   0  0  0  0  0  0  0  0  0  0  0  0
   25.5598  -10.3804  -14.4571 N   0  0  0  0  0  0  0  0  0  0  0  0
   26.2660   -9.7821  -15.4089 C   0  0  0  0  0  0  0  0  0  0  0  0
   25.5078   -8.8288  -15.9754 N   0  0  0  0  0  0  0  0  0  0  0  0
   20.8114   -7.7711  -16.3416 C   0  0  0  0  0  0  0  0  0  0  0  0
   20.6248   -7.2090  -17.4825 O   0  0  0  0  0  0  0  0  0  0  0  0
   12.8667   -8.7349  -15.1437 N   0  0  0  0  0  0  0  0  0  0  0  0
   12.8325   -7.3482  -15.4672 C   0  0  0  0  0  0  0  0  0  0  0  0
   11.7089   -6.7970  -15.7819 N   0  0  0  0  0  0  0  0  0  0  0  0
   14.0109   -6.5584  -15.4505 N   0  0  0  0  0  0  0  0  0  0  0  0
   15.2946   -7.0932  -15.0329 C   0  0  0  0  0  0  0  0  0  0  0  0
   16.3727   -6.0280  -15.0863 C   0  0  0  0  0  0  0  0  0  0  0  0
   17.6502   -6.6635  -14.6065 C   0  0  0  0  0  0  0  0  0  0  0  0
   18.7772   -6.4788  -15.6262 C   0  0  2  0  0  0  0  0  0  0  0  0
   19.8475   -7.4213  -15.3678 N   0  0  0  0  0  0  0  0  0  0  0  0
   19.3058   -5.1160  -15.4138 C   0  0  0  0  0  0  0  0  0  0  0  0
   20.3843   -4.8865  -14.7942 O   0  0  0  0  0  0  0  0  0  0  0  0
   18.5966   -4.0399  -15.9109 O   0  0  0  0  0  0  0  0  0  0  0  0
  2  1  1  1
  2  4  1  0
  2  3  1  0
  4  5  1  1
  6  4  1  0
  7  6  2  0
  8  6  1  0
  9  8  1  0
  9 10  1  6
 10 11  1  0
 11 12  2  0
 11 15  1  0
 12 13  1  0
 13 14  1  0
 15 14  2  0
 16 26  1  0
 16  9  1  0
 17 16  2  0
 18 19  1  0
 19 21  1  0
 19 20  2  0
 21 22  1  0
 22 23  1  0
 23 24  1  0
 25 24  1  1
 25 26  1  0
 25 27  1  0
 27 29  1  0
 28 27  2  0
M  END
$$$$
