VHR.pdb
     RDKit          3D

 29 29  0  0  1  0  0  0  0  0999 V2000
   27.6390  -19.2688  -13.2270 C   0  0  0  0  0  0  0  0  0  0  0  0
   27.3163  -19.7474  -11.8572 C   0  0  2  0  0  0  0  0  0  0  0  0
   28.5886  -19.6353  -11.0090 C   0  0  0  0  0  0  0  0  0  0  0  0
   26.7543  -21.1469  -11.7883 C   0  0  2  0  0  0  0  0  0  0  0  0
   27.6908  -22.0675  -12.3497 N   0  0  0  0  0  0  0  0  0  0  0  0
   25.4793  -21.1885  -12.5441 C   0  0  0  0  0  0  0  0  0  0  0  0
   25.4962  -21.5166  -13.7363 O   0  0  0  0  0  0  0  0  0  0  0  0
   24.2179  -20.8796  -12.0092 N   0  0  0  0  0  0  0  0  0  0  0  0
   22.9999  -20.9266  -12.6824 C   0  0  1  0  0  0  0  0  0  0  0  0
   21.7220  -21.2096  -12.0013 C   0  0  0  0  0  0  0  0  0  0  0  0
   20.6114  -21.3926  -12.9536 C   0  0  0  0  0  0  0  0  0  0  0  0
   20.0643  -22.5536  -13.4062 C   0  0  0  0  0  0  0  0  0  0  0  0
   19.0467  -22.2988  -14.2580 N   0  0  0  0  0  0  0  0  0  0  0  0
   18.9410  -20.9786  -14.3514 C   0  0  0  0  0  0  0  0  0  0  0  0
   19.8771  -20.4136  -13.5710 N   0  0  0  0  0  0  0  0  0  0  0  0
   22.8499  -19.7487  -13.5624 C   0  0  0  0  0  0  0  0  0  0  0  0
   23.3394  -18.6090  -13.2250 O   0  0  0  0  0  0  0  0  0  0  0  0
   24.9187  -13.8775  -17.3926 N   0  0  0  0  0  0  0  0  0  0  0  0
   25.4108  -14.7873  -18.3717 C   0  0  0  0  0  0  0  0  0  0  0  0
   25.9409  -14.3288  -19.4552 N   0  0  0  0  0  0  0  0  0  0  0  0
   25.3300  -16.1907  -18.1800 N   0  0  0  0  0  0  0  0  0  0  0  0
   24.8630  -16.7758  -16.9358 C   0  0  0  0  0  0  0  0  0  0  0  0
   24.9099  -18.2905  -16.9940 C   0  0  0  0  0  0  0  0  0  0  0  0
   24.2452  -18.8045  -15.7450 C   0  0  0  0  0  0  0  0  0  0  0  0
   22.8028  -19.2357  -16.0230 C   0  0  2  0  0  0  0  0  0  0  0  0
   22.1867  -19.7387  -14.8113 N   0  0  0  0  0  0  0  0  0  0  0  0
   22.8848  -20.3485  -16.9909 C   0  0  0  0  0  0  0  0  0  0  0  0
   23.7707  -21.2491  -16.9287 O   0  0  0  0  0  0  0  0  0  0  0  0
   21.9566  -20.4151  -18.0116 O   0  0  0  0  0  0  0  0  0  0  0  0
  2  1  1  6
  2  4  1  0
  2  3  1  0
  4  5  1  6
  6  4  1  0
  7  6  2  0
  8  6  1  0
  9  8  1  0
  9 10  1  1
 10 11  1  0
 11 12  2  0
 11 15  1  0
 12 13  1  0
 13 14  1  0
 15 14  2  0
 16 26  1  0
 16  9  1  0
 17 16  2  0
 18 19  1  0
 19 21  1  0
 19 20  2  0
 21 22  1  0
 22 23  1  0
 23 24  1  0
 25 24  1  1
 25 26  1  0
 25 27  1  0
 27 29  1  0
 28 27  2  0
M  END
$$$$
