VHR.pdb
     RDKit          3D

 29 29  0  0  1  0  0  0  0  0999 V2000
   32.6951   -9.5695  -17.5779 C   0  0  0  0  0  0  0  0  0  0  0  0
   31.3081   -9.6447  -18.1073 C   0  0  2  0  0  0  0  0  0  0  0  0
   30.5292   -8.4453  -17.5545 C   0  0  0  0  0  0  0  0  0  0  0  0
   30.5814  -10.9333  -17.8065 C   0  0  2  0  0  0  0  0  0  0  0  0
   31.3114  -12.0335  -18.3506 N   0  0  0  0  0  0  0  0  0  0  0  0
   29.2269  -10.8704  -18.4068 C   0  0  0  0  0  0  0  0  0  0  0  0
   29.1011  -11.0266  -19.6271 O   0  0  0  0  0  0  0  0  0  0  0  0
   28.0404  -10.6431  -17.6903 N   0  0  0  0  0  0  0  0  0  0  0  0
   26.7514  -10.6058  -18.2154 C   0  0  1  0  0  0  0  0  0  0  0  0
   26.0218  -11.8206  -18.6268 C   0  0  0  0  0  0  0  0  0  0  0  0
   25.9919  -12.8401  -17.5622 C   0  0  0  0  0  0  0  0  0  0  0  0
   26.5556  -12.7914  -16.3245 C   0  0  0  0  0  0  0  0  0  0  0  0
   26.2843  -13.9209  -15.6342 N   0  0  0  0  0  0  0  0  0  0  0  0
   25.5486  -14.6917  -16.4262 C   0  0  0  0  0  0  0  0  0  0  0  0
   25.3610  -14.0566  -17.5949 N   0  0  0  0  0  0  0  0  0  0  0  0
   25.8780   -9.7536  -17.3817 C   0  0  0  0  0  0  0  0  0  0  0  0
   26.0937   -9.6252  -16.1211 O   0  0  0  0  0  0  0  0  0  0  0  0
   19.5457   -3.5867  -18.9853 N   0  0  0  0  0  0  0  0  0  0  0  0
   19.6700   -3.6906  -17.5702 C   0  0  0  0  0  0  0  0  0  0  0  0
   18.9823   -2.9039  -16.8128 N   0  0  0  0  0  0  0  0  0  0  0  0
   20.5362   -4.6433  -16.9745 N   0  0  0  0  0  0  0  0  0  0  0  0
   21.2939   -5.5989  -17.7626 C   0  0  0  0  0  0  0  0  0  0  0  0
   22.1138   -6.5121  -16.8718 C   0  0  0  0  0  0  0  0  0  0  0  0
   22.9474   -7.3824  -17.7738 C   0  0  0  0  0  0  0  0  0  0  0  0
   23.8797   -8.2868  -16.9634 C   0  0  2  0  0  0  0  0  0  0  0  0
   24.7635   -9.0189  -17.8485 N   0  0  0  0  0  0  0  0  0  0  0  0
   23.0108   -9.2624  -16.2742 C   0  0  0  0  0  0  0  0  0  0  0  0
   22.6457  -10.3513  -16.8040 O   0  0  0  0  0  0  0  0  0  0  0  0
   22.5739   -8.9801  -14.9947 O   0  0  0  0  0  0  0  0  0  0  0  0
  2  1  1  1
  2  4  1  0
  2  3  1  0
  4  5  1  6
  6  4  1  0
  7  6  2  0
  8  6  1  0
  9  8  1  0
  9 10  1  1
 10 11  1  0
 11 12  2  0
 11 15  1  0
 12 13  1  0
 13 14  1  0
 15 14  2  0
 16 26  1  0
 16  9  1  0
 17 16  2  0
 18 19  1  0
 19 21  1  0
 19 20  2  0
 21 22  1  0
 22 23  1  0
 23 24  1  0
 25 24  1  6
 25 26  1  0
 25 27  1  0
 27 29  1  0
 28 27  2  0
M  END
$$$$
