VHR.pdb
     RDKit          3D

 29 29  0  0  1  0  0  0  0  0999 V2000
   26.0749  -16.6933  -23.0116 C   0  0  0  0  0  0  0  0  0  0  0  0
   25.1394  -16.9949  -21.8964 C   0  0  2  0  0  0  0  0  0  0  0  0
   24.9425  -15.7072  -21.0878 C   0  0  0  0  0  0  0  0  0  0  0  0
   25.5685  -18.1271  -20.9947 C   0  0  2  0  0  0  0  0  0  0  0  0
   26.8520  -17.8375  -20.4395 N   0  0  0  0  0  0  0  0  0  0  0  0
   25.6248  -19.3774  -21.7900 C   0  0  0  0  0  0  0  0  0  0  0  0
   24.7073  -19.6309  -22.5796 O   0  0  0  0  0  0  0  0  0  0  0  0
   26.6586  -20.3258  -21.7238 N   0  0  0  0  0  0  0  0  0  0  0  0
   26.7415  -21.5111  -22.4497 C   0  0  1  0  0  0  0  0  0  0  0  0
   27.9895  -21.9693  -23.0898 C   0  0  0  0  0  0  0  0  0  0  0  0
   28.3395  -21.1601  -24.2715 C   0  0  0  0  0  0  0  0  0  0  0  0
   27.6233  -20.1636  -24.8600 C   0  0  0  0  0  0  0  0  0  0  0  0
   28.2976  -19.6526  -25.9137 N   0  0  0  0  0  0  0  0  0  0  0  0
   29.4427  -20.3188  -26.0008 C   0  0  0  0  0  0  0  0  0  0  0  0
   29.4869  -21.2333  -25.0179 N   0  0  0  0  0  0  0  0  0  0  0  0
   26.1262  -22.6232  -21.6956 C   0  0  0  0  0  0  0  0  0  0  0  0
   26.2964  -22.7305  -20.4260 O   0  0  0  0  0  0  0  0  0  0  0  0
   18.2888  -24.4211  -23.3936 N   0  0  0  0  0  0  0  0  0  0  0  0
   19.2315  -24.4308  -24.4613 C   0  0  0  0  0  0  0  0  0  0  0  0
   18.8168  -24.2965  -25.6759 N   0  0  0  0  0  0  0  0  0  0  0  0
   20.6204  -24.5855  -24.2166 N   0  0  0  0  0  0  0  0  0  0  0  0
   21.1661  -24.6539  -22.8727 C   0  0  0  0  0  0  0  0  0  0  0  0
   22.6711  -24.8375  -22.9039 C   0  0  0  0  0  0  0  0  0  0  0  0
   23.1810  -24.5686  -21.5133 C   0  0  0  0  0  0  0  0  0  0  0  0
   24.7064  -24.6834  -21.4513 C   0  0  2  0  0  0  0  0  0  0  0  0
   25.3212  -23.6438  -22.2525 N   0  0  0  0  0  0  0  0  0  0  0  0
   25.0462  -25.9880  -22.0551 C   0  0  0  0  0  0  0  0  0  0  0  0
   25.6289  -26.0968  -23.1724 O   0  0  0  0  0  0  0  0  0  0  0  0
   24.7164  -27.1443  -21.3753 O   0  0  0  0  0  0  0  0  0  0  0  0
  2  1  1  6
  2  4  1  0
  2  3  1  0
  4  5  1  6
  6  4  1  0
  7  6  2  0
  8  6  1  0
  9  8  1  0
  9 10  1  1
 10 11  1  0
 11 12  2  0
 11 15  1  0
 12 13  1  0
 13 14  1  0
 15 14  2  0
 16 26  1  0
 16  9  1  0
 17 16  2  0
 18 19  1  0
 19 21  1  0
 19 20  2  0
 21 22  1  0
 22 23  1  0
 23 24  1  0
 25 24  1  6
 25 26  1  0
 25 27  1  0
 27 29  1  0
 28 27  2  0
M  END
$$$$
