VHR.pdb
     RDKit          3D

 29 29  0  0  1  0  0  0  0  0999 V2000
   44.8857   -8.6532   -4.6693 C   0  0  0  0  0  0  0  0  0  0  0  0
   44.7549  -10.0616   -4.2123 C   0  0  2  0  0  0  0  0  0  0  0  0
   45.2390  -10.1303   -2.7591 C   0  0  0  0  0  0  0  0  0  0  0  0
   45.4816  -11.0761   -5.0620 C   0  0  2  0  0  0  0  0  0  0  0  0
   46.8835  -10.8049   -5.0384 N   0  0  0  0  0  0  0  0  0  0  0  0
   44.9672  -10.9940   -6.4503 C   0  0  0  0  0  0  0  0  0  0  0  0
   45.6183  -10.3719   -7.2980 O   0  0  0  0  0  0  0  0  0  0  0  0
   43.7717  -11.5780   -6.9000 N   0  0  0  0  0  0  0  0  0  0  0  0
   43.1714  -11.3826   -8.1411 C   0  0  1  0  0  0  0  0  0  0  0  0
   42.2635  -12.3718   -8.7530 C   0  0  0  0  0  0  0  0  0  0  0  0
   41.8993  -12.0133  -10.1360 C   0  0  0  0  0  0  0  0  0  0  0  0
   42.3367  -10.9637  -10.8837 C   0  0  0  0  0  0  0  0  0  0  0  0
   41.7811  -10.9937  -12.1152 N   0  0  0  0  0  0  0  0  0  0  0  0
   40.9901  -12.0591  -12.1575 C   0  0  0  0  0  0  0  0  0  0  0  0
   41.0479  -12.6880  -10.9719 N   0  0  0  0  0  0  0  0  0  0  0  0
   42.5708  -10.0344   -8.2184 C   0  0  0  0  0  0  0  0  0  0  0  0
   41.6320   -9.6854   -7.4126 O   0  0  0  0  0  0  0  0  0  0  0  0
   45.0524   -2.0776   -6.8118 N   0  0  0  0  0  0  0  0  0  0  0  0
   43.7348   -1.9091   -7.3258 C   0  0  0  0  0  0  0  0  0  0  0  0
   43.1878   -0.7406   -7.3002 N   0  0  0  0  0  0  0  0  0  0  0  0
   43.0095   -3.0019   -7.8666 N   0  0  0  0  0  0  0  0  0  0  0  0
   43.5787   -4.3339   -7.9675 C   0  0  0  0  0  0  0  0  0  0  0  0
   42.5927   -5.3025   -8.5914 C   0  0  0  0  0  0  0  0  0  0  0  0
   43.2419   -6.6607   -8.5903 C   0  0  0  0  0  0  0  0  0  0  0  0
   42.3040   -7.7229   -9.1699 C   0  0  2  0  0  0  0  0  0  0  0  0
   42.9394   -9.0252   -9.1377 N   0  0  0  0  0  0  0  0  0  0  0  0
   42.0873   -7.3539  -10.5837 C   0  0  0  0  0  0  0  0  0  0  0  0
   41.4787   -6.3017  -10.9333 O   0  0  0  0  0  0  0  0  0  0  0  0
   42.5674   -8.1898  -11.5729 O   0  0  0  0  0  0  0  0  0  0  0  0
  2  1  1  6
  2  4  1  0
  2  3  1  0
  4  5  1  6
  6  4  1  0
  7  6  2  0
  8  6  1  0
  9  8  1  0
  9 10  1  1
 10 11  1  0
 11 12  2  0
 11 15  1  0
 12 13  1  0
 13 14  1  0
 15 14  2  0
 16 26  1  0
 16  9  1  0
 17 16  2  0
 18 19  1  0
 19 21  1  0
 19 20  2  0
 21 22  1  0
 22 23  1  0
 23 24  1  0
 25 24  1  6
 25 26  1  0
 25 27  1  0
 27 29  1  0
 28 27  2  0
M  END
$$$$
