VHR.pdb
     RDKit          3D

 29 29  0  0  1  0  0  0  0  0999 V2000
   20.5184  -15.3523  -14.2857 C   0  0  0  0  0  0  0  0  0  0  0  0
   19.3614  -15.5444  -15.1990 C   0  0  2  0  0  0  0  0  0  0  0  0
   18.6438  -16.8338  -14.7826 C   0  0  0  0  0  0  0  0  0  0  0  0
   19.7095  -15.5817  -16.6675 C   0  0  2  0  0  0  0  0  0  0  0  0
   20.5916  -16.6753  -16.9233 N   0  0  0  0  0  0  0  0  0  0  0  0
   20.3600  -14.3016  -17.0379 C   0  0  0  0  0  0  0  0  0  0  0  0
   21.5939  -14.2497  -17.1031 O   0  0  0  0  0  0  0  0  0  0  0  0
   19.6781  -13.1090  -17.3301 N   0  0  0  0  0  0  0  0  0  0  0  0
   20.2505  -11.9091  -17.7442 C   0  0  1  0  0  0  0  0  0  0  0  0
   19.7872  -11.1735  -18.9364 C   0  0  0  0  0  0  0  0  0  0  0  0
   19.8791  -11.9860  -20.1632 C   0  0  0  0  0  0  0  0  0  0  0  0
   20.9652  -12.6226  -20.6800 C   0  0  0  0  0  0  0  0  0  0  0  0
   20.6352  -13.2815  -21.8128 N   0  0  0  0  0  0  0  0  0  0  0  0
   19.3415  -13.0686  -22.0218 C   0  0  0  0  0  0  0  0  0  0  0  0
   18.8668  -12.2886  -21.0365 N   0  0  0  0  0  0  0  0  0  0  0  0
   20.3870  -10.9804  -16.6026 C   0  0  0  0  0  0  0  0  0  0  0  0
   19.4119  -10.7941  -15.7861 O   0  0  0  0  0  0  0  0  0  0  0  0
   27.3969  -11.7015  -15.2096 N   0  0  0  0  0  0  0  0  0  0  0  0
   27.4541  -10.5129  -15.9923 C   0  0  0  0  0  0  0  0  0  0  0  0
   28.3463  -10.4047  -16.9184 N   0  0  0  0  0  0  0  0  0  0  0  0
   26.5483   -9.4429  -15.7746 N   0  0  0  0  0  0  0  0  0  0  0  0
   25.4478   -9.5408  -14.8324 C   0  0  0  0  0  0  0  0  0  0  0  0
   24.1113   -9.4739  -15.5460 C   0  0  0  0  0  0  0  0  0  0  0  0
   23.0399   -9.5241  -14.4897 C   0  0  0  0  0  0  0  0  0  0  0  0
   21.6456   -9.3976  -15.1092 C   0  0  2  0  0  0  0  0  0  0  0  0
   21.5442  -10.2294  -16.2918 N   0  0  0  0  0  0  0  0  0  0  0  0
   21.5071   -7.9878  -15.5277 C   0  0  0  0  0  0  0  0  0  0  0  0
   21.4960   -7.6294  -16.7407 O   0  0  0  0  0  0  0  0  0  0  0  0
   21.3838   -7.0125  -14.5575 O   0  0  0  0  0  0  0  0  0  0  0  0
  2  1  1  1
  2  4  1  0
  2  3  1  0
  4  5  1  1
  6  4  1  0
  7  6  2  0
  8  6  1  0
  9  8  1  0
  9 10  1  6
 10 11  1  0
 11 12  2  0
 11 15  1  0
 12 13  1  0
 13 14  1  0
 15 14  2  0
 16 26  1  0
 16  9  1  0
 17 16  2  0
 18 19  1  0
 19 21  1  0
 19 20  2  0
 21 22  1  0
 22 23  1  0
 23 24  1  0
 25 24  1  6
 25 26  1  0
 25 27  1  0
 27 29  1  0
 28 27  2  0
M  END
$$$$
