VHR.pdb
     RDKit          3D

 29 29  0  0  1  0  0  0  0  0999 V2000
   20.4181  -13.1415  -16.4117 C   0  0  0  0  0  0  0  0  0  0  0  0
   18.9958  -12.7832  -16.1698 C   0  0  2  0  0  0  0  0  0  0  0  0
   18.1292  -13.9551  -16.6457 C   0  0  0  0  0  0  0  0  0  0  0  0
   18.5460  -11.4945  -16.8148 C   0  0  2  0  0  0  0  0  0  0  0  0
   18.6696  -11.6001  -18.2336 N   0  0  0  0  0  0  0  0  0  0  0  0
   19.3900  -10.3856  -16.3082 C   0  0  0  0  0  0  0  0  0  0  0  0
   19.3385  -10.0889  -15.1087 O   0  0  0  0  0  0  0  0  0  0  0  0
   20.2685   -9.6212  -17.0935 N   0  0  0  0  0  0  0  0  0  0  0  0
   21.0490   -8.5528  -16.6598 C   0  0  1  0  0  0  0  0  0  0  0  0
   22.5235   -8.5677  -16.7146 C   0  0  0  0  0  0  0  0  0  0  0  0
   23.0987   -9.6842  -15.9423 C   0  0  0  0  0  0  0  0  0  0  0  0
   22.4503  -10.6823  -15.2824 C   0  0  0  0  0  0  0  0  0  0  0  0
   23.3363  -11.5276  -14.7110 N   0  0  0  0  0  0  0  0  0  0  0  0
   24.5491  -11.0736  -15.0037 C   0  0  0  0  0  0  0  0  0  0  0  0
   24.4268   -9.9612  -15.7466 N   0  0  0  0  0  0  0  0  0  0  0  0
   20.5387   -7.2813  -17.2140 C   0  0  0  0  0  0  0  0  0  0  0  0
   20.3331   -7.1493  -18.4760 O   0  0  0  0  0  0  0  0  0  0  0  0
   13.7398   -3.9479  -14.1378 N   0  0  0  0  0  0  0  0  0  0  0  0
   13.8188   -5.1422  -14.9098 C   0  0  0  0  0  0  0  0  0  0  0  0
   12.7810   -5.9024  -15.0118 N   0  0  0  0  0  0  0  0  0  0  0  0
   15.0177   -5.5144  -15.5708 N   0  0  0  0  0  0  0  0  0  0  0  0
   16.2073   -4.6823  -15.5417 C   0  0  0  0  0  0  0  0  0  0  0  0
   17.3412   -5.3246  -16.3172 C   0  0  0  0  0  0  0  0  0  0  0  0
   18.5204   -4.3924  -16.2351 C   0  0  0  0  0  0  0  0  0  0  0  0
   19.6990   -4.9169  -17.0596 C   0  0  2  0  0  0  0  0  0  0  0  0
   20.2328   -6.1241  -16.4611 N   0  0  0  0  0  0  0  0  0  0  0  0
   20.7430   -3.8738  -16.9958 C   0  0  0  0  0  0  0  0  0  0  0  0
   21.8522   -4.0471  -16.4133 O   0  0  0  0  0  0  0  0  0  0  0  0
   20.5045   -2.6531  -17.5964 O   0  0  0  0  0  0  0  0  0  0  0  0
  2  1  1  6
  2  4  1  0
  2  3  1  0
  4  5  1  6
  6  4  1  0
  7  6  2  0
  8  6  1  0
  9  8  1  0
  9 10  1  6
 10 11  1  0
 11 12  2  0
 11 15  1  0
 12 13  1  0
 13 14  1  0
 15 14  2  0
 16 26  1  0
 16  9  1  0
 17 16  2  0
 18 19  1  0
 19 21  1  0
 19 20  2  0
 21 22  1  0
 22 23  1  0
 23 24  1  0
 25 24  1  1
 25 26  1  0
 25 27  1  0
 27 29  1  0
 28 27  2  0
M  END
$$$$
