VHR.pdb
     RDKit          3D

 29 29  0  0  1  0  0  0  0  0999 V2000
   26.7551  -15.8957  -16.6914 C   0  0  0  0  0  0  0  0  0  0  0  0
   25.5249  -16.1542  -15.8980 C   0  0  2  0  0  0  0  0  0  0  0  0
   25.9198  -16.1855  -14.4168 C   0  0  0  0  0  0  0  0  0  0  0  0
   24.7775  -17.4107  -16.2744 C   0  0  2  0  0  0  0  0  0  0  0  0
   24.6455  -17.4825  -17.6946 N   0  0  0  0  0  0  0  0  0  0  0  0
   23.4391  -17.3807  -15.6365 C   0  0  0  0  0  0  0  0  0  0  0  0
   23.3535  -17.5114  -14.4097 O   0  0  0  0  0  0  0  0  0  0  0  0
   22.2256  -17.2115  -16.3231 N   0  0  0  0  0  0  0  0  0  0  0  0
   20.9608  -17.0993  -15.7518 C   0  0  1  0  0  0  0  0  0  0  0  0
   19.9617  -16.1157  -16.2119 C   0  0  0  0  0  0  0  0  0  0  0  0
   20.3554  -14.7309  -15.8941 C   0  0  0  0  0  0  0  0  0  0  0  0
   21.4566  -14.2944  -15.2241 C   0  0  0  0  0  0  0  0  0  0  0  0
   21.4671  -12.9448  -15.1561 N   0  0  0  0  0  0  0  0  0  0  0  0
   20.3764  -12.5169  -15.7806 C   0  0  0  0  0  0  0  0  0  0  0  0
   19.6920  -13.5804  -16.2334 N   0  0  0  0  0  0  0  0  0  0  0  0
   20.3322  -18.4305  -15.6219 C   0  0  0  0  0  0  0  0  0  0  0  0
   20.4883  -19.3233  -16.5334 O   0  0  0  0  0  0  0  0  0  0  0  0
   17.6585  -24.6140  -10.9970 N   0  0  0  0  0  0  0  0  0  0  0  0
   18.6984  -25.2595  -11.7255 C   0  0  0  0  0  0  0  0  0  0  0  0
   18.6458  -26.5354  -11.9117 N   0  0  0  0  0  0  0  0  0  0  0  0
   19.7935  -24.5271  -12.2518 N   0  0  0  0  0  0  0  0  0  0  0  0
   19.8855  -23.0827  -12.1354 C   0  0  0  0  0  0  0  0  0  0  0  0
   19.1563  -22.3963  -13.2742 C   0  0  0  0  0  0  0  0  0  0  0  0
   19.7270  -21.0086  -13.3956 C   0  0  0  0  0  0  0  0  0  0  0  0
   18.9742  -20.1907  -14.4484 C   0  0  2  0  0  0  0  0  0  0  0  0
   19.5294  -18.8549  -14.5379 N   0  0  0  0  0  0  0  0  0  0  0  0
   17.5832  -20.0770  -13.9645 C   0  0  0  0  0  0  0  0  0  0  0  0
   17.1031  -19.0027  -13.5004 O   0  0  0  0  0  0  0  0  0  0  0  0
   16.7648  -21.1884  -14.0181 O   0  0  0  0  0  0  0  0  0  0  0  0
  2  1  1  6
  2  4  1  0
  2  3  1  0
  4  5  1  6
  6  4  1  0
  7  6  2  0
  8  6  1  0
  9  8  1  0
  9 10  1  6
 10 11  1  0
 11 12  2  0
 11 15  1  0
 12 13  1  0
 13 14  1  0
 15 14  2  0
 16 26  1  0
 16  9  1  0
 17 16  2  0
 18 19  1  0
 19 21  1  0
 19 20  2  0
 21 22  1  0
 22 23  1  0
 23 24  1  0
 25 24  1  1
 25 26  1  0
 25 27  1  0
 27 29  1  0
 28 27  2  0
M  END
$$$$
