VHR.pdb
     RDKit          3D

 29 29  0  0  1  0  0  0  0  0999 V2000
   31.6453  -12.1858  -20.4985 C   0  0  0  0  0  0  0  0  0  0  0  0
   32.0146  -11.1444  -19.5042 C   0  0  2  0  0  0  0  0  0  0  0  0
   32.7920  -10.0470  -20.2406 C   0  0  0  0  0  0  0  0  0  0  0  0
   32.8021  -11.6477  -18.3186 C   0  0  2  0  0  0  0  0  0  0  0  0
   32.0433  -12.6392  -17.6253 N   0  0  0  0  0  0  0  0  0  0  0  0
   33.0956  -10.5058  -17.4193 C   0  0  0  0  0  0  0  0  0  0  0  0
   32.1885  -10.0433  -16.7173 O   0  0  0  0  0  0  0  0  0  0  0  0
   34.3495   -9.8862  -17.2906 N   0  0  0  0  0  0  0  0  0  0  0  0
   34.6622   -8.8179  -16.4542 C   0  0  1  0  0  0  0  0  0  0  0  0
   35.9797   -8.6707  -15.8062 C   0  0  0  0  0  0  0  0  0  0  0  0
   36.2380   -9.7360  -14.8203 C   0  0  0  0  0  0  0  0  0  0  0  0
   35.4275  -10.7650  -14.4510 C   0  0  0  0  0  0  0  0  0  0  0  0
   36.0372  -11.5423  -13.5288 N   0  0  0  0  0  0  0  0  0  0  0  0
   37.2348  -11.0138  -13.3074 C   0  0  0  0  0  0  0  0  0  0  0  0
   37.3751   -9.9224  -14.0779 N   0  0  0  0  0  0  0  0  0  0  0  0
   34.2638   -7.5388  -17.0783 C   0  0  0  0  0  0  0  0  0  0  0  0
   34.5907   -7.2692  -18.2919 O   0  0  0  0  0  0  0  0  0  0  0  0
   26.9025   -3.4379  -18.6923 N   0  0  0  0  0  0  0  0  0  0  0  0
   27.9123   -2.6667  -19.3359 C   0  0  0  0  0  0  0  0  0  0  0  0
   27.5707   -1.7310  -20.1562 N   0  0  0  0  0  0  0  0  0  0  0  0
   29.2894   -2.9066  -19.0933 N   0  0  0  0  0  0  0  0  0  0  0  0
   29.7511   -4.0396  -18.3111 C   0  0  0  0  0  0  0  0  0  0  0  0
   31.2567   -4.0026  -18.1339 C   0  0  0  0  0  0  0  0  0  0  0  0
   31.6478   -5.2511  -17.3893 C   0  0  0  0  0  0  0  0  0  0  0  0
   33.1538   -5.2836  -17.1157 C   0  0  2  0  0  0  0  0  0  0  0  0
   33.5163   -6.5175  -16.4475 N   0  0  0  0  0  0  0  0  0  0  0  0
   33.4288   -4.1645  -16.1916 C   0  0  0  0  0  0  0  0  0  0  0  0
   33.6334   -4.3299  -14.9544 O   0  0  0  0  0  0  0  0  0  0  0  0
   33.4658   -2.8781  -16.6933 O   0  0  0  0  0  0  0  0  0  0  0  0
  2  1  1  6
  2  4  1  0
  2  3  1  0
  4  5  1  1
  6  4  1  0
  7  6  2  0
  8  6  1  0
  9  8  1  0
  9 10  1  6
 10 11  1  0
 11 12  2  0
 11 15  1  0
 12 13  1  0
 13 14  1  0
 15 14  2  0
 16 26  1  0
 16  9  1  0
 17 16  2  0
 18 19  1  0
 19 21  1  0
 19 20  2  0
 21 22  1  0
 22 23  1  0
 23 24  1  0
 25 24  1  1
 25 26  1  0
 25 27  1  0
 27 29  1  0
 28 27  2  0
M  END
$$$$
