VHR.pdb
     RDKit          3D

 29 29  0  0  1  0  0  0  0  0999 V2000
   20.2548  -22.7922  -18.6906 C   0  0  0  0  0  0  0  0  0  0  0  0
   20.4655  -21.3656  -19.0514 C   0  0  2  0  0  0  0  0  0  0  0  0
   20.4916  -21.2674  -20.5813 C   0  0  0  0  0  0  0  0  0  0  0  0
   21.7026  -20.7355  -18.4583 C   0  0  2  0  0  0  0  0  0  0  0  0
   22.8635  -21.4156  -18.9370 N   0  0  0  0  0  0  0  0  0  0  0  0
   21.6264  -20.8303  -16.9804 C   0  0  0  0  0  0  0  0  0  0  0  0
   22.1095  -21.8181  -16.4145 O   0  0  0  0  0  0  0  0  0  0  0  0
   21.0374  -19.8688  -16.1430 N   0  0  0  0  0  0  0  0  0  0  0  0
   20.9908  -19.9008  -14.7518 C   0  0  1  0  0  0  0  0  0  0  0  0
   20.9192  -18.6792  -13.9273 C   0  0  0  0  0  0  0  0  0  0  0  0
   21.1082  -18.9630  -12.4929 C   0  0  0  0  0  0  0  0  0  0  0  0
   21.3613  -20.1567  -11.8903 C   0  0  0  0  0  0  0  0  0  0  0  0
   21.4899  -19.9965  -10.5546 N   0  0  0  0  0  0  0  0  0  0  0  0
   21.3203  -18.7043  -10.3013 C   0  0  0  0  0  0  0  0  0  0  0  0
   21.0888  -18.0634  -11.4589 N   0  0  0  0  0  0  0  0  0  0  0  0
   19.9822  -20.8778  -14.2906 C   0  0  0  0  0  0  0  0  0  0  0  0
   18.7912  -20.8713  -14.7740 O   0  0  0  0  0  0  0  0  0  0  0  0
   18.8528  -27.6878   -9.6909 N   0  0  0  0  0  0  0  0  0  0  0  0
   18.0323  -27.9355  -10.8285 C   0  0  0  0  0  0  0  0  0  0  0  0
   17.1425  -28.8689  -10.7786 N   0  0  0  0  0  0  0  0  0  0  0  0
   18.1732  -27.1756  -12.0182 N   0  0  0  0  0  0  0  0  0  0  0  0
   19.1716  -26.1300  -12.1544 C   0  0  0  0  0  0  0  0  0  0  0  0
   18.7009  -24.8396  -11.5118 C   0  0  0  0  0  0  0  0  0  0  0  0
   19.7124  -23.7780  -11.8527 C   0  0  0  0  0  0  0  0  0  0  0  0
   19.1661  -22.8112  -12.9066 C   0  0  2  0  0  0  0  0  0  0  0  0
   20.1983  -21.8801  -13.3168 N   0  0  0  0  0  0  0  0  0  0  0  0
   18.0931  -22.0424  -12.2436 C   0  0  0  0  0  0  0  0  0  0  0  0
   18.3194  -21.0259  -11.5257 O   0  0  0  0  0  0  0  0  0  0  0  0
   16.7825  -22.4452  -12.4103 O   0  0  0  0  0  0  0  0  0  0  0  0
  2  1  1  6
  2  4  1  0
  2  3  1  0
  4  5  1  6
  6  4  1  0
  7  6  2  0
  8  6  1  0
  9  8  1  0
  9 10  1  6
 10 11  1  0
 11 12  2  0
 11 15  1  0
 12 13  1  0
 13 14  1  0
 15 14  2  0
 16 26  1  0
 16  9  1  0
 17 16  2  0
 18 19  1  0
 19 21  1  0
 19 20  2  0
 21 22  1  0
 22 23  1  0
 23 24  1  0
 25 24  1  1
 25 26  1  0
 25 27  1  0
 27 29  1  0
 28 27  2  0
M  END
$$$$
