VHR.pdb
     RDKit          3D

 29 29  0  0  1  0  0  0  0  0999 V2000
   17.8467  -12.2008  -24.6435 C   0  0  0  0  0  0  0  0  0  0  0  0
   19.1704  -12.0500  -23.9841 C   0  0  2  0  0  0  0  0  0  0  0  0
   20.2525  -12.2878  -25.0440 C   0  0  0  0  0  0  0  0  0  0  0  0
   19.3918  -12.9462  -22.7896 C   0  0  2  0  0  0  0  0  0  0  0  0
   19.1546  -14.3051  -23.1595 N   0  0  0  0  0  0  0  0  0  0  0  0
   18.4624  -12.5402  -21.7078 C   0  0  0  0  0  0  0  0  0  0  0  0
   17.3102  -12.9895  -21.7034 O   0  0  0  0  0  0  0  0  0  0  0  0
   18.7854  -11.6656  -20.6574 N   0  0  0  0  0  0  0  0  0  0  0  0
   17.9644  -11.3191  -19.5875 C   0  0  1  0  0  0  0  0  0  0  0  0
   17.9709  -12.0515  -18.3066 C   0  0  0  0  0  0  0  0  0  0  0  0
   17.7087  -13.4911  -18.4864 C   0  0  0  0  0  0  0  0  0  0  0  0
   18.6038  -14.5017  -18.6587 C   0  0  0  0  0  0  0  0  0  0  0  0
   17.9657  -15.6879  -18.7678 N   0  0  0  0  0  0  0  0  0  0  0  0
   16.6656  -15.4393  -18.6655 C   0  0  0  0  0  0  0  0  0  0  0  0
   16.4900  -14.1184  -18.4950 N   0  0  0  0  0  0  0  0  0  0  0  0
   18.0311   -9.8645  -19.3346 C   0  0  0  0  0  0  0  0  0  0  0  0
   19.1527   -9.2387  -19.3860 O   0  0  0  0  0  0  0  0  0  0  0  0
   11.9902   -3.2274  -18.8463 N   0  0  0  0  0  0  0  0  0  0  0  0
   13.2637   -2.6362  -18.6065 C   0  0  0  0  0  0  0  0  0  0  0  0
   13.3489   -1.3605  -18.4315 N   0  0  0  0  0  0  0  0  0  0  0  0
   14.4434   -3.4227  -18.5558 N   0  0  0  0  0  0  0  0  0  0  0  0
   14.4218   -4.8624  -18.7439 C   0  0  0  0  0  0  0  0  0  0  0  0
   15.8078   -5.4549  -18.5775 C   0  0  0  0  0  0  0  0  0  0  0  0
   15.6909   -6.9357  -18.8222 C   0  0  0  0  0  0  0  0  0  0  0  0
   17.0614   -7.6157  -18.7667 C   0  0  2  0  0  0  0  0  0  0  0  0
   16.9281   -9.0358  -19.0240 N   0  0  0  0  0  0  0  0  0  0  0  0
   17.5504   -7.4450  -17.3833 C   0  0  0  0  0  0  0  0  0  0  0  0
   17.8954   -6.3238  -16.9104 O   0  0  0  0  0  0  0  0  0  0  0  0
   17.6375   -8.5538  -16.5644 O   0  0  0  0  0  0  0  0  0  0  0  0
  2  1  1  6
  2  4  1  0
  2  3  1  0
  4  5  1  6
  6  4  1  0
  7  6  2  0
  8  6  1  0
  9  8  1  0
  9 10  1  1
 10 11  1  0
 11 12  2  0
 11 15  1  0
 12 13  1  0
 13 14  1  0
 15 14  2  0
 16 26  1  0
 16  9  1  0
 17 16  2  0
 18 19  1  0
 19 21  1  0
 19 20  2  0
 21 22  1  0
 22 23  1  0
 23 24  1  0
 25 24  1  1
 25 26  1  0
 25 27  1  0
 27 29  1  0
 28 27  2  0
M  END
$$$$
