VHR.pdb
     RDKit          3D

 29 29  0  0  1  0  0  0  0  0999 V2000
   23.3875  -17.2505  -18.6537 C   0  0  0  0  0  0  0  0  0  0  0  0
   24.2246  -17.2509  -17.4253 C   0  0  2  0  0  0  0  0  0  0  0  0
   25.6767  -16.9971  -17.8470 C   0  0  0  0  0  0  0  0  0  0  0  0
   24.1263  -18.5039  -16.5890 C   0  0  2  0  0  0  0  0  0  0  0  0
   24.5780  -19.6248  -17.3500 N   0  0  0  0  0  0  0  0  0  0  0  0
   22.7139  -18.6975  -16.1810 C   0  0  0  0  0  0  0  0  0  0  0  0
   21.9179  -19.1973  -16.9848 O   0  0  0  0  0  0  0  0  0  0  0  0
   22.1859  -18.3538  -14.9257 N   0  0  0  0  0  0  0  0  0  0  0  0
   20.8537  -18.4537  -14.5332 C   0  0  1  0  0  0  0  0  0  0  0  0
   20.4292  -19.1986  -13.3324 C   0  0  0  0  0  0  0  0  0  0  0  0
   20.3641  -20.6518  -13.5720 C   0  0  0  0  0  0  0  0  0  0  0  0
   20.5428  -21.3282  -14.7394 C   0  0  0  0  0  0  0  0  0  0  0  0
   20.4216  -22.6593  -14.5404 N   0  0  0  0  0  0  0  0  0  0  0  0
   20.1664  -22.8364  -13.2496 C   0  0  0  0  0  0  0  0  0  0  0  0
   20.1279  -21.6361  -12.6477 N   0  0  0  0  0  0  0  0  0  0  0  0
   20.2076  -17.1246  -14.5544 C   0  0  0  0  0  0  0  0  0  0  0  0
   20.7429  -16.1234  -13.9516 O   0  0  0  0  0  0  0  0  0  0  0  0
   15.3253  -12.8822  -20.6046 N   0  0  0  0  0  0  0  0  0  0  0  0
   15.5162  -11.9556  -19.5399 C   0  0  0  0  0  0  0  0  0  0  0  0
   15.1376  -10.7309  -19.6883 N   0  0  0  0  0  0  0  0  0  0  0  0
   16.1154  -12.3521  -18.3166 N   0  0  0  0  0  0  0  0  0  0  0  0
   16.5755  -13.7098  -18.0849 C   0  0  0  0  0  0  0  0  0  0  0  0
   17.2175  -13.8422  -16.7175 C   0  0  0  0  0  0  0  0  0  0  0  0
   17.7261  -15.2541  -16.5996 C   0  0  0  0  0  0  0  0  0  0  0  0
   18.4554  -15.4706  -15.2710 C   0  0  2  0  0  0  0  0  0  0  0  0
   18.9910  -16.8158  -15.2056 N   0  0  0  0  0  0  0  0  0  0  0  0
   17.4339  -15.3324  -14.2130 C   0  0  0  0  0  0  0  0  0  0  0  0
   16.8314  -16.3225  -13.7066 O   0  0  0  0  0  0  0  0  0  0  0  0
   17.1175  -14.0696  -13.7515 O   0  0  0  0  0  0  0  0  0  0  0  0
  2  1  1  6
  2  4  1  0
  2  3  1  0
  4  5  1  6
  6  4  1  0
  7  6  2  0
  8  6  1  0
  9  8  1  0
  9 10  1  1
 10 11  1  0
 11 12  2  0
 11 15  1  0
 12 13  1  0
 13 14  1  0
 15 14  2  0
 16 26  1  0
 16  9  1  0
 17 16  2  0
 18 19  1  0
 19 21  1  0
 19 20  2  0
 21 22  1  0
 22 23  1  0
 23 24  1  0
 25 24  1  6
 25 26  1  0
 25 27  1  0
 27 29  1  0
 28 27  2  0
M  END
$$$$
