VHR.pdb
     RDKit          3D

 29 29  0  0  1  0  0  0  0  0999 V2000
   16.5450  -25.2327  -11.4988 C   0  0  0  0  0  0  0  0  0  0  0  0
   17.6320  -24.2240  -11.3960 C   0  0  2  0  0  0  0  0  0  0  0  0
   18.8002  -24.7027  -12.2660 C   0  0  0  0  0  0  0  0  0  0  0  0
   18.1009  -23.9351   -9.9904 C   0  0  2  0  0  0  0  0  0  0  0  0
   17.0018  -23.4736   -9.2039 N   0  0  0  0  0  0  0  0  0  0  0  0
   19.1628  -22.9015  -10.0429 C   0  0  0  0  0  0  0  0  0  0  0  0
   18.9190  -21.8142  -10.5792 O   0  0  0  0  0  0  0  0  0  0  0  0
   20.4581  -23.0533   -9.5216 N   0  0  0  0  0  0  0  0  0  0  0  0
   21.4970  -22.1300   -9.6056 C   0  0  1  0  0  0  0  0  0  0  0  0
   22.6298  -22.1151   -8.6603 C   0  0  0  0  0  0  0  0  0  0  0  0
   23.5432  -20.9834   -8.9028 C   0  0  0  0  0  0  0  0  0  0  0  0
   23.3475  -19.6631   -8.6373 C   0  0  0  0  0  0  0  0  0  0  0  0
   24.4348  -18.9417   -8.9887 N   0  0  0  0  0  0  0  0  0  0  0  0
   25.3253  -19.7964   -9.4776 C   0  0  0  0  0  0  0  0  0  0  0  0
   24.8057  -21.0344   -9.4341 N   0  0  0  0  0  0  0  0  0  0  0  0
   21.9993  -22.0418  -10.9928 C   0  0  0  0  0  0  0  0  0  0  0  0
   22.2481  -23.1049  -11.6710 O   0  0  0  0  0  0  0  0  0  0  0  0
   21.4311  -15.8092  -17.0468 N   0  0  0  0  0  0  0  0  0  0  0  0
   20.6487  -16.8617  -16.4910 C   0  0  0  0  0  0  0  0  0  0  0  0
   19.3611  -16.7873  -16.5354 N   0  0  0  0  0  0  0  0  0  0  0  0
   21.2569  -17.9927  -15.8882 N   0  0  0  0  0  0  0  0  0  0  0  0
   22.6935  -18.0904  -15.7006 C   0  0  0  0  0  0  0  0  0  0  0  0
   23.0758  -19.4315  -15.1049 C   0  0  0  0  0  0  0  0  0  0  0  0
   22.5016  -19.4804  -13.7142 C   0  0  0  0  0  0  0  0  0  0  0  0
   22.8030  -20.8204  -13.0378 C   0  0  2  0  0  0  0  0  0  0  0  0
   22.2505  -20.8421  -11.6980 N   0  0  0  0  0  0  0  0  0  0  0  0
   24.2736  -20.9051  -12.9281 C   0  0  0  0  0  0  0  0  0  0  0  0
   24.8888  -20.7798  -11.8301 O   0  0  0  0  0  0  0  0  0  0  0  0
   25.0163  -21.1309  -14.0706 O   0  0  0  0  0  0  0  0  0  0  0  0
  2  1  1  1
  2  4  1  0
  2  3  1  0
  4  5  1  1
  6  4  1  0
  7  6  2  0
  8  6  1  0
  9  8  1  0
  9 10  1  1
 10 11  1  0
 11 12  2  0
 11 15  1  0
 12 13  1  0
 13 14  1  0
 15 14  2  0
 16 26  1  0
 16  9  1  0
 17 16  2  0
 18 19  1  0
 19 21  1  0
 19 20  2  0
 21 22  1  0
 22 23  1  0
 23 24  1  0
 25 24  1  1
 25 26  1  0
 25 27  1  0
 27 29  1  0
 28 27  2  0
M  END
$$$$
