MVW.pdb
     RDKit          3D

 30 31  0  0  1  0  0  0  0  0999 V2000
    8.4253  -17.4008   27.8554 C   0  0  0  0  0  0  0  0  0  0  0  0
    7.6711  -19.0504   27.6732 S   0  0  0  0  0  0  0  0  0  0  0  0
    7.6297  -19.4815   25.8821 C   0  0  0  0  0  0  0  0  0  0  0  0
    6.3252  -19.0454   25.3160 C   0  0  0  0  0  0  0  0  0  0  0  0
    6.2103  -19.3093   23.8595 C   0  0  2  0  0  0  0  0  0  0  0  0
    6.4911  -20.6981   23.5535 N   0  0  0  0  0  0  0  0  0  0  0  0
    7.0893  -18.4686   23.0017 C   0  0  0  0  0  0  0  0  0  0  0  0
    8.0684  -18.9681   22.3726 O   0  0  0  0  0  0  0  0  0  0  0  0
    5.7508  -15.3521   20.6719 C   0  0  0  0  0  0  0  0  0  0  0  0
    6.8770  -14.9870   21.6161 C   0  0  2  0  0  0  0  0  0  0  0  0
    7.7961  -13.9910   20.9392 C   0  0  0  0  0  0  0  0  0  0  0  0
    7.6532  -16.1679   22.0810 C   0  0  2  0  0  0  0  0  0  0  0  0
    6.8673  -17.0948   22.8631 N   0  0  0  0  0  0  0  0  0  0  0  0
    8.8456  -15.6871   22.8372 C   0  0  0  0  0  0  0  0  0  0  0  0
    9.7479  -14.9629   22.3649 O   0  0  0  0  0  0  0  0  0  0  0  0
    8.9292  -16.0995   24.1877 N   0  0  0  0  0  0  0  0  0  0  0  0
    9.9683  -15.5632   25.0742 C   0  0  1  0  0  0  0  0  0  0  0  0
    9.3311  -15.5477   26.4438 C   0  0  0  0  0  0  0  0  0  0  0  0
    8.0256  -14.8745   26.4096 C   0  0  0  0  0  0  0  0  0  0  0  0
    6.8234  -15.5864   26.3144 C   0  0  0  0  0  0  0  0  0  0  0  0
    5.7862  -14.7550   26.3522 N   0  0  0  0  0  0  0  0  0  0  0  0
    6.2737  -13.5029   26.4695 C   0  0  0  0  0  0  0  0  0  0  0  0
    5.6322  -12.2800   26.5398 C   0  0  0  0  0  0  0  0  0  0  0  0
    6.3675  -11.1083   26.6456 C   0  0  0  0  0  0  0  0  0  0  0  0
    7.7203  -11.2092   26.6766 C   0  0  0  0  0  0  0  0  0  0  0  0
    8.4032  -12.4146   26.6089 C   0  0  0  0  0  0  0  0  0  0  0  0
    7.6550  -13.5687   26.5049 C   0  0  0  0  0  0  0  0  0  0  0  0
   11.1470  -16.4225   24.9350 C   0  0  0  0  0  0  0  0  0  0  0  0
   12.3915  -16.0648   25.4901 O   0  0  0  0  0  0  0  0  0  0  0  0
   11.1275  -17.5177   24.3221 O   0  0  0  0  0  0  0  0  0  0  0  0
  1  2  1  0
  2  3  1  0
  4  3  1  0
  5  6  1  1
  5  4  1  0
  7  5  1  0
  8  7  2  0
 10  9  1  6
 10 12  1  0
 10 11  1  0
 12 13  1  1
 13  7  1  0
 14 15  2  0
 14 12  1  0
 16 14  1  0
 17 16  1  0
 17 18  1  1
 19 18  1  0
 20 19  2  0
 21 22  1  0
 21 20  1  0
 22 27  2  0
 23 22  1  0
 23 24  2  0
 24 25  1  0
 25 26  2  0
 27 19  1  0
 27 26  1  0
 28 29  1  0
 28 17  1  0
 30 28  2  0
M  END
$$$$
