MVW.pdb
     RDKit          3D

 30 31  0  0  1  0  0  0  0  0999 V2000
    6.7786  -11.3190   26.6797 C   0  0  0  0  0  0  0  0  0  0  0  0
    5.0429  -11.8297   26.4569 S   0  0  0  0  0  0  0  0  0  0  0  0
    4.9111  -13.6319   26.8179 C   0  0  0  0  0  0  0  0  0  0  0  0
    6.0715  -14.3286   26.2013 C   0  0  0  0  0  0  0  0  0  0  0  0
    5.6839  -15.2020   25.0650 C   0  0  2  0  0  0  0  0  0  0  0  0
    4.8420  -16.2961   25.5068 N   0  0  0  0  0  0  0  0  0  0  0  0
    6.8253  -15.7843   24.3079 C   0  0  0  0  0  0  0  0  0  0  0  0
    7.3003  -16.9206   24.6032 O   0  0  0  0  0  0  0  0  0  0  0  0
    7.2912  -14.6493   20.4446 C   0  0  0  0  0  0  0  0  0  0  0  0
    8.6281  -14.8287   21.1328 C   0  0  2  0  0  0  0  0  0  0  0  0
    9.5753  -15.5620   20.2055 C   0  0  0  0  0  0  0  0  0  0  0  0
    8.5229  -15.5466   22.4315 C   0  0  2  0  0  0  0  0  0  0  0  0
    7.4172  -15.0947   23.2449 N   0  0  0  0  0  0  0  0  0  0  0  0
    9.8219  -15.4190   23.1535 C   0  0  0  0  0  0  0  0  0  0  0  0
   10.3227  -14.3412   23.5397 O   0  0  0  0  0  0  0  0  0  0  0  0
   10.5115  -16.6283   23.4043 N   0  0  0  0  0  0  0  0  0  0  0  0
   11.8885  -16.6167   23.9114 C   0  0  1  0  0  0  0  0  0  0  0  0
   11.8581  -17.5235   25.1194 C   0  0  0  0  0  0  0  0  0  0  0  0
   11.0209  -16.9543   26.1842 C   0  0  0  0  0  0  0  0  0  0  0  0
    9.8333  -17.5661   26.6044 C   0  0  0  0  0  0  0  0  0  0  0  0
    9.2898  -16.8854   27.6092 N   0  0  0  0  0  0  0  0  0  0  0  0
   10.0910  -15.8312   27.8659 C   0  0  0  0  0  0  0  0  0  0  0  0
    9.9838  -14.8121   28.7942 C   0  0  0  0  0  0  0  0  0  0  0  0
   10.9474  -13.8158   28.8551 C   0  0  0  0  0  0  0  0  0  0  0  0
   11.9829  -13.8808   27.9806 C   0  0  0  0  0  0  0  0  0  0  0  0
   12.1287  -14.8848   27.0347 C   0  0  0  0  0  0  0  0  0  0  0  0
   11.1612  -15.8668   26.9900 C   0  0  0  0  0  0  0  0  0  0  0  0
   12.7605  -17.0508   22.8168 C   0  0  0  0  0  0  0  0  0  0  0  0
   14.1590  -16.8937   22.8800 O   0  0  0  0  0  0  0  0  0  0  0  0
   12.3271  -17.5837   21.7662 O   0  0  0  0  0  0  0  0  0  0  0  0
  1  2  1  0
  2  3  1  0
  4  3  1  0
  5  6  1  1
  5  4  1  0
  7  5  1  0
  8  7  2  0
 10  9  1  6
 10 12  1  0
 10 11  1  0
 12 13  1  1
 13  7  1  0
 14 15  2  0
 14 12  1  0
 16 14  1  0
 17 16  1  0
 17 18  1  1
 19 18  1  0
 20 19  2  0
 21 22  1  0
 21 20  1  0
 22 27  2  0
 23 22  1  0
 23 24  2  0
 24 25  1  0
 25 26  2  0
 27 19  1  0
 27 26  1  0
 28 29  1  0
 28 17  1  0
 30 28  2  0
M  END
$$$$
