MVW.pdb
     RDKit          3D

 30 31  0  0  1  0  0  0  0  0999 V2000
    7.2831  -12.2597   19.6601 C   0  0  0  0  0  0  0  0  0  0  0  0
    8.1857  -12.3901   18.0817 S   0  0  0  0  0  0  0  0  0  0  0  0
    8.2699  -14.1666   17.5994 C   0  0  0  0  0  0  0  0  0  0  0  0
    8.6945  -14.9629   18.7817 C   0  0  0  0  0  0  0  0  0  0  0  0
    8.9729  -16.3835   18.4518 C   0  0  2  0  0  0  0  0  0  0  0  0
    7.8056  -17.0296   17.8853 N   0  0  0  0  0  0  0  0  0  0  0  0
    9.4384  -17.2106   19.5983 C   0  0  0  0  0  0  0  0  0  0  0  0
    8.6521  -17.9957   20.2062 O   0  0  0  0  0  0  0  0  0  0  0  0
   12.9869  -19.0646   19.9624 C   0  0  0  0  0  0  0  0  0  0  0  0
   12.7236  -18.1357   21.1291 C   0  0  2  0  0  0  0  0  0  0  0  0
   13.1972  -18.7921   22.4097 C   0  0  0  0  0  0  0  0  0  0  0  0
   11.2935  -17.7449   21.2512 C   0  0  2  0  0  0  0  0  0  0  0  0
   10.7610  -17.1471   20.0480 N   0  0  0  0  0  0  0  0  0  0  0  0
   11.1458  -16.8370   22.4254 C   0  0  0  0  0  0  0  0  0  0  0  0
   11.7136  -15.7308   22.5501 O   0  0  0  0  0  0  0  0  0  0  0  0
   10.2907  -17.2928   23.4559 N   0  0  0  0  0  0  0  0  0  0  0  0
    9.9829  -16.4393   24.6093 C   0  0  1  0  0  0  0  0  0  0  0  0
    8.6762  -15.7709   24.2517 C   0  0  0  0  0  0  0  0  0  0  0  0
    8.1199  -15.0510   25.4054 C   0  0  0  0  0  0  0  0  0  0  0  0
    8.1464  -15.5855   26.6995 C   0  0  0  0  0  0  0  0  0  0  0  0
    7.6290  -14.7231   27.5695 N   0  0  0  0  0  0  0  0  0  0  0  0
    7.2570  -13.6249   26.8804 C   0  0  0  0  0  0  0  0  0  0  0  0
    6.6617  -12.4483   27.2966 C   0  0  0  0  0  0  0  0  0  0  0  0
    6.3583  -11.4538   26.3781 C   0  0  0  0  0  0  0  0  0  0  0  0
    6.6644  -11.6787   25.0755 C   0  0  0  0  0  0  0  0  0  0  0  0
    7.2614  -12.8434   24.6159 C   0  0  0  0  0  0  0  0  0  0  0  0
    7.5563  -13.8202   25.5441 C   0  0  0  0  0  0  0  0  0  0  0  0
    9.9488  -17.3014   25.7936 C   0  0  0  0  0  0  0  0  0  0  0  0
    9.5684  -18.6554   25.7107 O   0  0  0  0  0  0  0  0  0  0  0  0
   10.2516  -16.8983   26.9430 O   0  0  0  0  0  0  0  0  0  0  0  0
  1  2  1  0
  2  3  1  0
  4  3  1  0
  5  6  1  1
  5  4  1  0
  7  5  1  0
  8  7  2  0
 10  9  1  6
 10 12  1  0
 10 11  1  0
 12 13  1  6
 13  7  1  0
 14 15  2  0
 14 12  1  0
 16 14  1  0
 17 16  1  0
 17 18  1  6
 19 18  1  0
 20 19  2  0
 21 22  1  0
 21 20  1  0
 22 27  2  0
 23 22  1  0
 23 24  2  0
 24 25  1  0
 25 26  2  0
 27 19  1  0
 27 26  1  0
 28 29  1  0
 28 17  1  0
 30 28  2  0
M  END
$$$$
