MVW.pdb
     RDKit          3D

 30 31  0  0  1  0  0  0  0  0999 V2000
    4.4388  -20.2594   17.8120 C   0  0  0  0  0  0  0  0  0  0  0  0
    5.3394  -20.9587   19.2343 S   0  0  0  0  0  0  0  0  0  0  0  0
    7.1468  -20.8640   18.8878 C   0  0  0  0  0  0  0  0  0  0  0  0
    7.5608  -19.4355   18.8976 C   0  0  0  0  0  0  0  0  0  0  0  0
    8.0385  -18.9814   20.2280 C   0  0  2  0  0  0  0  0  0  0  0  0
    6.9882  -19.0733   21.2227 N   0  0  0  0  0  0  0  0  0  0  0  0
    8.5728  -17.5926   20.2585 C   0  0  0  0  0  0  0  0  0  0  0  0
    9.3889  -17.1815   19.3816 O   0  0  0  0  0  0  0  0  0  0  0  0
    6.6250  -14.4021   20.1323 C   0  0  0  0  0  0  0  0  0  0  0  0
    7.4527  -14.3631   21.3999 C   0  0  2  0  0  0  0  0  0  0  0  0
    7.9463  -12.9501   21.6334 C   0  0  0  0  0  0  0  0  0  0  0  0
    8.5998  -15.3101   21.3757 C   0  0  2  0  0  0  0  0  0  0  0  0
    8.1954  -16.6927   21.2602 N   0  0  0  0  0  0  0  0  0  0  0  0
    9.4316  -15.0826   22.5928 C   0  0  0  0  0  0  0  0  0  0  0  0
   10.2749  -14.1696   22.7225 O   0  0  0  0  0  0  0  0  0  0  0  0
    9.2238  -15.9857   23.6616 N   0  0  0  0  0  0  0  0  0  0  0  0
    9.9942  -15.8683   24.9049 C   0  0  1  0  0  0  0  0  0  0  0  0
    9.0210  -16.2518   25.9948 C   0  0  0  0  0  0  0  0  0  0  0  0
    7.8582  -15.3536   26.0025 C   0  0  0  0  0  0  0  0  0  0  0  0
    6.5683  -15.8033   25.6945 C   0  0  0  0  0  0  0  0  0  0  0  0
    5.6884  -14.8142   25.8205 N   0  0  0  0  0  0  0  0  0  0  0  0
    6.3669  -13.7138   26.2052 C   0  0  0  0  0  0  0  0  0  0  0  0
    5.9380  -12.4249   26.4636 C   0  0  0  0  0  0  0  0  0  0  0  0
    6.8471  -11.4461   26.8383 C   0  0  0  0  0  0  0  0  0  0  0  0
    8.1533  -11.7990   26.9392 C   0  0  0  0  0  0  0  0  0  0  0  0
    8.6255  -13.0792   26.6895 C   0  0  0  0  0  0  0  0  0  0  0  0
    7.7066  -14.0389   26.3191 C   0  0  0  0  0  0  0  0  0  0  0  0
   11.1695  -16.7335   24.7736 C   0  0  0  0  0  0  0  0  0  0  0  0
   12.2292  -16.6856   25.7007 O   0  0  0  0  0  0  0  0  0  0  0  0
   11.3087  -17.5626   23.8416 O   0  0  0  0  0  0  0  0  0  0  0  0
  1  2  1  0
  2  3  1  0
  4  3  1  0
  5  6  1  1
  5  4  1  0
  7  5  1  0
  8  7  2  0
 10  9  1  6
 10 12  1  0
 10 11  1  0
 12 13  1  1
 13  7  1  0
 14 15  2  0
 14 12  1  0
 16 14  1  0
 17 16  1  0
 17 18  1  1
 19 18  1  0
 20 19  2  0
 21 22  1  0
 21 20  1  0
 22 27  2  0
 23 22  1  0
 23 24  2  0
 24 25  1  0
 25 26  2  0
 27 19  1  0
 27 26  1  0
 28 29  1  0
 28 17  1  0
 30 28  2  0
M  END
$$$$
