MVW.pdb
     RDKit          3D

 30 31  0  0  1  0  0  0  0  0999 V2000
    8.3770  -11.6752   21.0469 C   0  0  0  0  0  0  0  0  0  0  0  0
    6.9804  -12.4545   20.1721 S   0  0  0  0  0  0  0  0  0  0  0  0
    7.5287  -14.0950   19.5365 C   0  0  0  0  0  0  0  0  0  0  0  0
    7.9531  -14.9356   20.6877 C   0  0  0  0  0  0  0  0  0  0  0  0
    8.4300  -16.2802   20.2765 C   0  0  2  0  0  0  0  0  0  0  0  0
    7.4150  -16.9898   19.5233 N   0  0  0  0  0  0  0  0  0  0  0  0
    8.8612  -17.1591   21.3976 C   0  0  0  0  0  0  0  0  0  0  0  0
    8.0820  -18.0268   21.8914 O   0  0  0  0  0  0  0  0  0  0  0  0
   12.0989  -19.2613   21.6635 C   0  0  0  0  0  0  0  0  0  0  0  0
   12.0208  -18.3355   22.8593 C   0  0  2  0  0  0  0  0  0  0  0  0
   12.4983  -19.0707   24.0949 C   0  0  0  0  0  0  0  0  0  0  0  0
   10.6561  -17.7875   23.0835 C   0  0  2  0  0  0  0  0  0  0  0  0
   10.1423  -17.0550   21.9487 N   0  0  0  0  0  0  0  0  0  0  0  0
   10.6765  -16.9459   24.3149 C   0  0  0  0  0  0  0  0  0  0  0  0
   11.2755  -15.8548   24.4257 O   0  0  0  0  0  0  0  0  0  0  0  0
    9.9525  -17.4500   25.4206 N   0  0  0  0  0  0  0  0  0  0  0  0
    9.9336  -16.7285   26.6982 C   0  0  1  0  0  0  0  0  0  0  0  0
    8.4952  -16.7980   27.1547 C   0  0  0  0  0  0  0  0  0  0  0  0
    7.6498  -15.8857   26.3727 C   0  0  0  0  0  0  0  0  0  0  0  0
    6.5383  -16.3366   25.6499 C   0  0  0  0  0  0  0  0  0  0  0  0
    5.9141  -15.3148   25.0714 N   0  0  0  0  0  0  0  0  0  0  0  0
    6.5885  -14.1920   25.3933 C   0  0  0  0  0  0  0  0  0  0  0  0
    6.3727  -12.8707   25.0477 C   0  0  0  0  0  0  0  0  0  0  0  0
    7.2301  -11.8789   25.5015 C   0  0  0  0  0  0  0  0  0  0  0  0
    8.2727  -12.2520   26.2856 C   0  0  0  0  0  0  0  0  0  0  0  0
    8.5252  -13.5647   26.6560 C   0  0  0  0  0  0  0  0  0  0  0  0
    7.6613  -14.5365   26.1958 C   0  0  0  0  0  0  0  0  0  0  0  0
   10.9086  -17.3760   27.5797 C   0  0  0  0  0  0  0  0  0  0  0  0
   11.4293  -16.7206   28.7129 O   0  0  0  0  0  0  0  0  0  0  0  0
   11.3384  -18.5395   27.3879 O   0  0  0  0  0  0  0  0  0  0  0  0
  1  2  1  0
  2  3  1  0
  4  3  1  0
  5  6  1  1
  5  4  1  0
  7  5  1  0
  8  7  2  0
 10  9  1  6
 10 12  1  0
 10 11  1  0
 12 13  1  6
 13  7  1  0
 14 15  2  0
 14 12  1  0
 16 14  1  0
 17 16  1  0
 17 18  1  1
 19 18  1  0
 20 19  2  0
 21 22  1  0
 21 20  1  0
 22 27  2  0
 23 22  1  0
 23 24  2  0
 24 25  1  0
 25 26  2  0
 27 19  1  0
 27 26  1  0
 28 29  1  0
 28 17  1  0
 30 28  2  0
M  END
$$$$
