MVW.pdb
     RDKit          3D

 30 31  0  0  1  0  0  0  0  0999 V2000
    9.0279  -11.9018   20.3293 C   0  0  0  0  0  0  0  0  0  0  0  0
    8.4322  -12.2635   18.6449 S   0  0  0  0  0  0  0  0  0  0  0  0
    7.7593  -13.9787   18.6166 C   0  0  0  0  0  0  0  0  0  0  0  0
    8.1510  -14.6662   19.8760 C   0  0  0  0  0  0  0  0  0  0  0  0
    7.8049  -16.1100   19.8779 C   0  0  2  0  0  0  0  0  0  0  0  0
    6.3799  -16.3087   19.7023 N   0  0  0  0  0  0  0  0  0  0  0  0
    8.2192  -16.8495   21.1013 C   0  0  0  0  0  0  0  0  0  0  0  0
    7.4054  -17.0663   22.0471 O   0  0  0  0  0  0  0  0  0  0  0  0
   10.8509  -19.9562   21.1159 C   0  0  0  0  0  0  0  0  0  0  0  0
   11.2146  -18.8768   22.1139 C   0  0  2  0  0  0  0  0  0  0  0  0
   11.7292  -19.5213   23.3846 C   0  0  0  0  0  0  0  0  0  0  0  0
   10.0812  -17.9644   22.4238 C   0  0  2  0  0  0  0  0  0  0  0  0
    9.5247  -17.3279   21.2518 N   0  0  0  0  0  0  0  0  0  0  0  0
   10.5383  -16.9600   23.4274 C   0  0  0  0  0  0  0  0  0  0  0  0
   11.2981  -15.9986   23.1824 O   0  0  0  0  0  0  0  0  0  0  0  0
   10.0556  -17.1385   24.7450 N   0  0  0  0  0  0  0  0  0  0  0  0
   10.5109  -16.2692   25.8361 C   0  0  1  0  0  0  0  0  0  0  0  0
    9.9812  -14.9000   25.4798 C   0  0  0  0  0  0  0  0  0  0  0  0
    8.5381  -14.8094   25.7408 C   0  0  0  0  0  0  0  0  0  0  0  0
    7.7106  -15.9391   25.7476 C   0  0  0  0  0  0  0  0  0  0  0  0
    6.4626  -15.5996   26.0567 N   0  0  0  0  0  0  0  0  0  0  0  0
    6.4419  -14.2656   26.2546 C   0  0  0  0  0  0  0  0  0  0  0  0
    5.4058  -13.4108   26.5828 C   0  0  0  0  0  0  0  0  0  0  0  0
    5.6372  -12.0497   26.7196 C   0  0  0  0  0  0  0  0  0  0  0  0
    6.9013  -11.5984   26.5215 C   0  0  0  0  0  0  0  0  0  0  0  0
    7.9686  -12.4207   26.1917 C   0  0  0  0  0  0  0  0  0  0  0  0
    7.7191  -13.7709   26.0609 C   0  0  0  0  0  0  0  0  0  0  0  0
   10.0035  -16.8374   27.0877 C   0  0  0  0  0  0  0  0  0  0  0  0
    9.2889  -18.0513   27.1115 O   0  0  0  0  0  0  0  0  0  0  0  0
   10.1689  -16.2899   28.2050 O   0  0  0  0  0  0  0  0  0  0  0  0
  1  2  1  0
  2  3  1  0
  4  3  1  0
  5  6  1  1
  5  4  1  0
  7  5  1  0
  8  7  2  0
 10  9  1  6
 10 12  1  0
 10 11  1  0
 12 13  1  6
 13  7  1  0
 14 15  2  0
 14 12  1  0
 16 14  1  0
 17 16  1  0
 17 18  1  6
 19 18  1  0
 20 19  2  0
 21 22  1  0
 21 20  1  0
 22 27  2  0
 23 22  1  0
 23 24  2  0
 24 25  1  0
 25 26  2  0
 27 19  1  0
 27 26  1  0
 28 29  1  0
 28 17  1  0
 30 28  2  0
M  END
$$$$
