MVW.pdb
     RDKit          3D

 30 31  0  0  1  0  0  0  0  0999 V2000
    4.9769  -14.2465   26.4616 C   0  0  0  0  0  0  0  0  0  0  0  0
    6.1868  -15.2499   25.5383 S   0  0  0  0  0  0  0  0  0  0  0  0
    6.6244  -16.7231   26.5551 C   0  0  0  0  0  0  0  0  0  0  0  0
    6.5295  -17.9376   25.7018 C   0  0  0  0  0  0  0  0  0  0  0  0
    6.0289  -17.6457   24.3349 C   0  0  2  0  0  0  0  0  0  0  0  0
    5.2643  -18.7581   23.8068 N   0  0  0  0  0  0  0  0  0  0  0  0
    7.0854  -17.3089   23.3421 C   0  0  0  0  0  0  0  0  0  0  0  0
    7.8279  -18.2042   22.8411 O   0  0  0  0  0  0  0  0  0  0  0  0
    6.4017  -14.6665   20.3870 C   0  0  0  0  0  0  0  0  0  0  0  0
    7.6872  -14.3731   21.1318 C   0  0  2  0  0  0  0  0  0  0  0  0
    8.7349  -13.8865   20.1517 C   0  0  0  0  0  0  0  0  0  0  0  0
    8.2001  -15.5444   21.8919 C   0  0  2  0  0  0  0  0  0  0  0  0
    7.2987  -15.9896   22.9300 N   0  0  0  0  0  0  0  0  0  0  0  0
    9.5440  -15.2042   22.4425 C   0  0  0  0  0  0  0  0  0  0  0  0
   10.0659  -14.0693   22.4053 O   0  0  0  0  0  0  0  0  0  0  0  0
   10.2530  -16.2692   23.0457 N   0  0  0  0  0  0  0  0  0  0  0  0
   11.6405  -16.0922   23.4893 C   0  0  1  0  0  0  0  0  0  0  0  0
   11.5767  -14.9778   24.5073 C   0  0  0  0  0  0  0  0  0  0  0  0
   10.9733  -15.4454   25.7627 C   0  0  0  0  0  0  0  0  0  0  0  0
   10.4342  -16.7310   25.8959 C   0  0  0  0  0  0  0  0  0  0  0  0
    9.9975  -16.9259   27.1367 N   0  0  0  0  0  0  0  0  0  0  0  0
   10.2338  -15.7950   27.8327 C   0  0  0  0  0  0  0  0  0  0  0  0
    9.9668  -15.4643   29.1485 C   0  0  0  0  0  0  0  0  0  0  0  0
   10.2986  -14.2086   29.6363 C   0  0  0  0  0  0  0  0  0  0  0  0
   10.8863  -13.3320   28.7836 C   0  0  0  0  0  0  0  0  0  0  0  0
   11.1718  -13.6229   27.4577 C   0  0  0  0  0  0  0  0  0  0  0  0
   10.8353  -14.8766   26.9912 C   0  0  0  0  0  0  0  0  0  0  0  0
   12.1052  -17.3860   23.9964 C   0  0  0  0  0  0  0  0  0  0  0  0
   11.2742  -18.5236   23.9895 O   0  0  0  0  0  0  0  0  0  0  0  0
   13.2565  -17.5650   24.4633 O   0  0  0  0  0  0  0  0  0  0  0  0
  1  2  1  0
  2  3  1  0
  4  3  1  0
  5  6  1  6
  5  4  1  0
  7  5  1  0
  8  7  2  0
 10  9  1  6
 10 12  1  0
 10 11  1  0
 12 13  1  1
 13  7  1  0
 14 15  2  0
 14 12  1  0
 16 14  1  0
 17 16  1  0
 17 18  1  1
 19 18  1  0
 20 19  2  0
 21 22  1  0
 21 20  1  0
 22 27  2  0
 23 22  1  0
 23 24  2  0
 24 25  1  0
 25 26  2  0
 27 19  1  0
 27 26  1  0
 28 29  1  0
 28 17  1  0
 30 28  2  0
M  END
$$$$
