MVW.pdb
     RDKit          3D

 30 31  0  0  1  0  0  0  0  0999 V2000
    8.4268  -11.1618   21.6881 C   0  0  0  0  0  0  0  0  0  0  0  0
    8.2089  -12.4715   20.4390 S   0  0  0  0  0  0  0  0  0  0  0  0
    6.8217  -13.5625   20.9693 C   0  0  0  0  0  0  0  0  0  0  0  0
    6.6088  -14.6041   19.9292 C   0  0  0  0  0  0  0  0  0  0  0  0
    7.7490  -15.5482   19.8152 C   0  0  2  0  0  0  0  0  0  0  0  0
    7.5565  -16.4741   18.7167 N   0  0  0  0  0  0  0  0  0  0  0  0
    8.0221  -16.3478   21.0405 C   0  0  0  0  0  0  0  0  0  0  0  0
    7.1138  -17.0346   21.5947 O   0  0  0  0  0  0  0  0  0  0  0  0
   10.1245  -19.1367   21.0997 C   0  0  0  0  0  0  0  0  0  0  0  0
   10.6860  -18.2890   22.2219 C   0  0  2  0  0  0  0  0  0  0  0  0
   11.0815  -19.1849   23.3777 C   0  0  0  0  0  0  0  0  0  0  0  0
    9.7411  -17.2383   22.6869 C   0  0  2  0  0  0  0  0  0  0  0  0
    9.2918  -16.3656   21.6263 N   0  0  0  0  0  0  0  0  0  0  0  0
   10.3871  -16.4708   23.7909 C   0  0  0  0  0  0  0  0  0  0  0  0
   11.3442  -15.6803   23.6478 O   0  0  0  0  0  0  0  0  0  0  0  0
    9.8504  -16.6763   25.0834 N   0  0  0  0  0  0  0  0  0  0  0  0
   10.6526  -16.4051   26.2818 C   0  0  1  0  0  0  0  0  0  0  0  0
   10.0995  -15.1089   26.8262 C   0  0  0  0  0  0  0  0  0  0  0  0
    8.7100  -14.9065   26.3940 C   0  0  0  0  0  0  0  0  0  0  0  0
    7.7679  -15.9426   26.4073 C   0  0  0  0  0  0  0  0  0  0  0  0
    6.5777  -15.4940   26.0194 N   0  0  0  0  0  0  0  0  0  0  0  0
    6.7083  -14.1796   25.7466 C   0  0  0  0  0  0  0  0  0  0  0  0
    5.7896  -13.2477   25.2998 C   0  0  0  0  0  0  0  0  0  0  0  0
    6.1766  -11.9344   25.0756 C   0  0  0  0  0  0  0  0  0  0  0  0
    7.4724  -11.6065   25.3085 C   0  0  0  0  0  0  0  0  0  0  0  0
    8.4254  -12.5093   25.7568 C   0  0  0  0  0  0  0  0  0  0  0  0
    8.0216  -13.8100   25.9748 C   0  0  0  0  0  0  0  0  0  0  0  0
   10.5248  -17.5673   27.1650 C   0  0  0  0  0  0  0  0  0  0  0  0
   11.3563  -17.7352   28.2897 O   0  0  0  0  0  0  0  0  0  0  0  0
    9.6792  -18.4767   26.9820 O   0  0  0  0  0  0  0  0  0  0  0  0
  1  2  1  0
  2  3  1  0
  4  3  1  0
  5  6  1  6
  5  4  1  0
  7  5  1  0
  8  7  2  0
 10  9  1  6
 10 12  1  0
 10 11  1  0
 12 13  1  6
 13  7  1  0
 14 15  2  0
 14 12  1  0
 16 14  1  0
 17 16  1  0
 17 18  1  1
 19 18  1  0
 20 19  2  0
 21 22  1  0
 21 20  1  0
 22 27  2  0
 23 22  1  0
 23 24  2  0
 24 25  1  0
 25 26  2  0
 27 19  1  0
 27 26  1  0
 28 29  1  0
 28 17  1  0
 30 28  2  0
M  END
$$$$
