MVW.pdb
     RDKit          3D

 30 31  0  0  1  0  0  0  0  0999 V2000
   12.7055  -14.2309   20.6256 C   0  0  0  0  0  0  0  0  0  0  0  0
   12.5526  -14.4242   18.8194 S   0  0  0  0  0  0  0  0  0  0  0  0
   11.3972  -13.1351   18.1876 C   0  0  0  0  0  0  0  0  0  0  0  0
   10.1558  -13.1636   19.0064 C   0  0  0  0  0  0  0  0  0  0  0  0
    9.2152  -14.2352   18.5926 C   0  0  2  0  0  0  0  0  0  0  0  0
    8.2254  -13.7339   17.6598 N   0  0  0  0  0  0  0  0  0  0  0  0
    8.4905  -14.8961   19.7121 C   0  0  0  0  0  0  0  0  0  0  0  0
    7.5199  -14.3282   20.2946 O   0  0  0  0  0  0  0  0  0  0  0  0
    6.7410  -18.2364   19.9913 C   0  0  0  0  0  0  0  0  0  0  0  0
    7.8442  -18.2216   21.0287 C   0  0  2  0  0  0  0  0  0  0  0  0
    7.3489  -18.8853   22.2972 C   0  0  0  0  0  0  0  0  0  0  0  0
    8.3444  -16.8528   21.3273 C   0  0  2  0  0  0  0  0  0  0  0  0
    8.8589  -16.1673   20.1638 N   0  0  0  0  0  0  0  0  0  0  0  0
    9.3698  -16.9448   22.4067 C   0  0  0  0  0  0  0  0  0  0  0  0
   10.4774  -17.5125   22.2946 O   0  0  0  0  0  0  0  0  0  0  0  0
    9.0308  -16.3318   23.6356 N   0  0  0  0  0  0  0  0  0  0  0  0
    9.9744  -16.3295   24.7595 C   0  0  1  0  0  0  0  0  0  0  0  0
    9.8791  -14.9360   25.3351 C   0  0  0  0  0  0  0  0  0  0  0  0
    8.4940  -14.6116   25.7025 C   0  0  0  0  0  0  0  0  0  0  0  0
    7.5181  -15.6013   25.8735 C   0  0  0  0  0  0  0  0  0  0  0  0
    6.3651  -15.0571   26.2515 N   0  0  0  0  0  0  0  0  0  0  0  0
    6.5531  -13.7240   26.3345 C   0  0  0  0  0  0  0  0  0  0  0  0
    5.6842  -12.7021   26.6698 C   0  0  0  0  0  0  0  0  0  0  0  0
    6.1190  -11.3846   26.6695 C   0  0  0  0  0  0  0  0  0  0  0  0
    7.4109  -11.1432   26.3321 C   0  0  0  0  0  0  0  0  0  0  0  0
    8.3150  -12.1379   25.9897 C   0  0  0  0  0  0  0  0  0  0  0  0
    7.8645  -13.4416   25.9965 C   0  0  0  0  0  0  0  0  0  0  0  0
    9.5810  -17.4147   25.6620 C   0  0  0  0  0  0  0  0  0  0  0  0
   10.4348  -17.8697   26.6861 O   0  0  0  0  0  0  0  0  0  0  0  0
    8.4745  -18.0022   25.5851 O   0  0  0  0  0  0  0  0  0  0  0  0
  1  2  1  0
  2  3  1  0
  4  3  1  0
  5  6  1  6
  5  4  1  0
  7  5  1  0
  8  7  2  0
 10  9  1  6
 10 12  1  0
 10 11  1  0
 12 13  1  6
 13  7  1  0
 14 15  2  0
 14 12  1  0
 16 14  1  0
 17 16  1  0
 17 18  1  1
 19 18  1  0
 20 19  2  0
 21 22  1  0
 21 20  1  0
 22 27  2  0
 23 22  1  0
 23 24  2  0
 24 25  1  0
 25 26  2  0
 27 19  1  0
 27 26  1  0
 28 29  1  0
 28 17  1  0
 30 28  2  0
M  END
$$$$
