MVW.pdb
     RDKit          3D

 30 31  0  0  1  0  0  0  0  0999 V2000
   13.8898  -19.8789   18.6822 C   0  0  0  0  0  0  0  0  0  0  0  0
   15.0391  -18.4936   18.3944 S   0  0  0  0  0  0  0  0  0  0  0  0
   14.0729  -17.0465   17.7877 C   0  0  0  0  0  0  0  0  0  0  0  0
   13.4489  -16.3660   18.9538 C   0  0  0  0  0  0  0  0  0  0  0  0
   12.5103  -15.2859   18.5582 C   0  0  2  0  0  0  0  0  0  0  0  0
   13.2129  -14.1808   17.9369 N   0  0  0  0  0  0  0  0  0  0  0  0
   11.6892  -14.7343   19.6703 C   0  0  0  0  0  0  0  0  0  0  0  0
   12.1620  -13.8804   20.4773 O   0  0  0  0  0  0  0  0  0  0  0  0
    8.0658  -13.3363   19.4240 C   0  0  0  0  0  0  0  0  0  0  0  0
    8.1070  -14.4226   20.4783 C   0  0  2  0  0  0  0  0  0  0  0  0
    7.2443  -14.0131   21.6544 C   0  0  0  0  0  0  0  0  0  0  0  0
    9.4866  -14.7359   20.9382 C   0  0  2  0  0  0  0  0  0  0  0  0
   10.3662  -15.1431   19.8664 N   0  0  0  0  0  0  0  0  0  0  0  0
    9.4089  -15.7735   22.0070 C   0  0  0  0  0  0  0  0  0  0  0  0
    9.4399  -17.0071   21.8099 O   0  0  0  0  0  0  0  0  0  0  0  0
    9.2932  -15.2899   23.3312 N   0  0  0  0  0  0  0  0  0  0  0  0
    9.6149  -16.1498   24.4759 C   0  0  1  0  0  0  0  0  0  0  0  0
    9.6196  -15.2174   25.6645 C   0  0  0  0  0  0  0  0  0  0  0  0
    8.2884  -14.6350   25.8823 C   0  0  0  0  0  0  0  0  0  0  0  0
    7.1181  -15.3988   25.7926 C   0  0  0  0  0  0  0  0  0  0  0  0
    6.0540  -14.6549   26.0801 N   0  0  0  0  0  0  0  0  0  0  0  0
    6.4921  -13.4100   26.3583 C   0  0  0  0  0  0  0  0  0  0  0  0
    5.8058  -12.2602   26.7033 C   0  0  0  0  0  0  0  0  0  0  0  0
    6.4924  -11.0763   26.9307 C   0  0  0  0  0  0  0  0  0  0  0  0
    7.8431  -11.0918   26.8027 C   0  0  0  0  0  0  0  0  0  0  0  0
    8.5700  -12.2222   26.4590 C   0  0  0  0  0  0  0  0  0  0  0  0
    7.8700  -13.3899   26.2377 C   0  0  0  0  0  0  0  0  0  0  0  0
    8.6128  -17.2182   24.5145 C   0  0  0  0  0  0  0  0  0  0  0  0
    7.4491  -17.1683   23.7221 O   0  0  0  0  0  0  0  0  0  0  0  0
    8.7223  -18.2336   25.2442 O   0  0  0  0  0  0  0  0  0  0  0  0
  1  2  1  0
  2  3  1  0
  4  3  1  0
  5  6  1  1
  5  4  1  0
  7  5  1  0
  8  7  2  0
 10  9  1  6
 10 12  1  0
 10 11  1  0
 12 13  1  6
 13  7  1  0
 14 15  2  0
 14 12  1  0
 16 14  1  0
 17 16  1  0
 17 18  1  1
 19 18  1  0
 20 19  2  0
 21 22  1  0
 21 20  1  0
 22 27  2  0
 23 22  1  0
 23 24  2  0
 24 25  1  0
 25 26  2  0
 27 19  1  0
 27 26  1  0
 28 29  1  0
 28 17  1  0
 30 28  2  0
M  END
$$$$
