MVW.pdb
     RDKit          3D

 30 31  0  0  1  0  0  0  0  0999 V2000
    8.6675  -11.5128   19.9506 C   0  0  0  0  0  0  0  0  0  0  0  0
    7.0445  -12.3046   19.7019 S   0  0  0  0  0  0  0  0  0  0  0  0
    7.3133  -14.0904   19.3357 C   0  0  0  0  0  0  0  0  0  0  0  0
    7.7924  -14.7647   20.5718 C   0  0  0  0  0  0  0  0  0  0  0  0
    8.1146  -16.1984   20.3601 C   0  0  2  0  0  0  0  0  0  0  0  0
    6.9617  -16.9296   19.8732 N   0  0  0  0  0  0  0  0  0  0  0  0
    8.6266  -16.9074   21.5645 C   0  0  0  0  0  0  0  0  0  0  0  0
    7.8693  -17.6356   22.2717 O   0  0  0  0  0  0  0  0  0  0  0  0
   12.1207  -18.7430   21.4650 C   0  0  0  0  0  0  0  0  0  0  0  0
   12.0099  -17.9012   22.7189 C   0  0  2  0  0  0  0  0  0  0  0  0
   12.6174  -18.6547   23.8843 C   0  0  0  0  0  0  0  0  0  0  0  0
   10.6102  -17.5087   23.0350 C   0  0  2  0  0  0  0  0  0  0  0  0
    9.9627  -16.7911   21.9607 N   0  0  0  0  0  0  0  0  0  0  0  0
   10.6110  -16.7176   24.2996 C   0  0  0  0  0  0  0  0  0  0  0  0
   11.1155  -15.5821   24.4328 O   0  0  0  0  0  0  0  0  0  0  0  0
    9.9842  -17.3278   25.4113 N   0  0  0  0  0  0  0  0  0  0  0  0
   10.0584  -16.7179   26.7439 C   0  0  1  0  0  0  0  0  0  0  0  0
    8.6560  -16.8314   27.2942 C   0  0  0  0  0  0  0  0  0  0  0  0
    7.7606  -15.8545   26.6596 C   0  0  0  0  0  0  0  0  0  0  0  0
    6.6514  -16.2457   25.8995 C   0  0  0  0  0  0  0  0  0  0  0  0
    5.9773  -15.1798   25.4779 N   0  0  0  0  0  0  0  0  0  0  0  0
    6.6162  -14.0859   25.9411 C   0  0  0  0  0  0  0  0  0  0  0  0
    6.3439  -12.7393   25.7850 C   0  0  0  0  0  0  0  0  0  0  0  0
    7.1734  -11.7860   26.3576 C   0  0  0  0  0  0  0  0  0  0  0  0
    8.2458  -12.2215   27.0657 C   0  0  0  0  0  0  0  0  0  0  0  0
    8.5549  -13.5615   27.2468 C   0  0  0  0  0  0  0  0  0  0  0  0
    7.7181  -14.4945   26.6708 C   0  0  0  0  0  0  0  0  0  0  0  0
   11.0923  -17.4347   27.4951 C   0  0  0  0  0  0  0  0  0  0  0  0
   11.6525  -16.9020   28.6728 O   0  0  0  0  0  0  0  0  0  0  0  0
   11.5408  -18.5537   27.1457 O   0  0  0  0  0  0  0  0  0  0  0  0
  1  2  1  0
  2  3  1  0
  4  3  1  0
  5  6  1  1
  5  4  1  0
  7  5  1  0
  8  7  2  0
 10  9  1  6
 10 12  1  0
 10 11  1  0
 12 13  1  6
 13  7  1  0
 14 15  2  0
 14 12  1  0
 16 14  1  0
 17 16  1  0
 17 18  1  1
 19 18  1  0
 20 19  2  0
 21 22  1  0
 21 20  1  0
 22 27  2  0
 23 22  1  0
 23 24  2  0
 24 25  1  0
 25 26  2  0
 27 19  1  0
 27 26  1  0
 28 29  1  0
 28 17  1  0
 30 28  2  0
M  END
$$$$
