MVW.pdb
     RDKit          3D

 30 31  0  0  1  0  0  0  0  0999 V2000
    9.9998  -18.6565   15.6922 C   0  0  0  0  0  0  0  0  0  0  0  0
    8.2717  -18.7193   16.2693 S   0  0  0  0  0  0  0  0  0  0  0  0
    8.2444  -18.3673   18.0779 C   0  0  0  0  0  0  0  0  0  0  0  0
    9.3195  -19.1579   18.7346 C   0  0  0  0  0  0  0  0  0  0  0  0
    9.3915  -18.9299   20.2000 C   0  0  2  0  0  0  0  0  0  0  0  0
    8.1439  -19.2823   20.8483 N   0  0  0  0  0  0  0  0  0  0  0  0
    9.7330  -17.5372   20.5987 C   0  0  0  0  0  0  0  0  0  0  0  0
   10.8062  -16.9862   20.2134 O   0  0  0  0  0  0  0  0  0  0  0  0
    7.0071  -14.6862   20.4591 C   0  0  0  0  0  0  0  0  0  0  0  0
    7.7305  -14.6589   21.7892 C   0  0  2  0  0  0  0  0  0  0  0  0
    7.9533  -13.2206   22.2096 C   0  0  0  0  0  0  0  0  0  0  0  0
    9.0244  -15.3924   21.7636 C   0  0  2  0  0  0  0  0  0  0  0  0
    8.8818  -16.7882   21.4175 N   0  0  0  0  0  0  0  0  0  0  0  0
    9.6956  -15.2217   23.0847 C   0  0  0  0  0  0  0  0  0  0  0  0
   10.3698  -14.2246   23.4210 O   0  0  0  0  0  0  0  0  0  0  0  0
    9.5355  -16.2865   24.0020 N   0  0  0  0  0  0  0  0  0  0  0  0
   10.1538  -16.2320   25.3317 C   0  0  1  0  0  0  0  0  0  0  0  0
    9.0298  -16.5531   26.2888 C   0  0  0  0  0  0  0  0  0  0  0  0
    7.9428  -15.5715   26.1728 C   0  0  0  0  0  0  0  0  0  0  0  0
    6.6900  -15.9073   25.6448 C   0  0  0  0  0  0  0  0  0  0  0  0
    5.8691  -14.8622   25.6943 N   0  0  0  0  0  0  0  0  0  0  0  0
    6.5508  -13.8362   26.2438 C   0  0  0  0  0  0  0  0  0  0  0  0
    6.1736  -12.5330   26.5109 C   0  0  0  0  0  0  0  0  0  0  0  0
    7.0759  -11.6449   27.0783 C   0  0  0  0  0  0  0  0  0  0  0  0
    8.3238  -12.0996   27.3561 C   0  0  0  0  0  0  0  0  0  0  0  0
    8.7428  -13.3978   27.1048 C   0  0  0  0  0  0  0  0  0  0  0  0
    7.8315  -14.2663   26.5412 C   0  0  0  0  0  0  0  0  0  0  0  0
   11.2735  -17.1772   25.3316 C   0  0  0  0  0  0  0  0  0  0  0  0
   12.1427  -17.2925   26.4342 O   0  0  0  0  0  0  0  0  0  0  0  0
   11.5292  -17.9357   24.3648 O   0  0  0  0  0  0  0  0  0  0  0  0
  1  2  1  0
  2  3  1  0
  4  3  1  0
  5  6  1  1
  5  4  1  0
  7  5  1  0
  8  7  2  0
 10  9  1  6
 10 12  1  0
 10 11  1  0
 12 13  1  1
 13  7  1  0
 14 15  2  0
 14 12  1  0
 16 14  1  0
 17 16  1  0
 17 18  1  1
 19 18  1  0
 20 19  2  0
 21 22  1  0
 21 20  1  0
 22 27  2  0
 23 22  1  0
 23 24  2  0
 24 25  1  0
 25 26  2  0
 27 19  1  0
 27 26  1  0
 28 29  1  0
 28 17  1  0
 30 28  2  0
M  END
$$$$
