MVW.pdb
     RDKit          3D

 30 31  0  0  1  0  0  0  0  0999 V2000
    7.9615  -20.8423   25.5043 C   0  0  0  0  0  0  0  0  0  0  0  0
    6.1574  -20.9885   25.2877 S   0  0  0  0  0  0  0  0  0  0  0  0
    5.7318  -20.4931   23.5646 C   0  0  0  0  0  0  0  0  0  0  0  0
    6.5858  -19.3395   23.1746 C   0  0  0  0  0  0  0  0  0  0  0  0
    6.3450  -18.8875   21.7810 C   0  0  2  0  0  0  0  0  0  0  0  0
    6.3571  -20.0042   20.8571 N   0  0  0  0  0  0  0  0  0  0  0  0
    7.3104  -17.8720   21.2788 C   0  0  0  0  0  0  0  0  0  0  0  0
    8.3315  -18.2086   20.6095 O   0  0  0  0  0  0  0  0  0  0  0  0
    6.3886  -14.1387   19.7677 C   0  0  0  0  0  0  0  0  0  0  0  0
    7.3193  -14.1351   20.9623 C   0  0  2  0  0  0  0  0  0  0  0  0
    8.3297  -13.0170   20.8076 C   0  0  0  0  0  0  0  0  0  0  0  0
    8.0172  -15.4338   21.1608 C   0  0  2  0  0  0  0  0  0  0  0  0
    7.1261  -16.5091   21.5321 N   0  0  0  0  0  0  0  0  0  0  0  0
    9.0981  -15.2447   22.1713 C   0  0  0  0  0  0  0  0  0  0  0  0
   10.0950  -14.5060   22.0226 O   0  0  0  0  0  0  0  0  0  0  0  0
    8.9513  -15.9698   23.3769 N   0  0  0  0  0  0  0  0  0  0  0  0
    9.9426  -15.8485   24.4520 C   0  0  1  0  0  0  0  0  0  0  0  0
    9.7537  -14.4493   24.9894 C   0  0  0  0  0  0  0  0  0  0  0  0
    8.3697  -14.2388   25.4354 C   0  0  0  0  0  0  0  0  0  0  0  0
    7.4221  -15.2699   25.4333 C   0  0  0  0  0  0  0  0  0  0  0  0
    6.2650  -14.8392   25.9272 N   0  0  0  0  0  0  0  0  0  0  0  0
    6.4224  -13.5409   26.2571 C   0  0  0  0  0  0  0  0  0  0  0  0
    5.5367  -12.6251   26.7944 C   0  0  0  0  0  0  0  0  0  0  0  0
    5.9393  -11.3195   27.0353 C   0  0  0  0  0  0  0  0  0  0  0  0
    7.2170  -10.9827   26.7272 C   0  0  0  0  0  0  0  0  0  0  0  0
    8.1371  -11.8695   26.1876 C   0  0  0  0  0  0  0  0  0  0  0  0
    7.7187  -13.1632   25.9559 C   0  0  0  0  0  0  0  0  0  0  0  0
    9.6876  -16.9316   25.4053 C   0  0  0  0  0  0  0  0  0  0  0  0
   10.5874  -17.2239   26.4492 O   0  0  0  0  0  0  0  0  0  0  0  0
    8.6665  -17.6600   25.3571 O   0  0  0  0  0  0  0  0  0  0  0  0
  1  2  1  0
  2  3  1  0
  4  3  1  0
  5  6  1  6
  5  4  1  0
  7  5  1  0
  8  7  2  0
 10  9  1  6
 10 12  1  0
 10 11  1  0
 12 13  1  1
 13  7  1  0
 14 15  2  0
 14 12  1  0
 16 14  1  0
 17 16  1  0
 17 18  1  1
 19 18  1  0
 20 19  2  0
 21 22  1  0
 21 20  1  0
 22 27  2  0
 23 22  1  0
 23 24  2  0
 24 25  1  0
 25 26  2  0
 27 19  1  0
 27 26  1  0
 28 29  1  0
 28 17  1  0
 30 28  2  0
M  END
$$$$
