MVW.pdb
     RDKit          3D

 30 31  0  0  1  0  0  0  0  0999 V2000
   12.4499  -21.2786   20.6188 C   0  0  0  0  0  0  0  0  0  0  0  0
   12.9367  -21.1195   18.8693 S   0  0  0  0  0  0  0  0  0  0  0  0
   11.9215  -19.7898   18.0968 C   0  0  0  0  0  0  0  0  0  0  0  0
   11.3792  -18.9172   19.1722 C   0  0  0  0  0  0  0  0  0  0  0  0
   10.5738  -17.7858   18.6472 C   0  0  2  0  0  0  0  0  0  0  0  0
   11.1930  -17.1996   17.4751 N   0  0  0  0  0  0  0  0  0  0  0  0
   10.3240  -16.6913   19.6243 C   0  0  0  0  0  0  0  0  0  0  0  0
   11.1724  -15.7700   19.8123 O   0  0  0  0  0  0  0  0  0  0  0  0
    6.4986  -16.5590   21.6722 C   0  0  0  0  0  0  0  0  0  0  0  0
    7.4509  -15.3830   21.6152 C   0  0  2  0  0  0  0  0  0  0  0  0
    7.0768  -14.4907   20.4494 C   0  0  0  0  0  0  0  0  0  0  0  0
    8.8771  -15.7930   21.5107 C   0  0  2  0  0  0  0  0  0  0  0  0
    9.1440  -16.6436   20.3733 N   0  0  0  0  0  0  0  0  0  0  0  0
    9.2804  -16.4462   22.7896 C   0  0  0  0  0  0  0  0  0  0  0  0
    9.5059  -17.6674   22.9291 O   0  0  0  0  0  0  0  0  0  0  0  0
    9.4089  -15.5896   23.9079 N   0  0  0  0  0  0  0  0  0  0  0  0
    9.8533  -16.1102   25.2059 C   0  0  1  0  0  0  0  0  0  0  0  0
    9.8374  -14.9106   26.1241 C   0  0  0  0  0  0  0  0  0  0  0  0
    8.4848  -14.3469   26.2307 C   0  0  0  0  0  0  0  0  0  0  0  0
    7.3368  -15.1423   26.1284 C   0  0  0  0  0  0  0  0  0  0  0  0
    6.2437  -14.4067   26.3083 N   0  0  0  0  0  0  0  0  0  0  0  0
    6.6407  -13.1364   26.5271 C   0  0  0  0  0  0  0  0  0  0  0  0
    5.9135  -11.9832   26.7579 C   0  0  0  0  0  0  0  0  0  0  0  0
    6.5625  -10.7711   26.9435 C   0  0  0  0  0  0  0  0  0  0  0  0
    7.9183  -10.7631   26.8900 C   0  0  0  0  0  0  0  0  0  0  0  0
    8.6856  -11.8958   26.6614 C   0  0  0  0  0  0  0  0  0  0  0  0
    8.0225  -13.0916   26.4801 C   0  0  0  0  0  0  0  0  0  0  0  0
    8.9452  -17.1997   25.5734 C   0  0  0  0  0  0  0  0  0  0  0  0
    9.2999  -18.1633   26.5380 O   0  0  0  0  0  0  0  0  0  0  0  0
    7.8081  -17.3453   25.0622 O   0  0  0  0  0  0  0  0  0  0  0  0
  1  2  1  0
  2  3  1  0
  4  3  1  0
  5  6  1  6
  5  4  1  0
  7  5  1  0
  8  7  2  0
 10  9  1  6
 10 12  1  0
 10 11  1  0
 12 13  1  6
 13  7  1  0
 14 15  2  0
 14 12  1  0
 16 14  1  0
 17 16  1  0
 17 18  1  1
 19 18  1  0
 20 19  2  0
 21 22  1  0
 21 20  1  0
 22 27  2  0
 23 22  1  0
 23 24  2  0
 24 25  1  0
 25 26  2  0
 27 19  1  0
 27 26  1  0
 28 29  1  0
 28 17  1  0
 30 28  2  0
M  END
$$$$
