MVW.pdb
     RDKit          3D

 30 31  0  0  1  0  0  0  0  0999 V2000
    8.8438  -11.8350   19.9824 C   0  0  0  0  0  0  0  0  0  0  0  0
    7.6500  -12.2903   18.6821 S   0  0  0  0  0  0  0  0  0  0  0  0
    8.0408  -13.9936   18.0977 C   0  0  0  0  0  0  0  0  0  0  0  0
    8.4915  -14.8055   19.2595 C   0  0  0  0  0  0  0  0  0  0  0  0
    8.8789  -16.1883   18.8825 C   0  0  2  0  0  0  0  0  0  0  0  0
    7.7851  -16.8812   18.2310 N   0  0  0  0  0  0  0  0  0  0  0  0
    9.3442  -17.0364   20.0137 C   0  0  0  0  0  0  0  0  0  0  0  0
    8.5344  -17.7431   20.6835 O   0  0  0  0  0  0  0  0  0  0  0  0
   12.8309  -19.0970   20.2024 C   0  0  0  0  0  0  0  0  0  0  0  0
   12.6553  -18.1554   21.3754 C   0  0  2  0  0  0  0  0  0  0  0  0
   13.1574  -18.8268   22.6371 C   0  0  0  0  0  0  0  0  0  0  0  0
   11.2484  -17.7077   21.5572 C   0  0  2  0  0  0  0  0  0  0  0  0
   10.6932  -17.0796   20.3800 N   0  0  0  0  0  0  0  0  0  0  0  0
   11.1850  -16.8034   22.7418 C   0  0  0  0  0  0  0  0  0  0  0  0
   11.6482  -15.6434   22.7818 O   0  0  0  0  0  0  0  0  0  0  0  0
   10.5449  -17.3297   23.8881 N   0  0  0  0  0  0  0  0  0  0  0  0
   10.3080  -16.4904   25.0683 C   0  0  1  0  0  0  0  0  0  0  0  0
    9.0819  -15.6794   24.7202 C   0  0  0  0  0  0  0  0  0  0  0  0
    8.6433  -14.8700   25.8652 C   0  0  0  0  0  0  0  0  0  0  0  0
    9.1588  -15.0616   27.1531 C   0  0  0  0  0  0  0  0  0  0  0  0
    8.6404  -14.1753   27.9982 N   0  0  0  0  0  0  0  0  0  0  0  0
    7.7886  -13.3976   27.2990 C   0  0  0  0  0  0  0  0  0  0  0  0
    6.9878  -12.3420   27.6943 C   0  0  0  0  0  0  0  0  0  0  0  0
    6.1726  -11.6985   26.7744 C   0  0  0  0  0  0  0  0  0  0  0  0
    6.1925  -12.1400   25.4915 C   0  0  0  0  0  0  0  0  0  0  0  0
    6.9803  -13.1941   25.0532 C   0  0  0  0  0  0  0  0  0  0  0  0
    7.7847  -13.8208   25.9820 C   0  0  0  0  0  0  0  0  0  0  0  0
   10.1679  -17.3857   26.2197 C   0  0  0  0  0  0  0  0  0  0  0  0
   10.7195  -17.0653   27.4758 O   0  0  0  0  0  0  0  0  0  0  0  0
    9.5565  -18.4805   26.1654 O   0  0  0  0  0  0  0  0  0  0  0  0
  1  2  1  0
  2  3  1  0
  4  3  1  0
  5  6  1  1
  5  4  1  0
  7  5  1  0
  8  7  2  0
 10  9  1  6
 10 12  1  0
 10 11  1  0
 12 13  1  6
 13  7  1  0
 14 15  2  0
 14 12  1  0
 16 14  1  0
 17 16  1  0
 17 18  1  6
 19 18  1  0
 20 19  2  0
 21 22  1  0
 21 20  1  0
 22 27  2  0
 23 22  1  0
 23 24  2  0
 24 25  1  0
 25 26  2  0
 27 19  1  0
 27 26  1  0
 28 29  1  0
 28 17  1  0
 30 28  2  0
M  END
$$$$
