CPG.pdb
     RDKit          3D

 18 18  0  0  1  0  0  0  0  0999 V2000
    9.1752  -15.4613   14.6744 N   0  0  0  0  0  0  0  0  0  0  0  0
    8.4163  -15.0936   15.8700 C   0  0  1  0  0  0  0  0  0  0  0  0
    7.4875  -16.2814   16.1407 C   0  0  0  0  0  0  0  0  0  0  0  0
    8.5919  -17.7016   16.4793 S   0  0  0  0  0  0  0  0  0  0  0  0
    9.3221  -14.8323   17.0017 C   0  0  0  0  0  0  0  0  0  0  0  0
   10.5493  -15.1789   16.9394 O   0  0  0  0  0  0  0  0  0  0  0  0
    8.8347  -14.1952   18.1625 N   0  0  0  0  0  0  0  0  0  0  0  0
    7.4870  -13.8490   18.4892 C   0  0  0  0  0  0  0  0  0  0  0  0
    7.5890  -12.5217   19.2203 C   0  0  0  0  0  0  0  0  0  0  0  0
    8.9184  -12.6255   19.9458 C   0  0  0  0  0  0  0  0  0  0  0  0
    9.6497  -13.7536   19.2919 C   0  0  1  0  0  0  0  0  0  0  0  0
    9.7957  -14.8458   20.2742 C   0  0  0  0  0  0  0  0  0  0  0  0
    8.8473  -15.6401   20.4440 O   0  0  0  0  0  0  0  0  0  0  0  0
   10.9741  -15.0261   21.0324 N   0  0  0  0  0  0  0  0  0  0  0  0
   11.1803  -16.2232   21.8134 C   0  0  0  0  0  0  0  0  0  0  0  0
   12.4674  -16.1873   22.5541 C   0  0  0  0  0  0  0  0  0  0  0  0
   13.3055  -15.1016   22.3659 O   0  0  0  0  0  0  0  0  0  0  0  0
   12.7954  -17.1108   23.3315 O   0  0  0  0  0  0  0  0  0  0  0  0
  2  1  1  6
  2  3  1  0
  3  4  1  0
  5  6  2  0
  5  2  1  0
  7  5  1  0
  8  7  1  0
  9  8  1  0
 10  9  1  0
 10 11  1  0
 11 12  1  1
 11  7  1  0
 12 13  2  0
 14 12  1  0
 14 15  1  0
 15 16  1  0
 16 18  2  0
 16 17  1  0
M  END
$$$$
