CPG.pdb
     RDKit          3D

 18 18  0  0  1  0  0  0  0  0999 V2000
    5.8552  -15.1782   26.7310 N   0  0  0  0  0  0  0  0  0  0  0  0
    6.5792  -14.3945   25.7298 C   0  0  1  0  0  0  0  0  0  0  0  0
    7.3740  -13.3554   26.5270 C   0  0  0  0  0  0  0  0  0  0  0  0
    6.1934  -12.0029   26.8852 S   0  0  0  0  0  0  0  0  0  0  0  0
    7.4565  -15.2615   24.9248 C   0  0  0  0  0  0  0  0  0  0  0  0
    7.8265  -16.3986   25.3719 O   0  0  0  0  0  0  0  0  0  0  0  0
    7.8921  -14.8366   23.6517 N   0  0  0  0  0  0  0  0  0  0  0  0
    7.7050  -13.5659   23.0247 C   0  0  0  0  0  0  0  0  0  0  0  0
    7.4913  -13.8813   21.5545 C   0  0  0  0  0  0  0  0  0  0  0  0
    8.3484  -15.1149   21.3354 C   0  0  0  0  0  0  0  0  0  0  0  0
    8.6458  -15.6491   22.6997 C   0  0  1  0  0  0  0  0  0  0  0  0
   10.0948  -15.5135   22.9474 C   0  0  0  0  0  0  0  0  0  0  0  0
   10.5024  -14.5783   23.6676 O   0  0  0  0  0  0  0  0  0  0  0  0
   11.0412  -16.4066   22.3974 N   0  0  0  0  0  0  0  0  0  0  0  0
   12.3889  -16.4722   22.9119 C   0  0  0  0  0  0  0  0  0  0  0  0
   13.2025  -17.4958   22.2071 C   0  0  0  0  0  0  0  0  0  0  0  0
   14.2243  -17.0677   21.3769 O   0  0  0  0  0  0  0  0  0  0  0  0
   12.9779  -18.7176   22.3534 O   0  0  0  0  0  0  0  0  0  0  0  0
  2  1  1  1
  2  3  1  0
  3  4  1  0
  5  6  2  0
  5  2  1  0
  7  5  1  0
  8  7  1  0
  9  8  1  0
 10  9  1  0
 10 11  1  0
 11 12  1  1
 11  7  1  0
 12 13  2  0
 14 12  1  0
 14 15  1  0
 15 16  1  0
 16 18  2  0
 16 17  1  0
M  END
$$$$
