CPG.pdb
     RDKit          3D

 18 18  0  0  1  0  0  0  0  0999 V2000
    5.7979  -14.4626   26.6397 N   0  0  0  0  0  0  0  0  0  0  0  0
    6.6085  -13.8252   25.6018 C   0  0  1  0  0  0  0  0  0  0  0  0
    7.6015  -12.9341   26.3545 C   0  0  0  0  0  0  0  0  0  0  0  0
    6.6777  -11.4086   26.7675 S   0  0  0  0  0  0  0  0  0  0  0  0
    7.2903  -14.8382   24.7783 C   0  0  0  0  0  0  0  0  0  0  0  0
    7.4738  -16.0188   25.2282 O   0  0  0  0  0  0  0  0  0  0  0  0
    7.7442  -14.5059   23.4842 N   0  0  0  0  0  0  0  0  0  0  0  0
    7.8093  -13.2187   22.8664 C   0  0  0  0  0  0  0  0  0  0  0  0
    7.4583  -13.4645   21.4093 C   0  0  0  0  0  0  0  0  0  0  0  0
    8.0118  -14.8536   21.1478 C   0  0  0  0  0  0  0  0  0  0  0  0
    8.2527  -15.4540   22.4956 C   0  0  1  0  0  0  0  0  0  0  0  0
    9.7067  -15.6417   22.6689 C   0  0  0  0  0  0  0  0  0  0  0  0
   10.3515  -16.2384   21.7815 O   0  0  0  0  0  0  0  0  0  0  0  0
   10.3982  -15.1691   23.8066 N   0  0  0  0  0  0  0  0  0  0  0  0
   11.8273  -15.3354   23.9308 C   0  0  0  0  0  0  0  0  0  0  0  0
   12.1864  -16.6830   24.4423 C   0  0  0  0  0  0  0  0  0  0  0  0
   12.8339  -17.5602   23.5891 O   0  0  0  0  0  0  0  0  0  0  0  0
   11.9149  -17.0266   25.6140 O   0  0  0  0  0  0  0  0  0  0  0  0
  2  1  1  1
  2  3  1  0
  3  4  1  0
  5  6  2  0
  5  2  1  0
  7  5  1  0
  8  7  1  0
  9  8  1  0
 10  9  1  0
 10 11  1  0
 11 12  1  1
 11  7  1  0
 12 13  2  0
 14 12  1  0
 14 15  1  0
 15 16  1  0
 16 18  2  0
 16 17  1  0
M  END
$$$$
