CPG.pdb
     RDKit          3D

 18 18  0  0  1  0  0  0  0  0999 V2000
    6.0115  -19.0113   24.6476 N   0  0  0  0  0  0  0  0  0  0  0  0
    6.3078  -17.6069   24.3635 C   0  0  1  0  0  0  0  0  0  0  0  0
    6.5369  -16.9571   25.7317 C   0  0  0  0  0  0  0  0  0  0  0  0
    7.9405  -17.8651   26.4779 S   0  0  0  0  0  0  0  0  0  0  0  0
    7.4895  -17.4900   23.4922 C   0  0  0  0  0  0  0  0  0  0  0  0
    8.1575  -18.5286   23.1679 O   0  0  0  0  0  0  0  0  0  0  0  0
    7.8883  -16.2250   23.0108 N   0  0  0  0  0  0  0  0  0  0  0  0
    7.3192  -14.9447   23.2932 C   0  0  0  0  0  0  0  0  0  0  0  0
    7.4218  -14.1732   21.9890 C   0  0  0  0  0  0  0  0  0  0  0  0
    8.6974  -14.7112   21.3662 C   0  0  0  0  0  0  0  0  0  0  0  0
    9.0021  -15.9788   22.0977 C   0  0  1  0  0  0  0  0  0  0  0  0
   10.2532  -15.7889   22.8579 C   0  0  0  0  0  0  0  0  0  0  0  0
   10.2480  -15.0413   23.8580 O   0  0  0  0  0  0  0  0  0  0  0  0
   11.4612  -16.4247   22.4939 N   0  0  0  0  0  0  0  0  0  0  0  0
   12.6466  -16.2914   23.3077 C   0  0  0  0  0  0  0  0  0  0  0  0
   13.7946  -15.7555   22.5320 C   0  0  0  0  0  0  0  0  0  0  0  0
   14.9552  -15.4306   23.2131 O   0  0  0  0  0  0  0  0  0  0  0  0
   13.7243  -15.5978   21.2931 O   0  0  0  0  0  0  0  0  0  0  0  0
  2  1  1  1
  2  3  1  0
  3  4  1  0
  5  6  2  0
  5  2  1  0
  7  5  1  0
  8  7  1  0
  9  8  1  0
 10  9  1  0
 10 11  1  0
 11 12  1  1
 11  7  1  0
 12 13  2  0
 14 12  1  0
 14 15  1  0
 15 16  1  0
 16 18  2  0
 16 17  1  0
M  END
$$$$
