CPG.pdb
     RDKit          3D

 18 18  0  0  1  0  0  0  0  0999 V2000
    5.7974  -14.5760   26.7914 N   0  0  0  0  0  0  0  0  0  0  0  0
    6.6299  -13.9315   25.7753 C   0  0  1  0  0  0  0  0  0  0  0  0
    7.6005  -13.0385   26.5545 C   0  0  0  0  0  0  0  0  0  0  0  0
    6.6270  -11.5690   27.0488 S   0  0  0  0  0  0  0  0  0  0  0  0
    7.3360  -14.9389   24.9653 C   0  0  0  0  0  0  0  0  0  0  0  0
    7.5325  -16.1138   25.4244 O   0  0  0  0  0  0  0  0  0  0  0  0
    7.7987  -14.6073   23.6742 N   0  0  0  0  0  0  0  0  0  0  0  0
    7.8452  -13.3238   23.0471 C   0  0  0  0  0  0  0  0  0  0  0  0
    7.5171  -13.5878   21.5879 C   0  0  0  0  0  0  0  0  0  0  0  0
    8.1019  -14.9673   21.3441 C   0  0  0  0  0  0  0  0  0  0  0  0
    8.3385  -15.5523   22.6993 C   0  0  1  0  0  0  0  0  0  0  0  0
    9.7937  -15.7091   22.8916 C   0  0  0  0  0  0  0  0  0  0  0  0
   10.4508  -14.7541   23.3557 O   0  0  0  0  0  0  0  0  0  0  0  0
   10.4730  -16.9049   22.5684 N   0  0  0  0  0  0  0  0  0  0  0  0
   11.8906  -17.0429   22.8067 C   0  0  0  0  0  0  0  0  0  0  0  0
   12.1731  -17.6816   24.1177 C   0  0  0  0  0  0  0  0  0  0  0  0
   12.2322  -19.0634   24.1779 O   0  0  0  0  0  0  0  0  0  0  0  0
   12.3546  -16.9964   25.1484 O   0  0  0  0  0  0  0  0  0  0  0  0
  2  1  1  1
  2  3  1  0
  3  4  1  0
  5  6  2  0
  5  2  1  0
  7  5  1  0
  8  7  1  0
  9  8  1  0
 10  9  1  0
 10 11  1  0
 11 12  1  1
 11  7  1  0
 12 13  2  0
 14 12  1  0
 14 15  1  0
 15 16  1  0
 16 18  2  0
 16 17  1  0
M  END
$$$$
