CPG.pdb
     RDKit          3D

 18 18  0  0  1  0  0  0  0  0999 V2000
    7.1168  -16.6195   23.3490 N   0  0  0  0  0  0  0  0  0  0  0  0
    7.6355  -15.3259   22.9039 C   0  0  1  0  0  0  0  0  0  0  0  0
    8.5635  -14.8539   24.0277 C   0  0  0  0  0  0  0  0  0  0  0  0
    7.4626  -14.4226   25.4254 S   0  0  0  0  0  0  0  0  0  0  0  0
    8.3472  -15.4636   21.6218 C   0  0  0  0  0  0  0  0  0  0  0  0
    8.7409  -16.6104   21.2222 O   0  0  0  0  0  0  0  0  0  0  0  0
    8.5965  -14.3242   20.8277 N   0  0  0  0  0  0  0  0  0  0  0  0
    8.2222  -12.9671   21.0748 C   0  0  0  0  0  0  0  0  0  0  0  0
    7.8770  -12.4001   19.7088 C   0  0  0  0  0  0  0  0  0  0  0  0
    8.8166  -13.1432   18.7764 C   0  0  0  0  0  0  0  0  0  0  0  0
    9.3128  -14.3195   19.5543 C   0  0  1  0  0  0  0  0  0  0  0  0
   10.7611  -14.1490   19.7836 C   0  0  0  0  0  0  0  0  0  0  0  0
   11.1462  -13.5317   20.7984 O   0  0  0  0  0  0  0  0  0  0  0  0
   11.7315  -14.6607   18.8934 N   0  0  0  0  0  0  0  0  0  0  0  0
   13.1410  -14.5570   19.1895 C   0  0  0  0  0  0  0  0  0  0  0  0
   13.9763  -15.2040   18.1454 C   0  0  0  0  0  0  0  0  0  0  0  0
   14.8362  -14.4110   17.4051 O   0  0  0  0  0  0  0  0  0  0  0  0
   13.9116  -16.4349   17.9324 O   0  0  0  0  0  0  0  0  0  0  0  0
  2  1  1  1
  2  3  1  0
  3  4  1  0
  5  6  2  0
  5  2  1  0
  7  5  1  0
  8  7  1  0
  9  8  1  0
 10  9  1  0
 10 11  1  0
 11 12  1  1
 11  7  1  0
 12 13  2  0
 14 12  1  0
 14 15  1  0
 15 16  1  0
 16 18  2  0
 16 17  1  0
M  END
$$$$
