CPG.pdb
     RDKit          3D

 18 18  0  0  1  0  0  0  0  0999 V2000
    8.8323  -14.3010   21.3463 N   0  0  0  0  0  0  0  0  0  0  0  0
    7.8511  -13.7684   22.2919 C   0  0  1  0  0  0  0  0  0  0  0  0
    6.5005  -14.3237   21.8289 C   0  0  0  0  0  0  0  0  0  0  0  0
    6.5227  -16.1005   22.2691 S   0  0  0  0  0  0  0  0  0  0  0  0
    8.1757  -14.1827   23.6676 C   0  0  0  0  0  0  0  0  0  0  0  0
    9.1661  -14.9564   23.8918 O   0  0  0  0  0  0  0  0  0  0  0  0
    7.3903  -13.7234   24.7462 N   0  0  0  0  0  0  0  0  0  0  0  0
    6.1520  -13.0108   24.7062 C   0  0  0  0  0  0  0  0  0  0  0  0
    6.2234  -12.0345   25.8673 C   0  0  0  0  0  0  0  0  0  0  0  0
    7.0431  -12.7840   26.9021 C   0  0  0  0  0  0  0  0  0  0  0  0
    7.7096  -13.8984   26.1611 C   0  0  1  0  0  0  0  0  0  0  0  0
    7.1625  -15.1780   26.6537 C   0  0  0  0  0  0  0  0  0  0  0  0
    5.9929  -15.4942   26.3518 O   0  0  0  0  0  0  0  0  0  0  0  0
    7.9169  -16.0617   27.4574 N   0  0  0  0  0  0  0  0  0  0  0  0
    8.9799  -16.8586   26.8912 C   0  0  0  0  0  0  0  0  0  0  0  0
    9.6231  -17.7288   27.9089 C   0  0  0  0  0  0  0  0  0  0  0  0
    9.3281  -19.0813   27.9000 O   0  0  0  0  0  0  0  0  0  0  0  0
   10.4136  -17.2605   28.7577 O   0  0  0  0  0  0  0  0  0  0  0  0
  2  1  1  6
  2  3  1  0
  3  4  1  0
  5  6  2  0
  5  2  1  0
  7  5  1  0
  8  7  1  0
  9  8  1  0
 10  9  1  0
 10 11  1  0
 11 12  1  1
 11  7  1  0
 12 13  2  0
 14 12  1  0
 14 15  1  0
 15 16  1  0
 16 18  2  0
 16 17  1  0
M  END
$$$$
