CPG.pdb
     RDKit          3D

 18 18  0  0  1  0  0  0  0  0999 V2000
    7.9606  -15.4504   22.1980 N   0  0  0  0  0  0  0  0  0  0  0  0
    7.3152  -15.3918   23.5097 C   0  0  1  0  0  0  0  0  0  0  0  0
    7.1451  -16.8515   23.9423 C   0  0  0  0  0  0  0  0  0  0  0  0
    6.5152  -16.7848   25.6599 S   0  0  0  0  0  0  0  0  0  0  0  0
    8.1386  -14.6266   24.4614 C   0  0  0  0  0  0  0  0  0  0  0  0
    9.4126  -14.6653   24.3890 O   0  0  0  0  0  0  0  0  0  0  0  0
    7.5196  -13.8448   25.4597 N   0  0  0  0  0  0  0  0  0  0  0  0
    6.1250  -13.6870   25.7302 C   0  0  0  0  0  0  0  0  0  0  0  0
    5.9670  -12.2335   26.1413 C   0  0  0  0  0  0  0  0  0  0  0  0
    7.2782  -11.9256   26.8416 C   0  0  0  0  0  0  0  0  0  0  0  0
    8.2170  -13.0183   26.4421 C   0  0  1  0  0  0  0  0  0  0  0  0
    8.5418  -13.8153   27.6415 C   0  0  0  0  0  0  0  0  0  0  0  0
    7.7093  -14.6455   28.0621 O   0  0  0  0  0  0  0  0  0  0  0  0
    9.7649  -13.6725   28.3340 N   0  0  0  0  0  0  0  0  0  0  0  0
   10.1391  -14.5940   29.3810 C   0  0  0  0  0  0  0  0  0  0  0  0
   10.6396  -15.8812   28.8342 C   0  0  0  0  0  0  0  0  0  0  0  0
    9.7175  -16.8601   28.5055 O   0  0  0  0  0  0  0  0  0  0  0  0
   11.8628  -16.0857   28.6709 O   0  0  0  0  0  0  0  0  0  0  0  0
  2  1  1  6
  2  3  1  0
  3  4  1  0
  5  6  2  0
  5  2  1  0
  7  5  1  0
  8  7  1  0
  9  8  1  0
 10  9  1  0
 10 11  1  0
 11 12  1  1
 11  7  1  0
 12 13  2  0
 14 12  1  0
 14 15  1  0
 15 16  1  0
 16 18  2  0
 16 17  1  0
M  END
$$$$
