CPG.pdb
     RDKit          3D

 18 18  0  0  1  0  0  0  0  0999 V2000
    5.5380  -19.0993   19.9327 N   0  0  0  0  0  0  0  0  0  0  0  0
    5.6555  -17.9253   20.7979 C   0  0  1  0  0  0  0  0  0  0  0  0
    5.2277  -18.4037   22.1890 C   0  0  0  0  0  0  0  0  0  0  0  0
    3.3996  -18.3077   22.2009 S   0  0  0  0  0  0  0  0  0  0  0  0
    7.0352  -17.4099   20.7917 C   0  0  0  0  0  0  0  0  0  0  0  0
    8.0070  -18.1713   20.4665 O   0  0  0  0  0  0  0  0  0  0  0  0
    7.2882  -16.0677   21.1459 N   0  0  0  0  0  0  0  0  0  0  0  0
    6.3549  -15.0596   21.5405 C   0  0  0  0  0  0  0  0  0  0  0  0
    6.8854  -13.7735   20.9313 C   0  0  0  0  0  0  0  0  0  0  0  0
    8.3905  -13.9696   20.9610 C   0  0  0  0  0  0  0  0  0  0  0  0
    8.6040  -15.4335   21.1769 C   0  0  1  0  0  0  0  0  0  0  0  0
    9.2311  -15.6227   22.4998 C   0  0  0  0  0  0  0  0  0  0  0  0
    8.5093  -15.6258   23.5187 O   0  0  0  0  0  0  0  0  0  0  0  0
   10.6239  -15.8013   22.6561 N   0  0  0  0  0  0  0  0  0  0  0  0
   11.1939  -16.1124   23.9459 C   0  0  0  0  0  0  0  0  0  0  0  0
   12.6648  -16.3057   23.8701 C   0  0  0  0  0  0  0  0  0  0  0  0
   13.2650  -16.3103   22.6227 O   0  0  0  0  0  0  0  0  0  0  0  0
   13.3535  -16.4613   24.9028 O   0  0  0  0  0  0  0  0  0  0  0  0
  2  1  1  6
  2  3  1  0
  3  4  1  0
  5  6  2  0
  5  2  1  0
  7  5  1  0
  8  7  1  0
  9  8  1  0
 10  9  1  0
 10 11  1  0
 11 12  1  1
 11  7  1  0
 12 13  2  0
 14 12  1  0
 14 15  1  0
 15 16  1  0
 16 18  2  0
 16 17  1  0
M  END
$$$$
