CPG.pdb
     RDKit          3D

 18 18  0  0  1  0  0  0  0  0999 V2000
    5.6202  -14.4821   26.7800 N   0  0  0  0  0  0  0  0  0  0  0  0
    6.4081  -13.8693   25.7103 C   0  0  1  0  0  0  0  0  0  0  0  0
    7.2578  -12.7959   26.3978 C   0  0  0  0  0  0  0  0  0  0  0  0
    6.1583  -11.3443   26.5852 S   0  0  0  0  0  0  0  0  0  0  0  0
    7.2381  -14.8789   25.0312 C   0  0  0  0  0  0  0  0  0  0  0  0
    7.6118  -15.9303   25.6514 O   0  0  0  0  0  0  0  0  0  0  0  0
    7.6238  -14.6868   23.6875 N   0  0  0  0  0  0  0  0  0  0  0  0
    7.4284  -13.5376   22.8605 C   0  0  0  0  0  0  0  0  0  0  0  0
    7.1460  -14.0940   21.4758 C   0  0  0  0  0  0  0  0  0  0  0  0
    7.9743  -15.3656   21.4364 C   0  0  0  0  0  0  0  0  0  0  0  0
    8.3231  -15.6660   22.8588 C   0  0  1  0  0  0  0  0  0  0  0  0
    9.7833  -15.5223   23.0207 C   0  0  0  0  0  0  0  0  0  0  0  0
   10.2647  -14.3845   23.2019 O   0  0  0  0  0  0  0  0  0  0  0  0
   10.6598  -16.6295   22.9780 N   0  0  0  0  0  0  0  0  0  0  0  0
   12.0761  -16.4664   23.2080 C   0  0  0  0  0  0  0  0  0  0  0  0
   12.7901  -17.7690   23.2174 C   0  0  0  0  0  0  0  0  0  0  0  0
   12.0677  -18.9138   23.5069 O   0  0  0  0  0  0  0  0  0  0  0  0
   14.0144  -17.8404   22.9710 O   0  0  0  0  0  0  0  0  0  0  0  0
  2  1  1  1
  2  3  1  0
  3  4  1  0
  5  6  2  0
  5  2  1  0
  7  5  1  0
  8  7  1  0
  9  8  1  0
 10  9  1  0
 10 11  1  0
 11 12  1  6
 11  7  1  0
 12 13  2  0
 14 12  1  0
 14 15  1  0
 15 16  1  0
 16 18  2  0
 16 17  1  0
M  END
$$$$
