CPG.pdb
     RDKit          3D

 18 18  0  0  1  0  0  0  0  0999 V2000
    5.8588  -14.6610   26.6756 N   0  0  0  0  0  0  0  0  0  0  0  0
    6.7191  -14.0421   25.6669 C   0  0  1  0  0  0  0  0  0  0  0  0
    7.8989  -13.4541   26.4473 C   0  0  0  0  0  0  0  0  0  0  0  0
    7.3002  -11.8577   27.1140 S   0  0  0  0  0  0  0  0  0  0  0  0
    7.1560  -15.0379   24.6734 C   0  0  0  0  0  0  0  0  0  0  0  0
    6.9243  -16.2795   24.8593 O   0  0  0  0  0  0  0  0  0  0  0  0
    7.8341  -14.6210   23.5084 N   0  0  0  0  0  0  0  0  0  0  0  0
    8.3316  -13.3208   23.1845 C   0  0  0  0  0  0  0  0  0  0  0  0
    8.0996  -13.1727   21.6909 C   0  0  0  0  0  0  0  0  0  0  0  0
    8.2661  -14.5892   21.1709 C   0  0  0  0  0  0  0  0  0  0  0  0
    8.1676  -15.4753   22.3710 C   0  0  1  0  0  0  0  0  0  0  0  0
    9.4788  -16.1195   22.5833 C   0  0  0  0  0  0  0  0  0  0  0  0
    9.9209  -16.8972   21.7122 O   0  0  0  0  0  0  0  0  0  0  0  0
   10.2549  -15.8873   23.7407 N   0  0  0  0  0  0  0  0  0  0  0  0
   11.4690  -16.6305   23.9837 C   0  0  0  0  0  0  0  0  0  0  0  0
   12.6554  -15.9655   23.3864 C   0  0  0  0  0  0  0  0  0  0  0  0
   13.8550  -16.0157   24.0754 O   0  0  0  0  0  0  0  0  0  0  0  0
   12.5827  -15.3718   22.2877 O   0  0  0  0  0  0  0  0  0  0  0  0
  2  1  1  1
  2  3  1  0
  3  4  1  0
  5  6  2  0
  5  2  1  0
  7  5  1  0
  8  7  1  0
  9  8  1  0
 10  9  1  0
 10 11  1  0
 11 12  1  1
 11  7  1  0
 12 13  2  0
 14 12  1  0
 14 15  1  0
 15 16  1  0
 16 18  2  0
 16 17  1  0
M  END
$$$$
