CPG.pdb
     RDKit          3D

 18 18  0  0  1  0  0  0  0  0999 V2000
    4.9481  -13.7271   26.5537 N   0  0  0  0  0  0  0  0  0  0  0  0
    6.1078  -13.2220   25.8185 C   0  0  1  0  0  0  0  0  0  0  0  0
    6.8380  -12.2993   26.7994 C   0  0  0  0  0  0  0  0  0  0  0  0
    8.4262  -11.8807   25.9908 S   0  0  0  0  0  0  0  0  0  0  0  0
    6.9620  -14.3334   25.3662 C   0  0  0  0  0  0  0  0  0  0  0  0
    7.1998  -15.3207   26.1400 O   0  0  0  0  0  0  0  0  0  0  0  0
    7.5217  -14.3107   24.0712 N   0  0  0  0  0  0  0  0  0  0  0  0
    7.5342  -13.2396   23.1249 C   0  0  0  0  0  0  0  0  0  0  0  0
    7.3689  -13.9092   21.7718 C   0  0  0  0  0  0  0  0  0  0  0  0
    8.0742  -15.2410   21.9545 C   0  0  0  0  0  0  0  0  0  0  0  0
    8.2211  -15.4224   23.4311 C   0  0  1  0  0  0  0  0  0  0  0  0
    9.6585  -15.3815   23.7649 C   0  0  0  0  0  0  0  0  0  0  0  0
   10.1983  -14.2781   23.9888 O   0  0  0  0  0  0  0  0  0  0  0  0
   10.4491  -16.5500   23.8407 N   0  0  0  0  0  0  0  0  0  0  0  0
   11.8131  -16.4961   24.3117 C   0  0  0  0  0  0  0  0  0  0  0  0
   12.4082  -17.8506   24.4440 C   0  0  0  0  0  0  0  0  0  0  0  0
   11.8577  -18.7245   25.3659 O   0  0  0  0  0  0  0  0  0  0  0  0
   13.3832  -18.2030   23.7441 O   0  0  0  0  0  0  0  0  0  0  0  0
  2  1  1  1
  2  3  1  0
  3  4  1  0
  5  6  2  0
  5  2  1  0
  7  5  1  0
  8  7  1  0
  9  8  1  0
 10  9  1  0
 10 11  1  0
 11 12  1  6
 11  7  1  0
 12 13  2  0
 14 12  1  0
 14 15  1  0
 15 16  1  0
 16 18  2  0
 16 17  1  0
M  END
$$$$
