SMC.pdb
     RDKit          3D

 21 20  0  0  1  0  0  0  0  0999 V2000
   28.1693  -17.6063  -15.7794 O   0  0  0  0  0  0  0  0  0  0  0  0
   27.3226  -18.5225  -15.1510 C   0  0  0  0  0  0  0  0  0  0  0  0
   28.1215  -19.7234  -14.6613 C   0  0  2  0  0  0  0  0  0  0  0  0
   28.6369  -20.4524  -15.7798 N   0  0  0  0  0  0  0  0  0  0  0  0
   27.2120  -20.5442  -13.8142 C   0  0  0  0  0  0  0  0  0  0  0  0
   26.7392  -21.6405  -14.2556 O   0  0  0  0  0  0  0  0  0  0  0  0
   27.3274  -20.3846   -7.5716 C   0  0  0  0  0  0  0  0  0  0  0  0
   25.5197  -20.3475   -7.6978 S   0  0  0  0  0  0  0  0  0  0  0  0
   24.9920  -20.8868   -9.3627 C   0  0  0  0  0  0  0  0  0  0  0  0
   26.0276  -20.3903  -10.3299 C   0  0  0  0  0  0  0  0  0  0  0  0
   25.7799  -20.8400  -11.7311 C   0  0  2  0  0  0  0  0  0  0  0  0
   26.8395  -20.1620  -12.5214 N   0  0  0  0  0  0  0  0  0  0  0  0
   24.4734  -20.5915  -12.3085 C   0  0  0  0  0  0  0  0  0  0  0  0
   24.2352  -19.3931  -12.6963 O   0  0  0  0  0  0  0  0  0  0  0  0
   23.4098  -21.4920  -12.5126 N   0  0  0  0  0  0  0  0  0  0  0  0
   22.1229  -21.1078  -13.0636 C   0  0  1  0  0  0  0  0  0  0  0  0
   21.6672  -22.1389  -14.0707 C   0  0  0  0  0  0  0  0  0  0  0  0
   22.8793  -22.3763  -15.3799 S   0  0  0  0  0  0  0  0  0  0  0  0
   21.0791  -21.0202  -12.0102 C   0  0  0  0  0  0  0  0  0  0  0  0
   19.8053  -20.6375  -12.4013 O   0  0  0  0  0  0  0  0  0  0  0  0
   21.3774  -21.2887  -10.8314 O   0  0  0  0  0  0  0  0  0  0  0  0
  2  3  1  0
  2  1  1  0
  3  4  1  6
  3  5  1  0
  5 12  1  0
  5  6  2  0
  7  8  1  0
  8  9  1  0
  9 10  1  0
 11 10  1  1
 11 13  1  0
 12 11  1  0
 13 15  1  0
 13 14  2  0
 15 16  1  0
 16 19  1  0
 16 17  1  6
 18 17  1  0
 19 20  1  0
 21 19  2  0
M  END
$$$$
