SMC.pdb
     RDKit          3D

 21 20  0  0  1  0  0  0  0  0999 V2000
   33.9386  -31.9050  -19.6976 O   0  0  0  0  0  0  0  0  0  0  0  0
   32.9208  -31.5335  -18.8160 C   0  0  0  0  0  0  0  0  0  0  0  0
   32.7980  -30.0160  -18.7674 C   0  0  2  0  0  0  0  0  0  0  0  0
   34.0572  -29.4383  -18.4085 N   0  0  0  0  0  0  0  0  0  0  0  0
   31.7209  -29.6903  -17.7916 C   0  0  0  0  0  0  0  0  0  0  0  0
   31.9459  -28.8837  -16.8330 O   0  0  0  0  0  0  0  0  0  0  0  0
   25.9528  -27.5523  -18.1761 C   0  0  0  0  0  0  0  0  0  0  0  0
   27.2105  -26.4777  -17.4352 S   0  0  0  0  0  0  0  0  0  0  0  0
   28.4150  -27.4752  -16.4890 C   0  0  0  0  0  0  0  0  0  0  0  0
   29.1794  -28.2966  -17.4866 C   0  0  0  0  0  0  0  0  0  0  0  0
   29.2695  -29.7374  -17.1087 C   0  0  2  0  0  0  0  0  0  0  0  0
   30.4379  -30.2405  -17.8761 N   0  0  0  0  0  0  0  0  0  0  0  0
   28.1097  -30.5776  -17.3340 C   0  0  0  0  0  0  0  0  0  0  0  0
   27.6737  -30.6444  -18.5377 O   0  0  0  0  0  0  0  0  0  0  0  0
   27.3811  -31.3483  -16.4071 N   0  0  0  0  0  0  0  0  0  0  0  0
   26.1892  -32.1039  -16.7473 C   0  0  1  0  0  0  0  0  0  0  0  0
   25.7672  -32.9541  -15.5709 C   0  0  0  0  0  0  0  0  0  0  0  0
   26.7871  -34.4286  -15.4114 S   0  0  0  0  0  0  0  0  0  0  0  0
   25.0510  -31.2108  -17.0844 C   0  0  0  0  0  0  0  0  0  0  0  0
   23.9845  -31.7657  -17.7748 O   0  0  0  0  0  0  0  0  0  0  0  0
   25.0916  -30.0143  -16.7418 O   0  0  0  0  0  0  0  0  0  0  0  0
  2  3  1  0
  2  1  1  0
  3  4  1  1
  3  5  1  0
  5 12  1  0
  5  6  2  0
  7  8  1  0
  8  9  1  0
  9 10  1  0
 11 10  1  6
 11 13  1  0
 12 11  1  0
 13 15  1  0
 13 14  2  0
 15 16  1  0
 16 19  1  0
 16 17  1  1
 18 17  1  0
 19 20  1  0
 21 19  2  0
M  END
$$$$
