SMC.pdb
     RDKit          3D

 21 20  0  0  1  0  0  0  0  0999 V2000
   20.4104  -12.9020  -20.7941 O   0  0  0  0  0  0  0  0  0  0  0  0
   20.7923  -12.0221  -19.7787 C   0  0  0  0  0  0  0  0  0  0  0  0
   21.6654  -12.7442  -18.7607 C   0  0  2  0  0  0  0  0  0  0  0  0
   20.9111  -13.7786  -18.1210 N   0  0  0  0  0  0  0  0  0  0  0  0
   22.1622  -11.7210  -17.7990 C   0  0  0  0  0  0  0  0  0  0  0  0
   21.4971  -11.4522  -16.7476 O   0  0  0  0  0  0  0  0  0  0  0  0
   27.4911  -12.2984  -15.2710 C   0  0  0  0  0  0  0  0  0  0  0  0
   27.7197  -10.5304  -15.5983 S   0  0  0  0  0  0  0  0  0  0  0  0
   26.0993   -9.7164  -15.8285 C   0  0  0  0  0  0  0  0  0  0  0  0
   25.3192  -10.5637  -16.7917 C   0  0  0  0  0  0  0  0  0  0  0  0
   23.9293  -10.0671  -17.0115 C   0  0  2  0  0  0  0  0  0  0  0  0
   23.3562  -11.0200  -17.9968 N   0  0  0  0  0  0  0  0  0  0  0  0
   23.7542   -8.6999  -17.4611 C   0  0  0  0  0  0  0  0  0  0  0  0
   24.1314   -8.4357  -18.6574 O   0  0  0  0  0  0  0  0  0  0  0  0
   23.2170   -7.6005  -16.7635 N   0  0  0  0  0  0  0  0  0  0  0  0
   23.1531   -6.2553  -17.3055 C   0  0  1  0  0  0  0  0  0  0  0  0
   22.0357   -5.4859  -16.6389 C   0  0  0  0  0  0  0  0  0  0  0  0
   20.4196   -6.1636  -17.0492 S   0  0  0  0  0  0  0  0  0  0  0  0
   24.4145   -5.5075  -17.0677 C   0  0  0  0  0  0  0  0  0  0  0  0
   25.3951   -6.1303  -16.3109 O   0  0  0  0  0  0  0  0  0  0  0  0
   24.5472   -4.3660  -17.5474 O   0  0  0  0  0  0  0  0  0  0  0  0
  2  3  1  0
  2  1  1  0
  3  4  1  1
  3  5  1  0
  5 12  1  0
  5  6  2  0
  7  8  1  0
  8  9  1  0
  9 10  1  0
 11 10  1  6
 11 13  1  0
 12 11  1  0
 13 15  1  0
 13 14  2  0
 15 16  1  0
 16 19  1  0
 16 17  1  1
 18 17  1  0
 19 20  1  0
 21 19  2  0
M  END
$$$$
