SMC.pdb
     RDKit          3D

 21 20  0  0  1  0  0  0  0  0999 V2000
   17.1766  -10.5635  -14.8576 O   0  0  0  0  0  0  0  0  0  0  0  0
   17.1273  -10.9394  -16.2020 C   0  0  0  0  0  0  0  0  0  0  0  0
   18.2718  -11.8923  -16.5217 C   0  0  2  0  0  0  0  0  0  0  0  0
   18.2379  -13.0092  -15.6276 N   0  0  0  0  0  0  0  0  0  0  0  0
   19.5376  -11.1144  -16.4167 C   0  0  0  0  0  0  0  0  0  0  0  0
   20.2338  -11.1622  -15.3522 O   0  0  0  0  0  0  0  0  0  0  0  0
   24.2964  -10.6361  -21.0046 C   0  0  0  0  0  0  0  0  0  0  0  0
   23.5260   -9.0119  -20.7736 S   0  0  0  0  0  0  0  0  0  0  0  0
   23.0387   -8.7871  -19.0263 C   0  0  0  0  0  0  0  0  0  0  0  0
   21.7421   -9.5204  -18.8380 C   0  0  0  0  0  0  0  0  0  0  0  0
   21.3074   -9.5795  -17.4116 C   0  0  2  0  0  0  0  0  0  0  0  0
   20.0150  -10.3107  -17.4571 N   0  0  0  0  0  0  0  0  0  0  0  0
   21.1635   -8.3314  -16.6881 C   0  0  0  0  0  0  0  0  0  0  0  0
   20.0725   -7.6837  -16.8711 O   0  0  0  0  0  0  0  0  0  0  0  0
   22.0624   -7.7174  -15.7942 N   0  0  0  0  0  0  0  0  0  0  0  0
   21.8112   -6.4423  -15.1474 C   0  0  1  0  0  0  0  0  0  0  0  0
   22.2043   -6.5198  -13.6899 C   0  0  0  0  0  0  0  0  0  0  0  0
   22.1313   -4.9086  -12.8909 S   0  0  0  0  0  0  0  0  0  0  0  0
   22.6027   -5.3479  -15.7662 C   0  0  0  0  0  0  0  0  0  0  0  0
   22.0047   -4.1009  -15.8627 O   0  0  0  0  0  0  0  0  0  0  0  0
   23.7568   -5.5826  -16.1706 O   0  0  0  0  0  0  0  0  0  0  0  0
  2  3  1  0
  2  1  1  0
  3  4  1  1
  3  5  1  0
  5 12  1  0
  5  6  2  0
  7  8  1  0
  8  9  1  0
  9 10  1  0
 11 10  1  6
 11 13  1  0
 12 11  1  0
 13 15  1  0
 13 14  2  0
 15 16  1  0
 16 19  1  0
 16 17  1  1
 18 17  1  0
 19 20  1  0
 21 19  2  0
M  END
$$$$
