SMC.pdb
     RDKit          3D

 21 20  0  0  1  0  0  0  0  0999 V2000
   26.1754  -18.4681  -15.5087 O   0  0  0  0  0  0  0  0  0  0  0  0
   27.4675  -18.4150  -14.9806 C   0  0  0  0  0  0  0  0  0  0  0  0
   28.0217  -19.8235  -14.8095 C   0  0  2  0  0  0  0  0  0  0  0  0
   28.0952  -20.4743  -16.0820 N   0  0  0  0  0  0  0  0  0  0  0  0
   27.1296  -20.5368  -13.8535 C   0  0  0  0  0  0  0  0  0  0  0  0
   26.4564  -21.5471  -14.2357 O   0  0  0  0  0  0  0  0  0  0  0  0
   28.0874  -20.3945   -7.3323 C   0  0  0  0  0  0  0  0  0  0  0  0
   26.3258  -20.0341   -7.5607 S   0  0  0  0  0  0  0  0  0  0  0  0
   25.7094  -20.8369   -9.0827 C   0  0  0  0  0  0  0  0  0  0  0  0
   26.5060  -20.2751  -10.2247 C   0  0  0  0  0  0  0  0  0  0  0  0
   26.0778  -20.8069  -11.5516 C   0  0  2  0  0  0  0  0  0  0  0  0
   26.9892  -20.1429  -12.5188 N   0  0  0  0  0  0  0  0  0  0  0  0
   24.6944  -20.6275  -11.9466 C   0  0  0  0  0  0  0  0  0  0  0  0
   24.4246  -19.5799  -12.6345 O   0  0  0  0  0  0  0  0  0  0  0  0
   23.5842  -21.4532  -11.6831 N   0  0  0  0  0  0  0  0  0  0  0  0
   22.2334  -21.1514  -12.1208 C   0  0  1  0  0  0  0  0  0  0  0  0
   21.9525  -19.6772  -11.9401 C   0  0  0  0  0  0  0  0  0  0  0  0
   20.2274  -19.2802  -12.2661 S   0  0  0  0  0  0  0  0  0  0  0  0
   22.0384  -21.4705  -13.5586 C   0  0  0  0  0  0  0  0  0  0  0  0
   23.0267  -21.0677  -14.4435 O   0  0  0  0  0  0  0  0  0  0  0  0
   21.0119  -22.0786  -13.9152 O   0  0  0  0  0  0  0  0  0  0  0  0
  2  3  1  0
  2  1  1  0
  3  4  1  6
  3  5  1  0
  5 12  1  0
  5  6  2  0
  7  8  1  0
  8  9  1  0
  9 10  1  0
 11 10  1  1
 11 13  1  0
 12 11  1  0
 13 15  1  0
 13 14  2  0
 15 16  1  0
 16 19  1  0
 16 17  1  6
 18 17  1  0
 19 20  1  0
 21 19  2  0
M  END
$$$$
