SMC.pdb
     RDKit          3D

 21 20  0  0  1  0  0  0  0  0999 V2000
   31.8057    4.2697   -9.1010 O   0  0  0  0  0  0  0  0  0  0  0  0
   30.7464    4.3601   -8.1949 C   0  0  0  0  0  0  0  0  0  0  0  0
   30.4737    2.9979   -7.5704 C   0  0  2  0  0  0  0  0  0  0  0  0
   30.1794    2.0438   -8.5957 N   0  0  0  0  0  0  0  0  0  0  0  0
   29.3489    3.1691   -6.6091 C   0  0  0  0  0  0  0  0  0  0  0  0
   28.1559    3.2980   -7.0336 O   0  0  0  0  0  0  0  0  0  0  0  0
   28.6341    1.8122    0.2547 C   0  0  0  0  0  0  0  0  0  0  0  0
   28.7884    0.7013   -1.1691 S   0  0  0  0  0  0  0  0  0  0  0  0
   28.0453    1.4690   -2.6522 C   0  0  0  0  0  0  0  0  0  0  0  0
   28.9249    2.6253   -3.0311 C   0  0  0  0  0  0  0  0  0  0  0  0
   28.4402    3.3553   -4.2390 C   0  0  2  0  0  0  0  0  0  0  0  0
   29.5409    3.1964   -5.2240 N   0  0  0  0  0  0  0  0  0  0  0  0
   28.0804    4.7524   -4.0954 C   0  0  0  0  0  0  0  0  0  0  0  0
   29.0079    5.6100   -4.3141 O   0  0  0  0  0  0  0  0  0  0  0  0
   26.8369    5.3153   -3.7480 N   0  0  0  0  0  0  0  0  0  0  0  0
   26.5980    6.7438   -3.6498 C   0  0  1  0  0  0  0  0  0  0  0  0
   26.7370    7.3824   -5.0128 C   0  0  0  0  0  0  0  0  0  0  0  0
   26.1704    9.0908   -5.0119 S   0  0  0  0  0  0  0  0  0  0  0  0
   25.2283    7.0383   -3.1558 C   0  0  0  0  0  0  0  0  0  0  0  0
   24.9262    8.3575   -2.8546 O   0  0  0  0  0  0  0  0  0  0  0  0
   24.4110    6.1072   -3.0308 O   0  0  0  0  0  0  0  0  0  0  0  0
  2  3  1  0
  2  1  1  0
  3  4  1  6
  3  5  1  0
  5 12  1  0
  5  6  2  0
  7  8  1  0
  8  9  1  0
  9 10  1  0
 11 10  1  1
 11 13  1  0
 12 11  1  0
 13 15  1  0
 13 14  2  0
 15 16  1  0
 16 19  1  0
 16 17  1  6
 18 17  1  0
 19 20  1  0
 21 19  2  0
M  END
$$$$
