SMC.pdb
     RDKit          3D

 21 20  0  0  1  0  0  0  0  0999 V2000
   17.6134   -9.0698  -16.8851 O   0  0  0  0  0  0  0  0  0  0  0  0
   18.2324   -9.6574  -17.9908 C   0  0  0  0  0  0  0  0  0  0  0  0
   19.2096  -10.7327  -17.5339 C   0  0  2  0  0  0  0  0  0  0  0  0
   18.5379  -11.6714  -16.6878 N   0  0  0  0  0  0  0  0  0  0  0  0
   20.3346  -10.0434  -16.8426 C   0  0  0  0  0  0  0  0  0  0  0  0
   20.2780   -9.8197  -15.5909 O   0  0  0  0  0  0  0  0  0  0  0  0
   26.8213  -10.0068  -14.7283 C   0  0  0  0  0  0  0  0  0  0  0  0
   25.2630  -10.2887  -15.6102 S   0  0  0  0  0  0  0  0  0  0  0  0
   25.1515   -9.1852  -17.0631 C   0  0  0  0  0  0  0  0  0  0  0  0
   23.8174   -9.4408  -17.7027 C   0  0  0  0  0  0  0  0  0  0  0  0
   22.6698   -9.0310  -16.8414 C   0  0  2  0  0  0  0  0  0  0  0  0
   21.4832   -9.6165  -17.5169 N   0  0  0  0  0  0  0  0  0  0  0  0
   22.4709   -7.6164  -16.5940 C   0  0  0  0  0  0  0  0  0  0  0  0
   22.0697   -6.9104  -17.5859 O   0  0  0  0  0  0  0  0  0  0  0  0
   22.6541   -6.8921  -15.3999 N   0  0  0  0  0  0  0  0  0  0  0  0
   22.4309   -5.4625  -15.2821 C   0  0  1  0  0  0  0  0  0  0  0  0
   21.8056   -5.1494  -13.9420 C   0  0  0  0  0  0  0  0  0  0  0  0
   20.1280   -5.7903  -13.8207 S   0  0  0  0  0  0  0  0  0  0  0  0
   23.7025   -4.6995  -15.3711 C   0  0  0  0  0  0  0  0  0  0  0  0
   23.6177   -3.3163  -15.4106 O   0  0  0  0  0  0  0  0  0  0  0  0
   24.7835   -5.3166  -15.4067 O   0  0  0  0  0  0  0  0  0  0  0  0
  2  3  1  0
  2  1  1  0
  3  4  1  1
  3  5  1  0
  5 12  1  0
  5  6  2  0
  7  8  1  0
  8  9  1  0
  9 10  1  0
 11 10  1  6
 11 13  1  0
 12 11  1  0
 13 15  1  0
 13 14  2  0
 15 16  1  0
 16 19  1  0
 16 17  1  1
 18 17  1  0
 19 20  1  0
 21 19  2  0
M  END
$$$$
