SMC.pdb
     RDKit          3D

 21 20  0  0  1  0  0  0  0  0999 V2000
   27.8748  -17.7113  -16.6650 O   0  0  0  0  0  0  0  0  0  0  0  0
   27.1062  -18.8097  -16.2729 C   0  0  0  0  0  0  0  0  0  0  0  0
   27.9932  -19.8650  -15.6249 C   0  0  2  0  0  0  0  0  0  0  0  0
   28.6092  -20.6689  -16.6360 N   0  0  0  0  0  0  0  0  0  0  0  0
   27.1334  -20.6620  -14.7061 C   0  0  0  0  0  0  0  0  0  0  0  0
   26.6182  -21.7578  -15.0984 O   0  0  0  0  0  0  0  0  0  0  0  0
   24.9409  -21.0201   -7.1187 C   0  0  0  0  0  0  0  0  0  0  0  0
   25.8966  -20.3104   -8.4855 S   0  0  0  0  0  0  0  0  0  0  0  0
   25.2855  -20.9532  -10.0837 C   0  0  0  0  0  0  0  0  0  0  0  0
   26.2092  -20.4299  -11.1455 C   0  0  0  0  0  0  0  0  0  0  0  0
   25.8819  -20.9435  -12.5078 C   0  0  2  0  0  0  0  0  0  0  0  0
   26.8547  -20.2573  -13.3966 N   0  0  0  0  0  0  0  0  0  0  0  0
   24.5289  -20.7677  -12.9984 C   0  0  0  0  0  0  0  0  0  0  0  0
   24.2493  -19.6293  -13.5172 O   0  0  0  0  0  0  0  0  0  0  0  0
   23.4586  -21.6833  -12.9914 N   0  0  0  0  0  0  0  0  0  0  0  0
   22.1426  -21.3889  -13.5287 C   0  0  1  0  0  0  0  0  0  0  0  0
   21.7607  -22.4335  -14.5524 C   0  0  0  0  0  0  0  0  0  0  0  0
   20.0492  -22.2575  -15.0810 S   0  0  0  0  0  0  0  0  0  0  0  0
   21.1020  -21.4007  -12.4686 C   0  0  0  0  0  0  0  0  0  0  0  0
   20.1463  -20.3968  -12.4984 O   0  0  0  0  0  0  0  0  0  0  0  0
   21.1220  -22.2961  -11.6034 O   0  0  0  0  0  0  0  0  0  0  0  0
  2  3  1  0
  2  1  1  0
  3  4  1  6
  3  5  1  0
  5 12  1  0
  5  6  2  0
  7  8  1  0
  8  9  1  0
  9 10  1  0
 11 10  1  1
 11 13  1  0
 12 11  1  0
 13 15  1  0
 13 14  2  0
 15 16  1  0
 16 19  1  0
 16 17  1  6
 18 17  1  0
 19 20  1  0
 21 19  2  0
M  END
$$$$
