SMC.pdb
     RDKit          3D

 21 20  0  0  1  0  0  0  0  0999 V2000
   19.9299  -22.4328  -13.8138 O   0  0  0  0  0  0  0  0  0  0  0  0
   19.8808  -23.4547  -12.8628 C   0  0  0  0  0  0  0  0  0  0  0  0
   18.5756  -23.3805  -12.0812 C   0  0  2  0  0  0  0  0  0  0  0  0
   18.4446  -22.0902  -11.4762 N   0  0  0  0  0  0  0  0  0  0  0  0
   18.5969  -24.4821  -11.0789 C   0  0  0  0  0  0  0  0  0  0  0  0
   18.8524  -25.6751  -11.4420 O   0  0  0  0  0  0  0  0  0  0  0  0
   16.4486  -24.2880   -4.7569 C   0  0  0  0  0  0  0  0  0  0  0  0
   17.1668  -25.8422   -5.3515 S   0  0  0  0  0  0  0  0  0  0  0  0
   18.7293  -25.5157   -6.2419 C   0  0  0  0  0  0  0  0  0  0  0  0
   18.3923  -24.6205   -7.3992 C   0  0  0  0  0  0  0  0  0  0  0  0
   18.3304  -25.3482   -8.7005 C   0  0  2  0  0  0  0  0  0  0  0  0
   18.3433  -24.2679   -9.7203 N   0  0  0  0  0  0  0  0  0  0  0  0
   17.2193  -26.2517   -8.9269 C   0  0  0  0  0  0  0  0  0  0  0  0
   16.0659  -25.7154   -9.0865 O   0  0  0  0  0  0  0  0  0  0  0  0
   17.2231  -27.6582   -9.0022 N   0  0  0  0  0  0  0  0  0  0  0  0
   16.0298  -28.4572   -9.2144 C   0  0  1  0  0  0  0  0  0  0  0  0
   16.4112  -29.8153   -9.7574 C   0  0  0  0  0  0  0  0  0  0  0  0
   17.4821  -29.6829  -11.1980 S   0  0  0  0  0  0  0  0  0  0  0  0
   15.2834  -28.6755   -7.9487 C   0  0  0  0  0  0  0  0  0  0  0  0
   13.9943  -29.1767   -8.0439 O   0  0  0  0  0  0  0  0  0  0  0  0
   15.8305  -28.4058   -6.8630 O   0  0  0  0  0  0  0  0  0  0  0  0
  2  3  1  0
  2  1  1  0
  3  4  1  1
  3  5  1  0
  5 12  1  0
  5  6  2  0
  7  8  1  0
  8  9  1  0
  9 10  1  0
 11 10  1  1
 11 13  1  0
 12 11  1  0
 13 15  1  0
 13 14  2  0
 15 16  1  0
 16 19  1  0
 16 17  1  1
 18 17  1  0
 19 20  1  0
 21 19  2  0
M  END
$$$$
