SMC.pdb
     RDKit          3D

 21 20  0  0  1  0  0  0  0  0999 V2000
   20.1989  -12.3902  -20.2871 O   0  0  0  0  0  0  0  0  0  0  0  0
   20.5888  -11.7667  -19.0995 C   0  0  0  0  0  0  0  0  0  0  0  0
   21.5735  -12.6493  -18.3434 C   0  0  2  0  0  0  0  0  0  0  0  0
   20.8704  -13.7082  -17.6856 N   0  0  0  0  0  0  0  0  0  0  0  0
   22.3104  -11.7738  -17.3899 C   0  0  0  0  0  0  0  0  0  0  0  0
   21.7630  -11.4076  -16.3007 O   0  0  0  0  0  0  0  0  0  0  0  0
   27.7747  -12.7414  -14.8788 C   0  0  0  0  0  0  0  0  0  0  0  0
   28.1550  -11.1037  -15.5559 S   0  0  0  0  0  0  0  0  0  0  0  0
   26.6185  -10.1375  -15.7717 C   0  0  0  0  0  0  0  0  0  0  0  0
   25.6920  -10.9734  -16.6067 C   0  0  0  0  0  0  0  0  0  0  0  0
   24.3356  -10.3691  -16.7550 C   0  0  2  0  0  0  0  0  0  0  0  0
   23.6102  -11.3200  -17.6363 N   0  0  0  0  0  0  0  0  0  0  0  0
   24.2414   -9.0183  -17.2732 C   0  0  0  0  0  0  0  0  0  0  0  0
   24.3659   -8.8795  -18.5415 O   0  0  0  0  0  0  0  0  0  0  0  0
   24.0253   -7.8149  -16.5739 N   0  0  0  0  0  0  0  0  0  0  0  0
   23.9867   -6.5098  -17.2084 C   0  0  1  0  0  0  0  0  0  0  0  0
   22.9897   -5.6230  -16.4982 C   0  0  0  0  0  0  0  0  0  0  0  0
   22.9720   -3.9572  -17.1797 S   0  0  0  0  0  0  0  0  0  0  0  0
   25.3077   -5.8326  -17.1509 C   0  0  0  0  0  0  0  0  0  0  0  0
   25.6019   -4.9172  -18.1497 O   0  0  0  0  0  0  0  0  0  0  0  0
   26.0933   -6.1045  -16.2238 O   0  0  0  0  0  0  0  0  0  0  0  0
  2  3  1  0
  2  1  1  0
  3  4  1  1
  3  5  1  0
  5 12  1  0
  5  6  2  0
  7  8  1  0
  8  9  1  0
  9 10  1  0
 11 10  1  6
 11 13  1  0
 12 11  1  0
 13 15  1  0
 13 14  2  0
 15 16  1  0
 16 19  1  0
 16 17  1  1
 18 17  1  0
 19 20  1  0
 21 19  2  0
M  END
$$$$
