SMC.pdb
     RDKit          3D

 21 20  0  0  1  0  0  0  0  0999 V2000
   27.4892   -9.7531  -16.0364 O   0  0  0  0  0  0  0  0  0  0  0  0
   26.9053  -10.7529  -15.2551 C   0  0  0  0  0  0  0  0  0  0  0  0
   25.9588  -11.5937  -16.1020 C   0  0  2  0  0  0  0  0  0  0  0  0
   26.6075  -11.9786  -17.3182 N   0  0  0  0  0  0  0  0  0  0  0  0
   24.7354  -10.7781  -16.3401 C   0  0  0  0  0  0  0  0  0  0  0  0
   24.6614  -10.0136  -17.3551 O   0  0  0  0  0  0  0  0  0  0  0  0
   19.2027  -14.3892  -16.7986 C   0  0  0  0  0  0  0  0  0  0  0  0
   19.6714  -13.1010  -15.6129 S   0  0  0  0  0  0  0  0  0  0  0  0
   20.9461  -12.0096  -16.3376 C   0  0  0  0  0  0  0  0  0  0  0  0
   21.2989  -10.9954  -15.2882 C   0  0  0  0  0  0  0  0  0  0  0  0
   22.3740  -10.0563  -15.7230 C   0  0  2  0  0  0  0  0  0  0  0  0
   23.6317  -10.8094  -15.4817 N   0  0  0  0  0  0  0  0  0  0  0  0
   22.4336   -8.7487  -15.0997 C   0  0  0  0  0  0  0  0  0  0  0  0
   22.9676   -8.6907  -13.9358 O   0  0  0  0  0  0  0  0  0  0  0  0
   21.9854   -7.5095  -15.5972 N   0  0  0  0  0  0  0  0  0  0  0  0
   22.0598   -6.2667  -14.8507 C   0  0  1  0  0  0  0  0  0  0  0  0
   22.9713   -5.2938  -15.5631 C   0  0  0  0  0  0  0  0  0  0  0  0
   23.0589   -3.7116  -14.7094 S   0  0  0  0  0  0  0  0  0  0  0  0
   20.7277   -5.6213  -14.7255 C   0  0  0  0  0  0  0  0  0  0  0  0
   20.5363   -4.7484  -13.6655 O   0  0  0  0  0  0  0  0  0  0  0  0
   19.8425   -5.8809  -15.5619 O   0  0  0  0  0  0  0  0  0  0  0  0
  2  3  1  0
  2  1  1  0
  3  4  1  6
  3  5  1  0
  5 12  1  0
  5  6  2  0
  7  8  1  0
  8  9  1  0
  9 10  1  0
 11 10  1  1
 11 13  1  0
 12 11  1  0
 13 15  1  0
 13 14  2  0
 15 16  1  0
 16 19  1  0
 16 17  1  6
 18 17  1  0
 19 20  1  0
 21 19  2  0
M  END
$$$$
