MQV.pdb
     RDKit          3D

 25 24  0  0  1  0  0  0  0  0999 V2000
    8.7251  -11.7834   21.0918 C   0  0  0  0  0  0  0  0  0  0  0  0
    7.3374  -12.6239   20.2853 S   0  0  0  0  0  0  0  0  0  0  0  0
    7.1290  -14.3185   20.8780 C   0  0  0  0  0  0  0  0  0  0  0  0
    7.9836  -15.2288   20.0241 C   0  0  0  0  0  0  0  0  0  0  0  0
    7.7779  -16.6622   20.4745 C   0  0  2  0  0  0  0  0  0  0  0  0
    6.3746  -16.9495   20.3293 N   0  0  0  0  0  0  0  0  0  0  0  0
    8.1567  -16.8531   21.8908 C   0  0  0  0  0  0  0  0  0  0  0  0
    7.2584  -16.8965   22.7622 O   0  0  0  0  0  0  0  0  0  0  0  0
   12.9288  -19.5000   22.1388 N   0  0  0  0  0  0  0  0  0  0  0  0
   11.7370  -20.2221   22.4256 C   0  0  0  0  0  0  0  0  0  0  0  0
   11.5742  -21.3139   21.8467 O   0  0  0  0  0  0  0  0  0  0  0  0
   10.7433  -19.6892   23.3777 C   0  0  0  0  0  0  0  0  0  0  0  0
   10.9787  -18.3025   23.8324 C   0  0  0  0  0  0  0  0  0  0  0  0
    9.8587  -17.3253   23.6905 C   0  0  2  0  0  0  0  0  0  0  0  0
    9.5093  -16.9947   22.3426 N   0  0  0  0  0  0  0  0  0  0  0  0
    9.9892  -16.1547   24.5730 C   0  0  0  0  0  0  0  0  0  0  0  0
    9.9414  -15.0140   24.0570 O   0  0  0  0  0  0  0  0  0  0  0  0
    8.5769  -13.8623   25.6427 C   0  0  0  0  0  0  0  0  0  0  0  0
    8.9314  -14.4692   26.9950 C   0  0  2  0  0  0  0  0  0  0  0  0
    9.1235  -13.3476   28.0212 C   0  0  0  0  0  0  0  0  0  0  0  0
   10.1882  -15.2621   26.9320 C   0  0  2  0  0  0  0  0  0  0  0  0
   10.1633  -16.3223   25.9659 N   0  0  0  0  0  0  0  0  0  0  0  0
   10.4990  -15.7990   28.3038 C   0  0  0  0  0  0  0  0  0  0  0  0
   11.3152  -15.1403   29.2037 O   0  0  0  0  0  0  0  0  0  0  0  0
   10.0165  -16.9059   28.7073 O   0  0  0  0  0  0  0  0  0  0  0  0
  1  2  1  0
  3  2  1  0
  4  3  1  0
  5  4  1  0
  5  6  1  1
  7  5  1  0
  8  7  2  0
  9 10  1  0
 10 12  1  0
 11 10  2  0
 13 12  1  0
 14 13  1  6
 14 15  1  0
 15  7  1  0
 16 14  1  0
 16 17  2  0
 19 18  1  6
 19 21  1  0
 20 19  1  0
 21 22  1  6
 22 16  1  0
 23 21  1  0
 24 23  1  0
 25 23  2  0
M  END
$$$$
