MQV.pdb
     RDKit          3D

 25 24  0  0  1  0  0  0  0  0999 V2000
    7.5592  -19.4623   27.2022 C   0  0  0  0  0  0  0  0  0  0  0  0
    6.3291  -20.4796   26.3449 S   0  0  0  0  0  0  0  0  0  0  0  0
    6.1210  -19.9875   24.6184 C   0  0  0  0  0  0  0  0  0  0  0  0
    7.0614  -18.8370   24.3358 C   0  0  0  0  0  0  0  0  0  0  0  0
    6.8302  -18.3490   22.9187 C   0  0  2  0  0  0  0  0  0  0  0  0
    7.1173  -19.4551   22.0429 N   0  0  0  0  0  0  0  0  0  0  0  0
    7.7254  -17.2249   22.5715 C   0  0  0  0  0  0  0  0  0  0  0  0
    8.9553  -17.4350   22.4636 O   0  0  0  0  0  0  0  0  0  0  0  0
    7.6737  -12.3356   18.6492 N   0  0  0  0  0  0  0  0  0  0  0  0
    7.7086  -13.7506   18.5044 C   0  0  0  0  0  0  0  0  0  0  0  0
    7.5724  -14.2132   17.3550 O   0  0  0  0  0  0  0  0  0  0  0  0
    7.9041  -14.6240   19.6777 C   0  0  0  0  0  0  0  0  0  0  0  0
    7.9332  -13.9348   20.9852 C   0  0  0  0  0  0  0  0  0  0  0  0
    8.1553  -14.7673   22.2046 C   0  0  2  0  0  0  0  0  0  0  0  0
    7.2719  -15.8844   22.3456 N   0  0  0  0  0  0  0  0  0  0  0  0
    8.3079  -13.9734   23.4345 C   0  0  0  0  0  0  0  0  0  0  0  0
    8.1034  -12.7389   23.3733 O   0  0  0  0  0  0  0  0  0  0  0  0
    7.2926  -12.0690   25.1625 C   0  0  0  0  0  0  0  0  0  0  0  0
    7.5588  -13.1078   26.2454 C   0  0  2  0  0  0  0  0  0  0  0  0
    7.8186  -12.3980   27.5783 C   0  0  0  0  0  0  0  0  0  0  0  0
    8.7451  -13.9464   25.9263 C   0  0  2  0  0  0  0  0  0  0  0  0
    8.6757  -14.5961   24.6492 N   0  0  0  0  0  0  0  0  0  0  0  0
    8.9435  -14.9547   27.0265 C   0  0  0  0  0  0  0  0  0  0  0  0
    9.3655  -14.6107   28.2968 O   0  0  0  0  0  0  0  0  0  0  0  0
    8.7288  -16.1951   26.8356 O   0  0  0  0  0  0  0  0  0  0  0  0
  1  2  1  0
  3  2  1  0
  4  3  1  0
  5  4  1  0
  5  6  1  6
  7  5  1  0
  8  7  2  0
  9 10  1  0
 10 12  1  0
 11 10  2  0
 13 12  1  0
 14 13  1  6
 14 15  1  0
 15  7  1  0
 16 14  1  0
 16 17  2  0
 19 18  1  6
 19 21  1  0
 20 19  1  0
 21 22  1  6
 22 16  1  0
 23 21  1  0
 24 23  1  0
 25 23  2  0
M  END
$$$$
