MQV.pdb
     RDKit          3D

 25 24  0  0  1  0  0  0  0  0999 V2000
   10.3938  -13.1073   18.9561 C   0  0  0  0  0  0  0  0  0  0  0  0
    8.7357  -12.4337   18.6740 S   0  0  0  0  0  0  0  0  0  0  0  0
    7.4979  -13.7340   18.4651 C   0  0  0  0  0  0  0  0  0  0  0  0
    7.1442  -14.2768   19.8320 C   0  0  0  0  0  0  0  0  0  0  0  0
    8.0565  -15.4462   20.1483 C   0  0  2  0  0  0  0  0  0  0  0  0
    7.6008  -16.5590   19.3566 N   0  0  0  0  0  0  0  0  0  0  0  0
    7.9922  -15.8229   21.5765 C   0  0  0  0  0  0  0  0  0  0  0  0
    6.8732  -15.9788   22.1167 O   0  0  0  0  0  0  0  0  0  0  0  0
   11.6738  -19.5287   25.1245 N   0  0  0  0  0  0  0  0  0  0  0  0
   10.8780  -18.8560   26.0932 C   0  0  0  0  0  0  0  0  0  0  0  0
   10.9904  -19.2190   27.2804 O   0  0  0  0  0  0  0  0  0  0  0  0
    9.9630  -17.7691   25.6942 C   0  0  0  0  0  0  0  0  0  0  0  0
    9.9580  -17.4395   24.2532 C   0  0  0  0  0  0  0  0  0  0  0  0
    9.0739  -16.3256   23.7982 C   0  0  2  0  0  0  0  0  0  0  0  0
    9.1468  -16.0254   22.4008 N   0  0  0  0  0  0  0  0  0  0  0  0
    9.1389  -15.1371   24.6639 C   0  0  0  0  0  0  0  0  0  0  0  0
   10.0689  -14.3182   24.4790 O   0  0  0  0  0  0  0  0  0  0  0  0
    6.1486  -12.7279   25.6923 C   0  0  0  0  0  0  0  0  0  0  0  0
    6.8218  -13.3145   26.9273 C   0  0  2  0  0  0  0  0  0  0  0  0
    6.9720  -12.2224   27.9917 C   0  0  0  0  0  0  0  0  0  0  0  0
    8.1741  -13.8505   26.6170 C   0  0  2  0  0  0  0  0  0  0  0  0
    8.1724  -14.9325   25.6752 N   0  0  0  0  0  0  0  0  0  0  0  0
    8.8450  -14.2625   27.9002 C   0  0  0  0  0  0  0  0  0  0  0  0
    9.4138  -13.3585   28.7773 O   0  0  0  0  0  0  0  0  0  0  0  0
    8.9223  -15.4858   28.2446 O   0  0  0  0  0  0  0  0  0  0  0  0
  1  2  1  0
  3  2  1  0
  4  3  1  0
  5  4  1  0
  5  6  1  6
  7  5  1  0
  8  7  2  0
  9 10  1  0
 10 12  1  0
 11 10  2  0
 13 12  1  0
 14 13  1  1
 14 15  1  0
 15  7  1  0
 16 14  1  0
 16 17  2  0
 19 18  1  6
 19 21  1  0
 20 19  1  0
 21 22  1  6
 22 16  1  0
 23 21  1  0
 24 23  1  0
 25 23  2  0
M  END
$$$$
