MQV.pdb
     RDKit          3D

 25 24  0  0  1  0  0  0  0  0999 V2000
    8.3661  -12.5153   19.6296 C   0  0  0  0  0  0  0  0  0  0  0  0
    8.0750  -13.5780   18.1913 S   0  0  0  0  0  0  0  0  0  0  0  0
    7.6688  -15.2735   18.6672 C   0  0  0  0  0  0  0  0  0  0  0  0
    7.1909  -15.2624   20.1023 C   0  0  0  0  0  0  0  0  0  0  0  0
    6.9120  -16.6876   20.5392 C   0  0  2  0  0  0  0  0  0  0  0  0
    5.7531  -17.1303   19.8085 N   0  0  0  0  0  0  0  0  0  0  0  0
    6.6207  -16.7720   21.9861 C   0  0  0  0  0  0  0  0  0  0  0  0
    5.4846  -16.4461   22.4000 O   0  0  0  0  0  0  0  0  0  0  0  0
    7.8213  -20.7453   26.6445 N   0  0  0  0  0  0  0  0  0  0  0  0
    7.4840  -19.5526   27.3431 C   0  0  0  0  0  0  0  0  0  0  0  0
    7.3153  -19.6375   28.5752 O   0  0  0  0  0  0  0  0  0  0  0  0
    7.3474  -18.2710   26.6244 C   0  0  0  0  0  0  0  0  0  0  0  0
    7.5338  -18.3407   25.1597 C   0  0  0  0  0  0  0  0  0  0  0  0
    7.3616  -17.0811   24.3766 C   0  0  2  0  0  0  0  0  0  0  0  0
    7.5696  -17.2102   22.9666 N   0  0  0  0  0  0  0  0  0  0  0  0
    8.0473  -15.9235   24.9733 C   0  0  0  0  0  0  0  0  0  0  0  0
    9.2788  -15.7985   24.7797 O   0  0  0  0  0  0  0  0  0  0  0  0
    5.9839  -12.3867   25.7887 C   0  0  0  0  0  0  0  0  0  0  0  0
    6.8973  -12.8685   26.9095 C   0  0  2  0  0  0  0  0  0  0  0  0
    7.6511  -11.6726   27.5008 C   0  0  0  0  0  0  0  0  0  0  0  0
    7.8987  -13.8537   26.4207 C   0  0  2  0  0  0  0  0  0  0  0  0
    7.3271  -14.9818   25.7434 N   0  0  0  0  0  0  0  0  0  0  0  0
    8.7504  -14.3031   27.5779 C   0  0  0  0  0  0  0  0  0  0  0  0
    9.8049  -13.5584   28.0713 O   0  0  0  0  0  0  0  0  0  0  0  0
    8.5364  -15.4110   28.1675 O   0  0  0  0  0  0  0  0  0  0  0  0
  1  2  1  0
  3  2  1  0
  4  3  1  0
  5  4  1  0
  5  6  1  6
  7  5  1  0
  8  7  2  0
  9 10  1  0
 10 12  1  0
 11 10  2  0
 13 12  1  0
 14 13  1  1
 14 15  1  0
 15  7  1  0
 16 14  1  0
 16 17  2  0
 19 18  1  6
 19 21  1  0
 20 19  1  0
 21 22  1  1
 22 16  1  0
 23 21  1  0
 24 23  1  0
 25 23  2  0
M  END
$$$$
