MQV.pdb
     RDKit          3D

 25 24  0  0  1  0  0  0  0  0999 V2000
    8.4979  -12.0215   19.3611 C   0  0  0  0  0  0  0  0  0  0  0  0
    7.8938  -13.1259   18.0580 S   0  0  0  0  0  0  0  0  0  0  0  0
    7.8084  -14.8457   18.6071 C   0  0  0  0  0  0  0  0  0  0  0  0
    7.1339  -14.8792   19.9605 C   0  0  0  0  0  0  0  0  0  0  0  0
    7.0511  -16.3176   20.4338 C   0  0  2  0  0  0  0  0  0  0  0  0
    5.9568  -16.9291   19.7256 N   0  0  0  0  0  0  0  0  0  0  0  0
    6.7837  -16.4042   21.8852 C   0  0  0  0  0  0  0  0  0  0  0  0
    5.6023  -16.3282   22.2937 O   0  0  0  0  0  0  0  0  0  0  0  0
    7.7313  -20.5046   26.1327 N   0  0  0  0  0  0  0  0  0  0  0  0
    7.5179  -19.3706   26.9650 C   0  0  0  0  0  0  0  0  0  0  0  0
    7.3886  -19.5727   28.1882 O   0  0  0  0  0  0  0  0  0  0  0  0
    7.4593  -18.0131   26.3892 C   0  0  0  0  0  0  0  0  0  0  0  0
    7.5927  -17.9402   24.9188 C   0  0  0  0  0  0  0  0  0  0  0  0
    7.5429  -16.5903   24.2827 C   0  0  2  0  0  0  0  0  0  0  0  0
    7.8054  -16.5726   22.8759 N   0  0  0  0  0  0  0  0  0  0  0  0
    8.2786  -15.5617   25.0358 C   0  0  0  0  0  0  0  0  0  0  0  0
    9.5259  -15.5233   24.9249 O   0  0  0  0  0  0  0  0  0  0  0  0
    6.0334  -12.8490   27.6280 C   0  0  0  0  0  0  0  0  0  0  0  0
    7.3569  -12.4723   26.9729 C   0  0  2  0  0  0  0  0  0  0  0  0
    7.0826  -11.7769   25.6353 C   0  0  0  0  0  0  0  0  0  0  0  0
    8.2030  -13.6671   26.7108 C   0  0  2  0  0  0  0  0  0  0  0  0
    7.5874  -14.6447   25.8604 N   0  0  0  0  0  0  0  0  0  0  0  0
    8.6046  -14.2820   28.0251 C   0  0  0  0  0  0  0  0  0  0  0  0
    9.4553  -13.6603   28.9193 O   0  0  0  0  0  0  0  0  0  0  0  0
    8.1721  -15.4252   28.3816 O   0  0  0  0  0  0  0  0  0  0  0  0
  1  2  1  0
  3  2  1  0
  4  3  1  0
  5  4  1  0
  5  6  1  6
  7  5  1  0
  8  7  2  0
  9 10  1  0
 10 12  1  0
 11 10  2  0
 13 12  1  0
 14 13  1  1
 14 15  1  0
 15  7  1  0
 16 14  1  0
 16 17  2  0
 19 18  1  6
 19 21  1  0
 20 19  1  0
 21 22  1  6
 22 16  1  0
 23 21  1  0
 24 23  1  0
 25 23  2  0
M  END
$$$$
