MQV.pdb
     RDKit          3D

 25 24  0  0  1  0  0  0  0  0999 V2000
    7.5112  -11.2251   25.5418 C   0  0  0  0  0  0  0  0  0  0  0  0
    6.1180  -12.3831   25.5106 S   0  0  0  0  0  0  0  0  0  0  0  0
    6.5088  -13.8957   24.6019 C   0  0  0  0  0  0  0  0  0  0  0  0
    7.2964  -13.5178   23.3671 C   0  0  0  0  0  0  0  0  0  0  0  0
    7.5685  -14.7692   22.5548 C   0  0  2  0  0  0  0  0  0  0  0  0
    6.2955  -15.3969   22.3134 N   0  0  0  0  0  0  0  0  0  0  0  0
    8.4351  -15.7199   23.2835 C   0  0  0  0  0  0  0  0  0  0  0  0
    7.9260  -16.4720   24.1458 O   0  0  0  0  0  0  0  0  0  0  0  0
   12.6486  -20.7446   23.0577 N   0  0  0  0  0  0  0  0  0  0  0  0
   13.1421  -19.4158   22.9361 C   0  0  0  0  0  0  0  0  0  0  0  0
   14.0159  -19.2049   22.0725 O   0  0  0  0  0  0  0  0  0  0  0  0
   12.6265  -18.3378   23.8021 C   0  0  0  0  0  0  0  0  0  0  0  0
   11.8434  -17.2897   23.1142 C   0  0  0  0  0  0  0  0  0  0  0  0
   10.6949  -16.6839   23.8515 C   0  0  2  0  0  0  0  0  0  0  0  0
    9.8462  -15.8412   23.0655 N   0  0  0  0  0  0  0  0  0  0  0  0
   11.0755  -16.0987   25.1472 C   0  0  0  0  0  0  0  0  0  0  0  0
   11.4207  -14.8947   25.1762 O   0  0  0  0  0  0  0  0  0  0  0  0
   10.4901  -14.0944   27.1317 C   0  0  0  0  0  0  0  0  0  0  0  0
   10.3960  -15.2911   28.0707 C   0  0  2  0  0  0  0  0  0  0  0  0
   10.7945  -14.8597   29.4860 C   0  0  0  0  0  0  0  0  0  0  0  0
   11.2989  -16.3956   27.6498 C   0  0  2  0  0  0  0  0  0  0  0  0
   11.0490  -16.8822   26.3236 N   0  0  0  0  0  0  0  0  0  0  0  0
   11.2072  -17.5140   28.6534 C   0  0  0  0  0  0  0  0  0  0  0  0
   11.7450  -17.4324   29.9238 O   0  0  0  0  0  0  0  0  0  0  0  0
   10.6196  -18.6085   28.3743 O   0  0  0  0  0  0  0  0  0  0  0  0
  1  2  1  0
  3  2  1  0
  4  3  1  0
  5  4  1  0
  5  6  1  1
  7  5  1  0
  8  7  2  0
  9 10  1  0
 10 12  1  0
 11 10  2  0
 13 12  1  0
 14 13  1  6
 14 15  1  0
 15  7  1  0
 16 14  1  0
 16 17  2  0
 19 18  1  6
 19 21  1  0
 20 19  1  0
 21 22  1  6
 22 16  1  0
 23 21  1  0
 24 23  1  0
 25 23  2  0
M  END
$$$$
