MQV.pdb
     RDKit          3D

 25 24  0  0  1  0  0  0  0  0999 V2000
    8.4287  -11.6397   19.6609 C   0  0  0  0  0  0  0  0  0  0  0  0
    8.2489  -12.6809   18.1890 S   0  0  0  0  0  0  0  0  0  0  0  0
    7.8575  -14.3945   18.6097 C   0  0  0  0  0  0  0  0  0  0  0  0
    7.8557  -14.5251   20.1166 C   0  0  0  0  0  0  0  0  0  0  0  0
    7.7277  -15.9910   20.4835 C   0  0  2  0  0  0  0  0  0  0  0  0
    6.4228  -16.4185   20.0506 N   0  0  0  0  0  0  0  0  0  0  0  0
    7.8364  -16.2040   21.9424 C   0  0  0  0  0  0  0  0  0  0  0  0
    6.8165  -16.0695   22.6565 O   0  0  0  0  0  0  0  0  0  0  0  0
   12.3592  -19.3284   25.5568 N   0  0  0  0  0  0  0  0  0  0  0  0
   11.1677  -19.1128   26.3039 C   0  0  0  0  0  0  0  0  0  0  0  0
   10.9644  -19.8529   27.2861 O   0  0  0  0  0  0  0  0  0  0  0  0
   10.2209  -18.0471   25.9221 C   0  0  0  0  0  0  0  0  0  0  0  0
   10.0470  -17.8422   24.4686 C   0  0  0  0  0  0  0  0  0  0  0  0
    9.1576  -16.7278   24.0255 C   0  0  2  0  0  0  0  0  0  0  0  0
    9.0543  -16.5612   22.6078 N   0  0  0  0  0  0  0  0  0  0  0  0
    9.3885  -15.4704   24.7547 C   0  0  0  0  0  0  0  0  0  0  0  0
   10.3821  -14.7753   24.4396 O   0  0  0  0  0  0  0  0  0  0  0  0
    6.3011  -13.8366   27.3158 C   0  0  0  0  0  0  0  0  0  0  0  0
    7.5010  -13.0643   26.7806 C   0  0  2  0  0  0  0  0  0  0  0  0
    7.1628  -12.4920   25.4000 C   0  0  0  0  0  0  0  0  0  0  0  0
    8.7002  -13.9333   26.6427 C   0  0  2  0  0  0  0  0  0  0  0  0
    8.5067  -15.0650   25.7826 N   0  0  0  0  0  0  0  0  0  0  0  0
    9.1464  -14.3746   28.0111 C   0  0  0  0  0  0  0  0  0  0  0  0
    9.6453  -13.5015   28.9591 O   0  0  0  0  0  0  0  0  0  0  0  0
    9.0850  -15.5957   28.3666 O   0  0  0  0  0  0  0  0  0  0  0  0
  1  2  1  0
  3  2  1  0
  4  3  1  0
  5  4  1  0
  5  6  1  1
  7  5  1  0
  8  7  2  0
  9 10  1  0
 10 12  1  0
 11 10  2  0
 13 12  1  0
 14 13  1  6
 14 15  1  0
 15  7  1  0
 16 14  1  0
 16 17  2  0
 19 18  1  6
 19 21  1  0
 20 19  1  0
 21 22  1  6
 22 16  1  0
 23 21  1  0
 24 23  1  0
 25 23  2  0
M  END
$$$$
