MQV.pdb
     RDKit          3D

 25 24  0  0  1  0  0  0  0  0999 V2000
    5.5525  -12.8728   26.2677 C   0  0  0  0  0  0  0  0  0  0  0  0
    6.5123  -11.8568   25.1148 S   0  0  0  0  0  0  0  0  0  0  0  0
    7.5418  -12.8582   24.0177 C   0  0  0  0  0  0  0  0  0  0  0  0
    6.6349  -13.7463   23.1950 C   0  0  0  0  0  0  0  0  0  0  0  0
    7.4845  -14.5902   22.2646 C   0  0  2  0  0  0  0  0  0  0  0  0
    6.5781  -15.3330   21.4281 N   0  0  0  0  0  0  0  0  0  0  0  0
    8.3327  -15.5452   23.0092 C   0  0  0  0  0  0  0  0  0  0  0  0
    7.7879  -16.4632   23.6639 O   0  0  0  0  0  0  0  0  0  0  0  0
   11.5094  -19.7635   22.0578 N   0  0  0  0  0  0  0  0  0  0  0  0
   12.3851  -19.4511   23.1347 C   0  0  0  0  0  0  0  0  0  0  0  0
   13.0298  -20.3902   23.6410 O   0  0  0  0  0  0  0  0  0  0  0  0
   12.5187  -18.0638   23.6198 C   0  0  0  0  0  0  0  0  0  0  0  0
   11.6587  -17.0689   22.9445 C   0  0  0  0  0  0  0  0  0  0  0  0
   10.5769  -16.4262   23.7482 C   0  0  2  0  0  0  0  0  0  0  0  0
    9.7644  -15.4900   23.0328 N   0  0  0  0  0  0  0  0  0  0  0  0
   11.0351  -15.9341   25.0574 C   0  0  0  0  0  0  0  0  0  0  0  0
   11.6539  -14.8454   25.0990 O   0  0  0  0  0  0  0  0  0  0  0  0
    9.1393  -15.0101   28.0966 C   0  0  0  0  0  0  0  0  0  0  0  0
   10.6613  -15.0011   28.0183 C   0  0  2  0  0  0  0  0  0  0  0  0
   11.1134  -13.9201   27.0309 C   0  0  0  0  0  0  0  0  0  0  0  0
   11.1980  -16.3084   27.5543 C   0  0  2  0  0  0  0  0  0  0  0  0
   10.7791  -16.6769   26.2327 N   0  0  0  0  0  0  0  0  0  0  0  0
   10.8216  -17.3743   28.5487 C   0  0  0  0  0  0  0  0  0  0  0  0
   11.3115  -17.4065   29.8405 O   0  0  0  0  0  0  0  0  0  0  0  0
   10.0197  -18.3142   28.2412 O   0  0  0  0  0  0  0  0  0  0  0  0
  1  2  1  0
  3  2  1  0
  4  3  1  0
  5  4  1  0
  5  6  1  6
  7  5  1  0
  8  7  2  0
  9 10  1  0
 10 12  1  0
 11 10  2  0
 13 12  1  0
 14 13  1  6
 14 15  1  0
 15  7  1  0
 16 14  1  0
 16 17  2  0
 19 18  1  6
 19 21  1  0
 20 19  1  0
 21 22  1  6
 22 16  1  0
 23 21  1  0
 24 23  1  0
 25 23  2  0
M  END
$$$$
