MQV.pdb
     RDKit          3D

 25 24  0  0  1  0  0  0  0  0999 V2000
    8.0951  -11.5944   20.0990 C   0  0  0  0  0  0  0  0  0  0  0  0
    8.2821  -12.5965   18.6011 S   0  0  0  0  0  0  0  0  0  0  0  0
    7.4706  -14.2044   18.7507 C   0  0  0  0  0  0  0  0  0  0  0  0
    7.3454  -14.5383   20.2206 C   0  0  0  0  0  0  0  0  0  0  0  0
    7.6987  -15.9988   20.4255 C   0  0  2  0  0  0  0  0  0  0  0  0
    6.6275  -16.7728   19.8541 N   0  0  0  0  0  0  0  0  0  0  0  0
    7.8174  -16.3398   21.8591 C   0  0  0  0  0  0  0  0  0  0  0  0
    6.7887  -16.3410   22.5733 O   0  0  0  0  0  0  0  0  0  0  0  0
   12.1580  -19.6381   25.2706 N   0  0  0  0  0  0  0  0  0  0  0  0
   11.5034  -18.8307   26.2422 C   0  0  0  0  0  0  0  0  0  0  0  0
   11.8140  -19.0052   27.4367 O   0  0  0  0  0  0  0  0  0  0  0  0
   10.5014  -17.8261   25.8364 C   0  0  0  0  0  0  0  0  0  0  0  0
   10.2612  -17.7197   24.3817 C   0  0  0  0  0  0  0  0  0  0  0  0
    9.2066  -16.7692   23.9194 C   0  0  2  0  0  0  0  0  0  0  0  0
    9.0547  -16.6757   22.4993 N   0  0  0  0  0  0  0  0  0  0  0  0
    9.2585  -15.4637   24.5971 C   0  0  0  0  0  0  0  0  0  0  0  0
   10.0513  -14.5984   24.1586 O   0  0  0  0  0  0  0  0  0  0  0  0
    6.3139  -13.1498   25.2992 C   0  0  0  0  0  0  0  0  0  0  0  0
    7.0047  -13.4303   26.6284 C   0  0  2  0  0  0  0  0  0  0  0  0
    7.1033  -12.1309   27.4346 C   0  0  0  0  0  0  0  0  0  0  0  0
    8.3800  -13.9625   26.4344 C   0  0  2  0  0  0  0  0  0  0  0  0
    8.4314  -15.2016   25.7132 N   0  0  0  0  0  0  0  0  0  0  0  0
    9.0470  -14.0999   27.7770 C   0  0  0  0  0  0  0  0  0  0  0  0
    9.4670  -13.0159   28.5243 O   0  0  0  0  0  0  0  0  0  0  0  0
    9.2605  -15.2422   28.2973 O   0  0  0  0  0  0  0  0  0  0  0  0
  1  2  1  0
  3  2  1  0
  4  3  1  0
  5  4  1  0
  5  6  1  1
  7  5  1  0
  8  7  2  0
  9 10  1  0
 10 12  1  0
 11 10  2  0
 13 12  1  0
 14 13  1  6
 14 15  1  0
 15  7  1  0
 16 14  1  0
 16 17  2  0
 19 18  1  6
 19 21  1  0
 20 19  1  0
 21 22  1  1
 22 16  1  0
 23 21  1  0
 24 23  1  0
 25 23  2  0
M  END
$$$$
