MQV.pdb
     RDKit          3D

 25 24  0  0  1  0  0  0  0  0999 V2000
    4.6973  -10.9279   25.9824 C   0  0  0  0  0  0  0  0  0  0  0  0
    6.0359  -12.1214   26.2405 S   0  0  0  0  0  0  0  0  0  0  0  0
    5.8917  -13.5544   25.1487 C   0  0  0  0  0  0  0  0  0  0  0  0
    7.0903  -14.4482   25.3774 C   0  0  0  0  0  0  0  0  0  0  0  0
    7.1175  -15.5193   24.3041 C   0  0  2  0  0  0  0  0  0  0  0  0
    6.0056  -16.3972   24.5604 N   0  0  0  0  0  0  0  0  0  0  0  0
    8.3658  -16.3101   24.3482 C   0  0  0  0  0  0  0  0  0  0  0  0
    8.3945  -17.3683   25.0173 O   0  0  0  0  0  0  0  0  0  0  0  0
   12.5354  -19.2043   21.9787 N   0  0  0  0  0  0  0  0  0  0  0  0
   11.6808  -18.4862   21.0965 C   0  0  0  0  0  0  0  0  0  0  0  0
   11.3128  -19.0655   20.0560 O   0  0  0  0  0  0  0  0  0  0  0  0
   11.2507  -17.1112   21.4164 C   0  0  0  0  0  0  0  0  0  0  0  0
   11.7507  -16.5710   22.6983 C   0  0  0  0  0  0  0  0  0  0  0  0
   10.8255  -16.5936   23.8700 C   0  0  2  0  0  0  0  0  0  0  0  0
    9.5691  -15.9401   23.6634 N   0  0  0  0  0  0  0  0  0  0  0  0
   11.4795  -16.2332   25.1382 C   0  0  0  0  0  0  0  0  0  0  0  0
   12.2413  -15.2386   25.1517 O   0  0  0  0  0  0  0  0  0  0  0  0
   10.9076  -14.1333   27.1159 C   0  0  0  0  0  0  0  0  0  0  0  0
   10.5534  -15.3401   27.9766 C   0  0  2  0  0  0  0  0  0  0  0  0
   10.7654  -14.9913   29.4535 C   0  0  0  0  0  0  0  0  0  0  0  0
   11.4007  -16.5184   27.6509 C   0  0  2  0  0  0  0  0  0  0  0  0
   11.2481  -16.9950   26.3065 N   0  0  0  0  0  0  0  0  0  0  0  0
   11.1156  -17.6165   28.6406 C   0  0  0  0  0  0  0  0  0  0  0  0
   10.4413  -18.7756   28.3066 O   0  0  0  0  0  0  0  0  0  0  0  0
   11.4884  -17.5277   29.8548 O   0  0  0  0  0  0  0  0  0  0  0  0
  1  2  1  0
  3  2  1  0
  4  3  1  0
  5  4  1  0
  5  6  1  1
  7  5  1  0
  8  7  2  0
  9 10  1  0
 10 12  1  0
 11 10  2  0
 13 12  1  0
 14 13  1  6
 14 15  1  0
 15  7  1  0
 16 14  1  0
 16 17  2  0
 19 18  1  6
 19 21  1  0
 20 19  1  0
 21 22  1  6
 22 16  1  0
 23 21  1  0
 24 23  1  0
 25 23  2  0
M  END
$$$$
