MQV.pdb
     RDKit          3D

 25 24  0  0  1  0  0  0  0  0999 V2000
    7.8531  -11.5459   20.8598 C   0  0  0  0  0  0  0  0  0  0  0  0
    7.4501  -12.3248   19.2744 S   0  0  0  0  0  0  0  0  0  0  0  0
    7.7368  -14.1090   19.2988 C   0  0  0  0  0  0  0  0  0  0  0  0
    8.1208  -14.5091   20.7060 C   0  0  0  0  0  0  0  0  0  0  0  0
    8.3115  -16.0128   20.7555 C   0  0  2  0  0  0  0  0  0  0  0  0
    7.0456  -16.6070   20.4132 N   0  0  0  0  0  0  0  0  0  0  0  0
    8.7018  -16.4733   22.1051 C   0  0  0  0  0  0  0  0  0  0  0  0
    7.8230  -16.5813   22.9908 O   0  0  0  0  0  0  0  0  0  0  0  0
   13.0842  -20.7175   21.7097 N   0  0  0  0  0  0  0  0  0  0  0  0
   12.9457  -19.5481   22.5082 C   0  0  0  0  0  0  0  0  0  0  0  0
   13.9420  -18.8072   22.6184 O   0  0  0  0  0  0  0  0  0  0  0  0
   11.6646  -19.2346   23.1704 C   0  0  0  0  0  0  0  0  0  0  0  0
   11.6425  -17.9784   23.9492 C   0  0  0  0  0  0  0  0  0  0  0  0
   10.4410  -17.1016   23.8195 C   0  0  2  0  0  0  0  0  0  0  0  0
   10.0443  -16.8111   22.4755 N   0  0  0  0  0  0  0  0  0  0  0  0
   10.4838  -15.9183   24.6937 C   0  0  0  0  0  0  0  0  0  0  0  0
   11.1970  -14.9488   24.3458 O   0  0  0  0  0  0  0  0  0  0  0  0
    8.1600  -13.4460   25.6556 C   0  0  0  0  0  0  0  0  0  0  0  0
    8.5747  -14.0314   27.0002 C   0  0  2  0  0  0  0  0  0  0  0  0
    8.8466  -12.8926   27.9887 C   0  0  0  0  0  0  0  0  0  0  0  0
    9.8090  -14.8536   26.8874 C   0  0  2  0  0  0  0  0  0  0  0  0
    9.7360  -15.8850   25.8930 N   0  0  0  0  0  0  0  0  0  0  0  0
   10.1353  -15.4368   28.2364 C   0  0  0  0  0  0  0  0  0  0  0  0
   10.0335  -16.7858   28.5188 O   0  0  0  0  0  0  0  0  0  0  0  0
   10.5271  -14.7016   29.1992 O   0  0  0  0  0  0  0  0  0  0  0  0
  1  2  1  0
  3  2  1  0
  4  3  1  0
  5  4  1  0
  5  6  1  1
  7  5  1  0
  8  7  2  0
  9 10  1  0
 10 12  1  0
 11 10  2  0
 13 12  1  0
 14 13  1  6
 14 15  1  0
 15  7  1  0
 16 14  1  0
 16 17  2  0
 19 18  1  6
 19 21  1  0
 20 19  1  0
 21 22  1  6
 22 16  1  0
 23 21  1  0
 24 23  1  0
 25 23  2  0
M  END
$$$$
