RFA.pdb
     RDKit          3D

 28 28  0  0  1  0  0  0  0  0999 V2000
   28.0384  -15.6032  -15.9334 N   0  0  0  0  0  0  0  0  0  0  0  0
   28.1442  -16.3200  -17.1481 C   0  0  0  0  0  0  0  0  0  0  0  0
   28.9251  -15.9202  -18.0652 N   0  0  0  0  0  0  0  0  0  0  0  0
   27.3810  -17.5026  -17.3729 N   0  0  0  0  0  0  0  0  0  0  0  0
   26.6650  -18.1301  -16.3121 C   0  0  0  0  0  0  0  0  0  0  0  0
   27.5353  -18.9838  -15.4224 C   0  0  0  0  0  0  0  0  0  0  0  0
   26.6160  -19.6308  -14.3784 C   0  0  0  0  0  0  0  0  0  0  0  0
   27.4247  -20.3638  -13.3441 C   0  0  2  0  0  0  0  0  0  0  0  0
   28.2373  -21.4213  -13.9096 N   0  0  0  0  0  0  0  0  0  0  0  0
   26.5146  -20.9349  -12.3421 C   0  0  0  0  0  0  0  0  0  0  0  0
   26.1388  -22.1389  -12.4491 O   0  0  0  0  0  0  0  0  0  0  0  0
   29.0412  -16.3866  -18.9911 N   0  0  0  0  0  0  0  0  0  0  0  0
   26.0479  -20.1566  -11.2525 C   0  0  2  0  0  0  0  0  0  0  0  0
   24.9833  -20.5869  -10.3752 C   0  0  0  0  0  0  0  0  0  0  0  0
   24.8952  -19.7033   -9.1593 C   0  0  0  0  0  0  0  0  0  0  0  0
   26.0778  -19.7996   -8.2805 C   0  0  0  0  0  0  0  0  0  0  0  0
   26.8689  -18.7040   -8.0441 C   0  0  0  0  0  0  0  0  0  0  0  0
   27.9926  -18.7795   -7.2129 C   0  0  0  0  0  0  0  0  0  0  0  0
   28.3177  -19.9645   -6.6193 C   0  0  0  0  0  0  0  0  0  0  0  0
   27.5311  -21.0677   -6.8501 C   0  0  0  0  0  0  0  0  0  0  0  0
   26.4217  -20.9849   -7.6733 C   0  0  0  0  0  0  0  0  0  0  0  0
   23.6828  -20.4163  -11.1133 O   0  0  0  0  0  0  0  0  0  0  0  0
   23.6196  -19.6612  -12.1268 C   0  0  0  0  0  0  0  0  0  0  0  0
   21.4668  -21.9884  -12.6344 C   0  0  2  0  0  0  0  0  0  0  0  0
   21.2645  -21.0939  -11.4254 N   0  0  0  0  0  0  0  0  0  0  0  0
   22.5143  -21.0886  -10.6962 C   0  0  0  0  0  0  0  0  0  0  0  0
   20.1565  -21.6263  -10.5788 O   0  0  0  0  0  0  0  0  0  0  0  0
   20.4239  -22.1240   -9.4490 O   0  0  0  0  0  0  0  0  0  0  0  0
  2  1  1  0
  3  2  2  0
  4  2  1  0
  5  4  1  0
  6  5  1  0
  6  7  1  0
  8  7  1  0
  8  9  1  6
 10 12  1  0
 10  8  1  0
 11 10  2  0
 13 21  1  0
 13 12  1  0
 13 14  1  6
 15 16  2  0
 15 14  1  0
 17 16  1  0
 18 17  2  0
 19 18  1  0
 19 20  2  0
 20 15  1  0
 21 22  2  0
 24 23  1  6
 25 24  1  0
 25 21  1  0
 26 28  1  0
 26 24  1  0
 27 26  2  0
M  END
$$$$
