RFA.pdb
     RDKit          3D

 28 28  0  0  1  0  0  0  0  0999 V2000
   27.0059  -14.9938  -16.2761 N   0  0  0  0  0  0  0  0  0  0  0  0
   27.7468  -15.6285  -17.3002 C   0  0  0  0  0  0  0  0  0  0  0  0
   28.1994  -14.9569  -18.2774 N   0  0  0  0  0  0  0  0  0  0  0  0
   28.0028  -17.0301  -17.2620 N   0  0  0  0  0  0  0  0  0  0  0  0
   27.3140  -17.8802  -16.3484 C   0  0  0  0  0  0  0  0  0  0  0  0
   27.1977  -17.3008  -14.9597 C   0  0  0  0  0  0  0  0  0  0  0  0
   26.3428  -18.2722  -14.1355 C   0  0  0  0  0  0  0  0  0  0  0  0
   27.1961  -19.3674  -13.5578 C   0  0  2  0  0  0  0  0  0  0  0  0
   28.0058  -20.0366  -14.5553 N   0  0  0  0  0  0  0  0  0  0  0  0
   26.3281  -20.3519  -12.8979 C   0  0  0  0  0  0  0  0  0  0  0  0
   26.0767  -21.4518  -13.4717 O   0  0  0  0  0  0  0  0  0  0  0  0
   28.7099  -15.3636  -19.0913 N   0  0  0  0  0  0  0  0  0  0  0  0
   25.7645  -20.0896  -11.6233 C   0  0  2  0  0  0  0  0  0  0  0  0
   24.9346  -21.0391  -10.9178 C   0  0  0  0  0  0  0  0  0  0  0  0
   25.0980  -20.8967   -9.4278 C   0  0  0  0  0  0  0  0  0  0  0  0
   26.5040  -20.7339   -9.0075 C   0  0  0  0  0  0  0  0  0  0  0  0
   27.4934  -21.5178   -9.5449 C   0  0  0  0  0  0  0  0  0  0  0  0
   28.8308  -21.3747   -9.1571 C   0  0  0  0  0  0  0  0  0  0  0  0
   29.1692  -20.4377   -8.2245 C   0  0  0  0  0  0  0  0  0  0  0  0
   28.1848  -19.6477   -7.6805 C   0  0  0  0  0  0  0  0  0  0  0  0
   26.8649  -19.7953   -8.0691 C   0  0  0  0  0  0  0  0  0  0  0  0
   23.4980  -20.7043  -11.2165 O   0  0  0  0  0  0  0  0  0  0  0  0
   23.1676  -19.5183  -11.5088 C   0  0  0  0  0  0  0  0  0  0  0  0
   20.8451  -19.9985  -11.4198 C   0  0  1  0  0  0  0  0  0  0  0  0
   21.1153  -21.4853  -11.5590 N   0  0  0  0  0  0  0  0  0  0  0  0
   22.4951  -21.6964  -11.1782 C   0  0  0  0  0  0  0  0  0  0  0  0
   20.8805  -21.9147  -12.9691 O   0  0  0  0  0  0  0  0  0  0  0  0
   21.8677  -22.2126  -13.6988 O   0  0  0  0  0  0  0  0  0  0  0  0
  2  1  1  0
  3  2  2  0
  4  2  1  0
  5  4  1  0
  6  5  1  0
  6  7  1  0
  8  7  1  0
  8  9  1  6
 10 12  1  0
 10  8  1  0
 11 10  2  0
 13 21  1  0
 13 12  1  0
 13 14  1  6
 15 16  2  0
 15 14  1  0
 17 16  1  0
 18 17  2  0
 19 18  1  0
 19 20  2  0
 20 15  1  0
 21 22  2  0
 24 23  1  1
 25 24  1  0
 25 21  1  0
 26 28  1  0
 26 24  1  0
 27 26  2  0
M  END
$$$$
