RFA.pdb
     RDKit          3D

 28 28  0  0  1  0  0  0  0  0999 V2000
   17.6335  -24.8572   -8.5892 N   0  0  0  0  0  0  0  0  0  0  0  0
   17.4157  -25.4403   -9.8592 C   0  0  0  0  0  0  0  0  0  0  0  0
   16.4641  -26.2614  -10.0355 N   0  0  0  0  0  0  0  0  0  0  0  0
   18.2540  -25.1231  -10.9675 N   0  0  0  0  0  0  0  0  0  0  0  0
   19.1041  -23.9793  -10.9447 C   0  0  0  0  0  0  0  0  0  0  0  0
   18.5278  -22.7880  -11.6701 C   0  0  0  0  0  0  0  0  0  0  0  0
   19.6873  -22.1030  -12.4051 C   0  0  0  0  0  0  0  0  0  0  0  0
   20.8686  -21.9370  -11.4896 C   0  0  2  0  0  0  0  0  0  0  0  0
   20.4882  -21.5852  -10.1368 N   0  0  0  0  0  0  0  0  0  0  0  0
   21.7508  -20.8948  -12.0316 C   0  0  0  0  0  0  0  0  0  0  0  0
   21.4452  -19.6751  -11.8858 O   0  0  0  0  0  0  0  0  0  0  0  0
   15.7986  -26.5671   -9.2926 N   0  0  0  0  0  0  0  0  0  0  0  0
   22.9442  -21.2336  -12.7187 C   0  0  1  0  0  0  0  0  0  0  0  0
   23.8925  -20.2479  -13.1847 C   0  0  0  0  0  0  0  0  0  0  0  0
   25.2999  -20.6362  -12.8165 C   0  0  0  0  0  0  0  0  0  0  0  0
   25.5478  -20.6217  -11.3610 C   0  0  0  0  0  0  0  0  0  0  0  0
   25.7990  -21.7853  -10.6792 C   0  0  0  0  0  0  0  0  0  0  0  0
   26.0368  -21.7875   -9.2998 C   0  0  0  0  0  0  0  0  0  0  0  0
   26.0205  -20.6114   -8.6078 C   0  0  0  0  0  0  0  0  0  0  0  0
   25.7697  -19.4404   -9.2822 C   0  0  0  0  0  0  0  0  0  0  0  0
   25.5357  -19.4467  -10.6462 C   0  0  0  0  0  0  0  0  0  0  0  0
   23.8402  -20.2355  -14.6888 O   0  0  0  0  0  0  0  0  0  0  0  0
   23.6670  -21.3131  -15.3292 C   0  0  0  0  0  0  0  0  0  0  0  0
   24.8538  -19.9700  -17.4194 C   0  0  1  0  0  0  0  0  0  0  0  0
   23.9066  -18.9278  -16.8544 N   0  0  0  0  0  0  0  0  0  0  0  0
   23.9817  -19.0328  -15.4133 C   0  0  0  0  0  0  0  0  0  0  0  0
   22.5179  -19.1889  -17.3355 O   0  0  0  0  0  0  0  0  0  0  0  0
   22.2851  -19.2061  -18.5769 O   0  0  0  0  0  0  0  0  0  0  0  0
  2  1  1  0
  3  2  2  0
  4  2  1  0
  5  4  1  0
  6  5  1  0
  6  7  1  0
  8  7  1  0
  8  9  1  1
 10 12  1  0
 10  8  1  0
 11 10  2  0
 13 21  1  0
 13 12  1  0
 13 14  1  1
 15 16  2  0
 15 14  1  0
 17 16  1  0
 18 17  2  0
 19 18  1  0
 19 20  2  0
 20 15  1  0
 21 22  2  0
 24 23  1  1
 25 24  1  0
 25 21  1  0
 26 28  1  0
 26 24  1  0
 27 26  2  0
M  END
$$$$
