RFA.pdb
     RDKit          3D

 28 28  0  0  1  0  0  0  0  0999 V2000
   24.5819  -20.7877  -16.3973 N   0  0  0  0  0  0  0  0  0  0  0  0
   23.5895  -19.8658  -15.9904 C   0  0  0  0  0  0  0  0  0  0  0  0
   22.4800  -19.8025  -16.6034 N   0  0  0  0  0  0  0  0  0  0  0  0
   23.8081  -18.9889  -14.8882 N   0  0  0  0  0  0  0  0  0  0  0  0
   24.3367  -19.4721  -13.6558 C   0  0  0  0  0  0  0  0  0  0  0  0
   23.4254  -20.4487  -12.9531 C   0  0  0  0  0  0  0  0  0  0  0  0
   24.0987  -20.8187  -11.6251 C   0  0  0  0  0  0  0  0  0  0  0  0
   25.5875  -20.6287  -11.7166 C   0  0  2  0  0  0  0  0  0  0  0  0
   26.1946  -21.4286  -12.7607 N   0  0  0  0  0  0  0  0  0  0  0  0
   26.1942  -20.9767  -10.4246 C   0  0  0  0  0  0  0  0  0  0  0  0
   26.3508  -22.1932  -10.1119 O   0  0  0  0  0  0  0  0  0  0  0  0
   21.7140  -19.1315  -16.3767 N   0  0  0  0  0  0  0  0  0  0  0  0
   26.6089  -19.9683   -9.5179 C   0  0  2  0  0  0  0  0  0  0  0  0
   27.1927  -20.2592   -8.2285 C   0  0  0  0  0  0  0  0  0  0  0  0
   27.9123  -19.0568   -7.6779 C   0  0  0  0  0  0  0  0  0  0  0  0
   28.5474  -19.3054   -6.3683 C   0  0  0  0  0  0  0  0  0  0  0  0
   29.5403  -20.2428   -6.2353 C   0  0  0  0  0  0  0  0  0  0  0  0
   30.1523  -20.4890   -5.0007 C   0  0  0  0  0  0  0  0  0  0  0  0
   29.7603  -19.7868   -3.8983 C   0  0  0  0  0  0  0  0  0  0  0  0
   28.7664  -18.8456   -4.0217 C   0  0  0  0  0  0  0  0  0  0  0  0
   28.1662  -18.6080   -5.2458 C   0  0  0  0  0  0  0  0  0  0  0  0
   26.0688  -20.5509   -7.2709 O   0  0  0  0  0  0  0  0  0  0  0  0
   25.0891  -19.7556   -7.1770 C   0  0  0  0  0  0  0  0  0  0  0  0
   25.3257  -23.4507   -5.0294 C   0  0  2  0  0  0  0  0  0  0  0  0
   25.1010  -22.0077   -5.4418 N   0  0  0  0  0  0  0  0  0  0  0  0
   26.0813  -21.7078   -6.4628 C   0  0  0  0  0  0  0  0  0  0  0  0
   25.2699  -21.1096   -4.2615 O   0  0  0  0  0  0  0  0  0  0  0  0
   26.4195  -20.6710   -3.9759 O   0  0  0  0  0  0  0  0  0  0  0  0
  2  1  1  0
  3  2  2  0
  4  2  1  0
  5  4  1  0
  6  5  1  0
  6  7  1  0
  8  7  1  0
  8  9  1  6
 10 12  1  0
 10  8  1  0
 11 10  2  0
 13 21  1  0
 13 12  1  0
 13 14  1  6
 15 16  2  0
 15 14  1  0
 17 16  1  0
 18 17  2  0
 19 18  1  0
 19 20  2  0
 20 15  1  0
 21 22  2  0
 24 23  1  6
 25 24  1  0
 25 21  1  0
 26 28  1  0
 26 24  1  0
 27 26  2  0
M  END
$$$$
