RFA.pdb
     RDKit          3D

 28 28  0  0  1  0  0  0  0  0999 V2000
   30.3581  -19.0093  -18.6336 N   0  0  0  0  0  0  0  0  0  0  0  0
   29.6811  -17.7681  -18.5918 C   0  0  0  0  0  0  0  0  0  0  0  0
   30.1191  -16.7740  -19.2479 N   0  0  0  0  0  0  0  0  0  0  0  0
   28.4968  -17.6023  -17.8162 N   0  0  0  0  0  0  0  0  0  0  0  0
   27.7695  -18.7284  -17.3320 C   0  0  0  0  0  0  0  0  0  0  0  0
   26.9825  -19.4416  -18.4044 C   0  0  0  0  0  0  0  0  0  0  0  0
   26.0393  -20.4220  -17.6953 C   0  0  0  0  0  0  0  0  0  0  0  0
   26.8248  -21.4707  -16.9574 C   0  0  2  0  0  0  0  0  0  0  0  0
   26.9253  -22.7176  -17.6880 N   0  0  0  0  0  0  0  0  0  0  0  0
   26.1862  -21.7203  -15.6581 C   0  0  0  0  0  0  0  0  0  0  0  0
   25.2061  -22.5177  -15.5831 O   0  0  0  0  0  0  0  0  0  0  0  0
   29.7221  -15.8104  -19.2010 N   0  0  0  0  0  0  0  0  0  0  0  0
   26.6513  -21.0800  -14.4814 C   0  0  2  0  0  0  0  0  0  0  0  0
   26.0089  -21.2301  -13.1958 C   0  0  0  0  0  0  0  0  0  0  0  0
   26.8601  -20.6528  -12.0961 C   0  0  0  0  0  0  0  0  0  0  0  0
   26.1823  -20.6288  -10.7846 C   0  0  0  0  0  0  0  0  0  0  0  0
   25.7111  -19.4527  -10.2584 C   0  0  0  0  0  0  0  0  0  0  0  0
   25.0657  -19.4142   -9.0168 C   0  0  0  0  0  0  0  0  0  0  0  0
   24.8962  -20.5664   -8.3055 C   0  0  0  0  0  0  0  0  0  0  0  0
   25.3649  -21.7495   -8.8245 C   0  0  0  0  0  0  0  0  0  0  0  0
   26.0018  -21.7793  -10.0527 C   0  0  0  0  0  0  0  0  0  0  0  0
   24.7426  -20.4169  -13.2174 O   0  0  0  0  0  0  0  0  0  0  0  0
   24.7724  -19.2005  -13.5647 C   0  0  0  0  0  0  0  0  0  0  0  0
   21.6153  -20.2843  -14.1206 C   0  0  2  0  0  0  0  0  0  0  0  0
   22.2613  -20.2535  -12.7477 N   0  0  0  0  0  0  0  0  0  0  0  0
   23.5038  -20.9871  -12.8545 C   0  0  0  0  0  0  0  0  0  0  0  0
   21.3543  -20.8857  -11.7449 O   0  0  0  0  0  0  0  0  0  0  0  0
   21.6281  -22.0357  -11.2998 O   0  0  0  0  0  0  0  0  0  0  0  0
  2  1  1  0
  3  2  2  0
  4  2  1  0
  5  4  1  0
  6  5  1  0
  6  7  1  0
  8  7  1  0
  8  9  1  6
 10 12  1  0
 10  8  1  0
 11 10  2  0
 13 21  1  0
 13 12  1  0
 13 14  1  1
 15 16  2  0
 15 14  1  0
 17 16  1  0
 18 17  2  0
 19 18  1  0
 19 20  2  0
 20 15  1  0
 21 22  2  0
 24 23  1  6
 25 24  1  0
 25 21  1  0
 26 28  1  0
 26 24  1  0
 27 26  2  0
M  END
$$$$
