RFA.pdb
     RDKit          3D

 28 28  0  0  1  0  0  0  0  0999 V2000
   28.3760  -18.7744  -19.7741 N   0  0  0  0  0  0  0  0  0  0  0  0
   29.3976  -19.3654  -20.5536 C   0  0  0  0  0  0  0  0  0  0  0  0
   29.6940  -18.8905  -21.6927 N   0  0  0  0  0  0  0  0  0  0  0  0
   30.1165  -20.5028  -20.0834 N   0  0  0  0  0  0  0  0  0  0  0  0
   29.8029  -21.1064  -18.8307 C   0  0  0  0  0  0  0  0  0  0  0  0
   28.7830  -22.2138  -18.9361 C   0  0  0  0  0  0  0  0  0  0  0  0
   27.8609  -22.0957  -17.7156 C   0  0  0  0  0  0  0  0  0  0  0  0
   28.4859  -22.7521  -16.5158 C   0  0  2  0  0  0  0  0  0  0  0  0
   28.7795  -24.1545  -16.7296 N   0  0  0  0  0  0  0  0  0  0  0  0
   27.5776  -22.6163  -15.3691 C   0  0  0  0  0  0  0  0  0  0  0  0
   26.6066  -23.4178  -15.2390 O   0  0  0  0  0  0  0  0  0  0  0  0
   30.4654  -19.2429  -22.3002 N   0  0  0  0  0  0  0  0  0  0  0  0
   27.7711  -21.5978  -14.4015 C   0  0  2  0  0  0  0  0  0  0  0  0
   26.9431  -21.4604  -13.2253 C   0  0  0  0  0  0  0  0  0  0  0  0
   27.6196  -20.6073  -12.1853 C   0  0  0  0  0  0  0  0  0  0  0  0
   26.7970  -20.3970  -10.9773 C   0  0  0  0  0  0  0  0  0  0  0  0
   26.7098  -21.3650  -10.0091 C   0  0  0  0  0  0  0  0  0  0  0  0
   25.9348  -21.1799   -8.8582 C   0  0  0  0  0  0  0  0  0  0  0  0
   25.2466  -20.0142   -8.6853 C   0  0  0  0  0  0  0  0  0  0  0  0
   25.3278  -19.0386   -9.6498 C   0  0  0  0  0  0  0  0  0  0  0  0
   26.0962  -19.2292  -10.7849 C   0  0  0  0  0  0  0  0  0  0  0  0
   25.6944  -20.7222  -13.6264 O   0  0  0  0  0  0  0  0  0  0  0  0
   25.7478  -19.8063  -14.4978 C   0  0  0  0  0  0  0  0  0  0  0  0
   22.7697  -20.8548  -14.7251 C   0  0  2  0  0  0  0  0  0  0  0  0
   23.2043  -20.3585  -13.3585 N   0  0  0  0  0  0  0  0  0  0  0  0
   24.4461  -21.0317  -13.0453 C   0  0  0  0  0  0  0  0  0  0  0  0
   22.1558  -20.6770  -12.3450 O   0  0  0  0  0  0  0  0  0  0  0  0
   22.4062  -21.5198  -11.4380 O   0  0  0  0  0  0  0  0  0  0  0  0
  2  1  1  0
  3  2  2  0
  4  2  1  0
  5  4  1  0
  6  5  1  0
  6  7  1  0
  8  7  1  0
  8  9  1  6
 10 12  1  0
 10  8  1  0
 11 10  2  0
 13 21  1  0
 13 12  1  0
 13 14  1  1
 15 16  2  0
 15 14  1  0
 17 16  1  0
 18 17  2  0
 19 18  1  0
 19 20  2  0
 20 15  1  0
 21 22  2  0
 24 23  1  6
 25 24  1  0
 25 21  1  0
 26 28  1  0
 26 24  1  0
 27 26  2  0
M  END
$$$$
