RFA.pdb
     RDKit          3D

 28 28  0  0  1  0  0  0  0  0999 V2000
   28.1070  -20.9446  -17.4921 N   0  0  0  0  0  0  0  0  0  0  0  0
   29.5132  -20.8575  -17.3669 C   0  0  0  0  0  0  0  0  0  0  0  0
   30.2106  -20.3395  -18.2921 N   0  0  0  0  0  0  0  0  0  0  0  0
   30.1797  -21.3463  -16.2057 N   0  0  0  0  0  0  0  0  0  0  0  0
   29.4462  -21.8549  -15.0944 C   0  0  0  0  0  0  0  0  0  0  0  0
   28.7601  -20.7812  -14.2855 C   0  0  0  0  0  0  0  0  0  0  0  0
   28.0858  -21.4750  -13.0947 C   0  0  0  0  0  0  0  0  0  0  0  0
   28.8500  -21.2103  -11.8270 C   0  0  2  0  0  0  0  0  0  0  0  0
   29.9740  -22.1067  -11.6488 N   0  0  0  0  0  0  0  0  0  0  0  0
   27.9383  -21.3426  -10.6827 C   0  0  0  0  0  0  0  0  0  0  0  0
   27.8272  -22.4576  -10.0940 O   0  0  0  0  0  0  0  0  0  0  0  0
   31.2535  -20.3354  -18.3179 N   0  0  0  0  0  0  0  0  0  0  0  0
   27.1770  -20.2374  -10.2246 C   0  0  2  0  0  0  0  0  0  0  0  0
   26.0363  -20.3748   -9.3483 C   0  0  0  0  0  0  0  0  0  0  0  0
   26.0207  -19.2870   -8.3074 C   0  0  0  0  0  0  0  0  0  0  0  0
   26.9475  -19.5387   -7.1859 C   0  0  0  0  0  0  0  0  0  0  0  0
   26.7361  -20.5816   -6.3200 C   0  0  0  0  0  0  0  0  0  0  0  0
   27.6063  -20.8333   -5.2527 C   0  0  0  0  0  0  0  0  0  0  0  0
   28.6921  -20.0295   -5.0600 C   0  0  0  0  0  0  0  0  0  0  0  0
   28.9121  -18.9822   -5.9224 C   0  0  0  0  0  0  0  0  0  0  0  0
   28.0472  -18.7400   -6.9752 C   0  0  0  0  0  0  0  0  0  0  0  0
   24.7948  -20.1810  -10.1767 O   0  0  0  0  0  0  0  0  0  0  0  0
   24.6798  -19.1669  -10.9247 C   0  0  0  0  0  0  0  0  0  0  0  0
   22.3332  -22.2462  -11.6919 C   0  0  2  0  0  0  0  0  0  0  0  0
   22.4958  -20.9836  -10.8658 N   0  0  0  0  0  0  0  0  0  0  0  0
   23.7397  -21.1174  -10.1391 C   0  0  0  0  0  0  0  0  0  0  0  0
   21.3440  -20.8382   -9.9275 O   0  0  0  0  0  0  0  0  0  0  0  0
   20.1929  -20.6024  -10.3912 O   0  0  0  0  0  0  0  0  0  0  0  0
  2  1  1  0
  3  2  2  0
  4  2  1  0
  5  4  1  0
  6  5  1  0
  6  7  1  0
  8  7  1  0
  8  9  1  1
 10 12  1  0
 10  8  1  0
 11 10  2  0
 13 21  1  0
 13 12  1  0
 13 14  1  1
 15 16  2  0
 15 14  1  0
 17 16  1  0
 18 17  2  0
 19 18  1  0
 19 20  2  0
 20 15  1  0
 21 22  2  0
 24 23  1  6
 25 24  1  0
 25 21  1  0
 26 28  1  0
 26 24  1  0
 27 26  2  0
M  END
$$$$
