RFA.pdb
     RDKit          3D

 28 28  0  0  1  0  0  0  0  0999 V2000
   24.6048  -26.1943  -15.3529 N   0  0  0  0  0  0  0  0  0  0  0  0
   24.2131  -26.2063  -16.7120 C   0  0  0  0  0  0  0  0  0  0  0  0
   23.5488  -27.1805  -17.1815 N   0  0  0  0  0  0  0  0  0  0  0  0
   24.5523  -25.1315  -17.5845 N   0  0  0  0  0  0  0  0  0  0  0  0
   25.2089  -23.9647  -17.0954 C   0  0  0  0  0  0  0  0  0  0  0  0
   26.7137  -24.0408  -17.1834 C   0  0  0  0  0  0  0  0  0  0  0  0
   27.2762  -23.2022  -16.0284 C   0  0  0  0  0  0  0  0  0  0  0  0
   26.2270  -22.2663  -15.4952 C   0  0  2  0  0  0  0  0  0  0  0  0
   26.4000  -20.9040  -15.9564 N   0  0  0  0  0  0  0  0  0  0  0  0
   26.2671  -22.2897  -14.0268 C   0  0  0  0  0  0  0  0  0  0  0  0
   26.2088  -23.3962  -13.4147 O   0  0  0  0  0  0  0  0  0  0  0  0
   23.2830  -27.2891  -18.1844 N   0  0  0  0  0  0  0  0  0  0  0  0
   26.3704  -21.0885  -13.2803 C   0  0  1  0  0  0  0  0  0  0  0  0
   26.4012  -21.0581  -11.8359 C   0  0  0  0  0  0  0  0  0  0  0  0
   27.0987  -19.8207  -11.3366 C   0  0  0  0  0  0  0  0  0  0  0  0
   27.2600  -19.7933   -9.8691 C   0  0  0  0  0  0  0  0  0  0  0  0
   26.4890  -18.9657   -9.0927 C   0  0  0  0  0  0  0  0  0  0  0  0
   26.6297  -18.9292   -7.7005 C   0  0  0  0  0  0  0  0  0  0  0  0
   27.5513  -19.7306   -7.0915 C   0  0  0  0  0  0  0  0  0  0  0  0
   28.3283  -20.5630   -7.8611 C   0  0  0  0  0  0  0  0  0  0  0  0
   28.1831  -20.5933   -9.2370 C   0  0  0  0  0  0  0  0  0  0  0  0
   24.9804  -20.9650  -11.3482 O   0  0  0  0  0  0  0  0  0  0  0  0
   24.1146  -20.3366  -12.0241 C   0  0  0  0  0  0  0  0  0  0  0  0
   23.3576  -21.9014   -8.1245 C   0  0  1  0  0  0  0  0  0  0  0  0
   23.2473  -21.5116   -9.5870 N   0  0  0  0  0  0  0  0  0  0  0  0
   24.5843  -21.5710  -10.1369 C   0  0  0  0  0  0  0  0  0  0  0  0
   22.6838  -20.1345   -9.7048 O   0  0  0  0  0  0  0  0  0  0  0  0
   23.4582  -19.1667   -9.9483 O   0  0  0  0  0  0  0  0  0  0  0  0
  2  1  1  0
  3  2  2  0
  4  2  1  0
  5  4  1  0
  6  5  1  0
  6  7  1  0
  8  7  1  0
  8  9  1  6
 10 12  1  0
 10  8  1  0
 11 10  2  0
 13 21  1  0
 13 12  1  0
 13 14  1  1
 15 16  2  0
 15 14  1  0
 17 16  1  0
 18 17  2  0
 19 18  1  0
 19 20  2  0
 20 15  1  0
 21 22  2  0
 24 23  1  6
 25 24  1  0
 25 21  1  0
 26 28  1  0
 26 24  1  0
 27 26  2  0
M  END
$$$$
