RFA.pdb
     RDKit          3D

 28 28  0  0  1  0  0  0  0  0999 V2000
   24.5550  -23.1517  -15.2663 N   0  0  0  0  0  0  0  0  0  0  0  0
   23.9757  -21.9034  -15.5929 C   0  0  0  0  0  0  0  0  0  0  0  0
   22.7143  -21.7744  -15.6490 N   0  0  0  0  0  0  0  0  0  0  0  0
   24.7882  -20.7647  -15.8662 N   0  0  0  0  0  0  0  0  0  0  0  0
   25.9949  -20.5304  -15.1447 C   0  0  0  0  0  0  0  0  0  0  0  0
   25.9474  -21.0228  -13.7187 C   0  0  0  0  0  0  0  0  0  0  0  0
   26.5170  -19.9046  -12.8361 C   0  0  0  0  0  0  0  0  0  0  0  0
   27.6803  -20.4099  -12.0282 C   0  0  2  0  0  0  0  0  0  0  0  0
   28.3524  -21.5329  -12.6494 N   0  0  0  0  0  0  0  0  0  0  0  0
   27.2014  -20.8074  -10.6974 C   0  0  0  0  0  0  0  0  0  0  0  0
   26.9619  -22.0263  -10.4545 O   0  0  0  0  0  0  0  0  0  0  0  0
   22.2193  -20.9113  -15.9623 N   0  0  0  0  0  0  0  0  0  0  0  0
   27.0018  -19.8442   -9.6760 C   0  0  2  0  0  0  0  0  0  0  0  0
   26.6254  -20.1938   -8.3254 C   0  0  0  0  0  0  0  0  0  0  0  0
   26.8261  -19.0306   -7.3906 C   0  0  0  0  0  0  0  0  0  0  0  0
   27.7830  -19.3143   -6.3025 C   0  0  0  0  0  0  0  0  0  0  0  0
   28.0758  -20.6055   -5.9429 C   0  0  0  0  0  0  0  0  0  0  0  0
   28.9814  -20.8902   -4.9142 C   0  0  0  0  0  0  0  0  0  0  0  0
   29.5923  -19.8682   -4.2474 C   0  0  0  0  0  0  0  0  0  0  0  0
   29.3053  -18.5714   -4.6006 C   0  0  0  0  0  0  0  0  0  0  0  0
   28.4089  -18.2981   -5.6188 C   0  0  0  0  0  0  0  0  0  0  0  0
   25.1489  -20.4859   -8.3212 O   0  0  0  0  0  0  0  0  0  0  0  0
   24.3415  -19.6960   -8.8917 C   0  0  0  0  0  0  0  0  0  0  0  0
   22.7257  -21.1096   -6.3686 C   0  0  1  0  0  0  0  0  0  0  0  0
   23.2272  -21.9349   -7.5391 N   0  0  0  0  0  0  0  0  0  0  0  0
   24.6354  -21.6371   -7.6869 C   0  0  0  0  0  0  0  0  0  0  0  0
   22.4739  -21.5733   -8.7759 O   0  0  0  0  0  0  0  0  0  0  0  0
   21.2236  -21.7491   -8.8136 O   0  0  0  0  0  0  0  0  0  0  0  0
  2  1  1  0
  3  2  2  0
  4  2  1  0
  5  4  1  0
  6  5  1  0
  6  7  1  0
  8  7  1  0
  8  9  1  6
 10 12  1  0
 10  8  1  0
 11 10  2  0
 13 21  1  0
 13 12  1  0
 13 14  1  6
 15 16  2  0
 15 14  1  0
 17 16  1  0
 18 17  2  0
 19 18  1  0
 19 20  2  0
 20 15  1  0
 21 22  2  0
 24 23  1  1
 25 24  1  0
 25 21  1  0
 26 28  1  0
 26 24  1  0
 27 26  2  0
M  END
$$$$
