RFA.pdb
     RDKit          3D

 28 28  0  0  1  0  0  0  0  0999 V2000
   26.1994  -19.0604  -21.1071 N   0  0  0  0  0  0  0  0  0  0  0  0
   25.2442  -18.1502  -20.5974 C   0  0  0  0  0  0  0  0  0  0  0  0
   25.1489  -16.9802  -21.0800 N   0  0  0  0  0  0  0  0  0  0  0  0
   24.3693  -18.5207  -19.5349 N   0  0  0  0  0  0  0  0  0  0  0  0
   24.8685  -19.1363  -18.3502 C   0  0  0  0  0  0  0  0  0  0  0  0
   24.7515  -20.6409  -18.3600 C   0  0  0  0  0  0  0  0  0  0  0  0
   23.8169  -21.0285  -17.2067 C   0  0  0  0  0  0  0  0  0  0  0  0
   24.4477  -20.6990  -15.8821 C   0  0  2  0  0  0  0  0  0  0  0  0
   25.7777  -21.2547  -15.7374 N   0  0  0  0  0  0  0  0  0  0  0  0
   23.5895  -21.2086  -14.8040 C   0  0  0  0  0  0  0  0  0  0  0  0
   23.6888  -22.4170  -14.4405 O   0  0  0  0  0  0  0  0  0  0  0  0
   24.4784  -16.2537  -20.7470 N   0  0  0  0  0  0  0  0  0  0  0  0
   22.6476  -20.3658  -14.1610 C   0  0  2  0  0  0  0  0  0  0  0  0
   21.7912  -20.8156  -13.0875 C   0  0  0  0  0  0  0  0  0  0  0  0
   21.9242  -19.9245  -11.8812 C   0  0  0  0  0  0  0  0  0  0  0  0
   23.0210  -20.3250  -10.9774 C   0  0  0  0  0  0  0  0  0  0  0  0
   24.3317  -20.1813  -11.3562 C   0  0  0  0  0  0  0  0  0  0  0  0
   25.3822  -20.5557  -10.5101 C   0  0  0  0  0  0  0  0  0  0  0  0
   25.1077  -21.0763   -9.2790 C   0  0  0  0  0  0  0  0  0  0  0  0
   23.7976  -21.2241   -8.8907 C   0  0  0  0  0  0  0  0  0  0  0  0
   22.7647  -20.8516   -9.7329 C   0  0  0  0  0  0  0  0  0  0  0  0
   20.3655  -20.6839  -13.5516 O   0  0  0  0  0  0  0  0  0  0  0  0
   19.9880  -19.6422  -14.1627 C   0  0  0  0  0  0  0  0  0  0  0  0
   17.6465  -23.1339  -14.0055 C   0  0  2  0  0  0  0  0  0  0  0  0
   18.0546  -21.6896  -13.7814 N   0  0  0  0  0  0  0  0  0  0  0  0
   19.4252  -21.7100  -13.3183 C   0  0  0  0  0  0  0  0  0  0  0  0
   17.1592  -21.0599  -12.7667 O   0  0  0  0  0  0  0  0  0  0  0  0
   17.5499  -20.9650  -11.5692 O   0  0  0  0  0  0  0  0  0  0  0  0
  2  1  1  0
  3  2  2  0
  4  2  1  0
  5  4  1  0
  6  5  1  0
  6  7  1  0
  8  7  1  0
  8  9  1  6
 10 12  1  0
 10  8  1  0
 11 10  2  0
 13 21  1  0
 13 12  1  0
 13 14  1  6
 15 16  2  0
 15 14  1  0
 17 16  1  0
 18 17  2  0
 19 18  1  0
 19 20  2  0
 20 15  1  0
 21 22  2  0
 24 23  1  6
 25 24  1  0
 25 21  1  0
 26 28  1  0
 26 24  1  0
 27 26  2  0
M  END
$$$$
