RFA.pdb
     RDKit          3D

 28 28  0  0  1  0  0  0  0  0999 V2000
   45.8491  -13.2814   -7.7352 N   0  0  0  0  0  0  0  0  0  0  0  0
   46.4790  -13.1336   -6.4775 C   0  0  0  0  0  0  0  0  0  0  0  0
   46.9019  -14.1503   -5.8463 N   0  0  0  0  0  0  0  0  0  0  0  0
   46.6542  -11.8471   -5.8895 N   0  0  0  0  0  0  0  0  0  0  0  0
   45.5401  -10.9948   -5.6366 C   0  0  0  0  0  0  0  0  0  0  0  0
   44.4198  -11.1585   -6.6346 C   0  0  0  0  0  0  0  0  0  0  0  0
   43.1167  -10.7865   -5.9152 C   0  0  0  0  0  0  0  0  0  0  0  0
   43.2988   -9.5310   -5.1079 C   0  0  2  0  0  0  0  0  0  0  0  0
   44.0374   -9.7519   -3.8814 N   0  0  0  0  0  0  0  0  0  0  0  0
   41.9781   -8.9746   -4.7849 C   0  0  0  0  0  0  0  0  0  0  0  0
   41.1951   -9.6164   -4.0250 O   0  0  0  0  0  0  0  0  0  0  0  0
   47.3887  -14.1163   -4.9243 N   0  0  0  0  0  0  0  0  0  0  0  0
   41.5636   -7.7253   -5.3125 C   0  0  1  0  0  0  0  0  0  0  0  0
   40.2836   -7.1272   -5.0096 C   0  0  0  0  0  0  0  0  0  0  0  0
   40.4398   -5.6767   -4.6372 C   0  0  0  0  0  0  0  0  0  0  0  0
   39.1597   -5.0157   -4.3137 C   0  0  0  0  0  0  0  0  0  0  0  0
   38.6438   -5.0663   -3.0436 C   0  0  0  0  0  0  0  0  0  0  0  0
   37.4320   -4.4440   -2.7215 C   0  0  0  0  0  0  0  0  0  0  0  0
   36.7401   -3.7692   -3.6848 C   0  0  0  0  0  0  0  0  0  0  0  0
   37.2490   -3.7130   -4.9603 C   0  0  0  0  0  0  0  0  0  0  0  0
   38.4477   -4.3309   -5.2707 C   0  0  0  0  0  0  0  0  0  0  0  0
   39.4565   -7.1511   -6.2668 O   0  0  0  0  0  0  0  0  0  0  0  0
   39.8544   -6.5433   -7.3029 C   0  0  0  0  0  0  0  0  0  0  0  0
   36.6369   -6.4885   -7.4525 C   0  0  1  0  0  0  0  0  0  0  0  0
   37.3286   -7.8392   -7.4512 N   0  0  0  0  0  0  0  0  0  0  0  0
   38.2293   -7.8459   -6.3190 C   0  0  0  0  0  0  0  0  0  0  0  0
   38.0776   -8.0279   -8.7285 O   0  0  0  0  0  0  0  0  0  0  0  0
   39.3318   -8.1747   -8.6956 O   0  0  0  0  0  0  0  0  0  0  0  0
  2  1  1  0
  3  2  2  0
  4  2  1  0
  5  4  1  0
  6  5  1  0
  6  7  1  0
  8  7  1  0
  8  9  1  1
 10 12  1  0
 10  8  1  0
 11 10  2  0
 13 21  1  0
 13 12  1  0
 13 14  1  6
 15 16  2  0
 15 14  1  0
 17 16  1  0
 18 17  2  0
 19 18  1  0
 19 20  2  0
 20 15  1  0
 21 22  2  0
 24 23  1  1
 25 24  1  0
 25 21  1  0
 26 28  1  0
 26 24  1  0
 27 26  2  0
M  END
$$$$
