YSC.pdb
     RDKit          3D

 25 25  0  0  1  0  0  0  0  0999 V2000
   24.9158  -11.8406  -22.1772 O   0  0  0  0  0  0  0  0  0  0  0  0
   24.3569  -10.7384  -21.5271 C   0  0  0  0  0  0  0  0  0  0  0  0
   24.4242  -10.6293  -20.1543 C   0  0  0  0  0  0  0  0  0  0  0  0
   23.8781   -9.5482  -19.4939 C   0  0  0  0  0  0  0  0  0  0  0  0
   23.2401   -8.5273  -20.1756 C   0  0  0  0  0  0  0  0  0  0  0  0
   22.6553   -7.3662  -19.4523 C   0  0  0  0  0  0  0  0  0  0  0  0
   21.7285   -7.8843  -18.4063 C   0  0  2  0  0  0  0  0  0  0  0  0
   20.6264   -8.5575  -19.0257 N   0  0  0  0  0  0  0  0  0  0  0  0
   21.3051   -6.8625  -17.4285 C   0  0  0  0  0  0  0  0  0  0  0  0
   20.2400   -6.2249  -17.7002 O   0  0  0  0  0  0  0  0  0  0  0  0
   23.1783   -8.6461  -21.5492 C   0  0  0  0  0  0  0  0  0  0  0  0
   23.7231   -9.7260  -22.2162 C   0  0  0  0  0  0  0  0  0  0  0  0
   21.7472   -4.5083  -13.2055 O   0  0  0  0  0  0  0  0  0  0  0  0
   22.1876   -5.5257  -14.0374 C   0  0  0  0  0  0  0  0  0  0  0  0
   21.4510   -5.5248  -15.3740 C   0  0  2  0  0  0  0  0  0  0  0  0
   21.9902   -6.5573  -16.2431 N   0  0  0  0  0  0  0  0  0  0  0  0
   21.5773   -4.1813  -16.0043 C   0  0  0  0  0  0  0  0  0  0  0  0
   22.6217   -3.8761  -16.6788 O   0  0  0  0  0  0  0  0  0  0  0  0
   20.5978   -3.1612  -15.9217 N   0  0  0  0  0  0  0  0  0  0  0  0
   20.7764   -1.8632  -16.5812 C   0  0  1  0  0  0  0  0  0  0  0  0
   20.1027   -1.8716  -17.9439 C   0  0  0  0  0  0  0  0  0  0  0  0
   20.1355   -0.2621  -18.7276 S   0  0  0  0  0  0  0  0  0  0  0  0
   20.2838   -0.7639  -15.7450 C   0  0  0  0  0  0  0  0  0  0  0  0
   19.4939   -0.9866  -14.8001 O   0  0  0  0  0  0  0  0  0  0  0  0
   20.6868    0.5242  -15.9928 O   0  0  0  0  0  0  0  0  0  0  0  0
  2  1  1  0
  3  2  2  0
  4  5  2  0
  4  3  1  0
  5 11  1  0
  6  5  1  0
  6  7  1  0
  7  9  1  0
  7  8  1  6
  9 10  2  0
 11 12  2  0
 12  2  1  0
 13 14  1  0
 15 14  1  1
 16 15  1  0
 16  9  1  0
 17 19  1  0
 17 15  1  0
 18 17  2  0
 20 19  1  0
 20 21  1  6
 21 22  1  0
 23 25  1  0
 23 20  1  0
 24 23  2  0
M  END
$$$$
