YSC.pdb
     RDKit          3D

 25 25  0  0  1  0  0  0  0  0999 V2000
   29.3750  -14.0869  -21.0149 O   0  0  0  0  0  0  0  0  0  0  0  0
   28.3773  -14.7993  -20.3465 C   0  0  0  0  0  0  0  0  0  0  0  0
   28.7081  -15.8274  -19.4894 C   0  0  0  0  0  0  0  0  0  0  0  0
   27.7369  -16.5428  -18.8201 C   0  0  0  0  0  0  0  0  0  0  0  0
   26.3912  -16.2631  -18.9770 C   0  0  0  0  0  0  0  0  0  0  0  0
   25.3529  -17.0415  -18.2496 C   0  0  0  0  0  0  0  0  0  0  0  0
   25.4329  -18.4612  -18.6963 C   0  0  2  0  0  0  0  0  0  0  0  0
   25.1082  -18.5502  -20.0885 N   0  0  0  0  0  0  0  0  0  0  0  0
   24.6498  -19.3924  -17.8602 C   0  0  0  0  0  0  0  0  0  0  0  0
   23.4386  -19.5760  -18.1982 O   0  0  0  0  0  0  0  0  0  0  0  0
   26.0707  -15.2322  -19.8370 C   0  0  0  0  0  0  0  0  0  0  0  0
   27.0385  -14.5123  -20.5100 C   0  0  0  0  0  0  0  0  0  0  0  0
   25.7342  -21.0661  -14.1180 O   0  0  0  0  0  0  0  0  0  0  0  0
   25.0704  -21.8416  -15.0557 C   0  0  0  0  0  0  0  0  0  0  0  0
   24.2669  -20.9872  -16.0322 C   0  0  2  0  0  0  0  0  0  0  0  0
   25.1479  -20.0730  -16.7393 N   0  0  0  0  0  0  0  0  0  0  0  0
   23.2173  -20.2409  -15.2843 C   0  0  0  0  0  0  0  0  0  0  0  0
   23.5318  -19.2453  -14.5433 O   0  0  0  0  0  0  0  0  0  0  0  0
   21.8347  -20.5474  -15.3211 N   0  0  0  0  0  0  0  0  0  0  0  0
   20.8520  -19.7790  -14.5495 C   0  0  1  0  0  0  0  0  0  0  0  0
   19.9716  -18.9664  -15.4852 C   0  0  0  0  0  0  0  0  0  0  0  0
   20.8908  -17.6969  -16.3507 S   0  0  0  0  0  0  0  0  0  0  0  0
   20.0531  -20.6488  -13.6802 C   0  0  0  0  0  0  0  0  0  0  0  0
   20.1495  -21.8939  -13.7626 O   0  0  0  0  0  0  0  0  0  0  0  0
   19.1892  -20.1022  -12.7650 O   0  0  0  0  0  0  0  0  0  0  0  0
  2  1  1  0
  3  2  2  0
  4  5  2  0
  4  3  1  0
  5 11  1  0
  6  5  1  0
  6  7  1  0
  7  9  1  0
  7  8  1  6
  9 10  2  0
 11 12  2  0
 12  2  1  0
 13 14  1  0
 15 14  1  1
 16 15  1  0
 16  9  1  0
 17 19  1  0
 17 15  1  0
 18 17  2  0
 20 19  1  0
 20 21  1  6
 21 22  1  0
 23 25  1  0
 23 20  1  0
 24 23  2  0
M  END
$$$$
