YSC.pdb
     RDKit          3D

 25 25  0  0  1  0  0  0  0  0999 V2000
   17.7549  -25.7079   -5.6027 O   0  0  0  0  0  0  0  0  0  0  0  0
   18.2536  -25.4871   -6.8881 C   0  0  0  0  0  0  0  0  0  0  0  0
   18.2425  -26.4987   -7.8248 C   0  0  0  0  0  0  0  0  0  0  0  0
   18.7307  -26.3001   -9.0997 C   0  0  0  0  0  0  0  0  0  0  0  0
   19.2520  -25.0816   -9.4961 C   0  0  0  0  0  0  0  0  0  0  0  0
   19.7753  -24.8793  -10.8739 C   0  0  0  0  0  0  0  0  0  0  0  0
   18.9270  -23.8587  -11.5522 C   0  0  2  0  0  0  0  0  0  0  0  0
   17.6387  -24.4138  -11.8414 N   0  0  0  0  0  0  0  0  0  0  0  0
   19.5674  -23.2417  -12.7307 C   0  0  0  0  0  0  0  0  0  0  0  0
   19.3884  -23.8269  -13.8444 O   0  0  0  0  0  0  0  0  0  0  0  0
   19.2585  -24.0757   -8.5511 C   0  0  0  0  0  0  0  0  0  0  0  0
   18.7712  -24.2683   -7.2731 C   0  0  0  0  0  0  0  0  0  0  0  0
   20.9009  -19.3770  -12.9932 O   0  0  0  0  0  0  0  0  0  0  0  0
   20.6210  -20.1154  -14.1323 C   0  0  0  0  0  0  0  0  0  0  0  0
   20.9332  -21.5967  -13.9392 C   0  0  2  0  0  0  0  0  0  0  0  0
   20.3449  -22.0745  -12.6992 N   0  0  0  0  0  0  0  0  0  0  0  0
   22.4097  -21.7919  -13.9360 C   0  0  0  0  0  0  0  0  0  0  0  0
   23.0985  -21.5187  -12.8919 O   0  0  0  0  0  0  0  0  0  0  0  0
   23.1572  -22.2771  -15.0371 N   0  0  0  0  0  0  0  0  0  0  0  0
   24.6217  -22.3511  -15.0044 C   0  0  1  0  0  0  0  0  0  0  0  0
   25.0703  -23.8003  -14.9058 C   0  0  0  0  0  0  0  0  0  0  0  0
   24.4536  -24.6030  -13.4290 S   0  0  0  0  0  0  0  0  0  0  0  0
   25.2192  -21.6814  -16.1642 C   0  0  0  0  0  0  0  0  0  0  0  0
   24.4951  -21.1855  -17.0564 O   0  0  0  0  0  0  0  0  0  0  0  0
   26.5834  -21.5926  -16.2812 O   0  0  0  0  0  0  0  0  0  0  0  0
  2  1  1  0
  3  2  2  0
  4  5  2  0
  4  3  1  0
  5 11  1  0
  6  5  1  0
  6  7  1  0
  7  9  1  0
  7  8  1  6
  9 10  2  0
 11 12  2  0
 12  2  1  0
 13 14  1  0
 15 14  1  1
 16 15  1  0
 16  9  1  0
 17 19  1  0
 17 15  1  0
 18 17  2  0
 20 19  1  0
 20 21  1  6
 21 22  1  0
 23 25  1  0
 23 20  1  0
 24 23  2  0
M  END
$$$$
