YSC.pdb
     RDKit          3D

 25 25  0  0  1  0  0  0  0  0999 V2000
   29.4985  -31.2357  -17.5746 O   0  0  0  0  0  0  0  0  0  0  0  0
   28.9704  -29.9483  -17.6904 C   0  0  0  0  0  0  0  0  0  0  0  0
   27.6086  -29.7586  -17.7932 C   0  0  0  0  0  0  0  0  0  0  0  0
   27.0680  -28.4946  -17.9085 C   0  0  0  0  0  0  0  0  0  0  0  0
   27.8637  -27.3632  -17.9262 C   0  0  0  0  0  0  0  0  0  0  0  0
   27.2690  -26.0053  -18.0507 C   0  0  0  0  0  0  0  0  0  0  0  0
   27.4224  -25.3050  -16.7440 C   0  0  2  0  0  0  0  0  0  0  0  0
   26.6276  -25.9586  -15.7476 N   0  0  0  0  0  0  0  0  0  0  0  0
   27.1763  -23.8511  -16.8163 C   0  0  0  0  0  0  0  0  0  0  0  0
   26.1407  -23.4211  -16.2186 O   0  0  0  0  0  0  0  0  0  0  0  0
   29.2253  -27.5640  -17.8227 C   0  0  0  0  0  0  0  0  0  0  0  0
   29.7727  -28.8268  -17.7071 C   0  0  0  0  0  0  0  0  0  0  0  0
   29.2975  -21.1238  -19.1439 O   0  0  0  0  0  0  0  0  0  0  0  0
   28.8479  -20.6825  -17.9093 C   0  0  0  0  0  0  0  0  0  0  0  0
   27.6773  -21.5186  -17.3997 C   0  0  2  0  0  0  0  0  0  0  0  0
   27.9966  -22.9336  -17.4894 N   0  0  0  0  0  0  0  0  0  0  0  0
   26.4601  -21.1976  -18.1958 C   0  0  0  0  0  0  0  0  0  0  0  0
   26.1313  -21.9211  -19.1996 O   0  0  0  0  0  0  0  0  0  0  0  0
   25.5904  -20.1117  -17.9291 N   0  0  0  0  0  0  0  0  0  0  0  0
   24.4092  -19.8463  -18.7572 C   0  0  1  0  0  0  0  0  0  0  0  0
   23.1811  -19.6756  -17.8776 C   0  0  0  0  0  0  0  0  0  0  0  0
   21.6563  -19.8827  -18.7928 S   0  0  0  0  0  0  0  0  0  0  0  0
   24.6134  -18.6831  -19.6266 C   0  0  0  0  0  0  0  0  0  0  0  0
   25.4702  -17.8168  -19.3409 O   0  0  0  0  0  0  0  0  0  0  0  0
   23.8632  -18.5343  -20.7658 O   0  0  0  0  0  0  0  0  0  0  0  0
  2  1  1  0
  3  2  2  0
  4  5  2  0
  4  3  1  0
  5 11  1  0
  6  5  1  0
  6  7  1  0
  7  9  1  0
  7  8  1  1
  9 10  2  0
 11 12  2  0
 12  2  1  0
 13 14  1  0
 15 14  1  6
 16 15  1  0
 16  9  1  0
 17 19  1  0
 17 15  1  0
 18 17  2  0
 20 19  1  0
 20 21  1  1
 21 22  1  0
 23 25  1  0
 23 20  1  0
 24 23  2  0
M  END
$$$$
