YSC.pdb
     RDKit          3D

 25 25  0  0  1  0  0  0  0  0999 V2000
   16.8811  -16.4230  -15.8390 O   0  0  0  0  0  0  0  0  0  0  0  0
   17.5021  -15.1734  -15.7868 C   0  0  0  0  0  0  0  0  0  0  0  0
   18.8733  -15.0790  -15.6788 C   0  0  0  0  0  0  0  0  0  0  0  0
   19.5052  -13.8538  -15.6256 C   0  0  0  0  0  0  0  0  0  0  0  0
   18.7952  -12.6677  -15.6781 C   0  0  0  0  0  0  0  0  0  0  0  0
   19.4879  -11.3524  -15.6202 C   0  0  0  0  0  0  0  0  0  0  0  0
   19.4765  -10.7563  -16.9862 C   0  0  2  0  0  0  0  0  0  0  0  0
   20.4440  -11.4160  -17.8110 N   0  0  0  0  0  0  0  0  0  0  0  0
   19.6168   -9.2867  -16.9947 C   0  0  0  0  0  0  0  0  0  0  0  0
   20.8028   -8.8305  -16.9882 O   0  0  0  0  0  0  0  0  0  0  0  0
   17.4233  -12.7732  -15.7862 C   0  0  0  0  0  0  0  0  0  0  0  0
   16.7849  -13.9968  -15.8398 C   0  0  0  0  0  0  0  0  0  0  0  0
   17.8025   -4.8303  -17.5741 O   0  0  0  0  0  0  0  0  0  0  0  0
   17.5529   -6.1790  -17.3747 C   0  0  0  0  0  0  0  0  0  0  0  0
   18.8368   -6.9608  -17.1109 C   0  0  2  0  0  0  0  0  0  0  0  0
   18.5457   -8.3810  -17.0088 N   0  0  0  0  0  0  0  0  0  0  0  0
   19.4710   -6.4578  -15.8607 C   0  0  0  0  0  0  0  0  0  0  0  0
   19.2370   -7.0285  -14.7389 O   0  0  0  0  0  0  0  0  0  0  0  0
   20.3535   -5.3515  -15.7979 N   0  0  0  0  0  0  0  0  0  0  0  0
   20.9534   -4.9124  -14.5334 C   0  0  1  0  0  0  0  0  0  0  0  0
   22.0067   -5.9102  -14.0797 C   0  0  0  0  0  0  0  0  0  0  0  0
   22.9193   -5.3322  -12.6518 S   0  0  0  0  0  0  0  0  0  0  0  0
   21.5073   -3.5590  -14.6433 C   0  0  0  0  0  0  0  0  0  0  0  0
   21.8032   -3.0806  -15.7613 O   0  0  0  0  0  0  0  0  0  0  0  0
   21.7067   -2.8025  -13.5161 O   0  0  0  0  0  0  0  0  0  0  0  0
  2  1  1  0
  3  2  2  0
  4  5  2  0
  4  3  1  0
  5 11  1  0
  6  5  1  0
  6  7  1  0
  7  9  1  0
  7  8  1  6
  9 10  2  0
 11 12  2  0
 12  2  1  0
 13 14  1  0
 15 14  1  1
 16 15  1  0
 16  9  1  0
 17 19  1  0
 17 15  1  0
 18 17  2  0
 20 19  1  0
 20 21  1  6
 21 22  1  0
 23 25  1  0
 23 20  1  0
 24 23  2  0
M  END
$$$$
