YSC.pdb
     RDKit          3D

 25 25  0  0  1  0  0  0  0  0999 V2000
   28.4439  -13.2192  -16.9466 O   0  0  0  0  0  0  0  0  0  0  0  0
   27.7266  -14.3631  -16.5907 C   0  0  0  0  0  0  0  0  0  0  0  0
   27.5756  -14.7084  -15.2644 C   0  0  0  0  0  0  0  0  0  0  0  0
   26.8707  -15.8345  -14.8929 C   0  0  0  0  0  0  0  0  0  0  0  0
   26.2848  -16.6665  -15.8301 C   0  0  0  0  0  0  0  0  0  0  0  0
   25.5267  -17.8781  -15.4172 C   0  0  0  0  0  0  0  0  0  0  0  0
   26.5010  -18.9011  -14.9422 C   0  0  2  0  0  0  0  0  0  0  0  0
   27.3191  -19.3354  -16.0347 N   0  0  0  0  0  0  0  0  0  0  0  0
   25.8776  -20.0197  -14.2076 C   0  0  0  0  0  0  0  0  0  0  0  0
   25.4129  -20.9707  -14.9109 O   0  0  0  0  0  0  0  0  0  0  0  0
   26.4417  -16.3121  -17.1547 C   0  0  0  0  0  0  0  0  0  0  0  0
   27.1463  -15.1859  -17.5330 C   0  0  0  0  0  0  0  0  0  0  0  0
   24.8047  -19.9455  -10.1183 O   0  0  0  0  0  0  0  0  0  0  0  0
   25.0746  -21.1622  -10.7247 C   0  0  0  0  0  0  0  0  0  0  0  0
   24.8830  -21.0972  -12.2374 C   0  0  2  0  0  0  0  0  0  0  0  0
   25.7679  -20.0973  -12.8113 N   0  0  0  0  0  0  0  0  0  0  0  0
   23.4591  -20.7820  -12.5398 C   0  0  0  0  0  0  0  0  0  0  0  0
   23.0962  -19.5766  -12.7730 O   0  0  0  0  0  0  0  0  0  0  0  0
   22.4194  -21.7425  -12.5964 N   0  0  0  0  0  0  0  0  0  0  0  0
   21.0461  -21.3744  -12.9568 C   0  0  1  0  0  0  0  0  0  0  0  0
   20.8907  -21.3495  -14.4688 C   0  0  0  0  0  0  0  0  0  0  0  0
   19.1864  -21.1332  -14.9729 S   0  0  0  0  0  0  0  0  0  0  0  0
   20.0682  -22.2702  -12.3308 C   0  0  0  0  0  0  0  0  0  0  0  0
   20.3430  -23.4750  -12.1332 O   0  0  0  0  0  0  0  0  0  0  0  0
   18.8381  -21.7924  -11.9547 O   0  0  0  0  0  0  0  0  0  0  0  0
  2  1  1  0
  3  2  2  0
  4  5  2  0
  4  3  1  0
  5 11  1  0
  6  5  1  0
  6  7  1  0
  7  9  1  0
  7  8  1  6
  9 10  2  0
 11 12  2  0
 12  2  1  0
 13 14  1  0
 15 14  1  1
 16 15  1  0
 16  9  1  0
 17 19  1  0
 17 15  1  0
 18 17  2  0
 20 19  1  0
 20 21  1  6
 21 22  1  0
 23 25  1  0
 23 20  1  0
 24 23  2  0
M  END
$$$$
