YSC.pdb
     RDKit          3D

 25 25  0  0  1  0  0  0  0  0999 V2000
   25.4528  -16.9597  -20.5647 O   0  0  0  0  0  0  0  0  0  0  0  0
   25.4516  -15.8060  -19.7782 C   0  0  0  0  0  0  0  0  0  0  0  0
   24.6183  -14.7516  -20.0860 C   0  0  0  0  0  0  0  0  0  0  0  0
   24.6028  -13.6036  -19.3211 C   0  0  0  0  0  0  0  0  0  0  0  0
   25.4193  -13.4575  -18.2140 C   0  0  0  0  0  0  0  0  0  0  0  0
   25.3935  -12.2148  -17.3967 C   0  0  0  0  0  0  0  0  0  0  0  0
   25.6272  -11.0539  -18.3017 C   0  0  2  0  0  0  0  0  0  0  0  0
   26.9308  -11.1504  -18.8871 N   0  0  0  0  0  0  0  0  0  0  0  0
   25.3750   -9.7451  -17.6668 C   0  0  0  0  0  0  0  0  0  0  0  0
   26.3729   -9.1779  -17.1217 O   0  0  0  0  0  0  0  0  0  0  0  0
   26.2495  -14.5186  -17.9145 C   0  0  0  0  0  0  0  0  0  0  0  0
   26.2697  -15.6706  -18.6763 C   0  0  0  0  0  0  0  0  0  0  0  0
   22.8134   -6.8367  -18.8316 O   0  0  0  0  0  0  0  0  0  0  0  0
   23.9461   -6.7014  -18.0444 C   0  0  0  0  0  0  0  0  0  0  0  0
   24.0381   -7.7997  -16.9887 C   0  0  2  0  0  0  0  0  0  0  0  0
   24.1291   -9.1017  -17.6280 N   0  0  0  0  0  0  0  0  0  0  0  0
   22.8460   -7.7276  -16.0987 C   0  0  0  0  0  0  0  0  0  0  0  0
   21.9710   -8.6621  -16.1084 O   0  0  0  0  0  0  0  0  0  0  0  0
   22.5805   -6.6671  -15.1978 N   0  0  0  0  0  0  0  0  0  0  0  0
   21.3625   -6.6336  -14.3812 C   0  0  1  0  0  0  0  0  0  0  0  0
   21.3302   -7.8276  -13.4407 C   0  0  0  0  0  0  0  0  0  0  0  0
   20.0259   -7.6962  -12.2211 S   0  0  0  0  0  0  0  0  0  0  0  0
   21.2420   -5.3691  -13.6485 C   0  0  0  0  0  0  0  0  0  0  0  0
   20.1285   -4.8132  -13.5160 O   0  0  0  0  0  0  0  0  0  0  0  0
   22.3542   -4.7820  -13.0997 O   0  0  0  0  0  0  0  0  0  0  0  0
  2  1  1  0
  3  2  2  0
  4  5  2  0
  4  3  1  0
  5 11  1  0
  6  5  1  0
  6  7  1  0
  7  9  1  0
  7  8  1  1
  9 10  2  0
 11 12  2  0
 12  2  1  0
 13 14  1  0
 15 14  1  6
 16 15  1  0
 16  9  1  0
 17 19  1  0
 17 15  1  0
 18 17  2  0
 20 19  1  0
 20 21  1  1
 21 22  1  0
 23 25  1  0
 23 20  1  0
 24 23  2  0
M  END
$$$$
