YSC.pdb
     RDKit          3D

 25 25  0  0  1  0  0  0  0  0999 V2000
   26.5979  -31.9010   -9.9149 O   0  0  0  0  0  0  0  0  0  0  0  0
   26.3992  -32.0212   -8.5380 C   0  0  0  0  0  0  0  0  0  0  0  0
   25.2931  -31.4559   -7.9400 C   0  0  0  0  0  0  0  0  0  0  0  0
   25.0794  -31.5638   -6.5814 C   0  0  0  0  0  0  0  0  0  0  0  0
   25.9615  -32.2415   -5.7591 C   0  0  0  0  0  0  0  0  0  0  0  0
   25.7202  -32.3514   -4.2952 C   0  0  0  0  0  0  0  0  0  0  0  0
   25.2739  -33.7418   -3.9969 C   0  0  2  0  0  0  0  0  0  0  0  0
   23.9900  -33.9758   -4.5872 N   0  0  0  0  0  0  0  0  0  0  0  0
   25.3210  -34.0863   -2.5621 C   0  0  0  0  0  0  0  0  0  0  0  0
   24.2820  -33.8197   -1.8808 O   0  0  0  0  0  0  0  0  0  0  0  0
   27.0655  -32.8037   -6.3675 C   0  0  0  0  0  0  0  0  0  0  0  0
   27.2850  -32.6992   -7.7272 C   0  0  0  0  0  0  0  0  0  0  0  0
   28.7080  -35.3133   -0.4260 O   0  0  0  0  0  0  0  0  0  0  0  0
   27.4815  -35.8370   -0.0486 C   0  0  0  0  0  0  0  0  0  0  0  0
   26.3238  -34.9469   -0.4920 C   0  0  2  0  0  0  0  0  0  0  0  0
   26.4176  -34.6769   -1.9170 N   0  0  0  0  0  0  0  0  0  0  0  0
   26.3493  -33.6803    0.2910 C   0  0  0  0  0  0  0  0  0  0  0  0
   26.5868  -32.5635   -0.2882 O   0  0  0  0  0  0  0  0  0  0  0  0
   26.1226  -33.5953    1.6867 N   0  0  0  0  0  0  0  0  0  0  0  0
   26.2130  -32.3214    2.4082 C   0  0  1  0  0  0  0  0  0  0  0  0
   24.9366  -31.5187    2.2147 C   0  0  0  0  0  0  0  0  0  0  0  0
   24.8948  -30.0517    3.2403 S   0  0  0  0  0  0  0  0  0  0  0  0
   26.5068  -32.5291    3.8298 C   0  0  0  0  0  0  0  0  0  0  0  0
   26.1496  -33.5805    4.4072 O   0  0  0  0  0  0  0  0  0  0  0  0
   27.1790  -31.5680    4.5420 O   0  0  0  0  0  0  0  0  0  0  0  0
  2  1  1  0
  3  2  2  0
  4  5  2  0
  4  3  1  0
  5 11  1  0
  6  5  1  0
  6  7  1  0
  7  9  1  0
  7  8  1  1
  9 10  2  0
 11 12  2  0
 12  2  1  0
 13 14  1  0
 15 14  1  1
 16 15  1  0
 16  9  1  0
 17 19  1  0
 17 15  1  0
 18 17  2  0
 20 19  1  0
 20 21  1  1
 21 22  1  0
 23 25  1  0
 23 20  1  0
 24 23  2  0
M  END
$$$$
