YSC.pdb
     RDKit          3D

 25 25  0  0  1  0  0  0  0  0999 V2000
   18.0930  -24.3598  -11.0460 O   0  0  0  0  0  0  0  0  0  0  0  0
   17.8379  -24.7838   -9.7403 C   0  0  0  0  0  0  0  0  0  0  0  0
   18.8317  -24.7417   -8.7856 C   0  0  0  0  0  0  0  0  0  0  0  0
   18.5991  -25.1561   -7.4905 C   0  0  0  0  0  0  0  0  0  0  0  0
   17.3628  -25.6313   -7.0910 C   0  0  0  0  0  0  0  0  0  0  0  0
   17.1240  -26.0752   -5.6913 C   0  0  0  0  0  0  0  0  0  0  0  0
   17.9457  -27.2928   -5.4393 C   0  0  2  0  0  0  0  0  0  0  0  0
   17.4057  -28.4014   -6.1679 N   0  0  0  0  0  0  0  0  0  0  0  0
   18.1482  -27.5872   -4.0068 C   0  0  0  0  0  0  0  0  0  0  0  0
   17.2408  -28.2680   -3.4343 O   0  0  0  0  0  0  0  0  0  0  0  0
   16.3750  -25.6693   -8.0542 C   0  0  0  0  0  0  0  0  0  0  0  0
   16.6016  -25.2558   -9.3524 C   0  0  0  0  0  0  0  0  0  0  0  0
   20.6563  -27.2528    0.1408 O   0  0  0  0  0  0  0  0  0  0  0  0
   20.5786  -26.9559   -1.2108 C   0  0  0  0  0  0  0  0  0  0  0  0
   19.2994  -27.5019   -1.8390 C   0  0  2  0  0  0  0  0  0  0  0  0
   19.2560  -27.1711   -3.2535 N   0  0  0  0  0  0  0  0  0  0  0  0
   18.1207  -26.9366   -1.1254 C   0  0  0  0  0  0  0  0  0  0  0  0
   17.6536  -25.7897   -1.4501 O   0  0  0  0  0  0  0  0  0  0  0  0
   17.4356  -27.5854   -0.0687 N   0  0  0  0  0  0  0  0  0  0  0  0
   16.3768  -26.9143    0.6928 C   0  0  1  0  0  0  0  0  0  0  0  0
   15.0557  -27.0080   -0.0536 C   0  0  0  0  0  0  0  0  0  0  0  0
   13.7278  -27.6049    0.9885 S   0  0  0  0  0  0  0  0  0  0  0  0
   16.2662  -27.4564    2.0509 C   0  0  0  0  0  0  0  0  0  0  0  0
   16.8810  -28.4979    2.3732 O   0  0  0  0  0  0  0  0  0  0  0  0
   15.4842  -26.8234    2.9839 O   0  0  0  0  0  0  0  0  0  0  0  0
  2  1  1  0
  3  2  2  0
  4  5  2  0
  4  3  1  0
  5 11  1  0
  6  5  1  0
  6  7  1  0
  7  9  1  0
  7  8  1  1
  9 10  2  0
 11 12  2  0
 12  2  1  0
 13 14  1  0
 15 14  1  1
 16 15  1  0
 16  9  1  0
 17 19  1  0
 17 15  1  0
 18 17  2  0
 20 19  1  0
 20 21  1  6
 21 22  1  0
 23 25  1  0
 23 20  1  0
 24 23  2  0
M  END
$$$$
