YSC.pdb
     RDKit          3D

 25 25  0  0  1  0  0  0  0  0999 V2000
   20.2096  -22.5065   -7.4018 O   0  0  0  0  0  0  0  0  0  0  0  0
   21.1003  -21.8908   -8.2834 C   0  0  0  0  0  0  0  0  0  0  0  0
   20.9242  -22.0036   -9.6462 C   0  0  0  0  0  0  0  0  0  0  0  0
   21.7933  -21.4026  -10.5332 C   0  0  0  0  0  0  0  0  0  0  0  0
   22.8776  -20.6618  -10.0982 C   0  0  0  0  0  0  0  0  0  0  0  0
   23.8079  -20.0181  -11.0644 C   0  0  0  0  0  0  0  0  0  0  0  0
   24.8112  -21.0324  -11.4956 C   0  0  2  0  0  0  0  0  0  0  0  0
   25.7498  -21.2653  -10.4390 N   0  0  0  0  0  0  0  0  0  0  0  0
   25.4590  -20.7172  -12.7842 C   0  0  0  0  0  0  0  0  0  0  0  0
   26.4434  -19.9147  -12.7424 O   0  0  0  0  0  0  0  0  0  0  0  0
   23.0449  -20.5549   -8.7324 C   0  0  0  0  0  0  0  0  0  0  0  0
   22.1782  -21.1543   -7.8393 C   0  0  0  0  0  0  0  0  0  0  0  0
   26.0630  -23.2366  -15.7670 O   0  0  0  0  0  0  0  0  0  0  0  0
   26.7699  -22.0610  -15.5690 C   0  0  0  0  0  0  0  0  0  0  0  0
   25.8493  -20.9004  -15.2020 C   0  0  2  0  0  0  0  0  0  0  0  0
   25.0645  -21.2369  -14.0260 N   0  0  0  0  0  0  0  0  0  0  0  0
   24.9648  -20.5891  -16.3591 C   0  0  0  0  0  0  0  0  0  0  0  0
   23.8160  -21.1440  -16.4659 O   0  0  0  0  0  0  0  0  0  0  0  0
   25.2955  -19.6901  -17.4027 N   0  0  0  0  0  0  0  0  0  0  0  0
   24.4309  -19.5147  -18.5745 C   0  0  1  0  0  0  0  0  0  0  0  0
   24.7066  -18.1719  -19.2319 C   0  0  0  0  0  0  0  0  0  0  0  0
   24.7353  -16.8293  -18.0478 S   0  0  0  0  0  0  0  0  0  0  0  0
   24.5848  -20.6203  -19.5256 C   0  0  0  0  0  0  0  0  0  0  0  0
   25.5381  -21.4241  -19.4192 O   0  0  0  0  0  0  0  0  0  0  0  0
   23.6806  -20.7833  -20.5447 O   0  0  0  0  0  0  0  0  0  0  0  0
  2  1  1  0
  3  2  2  0
  4  5  2  0
  4  3  1  0
  5 11  1  0
  6  5  1  0
  6  7  1  0
  7  9  1  0
  7  8  1  1
  9 10  2  0
 11 12  2  0
 12  2  1  0
 13 14  1  0
 15 14  1  6
 16 15  1  0
 16  9  1  0
 17 19  1  0
 17 15  1  0
 18 17  2  0
 20 19  1  0
 20 21  1  6
 21 22  1  0
 23 25  1  0
 23 20  1  0
 24 23  2  0
M  END
$$$$
