YSC.pdb
     RDKit          3D

 25 25  0  0  1  0  0  0  0  0999 V2000
   32.3453  -10.0879  -17.8884 O   0  0  0  0  0  0  0  0  0  0  0  0
   30.9519  -10.1770  -17.8920 C   0  0  0  0  0  0  0  0  0  0  0  0
   30.1899   -9.2315  -17.2390 C   0  0  0  0  0  0  0  0  0  0  0  0
   28.8122   -9.3024  -17.2312 C   0  0  0  0  0  0  0  0  0  0  0  0
   28.1338  -10.3213  -17.8757 C   0  0  0  0  0  0  0  0  0  0  0  0
   26.6476  -10.3869  -17.8605 C   0  0  0  0  0  0  0  0  0  0  0  0
   26.2175  -10.9653  -16.5559 C   0  0  2  0  0  0  0  0  0  0  0  0
   26.6870  -12.3140  -16.4454 N   0  0  0  0  0  0  0  0  0  0  0  0
   24.7701  -10.8349  -16.2962 C   0  0  0  0  0  0  0  0  0  0  0  0
   24.0945  -11.9112  -16.2989 O   0  0  0  0  0  0  0  0  0  0  0  0
   28.9057  -11.2624  -18.5263 C   0  0  0  0  0  0  0  0  0  0  0  0
   30.2853  -11.1970  -18.5377 C   0  0  0  0  0  0  0  0  0  0  0  0
   21.0669  -10.3197  -14.1136 O   0  0  0  0  0  0  0  0  0  0  0  0
   22.4162  -10.3156  -14.4306 C   0  0  0  0  0  0  0  0  0  0  0  0
   22.6800   -9.6531  -15.7799 C   0  0  2  0  0  0  0  0  0  0  0  0
   24.1073   -9.6230  -16.0519 N   0  0  0  0  0  0  0  0  0  0  0  0
   22.1122   -8.2763  -15.7713 C   0  0  0  0  0  0  0  0  0  0  0  0
   22.7111   -7.3307  -15.1497 O   0  0  0  0  0  0  0  0  0  0  0  0
   20.9111   -7.8997  -16.4213 N   0  0  0  0  0  0  0  0  0  0  0  0
   20.4225   -6.5169  -16.4015 C   0  0  1  0  0  0  0  0  0  0  0  0
   19.5394   -6.2565  -17.6112 C   0  0  0  0  0  0  0  0  0  0  0  0
   20.4882   -6.0823  -19.1196 S   0  0  0  0  0  0  0  0  0  0  0  0
   19.7220   -6.2129  -15.1495 C   0  0  0  0  0  0  0  0  0  0  0  0
   19.0538   -7.0938  -14.5632 O   0  0  0  0  0  0  0  0  0  0  0  0
   19.7938   -4.9541  -14.6080 O   0  0  0  0  0  0  0  0  0  0  0  0
  2  1  1  0
  3  2  2  0
  4  5  2  0
  4  3  1  0
  5 11  1  0
  6  5  1  0
  6  7  1  0
  7  9  1  0
  7  8  1  6
  9 10  2  0
 11 12  2  0
 12  2  1  0
 13 14  1  0
 15 14  1  1
 16 15  1  0
 16  9  1  0
 17 19  1  0
 17 15  1  0
 18 17  2  0
 20 19  1  0
 20 21  1  6
 21 22  1  0
 23 25  1  0
 23 20  1  0
 24 23  2  0
M  END
$$$$
