SEY.pdb
     RDKit          3D

 28 28  0  0  1  0  0  0  0  0999 V2000
    6.6034  -17.0022   21.1656 O   0  0  0  0  0  0  0  0  0  0  0  0
    7.1192  -16.8153   19.8840 C   0  0  0  0  0  0  0  0  0  0  0  0
    7.9015  -18.0587   19.5246 C   0  0  2  0  0  0  0  0  0  0  0  0
    6.9658  -19.1673   19.4931 N   0  0  0  0  0  0  0  0  0  0  0  0
    8.9905  -18.3262   20.4982 C   0  0  0  0  0  0  0  0  0  0  0  0
    8.7553  -19.0662   21.4830 O   0  0  0  0  0  0  0  0  0  0  0  0
   10.2931  -17.7561   20.3297 N   0  0  0  0  0  0  0  0  0  0  0  0
   11.3962  -17.9510   21.1975 C   0  0  1  0  0  0  0  0  0  0  0  0
   12.7478  -17.9521   20.5888 C   0  0  0  0  0  0  0  0  0  0  0  0
   13.6164  -16.7812   20.8766 C   0  0  0  0  0  0  0  0  0  0  0  0
   14.8917  -16.9200   20.1144 C   0  0  0  0  0  0  0  0  0  0  0  0
   15.8212  -17.5886   20.5951 O   0  0  0  0  0  0  0  0  0  0  0  0
   11.3432  -17.1793   22.4764 C   0  0  0  0  0  0  0  0  0  0  0  0
   10.7364  -16.0819   22.4404 O   0  0  0  0  0  0  0  0  0  0  0  0
   15.0862  -16.3275   18.8775 O   0  0  0  0  0  0  0  0  0  0  0  0
   10.0225  -14.2138   30.4709 O   0  0  0  0  0  0  0  0  0  0  0  0
   10.1118  -14.8550   29.2338 C   0  0  0  0  0  0  0  0  0  0  0  0
   10.0499  -14.1277   28.0643 C   0  0  0  0  0  0  0  0  0  0  0  0
   10.1385  -14.7634   26.8452 C   0  0  0  0  0  0  0  0  0  0  0  0
   10.2927  -16.1501   26.7255 C   0  0  0  0  0  0  0  0  0  0  0  0
   10.3645  -16.7853   25.3911 C   0  0  0  0  0  0  0  0  0  0  0  0
   11.7855  -16.8067   24.9332 C   0  0  2  0  0  0  0  0  0  0  0  0
   11.9217  -17.5952   23.6923 N   0  0  0  0  0  0  0  0  0  0  0  0
   12.7623  -17.2882   25.9293 C   0  0  0  0  0  0  0  0  0  0  0  0
   12.9954  -16.6822   26.9975 O   0  0  0  0  0  0  0  0  0  0  0  0
   10.3528  -16.8660   27.9024 C   0  0  0  0  0  0  0  0  0  0  0  0
   10.2632  -16.2206   29.1277 C   0  0  0  0  0  0  0  0  0  0  0  0
   13.4587  -18.4608   25.6844 O   0  0  0  0  0  0  0  0  0  0  0  0
  2  1  1  0
  2  3  1  0
  3  5  1  0
  3  4  1  1
  5  6  2  0
  7  8  1  0
  7  5  1  0
  8  9  1  6
 10  9  1  0
 11 10  1  0
 11 15  1  0
 12 11  2  0
 13 14  2  0
 13  8  1  0
 16 17  1  0
 17 18  2  0
 17 27  1  0
 18 19  1  0
 19 20  2  0
 20 21  1  0
 22 21  1  1
 22 24  1  0
 22 23  1  0
 23 13  1  0
 24 28  1  0
 25 24  2  0
 26 20  1  0
 27 26  2  0
M  END
$$$$
