SEY.pdb
     RDKit          3D

 28 28  0  0  1  0  0  0  0  0999 V2000
   12.0984  -19.0294   21.3952 O   0  0  0  0  0  0  0  0  0  0  0  0
   12.0476  -18.5712   20.0795 C   0  0  0  0  0  0  0  0  0  0  0  0
   13.0321  -19.3910   19.2758 C   0  0  2  0  0  0  0  0  0  0  0  0
   12.6938  -20.7887   19.4689 N   0  0  0  0  0  0  0  0  0  0  0  0
   14.4341  -19.1339   19.6924 C   0  0  0  0  0  0  0  0  0  0  0  0
   14.9959  -19.9467   20.4647 O   0  0  0  0  0  0  0  0  0  0  0  0
   15.1465  -17.9816   19.2289 N   0  0  0  0  0  0  0  0  0  0  0  0
   16.4878  -17.6577   19.5510 C   0  0  1  0  0  0  0  0  0  0  0  0
   17.2930  -16.9807   18.5067 C   0  0  0  0  0  0  0  0  0  0  0  0
   18.7479  -16.8309   18.7703 C   0  0  0  0  0  0  0  0  0  0  0  0
   19.3839  -16.1314   17.6158 C   0  0  0  0  0  0  0  0  0  0  0  0
   20.2242  -15.2421   17.8279 O   0  0  0  0  0  0  0  0  0  0  0  0
   16.6903  -17.0633   20.9074 C   0  0  0  0  0  0  0  0  0  0  0  0
   15.9982  -16.0537   21.1824 O   0  0  0  0  0  0  0  0  0  0  0  0
   19.0735  -16.4352   16.3005 O   0  0  0  0  0  0  0  0  0  0  0  0
   13.3923  -21.3843   24.9558 O   0  0  0  0  0  0  0  0  0  0  0  0
   14.5223  -20.5851   24.7716 C   0  0  0  0  0  0  0  0  0  0  0  0
   14.6740  -19.4153   25.4850 C   0  0  0  0  0  0  0  0  0  0  0  0
   15.7904  -18.6291   25.3010 C   0  0  0  0  0  0  0  0  0  0  0  0
   16.8102  -18.9635   24.4015 C   0  0  0  0  0  0  0  0  0  0  0  0
   17.9802  -18.0744   24.2284 C   0  0  0  0  0  0  0  0  0  0  0  0
   17.6420  -17.0037   23.2442 C   0  0  2  0  0  0  0  0  0  0  0  0
   17.5919  -17.5518   21.8741 N   0  0  0  0  0  0  0  0  0  0  0  0
   18.5270  -15.8229   23.2675 C   0  0  0  0  0  0  0  0  0  0  0  0
   19.2008  -15.4616   22.2784 O   0  0  0  0  0  0  0  0  0  0  0  0
   16.6462  -20.1356   23.6940 C   0  0  0  0  0  0  0  0  0  0  0  0
   15.5200  -20.9238   23.8833 C   0  0  0  0  0  0  0  0  0  0  0  0
   18.6260  -15.0723   24.4280 O   0  0  0  0  0  0  0  0  0  0  0  0
  2  1  1  0
  2  3  1  0
  3  5  1  0
  3  4  1  1
  5  6  2  0
  7  8  1  0
  7  5  1  0
  8  9  1  6
 10  9  1  0
 11 10  1  0
 11 15  1  0
 12 11  2  0
 13 14  2  0
 13  8  1  0
 16 17  1  0
 17 18  2  0
 17 27  1  0
 18 19  1  0
 19 20  2  0
 20 21  1  0
 22 21  1  1
 22 24  1  0
 22 23  1  0
 23 13  1  0
 24 28  1  0
 25 24  2  0
 26 20  1  0
 27 26  2  0
M  END
$$$$
