SEY.pdb
     RDKit          3D

 28 28  0  0  1  0  0  0  0  0999 V2000
    7.5867  -13.9040   20.6277 O   0  0  0  0  0  0  0  0  0  0  0  0
    6.6266  -14.8775   20.3555 C   0  0  0  0  0  0  0  0  0  0  0  0
    7.3267  -16.0214   19.6565 C   0  0  2  0  0  0  0  0  0  0  0  0
    6.3097  -16.9796   19.2652 N   0  0  0  0  0  0  0  0  0  0  0  0
    8.3384  -16.6665   20.5314 C   0  0  0  0  0  0  0  0  0  0  0  0
    7.9489  -17.3338   21.5192 O   0  0  0  0  0  0  0  0  0  0  0  0
    9.7394  -16.5382   20.2653 N   0  0  0  0  0  0  0  0  0  0  0  0
   10.7822  -17.0525   21.0752 C   0  0  1  0  0  0  0  0  0  0  0  0
   12.0973  -17.2763   20.4288 C   0  0  0  0  0  0  0  0  0  0  0  0
   13.1874  -17.8083   21.2875 C   0  0  0  0  0  0  0  0  0  0  0  0
   14.4121  -18.0027   20.4575 C   0  0  0  0  0  0  0  0  0  0  0  0
   15.1649  -17.0385   20.2440 O   0  0  0  0  0  0  0  0  0  0  0  0
   10.9059  -16.4256   22.4264 C   0  0  0  0  0  0  0  0  0  0  0  0
   11.2964  -15.2336   22.4541 O   0  0  0  0  0  0  0  0  0  0  0  0
   14.7501  -19.2284   19.9078 O   0  0  0  0  0  0  0  0  0  0  0  0
   10.5784  -14.4965   30.9873 O   0  0  0  0  0  0  0  0  0  0  0  0
   10.3124  -14.9231   29.6847 C   0  0  0  0  0  0  0  0  0  0  0  0
   10.3739  -16.2620   29.3622 C   0  0  0  0  0  0  0  0  0  0  0  0
   10.1107  -16.6796   28.0759 C   0  0  0  0  0  0  0  0  0  0  0  0
    9.7740  -15.7914   27.0469 C   0  0  0  0  0  0  0  0  0  0  0  0
    9.5185  -16.2905   25.6777 C   0  0  0  0  0  0  0  0  0  0  0  0
   10.8160  -16.4108   24.9487 C   0  0  2  0  0  0  0  0  0  0  0  0
   10.6217  -17.0750   23.6444 N   0  0  0  0  0  0  0  0  0  0  0  0
   11.8952  -17.0923   25.6896 C   0  0  0  0  0  0  0  0  0  0  0  0
   12.0000  -18.3369   25.7417 O   0  0  0  0  0  0  0  0  0  0  0  0
    9.7163  -14.4552   27.3824 C   0  0  0  0  0  0  0  0  0  0  0  0
    9.9821  -14.0400   28.6796 C   0  0  0  0  0  0  0  0  0  0  0  0
   12.8405  -16.3338   26.3613 O   0  0  0  0  0  0  0  0  0  0  0  0
  2  1  1  0
  2  3  1  0
  3  5  1  0
  3  4  1  1
  5  6  2  0
  7  8  1  0
  7  5  1  0
  8  9  1  6
 10  9  1  0
 11 10  1  0
 11 15  1  0
 12 11  2  0
 13 14  2  0
 13  8  1  0
 16 17  1  0
 17 18  2  0
 17 27  1  0
 18 19  1  0
 19 20  2  0
 20 21  1  0
 22 21  1  1
 22 24  1  0
 22 23  1  0
 23 13  1  0
 24 28  1  0
 25 24  2  0
 26 20  1  0
 27 26  2  0
M  END
$$$$
