SEY.pdb
     RDKit          3D

 28 28  0  0  1  0  0  0  0  0999 V2000
    9.2095  -12.7433   20.7355 O   0  0  0  0  0  0  0  0  0  0  0  0
    7.8446  -12.8212   20.4623 C   0  0  0  0  0  0  0  0  0  0  0  0
    7.5464  -14.2440   20.0453 C   0  0  2  0  0  0  0  0  0  0  0  0
    6.1729  -14.2816   19.5787 N   0  0  0  0  0  0  0  0  0  0  0  0
    7.7404  -15.1996   21.1653 C   0  0  0  0  0  0  0  0  0  0  0  0
    6.7788  -15.4348   21.9353 O   0  0  0  0  0  0  0  0  0  0  0  0
    8.9984  -15.8499   21.3763 N   0  0  0  0  0  0  0  0  0  0  0  0
    9.2399  -16.8967   22.3004 C   0  0  1  0  0  0  0  0  0  0  0  0
   10.1350  -17.9950   21.8645 C   0  0  0  0  0  0  0  0  0  0  0  0
   10.2383  -19.1751   22.7617 C   0  0  0  0  0  0  0  0  0  0  0  0
   11.2188  -20.1417   22.1863 C   0  0  0  0  0  0  0  0  0  0  0  0
   12.2756  -20.3752   22.7950 O   0  0  0  0  0  0  0  0  0  0  0  0
    9.5117  -16.4568   23.7027 C   0  0  0  0  0  0  0  0  0  0  0  0
   10.5016  -15.7040   23.8687 O   0  0  0  0  0  0  0  0  0  0  0  0
   10.9982  -20.7984   20.9868 O   0  0  0  0  0  0  0  0  0  0  0  0
    6.2766  -10.8015   25.5793 O   0  0  0  0  0  0  0  0  0  0  0  0
    6.6598  -12.0981   25.9281 C   0  0  0  0  0  0  0  0  0  0  0  0
    7.9766  -12.3820   26.2211 C   0  0  0  0  0  0  0  0  0  0  0  0
    8.3514  -13.6624   26.5651 C   0  0  0  0  0  0  0  0  0  0  0  0
    7.4402  -14.7234   26.6355 C   0  0  0  0  0  0  0  0  0  0  0  0
    7.8982  -16.0842   26.9925 C   0  0  0  0  0  0  0  0  0  0  0  0
    9.1158  -16.4176   26.1951 C   0  0  2  0  0  0  0  0  0  0  0  0
    8.7461  -16.8286   24.8259 N   0  0  0  0  0  0  0  0  0  0  0  0
   10.0005  -17.4377   26.7908 C   0  0  0  0  0  0  0  0  0  0  0  0
   10.1654  -18.5695   26.2863 O   0  0  0  0  0  0  0  0  0  0  0  0
    6.1265  -14.4263   26.3397 C   0  0  0  0  0  0  0  0  0  0  0  0
    5.7544  -13.1349   25.9940 C   0  0  0  0  0  0  0  0  0  0  0  0
   10.6845  -17.1433   27.9593 O   0  0  0  0  0  0  0  0  0  0  0  0
  2  1  1  0
  2  3  1  0
  3  5  1  0
  3  4  1  1
  5  6  2  0
  7  8  1  0
  7  5  1  0
  8  9  1  6
 10  9  1  0
 11 10  1  0
 11 15  1  0
 12 11  2  0
 13 14  2  0
 13  8  1  0
 16 17  1  0
 17 18  2  0
 17 27  1  0
 18 19  1  0
 19 20  2  0
 20 21  1  0
 22 21  1  1
 22 24  1  0
 22 23  1  0
 23 13  1  0
 24 28  1  0
 25 24  2  0
 26 20  1  0
 27 26  2  0
M  END
$$$$
