SEY.pdb
     RDKit          3D

 28 28  0  0  1  0  0  0  0  0999 V2000
    5.1177  -16.9926   21.7444 O   0  0  0  0  0  0  0  0  0  0  0  0
    5.7953  -15.9195   21.1674 C   0  0  0  0  0  0  0  0  0  0  0  0
    7.0280  -16.4738   20.4890 C   0  0  2  0  0  0  0  0  0  0  0  0
    6.5934  -17.5268   19.5903 N   0  0  0  0  0  0  0  0  0  0  0  0
    8.0084  -17.0018   21.4716 C   0  0  0  0  0  0  0  0  0  0  0  0
    7.7803  -18.1049   22.0229 O   0  0  0  0  0  0  0  0  0  0  0  0
    9.1991  -16.2756   21.7953 N   0  0  0  0  0  0  0  0  0  0  0  0
   10.1622  -16.6608   22.7607 C   0  0  1  0  0  0  0  0  0  0  0  0
   11.5896  -16.4634   22.4129 C   0  0  0  0  0  0  0  0  0  0  0  0
   12.0785  -17.1254   21.1755 C   0  0  0  0  0  0  0  0  0  0  0  0
   13.5065  -16.7533   20.9540 C   0  0  0  0  0  0  0  0  0  0  0  0
   14.3805  -17.2070   21.7105 O   0  0  0  0  0  0  0  0  0  0  0  0
    9.8521  -16.2549   24.1653 C   0  0  0  0  0  0  0  0  0  0  0  0
    9.7316  -15.0240   24.3760 O   0  0  0  0  0  0  0  0  0  0  0  0
   13.9045  -15.9125   19.9277 O   0  0  0  0  0  0  0  0  0  0  0  0
    7.0377  -10.8607   25.9624 O   0  0  0  0  0  0  0  0  0  0  0  0
    7.2639  -12.2225   26.1711 C   0  0  0  0  0  0  0  0  0  0  0  0
    8.0154  -12.6489   27.2454 C   0  0  0  0  0  0  0  0  0  0  0  0
    8.2366  -13.9935   27.4486 C   0  0  0  0  0  0  0  0  0  0  0  0
    7.7243  -14.9807   26.5978 C   0  0  0  0  0  0  0  0  0  0  0  0
    8.0068  -16.4108   26.8511 C   0  0  0  0  0  0  0  0  0  0  0  0
    9.4591  -16.6724   26.6233 C   0  0  2  0  0  0  0  0  0  0  0  0
    9.6935  -17.1468   25.2448 N   0  0  0  0  0  0  0  0  0  0  0  0
   10.0892  -17.6062   27.5766 C   0  0  0  0  0  0  0  0  0  0  0  0
   10.1493  -17.3824   28.8050 O   0  0  0  0  0  0  0  0  0  0  0  0
    6.9748  -14.5412   25.5271 C   0  0  0  0  0  0  0  0  0  0  0  0
    6.7549  -13.1857   25.3271 C   0  0  0  0  0  0  0  0  0  0  0  0
   10.6423  -18.7860   27.1052 O   0  0  0  0  0  0  0  0  0  0  0  0
  2  1  1  0
  2  3  1  0
  3  5  1  0
  3  4  1  6
  5  6  2  0
  7  8  1  0
  7  5  1  0
  8  9  1  6
 10  9  1  0
 11 10  1  0
 11 15  1  0
 12 11  2  0
 13 14  2  0
 13  8  1  0
 16 17  1  0
 17 18  2  0
 17 27  1  0
 18 19  1  0
 19 20  2  0
 20 21  1  0
 22 21  1  1
 22 24  1  0
 22 23  1  0
 23 13  1  0
 24 28  1  0
 25 24  2  0
 26 20  1  0
 27 26  2  0
M  END
$$$$
