SEY.pdb
     RDKit          3D

 28 28  0  0  1  0  0  0  0  0999 V2000
    7.4726  -14.7749   21.6921 O   0  0  0  0  0  0  0  0  0  0  0  0
    6.5365  -15.8045   21.7762 C   0  0  0  0  0  0  0  0  0  0  0  0
    6.9910  -16.9074   20.8466 C   0  0  2  0  0  0  0  0  0  0  0  0
    5.9734  -17.9415   20.8684 N   0  0  0  0  0  0  0  0  0  0  0  0
    8.3062  -17.4646   21.2530 C   0  0  0  0  0  0  0  0  0  0  0  0
    8.3348  -18.4288   22.0544 O   0  0  0  0  0  0  0  0  0  0  0  0
    9.5305  -16.9212   20.7473 N   0  0  0  0  0  0  0  0  0  0  0  0
   10.8319  -17.3689   21.0846 C   0  0  1  0  0  0  0  0  0  0  0  0
   11.7627  -17.6560   19.9672 C   0  0  0  0  0  0  0  0  0  0  0  0
   13.0358  -18.3414   20.3109 C   0  0  0  0  0  0  0  0  0  0  0  0
   13.9427  -18.3099   19.1264 C   0  0  0  0  0  0  0  0  0  0  0  0
   13.8726  -19.2148   18.2790 O   0  0  0  0  0  0  0  0  0  0  0  0
   11.4894  -16.6273   22.2034 C   0  0  0  0  0  0  0  0  0  0  0  0
   12.6821  -16.9302   22.4478 O   0  0  0  0  0  0  0  0  0  0  0  0
   14.8716  -17.3016   18.9286 O   0  0  0  0  0  0  0  0  0  0  0  0
   10.4373  -14.9937   30.7675 O   0  0  0  0  0  0  0  0  0  0  0  0
   10.2646  -15.1057   29.3865 C   0  0  0  0  0  0  0  0  0  0  0  0
   10.1092  -13.9782   28.6086 C   0  0  0  0  0  0  0  0  0  0  0  0
    9.9391  -14.0922   27.2462 C   0  0  0  0  0  0  0  0  0  0  0  0
    9.9148  -15.3282   26.5884 C   0  0  0  0  0  0  0  0  0  0  0  0
    9.7108  -15.3959   25.1245 C   0  0  0  0  0  0  0  0  0  0  0  0
   11.0318  -15.5773   24.4525 C   0  0  2  0  0  0  0  0  0  0  0  0
   10.8674  -15.6341   22.9861 N   0  0  0  0  0  0  0  0  0  0  0  0
   11.8141  -16.7446   24.9034 C   0  0  0  0  0  0  0  0  0  0  0  0
   11.4592  -17.9233   24.6855 O   0  0  0  0  0  0  0  0  0  0  0  0
   10.0709  -16.4480   27.3777 C   0  0  0  0  0  0  0  0  0  0  0  0
   10.2421  -16.3275   28.7495 C   0  0  0  0  0  0  0  0  0  0  0  0
   12.9951  -16.5417   25.5992 O   0  0  0  0  0  0  0  0  0  0  0  0
  2  1  1  0
  2  3  1  0
  3  5  1  0
  3  4  1  1
  5  6  2  0
  7  8  1  0
  7  5  1  0
  8  9  1  6
 10  9  1  0
 11 10  1  0
 11 15  1  0
 12 11  2  0
 13 14  2  0
 13  8  1  0
 16 17  1  0
 17 18  2  0
 17 27  1  0
 18 19  1  0
 19 20  2  0
 20 21  1  0
 22 21  1  1
 22 24  1  0
 22 23  1  0
 23 13  1  0
 24 28  1  0
 25 24  2  0
 26 20  1  0
 27 26  2  0
M  END
$$$$
