SEY.pdb
     RDKit          3D

 28 28  0  0  1  0  0  0  0  0999 V2000
    6.5841  -14.5632   21.4971 O   0  0  0  0  0  0  0  0  0  0  0  0
    6.9937  -14.4813   20.1670 C   0  0  0  0  0  0  0  0  0  0  0  0
    7.3275  -15.8832   19.7085 C   0  0  2  0  0  0  0  0  0  0  0  0
    6.1053  -16.6631   19.7689 N   0  0  0  0  0  0  0  0  0  0  0  0
    8.3811  -16.5033   20.5514 C   0  0  0  0  0  0  0  0  0  0  0  0
    8.0393  -17.1635   21.5615 O   0  0  0  0  0  0  0  0  0  0  0  0
    9.7689  -16.3593   20.2300 N   0  0  0  0  0  0  0  0  0  0  0  0
   10.8476  -16.8913   20.9791 C   0  0  1  0  0  0  0  0  0  0  0  0
   12.1453  -17.0532   20.2811 C   0  0  0  0  0  0  0  0  0  0  0  0
   13.2057  -17.8078   20.9983 C   0  0  0  0  0  0  0  0  0  0  0  0
   14.4293  -17.8604   20.1459 C   0  0  0  0  0  0  0  0  0  0  0  0
   14.3928  -18.4640   19.0613 O   0  0  0  0  0  0  0  0  0  0  0  0
   11.0025  -16.3316   22.3563 C   0  0  0  0  0  0  0  0  0  0  0  0
   11.1358  -15.0870   22.4403 O   0  0  0  0  0  0  0  0  0  0  0  0
   15.6197  -17.2572   20.5169 O   0  0  0  0  0  0  0  0  0  0  0  0
   10.6371  -14.2255   30.7996 O   0  0  0  0  0  0  0  0  0  0  0  0
   10.4535  -14.7473   29.5177 C   0  0  0  0  0  0  0  0  0  0  0  0
   10.2213  -13.9081   28.4489 C   0  0  0  0  0  0  0  0  0  0  0  0
   10.0407  -14.4262   27.1851 C   0  0  0  0  0  0  0  0  0  0  0  0
   10.0814  -15.8004   26.9188 C   0  0  0  0  0  0  0  0  0  0  0  0
    9.8629  -16.3060   25.5455 C   0  0  0  0  0  0  0  0  0  0  0  0
   11.1832  -16.4776   24.8696 C   0  0  2  0  0  0  0  0  0  0  0  0
   11.0117  -17.0965   23.5399 N   0  0  0  0  0  0  0  0  0  0  0  0
   12.1909  -17.2355   25.6364 C   0  0  0  0  0  0  0  0  0  0  0  0
   12.9988  -16.6894   26.4186 O   0  0  0  0  0  0  0  0  0  0  0  0
   10.3140  -16.6289   27.9962 C   0  0  0  0  0  0  0  0  0  0  0  0
   10.4954  -16.1017   29.2670 C   0  0  0  0  0  0  0  0  0  0  0  0
   12.2570  -18.6123   25.4940 O   0  0  0  0  0  0  0  0  0  0  0  0
  2  1  1  0
  2  3  1  0
  3  5  1  0
  3  4  1  1
  5  6  2  0
  7  8  1  0
  7  5  1  0
  8  9  1  6
 10  9  1  0
 11 10  1  0
 11 15  1  0
 12 11  2  0
 13 14  2  0
 13  8  1  0
 16 17  1  0
 17 18  2  0
 17 27  1  0
 18 19  1  0
 19 20  2  0
 20 21  1  0
 22 21  1  1
 22 24  1  0
 22 23  1  0
 23 13  1  0
 24 28  1  0
 25 24  2  0
 26 20  1  0
 27 26  2  0
M  END
$$$$
