SEY.pdb
     RDKit          3D

 28 28  0  0  1  0  0  0  0  0999 V2000
    7.3195  -13.0823   22.2247 O   0  0  0  0  0  0  0  0  0  0  0  0
    7.7136  -13.3440   20.9133 C   0  0  0  0  0  0  0  0  0  0  0  0
    7.4325  -14.8043   20.6384 C   0  0  2  0  0  0  0  0  0  0  0  0
    5.9919  -14.9650   20.5728 N   0  0  0  0  0  0  0  0  0  0  0  0
    8.0056  -15.6838   21.6887 C   0  0  0  0  0  0  0  0  0  0  0  0
    7.2414  -16.1692   22.5567 O   0  0  0  0  0  0  0  0  0  0  0  0
    9.4054  -15.9826   21.7239 N   0  0  0  0  0  0  0  0  0  0  0  0
   10.0375  -16.8618   22.6379 C   0  0  1  0  0  0  0  0  0  0  0  0
   11.3443  -17.4348   22.2366 C   0  0  0  0  0  0  0  0  0  0  0  0
   11.9159  -18.4878   23.1157 C   0  0  0  0  0  0  0  0  0  0  0  0
   12.8144  -19.3636   22.3082 C   0  0  0  0  0  0  0  0  0  0  0  0
   13.9063  -19.7198   22.7804 O   0  0  0  0  0  0  0  0  0  0  0  0
   10.0197  -16.4162   24.0645 C   0  0  0  0  0  0  0  0  0  0  0  0
   10.7290  -15.4205   24.3462 O   0  0  0  0  0  0  0  0  0  0  0  0
   12.4789  -19.8022   21.0378 O   0  0  0  0  0  0  0  0  0  0  0  0
    6.4459  -11.0575   25.4070 O   0  0  0  0  0  0  0  0  0  0  0  0
    6.8102  -12.3466   25.8005 C   0  0  0  0  0  0  0  0  0  0  0  0
    7.8532  -12.5392   26.6812 C   0  0  0  0  0  0  0  0  0  0  0  0
    8.2101  -13.8126   27.0677 C   0  0  0  0  0  0  0  0  0  0  0  0
    7.5513  -14.9566   26.6006 C   0  0  0  0  0  0  0  0  0  0  0  0
    7.9864  -16.3030   27.0333 C   0  0  0  0  0  0  0  0  0  0  0  0
    9.3516  -16.5751   26.4932 C   0  0  2  0  0  0  0  0  0  0  0  0
    9.2762  -17.0320   25.0912 N   0  0  0  0  0  0  0  0  0  0  0  0
   10.1615  -17.5284   27.2763 C   0  0  0  0  0  0  0  0  0  0  0  0
   10.6378  -18.5752   26.7863 O   0  0  0  0  0  0  0  0  0  0  0  0
    6.5104  -14.7504   25.7201 C   0  0  0  0  0  0  0  0  0  0  0  0
    6.1549  -13.4657   25.3343 C   0  0  0  0  0  0  0  0  0  0  0  0
   10.4137  -17.2659   28.6133 O   0  0  0  0  0  0  0  0  0  0  0  0
  2  1  1  0
  2  3  1  0
  3  5  1  0
  3  4  1  1
  5  6  2  0
  7  8  1  0
  7  5  1  0
  8  9  1  6
 10  9  1  0
 11 10  1  0
 11 15  1  0
 12 11  2  0
 13 14  2  0
 13  8  1  0
 16 17  1  0
 17 18  2  0
 17 27  1  0
 18 19  1  0
 19 20  2  0
 20 21  1  0
 22 21  1  1
 22 24  1  0
 22 23  1  0
 23 13  1  0
 24 28  1  0
 25 24  2  0
 26 20  1  0
 27 26  2  0
M  END
$$$$
