SEY.pdb
     RDKit          3D

 28 28  0  0  1  0  0  0  0  0999 V2000
    9.5413  -17.1114   19.1426 O   0  0  0  0  0  0  0  0  0  0  0  0
    8.4869  -17.9309   18.7423 C   0  0  0  0  0  0  0  0  0  0  0  0
    7.2143  -17.3400   19.3066 C   0  0  2  0  0  0  0  0  0  0  0  0
    7.0085  -16.0558   18.6633 N   0  0  0  0  0  0  0  0  0  0  0  0
    7.2882  -17.1763   20.7808 C   0  0  0  0  0  0  0  0  0  0  0  0
    7.2607  -16.0196   21.2646 O   0  0  0  0  0  0  0  0  0  0  0  0
    7.3895  -18.3101   21.6491 N   0  0  0  0  0  0  0  0  0  0  0  0
    7.3602  -18.2685   23.0652 C   0  0  1  0  0  0  0  0  0  0  0  0
    6.9970  -19.5185   23.7745 C   0  0  0  0  0  0  0  0  0  0  0  0
    5.7160  -20.1644   23.3868 C   0  0  0  0  0  0  0  0  0  0  0  0
    5.5856  -21.4633   24.1095 C   0  0  0  0  0  0  0  0  0  0  0  0
    5.7405  -22.5268   23.4875 O   0  0  0  0  0  0  0  0  0  0  0  0
    8.5100  -17.5590   23.7044 C   0  0  0  0  0  0  0  0  0  0  0  0
    9.6411  -17.7665   23.2031 O   0  0  0  0  0  0  0  0  0  0  0  0
    5.2953  -21.5351   25.4620 O   0  0  0  0  0  0  0  0  0  0  0  0
    5.2634  -11.8385   27.3326 O   0  0  0  0  0  0  0  0  0  0  0  0
    6.3548  -12.5173   26.7871 C   0  0  0  0  0  0  0  0  0  0  0  0
    6.3489  -12.8984   25.4623 C   0  0  0  0  0  0  0  0  0  0  0  0
    7.4276  -13.5679   24.9271 C   0  0  0  0  0  0  0  0  0  0  0  0
    8.5641  -13.8924   25.6781 C   0  0  0  0  0  0  0  0  0  0  0  0
    9.6882  -14.6289   25.0591 C   0  0  0  0  0  0  0  0  0  0  0  0
    9.5943  -16.0718   25.4315 C   0  0  2  0  0  0  0  0  0  0  0  0
    8.4070  -16.6940   24.8122 N   0  0  0  0  0  0  0  0  0  0  0  0
    9.5937  -16.3507   26.8807 C   0  0  0  0  0  0  0  0  0  0  0  0
    8.6135  -16.8503   27.4742 O   0  0  0  0  0  0  0  0  0  0  0  0
    8.5574  -13.5060   27.0017 C   0  0  0  0  0  0  0  0  0  0  0  0
    7.4684  -12.8317   27.5357 C   0  0  0  0  0  0  0  0  0  0  0  0
   10.7207  -16.0515   27.6293 O   0  0  0  0  0  0  0  0  0  0  0  0
  2  1  1  0
  2  3  1  0
  3  5  1  0
  3  4  1  6
  5  6  2  0
  7  8  1  0
  7  5  1  0
  8  9  1  1
 10  9  1  0
 11 10  1  0
 11 15  1  0
 12 11  2  0
 13 14  2  0
 13  8  1  0
 16 17  1  0
 17 18  2  0
 17 27  1  0
 18 19  1  0
 19 20  2  0
 20 21  1  0
 22 21  1  1
 22 24  1  0
 22 23  1  0
 23 13  1  0
 24 28  1  0
 25 24  2  0
 26 20  1  0
 27 26  2  0
M  END
$$$$
