SEY.pdb
     RDKit          3D

 28 28  0  0  1  0  0  0  0  0999 V2000
    8.3732  -13.7024   19.8462 O   0  0  0  0  0  0  0  0  0  0  0  0
    8.5563  -14.8061   19.0143 C   0  0  0  0  0  0  0  0  0  0  0  0
    7.7950  -15.9629   19.6219 C   0  0  2  0  0  0  0  0  0  0  0  0
    6.4112  -15.5487   19.7590 N   0  0  0  0  0  0  0  0  0  0  0  0
    8.3518  -16.3579   20.9408 C   0  0  0  0  0  0  0  0  0  0  0  0
    7.6815  -16.1277   21.9755 O   0  0  0  0  0  0  0  0  0  0  0  0
    9.6311  -16.9920   21.0463 N   0  0  0  0  0  0  0  0  0  0  0  0
   10.2443  -17.4143   22.2520 C   0  0  1  0  0  0  0  0  0  0  0  0
   11.3376  -18.4098   22.1460 C   0  0  0  0  0  0  0  0  0  0  0  0
   11.6347  -18.9413   20.7903 C   0  0  0  0  0  0  0  0  0  0  0  0
   12.8054  -19.8627   20.8727 C   0  0  0  0  0  0  0  0  0  0  0  0
   13.9286  -19.4018   21.1332 O   0  0  0  0  0  0  0  0  0  0  0  0
   10.5546  -16.3221   23.2240 C   0  0  0  0  0  0  0  0  0  0  0  0
   10.9169  -15.2258   22.7334 O   0  0  0  0  0  0  0  0  0  0  0  0
   12.6920  -21.2281   20.6686 O   0  0  0  0  0  0  0  0  0  0  0  0
    6.1466  -10.8700   27.8860 O   0  0  0  0  0  0  0  0  0  0  0  0
    6.6914  -11.9152   27.1376 C   0  0  0  0  0  0  0  0  0  0  0  0
    7.8809  -12.4997   27.5171 C   0  0  0  0  0  0  0  0  0  0  0  0
    8.4156  -13.5311   26.7765 C   0  0  0  0  0  0  0  0  0  0  0  0
    7.7982  -14.0334   25.6244 C   0  0  0  0  0  0  0  0  0  0  0  0
    8.4243  -15.1310   24.8547 C   0  0  0  0  0  0  0  0  0  0  0  0
    9.7520  -15.4566   25.4550 C   0  0  2  0  0  0  0  0  0  0  0  0
   10.4713  -16.4440   24.6255 N   0  0  0  0  0  0  0  0  0  0  0  0
    9.7142  -15.9264   26.8535 C   0  0  0  0  0  0  0  0  0  0  0  0
    9.5813  -15.1514   27.8253 O   0  0  0  0  0  0  0  0  0  0  0  0
    6.6094  -13.4401   25.2554 C   0  0  0  0  0  0  0  0  0  0  0  0
    6.0751  -12.4017   26.0051 C   0  0  0  0  0  0  0  0  0  0  0  0
    9.8296  -17.2819   27.1169 O   0  0  0  0  0  0  0  0  0  0  0  0
  2  1  1  0
  2  3  1  0
  3  5  1  0
  3  4  1  1
  5  6  2  0
  7  8  1  0
  7  5  1  0
  8  9  1  6
 10  9  1  0
 11 10  1  0
 11 15  1  0
 12 11  2  0
 13 14  2  0
 13  8  1  0
 16 17  1  0
 17 18  2  0
 17 27  1  0
 18 19  1  0
 19 20  2  0
 20 21  1  0
 22 21  1  6
 22 24  1  0
 22 23  1  0
 23 13  1  0
 24 28  1  0
 25 24  2  0
 26 20  1  0
 27 26  2  0
M  END
$$$$
