SVQ.pdb
     RDKit          3D

 23 22  0  0  1  0  0  0  0  0999 V2000
   17.6452  -11.1380  -12.2220 O   0  0  0  0  0  0  0  0  0  0  0  0
   16.8004  -10.0652  -12.0573 C   0  0  0  0  0  0  0  0  0  0  0  0
   15.8602  -10.2419  -10.8706 C   0  0  2  0  0  0  0  0  0  0  0  0
   14.9544  -11.3343  -11.1311 N   0  0  0  0  0  0  0  0  0  0  0  0
   15.1263   -8.9578  -10.7240 C   0  0  0  0  0  0  0  0  0  0  0  0
   14.2456   -8.5994  -11.5487 O   0  0  0  0  0  0  0  0  0  0  0  0
   13.9341   -5.3980   -7.6160 C   0  0  0  0  0  0  0  0  0  0  0  0
   14.5124   -6.7893   -7.8960 C   0  0  2  0  0  0  0  0  0  0  0  0
   15.7407   -7.0030   -7.0640 C   0  0  0  0  0  0  0  0  0  0  0  0
   14.7801   -6.8502   -9.3744 C   0  0  2  0  0  0  0  0  0  0  0  0
   15.4275   -8.1274   -9.6358 N   0  0  0  0  0  0  0  0  0  0  0  0
   15.6589   -5.7571   -9.8422 C   0  0  0  0  0  0  0  0  0  0  0  0
   16.8953   -5.8722   -9.6931 O   0  0  0  0  0  0  0  0  0  0  0  0
   15.7916   -3.4907  -15.3722 N   0  0  0  0  0  0  0  0  0  0  0  0
   16.5950   -2.5800  -14.6762 C   0  0  0  0  0  0  0  0  0  0  0  0
   17.2830   -1.7473  -15.3077 O   0  0  0  0  0  0  0  0  0  0  0  0
   16.6819   -2.5427  -13.1789 C   0  0  0  0  0  0  0  0  0  0  0  0
   15.8357   -3.6089  -12.5562 C   0  0  0  0  0  0  0  0  0  0  0  0
   15.9434   -3.5781  -11.0859 C   0  0  2  0  0  0  0  0  0  0  0  0
   15.1288   -4.6086  -10.4431 N   0  0  0  0  0  0  0  0  0  0  0  0
   15.5182   -2.2858  -10.5452 C   0  0  0  0  0  0  0  0  0  0  0  0
   14.2842   -2.1800  -10.1814 O   0  0  0  0  0  0  0  0  0  0  0  0
   16.2952   -1.1528  -10.3728 O   0  0  0  0  0  0  0  0  0  0  0  0
  1  2  1  0
  3  2  1  0
  3  5  1  0
  3  4  1  6
  5 11  1  0
  6  5  2  0
  8  7  1  6
  8  9  1  0
 10  8  1  0
 10 12  1  0
 10 11  1  1
 12 20  1  0
 13 12  2  0
 15 14  1  0
 15 16  2  0
 17 15  1  0
 18 17  1  0
 19 21  1  0
 19 18  1  6
 20 19  1  0
 21 23  1  0
 22 21  2  0
M  END
$$$$
