SVQ.pdb
     RDKit          3D

 23 22  0  0  1  0  0  0  0  0999 V2000
   12.8833  -13.4767  -15.6944 O   0  0  0  0  0  0  0  0  0  0  0  0
   13.8611  -13.1480  -14.7848 C   0  0  0  0  0  0  0  0  0  0  0  0
   15.2592  -13.1981  -15.3900 C   0  0  2  0  0  0  0  0  0  0  0  0
   15.6731  -14.5725  -15.5359 N   0  0  0  0  0  0  0  0  0  0  0  0
   16.1478  -12.4655  -14.4504 C   0  0  0  0  0  0  0  0  0  0  0  0
   16.4975  -12.9596  -13.3468 O   0  0  0  0  0  0  0  0  0  0  0  0
   18.2230   -9.4074  -16.0989 C   0  0  0  0  0  0  0  0  0  0  0  0
   18.7164  -10.0948  -14.8212 C   0  0  2  0  0  0  0  0  0  0  0  0
   19.4884  -11.3292  -15.1771 C   0  0  0  0  0  0  0  0  0  0  0  0
   17.4953  -10.3783  -13.9908 C   0  0  2  0  0  0  0  0  0  0  0  0
   16.6058  -11.1901  -14.8084 N   0  0  0  0  0  0  0  0  0  0  0  0
   16.7860   -9.1486  -13.5779 C   0  0  0  0  0  0  0  0  0  0  0  0
   15.9737   -8.6258  -14.3724 O   0  0  0  0  0  0  0  0  0  0  0  0
   15.5322   -7.3175   -7.6102 N   0  0  0  0  0  0  0  0  0  0  0  0
   15.1881   -6.2206   -8.4087 C   0  0  0  0  0  0  0  0  0  0  0  0
   14.6682   -5.2092   -7.8867 O   0  0  0  0  0  0  0  0  0  0  0  0
   15.4118   -6.1852   -9.8917 C   0  0  0  0  0  0  0  0  0  0  0  0
   16.0414   -7.4528  -10.3792 C   0  0  0  0  0  0  0  0  0  0  0  0
   16.2952   -7.3931  -11.8306 C   0  0  2  0  0  0  0  0  0  0  0  0
   17.0107   -8.5697  -12.3227 N   0  0  0  0  0  0  0  0  0  0  0  0
   17.0918   -6.2176  -12.1866 C   0  0  0  0  0  0  0  0  0  0  0  0
   16.4981   -5.0722  -12.1441 O   0  0  0  0  0  0  0  0  0  0  0  0
   18.4239   -6.1909  -12.5636 O   0  0  0  0  0  0  0  0  0  0  0  0
  1  2  1  0
  3  2  1  0
  3  5  1  0
  3  4  1  1
  5 11  1  0
  6  5  2  0
  8  7  1  6
  8  9  1  0
 10  8  1  0
 10 12  1  0
 10 11  1  6
 12 20  1  0
 13 12  2  0
 15 14  1  0
 15 16  2  0
 17 15  1  0
 18 17  1  0
 19 21  1  0
 19 18  1  1
 20 19  1  0
 21 23  1  0
 22 21  2  0
M  END
$$$$
