SVQ.pdb
     RDKit          3D

 23 22  0  0  1  0  0  0  0  0999 V2000
   15.7534  -13.0349  -13.2328 O   0  0  0  0  0  0  0  0  0  0  0  0
   16.0240  -12.9500  -14.5785 C   0  0  0  0  0  0  0  0  0  0  0  0
   14.8651  -12.3532  -15.3685 C   0  0  2  0  0  0  0  0  0  0  0  0
   14.2266  -13.3883  -16.1449 N   0  0  0  0  0  0  0  0  0  0  0  0
   15.4523  -11.3073  -16.2462 C   0  0  0  0  0  0  0  0  0  0  0  0
   16.2004  -11.5984  -17.2156 O   0  0  0  0  0  0  0  0  0  0  0  0
   14.1940   -6.9260  -16.9280 C   0  0  0  0  0  0  0  0  0  0  0  0
   14.5306   -8.2866  -17.5477 C   0  0  2  0  0  0  0  0  0  0  0  0
   13.3174   -9.1665  -17.5253 C   0  0  0  0  0  0  0  0  0  0  0  0
   15.6810   -8.8432  -16.7552 C   0  0  2  0  0  0  0  0  0  0  0  0
   15.1614   -9.9619  -15.9823 N   0  0  0  0  0  0  0  0  0  0  0  0
   16.2735   -7.8511  -15.8329 C   0  0  0  0  0  0  0  0  0  0  0  0
   15.6862   -7.6023  -14.7571 O   0  0  0  0  0  0  0  0  0  0  0  0
   22.4013   -7.1016  -14.8716 N   0  0  0  0  0  0  0  0  0  0  0  0
   21.8101   -6.0733  -14.1285 C   0  0  0  0  0  0  0  0  0  0  0  0
   22.5147   -5.3656  -13.3745 O   0  0  0  0  0  0  0  0  0  0  0  0
   20.3437   -5.7618  -14.1842 C   0  0  0  0  0  0  0  0  0  0  0  0
   19.6214   -6.6970  -15.1032 C   0  0  0  0  0  0  0  0  0  0  0  0
   18.1957   -6.3363  -15.2112 C   0  0  2  0  0  0  0  0  0  0  0  0
   17.4703   -7.1950  -16.1467 N   0  0  0  0  0  0  0  0  0  0  0  0
   18.0260   -4.9551  -15.6655 C   0  0  0  0  0  0  0  0  0  0  0  0
   18.3692   -4.0211  -14.8433 O   0  0  0  0  0  0  0  0  0  0  0  0
   17.5388   -4.5294  -16.8897 O   0  0  0  0  0  0  0  0  0  0  0  0
  1  2  1  0
  3  2  1  0
  3  5  1  0
  3  4  1  6
  5 11  1  0
  6  5  2  0
  8  7  1  1
  8  9  1  0
 10  8  1  0
 10 12  1  0
 10 11  1  1
 12 20  1  0
 13 12  2  0
 15 14  1  0
 15 16  2  0
 17 15  1  0
 18 17  1  0
 19 21  1  0
 19 18  1  6
 20 19  1  0
 21 23  1  0
 22 21  2  0
M  END
$$$$
