SVQ.pdb
     RDKit          3D

 23 22  0  0  1  0  0  0  0  0999 V2000
   22.2323  -21.6251  -10.7280 O   0  0  0  0  0  0  0  0  0  0  0  0
   23.0201  -20.8199  -11.5170 C   0  0  0  0  0  0  0  0  0  0  0  0
   24.4949  -20.9000  -11.1402 C   0  0  2  0  0  0  0  0  0  0  0  0
   24.6651  -20.4912   -9.7671 N   0  0  0  0  0  0  0  0  0  0  0  0
   25.2132  -19.9862  -12.0666 C   0  0  0  0  0  0  0  0  0  0  0  0
   25.2682  -18.7452  -11.8637 O   0  0  0  0  0  0  0  0  0  0  0  0
   28.0092  -21.6853  -14.4050 C   0  0  0  0  0  0  0  0  0  0  0  0
   28.0011  -20.1770  -14.1342 C   0  0  2  0  0  0  0  0  0  0  0  0
   28.6536  -19.8967  -12.8143 C   0  0  0  0  0  0  0  0  0  0  0  0
   26.5628  -19.7418  -14.1884 C   0  0  2  0  0  0  0  0  0  0  0  0
   25.8446  -20.5268  -13.1951 N   0  0  0  0  0  0  0  0  0  0  0  0
   25.9484  -19.9607  -15.5153 C   0  0  0  0  0  0  0  0  0  0  0  0
   25.9459  -21.1157  -15.9950 O   0  0  0  0  0  0  0  0  0  0  0  0
   20.8195  -20.5526  -14.6371 N   0  0  0  0  0  0  0  0  0  0  0  0
   20.6194  -20.1110  -15.9501 C   0  0  0  0  0  0  0  0  0  0  0  0
   19.4663  -20.1040  -16.4358 O   0  0  0  0  0  0  0  0  0  0  0  0
   21.7350  -19.6334  -16.8322 C   0  0  0  0  0  0  0  0  0  0  0  0
   23.0016  -19.4452  -16.0569 C   0  0  0  0  0  0  0  0  0  0  0  0
   24.0972  -18.9946  -16.9349 C   0  0  2  0  0  0  0  0  0  0  0  0
   25.3762  -18.9023  -16.2319 N   0  0  0  0  0  0  0  0  0  0  0  0
   23.8173  -17.6760  -17.5061 C   0  0  0  0  0  0  0  0  0  0  0  0
   24.5455  -16.6926  -17.0951 O   0  0  0  0  0  0  0  0  0  0  0  0
   22.8546  -17.3584  -18.4492 O   0  0  0  0  0  0  0  0  0  0  0  0
  1  2  1  0
  3  2  1  0
  3  5  1  0
  3  4  1  1
  5 11  1  0
  6  5  2  0
  8  7  1  1
  8  9  1  0
 10  8  1  0
 10 12  1  0
 10 11  1  1
 12 20  1  0
 13 12  2  0
 15 14  1  0
 15 16  2  0
 17 15  1  0
 18 17  1  0
 19 21  1  0
 19 18  1  1
 20 19  1  0
 21 23  1  0
 22 21  2  0
M  END
$$$$
