SVQ.pdb
     RDKit          3D

 23 22  0  0  1  0  0  0  0  0999 V2000
   23.1082  -24.4457   -6.3804 O   0  0  0  0  0  0  0  0  0  0  0  0
   22.6732  -23.3527   -7.0928 C   0  0  0  0  0  0  0  0  0  0  0  0
   22.8798  -22.0455   -6.3365 C   0  0  2  0  0  0  0  0  0  0  0  0
   21.6592  -21.6820   -5.6587 N   0  0  0  0  0  0  0  0  0  0  0  0
   23.2536  -21.0286   -7.3541 C   0  0  0  0  0  0  0  0  0  0  0  0
   22.4061  -20.2362   -7.8421 O   0  0  0  0  0  0  0  0  0  0  0  0
   27.2860  -20.9595   -8.3784 C   0  0  0  0  0  0  0  0  0  0  0  0
   26.4755  -19.6596   -8.4206 C   0  0  2  0  0  0  0  0  0  0  0  0
   26.5567  -18.9697   -7.0924 C   0  0  0  0  0  0  0  0  0  0  0  0
   25.0731  -20.0437   -8.8040 C   0  0  2  0  0  0  0  0  0  0  0  0
   24.5875  -20.9547   -7.7778 N   0  0  0  0  0  0  0  0  0  0  0  0
   25.0031  -20.7146  -10.1197 C   0  0  0  0  0  0  0  0  0  0  0  0
   25.0810  -21.9621  -10.1649 O   0  0  0  0  0  0  0  0  0  0  0  0
   20.1769  -19.6130  -13.3008 N   0  0  0  0  0  0  0  0  0  0  0  0
   20.8773  -20.4741  -14.1535 C   0  0  0  0  0  0  0  0  0  0  0  0
   20.2971  -20.9823  -15.1388 O   0  0  0  0  0  0  0  0  0  0  0  0
   22.3198  -20.8327  -13.9504 C   0  0  0  0  0  0  0  0  0  0  0  0
   22.8636  -20.2196  -12.6978 C   0  0  0  0  0  0  0  0  0  0  0  0
   24.2964  -20.5285  -12.5367 C   0  0  2  0  0  0  0  0  0  0  0  0
   24.8524  -19.9780  -11.3011 N   0  0  0  0  0  0  0  0  0  0  0  0
   25.0872  -19.9942  -13.6467 C   0  0  0  0  0  0  0  0  0  0  0  0
   25.6928  -18.8716  -13.4481 O   0  0  0  0  0  0  0  0  0  0  0  0
   25.2665  -20.5611  -14.8972 O   0  0  0  0  0  0  0  0  0  0  0  0
  1  2  1  0
  3  2  1  0
  3  5  1  0
  3  4  1  6
  5 11  1  0
  6  5  2  0
  8  7  1  1
  8  9  1  0
 10  8  1  0
 10 12  1  0
 10 11  1  1
 12 20  1  0
 13 12  2  0
 15 14  1  0
 15 16  2  0
 17 15  1  0
 18 17  1  0
 19 21  1  0
 19 18  1  6
 20 19  1  0
 21 23  1  0
 22 21  2  0
M  END
$$$$
