SVQ.pdb
     RDKit          3D

 23 22  0  0  1  0  0  0  0  0999 V2000
   22.1398  -13.5572  -19.9764 O   0  0  0  0  0  0  0  0  0  0  0  0
   22.3401  -12.7869  -18.8548 C   0  0  0  0  0  0  0  0  0  0  0  0
   23.6617  -13.0998  -18.1627 C   0  0  2  0  0  0  0  0  0  0  0  0
   23.6267  -14.4445  -17.6409 N   0  0  0  0  0  0  0  0  0  0  0  0
   23.8078  -12.1025  -17.0704 C   0  0  0  0  0  0  0  0  0  0  0  0
   23.0862  -12.1373  -16.0397 O   0  0  0  0  0  0  0  0  0  0  0  0
   27.2194   -9.8778  -17.2454 C   0  0  0  0  0  0  0  0  0  0  0  0
   26.5102  -10.1056  -15.9060 C   0  0  2  0  0  0  0  0  0  0  0  0
   26.9679  -11.4003  -15.3054 C   0  0  0  0  0  0  0  0  0  0  0  0
   25.0347  -10.0751  -16.1943 C   0  0  2  0  0  0  0  0  0  0  0  0
   24.7773  -11.0982  -17.1971 N   0  0  0  0  0  0  0  0  0  0  0  0
   24.5794   -8.7663  -16.7098 C   0  0  0  0  0  0  0  0  0  0  0  0
   24.6585   -8.5417  -17.9376 O   0  0  0  0  0  0  0  0  0  0  0  0
   21.1758   -4.3229  -13.4787 N   0  0  0  0  0  0  0  0  0  0  0  0
   21.3404   -3.8371  -14.7810 C   0  0  0  0  0  0  0  0  0  0  0  0
   20.8092   -2.7540  -15.1134 O   0  0  0  0  0  0  0  0  0  0  0  0
   22.1367   -4.5573  -15.8288 C   0  0  0  0  0  0  0  0  0  0  0  0
   22.6858   -5.8480  -15.3061 C   0  0  0  0  0  0  0  0  0  0  0  0
   23.5636   -6.4909  -16.3014 C   0  0  2  0  0  0  0  0  0  0  0  0
   24.0670   -7.7875  -15.8493 N   0  0  0  0  0  0  0  0  0  0  0  0
   24.7255   -5.6553  -16.6094 C   0  0  0  0  0  0  0  0  0  0  0  0
   25.7422   -5.7509  -15.8198 O   0  0  0  0  0  0  0  0  0  0  0  0
   24.8637   -4.7677  -17.6631 O   0  0  0  0  0  0  0  0  0  0  0  0
  1  2  1  0
  3  2  1  0
  3  5  1  0
  3  4  1  1
  5 11  1  0
  6  5  2  0
  8  7  1  6
  8  9  1  0
 10  8  1  0
 10 12  1  0
 10 11  1  6
 12 20  1  0
 13 12  2  0
 15 14  1  0
 15 16  2  0
 17 15  1  0
 18 17  1  0
 19 21  1  0
 19 18  1  1
 20 19  1  0
 21 23  1  0
 22 21  2  0
M  END
$$$$
