SVQ.pdb
     RDKit          3D

 23 22  0  0  1  0  0  0  0  0999 V2000
   15.7628  -10.0264  -17.7036 O   0  0  0  0  0  0  0  0  0  0  0  0
   16.5247   -9.8753  -16.5686 C   0  0  0  0  0  0  0  0  0  0  0  0
   17.7007  -10.8441  -16.5241 C   0  0  2  0  0  0  0  0  0  0  0  0
   17.2133  -12.1853  -16.3117 N   0  0  0  0  0  0  0  0  0  0  0  0
   18.5647  -10.4012  -15.3988 C   0  0  0  0  0  0  0  0  0  0  0  0
   18.1797  -10.4652  -14.2021 O   0  0  0  0  0  0  0  0  0  0  0  0
   23.1136   -9.1958  -14.0803 C   0  0  0  0  0  0  0  0  0  0  0  0
   22.1491   -9.7736  -15.1217 C   0  0  2  0  0  0  0  0  0  0  0  0
   22.5036   -9.2542  -16.4823 C   0  0  0  0  0  0  0  0  0  0  0  0
   20.7645   -9.3861  -14.6818 C   0  0  2  0  0  0  0  0  0  0  0  0
   19.8420   -9.8994  -15.6839 N   0  0  0  0  0  0  0  0  0  0  0  0
   20.5893   -7.9225  -14.5668 C   0  0  0  0  0  0  0  0  0  0  0  0
   20.4519   -7.2482  -15.6111 O   0  0  0  0  0  0  0  0  0  0  0  0
   17.8643   -4.9064   -9.7171 N   0  0  0  0  0  0  0  0  0  0  0  0
   18.3625   -3.8893  -10.5395 C   0  0  0  0  0  0  0  0  0  0  0  0
   18.1262   -2.6923  -10.2619 O   0  0  0  0  0  0  0  0  0  0  0  0
   19.1842   -4.1567  -11.7659 C   0  0  0  0  0  0  0  0  0  0  0  0
   19.4542   -5.6194  -11.9339 C   0  0  0  0  0  0  0  0  0  0  0  0
   20.2827   -5.8706  -13.1276 C   0  0  2  0  0  0  0  0  0  0  0  0
   20.5756   -7.2908  -13.3170 N   0  0  0  0  0  0  0  0  0  0  0  0
   21.5644   -5.1679  -13.0469 C   0  0  0  0  0  0  0  0  0  0  0  0
   21.6650   -4.0557  -13.6944 O   0  0  0  0  0  0  0  0  0  0  0  0
   22.6923   -5.5596  -12.3458 O   0  0  0  0  0  0  0  0  0  0  0  0
  1  2  1  0
  3  2  1  0
  3  5  1  0
  3  4  1  1
  5 11  1  0
  6  5  2  0
  8  7  1  1
  8  9  1  0
 10  8  1  0
 10 12  1  0
 10 11  1  6
 12 20  1  0
 13 12  2  0
 15 14  1  0
 15 16  2  0
 17 15  1  0
 18 17  1  0
 19 21  1  0
 19 18  1  1
 20 19  1  0
 21 23  1  0
 22 21  2  0
M  END
$$$$
