SVQ.pdb
     RDKit          3D

 23 22  0  0  1  0  0  0  0  0999 V2000
   18.1737  -14.1945  -19.2361 O   0  0  0  0  0  0  0  0  0  0  0  0
   18.4779  -13.2687  -18.2657 C   0  0  0  0  0  0  0  0  0  0  0  0
   19.5208  -13.7810  -17.2792 C   0  0  2  0  0  0  0  0  0  0  0  0
   19.0154  -14.9543  -16.6086 N   0  0  0  0  0  0  0  0  0  0  0  0
   19.7652  -12.6748  -16.3171 C   0  0  0  0  0  0  0  0  0  0  0  0
   18.8942  -12.3184  -15.4812 O   0  0  0  0  0  0  0  0  0  0  0  0
   23.2233  -10.0178  -14.1462 C   0  0  0  0  0  0  0  0  0  0  0  0
   22.8063  -11.1972  -15.0315 C   0  0  2  0  0  0  0  0  0  0  0  0
   23.7405  -11.3085  -16.1983 C   0  0  0  0  0  0  0  0  0  0  0  0
   21.3805  -10.9433  -15.4361 C   0  0  2  0  0  0  0  0  0  0  0  0
   21.0009  -12.0142  -16.3461 N   0  0  0  0  0  0  0  0  0  0  0  0
   21.2018   -9.6431  -16.1170 C   0  0  0  0  0  0  0  0  0  0  0  0
   21.6108   -9.5171  -17.2922 O   0  0  0  0  0  0  0  0  0  0  0  0
   16.3369   -6.5167  -17.3979 N   0  0  0  0  0  0  0  0  0  0  0  0
   17.3353   -5.5578  -17.6052 C   0  0  0  0  0  0  0  0  0  0  0  0
   17.0509   -4.4726  -18.1594 O   0  0  0  0  0  0  0  0  0  0  0  0
   18.7630   -5.7600  -17.1915 C   0  0  0  0  0  0  0  0  0  0  0  0
   18.9504   -7.0748  -16.5009 C   0  0  0  0  0  0  0  0  0  0  0  0
   20.3557   -7.2641  -16.0963 C   0  0  2  0  0  0  0  0  0  0  0  0
   20.5872   -8.5646  -15.4687 N   0  0  0  0  0  0  0  0  0  0  0  0
   20.7810   -6.2379  -15.1430 C   0  0  0  0  0  0  0  0  0  0  0  0
   20.8642   -6.5878  -13.9032 O   0  0  0  0  0  0  0  0  0  0  0  0
   21.1122   -4.9223  -15.4200 O   0  0  0  0  0  0  0  0  0  0  0  0
  1  2  1  0
  3  2  1  0
  3  5  1  0
  3  4  1  1
  5 11  1  0
  6  5  2  0
  8  7  1  1
  8  9  1  0
 10  8  1  0
 10 12  1  0
 10 11  1  6
 12 20  1  0
 13 12  2  0
 15 14  1  0
 15 16  2  0
 17 15  1  0
 18 17  1  0
 19 21  1  0
 19 18  1  1
 20 19  1  0
 21 23  1  0
 22 21  2  0
M  END
$$$$
