SVQ.pdb
     RDKit          3D

 23 22  0  0  1  0  0  0  0  0999 V2000
   18.2699  -15.2234  -18.6970 O   0  0  0  0  0  0  0  0  0  0  0  0
   18.7523  -14.2786  -17.8217 C   0  0  0  0  0  0  0  0  0  0  0  0
   20.0696  -14.6987  -17.1801 C   0  0  2  0  0  0  0  0  0  0  0  0
   19.8805  -15.9295  -16.4513 N   0  0  0  0  0  0  0  0  0  0  0  0
   20.4641  -13.5906  -16.2715 C   0  0  0  0  0  0  0  0  0  0  0  0
   19.7455  -13.2433  -15.2982 O   0  0  0  0  0  0  0  0  0  0  0  0
   24.2113  -10.6356  -15.0588 C   0  0  0  0  0  0  0  0  0  0  0  0
   23.6748  -11.7794  -15.9263 C   0  0  2  0  0  0  0  0  0  0  0  0
   24.0128  -11.5249  -17.3642 C   0  0  0  0  0  0  0  0  0  0  0  0
   22.1950  -11.8515  -15.6693 C   0  0  2  0  0  0  0  0  0  0  0  0
   21.6701  -12.9176  -16.5100 N   0  0  0  0  0  0  0  0  0  0  0  0
   21.4958  -10.5899  -15.9939 C   0  0  0  0  0  0  0  0  0  0  0  0
   21.2448  -10.3310  -17.1915 O   0  0  0  0  0  0  0  0  0  0  0  0
   16.5240   -8.5462  -15.6564 N   0  0  0  0  0  0  0  0  0  0  0  0
   17.0558   -7.2798  -15.3869 C   0  0  0  0  0  0  0  0  0  0  0  0
   16.3828   -6.2554  -15.6385 O   0  0  0  0  0  0  0  0  0  0  0  0
   18.4205   -7.0732  -14.7990 C   0  0  0  0  0  0  0  0  0  0  0  0
   19.1071   -8.3781  -14.5410 C   0  0  0  0  0  0  0  0  0  0  0  0
   20.4030   -8.4415  -15.2417 C   0  0  2  0  0  0  0  0  0  0  0  0
   21.1161   -9.6928  -14.9879 N   0  0  0  0  0  0  0  0  0  0  0  0
   21.2854   -7.3464  -14.8351 C   0  0  0  0  0  0  0  0  0  0  0  0
   20.9327   -6.1522  -15.1751 O   0  0  0  0  0  0  0  0  0  0  0  0
   22.4651   -7.4435  -14.1167 O   0  0  0  0  0  0  0  0  0  0  0  0
  1  2  1  0
  3  2  1  0
  3  5  1  0
  3  4  1  1
  5 11  1  0
  6  5  2  0
  8  7  1  1
  8  9  1  0
 10  8  1  0
 10 12  1  0
 10 11  1  6
 12 20  1  0
 13 12  2  0
 15 14  1  0
 15 16  2  0
 17 15  1  0
 18 17  1  0
 19 21  1  0
 19 18  1  1
 20 19  1  0
 21 23  1  0
 22 21  2  0
M  END
$$$$
