SVQ.pdb
     RDKit          3D

 23 22  0  0  1  0  0  0  0  0999 V2000
   22.1707  -12.5651  -20.6234 O   0  0  0  0  0  0  0  0  0  0  0  0
   22.0779  -12.2323  -19.2922 C   0  0  0  0  0  0  0  0  0  0  0  0
   23.3214  -12.6295  -18.5051 C   0  0  2  0  0  0  0  0  0  0  0  0
   23.2402  -14.0246  -18.1462 N   0  0  0  0  0  0  0  0  0  0  0  0
   23.3457  -11.7638  -17.2972 C   0  0  0  0  0  0  0  0  0  0  0  0
   22.5450  -11.9362  -16.3415 O   0  0  0  0  0  0  0  0  0  0  0  0
   26.7406   -9.5110  -16.8715 C   0  0  0  0  0  0  0  0  0  0  0  0
   25.9159   -9.9735  -15.6655 C   0  0  2  0  0  0  0  0  0  0  0  0
   26.3181  -11.3654  -15.2817 C   0  0  0  0  0  0  0  0  0  0  0  0
   24.4716   -9.8642  -16.0696 C   0  0  2  0  0  0  0  0  0  0  0  0
   24.2882  -10.7289  -17.2260 N   0  0  0  0  0  0  0  0  0  0  0  0
   24.0811   -8.4844  -16.4298 C   0  0  0  0  0  0  0  0  0  0  0  0
   24.2363   -8.1031  -17.6107 O   0  0  0  0  0  0  0  0  0  0  0  0
   19.6490   -6.6598  -18.6057 N   0  0  0  0  0  0  0  0  0  0  0  0
   20.0604   -5.4053  -18.1406 C   0  0  0  0  0  0  0  0  0  0  0  0
   19.5069   -4.3692  -18.5717 O   0  0  0  0  0  0  0  0  0  0  0  0
   21.1540   -5.2254  -17.1295 C   0  0  0  0  0  0  0  0  0  0  0  0
   21.7267   -6.5415  -16.7047 C   0  0  0  0  0  0  0  0  0  0  0  0
   22.8820   -6.3509  -15.8084 C   0  0  2  0  0  0  0  0  0  0  0  0
   23.5459   -7.6107  -15.4752 N   0  0  0  0  0  0  0  0  0  0  0  0
   22.4835   -5.7214  -14.5482 C   0  0  0  0  0  0  0  0  0  0  0  0
   22.2366   -6.5059  -13.5533 O   0  0  0  0  0  0  0  0  0  0  0  0
   22.3432   -4.3673  -14.2955 O   0  0  0  0  0  0  0  0  0  0  0  0
  1  2  1  0
  3  2  1  0
  3  5  1  0
  3  4  1  1
  5 11  1  0
  6  5  2  0
  8  7  1  6
  8  9  1  0
 10  8  1  0
 10 12  1  0
 10 11  1  6
 12 20  1  0
 13 12  2  0
 15 14  1  0
 15 16  2  0
 17 15  1  0
 18 17  1  0
 19 21  1  0
 19 18  1  6
 20 19  1  0
 21 23  1  0
 22 21  2  0
M  END
$$$$
