SVQ.pdb
     RDKit          3D

 23 22  0  0  1  0  0  0  0  0999 V2000
   27.9365  -17.8069  -15.6949 O   0  0  0  0  0  0  0  0  0  0  0  0
   27.1805  -18.9098  -15.3733 C   0  0  0  0  0  0  0  0  0  0  0  0
   27.9468  -19.9107  -14.5163 C   0  0  2  0  0  0  0  0  0  0  0  0
   28.9151  -20.6027  -15.3320 N   0  0  0  0  0  0  0  0  0  0  0  0
   26.9355  -20.8514  -13.9671 C   0  0  0  0  0  0  0  0  0  0  0  0
   26.6487  -21.9303  -14.5485 O   0  0  0  0  0  0  0  0  0  0  0  0
   24.6869  -19.7203  -10.4116 C   0  0  0  0  0  0  0  0  0  0  0  0
   25.3078  -21.0957  -10.6789 C   0  0  2  0  0  0  0  0  0  0  0  0
   26.7102  -21.1286  -10.1510 C   0  0  0  0  0  0  0  0  0  0  0  0
   25.2284  -21.3180  -12.1640 C   0  0  2  0  0  0  0  0  0  0  0  0
   26.2869  -20.5227  -12.7690 N   0  0  0  0  0  0  0  0  0  0  0  0
   23.9278  -20.9079  -12.7352 C   0  0  0  0  0  0  0  0  0  0  0  0
   23.7758  -19.7200  -13.0958 O   0  0  0  0  0  0  0  0  0  0  0  0
   24.2383  -24.8266  -15.2825 N   0  0  0  0  0  0  0  0  0  0  0  0
   23.0124  -24.3863  -14.7702 C   0  0  0  0  0  0  0  0  0  0  0  0
   22.5010  -24.9716  -13.7896 O   0  0  0  0  0  0  0  0  0  0  0  0
   22.2559  -23.2240  -15.3425 C   0  0  0  0  0  0  0  0  0  0  0  0
   21.2014  -22.7400  -14.3967 C   0  0  0  0  0  0  0  0  0  0  0  0
   21.6649  -21.5570  -13.6483 C   0  0  2  0  0  0  0  0  0  0  0  0
   22.8774  -21.8234  -12.8751 N   0  0  0  0  0  0  0  0  0  0  0  0
   20.6451  -21.0834  -12.7109 C   0  0  0  0  0  0  0  0  0  0  0  0
   20.8717  -21.2712  -11.4541 O   0  0  0  0  0  0  0  0  0  0  0  0
   19.4548  -20.4467  -13.0188 O   0  0  0  0  0  0  0  0  0  0  0  0
  1  2  1  0
  3  2  1  0
  3  5  1  0
  3  4  1  6
  5 11  1  0
  6  5  2  0
  8  7  1  6
  8  9  1  0
 10  8  1  0
 10 12  1  0
 10 11  1  6
 12 20  1  0
 13 12  2  0
 15 14  1  0
 15 16  2  0
 17 15  1  0
 18 17  1  0
 19 21  1  0
 19 18  1  1
 20 19  1  0
 21 23  1  0
 22 21  2  0
M  END
$$$$
