NHA.pdb
     RDKit          3D

 24 24  0  0  1  0  0  0  0  0999 V2000
   15.9719  -12.7557  -13.3574 N   0  0  0  0  0  0  0  0  0  0  0  0
   16.9645  -12.9780  -14.3614 C   0  0  0  0  0  0  0  0  0  0  0  0
   17.6140  -14.0412  -14.3948 O   0  0  0  0  0  0  0  0  0  0  0  0
   17.2005  -11.9237  -15.3527 C   0  0  0  0  0  0  0  0  0  0  0  0
   16.3302  -10.7409  -15.1014 C   0  0  2  0  0  0  0  0  0  0  0  0
   15.1655  -10.8790  -16.0220 N   0  0  0  0  0  0  0  0  0  0  0  0
   16.9949   -9.4331  -15.4394 C   0  0  0  0  0  0  0  0  0  0  0  0
   17.4279   -9.1173  -16.5617 O   0  0  0  0  0  0  0  0  0  0  0  0
   17.1674   -8.4339  -14.4170 N   0  0  0  0  0  0  0  0  0  0  0  0
   17.8399   -7.1560  -14.7400 C   0  0  1  0  0  0  0  0  0  0  0  0
   16.9144   -6.0230  -14.5029 C   0  0  0  0  0  0  0  0  0  0  0  0
   15.7595   -5.9005  -15.3980 C   0  0  0  0  0  0  0  0  0  0  0  0
   15.7692   -5.7222  -16.7724 C   0  0  0  0  0  0  0  0  0  0  0  0
   14.4910   -5.6185  -17.1934 N   0  0  0  0  0  0  0  0  0  0  0  0
   13.6855   -5.7258  -16.1323 C   0  0  0  0  0  0  0  0  0  0  0  0
   14.4502   -5.8954  -15.0519 N   0  0  0  0  0  0  0  0  0  0  0  0
   19.1739   -7.1063  -14.1632 C   0  0  0  0  0  0  0  0  0  0  0  0
   19.2558   -7.2218  -12.8789 O   0  0  0  0  0  0  0  0  0  0  0  0
   22.8336   -7.2579  -14.9608 C   0  0  0  0  0  0  0  0  0  0  0  0
   21.6597   -6.8786  -14.0634 C   0  0  2  0  0  0  0  0  0  0  0  0
   20.4104   -6.9542  -14.8032 N   0  0  0  0  0  0  0  0  0  0  0  0
   21.8906   -5.5720  -13.4270 C   0  0  0  0  0  0  0  0  0  0  0  0
   22.6621   -5.3823  -12.2952 O   0  0  0  0  0  0  0  0  0  0  0  0
   21.3597   -4.5189  -13.9228 O   0  0  0  0  0  0  0  0  0  0  0  0
  1  2  1  0
  2  3  2  0
  4  5  1  0
  4  2  1  0
  5  6  1  6
  7  8  2  0
  7  5  1  0
  9  7  1  0
 10 11  1  1
 10  9  1  0
 11 12  1  0
 12 13  2  0
 12 16  1  0
 13 14  1  0
 14 15  1  0
 16 15  2  0
 17 21  1  0
 17 10  1  0
 18 17  2  0
 20 21  1  0
 20 19  1  6
 22 20  1  0
 23 22  1  0
 24 22  2  0
M  END
$$$$
