NHA.pdb
     RDKit          3D

 24 24  0  0  1  0  0  0  0  0999 V2000
   30.6428  -37.9422   -8.7015 N   0  0  0  0  0  0  0  0  0  0  0  0
   30.5011  -39.0236   -7.7778 C   0  0  0  0  0  0  0  0  0  0  0  0
   31.3637  -39.9203   -7.7053 O   0  0  0  0  0  0  0  0  0  0  0  0
   29.3149  -39.0526   -6.9164 C   0  0  0  0  0  0  0  0  0  0  0  0
   28.3490  -37.9819   -7.2903 C   0  0  2  0  0  0  0  0  0  0  0  0
   28.7390  -37.5289   -8.6562 N   0  0  0  0  0  0  0  0  0  0  0  0
   28.4276  -36.7735   -6.3958 C   0  0  0  0  0  0  0  0  0  0  0  0
   29.4796  -36.2371   -6.0055 O   0  0  0  0  0  0  0  0  0  0  0  0
   27.2166  -36.1513   -5.9271 N   0  0  0  0  0  0  0  0  0  0  0  0
   27.2898  -34.9705   -5.0383 C   0  0  1  0  0  0  0  0  0  0  0  0
   26.2143  -34.0107   -5.3822 C   0  0  0  0  0  0  0  0  0  0  0  0
   26.3269  -33.3064   -6.6634 C   0  0  0  0  0  0  0  0  0  0  0  0
   27.3651  -33.3761   -7.5789 C   0  0  0  0  0  0  0  0  0  0  0  0
   27.0844  -32.5387   -8.5996 N   0  0  0  0  0  0  0  0  0  0  0  0
   25.9098  -31.9503   -8.3539 C   0  0  0  0  0  0  0  0  0  0  0  0
   25.4547  -32.4131   -7.1880 N   0  0  0  0  0  0  0  0  0  0  0  0
   27.4577  -35.3701   -3.6502 C   0  0  0  0  0  0  0  0  0  0  0  0
   26.6203  -36.2405   -3.1912 O   0  0  0  0  0  0  0  0  0  0  0  0
   29.6395  -34.9315   -0.5990 C   0  0  0  0  0  0  0  0  0  0  0  0
   28.3693  -35.3647   -1.3242 C   0  0  2  0  0  0  0  0  0  0  0  0
   28.4134  -34.9492   -2.7168 N   0  0  0  0  0  0  0  0  0  0  0  0
   27.1732  -34.8963   -0.6062 C   0  0  0  0  0  0  0  0  0  0  0  0
   26.6877  -35.4691    0.5551 O   0  0  0  0  0  0  0  0  0  0  0  0
   26.5116  -33.8971   -1.0539 O   0  0  0  0  0  0  0  0  0  0  0  0
  1  2  1  0
  2  3  2  0
  4  5  1  0
  4  2  1  0
  5  6  1  6
  7  8  2  0
  7  5  1  0
  9  7  1  0
 10 11  1  1
 10  9  1  0
 11 12  1  0
 12 13  2  0
 12 16  1  0
 13 14  1  0
 14 15  1  0
 16 15  2  0
 17 21  1  0
 17 10  1  0
 18 17  2  0
 20 21  1  0
 20 19  1  1
 22 20  1  0
 23 22  1  0
 24 22  2  0
M  END
$$$$
