NHA.pdb
     RDKit          3D

 24 24  0  0  1  0  0  0  0  0999 V2000
   24.9886  -12.5368  -19.8906 N   0  0  0  0  0  0  0  0  0  0  0  0
   23.6058  -12.7344  -20.1928 C   0  0  0  0  0  0  0  0  0  0  0  0
   23.2515  -13.5551  -21.0614 O   0  0  0  0  0  0  0  0  0  0  0  0
   22.6125  -11.9474  -19.4552 C   0  0  0  0  0  0  0  0  0  0  0  0
   23.2675  -10.9835  -18.5271 C   0  0  2  0  0  0  0  0  0  0  0  0
   23.8208  -11.7964  -17.4064 N   0  0  0  0  0  0  0  0  0  0  0  0
   22.3040  -10.0024  -17.9143 C   0  0  0  0  0  0  0  0  0  0  0  0
   21.5781   -9.2175  -18.5497 O   0  0  0  0  0  0  0  0  0  0  0  0
   22.1748   -9.9273  -16.4822 N   0  0  0  0  0  0  0  0  0  0  0  0
   21.1677   -9.0269  -15.8782 C   0  0  1  0  0  0  0  0  0  0  0  0
   20.4106   -9.7469  -14.8272 C   0  0  0  0  0  0  0  0  0  0  0  0
   19.3096  -10.6108  -15.2650 C   0  0  0  0  0  0  0  0  0  0  0  0
   18.8235  -10.7752  -16.5524 C   0  0  0  0  0  0  0  0  0  0  0  0
   17.7802  -11.6301  -16.5034 N   0  0  0  0  0  0  0  0  0  0  0  0
   17.5986  -12.0045  -15.2333 C   0  0  0  0  0  0  0  0  0  0  0  0
   18.5198  -11.3902  -14.4886 N   0  0  0  0  0  0  0  0  0  0  0  0
   21.7465   -7.7304  -15.5641 C   0  0  0  0  0  0  0  0  0  0  0  0
   22.9083   -7.7347  -14.9988 O   0  0  0  0  0  0  0  0  0  0  0  0
   21.2569   -4.0083  -15.9549 C   0  0  0  0  0  0  0  0  0  0  0  0
   21.9174   -5.2466  -15.3569 C   0  0  2  0  0  0  0  0  0  0  0  0
   21.2263   -6.4499  -15.7909 N   0  0  0  0  0  0  0  0  0  0  0  0
   22.0273   -5.1242  -13.8945 C   0  0  0  0  0  0  0  0  0  0  0  0
   23.0020   -4.3886  -13.2456 O   0  0  0  0  0  0  0  0  0  0  0  0
   21.1856   -5.7230  -13.1398 O   0  0  0  0  0  0  0  0  0  0  0  0
  1  2  1  0
  2  3  2  0
  4  5  1  0
  4  2  1  0
  5  6  1  1
  7  8  2  0
  7  5  1  0
  9  7  1  0
 10 11  1  1
 10  9  1  0
 11 12  1  0
 12 13  2  0
 12 16  1  0
 13 14  1  0
 14 15  1  0
 16 15  2  0
 17 21  1  0
 17 10  1  0
 18 17  2  0
 20 21  1  0
 20 19  1  1
 22 20  1  0
 23 22  1  0
 24 22  2  0
M  END
$$$$
