NHA.pdb
     RDKit          3D

 24 24  0  0  1  0  0  0  0  0999 V2000
   11.9120  -11.1923   -9.5305 N   0  0  0  0  0  0  0  0  0  0  0  0
   13.0516  -11.9689   -9.1551 C   0  0  0  0  0  0  0  0  0  0  0  0
   12.9178  -13.1157   -8.6855 O   0  0  0  0  0  0  0  0  0  0  0  0
   14.3836  -11.3833   -9.3360 C   0  0  0  0  0  0  0  0  0  0  0  0
   14.2963  -10.0006   -9.8837 C   0  0  2  0  0  0  0  0  0  0  0  0
   13.7486  -10.1343  -11.2640 N   0  0  0  0  0  0  0  0  0  0  0  0
   15.6373   -9.3289  -10.0145 C   0  0  0  0  0  0  0  0  0  0  0  0
   16.3709   -9.0006   -9.0653 O   0  0  0  0  0  0  0  0  0  0  0  0
   16.1574   -9.0201  -11.3211 N   0  0  0  0  0  0  0  0  0  0  0  0
   17.4408   -8.2952  -11.4522 C   0  0  1  0  0  0  0  0  0  0  0  0
   18.1548   -8.7462  -12.6700 C   0  0  0  0  0  0  0  0  0  0  0  0
   19.4064   -8.0607  -13.0074 C   0  0  0  0  0  0  0  0  0  0  0  0
   20.0259   -7.0373  -12.3077 C   0  0  0  0  0  0  0  0  0  0  0  0
   21.1326   -6.6708  -12.9881 N   0  0  0  0  0  0  0  0  0  0  0  0
   21.2255   -7.4282  -14.0853 C   0  0  0  0  0  0  0  0  0  0  0  0
   20.1857   -8.2645  -14.0961 N   0  0  0  0  0  0  0  0  0  0  0  0
   17.2612   -6.8692  -11.2303 C   0  0  0  0  0  0  0  0  0  0  0  0
   16.4180   -6.2635  -11.9995 O   0  0  0  0  0  0  0  0  0  0  0  0
   17.7678   -4.1334   -8.7498 C   0  0  0  0  0  0  0  0  0  0  0  0
   17.5528   -4.6219  -10.1789 C   0  0  2  0  0  0  0  0  0  0  0  0
   17.8733   -6.0360  -10.2854 N   0  0  0  0  0  0  0  0  0  0  0  0
   18.2864   -3.7770  -11.1347 C   0  0  0  0  0  0  0  0  0  0  0  0
   17.9263   -2.4839  -11.4674 O   0  0  0  0  0  0  0  0  0  0  0  0
   19.3303   -4.2324  -11.7173 O   0  0  0  0  0  0  0  0  0  0  0  0
  1  2  1  0
  2  3  2  0
  4  5  1  0
  4  2  1  0
  5  6  1  6
  7  8  2  0
  7  5  1  0
  9  7  1  0
 10 11  1  6
 10  9  1  0
 11 12  1  0
 12 13  2  0
 12 16  1  0
 13 14  1  0
 14 15  1  0
 16 15  2  0
 17 21  1  0
 17 10  1  0
 18 17  2  0
 20 21  1  0
 20 19  1  1
 22 20  1  0
 23 22  1  0
 24 22  2  0
M  END
$$$$
