NHA.pdb
     RDKit          3D

 24 24  0  0  1  0  0  0  0  0999 V2000
   28.5279  -22.1279  -15.6446 N   0  0  0  0  0  0  0  0  0  0  0  0
   28.2397  -21.4281  -16.8570 C   0  0  0  0  0  0  0  0  0  0  0  0
   28.9750  -21.5494  -17.8560 O   0  0  0  0  0  0  0  0  0  0  0  0
   27.0565  -20.5631  -16.8973 C   0  0  0  0  0  0  0  0  0  0  0  0
   26.3905  -20.4958  -15.5664 C   0  0  2  0  0  0  0  0  0  0  0  0
   26.0535  -21.9009  -15.1989 N   0  0  0  0  0  0  0  0  0  0  0  0
   25.0929  -19.7328  -15.5905 C   0  0  0  0  0  0  0  0  0  0  0  0
   24.9168  -18.6343  -16.1466 O   0  0  0  0  0  0  0  0  0  0  0  0
   23.9329  -20.2747  -14.9319 N   0  0  0  0  0  0  0  0  0  0  0  0
   22.6093  -19.6434  -15.1302 C   0  0  1  0  0  0  0  0  0  0  0  0
   22.3361  -19.4846  -16.5781 C   0  0  0  0  0  0  0  0  0  0  0  0
   22.8874  -18.2975  -17.2394 C   0  0  0  0  0  0  0  0  0  0  0  0
   23.3369  -17.1295  -16.6441 C   0  0  0  0  0  0  0  0  0  0  0  0
   23.7233  -16.2805  -17.6197 N   0  0  0  0  0  0  0  0  0  0  0  0
   23.5313  -16.8766  -18.8005 C   0  0  0  0  0  0  0  0  0  0  0  0
   23.0279  -18.0908  -18.5704 N   0  0  0  0  0  0  0  0  0  0  0  0
   21.6006  -20.2677  -14.2891 C   0  0  0  0  0  0  0  0  0  0  0  0
   21.5810  -21.5595  -14.2674 O   0  0  0  0  0  0  0  0  0  0  0  0
   18.8642  -19.5726  -11.7850 C   0  0  0  0  0  0  0  0  0  0  0  0
   19.6069  -20.4432  -12.7938 C   0  0  2  0  0  0  0  0  0  0  0  0
   20.6294  -19.6679  -13.4774 N   0  0  0  0  0  0  0  0  0  0  0  0
   18.6616  -21.1070  -13.7056 C   0  0  0  0  0  0  0  0  0  0  0  0
   18.6044  -20.8801  -15.0686 O   0  0  0  0  0  0  0  0  0  0  0  0
   17.8216  -21.9553  -13.2459 O   0  0  0  0  0  0  0  0  0  0  0  0
  1  2  1  0
  2  3  2  0
  4  5  1  0
  4  2  1  0
  5  6  1  6
  7  8  2  0
  7  5  1  0
  9  7  1  0
 10 11  1  6
 10  9  1  0
 11 12  1  0
 12 13  2  0
 12 16  1  0
 13 14  1  0
 14 15  1  0
 16 15  2  0
 17 21  1  0
 17 10  1  0
 18 17  2  0
 20 21  1  0
 20 19  1  1
 22 20  1  0
 23 22  1  0
 24 22  2  0
M  END
$$$$
