NHA.pdb
     RDKit          3D

 24 24  0  0  1  0  0  0  0  0999 V2000
   16.5714   -9.2837  -18.7493 N   0  0  0  0  0  0  0  0  0  0  0  0
   16.0704   -8.8047  -17.4995 C   0  0  0  0  0  0  0  0  0  0  0  0
   14.8699   -8.9447  -17.1954 O   0  0  0  0  0  0  0  0  0  0  0  0
   17.0042   -8.1437  -16.5824 C   0  0  0  0  0  0  0  0  0  0  0  0
   18.3457   -8.7904  -16.6179 C   0  0  2  0  0  0  0  0  0  0  0  0
   18.1786  -10.1290  -15.9827 N   0  0  0  0  0  0  0  0  0  0  0  0
   19.3804   -8.0547  -15.8087 C   0  0  0  0  0  0  0  0  0  0  0  0
   19.4044   -7.9860  -14.5671 O   0  0  0  0  0  0  0  0  0  0  0  0
   20.4485   -7.3586  -16.4778 N   0  0  0  0  0  0  0  0  0  0  0  0
   21.4052   -6.5463  -15.6938 C   0  0  1  0  0  0  0  0  0  0  0  0
   22.7939   -6.9611  -16.0032 C   0  0  0  0  0  0  0  0  0  0  0  0
   23.1850   -8.3257  -15.6356 C   0  0  0  0  0  0  0  0  0  0  0  0
   22.4300   -9.2681  -14.9554 C   0  0  0  0  0  0  0  0  0  0  0  0
   23.1850  -10.3749  -14.7914 N   0  0  0  0  0  0  0  0  0  0  0  0
   24.3820  -10.1569  -15.3446 C   0  0  0  0  0  0  0  0  0  0  0  0
   24.3810   -8.9229  -15.8524 N   0  0  0  0  0  0  0  0  0  0  0  0
   21.0638   -5.1340  -15.7531 C   0  0  0  0  0  0  0  0  0  0  0  0
   20.7734   -4.6552  -16.9176 O   0  0  0  0  0  0  0  0  0  0  0  0
   20.2676   -2.1082  -13.6654 C   0  0  0  0  0  0  0  0  0  0  0  0
   20.6916   -2.7943  -14.9602 C   0  0  2  0  0  0  0  0  0  0  0  0
   20.9956   -4.1950  -14.7161 N   0  0  0  0  0  0  0  0  0  0  0  0
   21.7885   -2.0564  -15.6065 C   0  0  0  0  0  0  0  0  0  0  0  0
   21.6081   -0.9930  -16.4720 O   0  0  0  0  0  0  0  0  0  0  0  0
   23.0023   -2.3902  -15.3788 O   0  0  0  0  0  0  0  0  0  0  0  0
  1  2  1  0
  2  3  2  0
  4  5  1  0
  4  2  1  0
  5  6  1  1
  7  8  2  0
  7  5  1  0
  9  7  1  0
 10 11  1  6
 10  9  1  0
 11 12  1  0
 12 13  2  0
 12 16  1  0
 13 14  1  0
 14 15  1  0
 16 15  2  0
 17 21  1  0
 17 10  1  0
 18 17  2  0
 20 21  1  0
 20 19  1  1
 22 20  1  0
 23 22  1  0
 24 22  2  0
M  END
$$$$
