NHA.pdb
     RDKit          3D

 24 24  0  0  1  0  0  0  0  0999 V2000
   22.3123  -10.8531    7.0749 N   0  0  0  0  0  0  0  0  0  0  0  0
   21.8940  -11.3795    8.3361 C   0  0  0  0  0  0  0  0  0  0  0  0
   22.5837  -11.2107    9.3604 O   0  0  0  0  0  0  0  0  0  0  0  0
   20.6321  -12.1237    8.3959 C   0  0  0  0  0  0  0  0  0  0  0  0
   19.9843  -12.1981    7.0564 C   0  0  2  0  0  0  0  0  0  0  0  0
   19.3645  -10.8628    6.8200 N   0  0  0  0  0  0  0  0  0  0  0  0
   18.8703  -13.2087    6.9917 C   0  0  0  0  0  0  0  0  0  0  0  0
   17.7377  -13.0604    7.4836 O   0  0  0  0  0  0  0  0  0  0  0  0
   19.0820  -14.4634    6.3178 N   0  0  0  0  0  0  0  0  0  0  0  0
   17.9988  -15.4707    6.2762 C   0  0  1  0  0  0  0  0  0  0  0  0
   17.8928  -16.0439    4.9137 C   0  0  0  0  0  0  0  0  0  0  0  0
   17.5680  -15.1220    3.8205 C   0  0  0  0  0  0  0  0  0  0  0  0
   17.2586  -13.7743    3.9139 C   0  0  0  0  0  0  0  0  0  0  0  0
   16.9862  -13.3171    2.6735 N   0  0  0  0  0  0  0  0  0  0  0  0
   17.1147  -14.3300    1.8110 C   0  0  0  0  0  0  0  0  0  0  0  0
   17.4649  -15.4162    2.5026 N   0  0  0  0  0  0  0  0  0  0  0  0
   18.0793  -16.3729    7.4138 C   0  0  0  0  0  0  0  0  0  0  0  0
   19.2637  -16.7124    7.8031 O   0  0  0  0  0  0  0  0  0  0  0  0
   16.1219  -17.9912   10.1777 C   0  0  0  0  0  0  0  0  0  0  0  0
   17.2968  -17.9266    9.2069 C   0  0  2  0  0  0  0  0  0  0  0  0
   17.0453  -16.9377    8.1711 N   0  0  0  0  0  0  0  0  0  0  0  0
   17.6131  -19.2642    8.6813 C   0  0  0  0  0  0  0  0  0  0  0  0
   17.5541  -19.6094    7.3435 O   0  0  0  0  0  0  0  0  0  0  0  0
   17.9694  -20.1959    9.4823 O   0  0  0  0  0  0  0  0  0  0  0  0
  1  2  1  0
  2  3  2  0
  4  5  1  0
  4  2  1  0
  5  6  1  1
  7  8  2  0
  7  5  1  0
  9  7  1  0
 10 11  1  6
 10  9  1  0
 11 12  1  0
 12 13  2  0
 12 16  1  0
 13 14  1  0
 14 15  1  0
 16 15  2  0
 17 21  1  0
 17 10  1  0
 18 17  2  0
 20 21  1  0
 20 19  1  1
 22 20  1  0
 23 22  1  0
 24 22  2  0
M  END
$$$$
