NHA.pdb
     RDKit          3D

 24 24  0  0  1  0  0  0  0  0999 V2000
   18.8893  -25.3178  -15.4616 N   0  0  0  0  0  0  0  0  0  0  0  0
   19.8340  -24.2951  -15.1386 C   0  0  0  0  0  0  0  0  0  0  0  0
   20.6237  -23.8588  -15.9986 O   0  0  0  0  0  0  0  0  0  0  0  0
   19.8518  -23.7709  -13.7694 C   0  0  0  0  0  0  0  0  0  0  0  0
   18.9067  -24.5173  -12.8925 C   0  0  2  0  0  0  0  0  0  0  0  0
   17.5628  -23.9134  -13.1211 N   0  0  0  0  0  0  0  0  0  0  0  0
   19.2075  -24.3586  -11.4259 C   0  0  0  0  0  0  0  0  0  0  0  0
   20.2799  -24.6660  -10.8761 O   0  0  0  0  0  0  0  0  0  0  0  0
   18.2071  -23.8119  -10.5463 N   0  0  0  0  0  0  0  0  0  0  0  0
   18.5653  -23.4470   -9.1576 C   0  0  1  0  0  0  0  0  0  0  0  0
   18.4910  -21.9769   -8.9855 C   0  0  0  0  0  0  0  0  0  0  0  0
   19.5597  -21.1751   -9.5898 C   0  0  0  0  0  0  0  0  0  0  0  0
   19.5011  -20.4283  -10.7558 C   0  0  0  0  0  0  0  0  0  0  0  0
   20.7168  -19.8817  -10.9683 N   0  0  0  0  0  0  0  0  0  0  0  0
   21.5303  -20.2602   -9.9777 C   0  0  0  0  0  0  0  0  0  0  0  0
   20.8328  -21.0388   -9.1485 N   0  0  0  0  0  0  0  0  0  0  0  0
   17.8831  -24.3021   -8.1995 C   0  0  0  0  0  0  0  0  0  0  0  0
   16.6829  -24.6723   -8.5030 O   0  0  0  0  0  0  0  0  0  0  0  0
   18.2559  -25.9945   -4.8391 C   0  0  0  0  0  0  0  0  0  0  0  0
   17.4664  -25.4998   -6.0470 C   0  0  2  0  0  0  0  0  0  0  0  0
   18.3417  -24.8002   -6.9734 N   0  0  0  0  0  0  0  0  0  0  0  0
   16.3033  -24.7058   -5.6203 C   0  0  0  0  0  0  0  0  0  0  0  0
   15.1175  -25.2473   -5.1586 O   0  0  0  0  0  0  0  0  0  0  0  0
   16.3527  -23.4282   -5.6649 O   0  0  0  0  0  0  0  0  0  0  0  0
  1  2  1  0
  2  3  2  0
  4  5  1  0
  4  2  1  0
  5  6  1  1
  7  8  2  0
  7  5  1  0
  9  7  1  0
 10 11  1  1
 10  9  1  0
 11 12  1  0
 12 13  2  0
 12 16  1  0
 13 14  1  0
 14 15  1  0
 16 15  2  0
 17 21  1  0
 17 10  1  0
 18 17  2  0
 20 21  1  0
 20 19  1  1
 22 20  1  0
 23 22  1  0
 24 22  2  0
M  END
$$$$
