NHA.pdb
     RDKit          3D

 24 24  0  0  1  0  0  0  0  0999 V2000
   31.0829  -30.9351  -18.6541 N   0  0  0  0  0  0  0  0  0  0  0  0
   30.8957  -29.5236  -18.5303 C   0  0  0  0  0  0  0  0  0  0  0  0
   31.8063  -28.7932  -18.0936 O   0  0  0  0  0  0  0  0  0  0  0  0
   29.6047  -28.9548  -18.9300 C   0  0  0  0  0  0  0  0  0  0  0  0
   28.9886  -28.1783  -17.8179 C   0  0  2  0  0  0  0  0  0  0  0  0
   28.1952  -29.1553  -17.0186 N   0  0  0  0  0  0  0  0  0  0  0  0
   28.0237  -27.1250  -18.2935 C   0  0  0  0  0  0  0  0  0  0  0  0
   26.9866  -27.3436  -18.9443 O   0  0  0  0  0  0  0  0  0  0  0  0
   28.2760  -25.7387  -17.9974 N   0  0  0  0  0  0  0  0  0  0  0  0
   27.3149  -24.7032  -18.4378 C   0  0  1  0  0  0  0  0  0  0  0  0
   26.8075  -23.9522  -17.2653 C   0  0  0  0  0  0  0  0  0  0  0  0
   25.7988  -24.6119  -16.4302 C   0  0  0  0  0  0  0  0  0  0  0  0
   25.1930  -25.8396  -16.6461 C   0  0  0  0  0  0  0  0  0  0  0  0
   24.2970  -26.0474  -15.6582 N   0  0  0  0  0  0  0  0  0  0  0  0
   24.3226  -24.9949  -14.8349 C   0  0  0  0  0  0  0  0  0  0  0  0
   25.2269  -24.1313  -15.3006 N   0  0  0  0  0  0  0  0  0  0  0  0
   27.8304  -23.9621  -19.5778 C   0  0  0  0  0  0  0  0  0  0  0  0
   29.0474  -23.5368  -19.4918 O   0  0  0  0  0  0  0  0  0  0  0  0
   27.2816  -23.2992  -23.2054 C   0  0  0  0  0  0  0  0  0  0  0  0
   27.8817  -22.9300  -21.8523 C   0  0  2  0  0  0  0  0  0  0  0  0
   27.1954  -23.6367  -20.7831 N   0  0  0  0  0  0  0  0  0  0  0  0
   27.9062  -21.4695  -21.6737 C   0  0  0  0  0  0  0  0  0  0  0  0
   28.8265  -20.6271  -22.2703 O   0  0  0  0  0  0  0  0  0  0  0  0
   27.0364  -20.9043  -20.9249 O   0  0  0  0  0  0  0  0  0  0  0  0
  1  2  1  0
  2  3  2  0
  4  5  1  0
  4  2  1  0
  5  6  1  1
  7  8  2  0
  7  5  1  0
  9  7  1  0
 10 11  1  1
 10  9  1  0
 11 12  1  0
 12 13  2  0
 12 16  1  0
 13 14  1  0
 14 15  1  0
 16 15  2  0
 17 21  1  0
 17 10  1  0
 18 17  2  0
 20 21  1  0
 20 19  1  6
 22 20  1  0
 23 22  1  0
 24 22  2  0
M  END
$$$$
