NHA.pdb
     RDKit          3D

 24 24  0  0  1  0  0  0  0  0999 V2000
   16.0014   -9.8716  -11.1861 N   0  0  0  0  0  0  0  0  0  0  0  0
   16.5487  -10.8846  -12.0328 C   0  0  0  0  0  0  0  0  0  0  0  0
   16.0852  -12.0416  -12.0282 O   0  0  0  0  0  0  0  0  0  0  0  0
   17.6701  -10.5294  -12.9081 C   0  0  0  0  0  0  0  0  0  0  0  0
   17.9704   -9.0720  -12.8375 C   0  0  2  0  0  0  0  0  0  0  0  0
   16.9724   -8.3990  -13.7173 N   0  0  0  0  0  0  0  0  0  0  0  0
   19.3303   -8.7198  -13.3791 C   0  0  0  0  0  0  0  0  0  0  0  0
   20.4140   -9.0226  -12.8492 O   0  0  0  0  0  0  0  0  0  0  0  0
   19.4397   -7.9736  -14.6056 N   0  0  0  0  0  0  0  0  0  0  0  0
   20.7709   -7.7260  -15.2025 C   0  0  1  0  0  0  0  0  0  0  0  0
   20.8308   -8.3065  -16.5647 C   0  0  0  0  0  0  0  0  0  0  0  0
   20.6248   -9.7532  -16.6880 C   0  0  0  0  0  0  0  0  0  0  0  0
   21.1835  -10.7565  -15.9122 C   0  0  0  0  0  0  0  0  0  0  0  0
   20.7604  -11.9453  -16.3913 N   0  0  0  0  0  0  0  0  0  0  0  0
   19.9586  -11.7195  -17.4366 C   0  0  0  0  0  0  0  0  0  0  0  0
   19.8778  -10.3995  -17.6144 N   0  0  0  0  0  0  0  0  0  0  0  0
   21.1825   -6.3447  -15.0086 C   0  0  0  0  0  0  0  0  0  0  0  0
   20.2614   -5.4444  -15.1117 O   0  0  0  0  0  0  0  0  0  0  0  0
   22.3190   -3.6532  -15.8222 C   0  0  0  0  0  0  0  0  0  0  0  0
   22.6915   -4.4074  -14.5495 C   0  0  2  0  0  0  0  0  0  0  0  0
   22.4524   -5.8319  -14.7155 N   0  0  0  0  0  0  0  0  0  0  0  0
   22.0105   -3.8270  -13.3811 C   0  0  0  0  0  0  0  0  0  0  0  0
   22.1963   -2.5311  -12.9355 O   0  0  0  0  0  0  0  0  0  0  0  0
   21.1859   -4.5356  -12.7070 O   0  0  0  0  0  0  0  0  0  0  0  0
  1  2  1  0
  2  3  2  0
  4  5  1  0
  4  2  1  0
  5  6  1  6
  7  8  2  0
  7  5  1  0
  9  7  1  0
 10 11  1  6
 10  9  1  0
 11 12  1  0
 12 13  2  0
 12 16  1  0
 13 14  1  0
 14 15  1  0
 16 15  2  0
 17 21  1  0
 17 10  1  0
 18 17  2  0
 20 21  1  0
 20 19  1  6
 22 20  1  0
 23 22  1  0
 24 22  2  0
M  END
$$$$
