NHA.pdb
     RDKit          3D

 24 24  0  0  1  0  0  0  0  0999 V2000
   16.6717  -11.8392  -18.4705 N   0  0  0  0  0  0  0  0  0  0  0  0
   16.0286  -11.6630  -17.2063 C   0  0  0  0  0  0  0  0  0  0  0  0
   14.8520  -12.0343  -17.0297 O   0  0  0  0  0  0  0  0  0  0  0  0
   16.7875  -11.0341  -16.1208 C   0  0  0  0  0  0  0  0  0  0  0  0
   18.1397  -10.6109  -16.5811 C   0  0  2  0  0  0  0  0  0  0  0  0
   19.0610  -11.7368  -16.2546 N   0  0  0  0  0  0  0  0  0  0  0  0
   18.6620   -9.4008  -15.8535 C   0  0  0  0  0  0  0  0  0  0  0  0
   18.6550   -9.2473  -14.6193 O   0  0  0  0  0  0  0  0  0  0  0  0
   19.2248   -8.3057  -16.6000 N   0  0  0  0  0  0  0  0  0  0  0  0
   19.8896   -7.1917  -15.8882 C   0  0  1  0  0  0  0  0  0  0  0  0
   21.3511   -7.2377  -16.1289 C   0  0  0  0  0  0  0  0  0  0  0  0
   22.0954   -8.3515  -15.5324 C   0  0  0  0  0  0  0  0  0  0  0  0
   21.6042   -9.3537  -14.7109 C   0  0  0  0  0  0  0  0  0  0  0  0
   22.6342  -10.1499  -14.3547 N   0  0  0  0  0  0  0  0  0  0  0  0
   23.7487   -9.6808  -14.9242 C   0  0  0  0  0  0  0  0  0  0  0  0
   23.4232   -8.5981  -15.6328 N   0  0  0  0  0  0  0  0  0  0  0  0
   19.1815   -5.9392  -16.0997 C   0  0  0  0  0  0  0  0  0  0  0  0
   18.9369   -5.6101  -17.3250 O   0  0  0  0  0  0  0  0  0  0  0  0
   16.9151   -3.4488  -14.6038 C   0  0  0  0  0  0  0  0  0  0  0  0
   18.0722   -3.7707  -15.5444 C   0  0  2  0  0  0  0  0  0  0  0  0
   18.7100   -5.0181  -15.1557 N   0  0  0  0  0  0  0  0  0  0  0  0
   19.0033   -2.6346  -15.6335 C   0  0  0  0  0  0  0  0  0  0  0  0
   18.6775   -1.4003  -16.1652 O   0  0  0  0  0  0  0  0  0  0  0  0
   20.2015   -2.7572  -15.2023 O   0  0  0  0  0  0  0  0  0  0  0  0
  1  2  1  0
  2  3  2  0
  4  5  1  0
  4  2  1  0
  5  6  1  1
  7  8  2  0
  7  5  1  0
  9  7  1  0
 10 11  1  6
 10  9  1  0
 11 12  1  0
 12 13  2  0
 12 16  1  0
 13 14  1  0
 14 15  1  0
 16 15  2  0
 17 21  1  0
 17 10  1  0
 18 17  2  0
 20 21  1  0
 20 19  1  1
 22 20  1  0
 23 22  1  0
 24 22  2  0
M  END
$$$$
