NHA.pdb
     RDKit          3D

 24 24  0  0  1  0  0  0  0  0999 V2000
   27.3905  -12.3682  -15.4132 N   0  0  0  0  0  0  0  0  0  0  0  0
   26.5741  -12.1656  -16.5686 C   0  0  0  0  0  0  0  0  0  0  0  0
   26.9950  -12.4489  -17.7071 O   0  0  0  0  0  0  0  0  0  0  0  0
   25.2277  -11.6159  -16.3823 C   0  0  0  0  0  0  0  0  0  0  0  0
   25.0139  -10.4102  -17.2308 C   0  0  2  0  0  0  0  0  0  0  0  0
   25.9804   -9.3839  -16.7455 N   0  0  0  0  0  0  0  0  0  0  0  0
   23.6394   -9.8147  -17.0794 C   0  0  0  0  0  0  0  0  0  0  0  0
   22.5762  -10.3726  -17.4034 O   0  0  0  0  0  0  0  0  0  0  0  0
   23.4895   -8.4964  -16.5200 N   0  0  0  0  0  0  0  0  0  0  0  0
   22.1382   -7.9219  -16.3364 C   0  0  1  0  0  0  0  0  0  0  0  0
   21.6420   -8.2213  -14.9724 C   0  0  0  0  0  0  0  0  0  0  0  0
   20.9175   -9.4820  -14.7829 C   0  0  0  0  0  0  0  0  0  0  0  0
   20.6389  -10.4493  -15.7354 C   0  0  0  0  0  0  0  0  0  0  0  0
   19.9175  -11.4262  -15.1462 N   0  0  0  0  0  0  0  0  0  0  0  0
   19.7367  -11.1032  -13.8619 C   0  0  0  0  0  0  0  0  0  0  0  0
   20.3390   -9.9326  -13.6443 N   0  0  0  0  0  0  0  0  0  0  0  0
   22.0822   -6.5515  -16.8196 C   0  0  0  0  0  0  0  0  0  0  0  0
   23.0280   -5.7605  -16.4331 O   0  0  0  0  0  0  0  0  0  0  0  0
   20.2336   -4.1990  -19.1148 C   0  0  0  0  0  0  0  0  0  0  0  0
   21.1597   -4.5216  -17.9463 C   0  0  2  0  0  0  0  0  0  0  0  0
   21.1410   -5.9474  -17.6627 N   0  0  0  0  0  0  0  0  0  0  0  0
   20.8388   -3.6837  -16.7798 C   0  0  0  0  0  0  0  0  0  0  0  0
   21.2283   -2.3645  -16.6376 O   0  0  0  0  0  0  0  0  0  0  0  0
   20.1573   -4.1712  -15.8131 O   0  0  0  0  0  0  0  0  0  0  0  0
  1  2  1  0
  2  3  2  0
  4  5  1  0
  4  2  1  0
  5  6  1  1
  7  8  2  0
  7  5  1  0
  9  7  1  0
 10 11  1  1
 10  9  1  0
 11 12  1  0
 12 13  2  0
 12 16  1  0
 13 14  1  0
 14 15  1  0
 16 15  2  0
 17 21  1  0
 17 10  1  0
 18 17  2  0
 20 21  1  0
 20 19  1  6
 22 20  1  0
 23 22  1  0
 24 22  2  0
M  END
$$$$
