DKI.pdb
     RDKit          3D

 26 25  0  0  1  0  0  0  0  0999 V2000
   10.4838  -16.8346   19.0047 N   0  0  0  0  0  0  0  0  0  0  0  0
   10.0049  -15.5566   19.4457 C   0  0  1  0  0  0  0  0  0  0  0  0
    9.2161  -14.9124   18.3246 C   0  0  0  0  0  0  0  0  0  0  0  0
   10.0229  -14.7525   17.0896 C   0  0  0  0  0  0  0  0  0  0  0  0
   11.2321  -15.1041   17.0325 O   0  0  0  0  0  0  0  0  0  0  0  0
    9.2379  -15.6888   20.6945 C   0  0  0  0  0  0  0  0  0  0  0  0
    8.5212  -14.7173   21.0913 O   0  0  0  0  0  0  0  0  0  0  0  0
    9.4729  -14.2062   15.9438 O   0  0  0  0  0  0  0  0  0  0  0  0
    9.2466  -16.8541   21.4988 N   0  0  0  0  0  0  0  0  0  0  0  0
    8.4120  -17.0518   22.6669 C   0  0  1  0  0  0  0  0  0  0  0  0
    8.4211  -18.5044   23.0296 C   0  0  0  0  0  0  0  0  0  0  0  0
    7.3080  -18.9577   23.9078 C   0  0  0  0  0  0  0  0  0  0  0  0
    6.1482  -19.4312   23.0866 C   0  0  0  0  0  0  0  0  0  0  0  0
    5.0468  -19.9365   23.9949 C   0  0  0  0  0  0  0  0  0  0  0  0
    3.8706  -20.2432   23.2095 N   0  0  0  0  0  0  0  0  0  0  0  0
    8.9778  -16.2972   23.8312 C   0  0  0  0  0  0  0  0  0  0  0  0
   10.2055  -16.2247   24.0017 O   0  0  0  0  0  0  0  0  0  0  0  0
    6.1442  -11.9858   25.4705 C   0  0  0  0  0  0  0  0  0  0  0  0
    7.2423  -12.9839   25.0776 C   0  0  0  0  0  0  0  0  0  0  0  0
    7.5717  -13.8870   26.2401 C   0  0  2  0  0  0  0  0  0  0  0  0
    7.9735  -13.0969   27.4679 C   0  0  0  0  0  0  0  0  0  0  0  0
    8.5685  -14.9505   25.9431 C   0  0  2  0  0  0  0  0  0  0  0  0
    8.1207  -15.6529   24.7584 N   0  0  0  0  0  0  0  0  0  0  0  0
    8.9038  -15.8466   27.0470 C   0  0  0  0  0  0  0  0  0  0  0  0
    9.9796  -15.6675   27.9145 O   0  0  0  0  0  0  0  0  0  0  0  0
    8.1962  -16.8634   27.2637 O   0  0  0  0  0  0  0  0  0  0  0  0
  2  1  1  6
  2  3  1  0
  3  4  1  0
  4  8  1  0
  5  4  2  0
  6  7  2  0
  6  2  1  0
  9  6  1  0
 10  9  1  0
 10 11  1  1
 11 12  1  0
 13 12  1  0
 13 14  1  0
 14 15  1  0
 16 10  1  0
 17 16  2  0
 19 18  1  0
 19 20  1  0
 20 22  1  0
 20 21  1  1
 22 24  1  0
 22 23  1  6
 23 16  1  0
 24 25  1  0
 26 24  2  0
M  END
$$$$
