DKI.pdb
     RDKit          3D

 26 25  0  0  1  0  0  0  0  0999 V2000
   12.1151  -16.7856   19.8249 N   0  0  0  0  0  0  0  0  0  0  0  0
   11.9419  -15.4990   20.4347 C   0  0  1  0  0  0  0  0  0  0  0  0
   11.9503  -14.4368   19.3549 C   0  0  0  0  0  0  0  0  0  0  0  0
   13.2811  -14.2980   18.7137 C   0  0  0  0  0  0  0  0  0  0  0  0
   13.9815  -15.3000   18.4064 O   0  0  0  0  0  0  0  0  0  0  0  0
   10.7273  -15.4738   21.2650 C   0  0  0  0  0  0  0  0  0  0  0  0
   10.3550  -14.3788   21.7915 O   0  0  0  0  0  0  0  0  0  0  0  0
   13.8082  -13.0516   18.4264 O   0  0  0  0  0  0  0  0  0  0  0  0
    9.9293  -16.6155   21.5196 N   0  0  0  0  0  0  0  0  0  0  0  0
    8.6986  -16.6032   22.2845 C   0  0  1  0  0  0  0  0  0  0  0  0
    8.0893  -17.9702   22.2457 C   0  0  0  0  0  0  0  0  0  0  0  0
    6.7948  -18.1210   22.9647 C   0  0  0  0  0  0  0  0  0  0  0  0
    6.2291  -19.4913   22.7501 C   0  0  0  0  0  0  0  0  0  0  0  0
    4.8292  -19.5656   23.3226 C   0  0  0  0  0  0  0  0  0  0  0  0
    4.2639  -20.8715   23.0586 N   0  0  0  0  0  0  0  0  0  0  0  0
    8.9932  -16.2861   23.7190 C   0  0  0  0  0  0  0  0  0  0  0  0
   10.0547  -16.6589   24.2443 O   0  0  0  0  0  0  0  0  0  0  0  0
    6.4516  -11.7796   25.3560 C   0  0  0  0  0  0  0  0  0  0  0  0
    7.5204  -12.8507   25.0971 C   0  0  0  0  0  0  0  0  0  0  0  0
    7.4200  -13.9518   26.1233 C   0  0  2  0  0  0  0  0  0  0  0  0
    7.6191  -13.4273   27.5300 C   0  0  0  0  0  0  0  0  0  0  0  0
    8.2938  -15.1279   25.8662 C   0  0  2  0  0  0  0  0  0  0  0  0
    8.0646  -15.5547   24.5014 N   0  0  0  0  0  0  0  0  0  0  0  0
    8.2033  -16.2216   26.8305 C   0  0  0  0  0  0  0  0  0  0  0  0
    9.1198  -16.4535   27.8542 O   0  0  0  0  0  0  0  0  0  0  0  0
    7.2451  -17.0336   26.7665 O   0  0  0  0  0  0  0  0  0  0  0  0
  2  1  1  6
  2  3  1  0
  3  4  1  0
  4  8  1  0
  5  4  2  0
  6  7  2  0
  6  2  1  0
  9  6  1  0
 10  9  1  0
 10 11  1  1
 11 12  1  0
 13 12  1  0
 13 14  1  0
 14 15  1  0
 16 10  1  0
 17 16  2  0
 19 18  1  0
 19 20  1  0
 20 22  1  0
 20 21  1  1
 22 24  1  0
 22 23  1  6
 23 16  1  0
 24 25  1  0
 26 24  2  0
M  END
$$$$
