DKI.pdb
     RDKit          3D

 26 25  0  0  1  0  0  0  0  0999 V2000
   10.9584  -16.9309   19.6151 N   0  0  0  0  0  0  0  0  0  0  0  0
   11.6071  -16.5664   20.8413 C   0  0  1  0  0  0  0  0  0  0  0  0
   12.3784  -15.2806   20.6273 C   0  0  0  0  0  0  0  0  0  0  0  0
   13.5302  -15.4623   19.7097 C   0  0  0  0  0  0  0  0  0  0  0  0
   13.5917  -14.8810   18.5929 O   0  0  0  0  0  0  0  0  0  0  0  0
   10.6344  -16.4841   21.9424 C   0  0  0  0  0  0  0  0  0  0  0  0
    9.7738  -15.5490   21.9449 O   0  0  0  0  0  0  0  0  0  0  0  0
   14.5898  -16.2846   20.0488 O   0  0  0  0  0  0  0  0  0  0  0  0
   10.5944  -17.3999   23.0216 N   0  0  0  0  0  0  0  0  0  0  0  0
    9.6102  -17.3734   24.0848 C   0  0  1  0  0  0  0  0  0  0  0  0
    9.4209  -18.7643   24.6057 C   0  0  0  0  0  0  0  0  0  0  0  0
    8.8380  -19.7401   23.6446 C   0  0  0  0  0  0  0  0  0  0  0  0
    8.8116  -21.1144   24.2398 C   0  0  0  0  0  0  0  0  0  0  0  0
    8.2165  -22.0930   23.2490 C   0  0  0  0  0  0  0  0  0  0  0  0
    9.1458  -22.3096   22.1609 N   0  0  0  0  0  0  0  0  0  0  0  0
   10.1103  -16.5351   25.2216 C   0  0  0  0  0  0  0  0  0  0  0  0
   11.3234  -16.4790   25.4805 O   0  0  0  0  0  0  0  0  0  0  0  0
    6.7617  -12.4234   26.4676 C   0  0  0  0  0  0  0  0  0  0  0  0
    7.9881  -13.2846   26.1344 C   0  0  0  0  0  0  0  0  0  0  0  0
    8.4934  -13.9807   27.3736 C   0  0  2  0  0  0  0  0  0  0  0  0
    8.8685  -12.9929   28.4584 C   0  0  0  0  0  0  0  0  0  0  0  0
    9.5926  -14.9553   27.1392 C   0  0  2  0  0  0  0  0  0  0  0  0
    9.2067  -15.7912   26.0213 N   0  0  0  0  0  0  0  0  0  0  0  0
   10.0331  -15.7223   28.3019 C   0  0  0  0  0  0  0  0  0  0  0  0
   11.0549  -15.3345   29.1664 O   0  0  0  0  0  0  0  0  0  0  0  0
    9.4763  -16.8159   28.5768 O   0  0  0  0  0  0  0  0  0  0  0  0
  2  1  1  6
  2  3  1  0
  3  4  1  0
  4  8  1  0
  5  4  2  0
  6  7  2  0
  6  2  1  0
  9  6  1  0
 10  9  1  0
 10 11  1  1
 11 12  1  0
 13 12  1  0
 13 14  1  0
 14 15  1  0
 16 10  1  0
 17 16  2  0
 19 18  1  0
 19 20  1  0
 20 22  1  0
 20 21  1  1
 22 24  1  0
 22 23  1  6
 23 16  1  0
 24 25  1  0
 26 24  2  0
M  END
$$$$
