DKI.pdb
     RDKit          3D

 26 25  0  0  1  0  0  0  0  0999 V2000
    8.7850  -16.1215   19.1588 N   0  0  0  0  0  0  0  0  0  0  0  0
    8.4324  -14.9243   19.8658 C   0  0  1  0  0  0  0  0  0  0  0  0
    7.4931  -14.1034   19.0068 C   0  0  0  0  0  0  0  0  0  0  0  0
    7.6042  -14.4457   17.5673 C   0  0  0  0  0  0  0  0  0  0  0  0
    7.0022  -13.7875   16.6766 O   0  0  0  0  0  0  0  0  0  0  0  0
    7.8781  -15.2443   21.1907 C   0  0  0  0  0  0  0  0  0  0  0  0
    7.3477  -14.3206   21.8839 O   0  0  0  0  0  0  0  0  0  0  0  0
    8.3800  -15.5104   17.1449 O   0  0  0  0  0  0  0  0  0  0  0  0
    7.8974  -16.5431   21.7545 N   0  0  0  0  0  0  0  0  0  0  0  0
    7.3706  -16.8785   23.0621 C   0  0  1  0  0  0  0  0  0  0  0  0
    7.4256  -18.3640   23.2410 C   0  0  0  0  0  0  0  0  0  0  0  0
    6.9233  -18.8765   24.5451 C   0  0  0  0  0  0  0  0  0  0  0  0
    7.1029  -20.3610   24.6325 C   0  0  0  0  0  0  0  0  0  0  0  0
    6.4512  -20.8848   25.8950 C   0  0  0  0  0  0  0  0  0  0  0  0
    6.7928  -22.2793   26.0767 N   0  0  0  0  0  0  0  0  0  0  0  0
    8.2279  -16.2683   24.1289 C   0  0  0  0  0  0  0  0  0  0  0  0
    9.4660  -16.3099   24.0463 O   0  0  0  0  0  0  0  0  0  0  0  0
    6.2772  -11.7093   25.9720 C   0  0  0  0  0  0  0  0  0  0  0  0
    7.1863  -12.8488   25.4906 C   0  0  0  0  0  0  0  0  0  0  0  0
    7.5941  -13.7215   26.6514 C   0  0  2  0  0  0  0  0  0  0  0  0
    8.3028  -12.9272   27.7285 C   0  0  0  0  0  0  0  0  0  0  0  0
    8.3777  -14.9303   26.2802 C   0  0  2  0  0  0  0  0  0  0  0  0
    7.6396  -15.6326   25.2510 N   0  0  0  0  0  0  0  0  0  0  0  0
    8.7876  -15.7968   27.3826 C   0  0  0  0  0  0  0  0  0  0  0  0
    9.9904  -15.6812   28.0765 O   0  0  0  0  0  0  0  0  0  0  0  0
    8.0293  -16.7251   27.7631 O   0  0  0  0  0  0  0  0  0  0  0  0
  2  1  1  6
  2  3  1  0
  3  4  1  0
  4  8  1  0
  5  4  2  0
  6  7  2  0
  6  2  1  0
  9  6  1  0
 10  9  1  0
 10 11  1  1
 11 12  1  0
 13 12  1  0
 13 14  1  0
 14 15  1  0
 16 10  1  0
 17 16  2  0
 19 18  1  0
 19 20  1  0
 20 22  1  0
 20 21  1  1
 22 24  1  0
 22 23  1  6
 23 16  1  0
 24 25  1  0
 26 24  2  0
M  END
$$$$
