DKI.pdb
     RDKit          3D

 26 25  0  0  1  0  0  0  0  0999 V2000
    8.2014  -18.5048   20.9476 N   0  0  0  0  0  0  0  0  0  0  0  0
    9.5864  -18.1367   20.8887 C   0  0  1  0  0  0  0  0  0  0  0  0
   10.1528  -18.5621   19.5500 C   0  0  0  0  0  0  0  0  0  0  0  0
    9.8897  -19.9928   19.2576 C   0  0  0  0  0  0  0  0  0  0  0  0
   10.1267  -20.9004   20.0996 O   0  0  0  0  0  0  0  0  0  0  0  0
    9.7572  -16.7009   21.1621 C   0  0  0  0  0  0  0  0  0  0  0  0
   10.9226  -16.1952   21.1316 O   0  0  0  0  0  0  0  0  0  0  0  0
    9.3694  -20.3879   18.0381 O   0  0  0  0  0  0  0  0  0  0  0  0
    8.6834  -15.8281   21.4623 N   0  0  0  0  0  0  0  0  0  0  0  0
    8.8061  -14.3902   21.5936 C   0  0  1  0  0  0  0  0  0  0  0  0
    7.5315  -13.7507   21.1375 C   0  0  0  0  0  0  0  0  0  0  0  0
    7.6041  -13.0155   19.8453 C   0  0  0  0  0  0  0  0  0  0  0  0
    7.8857  -13.9596   18.7170 C   0  0  0  0  0  0  0  0  0  0  0  0
    7.9426  -13.1969   17.4099 C   0  0  0  0  0  0  0  0  0  0  0  0
    8.2087  -14.1140   16.3224 N   0  0  0  0  0  0  0  0  0  0  0  0
    8.9988  -14.0245   23.0339 C   0  0  0  0  0  0  0  0  0  0  0  0
    9.2333  -12.8503   23.3625 O   0  0  0  0  0  0  0  0  0  0  0  0
    6.5351  -12.2036   27.1852 C   0  0  0  0  0  0  0  0  0  0  0  0
    7.8040  -13.0478   27.0009 C   0  0  0  0  0  0  0  0  0  0  0  0
    7.7162  -13.8578   25.7315 C   0  0  2  0  0  0  0  0  0  0  0  0
    6.4236  -14.6432   25.6555 C   0  0  0  0  0  0  0  0  0  0  0  0
    8.8876  -14.7359   25.4675 C   0  0  2  0  0  0  0  0  0  0  0  0
    8.9165  -15.0132   24.0464 N   0  0  0  0  0  0  0  0  0  0  0  0
    8.9884  -15.9406   26.2876 C   0  0  0  0  0  0  0  0  0  0  0  0
    9.4750  -15.9723   27.5930 O   0  0  0  0  0  0  0  0  0  0  0  0
    8.6202  -17.0481   25.8193 O   0  0  0  0  0  0  0  0  0  0  0  0
  2  1  1  6
  2  3  1  0
  3  4  1  0
  4  8  1  0
  5  4  2  0
  6  7  2  0
  6  2  1  0
  9  6  1  0
 10  9  1  0
 10 11  1  1
 11 12  1  0
 13 12  1  0
 13 14  1  0
 14 15  1  0
 16 10  1  0
 17 16  2  0
 19 18  1  0
 19 20  1  0
 20 22  1  0
 20 21  1  1
 22 24  1  0
 22 23  1  6
 23 16  1  0
 24 25  1  0
 26 24  2  0
M  END
$$$$
