DKI.pdb
     RDKit          3D

 26 25  0  0  1  0  0  0  0  0999 V2000
    8.7010  -17.0792   18.9337 N   0  0  0  0  0  0  0  0  0  0  0  0
    8.4252  -15.7257   19.3197 C   0  0  1  0  0  0  0  0  0  0  0  0
    7.5963  -15.0641   18.2383 C   0  0  0  0  0  0  0  0  0  0  0  0
    7.9755  -15.5238   16.8795 C   0  0  0  0  0  0  0  0  0  0  0  0
    8.7648  -16.4898   16.6980 O   0  0  0  0  0  0  0  0  0  0  0  0
    7.7917  -15.6799   20.6471 C   0  0  0  0  0  0  0  0  0  0  0  0
    7.3201  -14.5801   21.0748 O   0  0  0  0  0  0  0  0  0  0  0  0
    7.4721  -14.9035   15.7500 O   0  0  0  0  0  0  0  0  0  0  0  0
    7.6706  -16.8068   21.4959 N   0  0  0  0  0  0  0  0  0  0  0  0
    7.0148  -16.7947   22.7880 C   0  0  1  0  0  0  0  0  0  0  0  0
    6.8019  -18.2070   23.2374 C   0  0  0  0  0  0  0  0  0  0  0  0
    5.6714  -18.9272   22.5902 C   0  0  0  0  0  0  0  0  0  0  0  0
    6.1641  -20.1488   21.8771 C   0  0  0  0  0  0  0  0  0  0  0  0
    4.9964  -20.8917   21.2621 C   0  0  0  0  0  0  0  0  0  0  0  0
    5.4863  -22.0058   20.4791 N   0  0  0  0  0  0  0  0  0  0  0  0
    7.8973  -16.1319   23.8015 C   0  0  0  0  0  0  0  0  0  0  0  0
    9.1330  -16.2214   23.7193 O   0  0  0  0  0  0  0  0  0  0  0  0
    7.1344  -11.0195   26.9913 C   0  0  0  0  0  0  0  0  0  0  0  0
    8.0430  -12.2394   26.7836 C   0  0  0  0  0  0  0  0  0  0  0  0
    7.3256  -13.2986   25.9844 C   0  0  2  0  0  0  0  0  0  0  0  0
    5.9498  -13.5897   26.5464 C   0  0  0  0  0  0  0  0  0  0  0  0
    8.0936  -14.5564   25.7814 C   0  0  2  0  0  0  0  0  0  0  0  0
    7.3363  -15.3908   24.8717 N   0  0  0  0  0  0  0  0  0  0  0  0
    8.5095  -15.2605   26.9919 C   0  0  0  0  0  0  0  0  0  0  0  0
    9.5946  -14.8971   27.7870 O   0  0  0  0  0  0  0  0  0  0  0  0
    7.8690  -16.2715   27.3782 O   0  0  0  0  0  0  0  0  0  0  0  0
  2  1  1  6
  2  3  1  0
  3  4  1  0
  4  8  1  0
  5  4  2  0
  6  7  2  0
  6  2  1  0
  9  6  1  0
 10  9  1  0
 10 11  1  1
 11 12  1  0
 13 12  1  0
 13 14  1  0
 14 15  1  0
 16 10  1  0
 17 16  2  0
 19 18  1  0
 19 20  1  0
 20 22  1  0
 20 21  1  1
 22 24  1  0
 22 23  1  6
 23 16  1  0
 24 25  1  0
 26 24  2  0
M  END
$$$$
