DKI.pdb
     RDKit          3D

 26 25  0  0  1  0  0  0  0  0999 V2000
    9.2905  -18.5458   20.0597 N   0  0  0  0  0  0  0  0  0  0  0  0
    8.9091  -17.1704   19.9179 C   0  0  1  0  0  0  0  0  0  0  0  0
    8.2365  -16.9816   18.5740 C   0  0  0  0  0  0  0  0  0  0  0  0
    9.1604  -17.2404   17.4421 C   0  0  0  0  0  0  0  0  0  0  0  0
    9.1091  -18.3050   16.7690 O   0  0  0  0  0  0  0  0  0  0  0  0
    8.0743  -16.7405   21.0509 C   0  0  0  0  0  0  0  0  0  0  0  0
    7.5929  -15.5645   21.0591 O   0  0  0  0  0  0  0  0  0  0  0  0
   10.1218  -16.3141   17.0797 O   0  0  0  0  0  0  0  0  0  0  0  0
    7.7659  -17.5710   22.1555 N   0  0  0  0  0  0  0  0  0  0  0  0
    7.0060  -17.1475   23.3144 C   0  0  1  0  0  0  0  0  0  0  0  0
    6.4294  -18.3557   23.9847 C   0  0  0  0  0  0  0  0  0  0  0  0
    7.3348  -19.0631   24.9310 C   0  0  0  0  0  0  0  0  0  0  0  0
    6.6901  -20.3154   25.4407 C   0  0  0  0  0  0  0  0  0  0  0  0
    7.6084  -21.0007   26.4309 C   0  0  0  0  0  0  0  0  0  0  0  0
    8.7823  -21.4955   25.7441 N   0  0  0  0  0  0  0  0  0  0  0  0
    7.9130  -16.4789   24.3021 C   0  0  0  0  0  0  0  0  0  0  0  0
    9.1119  -16.7937   24.3740 O   0  0  0  0  0  0  0  0  0  0  0  0
    5.9031  -11.6014   25.8596 C   0  0  0  0  0  0  0  0  0  0  0  0
    6.8851  -12.6545   25.3274 C   0  0  0  0  0  0  0  0  0  0  0  0
    7.4280  -13.4874   26.4618 C   0  0  2  0  0  0  0  0  0  0  0  0
    8.1792  -12.6419   27.4689 C   0  0  0  0  0  0  0  0  0  0  0  0
    8.2399  -14.6614   26.0430 C   0  0  2  0  0  0  0  0  0  0  0  0
    7.4176  -15.4750   25.1716 N   0  0  0  0  0  0  0  0  0  0  0  0
    8.8676  -15.4276   27.1169 C   0  0  0  0  0  0  0  0  0  0  0  0
    8.3761  -16.6280   27.6259 O   0  0  0  0  0  0  0  0  0  0  0  0
    9.9284  -15.0081   27.6464 O   0  0  0  0  0  0  0  0  0  0  0  0
  2  1  1  1
  2  3  1  0
  3  4  1  0
  4  8  1  0
  5  4  2  0
  6  7  2  0
  6  2  1  0
  9  6  1  0
 10  9  1  0
 10 11  1  1
 11 12  1  0
 13 12  1  0
 13 14  1  0
 14 15  1  0
 16 10  1  0
 17 16  2  0
 19 18  1  0
 19 20  1  0
 20 22  1  0
 20 21  1  1
 22 24  1  0
 22 23  1  1
 23 16  1  0
 24 25  1  0
 26 24  2  0
M  END
$$$$
