DKI.pdb
     RDKit          3D

 26 25  0  0  1  0  0  0  0  0999 V2000
   10.5031  -18.8299   20.2465 N   0  0  0  0  0  0  0  0  0  0  0  0
   10.1031  -17.4701   20.0266 C   0  0  1  0  0  0  0  0  0  0  0  0
    9.6001  -17.3283   18.6050 C   0  0  0  0  0  0  0  0  0  0  0  0
   10.7035  -17.3551   17.6133 C   0  0  0  0  0  0  0  0  0  0  0  0
   11.9067  -17.5055   17.9578 O   0  0  0  0  0  0  0  0  0  0  0  0
    9.1202  -17.0452   21.0359 C   0  0  0  0  0  0  0  0  0  0  0  0
    8.5615  -15.9095   20.9219 O   0  0  0  0  0  0  0  0  0  0  0  0
   10.4505  -17.2147   16.2605 O   0  0  0  0  0  0  0  0  0  0  0  0
    8.7486  -17.8377   22.1489 N   0  0  0  0  0  0  0  0  0  0  0  0
    7.7968  -17.4330   23.1638 C   0  0  1  0  0  0  0  0  0  0  0  0
    7.3504  -18.6447   23.9214 C   0  0  0  0  0  0  0  0  0  0  0  0
    6.4155  -19.5500   23.1989 C   0  0  0  0  0  0  0  0  0  0  0  0
    6.0965  -20.7527   24.0329 C   0  0  0  0  0  0  0  0  0  0  0  0
    5.2199  -21.7057   23.2475 C   0  0  0  0  0  0  0  0  0  0  0  0
    5.0067  -22.9146   24.0139 N   0  0  0  0  0  0  0  0  0  0  0  0
    8.4575  -16.5119   24.1439 C   0  0  0  0  0  0  0  0  0  0  0  0
    9.6427  -16.6822   24.4722 O   0  0  0  0  0  0  0  0  0  0  0  0
    6.6446  -11.1984   26.8216 C   0  0  0  0  0  0  0  0  0  0  0  0
    7.7629  -12.2400   26.6764 C   0  0  0  0  0  0  0  0  0  0  0  0
    7.2658  -13.4412   25.9113 C   0  0  2  0  0  0  0  0  0  0  0  0
    6.0086  -14.0180   26.5279 C   0  0  0  0  0  0  0  0  0  0  0  0
    8.2824  -14.5035   25.6855 C   0  0  2  0  0  0  0  0  0  0  0  0
    7.7403  -15.4298   24.7131 N   0  0  0  0  0  0  0  0  0  0  0  0
    8.7994  -15.1659   26.8805 C   0  0  0  0  0  0  0  0  0  0  0  0
    9.8909  -14.7211   27.6238 O   0  0  0  0  0  0  0  0  0  0  0  0
    8.2482  -16.2150   27.3014 O   0  0  0  0  0  0  0  0  0  0  0  0
  2  1  1  1
  2  3  1  0
  3  4  1  0
  4  8  1  0
  5  4  2  0
  6  7  2  0
  6  2  1  0
  9  6  1  0
 10  9  1  0
 10 11  1  1
 11 12  1  0
 13 12  1  0
 13 14  1  0
 14 15  1  0
 16 10  1  0
 17 16  2  0
 19 18  1  0
 19 20  1  0
 20 22  1  0
 20 21  1  1
 22 24  1  0
 22 23  1  6
 23 16  1  0
 24 25  1  0
 26 24  2  0
M  END
$$$$
