DKI.pdb
     RDKit          3D

 26 25  0  0  1  0  0  0  0  0999 V2000
    9.1586  -17.2552   19.3028 N   0  0  0  0  0  0  0  0  0  0  0  0
    8.4043  -16.0549   19.5206 C   0  0  1  0  0  0  0  0  0  0  0  0
    7.4042  -15.8906   18.3950 C   0  0  0  0  0  0  0  0  0  0  0  0
    8.0631  -15.7682   17.0712 C   0  0  0  0  0  0  0  0  0  0  0  0
    8.5023  -16.7728   16.4492 O   0  0  0  0  0  0  0  0  0  0  0  0
    7.7821  -16.0638   20.8540 C   0  0  0  0  0  0  0  0  0  0  0  0
    7.0330  -15.0968   21.1984 O   0  0  0  0  0  0  0  0  0  0  0  0
    8.2217  -14.5352   16.4643 O   0  0  0  0  0  0  0  0  0  0  0  0
    7.9678  -17.1032   21.7975 N   0  0  0  0  0  0  0  0  0  0  0  0
    7.4326  -17.0950   23.1441 C   0  0  1  0  0  0  0  0  0  0  0  0
    7.6991  -18.4238   23.7804 C   0  0  0  0  0  0  0  0  0  0  0  0
    7.3071  -18.5450   25.2113 C   0  0  0  0  0  0  0  0  0  0  0  0
    7.6915  -19.8883   25.7510 C   0  0  0  0  0  0  0  0  0  0  0  0
    7.1565  -20.0497   27.1585 C   0  0  0  0  0  0  0  0  0  0  0  0
    7.6519  -21.2839   27.7291 N   0  0  0  0  0  0  0  0  0  0  0  0
    8.1354  -16.0575   23.9656 C   0  0  0  0  0  0  0  0  0  0  0  0
    9.3677  -15.9231   23.8957 O   0  0  0  0  0  0  0  0  0  0  0  0
    6.4175  -10.7269   26.4342 C   0  0  0  0  0  0  0  0  0  0  0  0
    7.5142  -11.8005   26.4011 C   0  0  0  0  0  0  0  0  0  0  0  0
    7.0107  -13.0447   25.7128 C   0  0  2  0  0  0  0  0  0  0  0  0
    5.6922  -13.5120   26.2929 C   0  0  0  0  0  0  0  0  0  0  0  0
    7.9892  -14.1635   25.6486 C   0  0  2  0  0  0  0  0  0  0  0  0
    7.4049  -15.2111   24.8371 N   0  0  0  0  0  0  0  0  0  0  0  0
    8.4991  -14.6485   26.9287 C   0  0  0  0  0  0  0  0  0  0  0  0
    9.5101  -14.0326   27.6638 O   0  0  0  0  0  0  0  0  0  0  0  0
    8.0180  -15.6930   27.4379 O   0  0  0  0  0  0  0  0  0  0  0  0
  2  1  1  6
  2  3  1  0
  3  4  1  0
  4  8  1  0
  5  4  2  0
  6  7  2  0
  6  2  1  0
  9  6  1  0
 10  9  1  0
 10 11  1  1
 11 12  1  0
 13 12  1  0
 13 14  1  0
 14 15  1  0
 16 10  1  0
 17 16  2  0
 19 18  1  0
 19 20  1  0
 20 22  1  0
 20 21  1  1
 22 24  1  0
 22 23  1  1
 23 16  1  0
 24 25  1  0
 26 24  2  0
M  END
$$$$
