DKI.pdb
     RDKit          3D

 26 25  0  0  1  0  0  0  0  0999 V2000
    8.8932  -16.9542   19.3086 N   0  0  0  0  0  0  0  0  0  0  0  0
    8.2009  -15.7723   19.7343 C   0  0  1  0  0  0  0  0  0  0  0  0
    7.1283  -15.4370   18.7188 C   0  0  0  0  0  0  0  0  0  0  0  0
    7.5497  -15.7522   17.3315 C   0  0  0  0  0  0  0  0  0  0  0  0
    8.1287  -16.8331   17.0394 O   0  0  0  0  0  0  0  0  0  0  0  0
    7.6773  -15.9370   21.0996 C   0  0  0  0  0  0  0  0  0  0  0  0
    7.0122  -14.9929   21.6299 O   0  0  0  0  0  0  0  0  0  0  0  0
    7.3209  -14.8629   16.2968 O   0  0  0  0  0  0  0  0  0  0  0  0
    7.8703  -17.1050   21.8764 N   0  0  0  0  0  0  0  0  0  0  0  0
    7.4413  -17.2563   23.2522 C   0  0  1  0  0  0  0  0  0  0  0  0
    7.5942  -18.6906   23.6534 C   0  0  0  0  0  0  0  0  0  0  0  0
    7.2078  -19.0142   25.0540 C   0  0  0  0  0  0  0  0  0  0  0  0
    7.3863  -20.4764   25.3255 C   0  0  0  0  0  0  0  0  0  0  0  0
    6.8286  -20.8181   26.6914 C   0  0  0  0  0  0  0  0  0  0  0  0
    6.9197  -22.2456   26.9112 N   0  0  0  0  0  0  0  0  0  0  0  0
    8.3216  -16.4444   24.1529 C   0  0  0  0  0  0  0  0  0  0  0  0
    9.5404  -16.3548   23.9334 O   0  0  0  0  0  0  0  0  0  0  0  0
    6.3374  -11.8050   25.6723 C   0  0  0  0  0  0  0  0  0  0  0  0
    7.3169  -12.9162   25.2691 C   0  0  0  0  0  0  0  0  0  0  0  0
    7.7198  -13.7251   26.4770 C   0  0  2  0  0  0  0  0  0  0  0  0
    8.3865  -12.8656   27.5307 C   0  0  0  0  0  0  0  0  0  0  0  0
    8.5392  -14.9301   26.1779 C   0  0  2  0  0  0  0  0  0  0  0  0
    7.7777  -15.7643   25.2714 N   0  0  0  0  0  0  0  0  0  0  0  0
    9.0550  -15.6620   27.3322 C   0  0  0  0  0  0  0  0  0  0  0  0
   10.2735  -15.4014   27.9559 O   0  0  0  0  0  0  0  0  0  0  0  0
    8.3819  -16.6012   27.8285 O   0  0  0  0  0  0  0  0  0  0  0  0
  2  1  1  6
  2  3  1  0
  3  4  1  0
  4  8  1  0
  5  4  2  0
  6  7  2  0
  6  2  1  0
  9  6  1  0
 10  9  1  0
 10 11  1  1
 11 12  1  0
 13 12  1  0
 13 14  1  0
 14 15  1  0
 16 10  1  0
 17 16  2  0
 19 18  1  0
 19 20  1  0
 20 22  1  0
 20 21  1  1
 22 24  1  0
 22 23  1  1
 23 16  1  0
 24 25  1  0
 26 24  2  0
M  END
$$$$
