DKI.pdb
     RDKit          3D

 26 25  0  0  1  0  0  0  0  0999 V2000
    7.6042  -13.4771   18.5324 N   0  0  0  0  0  0  0  0  0  0  0  0
    8.5645  -14.1560   19.3535 C   0  0  1  0  0  0  0  0  0  0  0  0
    9.7930  -13.2822   19.4997 C   0  0  0  0  0  0  0  0  0  0  0  0
   10.8047  -13.5547   18.4491 C   0  0  0  0  0  0  0  0  0  0  0  0
   10.5098  -14.1483   17.3769 O   0  0  0  0  0  0  0  0  0  0  0  0
    7.9692  -14.5422   20.6426 C   0  0  0  0  0  0  0  0  0  0  0  0
    7.3210  -13.6790   21.3130 O   0  0  0  0  0  0  0  0  0  0  0  0
   12.1221  -13.1638   18.6086 O   0  0  0  0  0  0  0  0  0  0  0  0
    8.0740  -15.8416   21.1952 N   0  0  0  0  0  0  0  0  0  0  0  0
    7.4325  -16.2658   22.4234 C   0  0  1  0  0  0  0  0  0  0  0  0
    7.4756  -17.7602   22.5024 C   0  0  0  0  0  0  0  0  0  0  0  0
    7.0207  -18.3523   23.7901 C   0  0  0  0  0  0  0  0  0  0  0  0
    6.9776  -19.8467   23.6971 C   0  0  0  0  0  0  0  0  0  0  0  0
    6.3497  -20.4224   24.9491 C   0  0  0  0  0  0  0  0  0  0  0  0
    6.3354  -21.8671   24.8664 N   0  0  0  0  0  0  0  0  0  0  0  0
    8.1882  -15.7342   23.6030 C   0  0  0  0  0  0  0  0  0  0  0  0
    9.4269  -15.6533   23.5766 O   0  0  0  0  0  0  0  0  0  0  0  0
    5.5408  -11.9618   26.3714 C   0  0  0  0  0  0  0  0  0  0  0  0
    6.6256  -12.7812   25.6583 C   0  0  0  0  0  0  0  0  0  0  0  0
    7.1905  -13.8263   26.5877 C   0  0  2  0  0  0  0  0  0  0  0  0
    7.7949  -13.2049   27.8295 C   0  0  0  0  0  0  0  0  0  0  0  0
    8.1411  -14.7790   25.9538 C   0  0  2  0  0  0  0  0  0  0  0  0
    7.5015  -15.3143   24.7699 N   0  0  0  0  0  0  0  0  0  0  0  0
    8.6926  -15.8147   26.8241 C   0  0  0  0  0  0  0  0  0  0  0  0
    9.8846  -15.6993   27.5364 O   0  0  0  0  0  0  0  0  0  0  0  0
    8.0784  -16.9027   26.9676 O   0  0  0  0  0  0  0  0  0  0  0  0
  2  1  1  6
  2  3  1  0
  3  4  1  0
  4  8  1  0
  5  4  2  0
  6  7  2  0
  6  2  1  0
  9  6  1  0
 10  9  1  0
 10 11  1  1
 11 12  1  0
 13 12  1  0
 13 14  1  0
 14 15  1  0
 16 10  1  0
 17 16  2  0
 19 18  1  0
 19 20  1  0
 20 22  1  0
 20 21  1  1
 22 24  1  0
 22 23  1  6
 23 16  1  0
 24 25  1  0
 26 24  2  0
M  END
$$$$
