DKI.pdb
     RDKit          3D

 26 25  0  0  1  0  0  0  0  0999 V2000
    9.5229  -14.6568   17.9097 N   0  0  0  0  0  0  0  0  0  0  0  0
   10.0876  -14.9056   19.2045 C   0  0  1  0  0  0  0  0  0  0  0  0
   11.2165  -13.9250   19.4463 C   0  0  0  0  0  0  0  0  0  0  0  0
   12.5192  -14.4349   18.9519 C   0  0  0  0  0  0  0  0  0  0  0  0
   12.6093  -15.1307   17.9046 O   0  0  0  0  0  0  0  0  0  0  0  0
    9.0478  -14.8626   20.2448 C   0  0  0  0  0  0  0  0  0  0  0  0
    8.3315  -13.8201   20.3671 O   0  0  0  0  0  0  0  0  0  0  0  0
   13.6950  -14.1632   19.6284 O   0  0  0  0  0  0  0  0  0  0  0  0
    8.7882  -15.9313   21.1367 N   0  0  0  0  0  0  0  0  0  0  0  0
    7.7441  -15.9270   22.1415 C   0  0  1  0  0  0  0  0  0  0  0  0
    7.2072  -17.3167   22.2895 C   0  0  0  0  0  0  0  0  0  0  0  0
    6.5374  -17.8819   21.0863 C   0  0  0  0  0  0  0  0  0  0  0  0
    6.2412  -19.3370   21.2827 C   0  0  0  0  0  0  0  0  0  0  0  0
    5.5369  -19.8883   20.0607 C   0  0  0  0  0  0  0  0  0  0  0  0
    5.1815  -21.2728   20.2869 N   0  0  0  0  0  0  0  0  0  0  0  0
    8.3146  -15.5252   23.4676 C   0  0  0  0  0  0  0  0  0  0  0  0
    9.4871  -15.8070   23.7635 O   0  0  0  0  0  0  0  0  0  0  0  0
    6.8526  -10.8791   27.1751 C   0  0  0  0  0  0  0  0  0  0  0  0
    7.6956  -12.1563   27.0527 C   0  0  0  0  0  0  0  0  0  0  0  0
    7.2320  -12.9811   25.8780 C   0  0  2  0  0  0  0  0  0  0  0  0
    5.7572  -13.3119   25.9721 C   0  0  0  0  0  0  0  0  0  0  0  0
    8.0356  -14.2056   25.6174 C   0  0  2  0  0  0  0  0  0  0  0  0
    7.5252  -14.8159   24.4073 N   0  0  0  0  0  0  0  0  0  0  0  0
    8.1537  -15.1478   26.7275 C   0  0  0  0  0  0  0  0  0  0  0  0
    7.6190  -16.4346   26.7352 O   0  0  0  0  0  0  0  0  0  0  0  0
    8.7743  -14.8124   27.7686 O   0  0  0  0  0  0  0  0  0  0  0  0
  2  1  1  6
  2  3  1  0
  3  4  1  0
  4  8  1  0
  5  4  2  0
  6  7  2  0
  6  2  1  0
  9  6  1  0
 10  9  1  0
 10 11  1  1
 11 12  1  0
 13 12  1  0
 13 14  1  0
 14 15  1  0
 16 10  1  0
 17 16  2  0
 19 18  1  0
 19 20  1  0
 20 22  1  0
 20 21  1  1
 22 24  1  0
 22 23  1  6
 23 16  1  0
 24 25  1  0
 26 24  2  0
M  END
$$$$
