DKI.pdb
     RDKit          3D

 26 25  0  0  1  0  0  0  0  0999 V2000
   11.5941  -18.6708   20.5470 N   0  0  0  0  0  0  0  0  0  0  0  0
   12.4196  -17.5220   20.7839 C   0  0  1  0  0  0  0  0  0  0  0  0
   12.9700  -17.0297   19.4614 C   0  0  0  0  0  0  0  0  0  0  0  0
   13.9673  -17.9650   18.8849 C   0  0  0  0  0  0  0  0  0  0  0  0
   14.8095  -17.5943   18.0233 O   0  0  0  0  0  0  0  0  0  0  0  0
   11.6776  -16.4897   21.5248 C   0  0  0  0  0  0  0  0  0  0  0  0
   12.2059  -15.3472   21.6994 O   0  0  0  0  0  0  0  0  0  0  0  0
   14.0103  -19.2916   19.2749 O   0  0  0  0  0  0  0  0  0  0  0  0
   10.3849  -16.6916   22.0663 N   0  0  0  0  0  0  0  0  0  0  0  0
    9.6725  -15.7223   22.8741 C   0  0  1  0  0  0  0  0  0  0  0  0
    8.2015  -15.8955   22.6553 C   0  0  0  0  0  0  0  0  0  0  0  0
    7.5258  -14.7986   21.9096 C   0  0  0  0  0  0  0  0  0  0  0  0
    7.7567  -14.9425   20.4367 C   0  0  0  0  0  0  0  0  0  0  0  0
    7.1930  -13.7409   19.7076 C   0  0  0  0  0  0  0  0  0  0  0  0
    7.5291  -13.8223   18.3023 N   0  0  0  0  0  0  0  0  0  0  0  0
    9.9405  -15.9738   24.3268 C   0  0  0  0  0  0  0  0  0  0  0  0
   10.2992  -17.0959   24.7188 O   0  0  0  0  0  0  0  0  0  0  0  0
    8.6212  -11.5571   27.3785 C   0  0  0  0  0  0  0  0  0  0  0  0
    9.5182  -12.6042   26.7034 C   0  0  0  0  0  0  0  0  0  0  0  0
    9.3739  -13.9400   27.3891 C   0  0  2  0  0  0  0  0  0  0  0  0
    9.7901  -13.8717   28.8436 C   0  0  0  0  0  0  0  0  0  0  0  0
   10.0441  -15.0737   26.6974 C   0  0  2  0  0  0  0  0  0  0  0  0
    9.7891  -14.9344   25.2787 N   0  0  0  0  0  0  0  0  0  0  0  0
    9.7399  -16.4094   27.2050 C   0  0  0  0  0  0  0  0  0  0  0  0
    8.6444  -17.1759   26.8125 O   0  0  0  0  0  0  0  0  0  0  0  0
   10.4957  -16.9410   28.0580 O   0  0  0  0  0  0  0  0  0  0  0  0
  2  1  1  6
  2  3  1  0
  3  4  1  0
  4  8  1  0
  5  4  2  0
  6  7  2  0
  6  2  1  0
  9  6  1  0
 10  9  1  0
 10 11  1  1
 11 12  1  0
 13 12  1  0
 13 14  1  0
 14 15  1  0
 16 10  1  0
 17 16  2  0
 19 18  1  0
 19 20  1  0
 20 22  1  0
 20 21  1  1
 22 24  1  0
 22 23  1  6
 23 16  1  0
 24 25  1  0
 26 24  2  0
M  END
$$$$
