DKI.pdb
     RDKit          3D

 26 25  0  0  1  0  0  0  0  0999 V2000
   12.1576  -16.5924   19.5299 N   0  0  0  0  0  0  0  0  0  0  0  0
   12.1546  -15.3383   20.2259 C   0  0  1  0  0  0  0  0  0  0  0  0
   12.3142  -14.2166   19.2207 C   0  0  0  0  0  0  0  0  0  0  0  0
   13.6142  -14.2813   18.5082 C   0  0  0  0  0  0  0  0  0  0  0  0
   13.7207  -13.9894   17.2866 O   0  0  0  0  0  0  0  0  0  0  0  0
   10.9482  -15.2057   21.0579 C   0  0  0  0  0  0  0  0  0  0  0  0
   10.7063  -14.0983   21.6324 O   0  0  0  0  0  0  0  0  0  0  0  0
   14.7690  -14.6683   19.1644 O   0  0  0  0  0  0  0  0  0  0  0  0
   10.0196  -16.2547   21.2632 N   0  0  0  0  0  0  0  0  0  0  0  0
    8.7756  -16.1189   21.9938 C   0  0  1  0  0  0  0  0  0  0  0  0
    8.0355  -17.4192   21.9380 C   0  0  0  0  0  0  0  0  0  0  0  0
    7.6045  -17.8594   20.5830 C   0  0  0  0  0  0  0  0  0  0  0  0
    6.9020  -19.1802   20.6566 C   0  0  0  0  0  0  0  0  0  0  0  0
    6.4315  -19.5905   19.2769 C   0  0  0  0  0  0  0  0  0  0  0  0
    5.7856  -20.8836   19.3474 N   0  0  0  0  0  0  0  0  0  0  0  0
    9.0606  -15.8288   23.4360 C   0  0  0  0  0  0  0  0  0  0  0  0
   10.1225  -16.2036   23.9589 O   0  0  0  0  0  0  0  0  0  0  0  0
    5.9912  -11.7060   25.2840 C   0  0  0  0  0  0  0  0  0  0  0  0
    7.1610  -12.6294   24.9155 C   0  0  0  0  0  0  0  0  0  0  0  0
    7.3265  -13.7083   25.9566 C   0  0  2  0  0  0  0  0  0  0  0  0
    7.6000  -13.1273   27.3280 C   0  0  0  0  0  0  0  0  0  0  0  0
    8.3236  -14.7585   25.6160 C   0  0  2  0  0  0  0  0  0  0  0  0
    8.1222  -15.1210   24.2284 N   0  0  0  0  0  0  0  0  0  0  0  0
    8.3732  -15.9143   26.5080 C   0  0  0  0  0  0  0  0  0  0  0  0
    9.2734  -16.0649   27.5609 O   0  0  0  0  0  0  0  0  0  0  0  0
    7.5627  -16.8625   26.3480 O   0  0  0  0  0  0  0  0  0  0  0  0
  2  1  1  6
  2  3  1  0
  3  4  1  0
  4  8  1  0
  5  4  2  0
  6  7  2  0
  6  2  1  0
  9  6  1  0
 10  9  1  0
 10 11  1  1
 11 12  1  0
 13 12  1  0
 13 14  1  0
 14 15  1  0
 16 10  1  0
 17 16  2  0
 19 18  1  0
 19 20  1  0
 20 22  1  0
 20 21  1  1
 22 24  1  0
 22 23  1  6
 23 16  1  0
 24 25  1  0
 26 24  2  0
M  END
$$$$
