DKI.pdb
     RDKit          3D

 26 25  0  0  1  0  0  0  0  0999 V2000
    8.8580  -15.8673   19.1216 N   0  0  0  0  0  0  0  0  0  0  0  0
    8.5381  -14.6666   19.8378 C   0  0  1  0  0  0  0  0  0  0  0  0
    7.6713  -13.7863   18.9614 C   0  0  0  0  0  0  0  0  0  0  0  0
    7.9324  -14.0007   17.5166 C   0  0  0  0  0  0  0  0  0  0  0  0
    8.7390  -14.8788   17.1075 O   0  0  0  0  0  0  0  0  0  0  0  0
    7.9210  -14.9815   21.1360 C   0  0  0  0  0  0  0  0  0  0  0  0
    7.3733  -14.0519   21.8074 O   0  0  0  0  0  0  0  0  0  0  0  0
    7.2944  -13.2375   16.5553 O   0  0  0  0  0  0  0  0  0  0  0  0
    7.8971  -16.2816   21.6965 N   0  0  0  0  0  0  0  0  0  0  0  0
    7.3819  -16.5988   23.0132 C   0  0  1  0  0  0  0  0  0  0  0  0
    7.4899  -18.0757   23.2339 C   0  0  0  0  0  0  0  0  0  0  0  0
    7.0106  -18.5683   24.5542 C   0  0  0  0  0  0  0  0  0  0  0  0
    7.1264  -20.0595   24.6341 C   0  0  0  0  0  0  0  0  0  0  0  0
    6.4695  -20.5594   25.9037 C   0  0  0  0  0  0  0  0  0  0  0  0
    6.4087  -22.0052   25.8836 N   0  0  0  0  0  0  0  0  0  0  0  0
    8.2160  -15.9284   24.0620 C   0  0  0  0  0  0  0  0  0  0  0  0
    9.4422  -15.8047   23.9116 O   0  0  0  0  0  0  0  0  0  0  0  0
    5.9007  -11.5999   25.9809 C   0  0  0  0  0  0  0  0  0  0  0  0
    6.9493  -12.6084   25.4909 C   0  0  0  0  0  0  0  0  0  0  0  0
    7.3796  -13.5098   26.6213 C   0  0  2  0  0  0  0  0  0  0  0  0
    7.9433  -12.7208   27.7845 C   0  0  0  0  0  0  0  0  0  0  0  0
    8.3016  -14.6091   26.2284 C   0  0  2  0  0  0  0  0  0  0  0  0
    7.6190  -15.4235   25.2445 N   0  0  0  0  0  0  0  0  0  0  0  0
    8.8746  -15.3916   27.3208 C   0  0  0  0  0  0  0  0  0  0  0  0
    8.5176  -16.7029   27.6286 O   0  0  0  0  0  0  0  0  0  0  0  0
    9.7558  -14.8821   28.0594 O   0  0  0  0  0  0  0  0  0  0  0  0
  2  1  1  6
  2  3  1  0
  3  4  1  0
  4  8  1  0
  5  4  2  0
  6  7  2  0
  6  2  1  0
  9  6  1  0
 10  9  1  0
 10 11  1  1
 11 12  1  0
 13 12  1  0
 13 14  1  0
 14 15  1  0
 16 10  1  0
 17 16  2  0
 19 18  1  0
 19 20  1  0
 20 22  1  0
 20 21  1  1
 22 24  1  0
 22 23  1  6
 23 16  1  0
 24 25  1  0
 26 24  2  0
M  END
$$$$
