DKI.pdb
     RDKit          3D

 26 25  0  0  1  0  0  0  0  0999 V2000
   11.7944  -17.6558   20.0181 N   0  0  0  0  0  0  0  0  0  0  0  0
   12.6405  -17.3298   21.1294 C   0  0  1  0  0  0  0  0  0  0  0  0
   13.9381  -16.7489   20.6070 C   0  0  0  0  0  0  0  0  0  0  0  0
   14.5279  -17.5748   19.5246 C   0  0  0  0  0  0  0  0  0  0  0  0
   14.4600  -18.8335   19.5334 O   0  0  0  0  0  0  0  0  0  0  0  0
   11.9441  -16.4408   22.0728 C   0  0  0  0  0  0  0  0  0  0  0  0
   12.6238  -15.6679   22.8181 O   0  0  0  0  0  0  0  0  0  0  0  0
   15.1808  -16.9886   18.4550 O   0  0  0  0  0  0  0  0  0  0  0  0
   10.5353  -16.3897   22.2056 N   0  0  0  0  0  0  0  0  0  0  0  0
    9.8317  -15.5924   23.1901 C   0  0  1  0  0  0  0  0  0  0  0  0
    8.3886  -15.5035   22.8013 C   0  0  0  0  0  0  0  0  0  0  0  0
    8.0289  -14.3678   21.9089 C   0  0  0  0  0  0  0  0  0  0  0  0
    7.6509  -14.8662   20.5479 C   0  0  0  0  0  0  0  0  0  0  0  0
    7.3683  -13.6945   19.6310 C   0  0  0  0  0  0  0  0  0  0  0  0
    7.0425  -14.1800   18.3071 N   0  0  0  0  0  0  0  0  0  0  0  0
    9.8931  -16.2641   24.5282 C   0  0  0  0  0  0  0  0  0  0  0  0
   10.0834  -17.4880   24.6135 O   0  0  0  0  0  0  0  0  0  0  0  0
    9.9604  -12.4022   28.4837 C   0  0  0  0  0  0  0  0  0  0  0  0
   10.2987  -13.4965   27.4615 C   0  0  0  0  0  0  0  0  0  0  0  0
    9.8967  -14.8510   27.9896 C   0  0  2  0  0  0  0  0  0  0  0  0
   10.5414  -15.1453   29.3279 C   0  0  0  0  0  0  0  0  0  0  0  0
   10.1029  -15.9785   27.0412 C   0  0  2  0  0  0  0  0  0  0  0  0
    9.7350  -15.5131   25.7201 N   0  0  0  0  0  0  0  0  0  0  0  0
    9.4696  -17.2456   27.3984 C   0  0  0  0  0  0  0  0  0  0  0  0
   10.1059  -18.2882   28.0690 O   0  0  0  0  0  0  0  0  0  0  0  0
    8.2658  -17.4494   27.0972 O   0  0  0  0  0  0  0  0  0  0  0  0
  2  1  1  6
  2  3  1  0
  3  4  1  0
  4  8  1  0
  5  4  2  0
  6  7  2  0
  6  2  1  0
  9  6  1  0
 10  9  1  0
 10 11  1  6
 11 12  1  0
 13 12  1  0
 13 14  1  0
 14 15  1  0
 16 10  1  0
 17 16  2  0
 19 18  1  0
 19 20  1  0
 20 22  1  0
 20 21  1  1
 22 24  1  0
 22 23  1  6
 23 16  1  0
 24 25  1  0
 26 24  2  0
M  END
$$$$
