KCW.pdb
     RDKit          3D

 30 31  0  0  1  0  0  0  0  0999 V2000
    6.0022  -16.3198   20.8762 N   0  0  0  0  0  0  0  0  0  0  0  0
    7.3319  -15.7839   21.1476 C   0  0  1  0  0  0  0  0  0  0  0  0
    7.2370  -14.3026   21.4953 C   0  0  0  0  0  0  0  0  0  0  0  0
    7.0637  -13.4513   20.2763 C   0  0  0  0  0  0  0  0  0  0  0  0
    8.3220  -13.2601   19.4694 C   0  0  0  0  0  0  0  0  0  0  0  0
    7.9901  -12.2795   18.3539 C   0  0  0  0  0  0  0  0  0  0  0  0
    9.1053  -12.1032   17.4589 N   0  0  0  0  0  0  0  0  0  0  0  0
    7.8600  -16.4417   22.3593 C   0  0  0  0  0  0  0  0  0  0  0  0
    7.1144  -16.7516   23.3070 O   0  0  0  0  0  0  0  0  0  0  0  0
    9.2395  -16.7239   22.4391 N   0  0  0  0  0  0  0  0  0  0  0  0
    9.7267  -17.5207   23.5159 C   0  0  1  0  0  0  0  0  0  0  0  0
   10.9929  -18.2886   23.1147 C   0  0  0  0  0  0  0  0  0  0  0  0
   11.8044  -18.7883   24.6592 S   0  0  0  0  0  0  0  0  0  0  0  0
   10.0822  -16.6595   24.6595 C   0  0  0  0  0  0  0  0  0  0  0  0
   10.7557  -15.5791   24.4533 O   0  0  0  0  0  0  0  0  0  0  0  0
    9.7437  -16.9081   26.0163 N   0  0  0  0  0  0  0  0  0  0  0  0
   10.3186  -16.1287   27.1011 C   0  0  1  0  0  0  0  0  0  0  0  0
    9.1760  -15.6132   27.9605 C   0  0  0  0  0  0  0  0  0  0  0  0
    8.0158  -15.1760   27.1802 C   0  0  0  0  0  0  0  0  0  0  0  0
    7.0175  -15.9706   26.6872 C   0  0  0  0  0  0  0  0  0  0  0  0
    6.1726  -15.1573   26.0390 N   0  0  0  0  0  0  0  0  0  0  0  0
    6.5832  -13.8806   26.0938 C   0  0  0  0  0  0  0  0  0  0  0  0
    6.0704  -12.6896   25.5907 C   0  0  0  0  0  0  0  0  0  0  0  0
    6.7454  -11.4950   25.8209 C   0  0  0  0  0  0  0  0  0  0  0  0
    7.9074  -11.4728   26.5349 C   0  0  0  0  0  0  0  0  0  0  0  0
    8.4000  -12.6655   27.0255 C   0  0  0  0  0  0  0  0  0  0  0  0
    7.7468  -13.8787   26.8118 C   0  0  0  0  0  0  0  0  0  0  0  0
   11.2741  -16.9083   27.9105 C   0  0  0  0  0  0  0  0  0  0  0  0
   12.0024  -16.2620   28.9018 O   0  0  0  0  0  0  0  0  0  0  0  0
   11.4335  -18.1352   27.7126 O   0  0  0  0  0  0  0  0  0  0  0  0
  2  1  1  1
  3  4  1  0
  3  2  1  0
  5  6  1  0
  5  4  1  0
  7  6  1  0
  8  2  1  0
  8 10  1  0
  9  8  2  0
 11 10  1  0
 11 12  1  6
 13 12  1  0
 14 11  1  0
 15 14  2  0
 16 14  1  0
 17 28  1  0
 17 16  1  0
 17 18  1  1
 19 18  1  0
 20 19  2  0
 21 20  1  0
 22 21  1  0
 22 27  2  0
 23 24  2  0
 23 22  1  0
 24 25  1  0
 25 26  2  0
 27 26  1  0
 27 19  1  0
 28 29  1  0
 30 28  2  0
M  END
$$$$
