KCW.pdb
     RDKit          3D

 30 31  0  0  1  0  0  0  0  0999 V2000
    8.7722  -16.9424   18.3849 N   0  0  0  0  0  0  0  0  0  0  0  0
    9.1815  -16.0930   19.4985 C   0  0  1  0  0  0  0  0  0  0  0  0
    8.4308  -14.7670   19.4473 C   0  0  0  0  0  0  0  0  0  0  0  0
    8.8199  -13.9489   18.2556 C   0  0  0  0  0  0  0  0  0  0  0  0
    7.6764  -13.6144   17.3329 C   0  0  0  0  0  0  0  0  0  0  0  0
    8.2468  -12.7614   16.2091 C   0  0  0  0  0  0  0  0  0  0  0  0
    7.2264  -12.3843   15.2644 N   0  0  0  0  0  0  0  0  0  0  0  0
    8.7578  -16.7392   20.7565 C   0  0  0  0  0  0  0  0  0  0  0  0
    7.7274  -17.4358   20.8136 O   0  0  0  0  0  0  0  0  0  0  0  0
    9.5416  -16.5612   21.9153 N   0  0  0  0  0  0  0  0  0  0  0  0
    9.2658  -17.3488   23.0710 C   0  0  1  0  0  0  0  0  0  0  0  0
    9.9126  -18.7364   22.9692 C   0  0  0  0  0  0  0  0  0  0  0  0
   11.6223  -18.4697   22.4217 S   0  0  0  0  0  0  0  0  0  0  0  0
    9.8214  -16.6949   24.2708 C   0  0  0  0  0  0  0  0  0  0  0  0
   10.8766  -15.9615   24.1610 O   0  0  0  0  0  0  0  0  0  0  0  0
    9.2909  -16.7937   25.5847 N   0  0  0  0  0  0  0  0  0  0  0  0
   10.0398  -16.3400   26.7458 C   0  0  1  0  0  0  0  0  0  0  0  0
    9.1930  -15.3075   27.4716 C   0  0  0  0  0  0  0  0  0  0  0  0
    7.9783  -14.9375   26.7411 C   0  0  0  0  0  0  0  0  0  0  0  0
    7.0227  -15.7907   26.2614 C   0  0  0  0  0  0  0  0  0  0  0  0
    6.1000  -15.0260   25.6621 N   0  0  0  0  0  0  0  0  0  0  0  0
    6.4201  -13.7245   25.7354 C   0  0  0  0  0  0  0  0  0  0  0  0
    5.8065  -12.5625   25.2796 C   0  0  0  0  0  0  0  0  0  0  0  0
    6.4021  -11.3278   25.5175 C   0  0  0  0  0  0  0  0  0  0  0  0
    7.5835  -11.2381   26.1932 C   0  0  0  0  0  0  0  0  0  0  0  0
    8.1767  -12.4029   26.6372 C   0  0  0  0  0  0  0  0  0  0  0  0
    7.6047  -13.6550   26.4146 C   0  0  0  0  0  0  0  0  0  0  0  0
   10.4057  -17.4475   27.6487 C   0  0  0  0  0  0  0  0  0  0  0  0
   11.3672  -17.2294   28.6279 O   0  0  0  0  0  0  0  0  0  0  0  0
    9.8633  -18.5718   27.5401 O   0  0  0  0  0  0  0  0  0  0  0  0
  2  1  1  6
  3  4  1  0
  3  2  1  0
  5  6  1  0
  5  4  1  0
  7  6  1  0
  8  2  1  0
  8 10  1  0
  9  8  2  0
 11 10  1  0
 11 12  1  6
 13 12  1  0
 14 11  1  0
 15 14  2  0
 16 14  1  0
 17 28  1  0
 17 16  1  0
 17 18  1  1
 19 18  1  0
 20 19  2  0
 21 20  1  0
 22 21  1  0
 22 27  2  0
 23 24  2  0
 23 22  1  0
 24 25  1  0
 25 26  2  0
 27 26  1  0
 27 19  1  0
 28 29  1  0
 30 28  2  0
M  END
$$$$
