KCW.pdb
     RDKit          3D

 30 31  0  0  1  0  0  0  0  0999 V2000
    8.2395  -19.2553   19.9977 N   0  0  0  0  0  0  0  0  0  0  0  0
    9.5489  -18.6119   19.9736 C   0  0  1  0  0  0  0  0  0  0  0  0
   10.2270  -18.8579   18.6306 C   0  0  0  0  0  0  0  0  0  0  0  0
    9.5396  -19.9301   17.8442 C   0  0  0  0  0  0  0  0  0  0  0  0
    8.0384  -19.8048   17.8052 C   0  0  0  0  0  0  0  0  0  0  0  0
    7.5211  -20.9302   16.9209 C   0  0  0  0  0  0  0  0  0  0  0  0
    6.0842  -20.9016   16.8189 N   0  0  0  0  0  0  0  0  0  0  0  0
    9.3507  -17.1511   20.0551 C   0  0  0  0  0  0  0  0  0  0  0  0
   10.0089  -16.3661   19.3476 O   0  0  0  0  0  0  0  0  0  0  0  0
    8.3927  -16.6394   20.9548 N   0  0  0  0  0  0  0  0  0  0  0  0
    8.4761  -15.2753   21.3602 C   0  0  1  0  0  0  0  0  0  0  0  0
    7.0890  -14.6216   21.4111 C   0  0  0  0  0  0  0  0  0  0  0  0
    5.9661  -15.8497   22.1353 S   0  0  0  0  0  0  0  0  0  0  0  0
    9.0506  -15.1867   22.7159 C   0  0  0  0  0  0  0  0  0  0  0  0
    9.3279  -14.0288   23.2117 O   0  0  0  0  0  0  0  0  0  0  0  0
    9.3390  -16.2893   23.5636 N   0  0  0  0  0  0  0  0  0  0  0  0
   10.1247  -16.1333   24.7773 C   0  0  1  0  0  0  0  0  0  0  0  0
    9.2283  -16.4674   25.9583 C   0  0  0  0  0  0  0  0  0  0  0  0
    7.9875  -15.6890   25.9823 C   0  0  0  0  0  0  0  0  0  0  0  0
    6.7283  -16.1521   25.7162 C   0  0  0  0  0  0  0  0  0  0  0  0
    5.9040  -15.1044   25.8511 N   0  0  0  0  0  0  0  0  0  0  0  0
    6.5762  -13.9933   26.1906 C   0  0  0  0  0  0  0  0  0  0  0  0
    6.1888  -12.6810   26.4406 C   0  0  0  0  0  0  0  0  0  0  0  0
    7.1466  -11.7305   26.7792 C   0  0  0  0  0  0  0  0  0  0  0  0
    8.4655  -12.0661   26.8700 C   0  0  0  0  0  0  0  0  0  0  0  0
    8.8298  -13.3736   26.6179 C   0  0  0  0  0  0  0  0  0  0  0  0
    7.8936  -14.3490   26.2766 C   0  0  0  0  0  0  0  0  0  0  0  0
   11.3330  -16.9793   24.7793 C   0  0  0  0  0  0  0  0  0  0  0  0
   12.2856  -16.7917   25.7734 O   0  0  0  0  0  0  0  0  0  0  0  0
   11.5061  -17.8554   23.9005 O   0  0  0  0  0  0  0  0  0  0  0  0
  2  1  1  6
  3  4  1  0
  3  2  1  0
  5  6  1  0
  5  4  1  0
  7  6  1  0
  8  2  1  0
  8 10  1  0
  9  8  2  0
 11 10  1  0
 11 12  1  1
 13 12  1  0
 14 11  1  0
 15 14  2  0
 16 14  1  0
 17 28  1  0
 17 16  1  0
 17 18  1  1
 19 18  1  0
 20 19  2  0
 21 20  1  0
 22 21  1  0
 22 27  2  0
 23 24  2  0
 23 22  1  0
 24 25  1  0
 25 26  2  0
 27 26  1  0
 27 19  1  0
 28 29  1  0
 30 28  2  0
M  END
$$$$
