KCW.pdb
     RDKit          3D

 30 31  0  0  1  0  0  0  0  0999 V2000
    7.7356  -19.2301   18.9499 N   0  0  0  0  0  0  0  0  0  0  0  0
    7.8303  -18.9782   20.3840 C   0  0  1  0  0  0  0  0  0  0  0  0
    8.6594  -20.0691   21.0523 C   0  0  0  0  0  0  0  0  0  0  0  0
    7.9259  -21.3726   21.1120 C   0  0  0  0  0  0  0  0  0  0  0  0
    8.6534  -22.4599   21.8600 C   0  0  0  0  0  0  0  0  0  0  0  0
    7.7238  -23.6637   21.9100 C   0  0  0  0  0  0  0  0  0  0  0  0
    8.2966  -24.7397   22.6781 N   0  0  0  0  0  0  0  0  0  0  0  0
    8.5861  -17.7263   20.5873 C   0  0  0  0  0  0  0  0  0  0  0  0
    9.7653  -17.6105   20.2052 O   0  0  0  0  0  0  0  0  0  0  0  0
    7.9530  -16.6408   21.2277 N   0  0  0  0  0  0  0  0  0  0  0  0
    8.6732  -15.4247   21.4130 C   0  0  1  0  0  0  0  0  0  0  0  0
    7.7386  -14.2089   21.3661 C   0  0  0  0  0  0  0  0  0  0  0  0
    6.2552  -14.6618   22.3086 S   0  0  0  0  0  0  0  0  0  0  0  0
    9.3266  -15.4225   22.7355 C   0  0  0  0  0  0  0  0  0  0  0  0
   10.0917  -14.4369   23.0622 O   0  0  0  0  0  0  0  0  0  0  0  0
    9.1921  -16.4335   23.7240 N   0  0  0  0  0  0  0  0  0  0  0  0
    9.9174  -16.3709   24.9829 C   0  0  1  0  0  0  0  0  0  0  0  0
    8.9087  -16.5232   26.1095 C   0  0  0  0  0  0  0  0  0  0  0  0
    7.7159  -15.6907   25.9356 C   0  0  0  0  0  0  0  0  0  0  0  0
    6.4818  -16.1096   25.5201 C   0  0  0  0  0  0  0  0  0  0  0  0
    5.6999  -15.0216   25.5018 N   0  0  0  0  0  0  0  0  0  0  0  0
    6.3752  -13.9270   25.8856 C   0  0  0  0  0  0  0  0  0  0  0  0
    6.0236  -12.5890   26.0299 C   0  0  0  0  0  0  0  0  0  0  0  0
    6.9739  -11.6672   26.4576 C   0  0  0  0  0  0  0  0  0  0  0  0
    8.2507  -12.0560   26.7385 C   0  0  0  0  0  0  0  0  0  0  0  0
    8.5799  -13.3883   26.5888 C   0  0  0  0  0  0  0  0  0  0  0  0
    7.6502  -14.3360   26.1623 C   0  0  0  0  0  0  0  0  0  0  0  0
   10.9706  -17.3992   25.0784 C   0  0  0  0  0  0  0  0  0  0  0  0
   11.8251  -17.3893   26.1742 O   0  0  0  0  0  0  0  0  0  0  0  0
   11.1004  -18.2715   24.1884 O   0  0  0  0  0  0  0  0  0  0  0  0
  2  1  1  6
  3  4  1  0
  3  2  1  0
  5  6  1  0
  5  4  1  0
  7  6  1  0
  8  2  1  0
  8 10  1  0
  9  8  2  0
 11 10  1  0
 11 12  1  1
 13 12  1  0
 14 11  1  0
 15 14  2  0
 16 14  1  0
 17 28  1  0
 17 16  1  0
 17 18  1  1
 19 18  1  0
 20 19  2  0
 21 20  1  0
 22 21  1  0
 22 27  2  0
 23 24  2  0
 23 22  1  0
 24 25  1  0
 25 26  2  0
 27 26  1  0
 27 19  1  0
 28 29  1  0
 30 28  2  0
M  END
$$$$
