KCW.pdb
     RDKit          3D

 30 31  0  0  1  0  0  0  0  0999 V2000
    9.5044  -17.1098   18.7961 N   0  0  0  0  0  0  0  0  0  0  0  0
    9.7761  -16.2055   19.9085 C   0  0  1  0  0  0  0  0  0  0  0  0
    8.8866  -14.9715   19.8075 C   0  0  0  0  0  0  0  0  0  0  0  0
    8.9410  -14.3519   18.4460 C   0  0  0  0  0  0  0  0  0  0  0  0
    8.0636  -13.1378   18.2816 C   0  0  0  0  0  0  0  0  0  0  0  0
    8.2722  -12.6272   16.8633 C   0  0  0  0  0  0  0  0  0  0  0  0
    7.3389  -13.2281   15.9448 N   0  0  0  0  0  0  0  0  0  0  0  0
    9.3796  -16.8776   21.1618 C   0  0  0  0  0  0  0  0  0  0  0  0
    8.3728  -17.6079   21.2164 O   0  0  0  0  0  0  0  0  0  0  0  0
   10.1627  -16.6856   22.3189 N   0  0  0  0  0  0  0  0  0  0  0  0
    9.9154  -17.4904   23.4691 C   0  0  1  0  0  0  0  0  0  0  0  0
   10.7778  -18.7594   23.4594 C   0  0  0  0  0  0  0  0  0  0  0  0
   12.4860  -18.2200   23.1678 S   0  0  0  0  0  0  0  0  0  0  0  0
   10.2568  -16.7398   24.6922 C   0  0  0  0  0  0  0  0  0  0  0  0
   11.2313  -15.8954   24.6658 O   0  0  0  0  0  0  0  0  0  0  0  0
    9.5947  -16.8560   25.9435 N   0  0  0  0  0  0  0  0  0  0  0  0
   10.1193  -16.2275   27.1453 C   0  0  1  0  0  0  0  0  0  0  0  0
    8.9575  -15.5699   27.8719 C   0  0  0  0  0  0  0  0  0  0  0  0
    7.8801  -15.1439   26.9753 C   0  0  0  0  0  0  0  0  0  0  0  0
    6.9598  -15.9506   26.3643 C   0  0  0  0  0  0  0  0  0  0  0  0
    6.1729  -15.1443   25.6391 N   0  0  0  0  0  0  0  0  0  0  0  0
    6.5463  -13.8604   25.7571 C   0  0  0  0  0  0  0  0  0  0  0  0
    6.0650  -12.6720   25.2180 C   0  0  0  0  0  0  0  0  0  0  0  0
    6.6837  -11.4677   25.5381 C   0  0  0  0  0  0  0  0  0  0  0  0
    7.7597  -11.4334   26.3755 C   0  0  0  0  0  0  0  0  0  0  0  0
    8.2224  -12.6237   26.9000 C   0  0  0  0  0  0  0  0  0  0  0  0
    7.6239  -13.8464   26.5984 C   0  0  0  0  0  0  0  0  0  0  0  0
   10.8142  -17.1858   28.0254 C   0  0  0  0  0  0  0  0  0  0  0  0
   11.4997  -16.7071   29.1353 O   0  0  0  0  0  0  0  0  0  0  0  0
   10.7927  -18.4147   27.7820 O   0  0  0  0  0  0  0  0  0  0  0  0
  2  1  1  6
  3  4  1  0
  3  2  1  0
  5  6  1  0
  5  4  1  0
  7  6  1  0
  8  2  1  0
  8 10  1  0
  9  8  2  0
 11 10  1  0
 11 12  1  6
 13 12  1  0
 14 11  1  0
 15 14  2  0
 16 14  1  0
 17 28  1  0
 17 16  1  0
 17 18  1  1
 19 18  1  0
 20 19  2  0
 21 20  1  0
 22 21  1  0
 22 27  2  0
 23 24  2  0
 23 22  1  0
 24 25  1  0
 25 26  2  0
 27 26  1  0
 27 19  1  0
 28 29  1  0
 30 28  2  0
M  END
$$$$
