KCW.pdb
     RDKit          3D

 30 31  0  0  1  0  0  0  0  0999 V2000
    8.0785  -19.0612   19.8619 N   0  0  0  0  0  0  0  0  0  0  0  0
    9.4805  -18.7460   19.6086 C   0  0  1  0  0  0  0  0  0  0  0  0
    9.7462  -18.7168   18.1077 C   0  0  0  0  0  0  0  0  0  0  0  0
   11.1980  -18.5214   17.7997 C   0  0  0  0  0  0  0  0  0  0  0  0
   12.0165  -19.7860   17.8417 C   0  0  0  0  0  0  0  0  0  0  0  0
   13.4547  -19.3952   17.5338 C   0  0  0  0  0  0  0  0  0  0  0  0
   14.3000  -20.5551   17.4078 N   0  0  0  0  0  0  0  0  0  0  0  0
    9.7415  -17.3727   20.0834 C   0  0  0  0  0  0  0  0  0  0  0  0
   10.8819  -16.8753   20.0366 O   0  0  0  0  0  0  0  0  0  0  0  0
    8.6719  -16.6117   20.5991 N   0  0  0  0  0  0  0  0  0  0  0  0
    8.9523  -15.4137   21.3188 C   0  0  1  0  0  0  0  0  0  0  0  0
    7.9097  -14.3274   21.0238 C   0  0  0  0  0  0  0  0  0  0  0  0
    6.3066  -14.9936   21.5532 S   0  0  0  0  0  0  0  0  0  0  0  0
    8.9111  -15.6760   22.7698 C   0  0  0  0  0  0  0  0  0  0  0  0
    7.8590  -16.2143   23.2864 O   0  0  0  0  0  0  0  0  0  0  0  0
    9.9530  -15.3863   23.6906 N   0  0  0  0  0  0  0  0  0  0  0  0
    9.9638  -15.9482   25.0319 C   0  0  1  0  0  0  0  0  0  0  0  0
    8.5868  -16.5316   25.3033 C   0  0  0  0  0  0  0  0  0  0  0  0
    7.5885  -15.5196   25.6574 C   0  0  0  0  0  0  0  0  0  0  0  0
    6.3211  -15.4124   25.1541 C   0  0  0  0  0  0  0  0  0  0  0  0
    5.7662  -14.3489   25.7511 N   0  0  0  0  0  0  0  0  0  0  0  0
    6.6184  -13.7709   26.6120 C   0  0  0  0  0  0  0  0  0  0  0  0
    6.5245  -12.6677   27.4539 C   0  0  0  0  0  0  0  0  0  0  0  0
    7.6104  -12.3090   28.2464 C   0  0  0  0  0  0  0  0  0  0  0  0
    8.7709  -13.0246   28.2106 C   0  0  0  0  0  0  0  0  0  0  0  0
    8.8443  -14.1160   27.3683 C   0  0  0  0  0  0  0  0  0  0  0  0
    7.7735  -14.5007   26.5622 C   0  0  0  0  0  0  0  0  0  0  0  0
   11.0114  -16.9720   25.2057 C   0  0  0  0  0  0  0  0  0  0  0  0
   11.3731  -17.3547   26.4916 O   0  0  0  0  0  0  0  0  0  0  0  0
   11.5726  -17.4928   24.2139 O   0  0  0  0  0  0  0  0  0  0  0  0
  2  1  1  6
  3  4  1  0
  3  2  1  0
  5  6  1  0
  5  4  1  0
  7  6  1  0
  8  2  1  0
  8 10  1  0
  9  8  2  0
 11 10  1  0
 11 12  1  1
 13 12  1  0
 14 11  1  0
 15 14  2  0
 16 14  1  0
 17 28  1  0
 17 16  1  0
 17 18  1  6
 19 18  1  0
 20 19  2  0
 21 20  1  0
 22 21  1  0
 22 27  2  0
 23 24  2  0
 23 22  1  0
 24 25  1  0
 25 26  2  0
 27 26  1  0
 27 19  1  0
 28 29  1  0
 30 28  2  0
M  END
$$$$
