KCW.pdb
     RDKit          3D

 30 31  0  0  1  0  0  0  0  0999 V2000
    9.4671  -16.1162   17.7933 N   0  0  0  0  0  0  0  0  0  0  0  0
    8.9314  -15.0501   18.6332 C   0  0  1  0  0  0  0  0  0  0  0  0
    7.6344  -14.5164   18.0358 C   0  0  0  0  0  0  0  0  0  0  0  0
    7.7004  -14.4271   16.5430 C   0  0  0  0  0  0  0  0  0  0  0  0
    7.9132  -13.0322   16.0140 C   0  0  0  0  0  0  0  0  0  0  0  0
    7.8465  -13.1174   14.4960 C   0  0  0  0  0  0  0  0  0  0  0  0
    6.7777  -12.3072   13.9697 N   0  0  0  0  0  0  0  0  0  0  0  0
    8.5569  -15.6300   19.9383 C   0  0  0  0  0  0  0  0  0  0  0  0
    7.9492  -14.9618   20.7952 O   0  0  0  0  0  0  0  0  0  0  0  0
    8.8961  -16.9708   20.2143 N   0  0  0  0  0  0  0  0  0  0  0  0
    8.5087  -17.5453   21.4600 C   0  0  1  0  0  0  0  0  0  0  0  0
    8.5908  -19.0769   21.4186 C   0  0  0  0  0  0  0  0  0  0  0  0
    8.2233  -19.6588   23.0980 S   0  0  0  0  0  0  0  0  0  0  0  0
    9.4158  -17.0882   22.5296 C   0  0  0  0  0  0  0  0  0  0  0  0
   10.6888  -17.0867   22.3228 O   0  0  0  0  0  0  0  0  0  0  0  0
    9.0138  -16.6305   23.8127 N   0  0  0  0  0  0  0  0  0  0  0  0
    9.9843  -16.3173   24.8495 C   0  0  1  0  0  0  0  0  0  0  0  0
    9.7188  -14.8974   25.3221 C   0  0  0  0  0  0  0  0  0  0  0  0
    8.3016  -14.6268   25.5761 C   0  0  0  0  0  0  0  0  0  0  0  0
    7.2895  -15.5461   25.6151 C   0  0  0  0  0  0  0  0  0  0  0  0
    6.1669  -14.8614   25.8726 N   0  0  0  0  0  0  0  0  0  0  0  0
    6.4130  -13.5480   25.9998 C   0  0  0  0  0  0  0  0  0  0  0  0
    5.6059  -12.4456   26.2606 C   0  0  0  0  0  0  0  0  0  0  0  0
    6.1719  -11.1767   26.3329 C   0  0  0  0  0  0  0  0  0  0  0  0
    7.5115  -10.9954   26.1510 C   0  0  0  0  0  0  0  0  0  0  0  0
    8.2953  -12.1021   25.8930 C   0  0  0  0  0  0  0  0  0  0  0  0
    7.7579  -13.3864   25.8146 C   0  0  0  0  0  0  0  0  0  0  0  0
    9.9292  -17.2653   25.9782 C   0  0  0  0  0  0  0  0  0  0  0  0
   10.9531  -17.2552   26.9176 O   0  0  0  0  0  0  0  0  0  0  0  0
    8.9776  -18.0720   26.0946 O   0  0  0  0  0  0  0  0  0  0  0  0
  2  1  1  6
  3  4  1  0
  3  2  1  0
  5  6  1  0
  5  4  1  0
  7  6  1  0
  8  2  1  0
  8 10  1  0
  9  8  2  0
 11 10  1  0
 11 12  1  6
 13 12  1  0
 14 11  1  0
 15 14  2  0
 16 14  1  0
 17 28  1  0
 17 16  1  0
 17 18  1  1
 19 18  1  0
 20 19  2  0
 21 20  1  0
 22 21  1  0
 22 27  2  0
 23 24  2  0
 23 22  1  0
 24 25  1  0
 25 26  2  0
 27 26  1  0
 27 19  1  0
 28 29  1  0
 30 28  2  0
M  END
$$$$
