KCW.pdb
     RDKit          3D

 30 31  0  0  1  0  0  0  0  0999 V2000
    8.6088  -15.9392   18.3972 N   0  0  0  0  0  0  0  0  0  0  0  0
    9.0383  -15.0793   19.4950 C   0  0  1  0  0  0  0  0  0  0  0  0
    8.1592  -13.8354   19.5586 C   0  0  0  0  0  0  0  0  0  0  0  0
    7.3943  -13.6247   18.2893 C   0  0  0  0  0  0  0  0  0  0  0  0
    8.2550  -13.5167   17.0571 C   0  0  0  0  0  0  0  0  0  0  0  0
    7.3183  -13.2941   15.8785 C   0  0  0  0  0  0  0  0  0  0  0  0
    8.0103  -13.4331   14.6225 N   0  0  0  0  0  0  0  0  0  0  0  0
    8.8040  -15.7947   20.7651 C   0  0  0  0  0  0  0  0  0  0  0  0
    7.6523  -16.0066   21.1880 O   0  0  0  0  0  0  0  0  0  0  0  0
    9.9124  -16.2468   21.5107 N   0  0  0  0  0  0  0  0  0  0  0  0
    9.6955  -17.0847   22.6433 C   0  0  1  0  0  0  0  0  0  0  0  0
   10.5136  -18.3790   22.5459 C   0  0  0  0  0  0  0  0  0  0  0  0
   12.2153  -17.8854   22.1530 S   0  0  0  0  0  0  0  0  0  0  0  0
   10.1217  -16.3902   23.8730 C   0  0  0  0  0  0  0  0  0  0  0  0
   11.0771  -15.5259   23.8134 O   0  0  0  0  0  0  0  0  0  0  0  0
    9.5641  -16.5831   25.1650 N   0  0  0  0  0  0  0  0  0  0  0  0
   10.3085  -16.2632   26.3726 C   0  0  1  0  0  0  0  0  0  0  0  0
    9.6964  -15.0111   26.9789 C   0  0  0  0  0  0  0  0  0  0  0  0
    8.3058  -14.7916   26.5738 C   0  0  0  0  0  0  0  0  0  0  0  0
    7.3647  -15.7542   26.3314 C   0  0  0  0  0  0  0  0  0  0  0  0
    6.2428  -15.1076   25.9871 N   0  0  0  0  0  0  0  0  0  0  0  0
    6.4217  -13.7774   25.9976 C   0  0  0  0  0  0  0  0  0  0  0  0
    5.5876  -12.6989   25.7221 C   0  0  0  0  0  0  0  0  0  0  0  0
    6.0796  -11.4015   25.8236 C   0  0  0  0  0  0  0  0  0  0  0  0
    7.3726  -11.1689   26.1901 C   0  0  0  0  0  0  0  0  0  0  0  0
    8.1845  -12.2526   26.4591 C   0  0  0  0  0  0  0  0  0  0  0  0
    7.7209  -13.5644   26.3665 C   0  0  0  0  0  0  0  0  0  0  0  0
   10.3081  -17.3720   27.3454 C   0  0  0  0  0  0  0  0  0  0  0  0
    9.5225  -18.4900   27.0929 O   0  0  0  0  0  0  0  0  0  0  0  0
   11.0018  -17.3138   28.3872 O   0  0  0  0  0  0  0  0  0  0  0  0
  2  1  1  6
  3  4  1  0
  3  2  1  0
  5  6  1  0
  5  4  1  0
  7  6  1  0
  8  2  1  0
  8 10  1  0
  9  8  2  0
 11 10  1  0
 11 12  1  6
 13 12  1  0
 14 11  1  0
 15 14  2  0
 16 14  1  0
 17 28  1  0
 17 16  1  0
 17 18  1  1
 19 18  1  0
 20 19  2  0
 21 20  1  0
 22 21  1  0
 22 27  2  0
 23 24  2  0
 23 22  1  0
 24 25  1  0
 25 26  2  0
 27 26  1  0
 27 19  1  0
 28 29  1  0
 30 28  2  0
M  END
$$$$
