KCW.pdb
     RDKit          3D

 30 31  0  0  1  0  0  0  0  0999 V2000
    7.6283  -17.9304   19.7102 N   0  0  0  0  0  0  0  0  0  0  0  0
    8.6351  -17.1022   20.3655 C   0  0  1  0  0  0  0  0  0  0  0  0
    8.1423  -15.6631   20.4667 C   0  0  0  0  0  0  0  0  0  0  0  0
    8.4275  -14.8846   19.2205 C   0  0  0  0  0  0  0  0  0  0  0  0
    8.1639  -13.4056   19.3392 C   0  0  0  0  0  0  0  0  0  0  0  0
    8.5466  -12.7774   18.0070 C   0  0  0  0  0  0  0  0  0  0  0  0
    8.1802  -11.3849   17.9570 N   0  0  0  0  0  0  0  0  0  0  0  0
    8.7854  -17.5679   21.7585 C   0  0  0  0  0  0  0  0  0  0  0  0
    7.8589  -18.1505   22.3518 O   0  0  0  0  0  0  0  0  0  0  0  0
   10.0077  -17.3464   22.4262 N   0  0  0  0  0  0  0  0  0  0  0  0
   10.2493  -17.9965   23.6715 C   0  0  1  0  0  0  0  0  0  0  0  0
   11.5051  -18.8758   23.6086 C   0  0  0  0  0  0  0  0  0  0  0  0
   11.6009  -19.7527   25.1946 S   0  0  0  0  0  0  0  0  0  0  0  0
   10.4715  -16.9928   24.7294 C   0  0  0  0  0  0  0  0  0  0  0  0
   11.1690  -15.9402   24.4670 O   0  0  0  0  0  0  0  0  0  0  0  0
    9.9749  -17.0703   26.0578 N   0  0  0  0  0  0  0  0  0  0  0  0
   10.3318  -16.0833   27.0644 C   0  0  1  0  0  0  0  0  0  0  0  0
    9.0927  -15.7986   27.8972 C   0  0  0  0  0  0  0  0  0  0  0  0
    7.9572  -15.3238   27.1027 C   0  0  0  0  0  0  0  0  0  0  0  0
    6.9715  -16.0926   26.5473 C   0  0  0  0  0  0  0  0  0  0  0  0
    6.1484  -15.2490   25.9101 N   0  0  0  0  0  0  0  0  0  0  0  0
    6.5608  -13.9775   26.0313 C   0  0  0  0  0  0  0  0  0  0  0  0
    6.0664  -12.7640   25.5648 C   0  0  0  0  0  0  0  0  0  0  0  0
    6.7377  -11.5830   25.8655 C   0  0  0  0  0  0  0  0  0  0  0  0
    7.8782  -11.5960   26.6134 C   0  0  0  0  0  0  0  0  0  0  0  0
    8.3529  -12.8105   27.0668 C   0  0  0  0  0  0  0  0  0  0  0  0
    7.7028  -14.0109   26.7825 C   0  0  0  0  0  0  0  0  0  0  0  0
   11.4483  -16.5284   27.9194 C   0  0  0  0  0  0  0  0  0  0  0  0
   11.9970  -15.6348   28.8311 O   0  0  0  0  0  0  0  0  0  0  0  0
   11.9020  -17.6929   27.8301 O   0  0  0  0  0  0  0  0  0  0  0  0
  2  1  1  6
  3  4  1  0
  3  2  1  0
  5  6  1  0
  5  4  1  0
  7  6  1  0
  8  2  1  0
  8 10  1  0
  9  8  2  0
 11 10  1  0
 11 12  1  6
 13 12  1  0
 14 11  1  0
 15 14  2  0
 16 14  1  0
 17 28  1  0
 17 16  1  0
 17 18  1  1
 19 18  1  0
 20 19  2  0
 21 20  1  0
 22 21  1  0
 22 27  2  0
 23 24  2  0
 23 22  1  0
 24 25  1  0
 25 26  2  0
 27 26  1  0
 27 19  1  0
 28 29  1  0
 30 28  2  0
M  END
$$$$
