KCW.pdb
     RDKit          3D

 30 31  0  0  1  0  0  0  0  0999 V2000
    7.0455  -19.8057   19.2626 N   0  0  0  0  0  0  0  0  0  0  0  0
    6.9516  -18.5981   20.0761 C   0  0  1  0  0  0  0  0  0  0  0  0
    5.9645  -18.8130   21.2178 C   0  0  0  0  0  0  0  0  0  0  0  0
    4.5676  -19.0162   20.7197 C   0  0  0  0  0  0  0  0  0  0  0  0
    3.5232  -19.0652   21.8048 C   0  0  0  0  0  0  0  0  0  0  0  0
    2.1716  -19.1860   21.1159 C   0  0  0  0  0  0  0  0  0  0  0  0
    1.0947  -19.2250   22.0724 N   0  0  0  0  0  0  0  0  0  0  0  0
    8.2596  -18.3694   20.7217 C   0  0  0  0  0  0  0  0  0  0  0  0
    8.8792  -19.2944   21.2788 O   0  0  0  0  0  0  0  0  0  0  0  0
    8.8151  -17.0732   20.7027 N   0  0  0  0  0  0  0  0  0  0  0  0
    9.9660  -16.7965   21.4968 C   0  0  1  0  0  0  0  0  0  0  0  0
   10.8406  -15.7117   20.8546 C   0  0  0  0  0  0  0  0  0  0  0  0
   12.3391  -15.5885   21.8709 S   0  0  0  0  0  0  0  0  0  0  0  0
    9.5553  -16.2980   22.8230 C   0  0  0  0  0  0  0  0  0  0  0  0
    9.1807  -15.0704   22.9499 O   0  0  0  0  0  0  0  0  0  0  0  0
    9.5281  -17.0625   24.0197 N   0  0  0  0  0  0  0  0  0  0  0  0
   10.1581  -16.5890   25.2419 C   0  0  1  0  0  0  0  0  0  0  0  0
    9.7298  -15.1468   25.4579 C   0  0  0  0  0  0  0  0  0  0  0  0
    8.2997  -15.0035   25.7414 C   0  0  0  0  0  0  0  0  0  0  0  0
    7.3664  -16.0034   25.7560 C   0  0  0  0  0  0  0  0  0  0  0  0
    6.1963  -15.4236   26.0562 N   0  0  0  0  0  0  0  0  0  0  0  0
    6.3369  -14.1007   26.2341 C   0  0  0  0  0  0  0  0  0  0  0  0
    5.4474  -13.0793   26.5506 C   0  0  0  0  0  0  0  0  0  0  0  0
    5.9096  -11.7722   26.6676 C   0  0  0  0  0  0  0  0  0  0  0  0
    7.2268  -11.4748   26.4756 C   0  0  0  0  0  0  0  0  0  0  0  0
    8.0936  -12.5025   26.1620 C   0  0  0  0  0  0  0  0  0  0  0  0
    7.6611  -13.8223   26.0379 C   0  0  0  0  0  0  0  0  0  0  0  0
    9.8146  -17.4196   26.4115 C   0  0  0  0  0  0  0  0  0  0  0  0
   10.4664  -17.1889   27.6168 O   0  0  0  0  0  0  0  0  0  0  0  0
    8.9501  -18.3226   26.3274 O   0  0  0  0  0  0  0  0  0  0  0  0
  2  1  1  6
  3  4  1  0
  3  2  1  0
  5  6  1  0
  5  4  1  0
  7  6  1  0
  8  2  1  0
  8 10  1  0
  9  8  2  0
 11 10  1  0
 11 12  1  6
 13 12  1  0
 14 11  1  0
 15 14  2  0
 16 14  1  0
 17 28  1  0
 17 16  1  0
 17 18  1  1
 19 18  1  0
 20 19  2  0
 21 20  1  0
 22 21  1  0
 22 27  2  0
 23 24  2  0
 23 22  1  0
 24 25  1  0
 25 26  2  0
 27 26  1  0
 27 19  1  0
 28 29  1  0
 30 28  2  0
M  END
$$$$
