KCW.pdb
     RDKit          3D

 30 31  0  0  1  0  0  0  0  0999 V2000
    9.1773  -18.8509   19.8129 N   0  0  0  0  0  0  0  0  0  0  0  0
   10.4661  -18.1842   19.9660 C   0  0  1  0  0  0  0  0  0  0  0  0
   11.0986  -17.9500   18.5988 C   0  0  0  0  0  0  0  0  0  0  0  0
   11.5517  -19.2282   17.9650 C   0  0  0  0  0  0  0  0  0  0  0  0
   10.4311  -20.1110   17.4795 C   0  0  0  0  0  0  0  0  0  0  0  0
   11.0710  -21.3682   16.9086 C   0  0  0  0  0  0  0  0  0  0  0  0
   10.0759  -22.3297   16.5071 N   0  0  0  0  0  0  0  0  0  0  0  0
   10.2302  -16.8397   20.5285 C   0  0  0  0  0  0  0  0  0  0  0  0
   11.1294  -15.9789   20.5520 O   0  0  0  0  0  0  0  0  0  0  0  0
    8.9565  -16.5287   21.0479 N   0  0  0  0  0  0  0  0  0  0  0  0
    8.7036  -15.2119   21.5316 C   0  0  1  0  0  0  0  0  0  0  0  0
    7.3538  -14.6820   21.0304 C   0  0  0  0  0  0  0  0  0  0  0  0
    6.0942  -15.8579   21.5997 S   0  0  0  0  0  0  0  0  0  0  0  0
    8.6501  -15.2182   23.0057 C   0  0  0  0  0  0  0  0  0  0  0  0
    8.0037  -14.2863   23.6199 O   0  0  0  0  0  0  0  0  0  0  0  0
    9.2603  -16.1842   23.8495 N   0  0  0  0  0  0  0  0  0  0  0  0
   10.1345  -15.7966   24.9451 C   0  0  1  0  0  0  0  0  0  0  0  0
    9.3544  -15.9513   26.2403 C   0  0  0  0  0  0  0  0  0  0  0  0
    8.0486  -15.2879   26.2128 C   0  0  0  0  0  0  0  0  0  0  0  0
    6.8357  -15.8822   25.9963 C   0  0  0  0  0  0  0  0  0  0  0  0
    5.9206  -14.9051   26.0540 N   0  0  0  0  0  0  0  0  0  0  0  0
    6.4905  -13.7144   26.2968 C   0  0  0  0  0  0  0  0  0  0  0  0
    5.9869  -12.4263   26.4438 C   0  0  0  0  0  0  0  0  0  0  0  0
    6.8558  -11.3694   26.6960 C   0  0  0  0  0  0  0  0  0  0  0  0
    8.1997  -11.5768   26.8015 C   0  0  0  0  0  0  0  0  0  0  0  0
    8.6799  -12.8625   26.6522 C   0  0  0  0  0  0  0  0  0  0  0  0
    7.8348  -13.9424   26.3991 C   0  0  0  0  0  0  0  0  0  0  0  0
   11.3772  -16.5904   24.9826 C   0  0  0  0  0  0  0  0  0  0  0  0
   11.5313  -17.6440   24.0899 O   0  0  0  0  0  0  0  0  0  0  0  0
   12.2847  -16.3259   25.8050 O   0  0  0  0  0  0  0  0  0  0  0  0
  2  1  1  6
  3  4  1  0
  3  2  1  0
  5  6  1  0
  5  4  1  0
  7  6  1  0
  8  2  1  0
  8 10  1  0
  9  8  2  0
 11 10  1  0
 11 12  1  6
 13 12  1  0
 14 11  1  0
 15 14  2  0
 16 14  1  0
 17 28  1  0
 17 16  1  0
 17 18  1  1
 19 18  1  0
 20 19  2  0
 21 20  1  0
 22 21  1  0
 22 27  2  0
 23 24  2  0
 23 22  1  0
 24 25  1  0
 25 26  2  0
 27 26  1  0
 27 19  1  0
 28 29  1  0
 30 28  2  0
M  END
$$$$
