KCW.pdb
     RDKit          3D

 30 31  0  0  1  0  0  0  0  0999 V2000
    8.6428  -19.8323   18.4660 N   0  0  0  0  0  0  0  0  0  0  0  0
    8.2159  -18.4646   18.1903 C   0  0  1  0  0  0  0  0  0  0  0  0
    6.9581  -18.4737   17.3289 C   0  0  0  0  0  0  0  0  0  0  0  0
    7.1517  -17.7253   16.0471 C   0  0  0  0  0  0  0  0  0  0  0  0
    8.4538  -18.0195   15.3478 C   0  0  0  0  0  0  0  0  0  0  0  0
    8.3938  -17.3349   13.9900 C   0  0  0  0  0  0  0  0  0  0  0  0
    9.6411  -17.4631   13.2802 N   0  0  0  0  0  0  0  0  0  0  0  0
    7.8178  -17.8357   19.4653 C   0  0  0  0  0  0  0  0  0  0  0  0
    7.6627  -16.6042   19.5613 O   0  0  0  0  0  0  0  0  0  0  0  0
    7.6087  -18.6529   20.5957 N   0  0  0  0  0  0  0  0  0  0  0  0
    7.1995  -18.0537   21.8227 C   0  0  1  0  0  0  0  0  0  0  0  0
    6.4596  -19.0581   22.7158 C   0  0  0  0  0  0  0  0  0  0  0  0
    7.6886  -20.2873   23.2377 S   0  0  0  0  0  0  0  0  0  0  0  0
    8.3801  -17.5879   22.5743 C   0  0  0  0  0  0  0  0  0  0  0  0
    9.5351  -18.1039   22.3229 O   0  0  0  0  0  0  0  0  0  0  0  0
    8.3740  -16.5894   23.5845 N   0  0  0  0  0  0  0  0  0  0  0  0
    9.5770  -16.2476   24.3266 C   0  0  1  0  0  0  0  0  0  0  0  0
    9.4392  -14.8101   24.8003 C   0  0  0  0  0  0  0  0  0  0  0  0
    8.0980  -14.4891   25.2947 C   0  0  0  0  0  0  0  0  0  0  0  0
    7.0688  -15.3683   25.4915 C   0  0  0  0  0  0  0  0  0  0  0  0
    6.0360  -14.6454   25.9455 N   0  0  0  0  0  0  0  0  0  0  0  0
    6.3557  -13.3459   26.0481 C   0  0  0  0  0  0  0  0  0  0  0  0
    5.6520  -12.2182   26.4579 C   0  0  0  0  0  0  0  0  0  0  0  0
    6.2757  -10.9746   26.4515 C   0  0  0  0  0  0  0  0  0  0  0  0
    7.5718  -10.8425   26.0478 C   0  0  0  0  0  0  0  0  0  0  0  0
    8.2530  -11.9736   25.6446 C   0  0  0  0  0  0  0  0  0  0  0  0
    7.6558  -13.2336   25.6399 C   0  0  0  0  0  0  0  0  0  0  0  0
    9.8141  -17.1552   25.4650 C   0  0  0  0  0  0  0  0  0  0  0  0
   11.0573  -17.1473   26.0858 O   0  0  0  0  0  0  0  0  0  0  0  0
    8.9137  -17.9258   25.8714 O   0  0  0  0  0  0  0  0  0  0  0  0
  2  1  1  1
  3  4  1  0
  3  2  1  0
  5  6  1  0
  5  4  1  0
  7  6  1  0
  8  2  1  0
  8 10  1  0
  9  8  2  0
 11 10  1  0
 11 12  1  1
 13 12  1  0
 14 11  1  0
 15 14  2  0
 16 14  1  0
 17 28  1  0
 17 16  1  0
 17 18  1  1
 19 18  1  0
 20 19  2  0
 21 20  1  0
 22 21  1  0
 22 27  2  0
 23 24  2  0
 23 22  1  0
 24 25  1  0
 25 26  2  0
 27 26  1  0
 27 19  1  0
 28 29  1  0
 30 28  2  0
M  END
$$$$
