KCW.pdb
     RDKit          3D

 30 31  0  0  1  0  0  0  0  0999 V2000
    9.5124  -15.1870   18.8918 N   0  0  0  0  0  0  0  0  0  0  0  0
    8.8469  -14.4587   19.9668 C   0  0  1  0  0  0  0  0  0  0  0  0
    7.4825  -13.9665   19.4974 C   0  0  0  0  0  0  0  0  0  0  0  0
    7.3296  -14.0721   18.0121 C   0  0  0  0  0  0  0  0  0  0  0  0
    8.2992  -13.2267   17.2272 C   0  0  0  0  0  0  0  0  0  0  0  0
    7.9012  -13.3375   15.7625 C   0  0  0  0  0  0  0  0  0  0  0  0
    8.8656  -12.6970   14.9049 N   0  0  0  0  0  0  0  0  0  0  0  0
    8.5697  -15.4037   21.0667 C   0  0  0  0  0  0  0  0  0  0  0  0
    7.8145  -15.1000   22.0088 O   0  0  0  0  0  0  0  0  0  0  0  0
    9.1753  -16.6772   21.0441 N   0  0  0  0  0  0  0  0  0  0  0  0
    9.1359  -17.4885   22.2154 C   0  0  1  0  0  0  0  0  0  0  0  0
    9.8127  -18.8450   21.9787 C   0  0  0  0  0  0  0  0  0  0  0  0
    9.7302  -19.7443   23.5530 S   0  0  0  0  0  0  0  0  0  0  0  0
    9.8623  -16.8237   23.3137 C   0  0  0  0  0  0  0  0  0  0  0  0
   10.8199  -16.0057   23.0357 O   0  0  0  0  0  0  0  0  0  0  0  0
    9.6031  -16.9986   24.6992 N   0  0  0  0  0  0  0  0  0  0  0  0
   10.4634  -16.4146   25.7158 C   0  0  1  0  0  0  0  0  0  0  0  0
   10.0055  -14.9840   25.9476 C   0  0  0  0  0  0  0  0  0  0  0  0
    8.6088  -14.8854   26.3784 C   0  0  0  0  0  0  0  0  0  0  0  0
    7.7094  -15.9118   26.4725 C   0  0  0  0  0  0  0  0  0  0  0  0
    6.5611  -15.3698   26.9002 N   0  0  0  0  0  0  0  0  0  0  0  0
    6.6832  -14.0459   27.0839 C   0  0  0  0  0  0  0  0  0  0  0  0
    5.8035  -13.0546   27.5061 C   0  0  0  0  0  0  0  0  0  0  0  0
    6.2396  -11.7365   27.5959 C   0  0  0  0  0  0  0  0  0  0  0  0
    7.5215  -11.3989   27.2748 C   0  0  0  0  0  0  0  0  0  0  0  0
    8.3791  -12.3971   26.8577 C   0  0  0  0  0  0  0  0  0  0  0  0
    7.9721  -13.7271   26.7575 C   0  0  0  0  0  0  0  0  0  0  0  0
   10.4480  -17.1815   26.9758 C   0  0  0  0  0  0  0  0  0  0  0  0
    9.6468  -18.3132   27.0663 O   0  0  0  0  0  0  0  0  0  0  0  0
   11.1429  -16.8237   27.9550 O   0  0  0  0  0  0  0  0  0  0  0  0
  2  1  1  6
  3  4  1  0
  3  2  1  0
  5  6  1  0
  5  4  1  0
  7  6  1  0
  8  2  1  0
  8 10  1  0
  9  8  2  0
 11 10  1  0
 11 12  1  6
 13 12  1  0
 14 11  1  0
 15 14  2  0
 16 14  1  0
 17 28  1  0
 17 16  1  0
 17 18  1  1
 19 18  1  0
 20 19  2  0
 21 20  1  0
 22 21  1  0
 22 27  2  0
 23 24  2  0
 23 22  1  0
 24 25  1  0
 25 26  2  0
 27 26  1  0
 27 19  1  0
 28 29  1  0
 30 28  2  0
M  END
$$$$
