KCW.pdb
     RDKit          3D

 30 31  0  0  1  0  0  0  0  0999 V2000
    8.7356  -20.2655   17.7433 N   0  0  0  0  0  0  0  0  0  0  0  0
    9.6010  -19.2750   18.3750 C   0  0  1  0  0  0  0  0  0  0  0  0
    9.8253  -18.0994   17.4306 C   0  0  0  0  0  0  0  0  0  0  0  0
   10.4674  -18.5263   16.1476 C   0  0  0  0  0  0  0  0  0  0  0  0
   10.8543  -17.3881   15.2389 C   0  0  0  0  0  0  0  0  0  0  0  0
   11.5713  -17.9979   14.0431 C   0  0  0  0  0  0  0  0  0  0  0  0
   11.9663  -16.9877   13.0948 N   0  0  0  0  0  0  0  0  0  0  0  0
    8.8918  -18.7149   19.5425 C   0  0  0  0  0  0  0  0  0  0  0  0
    7.9245  -17.9431   19.4057 O   0  0  0  0  0  0  0  0  0  0  0  0
    9.3229  -19.0662   20.8386 N   0  0  0  0  0  0  0  0  0  0  0  0
    8.5872  -18.6015   21.9676 C   0  0  1  0  0  0  0  0  0  0  0  0
    7.9368  -19.7646   22.7281 C   0  0  0  0  0  0  0  0  0  0  0  0
    9.2936  -20.7929   23.3567 S   0  0  0  0  0  0  0  0  0  0  0  0
    9.4906  -17.9145   22.9098 C   0  0  0  0  0  0  0  0  0  0  0  0
   10.7407  -18.2308   22.9333 O   0  0  0  0  0  0  0  0  0  0  0  0
    9.1089  -16.9001   23.8278 N   0  0  0  0  0  0  0  0  0  0  0  0
   10.0577  -16.3271   24.7693 C   0  0  1  0  0  0  0  0  0  0  0  0
    9.6846  -14.8684   24.9767 C   0  0  0  0  0  0  0  0  0  0  0  0
    8.2578  -14.6674   25.2414 C   0  0  0  0  0  0  0  0  0  0  0  0
    7.3063  -15.6417   25.3689 C   0  0  0  0  0  0  0  0  0  0  0  0
    6.1475  -15.0101   25.6007 N   0  0  0  0  0  0  0  0  0  0  0  0
    6.3127  -13.6784   25.6272 C   0  0  0  0  0  0  0  0  0  0  0  0
    5.4427  -12.6114   25.8251 C   0  0  0  0  0  0  0  0  0  0  0  0
    5.9291  -11.3083   25.7931 C   0  0  0  0  0  0  0  0  0  0  0  0
    7.2512  -11.0589   25.5693 C   0  0  0  0  0  0  0  0  0  0  0  0
    8.0985  -12.1315   25.3749 C   0  0  0  0  0  0  0  0  0  0  0  0
    7.6415  -13.4486   25.4014 C   0  0  0  0  0  0  0  0  0  0  0  0
   10.0831  -17.0505   26.0546 C   0  0  0  0  0  0  0  0  0  0  0  0
    9.1176  -18.0186   26.3025 O   0  0  0  0  0  0  0  0  0  0  0  0
   10.9580  -16.8006   26.9160 O   0  0  0  0  0  0  0  0  0  0  0  0
  2  1  1  6
  3  4  1  0
  3  2  1  0
  5  6  1  0
  5  4  1  0
  7  6  1  0
  8  2  1  0
  8 10  1  0
  9  8  2  0
 11 10  1  0
 11 12  1  1
 13 12  1  0
 14 11  1  0
 15 14  2  0
 16 14  1  0
 17 28  1  0
 17 16  1  0
 17 18  1  1
 19 18  1  0
 20 19  2  0
 21 20  1  0
 22 21  1  0
 22 27  2  0
 23 24  2  0
 23 22  1  0
 24 25  1  0
 25 26  2  0
 27 26  1  0
 27 19  1  0
 28 29  1  0
 30 28  2  0
M  END
$$$$
