KCW.pdb
     RDKit          3D

 30 31  0  0  1  0  0  0  0  0999 V2000
    8.2658  -16.1481   18.1164 N   0  0  0  0  0  0  0  0  0  0  0  0
    8.8969  -15.4105   19.2057 C   0  0  1  0  0  0  0  0  0  0  0  0
    8.1695  -14.0900   19.4325 C   0  0  0  0  0  0  0  0  0  0  0  0
    7.4761  -13.6129   18.1948 C   0  0  0  0  0  0  0  0  0  0  0  0
    8.3868  -13.4161   17.0104 C   0  0  0  0  0  0  0  0  0  0  0  0
    7.5130  -12.9710   15.8467 C   0  0  0  0  0  0  0  0  0  0  0  0
    8.2600  -12.9229   14.6156 N   0  0  0  0  0  0  0  0  0  0  0  0
    8.7184  -16.1799   20.4531 C   0  0  0  0  0  0  0  0  0  0  0  0
    7.6471  -16.7595   20.7107 O   0  0  0  0  0  0  0  0  0  0  0  0
    9.7885  -16.2578   21.3685 N   0  0  0  0  0  0  0  0  0  0  0  0
    9.7578  -17.2475   22.3938 C   0  0  1  0  0  0  0  0  0  0  0  0
   10.7995  -18.3455   22.1422 C   0  0  0  0  0  0  0  0  0  0  0  0
   12.3267  -17.5027   21.6411 S   0  0  0  0  0  0  0  0  0  0  0  0
   10.0766  -16.6335   23.6966 C   0  0  0  0  0  0  0  0  0  0  0  0
   10.9746  -15.7099   23.7586 O   0  0  0  0  0  0  0  0  0  0  0  0
    9.4704  -16.9679   24.9369 N   0  0  0  0  0  0  0  0  0  0  0  0
   10.0044  -16.4870   26.2011 C   0  0  1  0  0  0  0  0  0  0  0  0
    8.8364  -16.2814   27.1517 C   0  0  0  0  0  0  0  0  0  0  0  0
    7.7051  -15.5828   26.5368 C   0  0  0  0  0  0  0  0  0  0  0  0
    6.6080  -16.1585   25.9571 C   0  0  0  0  0  0  0  0  0  0  0  0
    5.8362  -15.1514   25.5263 N   0  0  0  0  0  0  0  0  0  0  0  0
    6.3876  -13.9593   25.8027 C   0  0  0  0  0  0  0  0  0  0  0  0
    5.9927  -12.6464   25.5681 C   0  0  0  0  0  0  0  0  0  0  0  0
    6.8037  -11.5960   25.9856 C   0  0  0  0  0  0  0  0  0  0  0  0
    7.9854  -11.8337   26.6239 C   0  0  0  0  0  0  0  0  0  0  0  0
    8.3597  -13.1437   26.8471 C   0  0  0  0  0  0  0  0  0  0  0  0
    7.5688  -14.2178   26.4409 C   0  0  0  0  0  0  0  0  0  0  0  0
   10.9974  -17.4105   26.7814 C   0  0  0  0  0  0  0  0  0  0  0  0
   11.7131  -17.0123   27.9040 O   0  0  0  0  0  0  0  0  0  0  0  0
   11.1997  -18.5385   26.2749 O   0  0  0  0  0  0  0  0  0  0  0  0
  2  1  1  6
  3  4  1  0
  3  2  1  0
  5  6  1  0
  5  4  1  0
  7  6  1  0
  8  2  1  0
  8 10  1  0
  9  8  2  0
 11 10  1  0
 11 12  1  6
 13 12  1  0
 14 11  1  0
 15 14  2  0
 16 14  1  0
 17 28  1  0
 17 16  1  0
 17 18  1  1
 19 18  1  0
 20 19  2  0
 21 20  1  0
 22 21  1  0
 22 27  2  0
 23 24  2  0
 23 22  1  0
 24 25  1  0
 25 26  2  0
 27 26  1  0
 27 19  1  0
 28 29  1  0
 30 28  2  0
M  END
$$$$
