DTD.pdb
     RDKit          3D

 24 23  0  0  1  0  0  0  0  0999 V2000
   19.1242  -13.0374  -15.8901 N   0  0  0  0  0  0  0  0  0  0  0  0
   19.2719  -11.7703  -16.5792 C   0  0  1  0  0  0  0  0  0  0  0  0
   17.9113  -11.2613  -17.0024 C   0  0  0  0  0  0  0  0  0  0  0  0
   17.3858  -12.0863  -18.1020 C   0  0  0  0  0  0  0  0  0  0  0  0
   16.8663  -13.1925  -17.8664 O   0  0  0  0  0  0  0  0  0  0  0  0
   19.9908  -10.7769  -15.7412 C   0  0  0  0  0  0  0  0  0  0  0  0
   19.5923  -10.5199  -14.5767 O   0  0  0  0  0  0  0  0  0  0  0  0
   17.4699  -11.6312  -19.3967 O   0  0  0  0  0  0  0  0  0  0  0  0
   23.5639  -10.8720  -14.6493 C   0  0  0  0  0  0  0  0  0  0  0  0
   23.3927   -9.5409  -15.3921 C   0  0  1  0  0  0  0  0  0  0  0  0
   23.8442   -9.6776  -16.7093 O   0  0  0  0  0  0  0  0  0  0  0  0
   21.9132   -9.2107  -15.3560 C   0  0  2  0  0  0  0  0  0  0  0  0
   21.1404  -10.0789  -16.1969 N   0  0  0  0  0  0  0  0  0  0  0  0
   21.7791   -7.7828  -15.7453 C   0  0  0  0  0  0  0  0  0  0  0  0
   21.5912   -7.3946  -16.9243 O   0  0  0  0  0  0  0  0  0  0  0  0
   21.8564   -6.7188  -14.7791 N   0  0  0  0  0  0  0  0  0  0  0  0
   21.6674   -5.3292  -15.1398 C   0  0  1  0  0  0  0  0  0  0  0  0
   21.1882   -4.4870  -13.9821 C   0  0  0  0  0  0  0  0  0  0  0  0
   21.0225   -3.0716  -14.3214 C   0  0  0  0  0  0  0  0  0  0  0  0
   20.8408   -2.6578  -15.4788 O   0  0  0  0  0  0  0  0  0  0  0  0
   22.9848   -4.7883  -15.5458 C   0  0  0  0  0  0  0  0  0  0  0  0
   24.0136   -5.1204  -14.9106 O   0  0  0  0  0  0  0  0  0  0  0  0
   21.0697   -2.1402  -13.3048 O   0  0  0  0  0  0  0  0  0  0  0  0
   23.1276   -3.9107  -16.6232 O   0  0  0  0  0  0  0  0  0  0  0  0
  2  1  1  1
  2  3  1  0
  3  4  1  0
  4  8  1  0
  5  4  2  0
  6  2  1  0
  7  6  2  0
 10  9  1  1
 10 12  1  0
 11 10  1  0
 12 14  1  0
 12 13  1  6
 13  6  1  0
 14 16  1  0
 15 14  2  0
 16 17  1  0
 17 18  1  1
 17 21  1  0
 18 19  1  0
 19 20  2  0
 19 23  1  0
 21 22  2  0
 21 24  1  0
M  END
$$$$
