DTD.pdb
     RDKit          3D

 24 23  0  0  1  0  0  0  0  0999 V2000
   16.9326  -12.2513  -15.0304 N   0  0  0  0  0  0  0  0  0  0  0  0
   17.0626  -10.9158  -15.5799 C   0  0  1  0  0  0  0  0  0  0  0  0
   15.8488  -10.0932  -15.2063 C   0  0  0  0  0  0  0  0  0  0  0  0
   14.6768  -10.5515  -15.9691 C   0  0  0  0  0  0  0  0  0  0  0  0
   14.0757  -11.5894  -15.6365 O   0  0  0  0  0  0  0  0  0  0  0  0
   18.3217  -10.2657  -15.1351 C   0  0  0  0  0  0  0  0  0  0  0  0
   18.6634  -10.3017  -13.9256 O   0  0  0  0  0  0  0  0  0  0  0  0
   14.2444   -9.8282  -17.0555 O   0  0  0  0  0  0  0  0  0  0  0  0
   22.8579   -8.8117  -15.8984 C   0  0  0  0  0  0  0  0  0  0  0  0
   21.5993   -9.4809  -16.4651 C   0  0  1  0  0  0  0  0  0  0  0  0
   21.7344  -10.8716  -16.3918 O   0  0  0  0  0  0  0  0  0  0  0  0
   20.4350   -9.0024  -15.6196 C   0  0  2  0  0  0  0  0  0  0  0  0
   19.1890   -9.5837  -16.0291 N   0  0  0  0  0  0  0  0  0  0  0  0
   20.4199   -7.5188  -15.7046 C   0  0  0  0  0  0  0  0  0  0  0  0
   19.9981   -6.8801  -16.6997 O   0  0  0  0  0  0  0  0  0  0  0  0
   20.8975   -6.6888  -14.6301 N   0  0  0  0  0  0  0  0  0  0  0  0
   20.9854   -5.2479  -14.7440 C   0  0  1  0  0  0  0  0  0  0  0  0
   21.3447   -4.5812  -13.4380 C   0  0  0  0  0  0  0  0  0  0  0  0
   21.4429   -3.1230  -13.5367 C   0  0  0  0  0  0  0  0  0  0  0  0
   20.5495   -2.4035  -14.0144 O   0  0  0  0  0  0  0  0  0  0  0  0
   22.0767   -4.9393  -15.6962 C   0  0  0  0  0  0  0  0  0  0  0  0
   21.9099   -4.0483  -16.5626 O   0  0  0  0  0  0  0  0  0  0  0  0
   22.5880   -2.5068  -13.0759 O   0  0  0  0  0  0  0  0  0  0  0  0
   23.3011   -5.6112  -15.6663 O   0  0  0  0  0  0  0  0  0  0  0  0
  2  1  1  1
  2  3  1  0
  3  4  1  0
  4  8  1  0
  5  4  2  0
  6  2  1  0
  7  6  2  0
 10  9  1  1
 10 12  1  0
 11 10  1  0
 12 14  1  0
 12 13  1  6
 13  6  1  0
 14 16  1  0
 15 14  2  0
 16 17  1  0
 17 18  1  1
 17 21  1  0
 18 19  1  0
 19 20  2  0
 19 23  1  0
 21 22  2  0
 21 24  1  0
M  END
$$$$
