DTD.pdb
     RDKit          3D

 24 23  0  0  1  0  0  0  0  0999 V2000
   14.3162  -14.9306  -15.3784 N   0  0  0  0  0  0  0  0  0  0  0  0
   14.2548  -13.4833  -15.3172 C   0  0  1  0  0  0  0  0  0  0  0  0
   13.8111  -13.0522  -13.9364 C   0  0  0  0  0  0  0  0  0  0  0  0
   12.4786  -13.6030  -13.6419 C   0  0  0  0  0  0  0  0  0  0  0  0
   11.5018  -13.3017  -14.3520 O   0  0  0  0  0  0  0  0  0  0  0  0
   15.5541  -12.8683  -15.6908 C   0  0  0  0  0  0  0  0  0  0  0  0
   16.6360  -13.4176  -15.3610 O   0  0  0  0  0  0  0  0  0  0  0  0
   12.3129  -14.4554  -12.5758 O   0  0  0  0  0  0  0  0  0  0  0  0
   16.3560  -11.4932  -19.2427 C   0  0  0  0  0  0  0  0  0  0  0  0
   16.7515  -10.4152  -18.2257 C   0  0  1  0  0  0  0  0  0  0  0  0
   15.7600   -9.4291  -18.1783 O   0  0  0  0  0  0  0  0  0  0  0  0
   16.8897  -11.1121  -16.8860 C   0  0  2  0  0  0  0  0  0  0  0  0
   15.6451  -11.6552  -16.4233 N   0  0  0  0  0  0  0  0  0  0  0  0
   17.4582  -10.1185  -15.9383 C   0  0  0  0  0  0  0  0  0  0  0  0
   16.7659   -9.4307  -15.1484 O   0  0  0  0  0  0  0  0  0  0  0  0
   18.8729   -9.8670  -15.8552 N   0  0  0  0  0  0  0  0  0  0  0  0
   19.4314   -8.8657  -14.9707 C   0  0  1  0  0  0  0  0  0  0  0  0
   20.9381   -8.9273  -14.8989 C   0  0  0  0  0  0  0  0  0  0  0  0
   21.5181   -7.9394  -13.9858 C   0  0  0  0  0  0  0  0  0  0  0  0
   20.8409   -7.1655  -13.2885 O   0  0  0  0  0  0  0  0  0  0  0  0
   19.0835   -7.5362  -15.5224 C   0  0  0  0  0  0  0  0  0  0  0  0
   19.2545   -7.3077  -16.7434 O   0  0  0  0  0  0  0  0  0  0  0  0
   22.8918   -7.8578  -13.8892 O   0  0  0  0  0  0  0  0  0  0  0  0
   18.5655   -6.5131  -14.7246 O   0  0  0  0  0  0  0  0  0  0  0  0
  2  1  1  1
  2  3  1  0
  3  4  1  0
  4  8  1  0
  5  4  2  0
  6  2  1  0
  7  6  2  0
 10  9  1  6
 10 12  1  0
 11 10  1  0
 12 14  1  0
 12 13  1  1
 13  6  1  0
 14 16  1  0
 15 14  2  0
 16 17  1  0
 17 18  1  6
 17 21  1  0
 18 19  1  0
 19 20  2  0
 19 23  1  0
 21 22  2  0
 21 24  1  0
M  END
$$$$
