DTD.pdb
     RDKit          3D

 24 23  0  0  1  0  0  0  0  0999 V2000
   17.8477  -13.9112  -16.4689 N   0  0  0  0  0  0  0  0  0  0  0  0
   17.4011  -12.7070  -15.7961 C   0  0  1  0  0  0  0  0  0  0  0  0
   17.3733  -12.9416  -14.3016 C   0  0  0  0  0  0  0  0  0  0  0  0
   16.4265  -14.0213  -13.9799 C   0  0  0  0  0  0  0  0  0  0  0  0
   15.2067  -13.8677  -14.1737 O   0  0  0  0  0  0  0  0  0  0  0  0
   18.2492  -11.5404  -16.1507 C   0  0  0  0  0  0  0  0  0  0  0  0
   19.4919  -11.6753  -16.2864 O   0  0  0  0  0  0  0  0  0  0  0  0
   16.8935  -15.2064  -13.4622 O   0  0  0  0  0  0  0  0  0  0  0  0
   17.4959   -8.9172  -18.9397 C   0  0  0  0  0  0  0  0  0  0  0  0
   17.7828   -8.1547  -17.6400 C   0  0  1  0  0  0  0  0  0  0  0  0
   16.5769   -7.7430  -17.0621 O   0  0  0  0  0  0  0  0  0  0  0  0
   18.5231   -9.1139  -16.7283 C   0  0  2  0  0  0  0  0  0  0  0  0
   17.7171  -10.2393  -16.3514 N   0  0  0  0  0  0  0  0  0  0  0  0
   18.9789   -8.3280  -15.5522 C   0  0  0  0  0  0  0  0  0  0  0  0
   18.4900   -8.4446  -14.4018 O   0  0  0  0  0  0  0  0  0  0  0  0
   20.0359   -7.3557  -15.6483 N   0  0  0  0  0  0  0  0  0  0  0  0
   20.4741   -6.5726  -14.5119 C   0  0  1  0  0  0  0  0  0  0  0  0
   21.9729   -6.3965  -14.4691 C   0  0  0  0  0  0  0  0  0  0  0  0
   22.4239   -5.5063  -13.3967 C   0  0  0  0  0  0  0  0  0  0  0  0
   22.7874   -4.3329  -13.5833 O   0  0  0  0  0  0  0  0  0  0  0  0
   19.8883   -5.2193  -14.6474 C   0  0  0  0  0  0  0  0  0  0  0  0
   19.8858   -4.4435  -13.6624 O   0  0  0  0  0  0  0  0  0  0  0  0
   22.4494   -5.9904  -12.1052 O   0  0  0  0  0  0  0  0  0  0  0  0
   19.3309   -4.7675  -15.8460 O   0  0  0  0  0  0  0  0  0  0  0  0
  2  1  1  6
  2  3  1  0
  3  4  1  0
  4  8  1  0
  5  4  2  0
  6  2  1  0
  7  6  2  0
 10  9  1  6
 10 12  1  0
 11 10  1  0
 12 14  1  0
 12 13  1  1
 13  6  1  0
 14 16  1  0
 15 14  2  0
 16 17  1  0
 17 18  1  6
 17 21  1  0
 18 19  1  0
 19 20  2  0
 19 23  1  0
 21 22  2  0
 21 24  1  0
M  END
$$$$
