DTD.pdb
     RDKit          3D

 24 23  0  0  1  0  0  0  0  0999 V2000
   17.3946  -12.1459  -15.7427 N   0  0  0  0  0  0  0  0  0  0  0  0
   17.9437  -11.0532  -16.5215 C   0  0  1  0  0  0  0  0  0  0  0  0
   16.8173  -10.2027  -17.0668 C   0  0  0  0  0  0  0  0  0  0  0  0
   15.9529  -11.0129  -17.9397 C   0  0  0  0  0  0  0  0  0  0  0  0
   14.7192  -11.0168  -17.7758 O   0  0  0  0  0  0  0  0  0  0  0  0
   18.9019  -10.2458  -15.7241 C   0  0  0  0  0  0  0  0  0  0  0  0
   18.5752   -9.8058  -14.5924 O   0  0  0  0  0  0  0  0  0  0  0  0
   16.5128  -11.7697  -18.9418 O   0  0  0  0  0  0  0  0  0  0  0  0
   23.4816   -8.6972  -14.8303 C   0  0  0  0  0  0  0  0  0  0  0  0
   22.5861   -9.6026  -15.6855 C   0  0  1  0  0  0  0  0  0  0  0  0
   22.7993  -10.9399  -15.3337 O   0  0  0  0  0  0  0  0  0  0  0  0
   21.1548   -9.1880  -15.4044 C   0  0  2  0  0  0  0  0  0  0  0  0
   20.2085   -9.9330  -16.1839 N   0  0  0  0  0  0  0  0  0  0  0  0
   21.0697   -7.7266  -15.6604 C   0  0  0  0  0  0  0  0  0  0  0  0
   21.0901   -7.2157  -16.8070 O   0  0  0  0  0  0  0  0  0  0  0  0
   20.9554   -6.7706  -14.5905 N   0  0  0  0  0  0  0  0  0  0  0  0
   20.9438   -5.3419  -14.8258 C   0  0  1  0  0  0  0  0  0  0  0  0
   19.6489   -4.6922  -14.4009 C   0  0  0  0  0  0  0  0  0  0  0  0
   19.6290   -3.2425  -14.6106 C   0  0  0  0  0  0  0  0  0  0  0  0
   20.2733   -2.6671  -15.5037 O   0  0  0  0  0  0  0  0  0  0  0  0
   22.0150   -4.7425  -13.9974 C   0  0  0  0  0  0  0  0  0  0  0  0
   22.3798   -3.5627  -14.2150 O   0  0  0  0  0  0  0  0  0  0  0  0
   18.8541   -2.4661  -13.7740 O   0  0  0  0  0  0  0  0  0  0  0  0
   22.6430   -5.4498  -12.9695 O   0  0  0  0  0  0  0  0  0  0  0  0
  2  1  1  1
  2  3  1  0
  3  4  1  0
  4  8  1  0
  5  4  2  0
  6  2  1  0
  7  6  2  0
 10  9  1  1
 10 12  1  0
 11 10  1  0
 12 14  1  0
 12 13  1  6
 13  6  1  0
 14 16  1  0
 15 14  2  0
 16 17  1  0
 17 18  1  1
 17 21  1  0
 18 19  1  0
 19 20  2  0
 19 23  1  0
 21 22  2  0
 21 24  1  0
M  END
$$$$
