DTD.pdb
     RDKit          3D

 24 23  0  0  1  0  0  0  0  0999 V2000
   19.6635  -13.1493  -18.3625 N   0  0  0  0  0  0  0  0  0  0  0  0
   20.6253  -12.3349  -17.6457 C   0  0  1  0  0  0  0  0  0  0  0  0
   21.9639  -12.3938  -18.3489 C   0  0  0  0  0  0  0  0  0  0  0  0
   22.5009  -13.7628  -18.2935 C   0  0  0  0  0  0  0  0  0  0  0  0
   21.8852  -14.6565  -17.6842 O   0  0  0  0  0  0  0  0  0  0  0  0
   20.1479  -10.9366  -17.4951 C   0  0  0  0  0  0  0  0  0  0  0  0
   19.7504  -10.2888  -18.4968 O   0  0  0  0  0  0  0  0  0  0  0  0
   23.6900  -14.0550  -18.9188 O   0  0  0  0  0  0  0  0  0  0  0  0
   17.3264   -9.6283  -15.5884 C   0  0  0  0  0  0  0  0  0  0  0  0
   18.5243   -8.8461  -15.0352 C   0  0  1  0  0  0  0  0  0  0  0  0
   18.9386   -9.4162  -13.8265 O   0  0  0  0  0  0  0  0  0  0  0  0
   19.6194   -8.9325  -16.0806 C   0  0  2  0  0  0  0  0  0  0  0  0
   20.1144  -10.2693  -16.2421 N   0  0  0  0  0  0  0  0  0  0  0  0
   20.6856   -7.9824  -15.6695 C   0  0  0  0  0  0  0  0  0  0  0  0
   21.7886   -8.3365  -15.1857 O   0  0  0  0  0  0  0  0  0  0  0  0
   20.5282   -6.5575  -15.7986 N   0  0  0  0  0  0  0  0  0  0  0  0
   21.5882   -5.6277  -15.4691 C   0  0  1  0  0  0  0  0  0  0  0  0
   21.3305   -4.2384  -16.0007 C   0  0  0  0  0  0  0  0  0  0  0  0
   22.4270   -3.3028  -15.7397 C   0  0  0  0  0  0  0  0  0  0  0  0
   23.5011   -3.3094  -16.3642 O   0  0  0  0  0  0  0  0  0  0  0  0
   21.6449   -5.5173  -13.9934 C   0  0  0  0  0  0  0  0  0  0  0  0
   22.6209   -4.9462  -13.4516 O   0  0  0  0  0  0  0  0  0  0  0  0
   22.2656   -2.3587  -14.7467 O   0  0  0  0  0  0  0  0  0  0  0  0
   20.6399   -6.0315  -13.1707 O   0  0  0  0  0  0  0  0  0  0  0  0
  2  1  1  6
  2  3  1  0
  3  4  1  0
  4  8  1  0
  5  4  2  0
  6  2  1  0
  7  6  2  0
 10  9  1  6
 10 12  1  0
 11 10  1  0
 12 14  1  0
 12 13  1  1
 13  6  1  0
 14 16  1  0
 15 14  2  0
 16 17  1  0
 17 18  1  6
 17 21  1  0
 18 19  1  0
 19 20  2  0
 19 23  1  0
 21 22  2  0
 21 24  1  0
M  END
$$$$
