DTD.pdb
     RDKit          3D

 24 23  0  0  1  0  0  0  0  0999 V2000
   19.1090  -12.4677  -16.8938 N   0  0  0  0  0  0  0  0  0  0  0  0
   19.0098  -11.0655  -17.2489 C   0  0  1  0  0  0  0  0  0  0  0  0
   17.5923  -10.7486  -17.6730 C   0  0  0  0  0  0  0  0  0  0  0  0
   17.2612  -11.4803  -18.9061 C   0  0  0  0  0  0  0  0  0  0  0  0
   18.1503  -11.7571  -19.7320 O   0  0  0  0  0  0  0  0  0  0  0  0
   19.4558  -10.1903  -16.1349 C   0  0  0  0  0  0  0  0  0  0  0  0
   18.8266  -10.1758  -15.0463 O   0  0  0  0  0  0  0  0  0  0  0  0
   15.9617  -11.8598  -19.1463 O   0  0  0  0  0  0  0  0  0  0  0  0
   22.0082  -10.2789  -13.8205 C   0  0  0  0  0  0  0  0  0  0  0  0
   22.3229   -8.9625  -14.5423 C   0  0  1  0  0  0  0  0  0  0  0  0
   23.2977   -9.1858  -15.5208 O   0  0  0  0  0  0  0  0  0  0  0  0
   21.0247   -8.4883  -15.1661 C   0  0  2  0  0  0  0  0  0  0  0  0
   20.5899   -9.3416  -16.2344 N   0  0  0  0  0  0  0  0  0  0  0  0
   21.2469   -7.0897  -15.6167 C   0  0  0  0  0  0  0  0  0  0  0  0
   21.8626   -6.7834  -16.6670 O   0  0  0  0  0  0  0  0  0  0  0  0
   20.7625   -5.9610  -14.8663 N   0  0  0  0  0  0  0  0  0  0  0  0
   20.9225   -4.5977  -15.3272 C   0  0  1  0  0  0  0  0  0  0  0  0
   19.8930   -3.6608  -14.7428 C   0  0  0  0  0  0  0  0  0  0  0  0
   18.5187   -3.9955  -15.1239 C   0  0  0  0  0  0  0  0  0  0  0  0
   17.5907   -4.1269  -14.3081 O   0  0  0  0  0  0  0  0  0  0  0  0
   22.2461   -4.1206  -14.8651 C   0  0  0  0  0  0  0  0  0  0  0  0
   22.8540   -4.7519  -13.9684 O   0  0  0  0  0  0  0  0  0  0  0  0
   18.2308   -4.1763  -16.4609 O   0  0  0  0  0  0  0  0  0  0  0  0
   22.8515   -2.9793  -15.3964 O   0  0  0  0  0  0  0  0  0  0  0  0
  2  1  1  1
  2  3  1  0
  3  4  1  0
  4  8  1  0
  5  4  2  0
  6  2  1  0
  7  6  2  0
 10  9  1  6
 10 12  1  0
 11 10  1  0
 12 14  1  0
 12 13  1  6
 13  6  1  0
 14 16  1  0
 15 14  2  0
 16 17  1  0
 17 18  1  1
 17 21  1  0
 18 19  1  0
 19 20  2  0
 19 23  1  0
 21 22  2  0
 21 24  1  0
M  END
$$$$
