DTD.pdb
     RDKit          3D

 24 23  0  0  1  0  0  0  0  0999 V2000
   18.8101  -12.7512  -16.7105 N   0  0  0  0  0  0  0  0  0  0  0  0
   19.1158  -11.4413  -17.2519 C   0  0  1  0  0  0  0  0  0  0  0  0
   17.9173  -10.9134  -18.0098 C   0  0  0  0  0  0  0  0  0  0  0  0
   17.7103  -11.7018  -19.2350 C   0  0  0  0  0  0  0  0  0  0  0  0
   17.2423  -12.8533  -19.1711 O   0  0  0  0  0  0  0  0  0  0  0  0
   19.5468  -10.5005  -16.1865 C   0  0  0  0  0  0  0  0  0  0  0  0
   18.8833  -10.3959  -15.1236 O   0  0  0  0  0  0  0  0  0  0  0  0
   18.0362  -11.1621  -20.4569 O   0  0  0  0  0  0  0  0  0  0  0  0
   22.5700  -10.6348  -14.1868 C   0  0  0  0  0  0  0  0  0  0  0  0
   22.6356   -9.2573  -14.8583 C   0  0  1  0  0  0  0  0  0  0  0  0
   23.4476   -9.3283  -15.9955 O   0  0  0  0  0  0  0  0  0  0  0  0
   21.2126   -8.8867  -15.2286 C   0  0  2  0  0  0  0  0  0  0  0  0
   20.7040   -9.6861  -16.3058 N   0  0  0  0  0  0  0  0  0  0  0  0
   21.2142   -7.4368  -15.5548 C   0  0  0  0  0  0  0  0  0  0  0  0
   21.5739   -6.9703  -16.6634 O   0  0  0  0  0  0  0  0  0  0  0  0
   20.7949   -6.4411  -14.6037 N   0  0  0  0  0  0  0  0  0  0  0  0
   20.8647   -5.0224  -14.8854 C   0  0  1  0  0  0  0  0  0  0  0  0
   19.7960   -4.2331  -14.1685 C   0  0  0  0  0  0  0  0  0  0  0  0
   19.8795   -2.7902  -14.4071 C   0  0  0  0  0  0  0  0  0  0  0  0
   20.5710   -2.2797  -15.3044 O   0  0  0  0  0  0  0  0  0  0  0  0
   22.1684   -4.5296  -14.3852 C   0  0  0  0  0  0  0  0  0  0  0  0
   22.8275   -3.7135  -15.0721 O   0  0  0  0  0  0  0  0  0  0  0  0
   19.1530   -1.9445  -13.5945 O   0  0  0  0  0  0  0  0  0  0  0  0
   22.6996   -4.9442  -13.1615 O   0  0  0  0  0  0  0  0  0  0  0  0
  2  1  1  1
  2  3  1  0
  3  4  1  0
  4  8  1  0
  5  4  2  0
  6  2  1  0
  7  6  2  0
 10  9  1  6
 10 12  1  0
 11 10  1  0
 12 14  1  0
 12 13  1  6
 13  6  1  0
 14 16  1  0
 15 14  2  0
 16 17  1  0
 17 18  1  1
 17 21  1  0
 18 19  1  0
 19 20  2  0
 19 23  1  0
 21 22  2  0
 21 24  1  0
M  END
$$$$
