DTD.pdb
     RDKit          3D

 24 23  0  0  1  0  0  0  0  0999 V2000
   17.6337  -12.7938  -15.9816 N   0  0  0  0  0  0  0  0  0  0  0  0
   17.7983  -11.4487  -16.4970 C   0  0  1  0  0  0  0  0  0  0  0  0
   16.4452  -10.7822  -16.6168 C   0  0  0  0  0  0  0  0  0  0  0  0
   15.6255  -11.4851  -17.6167 C   0  0  0  0  0  0  0  0  0  0  0  0
   16.0310  -11.6117  -18.7866 O   0  0  0  0  0  0  0  0  0  0  0  0
   18.7266  -10.6536  -15.6531 C   0  0  0  0  0  0  0  0  0  0  0  0
   18.4982  -10.5010  -14.4261 O   0  0  0  0  0  0  0  0  0  0  0  0
   14.4049  -12.0045  -17.2552 O   0  0  0  0  0  0  0  0  0  0  0  0
   22.5440   -9.6778  -17.0634 C   0  0  0  0  0  0  0  0  0  0  0  0
   22.2571   -9.7935  -15.5610 C   0  0  1  0  0  0  0  0  0  0  0  0
   23.1590   -8.9955  -14.8487 O   0  0  0  0  0  0  0  0  0  0  0  0
   20.8314   -9.3206  -15.3536 C   0  0  2  0  0  0  0  0  0  0  0  0
   19.8953  -10.0362  -16.1721 N   0  0  0  0  0  0  0  0  0  0  0  0
   20.8164   -7.8597  -15.6258 C   0  0  0  0  0  0  0  0  0  0  0  0
   20.7969   -7.3639  -16.7790 O   0  0  0  0  0  0  0  0  0  0  0  0
   20.8234   -6.8865  -14.5653 N   0  0  0  0  0  0  0  0  0  0  0  0
   20.8063   -5.4614  -14.8212 C   0  0  1  0  0  0  0  0  0  0  0  0
   19.5335   -4.8003  -14.3499 C   0  0  0  0  0  0  0  0  0  0  0  0
   19.4797   -3.3661  -14.6431 C   0  0  0  0  0  0  0  0  0  0  0  0
   19.8639   -2.8674  -15.7143 O   0  0  0  0  0  0  0  0  0  0  0  0
   21.9148   -4.8541  -14.0495 C   0  0  0  0  0  0  0  0  0  0  0  0
   22.4332   -5.4921  -13.1026 O   0  0  0  0  0  0  0  0  0  0  0  0
   18.9755   -2.5152  -13.6813 O   0  0  0  0  0  0  0  0  0  0  0  0
   22.4118   -3.5812  -14.3393 O   0  0  0  0  0  0  0  0  0  0  0  0
  2  1  1  1
  2  3  1  0
  3  4  1  0
  4  8  1  0
  5  4  2  0
  6  2  1  0
  7  6  2  0
 10  9  1  6
 10 12  1  0
 11 10  1  0
 12 14  1  0
 12 13  1  6
 13  6  1  0
 14 16  1  0
 15 14  2  0
 16 17  1  0
 17 18  1  1
 17 21  1  0
 18 19  1  0
 19 20  2  0
 19 23  1  0
 21 22  2  0
 21 24  1  0
M  END
$$$$
