DTD.pdb
     RDKit          3D

 24 23  0  0  1  0  0  0  0  0999 V2000
   19.8542  -12.9729  -17.5192 N   0  0  0  0  0  0  0  0  0  0  0  0
   19.8660  -11.5646  -17.8638 C   0  0  1  0  0  0  0  0  0  0  0  0
   18.5225  -11.1718  -18.4384 C   0  0  0  0  0  0  0  0  0  0  0  0
   18.2065  -12.0169  -19.6009 C   0  0  0  0  0  0  0  0  0  0  0  0
   19.0577  -12.2114  -20.4879 O   0  0  0  0  0  0  0  0  0  0  0  0
   20.2282  -10.7225  -16.6952 C   0  0  0  0  0  0  0  0  0  0  0  0
   19.5214  -10.7395  -15.6555 O   0  0  0  0  0  0  0  0  0  0  0  0
   16.9633  -12.5945  -19.7068 O   0  0  0  0  0  0  0  0  0  0  0  0
   23.3693  -10.6465  -14.7028 C   0  0  0  0  0  0  0  0  0  0  0  0
   23.1842   -9.2024  -15.1859 C   0  0  1  0  0  0  0  0  0  0  0  0
   24.0134   -8.9669  -16.2880 O   0  0  0  0  0  0  0  0  0  0  0  0
   21.7230   -9.0549  -15.5633 C   0  0  2  0  0  0  0  0  0  0  0  0
   21.3652   -9.8719  -16.6870 N   0  0  0  0  0  0  0  0  0  0  0  0
   21.4861   -7.6101  -15.8187 C   0  0  0  0  0  0  0  0  0  0  0  0
   21.5383   -7.0841  -16.9574 O   0  0  0  0  0  0  0  0  0  0  0  0
   21.1731   -6.6897  -14.7573 N   0  0  0  0  0  0  0  0  0  0  0  0
   21.0418   -5.2651  -14.9806 C   0  0  1  0  0  0  0  0  0  0  0  0
   19.6399   -4.7633  -14.7316 C   0  0  0  0  0  0  0  0  0  0  0  0
   19.4958   -3.3185  -14.9256 C   0  0  0  0  0  0  0  0  0  0  0  0
   19.7832   -2.7338  -15.9836 O   0  0  0  0  0  0  0  0  0  0  0  0
   21.9215   -4.5761  -14.0088 C   0  0  0  0  0  0  0  0  0  0  0  0
   22.1780   -3.3580  -14.1601 O   0  0  0  0  0  0  0  0  0  0  0  0
   19.0151   -2.5577  -13.8799 O   0  0  0  0  0  0  0  0  0  0  0  0
   22.4842   -5.2393  -12.9157 O   0  0  0  0  0  0  0  0  0  0  0  0
  2  1  1  1
  2  3  1  0
  3  4  1  0
  4  8  1  0
  5  4  2  0
  6  2  1  0
  7  6  2  0
 10  9  1  6
 10 12  1  0
 11 10  1  0
 12 14  1  0
 12 13  1  6
 13  6  1  0
 14 16  1  0
 15 14  2  0
 16 17  1  0
 17 18  1  1
 17 21  1  0
 18 19  1  0
 19 20  2  0
 19 23  1  0
 21 22  2  0
 21 24  1  0
M  END
$$$$
