DTD.pdb
     RDKit          3D

 24 23  0  0  1  0  0  0  0  0999 V2000
   19.6245  -12.7357  -16.0722 N   0  0  0  0  0  0  0  0  0  0  0  0
   19.9094  -11.5193  -16.8079 C   0  0  1  0  0  0  0  0  0  0  0  0
   18.6114  -10.8582  -17.2173 C   0  0  0  0  0  0  0  0  0  0  0  0
   17.8636  -11.7401  -18.1277 C   0  0  0  0  0  0  0  0  0  0  0  0
   18.4624  -12.5816  -18.8222 O   0  0  0  0  0  0  0  0  0  0  0  0
   20.7682  -10.5973  -16.0215 C   0  0  0  0  0  0  0  0  0  0  0  0
   20.4462  -10.2715  -14.8506 O   0  0  0  0  0  0  0  0  0  0  0  0
   16.4953  -11.6329  -18.2105 O   0  0  0  0  0  0  0  0  0  0  0  0
   24.2817  -10.8665  -14.8669 C   0  0  0  0  0  0  0  0  0  0  0  0
   24.2483   -9.6056  -15.7397 C   0  0  1  0  0  0  0  0  0  0  0  0
   24.7199   -9.9099  -17.0213 O   0  0  0  0  0  0  0  0  0  0  0  0
   22.8033   -9.1482  -15.7864 C   0  0  2  0  0  0  0  0  0  0  0  0
   21.9715  -10.0457  -16.5354 N   0  0  0  0  0  0  0  0  0  0  0  0
   22.8027   -7.7741  -16.3526 C   0  0  0  0  0  0  0  0  0  0  0  0
   22.5479   -7.5135  -17.5539 O   0  0  0  0  0  0  0  0  0  0  0  0
   23.1004   -6.6182  -15.5484 N   0  0  0  0  0  0  0  0  0  0  0  0
   23.1622   -5.2825  -16.1041 C   0  0  1  0  0  0  0  0  0  0  0  0
   22.9679   -4.2082  -15.0613 C   0  0  0  0  0  0  0  0  0  0  0  0
   21.6358   -4.2226  -14.4521 C   0  0  0  0  0  0  0  0  0  0  0  0
   20.5802   -4.2686  -15.1060 O   0  0  0  0  0  0  0  0  0  0  0  0
   24.5192   -5.0930  -16.6657 C   0  0  0  0  0  0  0  0  0  0  0  0
   25.4418   -5.8751  -16.3348 O   0  0  0  0  0  0  0  0  0  0  0  0
   21.5396   -4.1830  -13.0765 O   0  0  0  0  0  0  0  0  0  0  0  0
   24.8154   -4.0630  -17.5617 O   0  0  0  0  0  0  0  0  0  0  0  0
  2  1  1  1
  2  3  1  0
  3  4  1  0
  4  8  1  0
  5  4  2  0
  6  2  1  0
  7  6  2  0
 10  9  1  1
 10 12  1  0
 11 10  1  0
 12 14  1  0
 12 13  1  6
 13  6  1  0
 14 16  1  0
 15 14  2  0
 16 17  1  0
 17 18  1  1
 17 21  1  0
 18 19  1  0
 19 20  2  0
 19 23  1  0
 21 22  2  0
 21 24  1  0
M  END
$$$$
