DTD.pdb
     RDKit          3D

 24 23  0  0  1  0  0  0  0  0999 V2000
   16.1558  -12.8648  -15.4437 N   0  0  0  0  0  0  0  0  0  0  0  0
   17.6050  -12.8429  -15.4818 C   0  0  1  0  0  0  0  0  0  0  0  0
   18.1069  -13.9766  -16.3491 C   0  0  0  0  0  0  0  0  0  0  0  0
   17.6071  -15.2618  -15.8352 C   0  0  0  0  0  0  0  0  0  0  0  0
   17.9731  -15.6797  -14.7214 O   0  0  0  0  0  0  0  0  0  0  0  0
   18.1162  -11.5291  -15.9494 C   0  0  0  0  0  0  0  0  0  0  0  0
   19.1578  -11.4650  -16.6507 O   0  0  0  0  0  0  0  0  0  0  0  0
   16.7307  -16.0044  -16.5908 O   0  0  0  0  0  0  0  0  0  0  0  0
   16.1848   -8.9296  -17.8759 C   0  0  0  0  0  0  0  0  0  0  0  0
   16.7652   -8.1906  -16.6634 C   0  0  1  0  0  0  0  0  0  0  0  0
   15.7746   -8.0422  -15.6866 O   0  0  0  0  0  0  0  0  0  0  0  0
   17.9141   -9.0359  -16.1488 C   0  0  2  0  0  0  0  0  0  0  0  0
   17.4730  -10.3020  -15.6382 N   0  0  0  0  0  0  0  0  0  0  0  0
   18.6187   -8.2277  -15.1199 C   0  0  0  0  0  0  0  0  0  0  0  0
   18.3562   -8.2756  -13.8931 O   0  0  0  0  0  0  0  0  0  0  0  0
   19.6753   -7.3120  -15.4617 N   0  0  0  0  0  0  0  0  0  0  0  0
   20.3826   -6.5373  -14.4636 C   0  0  1  0  0  0  0  0  0  0  0  0
   21.7298   -6.0567  -14.9463 C   0  0  0  0  0  0  0  0  0  0  0  0
   22.4357   -5.2251  -13.9685 C   0  0  0  0  0  0  0  0  0  0  0  0
   22.4538   -5.4619  -12.7489 O   0  0  0  0  0  0  0  0  0  0  0  0
   19.5747   -5.3295  -14.1782 C   0  0  0  0  0  0  0  0  0  0  0  0
   19.8788   -4.5953  -13.2082 O   0  0  0  0  0  0  0  0  0  0  0  0
   23.1208   -4.1157  -14.4190 O   0  0  0  0  0  0  0  0  0  0  0  0
   18.4723   -4.9716  -14.9580 O   0  0  0  0  0  0  0  0  0  0  0  0
  2  1  1  6
  2  3  1  0
  3  4  1  0
  4  8  1  0
  5  4  2  0
  6  2  1  0
  7  6  2  0
 10  9  1  6
 10 12  1  0
 11 10  1  0
 12 14  1  0
 12 13  1  1
 13  6  1  0
 14 16  1  0
 15 14  2  0
 16 17  1  0
 17 18  1  6
 17 21  1  0
 18 19  1  0
 19 20  2  0
 19 23  1  0
 21 22  2  0
 21 24  1  0
M  END
$$$$
