DTD.pdb
     RDKit          3D

 24 23  0  0  1  0  0  0  0  0999 V2000
   18.4737  -12.6803  -15.9728 N   0  0  0  0  0  0  0  0  0  0  0  0
   18.2510  -11.2554  -16.1214 C   0  0  1  0  0  0  0  0  0  0  0  0
   16.8202  -10.9248  -15.7566 C   0  0  0  0  0  0  0  0  0  0  0  0
   15.9045  -11.4655  -16.7738 C   0  0  0  0  0  0  0  0  0  0  0  0
   16.2599  -11.5415  -17.9642 O   0  0  0  0  0  0  0  0  0  0  0  0
   19.2170  -10.4676  -15.3138 C   0  0  0  0  0  0  0  0  0  0  0  0
   19.3031  -10.6466  -14.0722 O   0  0  0  0  0  0  0  0  0  0  0  0
   14.6492  -11.8888  -16.4058 O   0  0  0  0  0  0  0  0  0  0  0  0
   22.7157  -10.3991  -14.7890 C   0  0  0  0  0  0  0  0  0  0  0  0
   22.4357   -9.0244  -15.4093 C   0  0  1  0  0  0  0  0  0  0  0  0
   22.6614   -9.0779  -16.7891 O   0  0  0  0  0  0  0  0  0  0  0  0
   20.9856   -8.6994  -15.1078 C   0  0  2  0  0  0  0  0  0  0  0  0
   20.0765   -9.4920  -15.8847 N   0  0  0  0  0  0  0  0  0  0  0  0
   20.8100   -7.2432  -15.3471 C   0  0  0  0  0  0  0  0  0  0  0  0
   20.3435   -6.7606  -16.4080 O   0  0  0  0  0  0  0  0  0  0  0  0
   21.1694   -6.2596  -14.3596 N   0  0  0  0  0  0  0  0  0  0  0  0
   21.0986   -4.8372  -14.6210 C   0  0  1  0  0  0  0  0  0  0  0  0
   21.2610   -4.0064  -13.3710 C   0  0  0  0  0  0  0  0  0  0  0  0
   21.1617   -2.5651  -13.6130 C   0  0  0  0  0  0  0  0  0  0  0  0
   22.1036   -1.7723  -13.4453 O   0  0  0  0  0  0  0  0  0  0  0  0
   22.2264   -4.4890  -15.5154 C   0  0  0  0  0  0  0  0  0  0  0  0
   23.3685   -4.9504  -15.2811 O   0  0  0  0  0  0  0  0  0  0  0  0
   19.9587   -2.0518  -14.0519 O   0  0  0  0  0  0  0  0  0  0  0  0
   22.0650   -3.6555  -16.6247 O   0  0  0  0  0  0  0  0  0  0  0  0
  2  1  1  1
  2  3  1  0
  3  4  1  0
  4  8  1  0
  5  4  2  0
  6  2  1  0
  7  6  2  0
 10  9  1  1
 10 12  1  0
 11 10  1  0
 12 14  1  0
 12 13  1  6
 13  6  1  0
 14 16  1  0
 15 14  2  0
 16 17  1  0
 17 18  1  1
 17 21  1  0
 18 19  1  0
 19 20  2  0
 19 23  1  0
 21 22  2  0
 21 24  1  0
M  END
$$$$
