ARA.pdb
     RDKit          3D

 22 21  0  0  1  0  0  0  0  0999 V2000
   16.3210  -13.7313  -12.0380 C   0  0  0  0  0  0  0  0  0  0  0  0
   15.3142  -12.8688  -12.7359 C   0  0  2  0  0  0  0  0  0  0  0  0
   14.3606  -13.6330  -13.4697 N   0  0  0  0  0  0  0  0  0  0  0  0
   15.9109  -11.7622  -13.5187 C   0  0  0  0  0  0  0  0  0  0  0  0
   16.0819  -11.9205  -14.7735 O   0  0  0  0  0  0  0  0  0  0  0  0
   14.8998   -3.1775  -13.9923 N   0  0  0  0  0  0  0  0  0  0  0  0
   15.9251   -3.3989  -14.9678 C   0  0  0  0  0  0  0  0  0  0  0  0
   16.2995   -2.4471  -15.7275 N   0  0  0  0  0  0  0  0  0  0  0  0
   16.5067   -4.6953  -15.0609 N   0  0  0  0  0  0  0  0  0  0  0  0
   16.0695   -5.7517  -14.1558 C   0  0  0  0  0  0  0  0  0  0  0  0
   16.7660   -7.0533  -14.4622 C   0  0  0  0  0  0  0  0  0  0  0  0
   16.2190   -8.1340  -13.5554 C   0  0  0  0  0  0  0  0  0  0  0  0
   16.8903   -9.4655  -13.8066 C   0  0  2  0  0  0  0  0  0  0  0  0
   16.3177  -10.5155  -12.9827 N   0  0  0  0  0  0  0  0  0  0  0  0
   18.3324   -9.3688  -13.5743 C   0  0  0  0  0  0  0  0  0  0  0  0
   18.7759   -9.2370  -12.4163 O   0  0  0  0  0  0  0  0  0  0  0  0
   17.0537   -2.5943  -16.4073 C   0  0  0  0  0  0  0  0  0  0  0  0
   21.3863   -9.6581  -15.7353 C   0  0  1  0  0  0  0  0  0  0  0  0
   20.6627   -9.2762  -14.4417 N   0  0  0  0  0  0  0  0  0  0  0  0
   19.2326   -9.4255  -14.6612 C   0  0  0  0  0  0  0  0  0  0  0  0
   20.9297   -7.8625  -14.0916 O   0  0  0  0  0  0  0  0  0  0  0  0
   20.2012   -6.9573  -14.5735 O   0  0  0  0  0  0  0  0  0  0  0  0
  2  1  1  6
  2  3  1  0
  4  2  1  0
  4  5  2  0
  7  6  1  0
  7  8  2  0
  9 10  1  0
  9  7  1  0
 11 12  1  0
 11 10  1  0
 13 14  1  0
 13 12  1  1
 14  4  1  0
 15 13  1  0
 16 15  2  0
 18 17  1  1
 18 19  1  0
 19 15  1  0
 20 18  1  0
 20 22  1  0
 21 20  2  0
M  END
$$$$
