ARA.pdb
     RDKit          3D

 22 21  0  0  1  0  0  0  0  0999 V2000
   41.5465   -8.7486  -10.1899 C   0  0  0  0  0  0  0  0  0  0  0  0
   40.9298   -9.8946   -9.4476 C   0  0  2  0  0  0  0  0  0  0  0  0
   40.1601   -9.4646   -8.3276 N   0  0  0  0  0  0  0  0  0  0  0  0
   41.8808  -10.9836   -9.1262 C   0  0  0  0  0  0  0  0  0  0  0  0
   42.4555  -10.9801   -7.9867 O   0  0  0  0  0  0  0  0  0  0  0  0
   42.5552  -19.5957  -10.1803 N   0  0  0  0  0  0  0  0  0  0  0  0
   43.8344  -19.2661   -9.6261 C   0  0  0  0  0  0  0  0  0  0  0  0
   44.6232  -20.1917   -9.2465 N   0  0  0  0  0  0  0  0  0  0  0  0
   44.1940  -17.8928   -9.5154 N   0  0  0  0  0  0  0  0  0  0  0  0
   43.2070  -16.8600   -9.8079 C   0  0  0  0  0  0  0  0  0  0  0  0
   43.7736  -15.4832   -9.5703 C   0  0  0  0  0  0  0  0  0  0  0  0
   42.7169  -14.4494   -9.8930 C   0  0  0  0  0  0  0  0  0  0  0  0
   43.2202  -13.0438   -9.6537 C   0  0  2  0  0  0  0  0  0  0  0  0
   42.2154  -12.0520   -9.9942 N   0  0  0  0  0  0  0  0  0  0  0  0
   44.4497  -12.7998  -10.4100 C   0  0  0  0  0  0  0  0  0  0  0  0
   44.4002  -12.5702  -11.6347 O   0  0  0  0  0  0  0  0  0  0  0  0
   45.5639  -19.9624   -8.9071 C   0  0  0  0  0  0  0  0  0  0  0  0
   48.0188  -12.1736   -9.5153 C   0  0  1  0  0  0  0  0  0  0  0  0
   46.9270  -12.5872  -10.5051 N   0  0  0  0  0  0  0  0  0  0  0  0
   45.7019  -12.8213   -9.7569 C   0  0  0  0  0  0  0  0  0  0  0  0
   47.2945  -13.8461  -11.1924 O   0  0  0  0  0  0  0  0  0  0  0  0
   47.0445  -14.9484  -10.6403 O   0  0  0  0  0  0  0  0  0  0  0  0
  2  1  1  1
  2  3  1  0
  4  2  1  0
  4  5  2  0
  7  6  1  0
  7  8  2  0
  9 10  1  0
  9  7  1  0
 11 12  1  0
 11 10  1  0
 13 14  1  0
 13 12  1  6
 14  4  1  0
 15 13  1  0
 16 15  2  0
 18 17  1  6
 18 19  1  0
 19 15  1  0
 20 18  1  0
 20 22  1  0
 21 20  2  0
M  END
$$$$
