ARA.pdb
     RDKit          3D

 22 21  0  0  1  0  0  0  0  0999 V2000
   28.1461  -20.6639  -18.5546 C   0  0  0  0  0  0  0  0  0  0  0  0
   28.3983  -21.6805  -17.4834 C   0  0  2  0  0  0  0  0  0  0  0  0
   28.7643  -22.9509  -18.0160 N   0  0  0  0  0  0  0  0  0  0  0  0
   27.3279  -21.7555  -16.4624 C   0  0  0  0  0  0  0  0  0  0  0  0
   26.2642  -22.4058  -16.7350 O   0  0  0  0  0  0  0  0  0  0  0  0
   23.3732  -20.1947  -10.7988 N   0  0  0  0  0  0  0  0  0  0  0  0
   23.8148  -20.7722   -9.5645 C   0  0  0  0  0  0  0  0  0  0  0  0
   22.9768  -21.0078   -8.6342 N   0  0  0  0  0  0  0  0  0  0  0  0
   25.1981  -21.0728   -9.4108 N   0  0  0  0  0  0  0  0  0  0  0  0
   26.1415  -20.6960  -10.4570 C   0  0  0  0  0  0  0  0  0  0  0  0
   25.6865  -21.1950  -11.8051 C   0  0  0  0  0  0  0  0  0  0  0  0
   26.7137  -20.8122  -12.8482 C   0  0  0  0  0  0  0  0  0  0  0  0
   26.2859  -21.2378  -14.2347 C   0  0  2  0  0  0  0  0  0  0  0  0
   27.3842  -21.1537  -15.1812 N   0  0  0  0  0  0  0  0  0  0  0  0
   25.1557  -20.4305  -14.6970 C   0  0  0  0  0  0  0  0  0  0  0  0
   25.3530  -19.3372  -15.2635 O   0  0  0  0  0  0  0  0  0  0  0  0
   23.2805  -21.4687   -7.7693 C   0  0  0  0  0  0  0  0  0  0  0  0
   22.7375  -20.2773  -16.5741 C   0  0  1  0  0  0  0  0  0  0  0  0
   22.7102  -20.1368  -15.0502 N   0  0  0  0  0  0  0  0  0  0  0  0
   23.8322  -20.8853  -14.5058 C   0  0  0  0  0  0  0  0  0  0  0  0
   21.4624  -20.7087  -14.4950 O   0  0  0  0  0  0  0  0  0  0  0  0
   21.4626  -21.8888  -14.0596 O   0  0  0  0  0  0  0  0  0  0  0  0
  2  1  1  6
  2  3  1  0
  4  2  1  0
  4  5  2  0
  7  6  1  0
  7  8  2  0
  9 10  1  0
  9  7  1  0
 11 12  1  0
 11 10  1  0
 13 14  1  0
 13 12  1  1
 14  4  1  0
 15 13  1  0
 16 15  2  0
 18 17  1  6
 18 19  1  0
 19 15  1  0
 20 18  1  0
 20 22  1  0
 21 20  2  0
M  END
$$$$
