ARA.pdb
     RDKit          3D

 22 21  0  0  1  0  0  0  0  0999 V2000
   17.6790  -12.4506  -17.6412 C   0  0  0  0  0  0  0  0  0  0  0  0
   18.4824  -11.9871  -16.4647 C   0  0  2  0  0  0  0  0  0  0  0  0
   18.0217  -12.5479  -15.2379 N   0  0  0  0  0  0  0  0  0  0  0  0
   18.6720  -10.5193  -16.4074 C   0  0  0  0  0  0  0  0  0  0  0  0
   19.4949   -9.9747  -17.2167 O   0  0  0  0  0  0  0  0  0  0  0  0
   13.8100   -3.4767  -14.4116 N   0  0  0  0  0  0  0  0  0  0  0  0
   15.1234   -2.9097  -14.4859 C   0  0  0  0  0  0  0  0  0  0  0  0
   15.2793   -1.6478  -14.4053 N   0  0  0  0  0  0  0  0  0  0  0  0
   16.2341   -3.7857  -14.6483 N   0  0  0  0  0  0  0  0  0  0  0  0
   16.0146   -5.2246  -14.7364 C   0  0  0  0  0  0  0  0  0  0  0  0
   17.2859   -5.9474  -15.1031 C   0  0  0  0  0  0  0  0  0  0  0  0
   17.0133   -7.4349  -15.1555 C   0  0  0  0  0  0  0  0  0  0  0  0
   18.2647   -8.2203  -15.4774 C   0  0  2  0  0  0  0  0  0  0  0  0
   18.0043   -9.6486  -15.5115 N   0  0  0  0  0  0  0  0  0  0  0  0
   19.3245   -7.9213  -14.5128 C   0  0  0  0  0  0  0  0  0  0  0  0
   19.2195   -8.2931  -13.3271 O   0  0  0  0  0  0  0  0  0  0  0  0
   16.2220   -1.2428  -14.3975 C   0  0  0  0  0  0  0  0  0  0  0  0
   22.7822   -7.7253  -14.4107 C   0  0  1  0  0  0  0  0  0  0  0  0
   21.5452   -6.9378  -13.9720 N   0  0  0  0  0  0  0  0  0  0  0  0
   20.4752   -7.2101  -14.9189 C   0  0  0  0  0  0  0  0  0  0  0  0
   21.8182   -5.4826  -13.9917 O   0  0  0  0  0  0  0  0  0  0  0  0
   21.3426   -4.7762  -14.9174 O   0  0  0  0  0  0  0  0  0  0  0  0
  2  1  1  6
  2  3  1  0
  4  2  1  0
  4  5  2  0
  7  6  1  0
  7  8  2  0
  9 10  1  0
  9  7  1  0
 11 12  1  0
 11 10  1  0
 13 14  1  0
 13 12  1  1
 14  4  1  0
 15 13  1  0
 16 15  2  0
 18 17  1  1
 18 19  1  0
 19 15  1  0
 20 18  1  0
 20 22  1  0
 21 20  2  0
M  END
$$$$
