ARA.pdb
     RDKit          3D

 22 21  0  0  1  0  0  0  0  0999 V2000
   45.7916   -5.0032  -11.2521 C   0  0  0  0  0  0  0  0  0  0  0  0
   45.4817   -6.3663  -10.7131 C   0  0  2  0  0  0  0  0  0  0  0  0
   46.3582   -7.3656  -11.2276 N   0  0  0  0  0  0  0  0  0  0  0  0
   44.0501   -6.7359  -10.8010 C   0  0  0  0  0  0  0  0  0  0  0  0
   43.6203   -7.2750  -11.8749 O   0  0  0  0  0  0  0  0  0  0  0  0
   38.1981  -10.4379   -5.6219 N   0  0  0  0  0  0  0  0  0  0  0  0
   37.3853  -10.1214   -6.7584 C   0  0  0  0  0  0  0  0  0  0  0  0
   36.1861  -10.5467   -6.8237 N   0  0  0  0  0  0  0  0  0  0  0  0
   37.9487   -9.3273   -7.7973 N   0  0  0  0  0  0  0  0  0  0  0  0
   39.2594   -8.7157   -7.6114 C   0  0  0  0  0  0  0  0  0  0  0  0
   39.7402   -8.0630   -8.8826 C   0  0  0  0  0  0  0  0  0  0  0  0
   41.1783   -7.6278   -8.7034 C   0  0  0  0  0  0  0  0  0  0  0  0
   41.7000   -6.9087   -9.9270 C   0  0  2  0  0  0  0  0  0  0  0  0
   43.0956   -6.5374   -9.7732 N   0  0  0  0  0  0  0  0  0  0  0  0
   40.8894   -5.7242  -10.2148 C   0  0  0  0  0  0  0  0  0  0  0  0
   41.0789   -4.6639   -9.5862 O   0  0  0  0  0  0  0  0  0  0  0  0
   35.5994  -10.3168   -7.6334 C   0  0  0  0  0  0  0  0  0  0  0  0
   38.2638   -4.8970  -12.7717 C   0  0  1  0  0  0  0  0  0  0  0  0
   39.1268   -4.5806  -11.5477 N   0  0  0  0  0  0  0  0  0  0  0  0
   39.8866   -5.7735  -11.2083 C   0  0  0  0  0  0  0  0  0  0  0  0
   38.2778   -4.2295  -10.3866 O   0  0  0  0  0  0  0  0  0  0  0  0
   37.8372   -5.1435   -9.6431 O   0  0  0  0  0  0  0  0  0  0  0  0
  2  1  1  6
  2  3  1  0
  4  2  1  0
  4  5  2  0
  7  6  1  0
  7  8  2  0
  9 10  1  0
  9  7  1  0
 11 12  1  0
 11 10  1  0
 13 14  1  0
 13 12  1  1
 14  4  1  0
 15 13  1  0
 16 15  2  0
 18 17  1  6
 18 19  1  0
 19 15  1  0
 20 18  1  0
 20 22  1  0
 21 20  2  0
M  END
$$$$
