ARA.pdb
     RDKit          3D

 22 21  0  0  1  0  0  0  0  0999 V2000
   25.6133  -14.7413  -15.1233 C   0  0  0  0  0  0  0  0  0  0  0  0
   26.2033  -15.7736  -16.0348 C   0  0  2  0  0  0  0  0  0  0  0  0
   26.6150  -15.2234  -17.2836 N   0  0  0  0  0  0  0  0  0  0  0  0
   25.3779  -16.9956  -16.1724 C   0  0  0  0  0  0  0  0  0  0  0  0
   24.3816  -16.9767  -16.9696 O   0  0  0  0  0  0  0  0  0  0  0  0
   27.0145  -25.0551  -16.6870 N   0  0  0  0  0  0  0  0  0  0  0  0
   27.5704  -23.8368  -16.1782 C   0  0  0  0  0  0  0  0  0  0  0  0
   28.8332  -23.6677  -16.1658 N   0  0  0  0  0  0  0  0  0  0  0  0
   26.6826  -22.8337  -15.6954 N   0  0  0  0  0  0  0  0  0  0  0  0
   25.2465  -22.9764  -15.9043 C   0  0  0  0  0  0  0  0  0  0  0  0
   24.4899  -21.8299  -15.2828 C   0  0  0  0  0  0  0  0  0  0  0  0
   25.4095  -20.6339  -15.1663 C   0  0  0  0  0  0  0  0  0  0  0  0
   24.7329  -19.3630  -15.6284 C   0  0  2  0  0  0  0  0  0  0  0  0
   25.6038  -18.2104  -15.4796 N   0  0  0  0  0  0  0  0  0  0  0  0
   23.4813  -19.1499  -14.8997 C   0  0  0  0  0  0  0  0  0  0  0  0
   23.4910  -19.0043  -13.6612 O   0  0  0  0  0  0  0  0  0  0  0  0
   29.2357  -22.8065  -15.7797 C   0  0  0  0  0  0  0  0  0  0  0  0
   20.0987  -18.0562  -15.9171 C   0  0  1  0  0  0  0  0  0  0  0  0
   21.0288  -18.7297  -14.9051 N   0  0  0  0  0  0  0  0  0  0  0  0
   22.2527  -19.1062  -15.5950 C   0  0  0  0  0  0  0  0  0  0  0  0
   20.4083  -19.9602  -14.3635 O   0  0  0  0  0  0  0  0  0  0  0  0
   20.8051  -21.0831  -14.7682 O   0  0  0  0  0  0  0  0  0  0  0  0
  2  1  1  6
  2  3  1  0
  4  2  1  0
  4  5  2  0
  7  6  1  0
  7  8  2  0
  9 10  1  0
  9  7  1  0
 11 12  1  0
 11 10  1  0
 13 14  1  0
 13 12  1  1
 14  4  1  0
 15 13  1  0
 16 15  2  0
 18 17  1  1
 18 19  1  0
 19 15  1  0
 20 18  1  0
 20 22  1  0
 21 20  2  0
M  END
$$$$
