ARA.pdb
     RDKit          3D

 22 21  0  0  1  0  0  0  0  0999 V2000
   15.5456  -12.1411  -13.6043 C   0  0  0  0  0  0  0  0  0  0  0  0
   15.9025  -10.7588  -13.1496 C   0  0  2  0  0  0  0  0  0  0  0  0
   14.7917   -9.8670  -13.2005 N   0  0  0  0  0  0  0  0  0  0  0  0
   17.1250  -10.2146  -13.7843 C   0  0  0  0  0  0  0  0  0  0  0  0
   18.2153  -10.8692  -13.6777 O   0  0  0  0  0  0  0  0  0  0  0  0
   19.1941   -6.6086  -21.3868 N   0  0  0  0  0  0  0  0  0  0  0  0
   20.4336   -6.4929  -20.6780 C   0  0  0  0  0  0  0  0  0  0  0  0
   21.4673   -6.0404  -21.2696 N   0  0  0  0  0  0  0  0  0  0  0  0
   20.4752   -6.8912  -19.3116 N   0  0  0  0  0  0  0  0  0  0  0  0
   19.2531   -7.3287  -18.6473 C   0  0  0  0  0  0  0  0  0  0  0  0
   19.5210   -7.7150  -17.2148 C   0  0  0  0  0  0  0  0  0  0  0  0
   18.2299   -8.1789  -16.5764 C   0  0  0  0  0  0  0  0  0  0  0  0
   18.4219   -8.5235  -15.1166 C   0  0  2  0  0  0  0  0  0  0  0  0
   17.1900   -9.0027  -14.5151 N   0  0  0  0  0  0  0  0  0  0  0  0
   18.9315   -7.3683  -14.3759 C   0  0  0  0  0  0  0  0  0  0  0  0
   18.1710   -6.4256  -14.0790 O   0  0  0  0  0  0  0  0  0  0  0  0
   22.3540   -5.9468  -20.7620 C   0  0  0  0  0  0  0  0  0  0  0  0
   21.9980   -6.6684  -12.4064 C   0  0  1  0  0  0  0  0  0  0  0  0
   20.7905   -6.1893  -13.2161 N   0  0  0  0  0  0  0  0  0  0  0  0
   20.2893   -7.3137  -13.9907 C   0  0  0  0  0  0  0  0  0  0  0  0
   21.1859   -5.1194  -14.1603 O   0  0  0  0  0  0  0  0  0  0  0  0
   21.3344   -5.3933  -15.3789 O   0  0  0  0  0  0  0  0  0  0  0  0
  2  1  1  6
  2  3  1  0
  4  2  1  0
  4  5  2  0
  7  6  1  0
  7  8  2  0
  9 10  1  0
  9  7  1  0
 11 12  1  0
 11 10  1  0
 13 14  1  0
 13 12  1  6
 14  4  1  0
 15 13  1  0
 16 15  2  0
 18 17  1  1
 18 19  1  0
 19 15  1  0
 20 18  1  0
 20 22  1  0
 21 20  2  0
M  END
$$$$
