ARA.pdb
     RDKit          3D

 22 21  0  0  1  0  0  0  0  0999 V2000
   15.2392  -11.2551  -16.3589 C   0  0  0  0  0  0  0  0  0  0  0  0
   16.6892  -11.5308  -16.1018 C   0  0  2  0  0  0  0  0  0  0  0  0
   16.8918  -12.7454  -15.3840 N   0  0  0  0  0  0  0  0  0  0  0  0
   17.4278  -10.3798  -15.5331 C   0  0  0  0  0  0  0  0  0  0  0  0
   17.2749  -10.1026  -14.2968 O   0  0  0  0  0  0  0  0  0  0  0  0
   25.4841   -9.9433  -16.0782 N   0  0  0  0  0  0  0  0  0  0  0  0
   24.8406  -10.8162  -15.1423 C   0  0  0  0  0  0  0  0  0  0  0  0
   25.5247  -11.6749  -14.4959 N   0  0  0  0  0  0  0  0  0  0  0  0
   23.4339  -10.6963  -14.9568 N   0  0  0  0  0  0  0  0  0  0  0  0
   22.6953   -9.6606  -15.6698 C   0  0  0  0  0  0  0  0  0  0  0  0
   21.2373   -9.6704  -15.2860 C   0  0  0  0  0  0  0  0  0  0  0  0
   20.5296   -8.5376  -15.9970 C   0  0  0  0  0  0  0  0  0  0  0  0
   19.0649   -8.4751  -15.6266 C   0  0  2  0  0  0  0  0  0  0  0  0
   18.3086   -9.5411  -16.2596 N   0  0  0  0  0  0  0  0  0  0  0  0
   18.4979   -7.1726  -15.9801 C   0  0  0  0  0  0  0  0  0  0  0  0
   18.3063   -6.8731  -17.1754 O   0  0  0  0  0  0  0  0  0  0  0  0
   25.0760  -12.2664  -13.7877 C   0  0  0  0  0  0  0  0  0  0  0  0
   16.5674   -4.5407  -14.3395 C   0  0  1  0  0  0  0  0  0  0  0  0
   17.6836   -4.9169  -15.3169 N   0  0  0  0  0  0  0  0  0  0  0  0
   18.1623   -6.2455  -14.9688 C   0  0  0  0  0  0  0  0  0  0  0  0
   18.8190   -3.9735  -15.2014 O   0  0  0  0  0  0  0  0  0  0  0  0
   19.8979   -4.3638  -14.6857 O   0  0  0  0  0  0  0  0  0  0  0  0
  2  1  1  1
  2  3  1  0
  4  2  1  0
  4  5  2  0
  7  6  1  0
  7  8  2  0
  9 10  1  0
  9  7  1  0
 11 12  1  0
 11 10  1  0
 13 14  1  0
 13 12  1  6
 14  4  1  0
 15 13  1  0
 16 15  2  0
 18 17  1  6
 18 19  1  0
 19 15  1  0
 20 18  1  0
 20 22  1  0
 21 20  2  0
M  END
$$$$
