ARA.pdb
     RDKit          3D

 22 21  0  0  1  0  0  0  0  0999 V2000
   21.1544  -21.6703  -14.4085 C   0  0  0  0  0  0  0  0  0  0  0  0
   21.8490  -21.6790  -13.0811 C   0  0  2  0  0  0  0  0  0  0  0  0
   20.9601  -21.4039  -12.0014 N   0  0  0  0  0  0  0  0  0  0  0  0
   23.0878  -20.8678  -13.0461 C   0  0  0  0  0  0  0  0  0  0  0  0
   23.0291  -19.6424  -13.3978 O   0  0  0  0  0  0  0  0  0  0  0  0
   30.9091  -21.4066   -8.9206 N   0  0  0  0  0  0  0  0  0  0  0  0
   31.1063  -21.9745  -10.2209 C   0  0  0  0  0  0  0  0  0  0  0  0
   32.1786  -22.6104  -10.4837 N   0  0  0  0  0  0  0  0  0  0  0  0
   30.0822  -21.8112  -11.1966 N   0  0  0  0  0  0  0  0  0  0  0  0
   28.7276  -21.4741  -10.7751 C   0  0  0  0  0  0  0  0  0  0  0  0
   27.8215  -21.2758  -11.9637 C   0  0  0  0  0  0  0  0  0  0  0  0
   26.4555  -20.8413  -11.4791 C   0  0  0  0  0  0  0  0  0  0  0  0
   25.5386  -20.4967  -12.6311 C   0  0  2  0  0  0  0  0  0  0  0  0
   24.3604  -21.3457  -12.6476 N   0  0  0  0  0  0  0  0  0  0  0  0
   26.2516  -20.5947  -13.9058 C   0  0  0  0  0  0  0  0  0  0  0  0
   26.3617  -21.6949  -14.4825 O   0  0  0  0  0  0  0  0  0  0  0  0
   32.3420  -22.9809  -11.4265 C   0  0  0  0  0  0  0  0  0  0  0  0
   27.8707  -18.0965  -16.2044 C   0  0  1  0  0  0  0  0  0  0  0  0
   27.3553  -19.4920  -15.8441 N   0  0  0  0  0  0  0  0  0  0  0  0
   26.8193  -19.4423  -14.4929 C   0  0  0  0  0  0  0  0  0  0  0  0
   28.4595  -20.4783  -15.8655 O   0  0  0  0  0  0  0  0  0  0  0  0
   28.9998  -20.8260  -14.7841 O   0  0  0  0  0  0  0  0  0  0  0  0
  2  1  1  6
  2  3  1  0
  4  2  1  0
  4  5  2  0
  7  6  1  0
  7  8  2  0
  9 10  1  0
  9  7  1  0
 11 12  1  0
 11 10  1  0
 13 14  1  0
 13 12  1  1
 14  4  1  0
 15 13  1  0
 16 15  2  0
 18 17  1  6
 18 19  1  0
 19 15  1  0
 20 18  1  0
 20 22  1  0
 21 20  2  0
M  END
$$$$
