ARA.pdb
     RDKit          3D

 22 21  0  0  1  0  0  0  0  0999 V2000
   25.5891  -20.0418  -15.2764 C   0  0  0  0  0  0  0  0  0  0  0  0
   25.0241  -21.2870  -14.6642 C   0  0  2  0  0  0  0  0  0  0  0  0
   25.5512  -22.4709  -15.2575 N   0  0  0  0  0  0  0  0  0  0  0  0
   23.5467  -21.2877  -14.5590 C   0  0  0  0  0  0  0  0  0  0  0  0
   22.8567  -21.5061  -15.6101 O   0  0  0  0  0  0  0  0  0  0  0  0
   20.2616  -24.4528   -8.8093 N   0  0  0  0  0  0  0  0  0  0  0  0
   18.9439  -24.3943   -9.3682 C   0  0  0  0  0  0  0  0  0  0  0  0
   18.2267  -25.4459   -9.4234 N   0  0  0  0  0  0  0  0  0  0  0  0
   18.4653  -23.1435   -9.8518 N   0  0  0  0  0  0  0  0  0  0  0  0
   19.4116  -22.0826  -10.1763 C   0  0  0  0  0  0  0  0  0  0  0  0
   19.8281  -22.1492  -11.6237 C   0  0  0  0  0  0  0  0  0  0  0  0
   20.8573  -21.0734  -11.8938 C   0  0  0  0  0  0  0  0  0  0  0  0
   21.3679  -21.1342  -13.3158 C   0  0  2  0  0  0  0  0  0  0  0  0
   22.8174  -21.0612  -13.3658 N   0  0  0  0  0  0  0  0  0  0  0  0
   20.7785  -20.0642  -14.1224 C   0  0  0  0  0  0  0  0  0  0  0  0
   21.1818  -18.8903  -14.0020 O   0  0  0  0  0  0  0  0  0  0  0  0
   17.2903  -25.4117   -9.8414 C   0  0  0  0  0  0  0  0  0  0  0  0
   19.6402  -19.6074  -17.3416 C   0  0  1  0  0  0  0  0  0  0  0  0
   19.2124  -19.3093  -15.9025 N   0  0  0  0  0  0  0  0  0  0  0  0
   19.7488  -20.3542  -15.0445 C   0  0  0  0  0  0  0  0  0  0  0  0
   17.7368  -19.3267  -15.7818 O   0  0  0  0  0  0  0  0  0  0  0  0
   17.1686  -20.3303  -15.2798 O   0  0  0  0  0  0  0  0  0  0  0  0
  2  1  1  6
  2  3  1  0
  4  2  1  0
  4  5  2  0
  7  6  1  0
  7  8  2  0
  9 10  1  0
  9  7  1  0
 11 12  1  0
 11 10  1  0
 13 14  1  0
 13 12  1  1
 14  4  1  0
 15 13  1  0
 16 15  2  0
 18 17  1  1
 18 19  1  0
 19 15  1  0
 20 18  1  0
 20 22  1  0
 21 20  2  0
M  END
$$$$
