ARA.pdb
     RDKit          3D

 22 21  0  0  1  0  0  0  0  0999 V2000
   19.5148  -11.6581  -17.0936 C   0  0  0  0  0  0  0  0  0  0  0  0
   18.3849  -11.6073  -16.1111 C   0  0  2  0  0  0  0  0  0  0  0  0
   17.1189  -11.8277  -16.7278 N   0  0  0  0  0  0  0  0  0  0  0  0
   18.4109  -10.4196  -15.2266 C   0  0  0  0  0  0  0  0  0  0  0  0
   18.3896   -9.2590  -15.7567 O   0  0  0  0  0  0  0  0  0  0  0  0
   14.7497   -7.8999   -8.4354 N   0  0  0  0  0  0  0  0  0  0  0  0
   15.5069   -6.7658   -8.8742 C   0  0  0  0  0  0  0  0  0  0  0  0
   15.7879   -5.8306   -8.0557 N   0  0  0  0  0  0  0  0  0  0  0  0
   15.9319   -6.7159  -10.2322 N   0  0  0  0  0  0  0  0  0  0  0  0
   16.2352   -7.9532  -10.9419 C   0  0  0  0  0  0  0  0  0  0  0  0
   17.6842   -8.3349  -10.7747 C   0  0  0  0  0  0  0  0  0  0  0  0
   17.9625   -9.5883  -11.5755 C   0  0  0  0  0  0  0  0  0  0  0  0
   18.3704   -9.2641  -12.9950 C   0  0  2  0  0  0  0  0  0  0  0  0
   18.4592  -10.4619  -13.8114 N   0  0  0  0  0  0  0  0  0  0  0  0
   19.6437   -8.5422  -13.0144 C   0  0  0  0  0  0  0  0  0  0  0  0
   20.6907   -9.1023  -12.6334 O   0  0  0  0  0  0  0  0  0  0  0  0
   16.3760   -5.0438   -8.3519 C   0  0  0  0  0  0  0  0  0  0  0  0
   21.3610   -6.2257  -14.9204 C   0  0  1  0  0  0  0  0  0  0  0  0
   20.9542   -6.4758  -13.4661 N   0  0  0  0  0  0  0  0  0  0  0  0
   19.6957   -7.2051  -13.4665 C   0  0  0  0  0  0  0  0  0  0  0  0
   20.7436   -5.1944  -12.7548 O   0  0  0  0  0  0  0  0  0  0  0  0
   19.5717   -4.7960  -12.5311 O   0  0  0  0  0  0  0  0  0  0  0  0
  2  1  1  6
  2  3  1  0
  4  2  1  0
  4  5  2  0
  7  6  1  0
  7  8  2  0
  9 10  1  0
  9  7  1  0
 11 12  1  0
 11 10  1  0
 13 14  1  0
 13 12  1  1
 14  4  1  0
 15 13  1  0
 16 15  2  0
 18 17  1  6
 18 19  1  0
 19 15  1  0
 20 18  1  0
 20 22  1  0
 21 20  2  0
M  END
$$$$
