ARA.pdb
     RDKit          3D

 22 21  0  0  1  0  0  0  0  0999 V2000
   27.4330  -11.6216  -15.4918 C   0  0  0  0  0  0  0  0  0  0  0  0
   26.3681  -12.5888  -15.9104 C   0  0  2  0  0  0  0  0  0  0  0  0
   26.8425  -13.5416  -16.8585 N   0  0  0  0  0  0  0  0  0  0  0  0
   25.0948  -11.9452  -16.3081 C   0  0  0  0  0  0  0  0  0  0  0  0
   24.9445  -11.5798  -17.5215 O   0  0  0  0  0  0  0  0  0  0  0  0
   17.3715  -14.8674  -15.2149 N   0  0  0  0  0  0  0  0  0  0  0  0
   17.7234  -14.7566  -16.5991 C   0  0  0  0  0  0  0  0  0  0  0  0
   17.0387  -15.3682  -17.4826 N   0  0  0  0  0  0  0  0  0  0  0  0
   18.8439  -13.9527  -16.9537 N   0  0  0  0  0  0  0  0  0  0  0  0
   19.6221  -13.2948  -15.9107 C   0  0  0  0  0  0  0  0  0  0  0  0
   20.7838  -12.5335  -16.4972 C   0  0  0  0  0  0  0  0  0  0  0  0
   21.5615  -11.8759  -15.3780 C   0  0  0  0  0  0  0  0  0  0  0  0
   22.7577  -11.1142  -15.9028 C   0  0  2  0  0  0  0  0  0  0  0  0
   24.0054  -11.6942  -15.4380 N   0  0  0  0  0  0  0  0  0  0  0  0
   22.6807   -9.7036  -15.5191 C   0  0  0  0  0  0  0  0  0  0  0  0
   23.0734   -9.3350  -14.3944 O   0  0  0  0  0  0  0  0  0  0  0  0
   17.2290  -15.2179  -18.4796 C   0  0  0  0  0  0  0  0  0  0  0  0
   21.7456   -6.5292  -17.2848 C   0  0  1  0  0  0  0  0  0  0  0  0
   22.0432   -7.3533  -16.0297 N   0  0  0  0  0  0  0  0  0  0  0  0
   22.1619   -8.7490  -16.4215 C   0  0  0  0  0  0  0  0  0  0  0  0
   20.9336   -7.2412  -15.0558 O   0  0  0  0  0  0  0  0  0  0  0  0
   20.0469   -8.1327  -15.0224 O   0  0  0  0  0  0  0  0  0  0  0  0
  2  1  1  6
  2  3  1  0
  4  2  1  0
  4  5  2  0
  7  6  1  0
  7  8  2  0
  9 10  1  0
  9  7  1  0
 11 12  1  0
 11 10  1  0
 13 14  1  0
 13 12  1  1
 14  4  1  0
 15 13  1  0
 16 15  2  0
 18 17  1  6
 18 19  1  0
 19 15  1  0
 20 18  1  0
 20 22  1  0
 21 20  2  0
M  END
$$$$
