ARA.pdb
     RDKit          3D

 22 21  0  0  1  0  0  0  0  0999 V2000
   33.1862  -38.8896   -4.5791 C   0  0  0  0  0  0  0  0  0  0  0  0
   33.3043  -37.5764   -5.2906 C   0  0  2  0  0  0  0  0  0  0  0  0
   34.5501  -36.9319   -5.0371 N   0  0  0  0  0  0  0  0  0  0  0  0
   32.1333  -36.6878   -5.1098 C   0  0  0  0  0  0  0  0  0  0  0  0
   32.1825  -35.7827   -4.2114 O   0  0  0  0  0  0  0  0  0  0  0  0
   25.1311  -34.1348   -6.5302 N   0  0  0  0  0  0  0  0  0  0  0  0
   25.4013  -33.0486   -7.4243 C   0  0  0  0  0  0  0  0  0  0  0  0
   24.6149  -32.0472   -7.4680 N   0  0  0  0  0  0  0  0  0  0  0  0
   26.5594  -33.1194   -8.2497 N   0  0  0  0  0  0  0  0  0  0  0  0
   27.3925  -34.3159   -8.2273 C   0  0  0  0  0  0  0  0  0  0  0  0
   28.1472  -34.4289   -6.9269 C   0  0  0  0  0  0  0  0  0  0  0  0
   29.1101  -35.5930   -7.0119 C   0  0  0  0  0  0  0  0  0  0  0  0
   29.8674  -35.7860   -5.7174 C   0  0  2  0  0  0  0  0  0  0  0  0
   30.9365  -36.7579   -5.8644 N   0  0  0  0  0  0  0  0  0  0  0  0
   28.9591  -36.1906   -4.6430 C   0  0  0  0  0  0  0  0  0  0  0  0
   28.4037  -37.3067   -4.6752 O   0  0  0  0  0  0  0  0  0  0  0  0
   24.7730  -31.2950   -8.1476 C   0  0  0  0  0  0  0  0  0  0  0  0
   27.9659  -34.7034   -1.3427 C   0  0  1  0  0  0  0  0  0  0  0  0
   27.8426  -35.7353   -2.4664 N   0  0  0  0  0  0  0  0  0  0  0  0
   28.7060  -35.3193   -3.5605 C   0  0  0  0  0  0  0  0  0  0  0  0
   26.4525  -35.7926   -2.9731 O   0  0  0  0  0  0  0  0  0  0  0  0
   26.1620  -35.2118   -4.0503 O   0  0  0  0  0  0  0  0  0  0  0  0
  2  1  1  1
  2  3  1  0
  4  2  1  0
  4  5  2  0
  7  6  1  0
  7  8  2  0
  9 10  1  0
  9  7  1  0
 11 12  1  0
 11 10  1  0
 13 14  1  0
 13 12  1  6
 14  4  1  0
 15 13  1  0
 16 15  2  0
 18 17  1  1
 18 19  1  0
 19 15  1  0
 20 18  1  0
 20 22  1  0
 21 20  2  0
M  END
$$$$
