RQG.pdb
     RDKit          3D

 25 24  0  0  1  0  0  0  0  0999 V2000
    8.3457  -12.1813   20.0682 N   0  0  0  0  0  0  0  0  0  0  0  0
    8.6531  -13.3183   19.2392 C   0  0  0  0  0  0  0  0  0  0  0  0
    9.4016  -13.1903   18.1723 N   0  0  0  0  0  0  0  0  0  0  0  0
    8.1648  -14.6043   19.5360 N   0  0  0  0  0  0  0  0  0  0  0  0
    7.3651  -14.8409   20.7547 C   0  0  0  0  0  0  0  0  0  0  0  0
    7.0042  -16.2964   20.7189 C   0  0  0  0  0  0  0  0  0  0  0  0
    6.1594  -16.7382   21.8487 C   0  0  0  0  0  0  0  0  0  0  0  0
    6.8256  -17.6544   22.8260 C   0  0  2  0  0  0  0  0  0  0  0  0
    6.1674  -18.9195   22.9942 N   0  0  0  0  0  0  0  0  0  0  0  0
    6.8072  -16.9510   24.1503 C   0  0  0  0  0  0  0  0  0  0  0  0
    5.7950  -16.9936   24.8817 O   0  0  0  0  0  0  0  0  0  0  0  0
    9.6917  -14.0300   17.6553 N   0  0  0  0  0  0  0  0  0  0  0  0
   11.4111  -16.4349   28.0525 C   0  0  0  0  0  0  0  0  0  0  0  0
   10.5460  -15.4559   28.6223 O   0  0  0  0  0  0  0  0  0  0  0  0
   10.8627  -14.9928   29.7430 C   0  0  0  0  0  0  0  0  0  0  0  0
    9.3342  -15.0261   27.8999 C   0  0  0  0  0  0  0  0  0  0  0  0
    9.0769  -15.7937   26.6430 C   0  0  1  0  0  0  0  0  0  0  0  0
    7.8318  -15.4642   25.8997 N   0  0  0  0  0  0  0  0  0  0  0  0
    7.9132  -16.2186   24.6280 C   0  0  0  0  0  0  0  0  0  0  0  0
    7.6498  -14.0615   25.5282 O   0  0  0  0  0  0  0  0  0  0  0  0
    8.2086  -13.5968   24.4800 N   0  0  0  0  0  0  0  0  0  0  0  0
    6.8744  -13.0976   26.2398 C   0  0  0  0  0  0  0  0  0  0  0  0
    6.6047  -11.7798   25.7060 C   0  0  0  0  0  0  0  0  0  0  0  0
    5.8118  -11.0235   26.6951 O   0  0  0  0  0  0  0  0  0  0  0  0
    5.3275  -11.6224   27.6822 O   0  0  0  0  0  0  0  0  0  0  0  0
  1  2  1  0
  2  3  2  0
  4  5  1  0
  4  2  1  0
  6  5  1  0
  6  7  1  0
  8  7  1  0
  8  9  1  1
 10  8  1  0
 11 10  2  0
 13 14  2  0
 13 12  1  0
 15 13  1  0
 16 15  1  0
 17 16  1  1
 17 18  1  0
 18 10  1  0
 19 21  1  0
 19 17  1  0
 20 19  2  0
 22 21  1  0
 23 22  1  0
 24 23  2  0
 25 23  1  0
M  END
$$$$
