RQG.pdb
     RDKit          3D

 25 24  0  0  1  0  0  0  0  0999 V2000
    7.4329  -12.4146   19.8944 N   0  0  0  0  0  0  0  0  0  0  0  0
    7.7457  -13.2103   18.7353 C   0  0  0  0  0  0  0  0  0  0  0  0
    7.2735  -12.8948   17.5552 N   0  0  0  0  0  0  0  0  0  0  0  0
    8.5633  -14.3525   18.8202 N   0  0  0  0  0  0  0  0  0  0  0  0
    9.0810  -14.8096   20.1255 C   0  0  0  0  0  0  0  0  0  0  0  0
   10.4933  -15.2428   19.8650 C   0  0  0  0  0  0  0  0  0  0  0  0
   10.6084  -16.5148   19.1205 C   0  0  0  0  0  0  0  0  0  0  0  0
   11.4974  -17.5435   19.7445 C   0  0  2  0  0  0  0  0  0  0  0  0
   11.4890  -17.5400   21.1805 N   0  0  0  0  0  0  0  0  0  0  0  0
   12.8934  -17.2288   19.2959 C   0  0  0  0  0  0  0  0  0  0  0  0
   13.1779  -17.1826   18.0800 O   0  0  0  0  0  0  0  0  0  0  0  0
    7.4844  -13.4970   16.7495 N   0  0  0  0  0  0  0  0  0  0  0  0
   16.6171  -13.0433   18.5095 C   0  0  0  0  0  0  0  0  0  0  0  0
   16.0322  -13.7639   17.4278 O   0  0  0  0  0  0  0  0  0  0  0  0
   16.3796  -13.4401   16.2681 C   0  0  0  0  0  0  0  0  0  0  0  0
   15.0597  -14.8405   17.6934 C   0  0  0  0  0  0  0  0  0  0  0  0
   14.7400  -15.0210   19.1427 C   0  0  2  0  0  0  0  0  0  0  0  0
   15.1785  -16.2949   19.7719 N   0  0  0  0  0  0  0  0  0  0  0  0
   13.9370  -16.9737   20.2088 C   0  0  0  0  0  0  0  0  0  0  0  0
   16.0163  -16.1749   20.9647 O   0  0  0  0  0  0  0  0  0  0  0  0
   17.2063  -15.7254   20.8714 N   0  0  0  0  0  0  0  0  0  0  0  0
   15.6361  -16.5188   22.2966 C   0  0  0  0  0  0  0  0  0  0  0  0
   16.4497  -17.3745   23.1333 C   0  0  0  0  0  0  0  0  0  0  0  0
   17.5203  -16.5599   23.7410 O   0  0  0  0  0  0  0  0  0  0  0  0
   17.8593  -15.4848   23.1960 O   0  0  0  0  0  0  0  0  0  0  0  0
  1  2  1  0
  2  3  2  0
  4  5  1  0
  4  2  1  0
  6  5  1  0
  6  7  1  0
  8  7  1  0
  8  9  1  1
 10  8  1  0
 11 10  2  0
 13 14  2  0
 13 12  1  0
 15 13  1  0
 16 15  1  0
 17 16  1  6
 17 18  1  0
 18 10  1  0
 19 21  1  0
 19 17  1  0
 20 19  2  0
 22 21  1  0
 23 22  1  0
 24 23  2  0
 25 23  1  0
M  END
$$$$
