RQG.pdb
     RDKit          3D

 25 24  0  0  1  0  0  0  0  0999 V2000
    8.4064  -12.5048   17.5621 N   0  0  0  0  0  0  0  0  0  0  0  0
    7.4327  -13.5265   17.2748 C   0  0  0  0  0  0  0  0  0  0  0  0
    7.5123  -14.2435   16.1819 N   0  0  0  0  0  0  0  0  0  0  0  0
    6.3617  -13.7947   18.1474 N   0  0  0  0  0  0  0  0  0  0  0  0
    6.5007  -13.5639   19.5994 C   0  0  0  0  0  0  0  0  0  0  0  0
    7.6532  -14.4214   20.0312 C   0  0  0  0  0  0  0  0  0  0  0  0
    7.8629  -14.4613   21.4941 C   0  0  0  0  0  0  0  0  0  0  0  0
    8.9744  -15.3489   21.9574 C   0  0  2  0  0  0  0  0  0  0  0  0
    8.8269  -16.7269   21.5812 N   0  0  0  0  0  0  0  0  0  0  0  0
    8.9762  -15.2828   23.4556 C   0  0  0  0  0  0  0  0  0  0  0  0
    9.0069  -14.1819   24.0459 O   0  0  0  0  0  0  0  0  0  0  0  0
    6.8438  -15.0095   16.0307 N   0  0  0  0  0  0  0  0  0  0  0  0
    6.7297  -20.5764   25.5523 C   0  0  0  0  0  0  0  0  0  0  0  0
    7.5090  -19.8324   26.4854 O   0  0  0  0  0  0  0  0  0  0  0  0
    7.3349  -20.0768   27.7022 C   0  0  0  0  0  0  0  0  0  0  0  0
    8.4718  -18.8219   26.0089 C   0  0  0  0  0  0  0  0  0  0  0  0
    8.0138  -17.4123   26.2050 C   0  0  1  0  0  0  0  0  0  0  0  0
    8.9302  -16.3389   25.7366 N   0  0  0  0  0  0  0  0  0  0  0  0
    8.9439  -16.4406   24.2593 C   0  0  0  0  0  0  0  0  0  0  0  0
   10.3250  -16.4445   26.1634 O   0  0  0  0  0  0  0  0  0  0  0  0
   10.6156  -16.4894   27.4045 N   0  0  0  0  0  0  0  0  0  0  0  0
   11.4636  -16.5095   25.3053 C   0  0  0  0  0  0  0  0  0  0  0  0
   12.8013  -16.7214   25.8151 C   0  0  0  0  0  0  0  0  0  0  0  0
   13.7319  -16.8145   24.6730 O   0  0  0  0  0  0  0  0  0  0  0  0
   13.2958  -16.6555   23.5101 O   0  0  0  0  0  0  0  0  0  0  0  0
  1  2  1  0
  2  3  2  0
  4  5  1  0
  4  2  1  0
  6  5  1  0
  6  7  1  0
  8  7  1  0
  8  9  1  1
 10  8  1  0
 11 10  2  0
 13 14  2  0
 13 12  1  0
 15 13  1  0
 16 15  1  0
 17 16  1  6
 17 18  1  0
 18 10  1  0
 19 21  1  0
 19 17  1  0
 20 19  2  0
 22 21  1  0
 23 22  1  0
 24 23  2  0
 25 23  1  0
M  END
$$$$
