RQG.pdb
     RDKit          3D

 25 24  0  0  1  0  0  0  0  0999 V2000
    8.8979  -11.4595   19.0485 N   0  0  0  0  0  0  0  0  0  0  0  0
    8.6156  -12.8127   18.6439 C   0  0  0  0  0  0  0  0  0  0  0  0
    9.2573  -13.3639   17.6442 N   0  0  0  0  0  0  0  0  0  0  0  0
    7.6450  -13.5937   19.2984 N   0  0  0  0  0  0  0  0  0  0  0  0
    7.9974  -14.3781   20.4990 C   0  0  0  0  0  0  0  0  0  0  0  0
    6.7143  -15.0070   20.9555 C   0  0  0  0  0  0  0  0  0  0  0  0
    6.8541  -15.8698   22.1477 C   0  0  0  0  0  0  0  0  0  0  0  0
    7.8001  -17.0191   21.9987 C   0  0  2  0  0  0  0  0  0  0  0  0
    7.2356  -18.1698   21.3510 N   0  0  0  0  0  0  0  0  0  0  0  0
    8.1981  -17.4261   23.3861 C   0  0  0  0  0  0  0  0  0  0  0  0
    7.4511  -18.1507   24.0778 O   0  0  0  0  0  0  0  0  0  0  0  0
    9.0497  -14.3368   17.3859 N   0  0  0  0  0  0  0  0  0  0  0  0
   13.6227  -19.2840   25.2035 C   0  0  0  0  0  0  0  0  0  0  0  0
   12.6178  -19.7838   24.3249 O   0  0  0  0  0  0  0  0  0  0  0  0
   12.9456  -20.7081   23.5447 C   0  0  0  0  0  0  0  0  0  0  0  0
   11.2570  -19.2157   24.3546 C   0  0  0  0  0  0  0  0  0  0  0  0
   11.1157  -18.0350   25.2609 C   0  0  2  0  0  0  0  0  0  0  0  0
    9.7659  -17.4177   25.3514 N   0  0  0  0  0  0  0  0  0  0  0  0
    9.4150  -17.0180   23.9694 C   0  0  0  0  0  0  0  0  0  0  0  0
    9.6597  -16.2059   26.1634 O   0  0  0  0  0  0  0  0  0  0  0  0
   10.2216  -15.1261   25.7826 N   0  0  0  0  0  0  0  0  0  0  0  0
    8.9592  -16.0823   27.4007 C   0  0  0  0  0  0  0  0  0  0  0  0
    8.8268  -14.8156   28.0877 C   0  0  0  0  0  0  0  0  0  0  0  0
   10.0034  -14.6265   28.9590 O   0  0  0  0  0  0  0  0  0  0  0  0
   10.8895  -15.5103   28.9957 O   0  0  0  0  0  0  0  0  0  0  0  0
  1  2  1  0
  2  3  2  0
  4  5  1  0
  4  2  1  0
  6  5  1  0
  6  7  1  0
  8  7  1  0
  8  9  1  1
 10  8  1  0
 11 10  2  0
 13 14  2  0
 13 12  1  0
 15 13  1  0
 16 15  1  0
 17 16  1  6
 17 18  1  0
 18 10  1  0
 19 21  1  0
 19 17  1  0
 20 19  2  0
 22 21  1  0
 23 22  1  0
 24 23  2  0
 25 23  1  0
M  END
$$$$
