RQG.pdb
     RDKit          3D

 25 24  0  0  1  0  0  0  0  0999 V2000
    8.0439  -12.6398   15.5723 N   0  0  0  0  0  0  0  0  0  0  0  0
    8.0597  -14.0664   15.3751 C   0  0  0  0  0  0  0  0  0  0  0  0
    8.4917  -14.5858   14.2533 N   0  0  0  0  0  0  0  0  0  0  0  0
    7.6134  -14.9561   16.3699 N   0  0  0  0  0  0  0  0  0  0  0  0
    6.9900  -14.4466   17.6078 C   0  0  0  0  0  0  0  0  0  0  0  0
    8.0421  -13.6047   18.2670 C   0  0  0  0  0  0  0  0  0  0  0  0
    8.0804  -13.7277   19.7397 C   0  0  0  0  0  0  0  0  0  0  0  0
    8.8122  -14.9228   20.2633 C   0  0  2  0  0  0  0  0  0  0  0  0
    8.0156  -16.1146   20.3469 N   0  0  0  0  0  0  0  0  0  0  0  0
    9.2588  -14.5744   21.6519 C   0  0  0  0  0  0  0  0  0  0  0  0
    9.9484  -13.5540   21.8634 O   0  0  0  0  0  0  0  0  0  0  0  0
    8.5269  -15.6079   14.1506 N   0  0  0  0  0  0  0  0  0  0  0  0
    5.6605  -14.8034   26.3590 C   0  0  0  0  0  0  0  0  0  0  0  0
    6.1574  -13.5762   25.8311 O   0  0  0  0  0  0  0  0  0  0  0  0
    5.4839  -12.5424   26.0510 C   0  0  0  0  0  0  0  0  0  0  0  0
    7.4147  -13.5551   25.0605 C   0  0  0  0  0  0  0  0  0  0  0  0
    8.0575  -14.8974   24.9177 C   0  0  2  0  0  0  0  0  0  0  0  0
    9.3213  -14.9552   24.1362 N   0  0  0  0  0  0  0  0  0  0  0  0
    8.9282  -15.3678   22.7693 C   0  0  0  0  0  0  0  0  0  0  0  0
   10.3167  -15.9291   24.5832 O   0  0  0  0  0  0  0  0  0  0  0  0
   10.7184  -15.9276   25.7938 N   0  0  0  0  0  0  0  0  0  0  0  0
   10.9238  -16.9396   23.7788 C   0  0  0  0  0  0  0  0  0  0  0  0
   11.8755  -17.8862   24.3196 C   0  0  0  0  0  0  0  0  0  0  0  0
   13.2353  -17.4604   23.9338 O   0  0  0  0  0  0  0  0  0  0  0  0
   13.3850  -16.4103   23.2685 O   0  0  0  0  0  0  0  0  0  0  0  0
  1  2  1  0
  2  3  2  0
  4  5  1  0
  4  2  1  0
  6  5  1  0
  6  7  1  0
  8  7  1  0
  8  9  1  1
 10  8  1  0
 11 10  2  0
 13 14  2  0
 13 12  1  0
 15 13  1  0
 16 15  1  0
 17 16  1  6
 17 18  1  0
 18 10  1  0
 19 21  1  0
 19 17  1  0
 20 19  2  0
 22 21  1  0
 23 22  1  0
 24 23  2  0
 25 23  1  0
M  END
$$$$
