RQG.pdb
     RDKit          3D

 25 24  0  0  1  0  0  0  0  0999 V2000
    6.9591  -14.3939   16.0620 N   0  0  0  0  0  0  0  0  0  0  0  0
    8.3594  -14.5727   16.3480 C   0  0  0  0  0  0  0  0  0  0  0  0
    9.0770  -15.4407   15.6798 N   0  0  0  0  0  0  0  0  0  0  0  0
    9.0108  -13.8304   17.3505 N   0  0  0  0  0  0  0  0  0  0  0  0
    8.2445  -12.9301   18.2355 C   0  0  0  0  0  0  0  0  0  0  0  0
    7.4806  -13.8330   19.1582 C   0  0  0  0  0  0  0  0  0  0  0  0
    7.8950  -13.7416   20.5743 C   0  0  0  0  0  0  0  0  0  0  0  0
    8.5199  -14.9778   21.1393 C   0  0  2  0  0  0  0  0  0  0  0  0
    7.6249  -16.0952   21.2508 N   0  0  0  0  0  0  0  0  0  0  0  0
    8.9854  -14.6267   22.5209 C   0  0  0  0  0  0  0  0  0  0  0  0
    9.8200  -13.7142   22.7007 O   0  0  0  0  0  0  0  0  0  0  0  0
   10.0824  -15.5228   15.8769 N   0  0  0  0  0  0  0  0  0  0  0  0
    5.4834  -13.5899   27.1496 C   0  0  0  0  0  0  0  0  0  0  0  0
    6.3540  -12.5848   26.6364 O   0  0  0  0  0  0  0  0  0  0  0  0
    6.0317  -11.3902   26.8354 C   0  0  0  0  0  0  0  0  0  0  0  0
    7.5762  -12.9655   25.9039 C   0  0  0  0  0  0  0  0  0  0  0  0
    7.7424  -14.4415   25.7331 C   0  0  2  0  0  0  0  0  0  0  0  0
    8.9640  -14.9001   25.0201 N   0  0  0  0  0  0  0  0  0  0  0  0
    8.5123  -15.2977   23.6670 C   0  0  0  0  0  0  0  0  0  0  0  0
    9.6426  -16.0681   25.5806 O   0  0  0  0  0  0  0  0  0  0  0  0
    9.9607  -16.0951   26.8155 N   0  0  0  0  0  0  0  0  0  0  0  0
   10.0093  -17.2490   24.8681 C   0  0  0  0  0  0  0  0  0  0  0  0
   10.5739  -18.4047   25.5313 C   0  0  0  0  0  0  0  0  0  0  0  0
   12.0307  -18.4199   25.2935 O   0  0  0  0  0  0  0  0  0  0  0  0
   12.5528  -17.5047   24.6171 O   0  0  0  0  0  0  0  0  0  0  0  0
  1  2  1  0
  2  3  2  0
  4  5  1  0
  4  2  1  0
  6  5  1  0
  6  7  1  0
  8  7  1  0
  8  9  1  1
 10  8  1  0
 11 10  2  0
 13 14  2  0
 13 12  1  0
 15 13  1  0
 16 15  1  0
 17 16  1  6
 17 18  1  0
 18 10  1  0
 19 21  1  0
 19 17  1  0
 20 19  2  0
 22 21  1  0
 23 22  1  0
 24 23  2  0
 25 23  1  0
M  END
$$$$
