RQG.pdb
     RDKit          3D

 25 24  0  0  1  0  0  0  0  0999 V2000
    8.8655  -14.9052   14.7558 N   0  0  0  0  0  0  0  0  0  0  0  0
    7.7068  -15.7570   14.8354 C   0  0  0  0  0  0  0  0  0  0  0  0
    6.8992  -15.8916   13.8133 N   0  0  0  0  0  0  0  0  0  0  0  0
    7.3938  -16.4735   16.0054 N   0  0  0  0  0  0  0  0  0  0  0  0
    8.3072  -16.4521   17.1656 C   0  0  0  0  0  0  0  0  0  0  0  0
    8.1378  -15.0950   17.7818 C   0  0  0  0  0  0  0  0  0  0  0  0
    7.7128  -15.1221   19.1975 C   0  0  0  0  0  0  0  0  0  0  0  0
    7.4663  -13.7830   19.8174 C   0  0  2  0  0  0  0  0  0  0  0  0
    7.9091  -12.6724   19.0221 N   0  0  0  0  0  0  0  0  0  0  0  0
    8.2383  -13.7600   21.1029 C   0  0  0  0  0  0  0  0  0  0  0  0
    9.3986  -13.2977   21.1425 O   0  0  0  0  0  0  0  0  0  0  0  0
    6.1077  -16.5441   13.8777 N   0  0  0  0  0  0  0  0  0  0  0  0
    5.6299  -12.1306   26.2114 C   0  0  0  0  0  0  0  0  0  0  0  0
    6.9086  -12.4649   26.7447 O   0  0  0  0  0  0  0  0  0  0  0  0
    7.1503  -12.1092   27.9218 C   0  0  0  0  0  0  0  0  0  0  0  0
    7.8873  -13.1988   25.9208 C   0  0  0  0  0  0  0  0  0  0  0  0
    7.4370  -13.4333   24.5145 C   0  0  1  0  0  0  0  0  0  0  0  0
    8.4198  -14.0614   23.5923 N   0  0  0  0  0  0  0  0  0  0  0  0
    7.7020  -14.2507   22.3109 C   0  0  0  0  0  0  0  0  0  0  0  0
    8.9186  -15.3814   23.9766 O   0  0  0  0  0  0  0  0  0  0  0  0
    8.1471  -16.3963   23.9369 N   0  0  0  0  0  0  0  0  0  0  0  0
   10.2430  -15.6848   24.4132 C   0  0  0  0  0  0  0  0  0  0  0  0
   10.7869  -17.0243   24.3506 C   0  0  0  0  0  0  0  0  0  0  0  0
   12.1853  -16.9880   24.8221 O   0  0  0  0  0  0  0  0  0  0  0  0
   12.7168  -15.8854   25.0855 O   0  0  0  0  0  0  0  0  0  0  0  0
  1  2  1  0
  2  3  2  0
  4  5  1  0
  4  2  1  0
  6  5  1  0
  6  7  1  0
  8  7  1  0
  8  9  1  6
 10  8  1  0
 11 10  2  0
 13 14  2  0
 13 12  1  0
 15 13  1  0
 16 15  1  0
 17 16  1  6
 17 18  1  0
 18 10  1  0
 19 21  1  0
 19 17  1  0
 20 19  2  0
 22 21  1  0
 23 22  1  0
 24 23  2  0
 25 23  1  0
M  END
$$$$
