RQG.pdb
     RDKit          3D

 25 24  0  0  1  0  0  0  0  0999 V2000
    7.9847  -14.1646   18.8884 N   0  0  0  0  0  0  0  0  0  0  0  0
    7.8700  -13.2467   19.9924 C   0  0  0  0  0  0  0  0  0  0  0  0
    8.1638  -11.9790   19.8467 N   0  0  0  0  0  0  0  0  0  0  0  0
    7.4429  -13.6693   21.2650 N   0  0  0  0  0  0  0  0  0  0  0  0
    7.0739  -15.0793   21.5030 C   0  0  0  0  0  0  0  0  0  0  0  0
    8.1825  -15.8893   20.8987 C   0  0  0  0  0  0  0  0  0  0  0  0
    9.0553  -16.5543   21.8893 C   0  0  0  0  0  0  0  0  0  0  0  0
   10.3648  -15.8776   22.1449 C   0  0  2  0  0  0  0  0  0  0  0  0
   11.3994  -16.2182   21.2092 N   0  0  0  0  0  0  0  0  0  0  0  0
   10.8154  -16.3213   23.5047 C   0  0  0  0  0  0  0  0  0  0  0  0
   11.7631  -17.1256   23.6321 O   0  0  0  0  0  0  0  0  0  0  0  0
    8.1291  -11.3555   20.6631 N   0  0  0  0  0  0  0  0  0  0  0  0
    9.6217  -13.1997   28.7548 C   0  0  0  0  0  0  0  0  0  0  0  0
   10.2191  -14.3744   29.2976 O   0  0  0  0  0  0  0  0  0  0  0  0
   10.4161  -14.3987   30.5350 C   0  0  0  0  0  0  0  0  0  0  0  0
   10.5813  -15.4986   28.4143 C   0  0  0  0  0  0  0  0  0  0  0  0
   10.3241  -15.2346   26.9653 C   0  0  1  0  0  0  0  0  0  0  0  0
   10.6673  -16.3251   26.0145 N   0  0  0  0  0  0  0  0  0  0  0  0
   10.2021  -15.8604   24.6876 C   0  0  0  0  0  0  0  0  0  0  0  0
   10.0165  -17.6146   26.2436 O   0  0  0  0  0  0  0  0  0  0  0  0
    8.9154  -17.8909   25.6623 N   0  0  0  0  0  0  0  0  0  0  0  0
   10.4975  -18.6604   27.0873 C   0  0  0  0  0  0  0  0  0  0  0  0
   11.6469  -19.4664   26.7361 C   0  0  0  0  0  0  0  0  0  0  0  0
   11.2088  -20.5392   25.8216 O   0  0  0  0  0  0  0  0  0  0  0  0
   11.3770  -20.4026   24.5884 O   0  0  0  0  0  0  0  0  0  0  0  0
  1  2  1  0
  2  3  2  0
  4  5  1  0
  4  2  1  0
  6  5  1  0
  6  7  1  0
  8  7  1  0
  8  9  1  6
 10  8  1  0
 11 10  2  0
 13 14  2  0
 13 12  1  0
 15 13  1  0
 16 15  1  0
 17 16  1  6
 17 18  1  0
 18 10  1  0
 19 21  1  0
 19 17  1  0
 20 19  2  0
 22 21  1  0
 23 22  1  0
 24 23  2  0
 25 23  1  0
M  END
$$$$
