RQG.pdb
     RDKit          3D

 25 24  0  0  1  0  0  0  0  0999 V2000
    7.2441  -12.6850   18.7692 N   0  0  0  0  0  0  0  0  0  0  0  0
    7.8399  -12.5337   20.0717 C   0  0  0  0  0  0  0  0  0  0  0  0
    8.5239  -11.4599   20.3781 N   0  0  0  0  0  0  0  0  0  0  0  0
    7.7155  -13.5256   21.0622 N   0  0  0  0  0  0  0  0  0  0  0  0
    6.9828  -14.7771   20.7835 C   0  0  0  0  0  0  0  0  0  0  0  0
    7.7772  -15.4762   19.7204 C   0  0  0  0  0  0  0  0  0  0  0  0
    9.0834  -15.9922   20.1820 C   0  0  0  0  0  0  0  0  0  0  0  0
    9.8447  -16.7977   19.1773 C   0  0  2  0  0  0  0  0  0  0  0  0
    9.2329  -18.0518   18.8383 N   0  0  0  0  0  0  0  0  0  0  0  0
   11.1804  -17.0931   19.7917 C   0  0  0  0  0  0  0  0  0  0  0  0
   11.6624  -18.2452   19.7477 O   0  0  0  0  0  0  0  0  0  0  0  0
    9.0077  -11.4107   21.2837 N   0  0  0  0  0  0  0  0  0  0  0  0
   16.7141  -14.7623   19.7570 C   0  0  0  0  0  0  0  0  0  0  0  0
   15.6933  -14.4749   18.8047 O   0  0  0  0  0  0  0  0  0  0  0  0
   16.0597  -14.1102   17.6631 C   0  0  0  0  0  0  0  0  0  0  0  0
   14.2725  -14.6088   19.1770 C   0  0  0  0  0  0  0  0  0  0  0  0
   14.0576  -15.0471   20.5902 C   0  0  2  0  0  0  0  0  0  0  0  0
   13.3636  -16.3468   20.7903 N   0  0  0  0  0  0  0  0  0  0  0  0
   11.9460  -16.1020   20.4391 C   0  0  0  0  0  0  0  0  0  0  0  0
   13.3580  -16.8763   22.1536 O   0  0  0  0  0  0  0  0  0  0  0  0
   14.4542  -17.1876   22.7265 N   0  0  0  0  0  0  0  0  0  0  0  0
   12.2046  -17.0956   22.9651 C   0  0  0  0  0  0  0  0  0  0  0  0
   12.2837  -17.7407   24.2580 C   0  0  0  0  0  0  0  0  0  0  0  0
   12.1088  -16.7172   25.3072 O   0  0  0  0  0  0  0  0  0  0  0  0
   11.9299  -15.5228   24.9771 O   0  0  0  0  0  0  0  0  0  0  0  0
  1  2  1  0
  2  3  2  0
  4  5  1  0
  4  2  1  0
  6  5  1  0
  6  7  1  0
  8  7  1  0
  8  9  1  1
 10  8  1  0
 11 10  2  0
 13 14  2  0
 13 12  1  0
 15 13  1  0
 16 15  1  0
 17 16  1  6
 17 18  1  0
 18 10  1  0
 19 21  1  0
 19 17  1  0
 20 19  2  0
 22 21  1  0
 23 22  1  0
 24 23  2  0
 25 23  1  0
M  END
$$$$
