FIF.pdb
     RDKit          3D

 31 32  0  0  1  0  0  0  0  0999 V2000
   23.0500  -20.2745  -15.2309 N   0  0  0  0  0  0  0  0  0  0  0  0
   23.6204  -19.4906  -14.1789 C   0  0  1  0  0  0  0  0  0  0  0  0
   22.5635  -18.8941  -13.2654 C   0  0  0  0  0  0  0  0  0  0  0  0
   21.6267  -18.0209  -14.0179 C   0  0  0  0  0  0  0  0  0  0  0  0
   20.3420  -18.4540  -14.2305 C   0  0  0  0  0  0  0  0  0  0  0  0
   19.4942  -17.6226  -14.9325 C   0  0  0  0  0  0  0  0  0  0  0  0
   19.9231  -16.3991  -15.4040 C   0  0  0  0  0  0  0  0  0  0  0  0
   21.2105  -15.9663  -15.1904 C   0  0  0  0  0  0  0  0  0  0  0  0
   22.0652  -16.8012  -14.4843 C   0  0  0  0  0  0  0  0  0  0  0  0
   24.5521  -20.2662  -13.3223 C   0  0  0  0  0  0  0  0  0  0  0  0
   24.2195  -21.4503  -13.0216 O   0  0  0  0  0  0  0  0  0  0  0  0
   28.9877  -21.2070  -15.3329 C   0  0  0  0  0  0  0  0  0  0  0  0
   27.8192  -21.2252  -14.4335 C   0  0  0  0  0  0  0  0  0  0  0  0
   27.9473  -20.7732  -13.0360 C   0  0  2  0  0  0  0  0  0  0  0  0
   29.0233  -21.6351  -12.3412 C   0  0  0  0  0  0  0  0  0  0  0  0
   26.7467  -20.6585  -12.1695 C   0  0  2  0  0  0  0  0  0  0  0  0
   25.7728  -19.7527  -12.8349 N   0  0  0  0  0  0  0  0  0  0  0  0
   26.9429  -20.2466  -10.7937 C   0  0  0  0  0  0  0  0  0  0  0  0
   27.8105  -19.4010  -10.4843 O   0  0  0  0  0  0  0  0  0  0  0  0
   26.1485  -20.7899   -9.7099 N   0  0  0  0  0  0  0  0  0  0  0  0
   26.5735  -20.7766   -8.3348 C   0  0  1  0  0  0  0  0  0  0  0  0
   26.9460  -19.3951   -7.8711 C   0  0  0  0  0  0  0  0  0  0  0  0
   27.5080  -19.3495   -6.5031 C   0  0  0  0  0  0  0  0  0  0  0  0
   26.6759  -19.4481   -5.3994 C   0  0  0  0  0  0  0  0  0  0  0  0
   27.2166  -19.4167   -4.1333 C   0  0  0  0  0  0  0  0  0  0  0  0
   28.5660  -19.2902   -3.8908 C   0  0  0  0  0  0  0  0  0  0  0  0
   29.3902  -19.1927   -4.9841 C   0  0  0  0  0  0  0  0  0  0  0  0
   28.8604  -19.2230   -6.2564 C   0  0  0  0  0  0  0  0  0  0  0  0
   25.5155  -21.3879   -7.5118 C   0  0  0  0  0  0  0  0  0  0  0  0
   24.2757  -21.6780   -8.0339 O   0  0  0  0  0  0  0  0  0  0  0  0
   25.7034  -21.6696   -6.2924 O   0  0  0  0  0  0  0  0  0  0  0  0
  2  1  1  6
  3  2  1  0
  3  4  1  0
  4  5  2  0
  5  6  1  0
  7  6  2  0
  8  7  1  0
  9  4  1  0
  9  8  2  0
 10  2  1  0
 10 11  2  0
 13 14  1  0
 13 12  1  0
 14 16  1  0
 14 15  1  1
 16 18  1  0
 16 17  1  6
 17 10  1  0
 18 20  1  0
 19 18  2  0
 20 21  1  0
 21 29  1  0
 22 23  1  0
 21 22  1  1
 23 28  2  0
 24 25  2  0
 24 23  1  0
 25 26  1  0
 26 27  2  0
 28 27  1  0
 29 31  2  0
 29 30  1  0
M  END
$$$$
