FIF.pdb
     RDKit          3D

 31 32  0  0  1  0  0  0  0  0999 V2000
   28.1147  -20.1190  -16.5002 N   0  0  0  0  0  0  0  0  0  0  0  0
   27.4614  -19.3649  -15.4750 C   0  0  1  0  0  0  0  0  0  0  0  0
   26.3055  -18.5394  -16.0135 C   0  0  0  0  0  0  0  0  0  0  0  0
   26.7787  -17.4965  -16.9594 C   0  0  0  0  0  0  0  0  0  0  0  0
   26.7627  -17.7651  -18.3051 C   0  0  0  0  0  0  0  0  0  0  0  0
   27.2079  -16.7784  -19.1601 C   0  0  0  0  0  0  0  0  0  0  0  0
   27.6534  -15.5646  -18.6788 C   0  0  0  0  0  0  0  0  0  0  0  0
   27.6689  -15.2967  -17.3304 C   0  0  0  0  0  0  0  0  0  0  0  0
   27.2214  -16.2881  -16.4683 C   0  0  0  0  0  0  0  0  0  0  0  0
   26.9203  -20.2184  -14.3877 C   0  0  0  0  0  0  0  0  0  0  0  0
   26.5374  -21.3849  -14.6971 O   0  0  0  0  0  0  0  0  0  0  0  0
   29.7291  -21.2236  -10.2021 C   0  0  0  0  0  0  0  0  0  0  0  0
   28.6975  -21.2169  -11.2559 C   0  0  0  0  0  0  0  0  0  0  0  0
   27.3059  -20.8510  -10.9342 C   0  0  2  0  0  0  0  0  0  0  0  0
   26.7951  -21.8001   -9.8289 C   0  0  0  0  0  0  0  0  0  0  0  0
   26.2917  -20.7296  -12.0122 C   0  0  2  0  0  0  0  0  0  0  0  0
   26.8146  -19.7962  -13.0453 N   0  0  0  0  0  0  0  0  0  0  0  0
   24.9466  -20.3436  -11.6344 C   0  0  0  0  0  0  0  0  0  0  0  0
   24.7336  -19.3421  -10.9167 O   0  0  0  0  0  0  0  0  0  0  0  0
   23.7838  -21.0936  -12.0660 N   0  0  0  0  0  0  0  0  0  0  0  0
   22.4331  -20.6306  -11.8856 C   0  0  1  0  0  0  0  0  0  0  0  0
   22.2274  -19.2517  -12.4500 C   0  0  0  0  0  0  0  0  0  0  0  0
   22.3521  -19.1783  -13.9226 C   0  0  0  0  0  0  0  0  0  0  0  0
   21.3198  -19.6165  -14.7366 C   0  0  0  0  0  0  0  0  0  0  0  0
   21.4469  -19.5294  -16.1050 C   0  0  0  0  0  0  0  0  0  0  0  0
   22.5640  -19.0214  -16.7293 C   0  0  0  0  0  0  0  0  0  0  0  0
   23.5865  -18.5873  -15.9230 C   0  0  0  0  0  0  0  0  0  0  0  0
   23.4706  -18.6693  -14.5518 C   0  0  0  0  0  0  0  0  0  0  0  0
   21.5152  -21.6264  -12.4657 C   0  0  0  0  0  0  0  0  0  0  0  0
   21.9851  -22.7359  -13.1307 O   0  0  0  0  0  0  0  0  0  0  0  0
   20.2591  -21.5013  -12.3771 O   0  0  0  0  0  0  0  0  0  0  0  0
  2  1  1  6
  3  2  1  0
  3  4  1  0
  4  5  2  0
  5  6  1  0
  7  6  2  0
  8  7  1  0
  9  4  1  0
  9  8  2  0
 10  2  1  0
 10 11  2  0
 13 14  1  0
 13 12  1  0
 14 16  1  0
 14 15  1  1
 16 18  1  0
 16 17  1  6
 17 10  1  0
 18 20  1  0
 19 18  2  0
 20 21  1  0
 21 29  1  0
 22 23  1  0
 21 22  1  6
 23 28  2  0
 24 25  2  0
 24 23  1  0
 25 26  1  0
 26 27  2  0
 28 27  1  0
 29 31  2  0
 29 30  1  0
M  END
$$$$
