FIF.pdb
     RDKit          3D

 31 32  0  0  1  0  0  0  0  0999 V2000
   17.7131  -11.0794  -15.6737 N   0  0  0  0  0  0  0  0  0  0  0  0
   18.6047  -10.2800  -16.4562 C   0  0  1  0  0  0  0  0  0  0  0  0
   17.8911   -9.1357  -17.1555 C   0  0  0  0  0  0  0  0  0  0  0  0
   16.8869   -9.6370  -18.1284 C   0  0  0  0  0  0  0  0  0  0  0  0
   15.5533   -9.5026  -17.8339 C   0  0  0  0  0  0  0  0  0  0  0  0
   14.6433   -9.9771  -18.7555 C   0  0  0  0  0  0  0  0  0  0  0  0
   15.0596  -10.5661  -19.9316 C   0  0  0  0  0  0  0  0  0  0  0  0
   16.3959  -10.7002  -20.2255 C   0  0  0  0  0  0  0  0  0  0  0  0
   17.3133  -10.2234  -19.2997 C   0  0  0  0  0  0  0  0  0  0  0  0
   19.7019   -9.6855  -15.6524 C   0  0  0  0  0  0  0  0  0  0  0  0
   19.4904   -9.5088  -14.4166 O   0  0  0  0  0  0  0  0  0  0  0  0
   23.9542  -12.0309  -14.5295 C   0  0  0  0  0  0  0  0  0  0  0  0
   22.8547  -11.0544  -14.6410 C   0  0  0  0  0  0  0  0  0  0  0  0
   23.1060   -9.7086  -15.1883 C   0  0  2  0  0  0  0  0  0  0  0  0
   24.2856   -9.0802  -14.4158 C   0  0  0  0  0  0  0  0  0  0  0  0
   21.9972   -8.7285  -15.3134 C   0  0  2  0  0  0  0  0  0  0  0  0
   20.9510   -9.3136  -16.1936 N   0  0  0  0  0  0  0  0  0  0  0  0
   22.3259   -7.3896  -15.7610 C   0  0  0  0  0  0  0  0  0  0  0  0
   22.7458   -7.1746  -16.9190 O   0  0  0  0  0  0  0  0  0  0  0  0
   22.1862   -6.2357  -14.8951 N   0  0  0  0  0  0  0  0  0  0  0  0
   22.5008   -4.8938  -15.3097 C   0  0  1  0  0  0  0  0  0  0  0  0
   21.6561   -4.4478  -16.4714 C   0  0  0  0  0  0  0  0  0  0  0  0
   20.2253   -4.2651  -16.1414 C   0  0  0  0  0  0  0  0  0  0  0  0
   19.8063   -3.1528  -15.4290 C   0  0  0  0  0  0  0  0  0  0  0  0
   18.4693   -2.9917  -15.1411 C   0  0  0  0  0  0  0  0  0  0  0  0
   17.4997   -3.8898  -15.5271 C   0  0  0  0  0  0  0  0  0  0  0  0
   17.9148   -4.9914  -16.2329 C   0  0  0  0  0  0  0  0  0  0  0  0
   19.2506   -5.1634  -16.5270 C   0  0  0  0  0  0  0  0  0  0  0  0
   22.3807   -4.0028  -14.1426 C   0  0  0  0  0  0  0  0  0  0  0  0
   22.7249   -2.6723  -14.2152 O   0  0  0  0  0  0  0  0  0  0  0  0
   21.9578   -4.4247  -13.0269 O   0  0  0  0  0  0  0  0  0  0  0  0
  2  1  1  1
  3  2  1  0
  3  4  1  0
  4  5  2  0
  5  6  1  0
  7  6  2  0
  8  7  1  0
  9  4  1  0
  9  8  2  0
 10  2  1  0
 10 11  2  0
 13 14  1  0
 13 12  1  0
 14 16  1  0
 14 15  1  1
 16 18  1  0
 16 17  1  6
 17 10  1  0
 18 20  1  0
 19 18  2  0
 20 21  1  0
 21 29  1  0
 22 23  1  0
 21 22  1  6
 23 28  2  0
 24 25  2  0
 24 23  1  0
 25 26  1  0
 26 27  2  0
 28 27  1  0
 29 31  2  0
 29 30  1  0
M  END
$$$$
