FIF.pdb
     RDKit          3D

 31 32  0  0  1  0  0  0  0  0999 V2000
   18.9057   -0.0333  -16.4051 N   0  0  0  0  0  0  0  0  0  0  0  0
   18.1293    0.1396  -15.2161 C   0  0  1  0  0  0  0  0  0  0  0  0
   18.1505   -1.0930  -14.3285 C   0  0  0  0  0  0  0  0  0  0  0  0
   17.6834   -2.2972  -15.0620 C   0  0  0  0  0  0  0  0  0  0  0  0
   18.6078   -3.2268  -15.4679 C   0  0  0  0  0  0  0  0  0  0  0  0
   18.1455   -4.3348  -16.1470 C   0  0  0  0  0  0  0  0  0  0  0  0
   16.8013   -4.5022  -16.4087 C   0  0  0  0  0  0  0  0  0  0  0  0
   15.8762   -3.5702  -16.0015 C   0  0  0  0  0  0  0  0  0  0  0  0
   16.3391   -2.4546  -15.3180 C   0  0  0  0  0  0  0  0  0  0  0  0
   18.5892    1.2828  -14.3885 C   0  0  0  0  0  0  0  0  0  0  0  0
   19.7922    1.6541  -14.5233 O   0  0  0  0  0  0  0  0  0  0  0  0
   16.6111    5.9118  -15.0152 C   0  0  0  0  0  0  0  0  0  0  0  0
   17.4593    4.7832  -14.5892 C   0  0  0  0  0  0  0  0  0  0  0  0
   17.4572    4.3385  -13.1834 C   0  0  2  0  0  0  0  0  0  0  0  0
   17.7737    5.5545  -12.2866 C   0  0  0  0  0  0  0  0  0  0  0  0
   18.2699    3.1686  -12.7634 C   0  0  2  0  0  0  0  0  0  0  0  0
   17.7604    1.9646  -13.4722 N   0  0  0  0  0  0  0  0  0  0  0  0
   18.3790    2.8959  -11.3439 C   0  0  0  0  0  0  0  0  0  0  0  0
   17.3852    2.5486  -10.6692 O   0  0  0  0  0  0  0  0  0  0  0  0
   19.6383    3.0108  -10.6356 N   0  0  0  0  0  0  0  0  0  0  0  0
   19.7729    2.7824   -9.2209 C   0  0  1  0  0  0  0  0  0  0  0  0
   20.5081    1.5049   -8.9214 C   0  0  0  0  0  0  0  0  0  0  0  0
   19.7818    0.2817   -9.3285 C   0  0  0  0  0  0  0  0  0  0  0  0
   18.9306   -0.3567   -8.4407 C   0  0  0  0  0  0  0  0  0  0  0  0
   18.2525   -1.4868   -8.8398 C   0  0  0  0  0  0  0  0  0  0  0  0
   18.3712   -2.0348  -10.0974 C   0  0  0  0  0  0  0  0  0  0  0  0
   19.2143   -1.4023  -10.9767 C   0  0  0  0  0  0  0  0  0  0  0  0
   19.8984   -0.2701  -10.5885 C   0  0  0  0  0  0  0  0  0  0  0  0
   20.4122    3.9633   -8.6147 C   0  0  0  0  0  0  0  0  0  0  0  0
   20.5601    4.0805   -7.2516 O   0  0  0  0  0  0  0  0  0  0  0  0
   20.8494    4.9171   -9.3223 O   0  0  0  0  0  0  0  0  0  0  0  0
  2  1  1  6
  3  2  1  0
  3  4  1  0
  4  5  2  0
  5  6  1  0
  7  6  2  0
  8  7  1  0
  9  4  1  0
  9  8  2  0
 10  2  1  0
 10 11  2  0
 13 14  1  0
 13 12  1  0
 14 16  1  0
 14 15  1  1
 16 18  1  0
 16 17  1  6
 17 10  1  0
 18 20  1  0
 19 18  2  0
 20 21  1  0
 21 29  1  0
 22 23  1  0
 21 22  1  6
 23 28  2  0
 24 25  2  0
 24 23  1  0
 25 26  1  0
 26 27  2  0
 28 27  1  0
 29 31  2  0
 29 30  1  0
M  END
$$$$
