FIF.pdb
     RDKit          3D

 31 32  0  0  1  0  0  0  0  0999 V2000
   22.0300  -21.5477  -14.4943 N   0  0  0  0  0  0  0  0  0  0  0  0
   22.4111  -20.6033  -13.4896 C   0  0  1  0  0  0  0  0  0  0  0  0
   21.2208  -20.0937  -12.6953 C   0  0  0  0  0  0  0  0  0  0  0  0
   20.3446  -19.2290  -13.5265 C   0  0  0  0  0  0  0  0  0  0  0  0
   20.8196  -18.0120  -13.9467 C   0  0  0  0  0  0  0  0  0  0  0  0
   19.9842  -17.2302  -14.7171 C   0  0  0  0  0  0  0  0  0  0  0  0
   18.7160  -17.6569  -15.0530 C   0  0  0  0  0  0  0  0  0  0  0  0
   18.2412  -18.8764  -14.6315 C   0  0  0  0  0  0  0  0  0  0  0  0
   19.0800  -19.6648  -13.8562 C   0  0  0  0  0  0  0  0  0  0  0  0
   23.3822  -21.1595  -12.5144 C   0  0  0  0  0  0  0  0  0  0  0  0
   23.2002  -22.3501  -12.1239 O   0  0  0  0  0  0  0  0  0  0  0  0
   28.7348  -20.1790  -13.3211 C   0  0  0  0  0  0  0  0  0  0  0  0
   27.4395  -20.0594  -12.6263 C   0  0  0  0  0  0  0  0  0  0  0  0
   26.7420  -21.2629  -12.1377 C   0  0  2  0  0  0  0  0  0  0  0  0
   26.4120  -22.1612  -13.3491 C   0  0  0  0  0  0  0  0  0  0  0  0
   25.5536  -21.1375  -11.2560 C   0  0  2  0  0  0  0  0  0  0  0  0
   24.4822  -20.4336  -12.0099 N   0  0  0  0  0  0  0  0  0  0  0  0
   25.7361  -20.5138   -9.9603 C   0  0  0  0  0  0  0  0  0  0  0  0
   24.9329  -19.6571   -9.5308 O   0  0  0  0  0  0  0  0  0  0  0  0
   26.8528  -20.8480   -9.0988 N   0  0  0  0  0  0  0  0  0  0  0  0
   27.6511  -19.8607   -8.4209 C   0  0  1  0  0  0  0  0  0  0  0  0
   26.9013  -19.2025   -7.2954 C   0  0  0  0  0  0  0  0  0  0  0  0
   27.5728  -19.3077   -5.9810 C   0  0  0  0  0  0  0  0  0  0  0  0
   28.3372  -18.2576   -5.4980 C   0  0  0  0  0  0  0  0  0  0  0  0
   28.9451  -18.3669   -4.2672 C   0  0  0  0  0  0  0  0  0  0  0  0
   28.8373  -19.4825   -3.4675 C   0  0  0  0  0  0  0  0  0  0  0  0
   28.0800  -20.5225   -3.9460 C   0  0  0  0  0  0  0  0  0  0  0  0
   27.4666  -20.4246   -5.1767 C   0  0  0  0  0  0  0  0  0  0  0  0
   28.9037  -20.4962   -7.9763 C   0  0  0  0  0  0  0  0  0  0  0  0
   29.1513  -21.8314   -8.1996 O   0  0  0  0  0  0  0  0  0  0  0  0
   29.8011  -19.8409   -7.3707 O   0  0  0  0  0  0  0  0  0  0  0  0
  2  1  1  6
  3  2  1  0
  3  4  1  0
  4  5  2  0
  5  6  1  0
  7  6  2  0
  8  7  1  0
  9  4  1  0
  9  8  2  0
 10  2  1  0
 10 11  2  0
 13 14  1  0
 13 12  1  0
 14 16  1  0
 14 15  1  6
 16 18  1  0
 16 17  1  6
 17 10  1  0
 18 20  1  0
 19 18  2  0
 20 21  1  0
 21 29  1  0
 22 23  1  0
 21 22  1  1
 23 28  2  0
 24 25  2  0
 24 23  1  0
 25 26  1  0
 26 27  2  0
 28 27  1  0
 29 31  2  0
 29 30  1  0
M  END
$$$$
