FIF.pdb
     RDKit          3D

 31 32  0  0  1  0  0  0  0  0999 V2000
   22.2374  -19.6444  -18.1131 N   0  0  0  0  0  0  0  0  0  0  0  0
   22.8258  -18.8190  -17.1037 C   0  0  1  0  0  0  0  0  0  0  0  0
   21.7846  -18.0591  -16.3001 C   0  0  0  0  0  0  0  0  0  0  0  0
   21.1303  -17.0064  -17.1187 C   0  0  0  0  0  0  0  0  0  0  0  0
   21.8395  -15.8745  -17.4336 C   0  0  0  0  0  0  0  0  0  0  0  0
   21.2067  -14.9138  -18.1947 C   0  0  0  0  0  0  0  0  0  0  0  0
   19.9068  -15.0852  -18.6240 C   0  0  0  0  0  0  0  0  0  0  0  0
   19.1974  -16.2197  -18.3078 C   0  0  0  0  0  0  0  0  0  0  0  0
   19.8321  -17.1876  -17.5421 C   0  0  0  0  0  0  0  0  0  0  0  0
   23.6487  -19.5885  -16.1372 C   0  0  0  0  0  0  0  0  0  0  0  0
   23.2800  -20.7693  -15.8672 O   0  0  0  0  0  0  0  0  0  0  0  0
   28.9298  -19.7509  -16.7793 C   0  0  0  0  0  0  0  0  0  0  0  0
   27.5135  -19.9445  -16.4170 C   0  0  0  0  0  0  0  0  0  0  0  0
   27.0667  -19.7491  -15.0256 C   0  0  2  0  0  0  0  0  0  0  0  0
   27.9795  -20.5805  -14.0989 C   0  0  0  0  0  0  0  0  0  0  0  0
   25.6426  -19.9533  -14.6572 C   0  0  2  0  0  0  0  0  0  0  0  0
   24.8053  -19.0726  -15.5146 N   0  0  0  0  0  0  0  0  0  0  0  0
   25.2732  -19.7826  -13.2660 C   0  0  0  0  0  0  0  0  0  0  0  0
   25.0935  -18.6471  -12.7743 O   0  0  0  0  0  0  0  0  0  0  0  0
   25.0936  -20.9127  -12.3762 N   0  0  0  0  0  0  0  0  0  0  0  0
   24.7344  -20.7769  -10.9891 C   0  0  1  0  0  0  0  0  0  0  0  0
   23.3108  -21.1877  -10.7304 C   0  0  0  0  0  0  0  0  0  0  0  0
   22.3044  -20.2463  -11.2690 C   0  0  0  0  0  0  0  0  0  0  0  0
   21.8978  -19.1517  -10.5229 C   0  0  0  0  0  0  0  0  0  0  0  0
   20.9696  -18.2782  -11.0443 C   0  0  0  0  0  0  0  0  0  0  0  0
   20.4069  -18.4295  -12.2918 C   0  0  0  0  0  0  0  0  0  0  0  0
   20.8097  -19.5138  -13.0309 C   0  0  0  0  0  0  0  0  0  0  0  0
   21.7384  -20.3949  -12.5194 C   0  0  0  0  0  0  0  0  0  0  0  0
   25.7027  -21.5356  -10.1783 C   0  0  0  0  0  0  0  0  0  0  0  0
   26.0096  -21.1630   -8.8895 O   0  0  0  0  0  0  0  0  0  0  0  0
   26.2916  -22.5588  -10.6341 O   0  0  0  0  0  0  0  0  0  0  0  0
  2  1  1  6
  3  2  1  0
  3  4  1  0
  4  5  2  0
  5  6  1  0
  7  6  2  0
  8  7  1  0
  9  4  1  0
  9  8  2  0
 10  2  1  0
 10 11  2  0
 13 14  1  0
 13 12  1  0
 14 16  1  0
 14 15  1  1
 16 18  1  0
 16 17  1  6
 17 10  1  0
 18 20  1  0
 19 18  2  0
 20 21  1  0
 21 29  1  0
 22 23  1  0
 21 22  1  6
 23 28  2  0
 24 25  2  0
 24 23  1  0
 25 26  1  0
 26 27  2  0
 28 27  1  0
 29 31  2  0
 29 30  1  0
M  END
$$$$
