FIF.pdb
     RDKit          3D

 31 32  0  0  1  0  0  0  0  0999 V2000
   28.4564  -20.6813  -11.2701 N   0  0  0  0  0  0  0  0  0  0  0  0
   27.1079  -20.9343  -10.8651 C   0  0  1  0  0  0  0  0  0  0  0  0
   26.6440  -19.9824   -9.7760 C   0  0  0  0  0  0  0  0  0  0  0  0
   27.5850  -19.9739   -8.6267 C   0  0  0  0  0  0  0  0  0  0  0  0
   27.2684  -19.2332   -7.5156 C   0  0  0  0  0  0  0  0  0  0  0  0
   28.1607  -19.2438   -6.4638 C   0  0  0  0  0  0  0  0  0  0  0  0
   29.3299  -19.9734   -6.5269 C   0  0  0  0  0  0  0  0  0  0  0  0
   29.6459  -20.7151   -7.6405 C   0  0  0  0  0  0  0  0  0  0  0  0
   28.7496  -20.7059   -8.7001 C   0  0  0  0  0  0  0  0  0  0  0  0
   26.1394  -20.8236  -11.9846 C   0  0  0  0  0  0  0  0  0  0  0  0
   26.2837  -19.8552  -12.7874 O   0  0  0  0  0  0  0  0  0  0  0  0
   25.3107  -25.1127  -14.8863 C   0  0  0  0  0  0  0  0  0  0  0  0
   25.3897  -23.7201  -14.4078 C   0  0  0  0  0  0  0  0  0  0  0  0
   24.1646  -22.9897  -14.0345 C   0  0  2  0  0  0  0  0  0  0  0  0
   23.2230  -22.9592  -15.2575 C   0  0  0  0  0  0  0  0  0  0  0  0
   24.2510  -21.6393  -13.4225 C   0  0  2  0  0  0  0  0  0  0  0  0
   25.0813  -21.7340  -12.1924 N   0  0  0  0  0  0  0  0  0  0  0  0
   23.0103  -20.9499  -13.1282 C   0  0  0  0  0  0  0  0  0  0  0  0
   22.3372  -21.2259  -12.1112 O   0  0  0  0  0  0  0  0  0  0  0  0
   22.4871  -19.9103  -13.9920 N   0  0  0  0  0  0  0  0  0  0  0  0
   21.2524  -19.2166  -13.7353 C   0  0  1  0  0  0  0  0  0  0  0  0
   21.4334  -17.7235  -13.7272 C   0  0  0  0  0  0  0  0  0  0  0  0
   20.1670  -16.9632  -13.6409 C   0  0  0  0  0  0  0  0  0  0  0  0
   19.6360  -16.6229  -12.4070 C   0  0  0  0  0  0  0  0  0  0  0  0
   18.4630  -15.9041  -12.3446 C   0  0  0  0  0  0  0  0  0  0  0  0
   17.7687  -15.4927  -13.4601 C   0  0  0  0  0  0  0  0  0  0  0  0
   18.2948  -15.8296  -14.6823 C   0  0  0  0  0  0  0  0  0  0  0  0
   19.4684  -16.5490  -14.7572 C   0  0  0  0  0  0  0  0  0  0  0  0
   20.2508  -19.6638  -14.7188 C   0  0  0  0  0  0  0  0  0  0  0  0
   18.9363  -19.8662  -14.3653 O   0  0  0  0  0  0  0  0  0  0  0  0
   20.5588  -19.8810  -15.9269 O   0  0  0  0  0  0  0  0  0  0  0  0
  2  1  1  6
  3  2  1  0
  3  4  1  0
  4  5  2  0
  5  6  1  0
  7  6  2  0
  8  7  1  0
  9  4  1  0
  9  8  2  0
 10  2  1  0
 10 11  2  0
 13 14  1  0
 13 12  1  0
 14 16  1  0
 14 15  1  6
 16 18  1  0
 16 17  1  1
 17 10  1  0
 18 20  1  0
 19 18  2  0
 20 21  1  0
 21 29  1  0
 22 23  1  0
 21 22  1  6
 23 28  2  0
 24 25  2  0
 24 23  1  0
 25 26  1  0
 26 27  2  0
 28 27  1  0
 29 31  2  0
 29 30  1  0
M  END
$$$$
