FIF.pdb
     RDKit          3D

 31 32  0  0  1  0  0  0  0  0999 V2000
   29.3999  -21.8604  -18.3596 N   0  0  0  0  0  0  0  0  0  0  0  0
   28.0134  -21.6743  -18.0605 C   0  0  1  0  0  0  0  0  0  0  0  0
   27.1949  -22.9286  -18.3143 C   0  0  0  0  0  0  0  0  0  0  0  0
   26.9919  -23.1585  -19.7677 C   0  0  0  0  0  0  0  0  0  0  0  0
   27.8040  -24.0539  -20.4174 C   0  0  0  0  0  0  0  0  0  0  0  0
   27.5929  -24.2472  -21.7667 C   0  0  0  0  0  0  0  0  0  0  0  0
   26.6003  -23.5644  -22.4390 C   0  0  0  0  0  0  0  0  0  0  0  0
   25.7874  -22.6676  -21.7869 C   0  0  0  0  0  0  0  0  0  0  0  0
   25.9980  -22.4715  -20.4292 C   0  0  0  0  0  0  0  0  0  0  0  0
   27.7764  -21.2750  -16.6506 C   0  0  0  0  0  0  0  0  0  0  0  0
   28.6290  -21.6411  -15.7892 O   0  0  0  0  0  0  0  0  0  0  0  0
   27.7565  -16.3121  -16.1677 C   0  0  0  0  0  0  0  0  0  0  0  0
   27.7908  -17.7554  -15.8671 C   0  0  0  0  0  0  0  0  0  0  0  0
   26.6943  -18.3851  -15.1089 C   0  0  2  0  0  0  0  0  0  0  0  0
   26.5546  -17.6549  -13.7559 C   0  0  0  0  0  0  0  0  0  0  0  0
   26.6712  -19.8553  -14.9007 C   0  0  2  0  0  0  0  0  0  0  0  0
   26.6616  -20.5175  -16.2323 N   0  0  0  0  0  0  0  0  0  0  0  0
   25.6178  -20.4039  -14.0696 C   0  0  0  0  0  0  0  0  0  0  0  0
   24.4552  -20.5524  -14.5051 O   0  0  0  0  0  0  0  0  0  0  0  0
   25.8550  -20.8069  -12.6977 N   0  0  0  0  0  0  0  0  0  0  0  0
   24.8291  -21.3450  -11.8436 C   0  0  1  0  0  0  0  0  0  0  0  0
   25.4031  -22.1022  -10.6777 C   0  0  0  0  0  0  0  0  0  0  0  0
   26.1852  -21.2650   -9.7413 C   0  0  0  0  0  0  0  0  0  0  0  0
   27.5687  -21.3412   -9.7206 C   0  0  0  0  0  0  0  0  0  0  0  0
   28.2821  -20.5458   -8.8518 C   0  0  0  0  0  0  0  0  0  0  0  0
   27.6908  -19.6579   -7.9813 C   0  0  0  0  0  0  0  0  0  0  0  0
   26.3204  -19.5825   -8.0020 C   0  0  0  0  0  0  0  0  0  0  0  0
   25.5956  -20.3737   -8.8674 C   0  0  0  0  0  0  0  0  0  0  0  0
   23.9418  -20.2450  -11.4273 C   0  0  0  0  0  0  0  0  0  0  0  0
   24.3507  -18.9320  -11.4804 O   0  0  0  0  0  0  0  0  0  0  0  0
   22.7695  -20.4629  -11.0034 O   0  0  0  0  0  0  0  0  0  0  0  0
  2  1  1  1
  3  2  1  0
  3  4  1  0
  4  5  2  0
  5  6  1  0
  7  6  2  0
  8  7  1  0
  9  4  1  0
  9  8  2  0
 10  2  1  0
 10 11  2  0
 13 14  1  0
 13 12  1  0
 14 16  1  0
 14 15  1  1
 16 18  1  0
 16 17  1  6
 17 10  1  0
 18 20  1  0
 19 18  2  0
 20 21  1  0
 21 29  1  0
 22 23  1  0
 21 22  1  1
 23 28  2  0
 24 25  2  0
 24 23  1  0
 25 26  1  0
 26 27  2  0
 28 27  1  0
 29 31  2  0
 29 30  1  0
M  END
$$$$
