FIF.pdb
     RDKit          3D

 31 32  0  0  1  0  0  0  0  0999 V2000
   27.7271  -20.5455  -16.2421 N   0  0  0  0  0  0  0  0  0  0  0  0
   27.9925  -19.7044  -15.1158 C   0  0  1  0  0  0  0  0  0  0  0  0
   27.1481  -18.4417  -15.1266 C   0  0  0  0  0  0  0  0  0  0  0  0
   27.4596  -17.5914  -16.3040 C   0  0  0  0  0  0  0  0  0  0  0  0
   26.4608  -17.3105  -17.2023 C   0  0  0  0  0  0  0  0  0  0  0  0
   26.7788  -16.5187  -18.2860 C   0  0  0  0  0  0  0  0  0  0  0  0
   28.0559  -16.0267  -18.4604 C   0  0  0  0  0  0  0  0  0  0  0  0
   29.0556  -16.3089  -17.5598 C   0  0  0  0  0  0  0  0  0  0  0  0
   28.7380  -17.1054  -16.4685 C   0  0  0  0  0  0  0  0  0  0  0  0
   27.7476  -20.3835  -13.8187 C   0  0  0  0  0  0  0  0  0  0  0  0
   26.7623  -21.1759  -13.7518 O   0  0  0  0  0  0  0  0  0  0  0  0
   31.8067  -21.9486  -10.3828 C   0  0  0  0  0  0  0  0  0  0  0  0
   30.5640  -21.7870  -11.1600 C   0  0  0  0  0  0  0  0  0  0  0  0
   29.4234  -21.0425  -10.5955 C   0  0  2  0  0  0  0  0  0  0  0  0
   29.0796  -21.6478   -9.2176 C   0  0  0  0  0  0  0  0  0  0  0  0
   28.1847  -20.8473  -11.3912 C   0  0  2  0  0  0  0  0  0  0  0  0
   28.5500  -20.1898  -12.6741 N   0  0  0  0  0  0  0  0  0  0  0  0
   27.0860  -20.1363  -10.7680 C   0  0  0  0  0  0  0  0  0  0  0  0
   27.1662  -18.9171  -10.5025 O   0  0  0  0  0  0  0  0  0  0  0  0
   25.8434  -20.7972  -10.4214 N   0  0  0  0  0  0  0  0  0  0  0  0
   24.7412  -20.1244   -9.7855 C   0  0  1  0  0  0  0  0  0  0  0  0
   23.7459  -19.6007  -10.7840 C   0  0  0  0  0  0  0  0  0  0  0  0
   23.1168  -20.6505  -11.6157 C   0  0  0  0  0  0  0  0  0  0  0  0
   21.8468  -21.1161  -11.3150 C   0  0  0  0  0  0  0  0  0  0  0  0
   21.2707  -22.0845  -12.1068 C   0  0  0  0  0  0  0  0  0  0  0  0
   21.8944  -22.6316  -13.2056 C   0  0  0  0  0  0  0  0  0  0  0  0
   23.1523  -22.1703  -13.5034 C   0  0  0  0  0  0  0  0  0  0  0  0
   23.7392  -21.2010  -12.7181 C   0  0  0  0  0  0  0  0  0  0  0  0
   24.1356  -21.0420   -8.8048 C   0  0  0  0  0  0  0  0  0  0  0  0
   23.1116  -20.6380   -7.9790 O   0  0  0  0  0  0  0  0  0  0  0  0
   24.5330  -22.2372   -8.6814 O   0  0  0  0  0  0  0  0  0  0  0  0
  2  1  1  6
  3  2  1  0
  3  4  1  0
  4  5  2  0
  5  6  1  0
  7  6  2  0
  8  7  1  0
  9  4  1  0
  9  8  2  0
 10  2  1  0
 10 11  2  0
 13 14  1  0
 13 12  1  0
 14 16  1  0
 14 15  1  1
 16 18  1  0
 16 17  1  6
 17 10  1  0
 18 20  1  0
 19 18  2  0
 20 21  1  0
 21 29  1  0
 22 23  1  0
 21 22  1  6
 23 28  2  0
 24 25  2  0
 24 23  1  0
 25 26  1  0
 26 27  2  0
 28 27  1  0
 29 31  2  0
 29 30  1  0
M  END
$$$$
