FIF.pdb
     RDKit          3D

 31 32  0  0  1  0  0  0  0  0999 V2000
   27.8582  -19.2255  -16.3047 N   0  0  0  0  0  0  0  0  0  0  0  0
   27.0497  -18.6423  -15.2787 C   0  0  1  0  0  0  0  0  0  0  0  0
   26.0201  -17.6742  -15.8356 C   0  0  0  0  0  0  0  0  0  0  0  0
   26.6353  -16.3662  -16.1778 C   0  0  0  0  0  0  0  0  0  0  0  0
   27.0761  -16.1558  -17.4603 C   0  0  0  0  0  0  0  0  0  0  0  0
   27.6432  -14.9321  -17.7494 C   0  0  0  0  0  0  0  0  0  0  0  0
   27.7629  -13.9546  -16.7832 C   0  0  0  0  0  0  0  0  0  0  0  0
   27.3209  -14.1667  -15.4987 C   0  0  0  0  0  0  0  0  0  0  0  0
   26.7499  -15.3972  -15.2055 C   0  0  0  0  0  0  0  0  0  0  0  0
   26.3125  -19.6540  -14.4808 C   0  0  0  0  0  0  0  0  0  0  0  0
   25.9701  -20.7228  -15.0668 O   0  0  0  0  0  0  0  0  0  0  0  0
   28.0796  -21.5340   -9.9162 C   0  0  0  0  0  0  0  0  0  0  0  0
   27.3197  -21.3637  -11.1685 C   0  0  0  0  0  0  0  0  0  0  0  0
   25.9370  -20.8529  -11.1376 C   0  0  2  0  0  0  0  0  0  0  0  0
   25.0858  -21.8016  -10.2666 C   0  0  0  0  0  0  0  0  0  0  0  0
   25.2222  -20.5403  -12.4013 C   0  0  2  0  0  0  0  0  0  0  0  0
   25.9808  -19.4822  -13.1200 N   0  0  0  0  0  0  0  0  0  0  0  0
   23.8234  -20.1706  -12.3129 C   0  0  0  0  0  0  0  0  0  0  0  0
   23.4702  -19.0626  -11.8536 O   0  0  0  0  0  0  0  0  0  0  0  0
   22.7660  -21.0605  -12.7498 N   0  0  0  0  0  0  0  0  0  0  0  0
   21.3825  -20.6698  -12.8190 C   0  0  1  0  0  0  0  0  0  0  0  0
   21.1836  -19.4385  -13.6596 C   0  0  0  0  0  0  0  0  0  0  0  0
   21.5153  -19.6248  -15.0895 C   0  0  0  0  0  0  0  0  0  0  0  0
   22.7972  -19.3715  -15.5508 C   0  0  0  0  0  0  0  0  0  0  0  0
   23.0925  -19.5621  -16.8823 C   0  0  0  0  0  0  0  0  0  0  0  0
   22.1697  -19.9995  -17.8058 C   0  0  0  0  0  0  0  0  0  0  0  0
   20.9000  -20.2504  -17.3488 C   0  0  0  0  0  0  0  0  0  0  0  0
   20.5926  -20.0633  -16.0180 C   0  0  0  0  0  0  0  0  0  0  0  0
   20.5946  -21.8194  -13.2968 C   0  0  0  0  0  0  0  0  0  0  0  0
   19.2190  -21.7880  -13.3210 O   0  0  0  0  0  0  0  0  0  0  0  0
   21.1503  -22.8814  -13.7026 O   0  0  0  0  0  0  0  0  0  0  0  0
  2  1  1  6
  3  2  1  0
  3  4  1  0
  4  5  2  0
  5  6  1  0
  7  6  2  0
  8  7  1  0
  9  4  1  0
  9  8  2  0
 10  2  1  0
 10 11  2  0
 13 14  1  0
 13 12  1  0
 14 16  1  0
 14 15  1  6
 16 18  1  0
 16 17  1  1
 17 10  1  0
 18 20  1  0
 19 18  2  0
 20 21  1  0
 21 29  1  0
 22 23  1  0
 21 22  1  6
 23 28  2  0
 24 25  2  0
 24 23  1  0
 25 26  1  0
 26 27  2  0
 28 27  1  0
 29 31  2  0
 29 30  1  0
M  END
$$$$
