FIF.pdb
     RDKit          3D

 31 32  0  0  1  0  0  0  0  0999 V2000
   26.9220  -25.1592  -16.8517 N   0  0  0  0  0  0  0  0  0  0  0  0
   25.9930  -24.1219  -16.5241 C   0  0  1  0  0  0  0  0  0  0  0  0
   24.6635  -24.6708  -16.0357 C   0  0  0  0  0  0  0  0  0  0  0  0
   23.8488  -25.1981  -17.1602 C   0  0  0  0  0  0  0  0  0  0  0  0
   23.2525  -24.3107  -18.0206 C   0  0  0  0  0  0  0  0  0  0  0  0
   22.5019  -24.8286  -19.0555 C   0  0  0  0  0  0  0  0  0  0  0  0
   22.3560  -26.1906  -19.2195 C   0  0  0  0  0  0  0  0  0  0  0  0
   22.9538  -27.0787  -18.3568 C   0  0  0  0  0  0  0  0  0  0  0  0
   23.7096  -26.5599  -17.3148 C   0  0  0  0  0  0  0  0  0  0  0  0
   26.5003  -23.2046  -15.4731 C   0  0  0  0  0  0  0  0  0  0  0  0
   27.2546  -23.6969  -14.5833 O   0  0  0  0  0  0  0  0  0  0  0  0
   28.4078  -18.2083  -16.4082 C   0  0  0  0  0  0  0  0  0  0  0  0
   28.0726  -19.5326  -15.8529 C   0  0  0  0  0  0  0  0  0  0  0  0
   27.0432  -19.6628  -14.8055 C   0  0  2  0  0  0  0  0  0  0  0  0
   27.4129  -18.7222  -13.6385 C   0  0  0  0  0  0  0  0  0  0  0  0
   26.6664  -21.0010  -14.2833 C   0  0  2  0  0  0  0  0  0  0  0  0
   26.1855  -21.8300  -15.4205 N   0  0  0  0  0  0  0  0  0  0  0  0
   25.7118  -21.0573  -13.1938 C   0  0  0  0  0  0  0  0  0  0  0  0
   24.4834  -20.9436  -13.3976 O   0  0  0  0  0  0  0  0  0  0  0  0
   26.1283  -21.2472  -11.8185 N   0  0  0  0  0  0  0  0  0  0  0  0
   25.2064  -21.4882  -10.7399 C   0  0  1  0  0  0  0  0  0  0  0  0
   25.9104  -21.8904   -9.4731 C   0  0  0  0  0  0  0  0  0  0  0  0
   26.5877  -20.7730   -8.7789 C   0  0  0  0  0  0  0  0  0  0  0  0
   27.9638  -20.6297   -8.8574 C   0  0  0  0  0  0  0  0  0  0  0  0
   28.5771  -19.5767   -8.2159 C   0  0  0  0  0  0  0  0  0  0  0  0
   27.8902  -18.6346   -7.4835 C   0  0  0  0  0  0  0  0  0  0  0  0
   26.5272  -18.7765   -7.4060 C   0  0  0  0  0  0  0  0  0  0  0  0
   25.9021  -19.8266   -8.0441 C   0  0  0  0  0  0  0  0  0  0  0  0
   24.3635  -20.2921  -10.5682 C   0  0  0  0  0  0  0  0  0  0  0  0
   23.1014  -20.3737  -10.0256 O   0  0  0  0  0  0  0  0  0  0  0  0
   24.7651  -19.1428  -10.9136 O   0  0  0  0  0  0  0  0  0  0  0  0
  2  1  1  1
  3  2  1  0
  3  4  1  0
  4  5  2  0
  5  6  1  0
  7  6  2  0
  8  7  1  0
  9  4  1  0
  9  8  2  0
 10  2  1  0
 10 11  2  0
 13 14  1  0
 13 12  1  0
 14 16  1  0
 14 15  1  1
 16 18  1  0
 16 17  1  6
 17 10  1  0
 18 20  1  0
 19 18  2  0
 20 21  1  0
 21 29  1  0
 22 23  1  0
 21 22  1  1
 23 28  2  0
 24 25  2  0
 24 23  1  0
 25 26  1  0
 26 27  2  0
 28 27  1  0
 29 31  2  0
 29 30  1  0
M  END
$$$$
