FIF.pdb
     RDKit          3D

 31 32  0  0  1  0  0  0  0  0999 V2000
   28.1925  -20.7698  -14.2415 N   0  0  0  0  0  0  0  0  0  0  0  0
   27.3640  -19.8489  -13.5259 C   0  0  1  0  0  0  0  0  0  0  0  0
   26.4768  -19.0324  -14.4498 C   0  0  0  0  0  0  0  0  0  0  0  0
   27.2623  -18.0186  -15.1992 C   0  0  0  0  0  0  0  0  0  0  0  0
   27.3791  -16.7535  -14.6802 C   0  0  0  0  0  0  0  0  0  0  0  0
   28.1141  -15.8328  -15.3976 C   0  0  0  0  0  0  0  0  0  0  0  0
   28.7105  -16.1720  -16.5944 C   0  0  0  0  0  0  0  0  0  0  0  0
   28.5928  -17.4397  -17.1133 C   0  0  0  0  0  0  0  0  0  0  0  0
   27.8537  -18.3678  -16.3933 C   0  0  0  0  0  0  0  0  0  0  0  0
   26.4746  -20.5173  -12.5432 C   0  0  0  0  0  0  0  0  0  0  0  0
   26.1219  -21.7079  -12.7907 O   0  0  0  0  0  0  0  0  0  0  0  0
   27.4864  -20.3232   -7.3430 C   0  0  0  0  0  0  0  0  0  0  0  0
   26.9916  -20.6575   -8.6914 C   0  0  0  0  0  0  0  0  0  0  0  0
   25.5819  -20.4155   -9.0491 C   0  0  2  0  0  0  0  0  0  0  0  0
   24.6871  -21.1879   -8.0561 C   0  0  0  0  0  0  0  0  0  0  0  0
   25.1103  -20.6362  -10.4400 C   0  0  2  0  0  0  0  0  0  0  0  0
   26.0111  -19.8966  -11.3637 N   0  0  0  0  0  0  0  0  0  0  0  0
   23.7279  -20.3224  -10.7428 C   0  0  0  0  0  0  0  0  0  0  0  0
   23.1883  -19.2785  -10.3155 O   0  0  0  0  0  0  0  0  0  0  0  0
   22.9027  -21.1969  -11.5522 N   0  0  0  0  0  0  0  0  0  0  0  0
   21.5634  -20.8642  -11.9612 C   0  0  1  0  0  0  0  0  0  0  0  0
   21.5068  -19.5580  -12.7046 C   0  0  0  0  0  0  0  0  0  0  0  0
   22.1658  -19.5891  -14.0291 C   0  0  0  0  0  0  0  0  0  0  0  0
   21.4873  -20.0668  -15.1389 C   0  0  0  0  0  0  0  0  0  0  0  0
   22.1109  -20.0770  -16.3667 C   0  0  0  0  0  0  0  0  0  0  0  0
   23.3984  -19.6309  -16.5640 C   0  0  0  0  0  0  0  0  0  0  0  0
   24.0704  -19.1576  -15.4647 C   0  0  0  0  0  0  0  0  0  0  0  0
   23.4564  -19.1424  -14.2304 C   0  0  0  0  0  0  0  0  0  0  0  0
   21.0196  -21.9886  -12.7426 C   0  0  0  0  0  0  0  0  0  0  0  0
   21.7948  -23.0770  -13.0718 O   0  0  0  0  0  0  0  0  0  0  0  0
   19.8193  -21.9984  -13.1434 O   0  0  0  0  0  0  0  0  0  0  0  0
  2  1  1  6
  3  2  1  0
  3  4  1  0
  4  5  2  0
  5  6  1  0
  7  6  2  0
  8  7  1  0
  9  4  1  0
  9  8  2  0
 10  2  1  0
 10 11  2  0
 13 14  1  0
 13 12  1  0
 14 16  1  0
 14 15  1  1
 16 18  1  0
 16 17  1  6
 17 10  1  0
 18 20  1  0
 19 18  2  0
 20 21  1  0
 21 29  1  0
 22 23  1  0
 21 22  1  6
 23 28  2  0
 24 25  2  0
 24 23  1  0
 25 26  1  0
 26 27  2  0
 28 27  1  0
 29 31  2  0
 29 30  1  0
M  END
$$$$
