PTR.pdb
     RDKit          3D

 26 26  0  0  1  0  0  0  0  0999 V2000
    8.8587  -14.5337   18.9709 N   0  0  0  0  0  0  0  0  0  0  0  0
    8.7307  -13.3782   18.0954 C   0  0  0  0  0  0  0  0  0  0  0  0
    7.8743  -12.3633   18.8027 C   0  0  0  0  0  0  0  0  0  0  0  0
    7.4080  -13.1244   20.0530 C   0  0  0  0  0  0  0  0  0  0  0  0
    8.6445  -13.9692   20.2921 C   0  0  1  0  0  0  0  0  0  0  0  0
    8.4829  -14.9888   21.3291 C   0  0  0  0  0  0  0  0  0  0  0  0
    8.1687  -14.7232   22.5192 O   0  0  0  0  0  0  0  0  0  0  0  0
    6.5575  -18.3647   20.5960 C   0  0  0  0  0  0  0  0  0  0  0  0
    7.8656  -18.6567   21.2924 C   0  0  1  0  0  0  0  0  0  0  0  0
    8.7515  -19.2338   20.3648 O   0  0  0  0  0  0  0  0  0  0  0  0
    8.4595  -17.4243   21.9212 C   0  0  2  0  0  0  0  0  0  0  0  0
    8.6863  -16.3568   21.0004 N   0  0  0  0  0  0  0  0  0  0  0  0
    9.6961  -17.7633   22.7030 C   0  0  0  0  0  0  0  0  0  0  0  0
   10.8473  -17.7167   22.1806 O   0  0  0  0  0  0  0  0  0  0  0  0
    9.7134  -13.6617   28.8958 N   0  0  0  0  0  0  0  0  0  0  0  0
    9.0584  -13.6700   27.6536 C   0  0  0  0  0  0  0  0  0  0  0  0
    8.0356  -12.8897   27.4636 N   0  0  0  0  0  0  0  0  0  0  0  0
    9.5115  -14.5240   26.6149 N   0  0  0  0  0  0  0  0  0  0  0  0
   10.7734  -15.2156   26.7056 C   0  0  0  0  0  0  0  0  0  0  0  0
   11.0658  -16.0459   25.4488 C   0  0  0  0  0  0  0  0  0  0  0  0
   11.1172  -17.4761   25.9015 C   0  0  0  0  0  0  0  0  0  0  0  0
   10.8050  -18.4807   24.8353 C   0  0  2  0  0  0  0  0  0  0  0  0
    9.6290  -18.1519   24.0648 N   0  0  0  0  0  0  0  0  0  0  0  0
   10.5163  -19.7680   25.5496 C   0  0  0  0  0  0  0  0  0  0  0  0
   11.5013  -20.3997   26.2851 O   0  0  0  0  0  0  0  0  0  0  0  0
    9.3805  -20.3031   25.4989 O   0  0  0  0  0  0  0  0  0  0  0  0
  2  1  1  0
  3  2  1  0
  4  3  1  0
  4  5  1  0
  5  1  1  0
  5  6  1  1
  6  7  2  0
  9  8  1  6
 10  9  1  0
 11  9  1  0
 11 12  1  6
 12  6  1  0
 13 11  1  0
 14 13  2  0
 16 15  1  0
 17 16  2  0
 18 16  1  0
 19 18  1  0
 20 19  1  0
 20 21  1  0
 22 21  1  1
 22 24  1  0
 22 23  1  0
 23 13  1  0
 24 25  1  0
 26 24  2  0
M  END
$$$$
