PTR.pdb
     RDKit          3D

 26 26  0  0  1  0  0  0  0  0999 V2000
    8.9470  -14.6167   17.9402 N   0  0  0  0  0  0  0  0  0  0  0  0
    9.0515  -13.7927   16.7451 C   0  0  0  0  0  0  0  0  0  0  0  0
    8.2140  -12.5623   16.9655 C   0  0  0  0  0  0  0  0  0  0  0  0
    7.5129  -12.8628   18.2990 C   0  0  0  0  0  0  0  0  0  0  0  0
    8.6168  -13.6525   18.9753 C   0  0  1  0  0  0  0  0  0  0  0  0
    8.2188  -14.2813   20.2352 C   0  0  0  0  0  0  0  0  0  0  0  0
    7.8249  -13.6322   21.2397 O   0  0  0  0  0  0  0  0  0  0  0  0
    6.1977  -17.8506   20.3739 C   0  0  0  0  0  0  0  0  0  0  0  0
    7.4064  -17.8060   21.2784 C   0  0  1  0  0  0  0  0  0  0  0  0
    8.4284  -18.5835   20.7043 O   0  0  0  0  0  0  0  0  0  0  0  0
    7.8705  -16.3966   21.5340 C   0  0  2  0  0  0  0  0  0  0  0  0
    8.2715  -15.6968   20.3558 N   0  0  0  0  0  0  0  0  0  0  0  0
    8.9334  -16.3654   22.5944 C   0  0  0  0  0  0  0  0  0  0  0  0
   10.1628  -16.4448   22.3069 O   0  0  0  0  0  0  0  0  0  0  0  0
   11.0080  -16.2432   29.7982 N   0  0  0  0  0  0  0  0  0  0  0  0
   10.6202  -15.0035   30.3318 C   0  0  0  0  0  0  0  0  0  0  0  0
   10.6259  -14.8310   31.6208 N   0  0  0  0  0  0  0  0  0  0  0  0
   10.2261  -13.9483   29.4689 N   0  0  0  0  0  0  0  0  0  0  0  0
    9.3859  -14.1878   28.3219 C   0  0  0  0  0  0  0  0  0  0  0  0
   10.1111  -14.9938   27.2361 C   0  0  0  0  0  0  0  0  0  0  0  0
    9.0880  -15.2673   26.1724 C   0  0  0  0  0  0  0  0  0  0  0  0
    9.6058  -16.0212   24.9862 C   0  0  2  0  0  0  0  0  0  0  0  0
    8.6062  -16.2455   23.9687 N   0  0  0  0  0  0  0  0  0  0  0  0
   10.0204  -17.3686   25.4993 C   0  0  0  0  0  0  0  0  0  0  0  0
   11.2377  -17.5354   26.1322 O   0  0  0  0  0  0  0  0  0  0  0  0
    9.2786  -18.3743   25.3684 O   0  0  0  0  0  0  0  0  0  0  0  0
  2  1  1  0
  3  2  1  0
  4  3  1  0
  4  5  1  0
  5  1  1  0
  5  6  1  1
  6  7  2  0
  9  8  1  6
 10  9  1  0
 11  9  1  0
 11 12  1  6
 12  6  1  0
 13 11  1  0
 14 13  2  0
 16 15  1  0
 17 16  2  0
 18 16  1  0
 19 18  1  0
 20 19  1  0
 20 21  1  0
 22 21  1  1
 22 24  1  0
 22 23  1  0
 23 13  1  0
 24 25  1  0
 26 24  2  0
M  END
$$$$
