PTR.pdb
     RDKit          3D

 26 26  0  0  1  0  0  0  0  0999 V2000
    8.6740  -14.5534   19.5125 N   0  0  0  0  0  0  0  0  0  0  0  0
    8.4756  -13.6409   18.3962 C   0  0  0  0  0  0  0  0  0  0  0  0
    7.5351  -12.5592   18.8537 C   0  0  0  0  0  0  0  0  0  0  0  0
    7.1057  -13.0484   20.2452 C   0  0  0  0  0  0  0  0  0  0  0  0
    8.3970  -13.7205   20.6699 C   0  0  1  0  0  0  0  0  0  0  0  0
    8.2940  -14.4861   21.9126 C   0  0  0  0  0  0  0  0  0  0  0  0
    7.9400  -13.9811   23.0105 O   0  0  0  0  0  0  0  0  0  0  0  0
    7.1090  -18.4533   21.9066 C   0  0  0  0  0  0  0  0  0  0  0  0
    8.3384  -18.1721   22.7376 C   0  0  1  0  0  0  0  0  0  0  0  0
    9.4668  -18.6585   22.0529 O   0  0  0  0  0  0  0  0  0  0  0  0
    8.4828  -16.7079   23.0574 C   0  0  2  0  0  0  0  0  0  0  0  0
    8.6049  -15.8733   21.9054 N   0  0  0  0  0  0  0  0  0  0  0  0
    9.5983  -16.4798   24.0366 C   0  0  0  0  0  0  0  0  0  0  0  0
   10.7490  -16.1122   23.6606 O   0  0  0  0  0  0  0  0  0  0  0  0
    6.2282  -14.1092   25.8940 N   0  0  0  0  0  0  0  0  0  0  0  0
    6.5100  -12.8908   26.5329 C   0  0  0  0  0  0  0  0  0  0  0  0
    5.8129  -11.8345   26.2336 N   0  0  0  0  0  0  0  0  0  0  0  0
    7.5477  -12.8155   27.4977 N   0  0  0  0  0  0  0  0  0  0  0  0
    8.3364  -13.9709   27.8467 C   0  0  0  0  0  0  0  0  0  0  0  0
    9.4473  -14.2396   26.8229 C   0  0  0  0  0  0  0  0  0  0  0  0
   10.2378  -15.3948   27.3649 C   0  0  0  0  0  0  0  0  0  0  0  0
   10.4828  -16.4995   26.3836 C   0  0  2  0  0  0  0  0  0  0  0  0
    9.4120  -16.6667   25.4295 N   0  0  0  0  0  0  0  0  0  0  0  0
   10.5539  -17.7627   27.1898 C   0  0  0  0  0  0  0  0  0  0  0  0
   11.6046  -17.9824   28.0605 O   0  0  0  0  0  0  0  0  0  0  0  0
    9.6677  -18.6485   27.0962 O   0  0  0  0  0  0  0  0  0  0  0  0
  2  1  1  0
  3  2  1  0
  4  3  1  0
  4  5  1  0
  5  1  1  0
  5  6  1  1
  6  7  2  0
  9  8  1  6
 10  9  1  0
 11  9  1  0
 11 12  1  6
 12  6  1  0
 13 11  1  0
 14 13  2  0
 16 15  1  0
 17 16  2  0
 18 16  1  0
 19 18  1  0
 20 19  1  0
 20 21  1  0
 22 21  1  1
 22 24  1  0
 22 23  1  0
 23 13  1  0
 24 25  1  0
 26 24  2  0
M  END
$$$$
