PTR.pdb
     RDKit          3D

 26 26  0  0  1  0  0  0  0  0999 V2000
    7.9856  -15.5283   17.1237 N   0  0  0  0  0  0  0  0  0  0  0  0
    7.6133  -15.3612   15.7267 C   0  0  0  0  0  0  0  0  0  0  0  0
    7.6804  -13.8918   15.4100 C   0  0  0  0  0  0  0  0  0  0  0  0
    7.9507  -13.2601   16.7839 C   0  0  0  0  0  0  0  0  0  0  0  0
    8.8053  -14.3583   17.3867 C   0  0  1  0  0  0  0  0  0  0  0  0
    9.1009  -14.1762   18.8081 C   0  0  0  0  0  0  0  0  0  0  0  0
    9.9471  -13.3494   19.2397 O   0  0  0  0  0  0  0  0  0  0  0  0
    6.4563  -13.5211   21.5412 C   0  0  0  0  0  0  0  0  0  0  0  0
    7.2814  -14.7209   21.9423 C   0  0  1  0  0  0  0  0  0  0  0  0
    6.5098  -15.8820   21.7553 O   0  0  0  0  0  0  0  0  0  0  0  0
    8.5771  -14.7975   21.1792 C   0  0  2  0  0  0  0  0  0  0  0  0
    8.4104  -14.9619   19.7707 N   0  0  0  0  0  0  0  0  0  0  0  0
    9.4829  -15.8434   21.7631 C   0  0  0  0  0  0  0  0  0  0  0  0
    9.6339  -16.9738   21.2155 O   0  0  0  0  0  0  0  0  0  0  0  0
   16.5467  -17.6061   24.6892 N   0  0  0  0  0  0  0  0  0  0  0  0
   16.8201  -17.4697   23.3186 C   0  0  0  0  0  0  0  0  0  0  0  0
   17.8754  -18.0400   22.8162 N   0  0  0  0  0  0  0  0  0  0  0  0
   15.9497  -16.7151   22.4901 N   0  0  0  0  0  0  0  0  0  0  0  0
   14.8143  -16.0122   23.0338 C   0  0  0  0  0  0  0  0  0  0  0  0
   13.5936  -16.9280   23.1936 C   0  0  0  0  0  0  0  0  0  0  0  0
   12.4969  -16.0623   23.7422 C   0  0  0  0  0  0  0  0  0  0  0  0
   11.1130  -16.5893   23.5174 C   0  0  2  0  0  0  0  0  0  0  0  0
   10.2112  -15.6107   22.9570 N   0  0  0  0  0  0  0  0  0  0  0  0
   10.5813  -16.9512   24.8727 C   0  0  0  0  0  0  0  0  0  0  0  0
   11.0452  -18.0735   25.5328 O   0  0  0  0  0  0  0  0  0  0  0  0
    9.7066  -16.2501   25.4402 O   0  0  0  0  0  0  0  0  0  0  0  0
  2  1  1  0
  3  2  1  0
  4  3  1  0
  4  5  1  0
  5  1  1  0
  5  6  1  1
  6  7  2  0
  9  8  1  6
 10  9  1  0
 11  9  1  0
 11 12  1  6
 12  6  1  0
 13 11  1  0
 14 13  2  0
 16 15  1  0
 17 16  2  0
 18 16  1  0
 19 18  1  0
 20 19  1  0
 20 21  1  0
 22 21  1  1
 22 24  1  0
 22 23  1  0
 23 13  1  0
 24 25  1  0
 26 24  2  0
M  END
$$$$
