PTR.pdb
     RDKit          3D

 26 26  0  0  1  0  0  0  0  0999 V2000
    5.7504  -22.1276   20.6719 N   0  0  0  0  0  0  0  0  0  0  0  0
    4.9519  -22.9370   19.7634 C   0  0  0  0  0  0  0  0  0  0  0  0
    3.5543  -22.9990   20.3173 C   0  0  0  0  0  0  0  0  0  0  0  0
    3.6980  -22.3057   21.6806 C   0  0  0  0  0  0  0  0  0  0  0  0
    4.7590  -21.2848   21.3176 C   0  0  1  0  0  0  0  0  0  0  0  0
    5.2956  -20.5452   22.4604 C   0  0  0  0  0  0  0  0  0  0  0  0
    4.6158  -19.7327   23.1412 O   0  0  0  0  0  0  0  0  0  0  0  0
    7.6491  -21.9593   25.3805 C   0  0  0  0  0  0  0  0  0  0  0  0
    8.2860  -20.7836   24.6782 C   0  0  1  0  0  0  0  0  0  0  0  0
    9.3291  -21.2568   23.8618 O   0  0  0  0  0  0  0  0  0  0  0  0
    7.2850  -19.9905   23.8807 C   0  0  2  0  0  0  0  0  0  0  0  0
    6.6519  -20.7367   22.8409 N   0  0  0  0  0  0  0  0  0  0  0  0
    7.8952  -18.7182   23.3667 C   0  0  0  0  0  0  0  0  0  0  0  0
    8.3070  -18.6115   22.1753 O   0  0  0  0  0  0  0  0  0  0  0  0
    6.9886  -13.8812   18.6969 N   0  0  0  0  0  0  0  0  0  0  0  0
    7.8667  -13.0006   19.3493 C   0  0  0  0  0  0  0  0  0  0  0  0
    8.4030  -12.0207   18.6833 N   0  0  0  0  0  0  0  0  0  0  0  0
    8.1646  -13.1804   20.7249 N   0  0  0  0  0  0  0  0  0  0  0  0
    7.3609  -14.0343   21.5638 C   0  0  0  0  0  0  0  0  0  0  0  0
    7.7854  -13.9584   23.0363 C   0  0  0  0  0  0  0  0  0  0  0  0
    7.3870  -15.2695   23.6490 C   0  0  0  0  0  0  0  0  0  0  0  0
    8.4747  -16.2987   23.6850 C   0  0  2  0  0  0  0  0  0  0  0  0
    8.0377  -17.5767   24.1954 N   0  0  0  0  0  0  0  0  0  0  0  0
    9.5095  -15.7760   24.6372 C   0  0  0  0  0  0  0  0  0  0  0  0
   10.5038  -14.9236   24.1957 O   0  0  0  0  0  0  0  0  0  0  0  0
    9.5009  -16.0966   25.8521 O   0  0  0  0  0  0  0  0  0  0  0  0
  2  1  1  0
  3  2  1  0
  4  3  1  0
  4  5  1  0
  5  1  1  0
  5  6  1  1
  6  7  2  0
  9  8  1  6
 10  9  1  0
 11  9  1  0
 11 12  1  6
 12  6  1  0
 13 11  1  0
 14 13  2  0
 16 15  1  0
 17 16  2  0
 18 16  1  0
 19 18  1  0
 20 19  1  0
 20 21  1  0
 22 21  1  1
 22 24  1  0
 22 23  1  0
 23 13  1  0
 24 25  1  0
 26 24  2  0
M  END
$$$$
