PTR.pdb
     RDKit          3D

 26 26  0  0  1  0  0  0  0  0999 V2000
    8.2664  -18.9854   19.1939 N   0  0  0  0  0  0  0  0  0  0  0  0
    7.6659  -19.8297   18.1718 C   0  0  0  0  0  0  0  0  0  0  0  0
    6.8630  -18.9412   17.2608 C   0  0  0  0  0  0  0  0  0  0  0  0
    6.9349  -17.5782   17.9657 C   0  0  0  0  0  0  0  0  0  0  0  0
    8.3306  -17.6854   18.5489 C   0  0  1  0  0  0  0  0  0  0  0  0
    8.6787  -16.6061   19.4736 C   0  0  0  0  0  0  0  0  0  0  0  0
    9.8546  -16.1866   19.6380 O   0  0  0  0  0  0  0  0  0  0  0  0
    8.1025  -13.0175   19.5093 C   0  0  0  0  0  0  0  0  0  0  0  0
    7.3343  -13.5855   20.6791 C   0  0  1  0  0  0  0  0  0  0  0  0
    5.9815  -13.7078   20.3140 O   0  0  0  0  0  0  0  0  0  0  0  0
    7.8972  -14.9040   21.1393 C   0  0  2  0  0  0  0  0  0  0  0  0
    7.6538  -15.9836   20.2371 N   0  0  0  0  0  0  0  0  0  0  0  0
    7.4417  -15.2247   22.5340 C   0  0  0  0  0  0  0  0  0  0  0  0
    6.2269  -15.4560   22.8006 O   0  0  0  0  0  0  0  0  0  0  0  0
    6.4097  -21.8884   24.3218 N   0  0  0  0  0  0  0  0  0  0  0  0
    7.4425  -21.2125   24.9913 C   0  0  0  0  0  0  0  0  0  0  0  0
    8.6724  -21.3742   24.6007 N   0  0  0  0  0  0  0  0  0  0  0  0
    7.1440  -20.3595   26.0852 N   0  0  0  0  0  0  0  0  0  0  0  0
    7.8228  -19.1002   26.2650 C   0  0  0  0  0  0  0  0  0  0  0  0
    7.9298  -18.3121   24.9528 C   0  0  0  0  0  0  0  0  0  0  0  0
    8.6864  -17.0588   25.2844 C   0  0  0  0  0  0  0  0  0  0  0  0
    7.9828  -15.7884   24.9174 C   0  0  2  0  0  0  0  0  0  0  0  0
    8.3547  -15.2825   23.6171 N   0  0  0  0  0  0  0  0  0  0  0  0
    8.4169  -14.7669   25.9267 C   0  0  0  0  0  0  0  0  0  0  0  0
    7.8904  -14.7739   27.2046 O   0  0  0  0  0  0  0  0  0  0  0  0
    9.2637  -13.8839   25.6403 O   0  0  0  0  0  0  0  0  0  0  0  0
  2  1  1  0
  3  2  1  0
  4  3  1  0
  4  5  1  0
  5  1  1  0
  5  6  1  1
  6  7  2  0
  9  8  1  6
 10  9  1  0
 11  9  1  0
 11 12  1  6
 12  6  1  0
 13 11  1  0
 14 13  2  0
 16 15  1  0
 17 16  2  0
 18 16  1  0
 19 18  1  0
 20 19  1  0
 20 21  1  0
 22 21  1  1
 22 24  1  0
 22 23  1  0
 23 13  1  0
 24 25  1  0
 26 24  2  0
M  END
$$$$
