PTR.pdb
     RDKit          3D

 26 26  0  0  1  0  0  0  0  0999 V2000
    9.0330  -14.2433   18.6687 N   0  0  0  0  0  0  0  0  0  0  0  0
    8.4248  -13.1560   17.9163 C   0  0  0  0  0  0  0  0  0  0  0  0
    7.2281  -12.6781   18.6931 C   0  0  0  0  0  0  0  0  0  0  0  0
    7.1348  -13.7001   19.8363 C   0  0  0  0  0  0  0  0  0  0  0  0
    8.6136  -13.9727   20.0328 C   0  0  1  0  0  0  0  0  0  0  0  0
    8.9035  -15.0764   20.9487 C   0  0  0  0  0  0  0  0  0  0  0  0
    8.4275  -15.1550   22.1119 O   0  0  0  0  0  0  0  0  0  0  0  0
   10.9660  -19.5805   21.4992 C   0  0  0  0  0  0  0  0  0  0  0  0
   10.7629  -18.3715   20.6170 C   0  0  1  0  0  0  0  0  0  0  0  0
   10.0002  -18.7524   19.4982 O   0  0  0  0  0  0  0  0  0  0  0  0
   10.1144  -17.2325   21.3580 C   0  0  2  0  0  0  0  0  0  0  0  0
    9.7644  -16.1258   20.5264 N   0  0  0  0  0  0  0  0  0  0  0  0
   10.9508  -16.8101   22.5316 C   0  0  0  0  0  0  0  0  0  0  0  0
   11.8933  -15.9749   22.4109 O   0  0  0  0  0  0  0  0  0  0  0  0
   13.5771  -20.5300   30.2558 N   0  0  0  0  0  0  0  0  0  0  0  0
   12.8595  -19.3547   30.5307 C   0  0  0  0  0  0  0  0  0  0  0  0
   12.3060  -19.2003   31.6974 N   0  0  0  0  0  0  0  0  0  0  0  0
   12.7410  -18.3443   29.5415 N   0  0  0  0  0  0  0  0  0  0  0  0
   11.9604  -18.5486   28.3466 C   0  0  0  0  0  0  0  0  0  0  0  0
   11.9980  -17.3268   27.4192 C   0  0  0  0  0  0  0  0  0  0  0  0
   11.1727  -17.6930   26.2200 C   0  0  0  0  0  0  0  0  0  0  0  0
   11.5120  -16.9360   24.9729 C   0  0  2  0  0  0  0  0  0  0  0  0
   10.7215  -17.3297   23.8306 N   0  0  0  0  0  0  0  0  0  0  0  0
   12.9391  -17.2745   24.6572 C   0  0  0  0  0  0  0  0  0  0  0  0
   13.2603  -18.4803   24.0631 O   0  0  0  0  0  0  0  0  0  0  0  0
   13.8738  -16.4777   24.9223 O   0  0  0  0  0  0  0  0  0  0  0  0
  2  1  1  0
  3  2  1  0
  4  3  1  0
  4  5  1  0
  5  1  1  0
  5  6  1  1
  6  7  2  0
  9  8  1  1
 10  9  1  0
 11  9  1  0
 11 12  1  6
 12  6  1  0
 13 11  1  0
 14 13  2  0
 16 15  1  0
 17 16  2  0
 18 16  1  0
 19 18  1  0
 20 19  1  0
 20 21  1  0
 22 21  1  1
 22 24  1  0
 22 23  1  0
 23 13  1  0
 24 25  1  0
 26 24  2  0
M  END
$$$$
