PTR.pdb
     RDKit          3D

 26 26  0  0  1  0  0  0  0  0999 V2000
    7.9515  -15.1603   17.5038 N   0  0  0  0  0  0  0  0  0  0  0  0
    8.0631  -14.5458   16.1893 C   0  0  0  0  0  0  0  0  0  0  0  0
    8.0553  -13.0535   16.3819 C   0  0  0  0  0  0  0  0  0  0  0  0
    7.7593  -12.9061   17.8821 C   0  0  0  0  0  0  0  0  0  0  0  0
    8.4825  -14.1386   18.3894 C   0  0  1  0  0  0  0  0  0  0  0  0
    8.2487  -14.4316   19.8038 C   0  0  0  0  0  0  0  0  0  0  0  0
    8.6912  -13.7175   20.7419 O   0  0  0  0  0  0  0  0  0  0  0  0
    4.7245  -16.4085   20.7875 C   0  0  0  0  0  0  0  0  0  0  0  0
    5.9301  -16.8382   21.5893 C   0  0  1  0  0  0  0  0  0  0  0  0
    6.3371  -18.1096   21.1460 O   0  0  0  0  0  0  0  0  0  0  0  0
    7.0553  -15.8419   21.4978 C   0  0  2  0  0  0  0  0  0  0  0  0
    7.4857  -15.5761   20.1625 N   0  0  0  0  0  0  0  0  0  0  0  0
    8.1982  -16.2396   22.3871 C   0  0  0  0  0  0  0  0  0  0  0  0
    9.2607  -16.7432   21.9202 O   0  0  0  0  0  0  0  0  0  0  0  0
   11.1863  -13.4272   30.3911 N   0  0  0  0  0  0  0  0  0  0  0  0
   11.2086  -14.8312   30.3741 C   0  0  0  0  0  0  0  0  0  0  0  0
   11.2572  -15.4847   31.4975 N   0  0  0  0  0  0  0  0  0  0  0  0
   11.1778  -15.5294   29.1392 N   0  0  0  0  0  0  0  0  0  0  0  0
   10.2018  -15.2205   28.1240 C   0  0  0  0  0  0  0  0  0  0  0  0
   10.3770  -16.0922   26.8734 C   0  0  0  0  0  0  0  0  0  0  0  0
    9.3225  -15.6416   25.9049 C   0  0  0  0  0  0  0  0  0  0  0  0
    9.2075  -16.4821   24.6704 C   0  0  2  0  0  0  0  0  0  0  0  0
    8.1378  -16.0685   23.7931 N   0  0  0  0  0  0  0  0  0  0  0  0
    8.8784  -17.8680   25.1411 C   0  0  0  0  0  0  0  0  0  0  0  0
    9.8769  -18.7161   25.5815 O   0  0  0  0  0  0  0  0  0  0  0  0
    7.6958  -18.2926   25.1473 O   0  0  0  0  0  0  0  0  0  0  0  0
  2  1  1  0
  3  2  1  0
  4  3  1  0
  4  5  1  0
  5  1  1  0
  5  6  1  1
  6  7  2  0
  9  8  1  6
 10  9  1  0
 11  9  1  0
 11 12  1  6
 12  6  1  0
 13 11  1  0
 14 13  2  0
 16 15  1  0
 17 16  2  0
 18 16  1  0
 19 18  1  0
 20 19  1  0
 20 21  1  0
 22 21  1  1
 22 24  1  0
 22 23  1  0
 23 13  1  0
 24 25  1  0
 26 24  2  0
M  END
$$$$
