PTR.pdb
     RDKit          3D

 26 26  0  0  1  0  0  0  0  0999 V2000
    8.7605  -14.7881   18.3039 N   0  0  0  0  0  0  0  0  0  0  0  0
    9.0166  -13.6306   17.4597 C   0  0  0  0  0  0  0  0  0  0  0  0
    8.2219  -12.4787   18.0126 C   0  0  0  0  0  0  0  0  0  0  0  0
    7.3846  -13.1424   19.1164 C   0  0  0  0  0  0  0  0  0  0  0  0
    8.3807  -14.1910   19.5725 C   0  0  1  0  0  0  0  0  0  0  0  0
    7.8360  -15.1633   20.5207 C   0  0  0  0  0  0  0  0  0  0  0  0
    7.4368  -14.8569   21.6750 O   0  0  0  0  0  0  0  0  0  0  0  0
    6.0936  -19.7798   21.1608 C   0  0  0  0  0  0  0  0  0  0  0  0
    6.8365  -18.8130   20.2695 C   0  0  1  0  0  0  0  0  0  0  0  0
    6.0495  -18.5507   19.1335 O   0  0  0  0  0  0  0  0  0  0  0  0
    7.1964  -17.5409   20.9901 C   0  0  2  0  0  0  0  0  0  0  0  0
    7.7431  -16.5304   20.1423 N   0  0  0  0  0  0  0  0  0  0  0  0
    8.0825  -17.8241   22.1690 C   0  0  0  0  0  0  0  0  0  0  0  0
    9.3119  -18.0879   22.0294 O   0  0  0  0  0  0  0  0  0  0  0  0
    9.2117  -13.2074   29.2035 N   0  0  0  0  0  0  0  0  0  0  0  0
    9.9488  -14.3513   29.5499 C   0  0  0  0  0  0  0  0  0  0  0  0
   10.6892  -14.3366   30.6190 N   0  0  0  0  0  0  0  0  0  0  0  0
    9.8843  -15.5134   28.7383 N   0  0  0  0  0  0  0  0  0  0  0  0
    9.1147  -15.5385   27.5193 C   0  0  0  0  0  0  0  0  0  0  0  0
    9.1195  -16.9262   26.8645 C   0  0  0  0  0  0  0  0  0  0  0  0
    8.2853  -16.7998   25.6230 C   0  0  0  0  0  0  0  0  0  0  0  0
    8.4383  -17.9280   24.6497 C   0  0  2  0  0  0  0  0  0  0  0  0
    7.5801  -17.8087   23.4947 N   0  0  0  0  0  0  0  0  0  0  0  0
    8.0190  -19.1681   25.3824 C   0  0  0  0  0  0  0  0  0  0  0  0
    8.8724  -19.7730   26.2857 O   0  0  0  0  0  0  0  0  0  0  0  0
    6.8898  -19.6869   25.1962 O   0  0  0  0  0  0  0  0  0  0  0  0
  2  1  1  0
  3  2  1  0
  4  3  1  0
  4  5  1  0
  5  1  1  0
  5  6  1  1
  6  7  2  0
  9  8  1  1
 10  9  1  0
 11  9  1  0
 11 12  1  6
 12  6  1  0
 13 11  1  0
 14 13  2  0
 16 15  1  0
 17 16  2  0
 18 16  1  0
 19 18  1  0
 20 19  1  0
 20 21  1  0
 22 21  1  1
 22 24  1  0
 22 23  1  0
 23 13  1  0
 24 25  1  0
 26 24  2  0
M  END
$$$$
