PTR.pdb
     RDKit          3D

 26 26  0  0  1  0  0  0  0  0999 V2000
    7.5403  -15.8039   16.6841 N   0  0  0  0  0  0  0  0  0  0  0  0
    7.1025  -15.8021   15.2961 C   0  0  0  0  0  0  0  0  0  0  0  0
    7.5310  -14.4956   14.6850 C   0  0  0  0  0  0  0  0  0  0  0  0
    8.0821  -13.7207   15.8915 C   0  0  0  0  0  0  0  0  0  0  0  0
    8.6629  -14.8820   16.6749 C   0  0  1  0  0  0  0  0  0  0  0  0
    9.1225  -14.5290   18.0184 C   0  0  0  0  0  0  0  0  0  0  0  0
   10.1596  -13.8498   18.2400 O   0  0  0  0  0  0  0  0  0  0  0  0
    7.1788  -12.7124   20.6691 C   0  0  0  0  0  0  0  0  0  0  0  0
    7.6450  -14.0070   21.2919 C   0  0  1  0  0  0  0  0  0  0  0  0
    6.5392  -14.8652   21.4298 O   0  0  0  0  0  0  0  0  0  0  0  0
    8.7439  -14.6561   20.4929 C   0  0  2  0  0  0  0  0  0  0  0  0
    8.3769  -14.9640   19.1479 N   0  0  0  0  0  0  0  0  0  0  0  0
    9.2953  -15.8534   21.2123 C   0  0  0  0  0  0  0  0  0  0  0  0
    8.7941  -17.0059   21.0674 O   0  0  0  0  0  0  0  0  0  0  0  0
   11.7879  -21.1232   23.3995 N   0  0  0  0  0  0  0  0  0  0  0  0
   13.1839  -21.2754   23.3918 C   0  0  0  0  0  0  0  0  0  0  0  0
   13.7055  -22.4175   23.7307 N   0  0  0  0  0  0  0  0  0  0  0  0
   14.0170  -20.1899   23.0162 N   0  0  0  0  0  0  0  0  0  0  0  0
   13.4652  -18.9561   22.5141 C   0  0  0  0  0  0  0  0  0  0  0  0
   13.0367  -18.0144   23.6472 C   0  0  0  0  0  0  0  0  0  0  0  0
   12.4323  -16.8135   22.9797 C   0  0  0  0  0  0  0  0  0  0  0  0
   10.9476  -16.8828   22.7939 C   0  0  2  0  0  0  0  0  0  0  0  0
   10.4047  -15.7459   22.0884 N   0  0  0  0  0  0  0  0  0  0  0  0
   10.3555  -16.8681   24.1722 C   0  0  0  0  0  0  0  0  0  0  0  0
   10.3905  -18.0004   24.9640 O   0  0  0  0  0  0  0  0  0  0  0  0
    9.8156  -15.8348   24.6406 O   0  0  0  0  0  0  0  0  0  0  0  0
  2  1  1  0
  3  2  1  0
  4  3  1  0
  4  5  1  0
  5  1  1  0
  5  6  1  1
  6  7  2  0
  9  8  1  6
 10  9  1  0
 11  9  1  0
 11 12  1  6
 12  6  1  0
 13 11  1  0
 14 13  2  0
 16 15  1  0
 17 16  2  0
 18 16  1  0
 19 18  1  0
 20 19  1  0
 20 21  1  0
 22 21  1  1
 22 24  1  0
 22 23  1  0
 23 13  1  0
 24 25  1  0
 26 24  2  0
M  END
$$$$
