PTR.pdb
     RDKit          3D

 26 26  0  0  1  0  0  0  0  0999 V2000
    8.7463  -14.7878   17.7512 N   0  0  0  0  0  0  0  0  0  0  0  0
    8.7549  -13.8501   16.6382 C   0  0  0  0  0  0  0  0  0  0  0  0
    7.9594  -12.6424   17.0538 C   0  0  0  0  0  0  0  0  0  0  0  0
    7.3772  -13.0693   18.4098 C   0  0  0  0  0  0  0  0  0  0  0  0
    8.5255  -13.9289   18.9017 C   0  0  1  0  0  0  0  0  0  0  0  0
    8.2335  -14.6770   20.1249 C   0  0  0  0  0  0  0  0  0  0  0  0
    7.8978  -14.1302   21.2084 O   0  0  0  0  0  0  0  0  0  0  0  0
    6.8545  -18.6502   19.7985 C   0  0  0  0  0  0  0  0  0  0  0  0
    7.8548  -18.3786   20.8971 C   0  0  1  0  0  0  0  0  0  0  0  0
    9.1028  -18.8990   20.5098 O   0  0  0  0  0  0  0  0  0  0  0  0
    7.9522  -16.9121   21.2241 C   0  0  2  0  0  0  0  0  0  0  0  0
    8.3273  -16.0955   20.1145 N   0  0  0  0  0  0  0  0  0  0  0  0
    8.8405  -16.6851   22.4135 C   0  0  0  0  0  0  0  0  0  0  0  0
   10.0795  -16.4638   22.2862 O   0  0  0  0  0  0  0  0  0  0  0  0
   10.6055  -16.1930   29.5261 N   0  0  0  0  0  0  0  0  0  0  0  0
   10.5509  -14.7909   29.5825 C   0  0  0  0  0  0  0  0  0  0  0  0
   10.4312  -14.2004   30.7350 N   0  0  0  0  0  0  0  0  0  0  0  0
   10.6265  -14.0263   28.3896 N   0  0  0  0  0  0  0  0  0  0  0  0
    9.7622  -14.2951   27.2672 C   0  0  0  0  0  0  0  0  0  0  0  0
    9.1916  -15.7189   27.3087 C   0  0  0  0  0  0  0  0  0  0  0  0
    8.3905  -15.8795   26.0495 C   0  0  0  0  0  0  0  0  0  0  0  0
    9.1546  -16.4411   24.8900 C   0  0  2  0  0  0  0  0  0  0  0  0
    8.3294  -16.7089   23.7357 N   0  0  0  0  0  0  0  0  0  0  0  0
    9.7029  -17.7584   25.3531 C   0  0  0  0  0  0  0  0  0  0  0  0
   10.8923  -17.8169   26.0547 O   0  0  0  0  0  0  0  0  0  0  0  0
    9.1012  -18.8360   25.1175 O   0  0  0  0  0  0  0  0  0  0  0  0
  2  1  1  0
  3  2  1  0
  4  3  1  0
  4  5  1  0
  5  1  1  0
  5  6  1  1
  6  7  2  0
  9  8  1  6
 10  9  1  0
 11  9  1  0
 11 12  1  6
 12  6  1  0
 13 11  1  0
 14 13  2  0
 16 15  1  0
 17 16  2  0
 18 16  1  0
 19 18  1  0
 20 19  1  0
 20 21  1  0
 22 21  1  1
 22 24  1  0
 22 23  1  0
 23 13  1  0
 24 25  1  0
 26 24  2  0
M  END
$$$$
