PTR.pdb
     RDKit          3D

 26 26  0  0  1  0  0  0  0  0999 V2000
    7.4157  -14.7113   18.0284 N   0  0  0  0  0  0  0  0  0  0  0  0
    7.1406  -13.4295   17.3965 C   0  0  0  0  0  0  0  0  0  0  0  0
    7.4728  -12.3505   18.3912 C   0  0  0  0  0  0  0  0  0  0  0  0
    7.7856  -13.1484   19.6661 C   0  0  0  0  0  0  0  0  0  0  0  0
    8.4113  -14.3753   19.0314 C   0  0  1  0  0  0  0  0  0  0  0  0
    8.6697  -15.4693   19.9681 C   0  0  0  0  0  0  0  0  0  0  0  0
    7.8082  -15.9099   20.7739 O   0  0  0  0  0  0  0  0  0  0  0  0
   11.1017  -19.4663   21.2432 C   0  0  0  0  0  0  0  0  0  0  0  0
   10.7855  -18.3824   20.2401 C   0  0  1  0  0  0  0  0  0  0  0  0
    9.8295  -18.8728   19.3322 O   0  0  0  0  0  0  0  0  0  0  0  0
   10.3095  -17.1178   20.9043 C   0  0  2  0  0  0  0  0  0  0  0  0
    9.9523  -16.0822   19.9885 N   0  0  0  0  0  0  0  0  0  0  0  0
   11.3001  -16.6438   21.9286 C   0  0  0  0  0  0  0  0  0  0  0  0
   12.3597  -16.0366   21.5986 O   0  0  0  0  0  0  0  0  0  0  0  0
    9.9168  -16.2158   30.3867 N   0  0  0  0  0  0  0  0  0  0  0  0
   10.3664  -15.0543   29.7380 C   0  0  0  0  0  0  0  0  0  0  0  0
   10.5389  -13.9633   30.4244 N   0  0  0  0  0  0  0  0  0  0  0  0
   10.6303  -15.0737   28.3439 N   0  0  0  0  0  0  0  0  0  0  0  0
    9.8848  -15.9229   27.4484 C   0  0  0  0  0  0  0  0  0  0  0  0
   10.2499  -15.6709   25.9795 C   0  0  0  0  0  0  0  0  0  0  0  0
   11.4815  -16.4868   25.7143 C   0  0  0  0  0  0  0  0  0  0  0  0
   12.0141  -16.3790   24.3185 C   0  0  2  0  0  0  0  0  0  0  0  0
   11.0922  -16.8562   23.3149 N   0  0  0  0  0  0  0  0  0  0  0  0
   13.2209  -17.2686   24.2647 C   0  0  0  0  0  0  0  0  0  0  0  0
   14.4839  -16.7537   24.4887 O   0  0  0  0  0  0  0  0  0  0  0  0
   13.1176  -18.4959   24.0163 O   0  0  0  0  0  0  0  0  0  0  0  0
  2  1  1  0
  3  2  1  0
  4  3  1  0
  4  5  1  0
  5  1  1  0
  5  6  1  1
  6  7  2  0
  9  8  1  1
 10  9  1  0
 11  9  1  0
 11 12  1  6
 12  6  1  0
 13 11  1  0
 14 13  2  0
 16 15  1  0
 17 16  2  0
 18 16  1  0
 19 18  1  0
 20 19  1  0
 20 21  1  0
 22 21  1  1
 22 24  1  0
 22 23  1  0
 23 13  1  0
 24 25  1  0
 26 24  2  0
M  END
$$$$
