PTR.pdb
     RDKit          3D

 26 26  0  0  1  0  0  0  0  0999 V2000
    7.0565  -14.7386   20.8178 N   0  0  0  0  0  0  0  0  0  0  0  0
    6.5757  -14.4654   19.4716 C   0  0  0  0  0  0  0  0  0  0  0  0
    7.1243  -13.1278   19.0546 C   0  0  0  0  0  0  0  0  0  0  0  0
    7.7969  -12.6210   20.3394 C   0  0  0  0  0  0  0  0  0  0  0  0
    8.2724  -13.9481   20.8983 C   0  0  1  0  0  0  0  0  0  0  0  0
    8.8124  -13.8681   22.2560 C   0  0  0  0  0  0  0  0  0  0  0  0
    9.9195  -13.3349   22.5312 O   0  0  0  0  0  0  0  0  0  0  0  0
    6.2601  -13.6656   25.5516 C   0  0  0  0  0  0  0  0  0  0  0  0
    7.7428  -13.3778   25.5433 C   0  0  1  0  0  0  0  0  0  0  0  0
    8.2101  -13.3793   26.8700 O   0  0  0  0  0  0  0  0  0  0  0  0
    8.5054  -14.3601   24.6945 C   0  0  2  0  0  0  0  0  0  0  0  0
    8.0672  -14.4138   23.3366 N   0  0  0  0  0  0  0  0  0  0  0  0
    8.5242  -15.7195   25.3323 C   0  0  0  0  0  0  0  0  0  0  0  0
    7.4685  -16.4013   25.4771 O   0  0  0  0  0  0  0  0  0  0  0  0
   14.3258  -20.4224   22.4071 N   0  0  0  0  0  0  0  0  0  0  0  0
   13.3447  -19.7703   21.6428 C   0  0  0  0  0  0  0  0  0  0  0  0
   13.4239  -19.7929   20.3449 N   0  0  0  0  0  0  0  0  0  0  0  0
   12.2755  -19.0928   22.2842 N   0  0  0  0  0  0  0  0  0  0  0  0
   12.1384  -19.0913   23.7195 C   0  0  0  0  0  0  0  0  0  0  0  0
   10.8158  -18.4575   24.1703 C   0  0  0  0  0  0  0  0  0  0  0  0
   10.8299  -18.4956   25.6708 C   0  0  0  0  0  0  0  0  0  0  0  0
    9.7864  -17.6451   26.3274 C   0  0  2  0  0  0  0  0  0  0  0  0
    9.7286  -16.3013   25.8023 N   0  0  0  0  0  0  0  0  0  0  0  0
   10.1864  -17.5364   27.7692 C   0  0  0  0  0  0  0  0  0  0  0  0
   10.4714  -16.3051   28.3285 O   0  0  0  0  0  0  0  0  0  0  0  0
   10.2730  -18.5535   28.5019 O   0  0  0  0  0  0  0  0  0  0  0  0
  2  1  1  0
  3  2  1  0
  4  3  1  0
  4  5  1  0
  5  1  1  0
  5  6  1  1
  6  7  2  0
  9  8  1  1
 10  9  1  0
 11  9  1  0
 11 12  1  6
 12  6  1  0
 13 11  1  0
 14 13  2  0
 16 15  1  0
 17 16  2  0
 18 16  1  0
 19 18  1  0
 20 19  1  0
 20 21  1  0
 22 21  1  6
 22 24  1  0
 22 23  1  0
 23 13  1  0
 24 25  1  0
 26 24  2  0
M  END
$$$$
