CEH.pdb
     RDKit          3D

 26 26  0  0  1  0  0  0  0  0999 V2000
   24.1082  -15.9690  -19.3884 N   0  0  0  0  0  0  0  0  0  0  0  0
   23.7588  -15.8142  -18.0106 C   0  0  1  0  0  0  0  0  0  0  0  0
   22.8211  -14.6338  -17.8185 C   0  0  0  0  0  0  0  0  0  0  0  0
   23.8226  -13.1291  -18.0597 S   0  0  0  0  0  0  0  0  0  0  0  0
   23.0302  -17.0242  -17.4869 C   0  0  0  0  0  0  0  0  0  0  0  0
   21.9581  -17.4138  -18.0145 O   0  0  0  0  0  0  0  0  0  0  0  0
   23.5184  -17.7723  -16.3829 N   0  0  0  0  0  0  0  0  0  0  0  0
   22.8646  -18.9912  -15.9432 C   0  0  1  0  0  0  0  0  0  0  0  0
   23.8514  -19.9694  -15.3497 C   0  0  0  0  0  0  0  0  0  0  0  0
   24.7347  -20.6109  -16.3724 C   0  0  0  0  0  0  0  0  0  0  0  0
   25.6201  -21.5822  -15.6953 C   0  0  0  0  0  0  0  0  0  0  0  0
   26.8467  -21.3577  -15.5987 O   0  0  0  0  0  0  0  0  0  0  0  0
   21.8038  -18.7243  -14.9517 C   0  0  0  0  0  0  0  0  0  0  0  0
   21.8939  -17.8399  -14.0601 O   0  0  0  0  0  0  0  0  0  0  0  0
   25.0846  -22.7339  -15.1728 O   0  0  0  0  0  0  0  0  0  0  0  0
   20.6182  -19.4729  -14.9702 N   0  0  0  0  0  0  0  0  0  0  0  0
   19.4847  -19.2848  -14.1388 C   0  0  1  0  0  0  0  0  0  0  0  0
   18.4336  -18.3611  -14.6506 C   0  0  0  0  0  0  0  0  0  0  0  0
   18.7669  -16.9324  -14.4844 C   0  0  0  0  0  0  0  0  0  0  0  0
   19.8174  -16.3784  -13.7952 C   0  0  0  0  0  0  0  0  0  0  0  0
   19.7715  -15.0262  -13.8836 N   0  0  0  0  0  0  0  0  0  0  0  0
   18.6812  -14.7662  -14.6342 C   0  0  0  0  0  0  0  0  0  0  0  0
   18.0737  -15.9091  -14.9980 N   0  0  0  0  0  0  0  0  0  0  0  0
   18.8669  -20.5915  -13.8564 C   0  0  0  0  0  0  0  0  0  0  0  0
   19.3077  -21.6165  -14.4127 O   0  0  0  0  0  0  0  0  0  0  0  0
   17.8027  -20.7240  -12.9859 O   0  0  0  0  0  0  0  0  0  0  0  0
  2  5  1  0
  2  1  1  6
  3  2  1  0
  4  3  1  0
  5  7  1  0
  6  5  2  0
  7  8  1  0
  8  9  1  1
  9 10  1  0
 10 11  1  0
 11 12  2  0
 11 15  1  0
 13 14  2  0
 13  8  1  0
 16 13  1  0
 17 16  1  0
 17 24  1  0
 17 18  1  6
 19 18  1  0
 19 23  1  0
 20 21  1  0
 20 19  2  0
 21 22  1  0
 22 23  2  0
 24 25  2  0
 24 26  1  0
M  END
$$$$
