CEH.pdb
     RDKit          3D

 26 26  0  0  1  0  0  0  0  0999 V2000
   28.0523  -17.9995  -17.5182 N   0  0  0  0  0  0  0  0  0  0  0  0
   27.3140  -17.6213  -16.3537 C   0  0  1  0  0  0  0  0  0  0  0  0
   26.4286  -16.4197  -16.6398 C   0  0  0  0  0  0  0  0  0  0  0  0
   27.5217  -14.9603  -16.6569 S   0  0  0  0  0  0  0  0  0  0  0  0
   26.3960  -18.7260  -15.8995 C   0  0  0  0  0  0  0  0  0  0  0  0
   25.8132  -19.4671  -16.7306 O   0  0  0  0  0  0  0  0  0  0  0  0
   26.1504  -18.9770  -14.5235 N   0  0  0  0  0  0  0  0  0  0  0  0
   25.2720  -20.0488  -14.0923 C   0  0  1  0  0  0  0  0  0  0  0  0
   25.7096  -20.6284  -12.7673 C   0  0  0  0  0  0  0  0  0  0  0  0
   24.8433  -21.7549  -12.3005 C   0  0  0  0  0  0  0  0  0  0  0  0
   24.9987  -22.8928  -13.2316 C   0  0  0  0  0  0  0  0  0  0  0  0
   25.9452  -22.9151  -14.0488 O   0  0  0  0  0  0  0  0  0  0  0  0
   23.8692  -19.6032  -13.9771 C   0  0  0  0  0  0  0  0  0  0  0  0
   23.5193  -18.5670  -13.3533 O   0  0  0  0  0  0  0  0  0  0  0  0
   24.0948  -23.9260  -13.1920 O   0  0  0  0  0  0  0  0  0  0  0  0
   22.8431  -20.3447  -14.5801 N   0  0  0  0  0  0  0  0  0  0  0  0
   21.4542  -20.0612  -14.5349 C   0  0  1  0  0  0  0  0  0  0  0  0
   20.6612  -20.4395  -15.7382 C   0  0  0  0  0  0  0  0  0  0  0  0
   19.8079  -19.3502  -16.2532 C   0  0  0  0  0  0  0  0  0  0  0  0
   19.5962  -18.1065  -15.7111 C   0  0  0  0  0  0  0  0  0  0  0  0
   18.7421  -17.3978  -16.4900 N   0  0  0  0  0  0  0  0  0  0  0  0
   18.4380  -18.2258  -17.5107 C   0  0  0  0  0  0  0  0  0  0  0  0
   19.0763  -19.4010  -17.3729 N   0  0  0  0  0  0  0  0  0  0  0  0
   20.8626  -20.7157  -13.3557 C   0  0  0  0  0  0  0  0  0  0  0  0
   21.2563  -21.8486  -13.0155 O   0  0  0  0  0  0  0  0  0  0  0  0
   19.8743  -20.1116  -12.6033 O   0  0  0  0  0  0  0  0  0  0  0  0
  2  5  1  0
  2  1  1  6
  3  2  1  0
  4  3  1  0
  5  7  1  0
  6  5  2  0
  7  8  1  0
  8  9  1  1
  9 10  1  0
 10 11  1  0
 11 12  2  0
 11 15  1  0
 13 14  2  0
 13  8  1  0
 16 13  1  0
 17 16  1  0
 17 24  1  0
 17 18  1  6
 19 18  1  0
 19 23  1  0
 20 21  1  0
 20 19  2  0
 21 22  1  0
 22 23  2  0
 24 25  2  0
 24 26  1  0
M  END
$$$$
