CEH.pdb
     RDKit          3D

 26 26  0  0  1  0  0  0  0  0999 V2000
   32.9333  -34.5378   -8.1555 N   0  0  0  0  0  0  0  0  0  0  0  0
   32.9249  -34.0512   -6.8111 C   0  0  1  0  0  0  0  0  0  0  0  0
   32.5545  -32.5779   -6.7703 C   0  0  0  0  0  0  0  0  0  0  0  0
   33.8918  -31.6813   -7.6264 S   0  0  0  0  0  0  0  0  0  0  0  0
   31.9013  -34.7692   -5.9709 C   0  0  0  0  0  0  0  0  0  0  0  0
   30.7807  -35.0853   -6.4442 O   0  0  0  0  0  0  0  0  0  0  0  0
   32.1549  -35.1180   -4.6178 N   0  0  0  0  0  0  0  0  0  0  0  0
   31.1064  -35.6351   -3.7578 C   0  0  1  0  0  0  0  0  0  0  0  0
   31.6727  -36.2652   -2.5067 C   0  0  0  0  0  0  0  0  0  0  0  0
   30.6247  -36.8500   -1.6137 C   0  0  0  0  0  0  0  0  0  0  0  0
   31.2851  -37.4609   -0.4406 C   0  0  0  0  0  0  0  0  0  0  0  0
   31.4266  -38.7016   -0.3707 O   0  0  0  0  0  0  0  0  0  0  0  0
   30.1420  -34.5872   -3.3685 C   0  0  0  0  0  0  0  0  0  0  0  0
   30.4839  -33.4450   -2.9641 O   0  0  0  0  0  0  0  0  0  0  0  0
   31.7424  -36.6546    0.5728 O   0  0  0  0  0  0  0  0  0  0  0  0
   28.7639  -34.8374   -3.4389 N   0  0  0  0  0  0  0  0  0  0  0  0
   27.7209  -33.9158   -3.1669 C   0  0  1  0  0  0  0  0  0  0  0  0
   27.4936  -32.8526   -4.1857 C   0  0  0  0  0  0  0  0  0  0  0  0
   27.1448  -33.3757   -5.5216 C   0  0  0  0  0  0  0  0  0  0  0  0
   27.0402  -34.6849   -5.9220 C   0  0  0  0  0  0  0  0  0  0  0  0
   26.6976  -34.7456   -7.2325 N   0  0  0  0  0  0  0  0  0  0  0  0
   26.5955  -33.4582   -7.6225 C   0  0  0  0  0  0  0  0  0  0  0  0
   26.8634  -32.6306   -6.5974 N   0  0  0  0  0  0  0  0  0  0  0  0
   26.4616  -34.6524   -2.9654 C   0  0  0  0  0  0  0  0  0  0  0  0
   26.4512  -35.8955   -3.0601 O   0  0  0  0  0  0  0  0  0  0  0  0
   25.2763  -34.0071   -2.6716 O   0  0  0  0  0  0  0  0  0  0  0  0
  2  5  1  0
  2  1  1  6
  3  2  1  0
  4  3  1  0
  5  7  1  0
  6  5  2  0
  7  8  1  0
  8  9  1  1
  9 10  1  0
 10 11  1  0
 11 12  2  0
 11 15  1  0
 13 14  2  0
 13  8  1  0
 16 13  1  0
 17 16  1  0
 17 24  1  0
 17 18  1  6
 19 18  1  0
 19 23  1  0
 20 21  1  0
 20 19  2  0
 21 22  1  0
 22 23  2  0
 24 25  2  0
 24 26  1  0
M  END
$$$$
