CEH.pdb
     RDKit          3D

 26 26  0  0  1  0  0  0  0  0999 V2000
   21.7842  -13.2530  -16.1715 N   0  0  0  0  0  0  0  0  0  0  0  0
   21.3970  -12.1587  -17.0062 C   0  0  1  0  0  0  0  0  0  0  0  0
   20.2946  -12.5731  -17.9666 C   0  0  0  0  0  0  0  0  0  0  0  0
   20.9784  -13.9137  -18.9964 S   0  0  0  0  0  0  0  0  0  0  0  0
   20.8456  -11.0148  -16.1958 C   0  0  0  0  0  0  0  0  0  0  0  0
   19.9936  -11.2116  -15.2931 O   0  0  0  0  0  0  0  0  0  0  0  0
   21.2606   -9.6743  -16.4140 N   0  0  0  0  0  0  0  0  0  0  0  0
   20.6688   -8.5681  -15.6843 C   0  0  1  0  0  0  0  0  0  0  0  0
   21.7188   -7.5966  -15.1979 C   0  0  0  0  0  0  0  0  0  0  0  0
   21.1460   -6.4291  -14.4587 C   0  0  0  0  0  0  0  0  0  0  0  0
   22.2562   -5.5924  -13.9558 C   0  0  0  0  0  0  0  0  0  0  0  0
   22.0177   -4.5244  -13.3500 O   0  0  0  0  0  0  0  0  0  0  0  0
   19.6806   -7.8329  -16.4983 C   0  0  0  0  0  0  0  0  0  0  0  0
   19.6290   -7.8995  -17.7545 O   0  0  0  0  0  0  0  0  0  0  0  0
   23.5527   -5.9972  -14.1592 O   0  0  0  0  0  0  0  0  0  0  0  0
   18.7324   -7.0066  -15.8780 N   0  0  0  0  0  0  0  0  0  0  0  0
   17.5159   -6.5429  -16.4406 C   0  0  1  0  0  0  0  0  0  0  0  0
   16.5890   -7.5846  -16.9655 C   0  0  0  0  0  0  0  0  0  0  0  0
   15.4089   -7.0332  -17.6606 C   0  0  0  0  0  0  0  0  0  0  0  0
   15.3584   -5.9973  -18.5603 C   0  0  0  0  0  0  0  0  0  0  0  0
   14.0816   -5.7985  -18.9711 N   0  0  0  0  0  0  0  0  0  0  0  0
   13.3581   -6.7257  -18.3102 C   0  0  0  0  0  0  0  0  0  0  0  0
   14.1516   -7.4706  -17.5210 N   0  0  0  0  0  0  0  0  0  0  0  0
   16.7972   -5.7319  -15.4433 C   0  0  0  0  0  0  0  0  0  0  0  0
   16.8021   -6.0784  -14.2457 O   0  0  0  0  0  0  0  0  0  0  0  0
   16.1089   -4.5861  -15.7916 O   0  0  0  0  0  0  0  0  0  0  0  0
  2  5  1  0
  2  1  1  1
  3  2  1  0
  4  3  1  0
  5  7  1  0
  6  5  2  0
  7  8  1  0
  8  9  1  6
  9 10  1  0
 10 11  1  0
 11 12  2  0
 11 15  1  0
 13 14  2  0
 13  8  1  0
 16 13  1  0
 17 16  1  0
 17 24  1  0
 17 18  1  1
 19 18  1  0
 19 23  1  0
 20 21  1  0
 20 19  2  0
 21 22  1  0
 22 23  2  0
 24 25  2  0
 24 26  1  0
M  END
$$$$
