CEH.pdb
     RDKit          3D

 26 26  0  0  1  0  0  0  0  0999 V2000
   16.2955  -12.6985    3.8081 N   0  0  0  0  0  0  0  0  0  0  0  0
   16.2733  -14.1042    4.0681 C   0  0  1  0  0  0  0  0  0  0  0  0
   17.2653  -14.8356    3.1790 C   0  0  0  0  0  0  0  0  0  0  0  0
   18.8401  -13.9238    3.2965 S   0  0  0  0  0  0  0  0  0  0  0  0
   16.6720  -14.4089    5.4885 C   0  0  0  0  0  0  0  0  0  0  0  0
   17.1993  -13.5303    6.2163 O   0  0  0  0  0  0  0  0  0  0  0  0
   16.4715  -15.6919    6.0635 N   0  0  0  0  0  0  0  0  0  0  0  0
   16.7265  -15.9415    7.4703 C   0  0  1  0  0  0  0  0  0  0  0  0
   16.2242  -17.3020    7.8944 C   0  0  0  0  0  0  0  0  0  0  0  0
   16.1469  -17.4664    9.3792 C   0  0  0  0  0  0  0  0  0  0  0  0
   15.6210  -18.8144    9.6825 C   0  0  0  0  0  0  0  0  0  0  0  0
   15.2643  -19.5760    8.7567 O   0  0  0  0  0  0  0  0  0  0  0  0
   18.1621  -15.8402    7.7997 C   0  0  0  0  0  0  0  0  0  0  0  0
   19.0794  -16.2368    7.0341 O   0  0  0  0  0  0  0  0  0  0  0  0
   15.5271  -19.2242   10.9899 O   0  0  0  0  0  0  0  0  0  0  0  0
   18.5667  -15.2786    9.0194 N   0  0  0  0  0  0  0  0  0  0  0  0
   19.9001  -15.0940    9.4658 C   0  0  1  0  0  0  0  0  0  0  0  0
   20.2242  -13.7633   10.0525 C   0  0  0  0  0  0  0  0  0  0  0  0
   20.4995  -12.7210    9.0437 C   0  0  0  0  0  0  0  0  0  0  0  0
   20.5287  -12.8466    7.6767 C   0  0  0  0  0  0  0  0  0  0  0  0
   20.8193  -11.6521    7.1050 N   0  0  0  0  0  0  0  0  0  0  0  0
   20.9660  -10.8003    8.1408 C   0  0  0  0  0  0  0  0  0  0  0  0
   20.7747  -11.4382    9.3086 N   0  0  0  0  0  0  0  0  0  0  0  0
   20.2314  -16.1369   10.4514 C   0  0  0  0  0  0  0  0  0  0  0  0
   19.3712  -16.9811   10.7705 O   0  0  0  0  0  0  0  0  0  0  0  0
   21.4773  -16.2144   11.0428 O   0  0  0  0  0  0  0  0  0  0  0  0
  2  5  1  0
  2  1  1  1
  3  2  1  0
  4  3  1  0
  5  7  1  0
  6  5  2  0
  7  8  1  0
  8  9  1  6
  9 10  1  0
 10 11  1  0
 11 12  2  0
 11 15  1  0
 13 14  2  0
 13  8  1  0
 16 13  1  0
 17 16  1  0
 17 24  1  0
 17 18  1  1
 19 18  1  0
 19 23  1  0
 20 21  1  0
 20 19  2  0
 21 22  1  0
 22 23  2  0
 24 25  2  0
 24 26  1  0
M  END
$$$$
