CEH.pdb
     RDKit          3D

 26 26  0  0  1  0  0  0  0  0999 V2000
   26.6406  -11.4718  -17.6572 N   0  0  0  0  0  0  0  0  0  0  0  0
   25.3401  -11.3246  -17.0817 C   0  0  1  0  0  0  0  0  0  0  0  0
   25.1932  -12.1947  -15.8444 C   0  0  0  0  0  0  0  0  0  0  0  0
   23.4961  -11.9403  -15.2278 S   0  0  0  0  0  0  0  0  0  0  0  0
   25.0914   -9.9075  -16.6355 C   0  0  0  0  0  0  0  0  0  0  0  0
   25.9402   -9.2863  -15.9475 O   0  0  0  0  0  0  0  0  0  0  0  0
   23.8968   -9.2161  -16.9696 N   0  0  0  0  0  0  0  0  0  0  0  0
   23.6980   -7.8249  -16.6069 C   0  0  1  0  0  0  0  0  0  0  0  0
   23.5253   -6.9505  -17.8270 C   0  0  0  0  0  0  0  0  0  0  0  0
   23.4423   -5.4928  -17.5019 C   0  0  0  0  0  0  0  0  0  0  0  0
   23.2507   -4.7350  -18.7567 C   0  0  0  0  0  0  0  0  0  0  0  0
   23.1570   -3.4880  -18.7330 O   0  0  0  0  0  0  0  0  0  0  0  0
   22.5296   -7.6444  -15.7226 C   0  0  0  0  0  0  0  0  0  0  0  0
   21.5763   -8.4640  -15.6563 O   0  0  0  0  0  0  0  0  0  0  0  0
   23.1763   -5.4115  -19.9495 O   0  0  0  0  0  0  0  0  0  0  0  0
   22.4392   -6.5143  -14.8972 N   0  0  0  0  0  0  0  0  0  0  0  0
   21.4085   -6.2252  -13.9669 C   0  0  1  0  0  0  0  0  0  0  0  0
   21.3690   -7.0678  -12.7387 C   0  0  0  0  0  0  0  0  0  0  0  0
   20.2152   -6.7853  -11.8620 C   0  0  0  0  0  0  0  0  0  0  0  0
   19.2624   -5.8061  -11.9986 C   0  0  0  0  0  0  0  0  0  0  0  0
   18.3685   -5.8804  -10.9819 N   0  0  0  0  0  0  0  0  0  0  0  0
   18.7898   -6.9160  -10.2269 C   0  0  0  0  0  0  0  0  0  0  0  0
   19.8998   -7.4634  -10.7518 N   0  0  0  0  0  0  0  0  0  0  0  0
   21.4984   -4.8111  -13.5656 C   0  0  0  0  0  0  0  0  0  0  0  0
   22.5906   -4.2150  -13.6440 O   0  0  0  0  0  0  0  0  0  0  0  0
   20.4020   -4.1124  -13.0993 O   0  0  0  0  0  0  0  0  0  0  0  0
  2  5  1  0
  2  1  1  1
  3  2  1  0
  4  3  1  0
  5  7  1  0
  6  5  2  0
  7  8  1  0
  8  9  1  6
  9 10  1  0
 10 11  1  0
 11 12  2  0
 11 15  1  0
 13 14  2  0
 13  8  1  0
 16 13  1  0
 17 16  1  0
 17 24  1  0
 17 18  1  1
 19 18  1  0
 19 23  1  0
 20 21  1  0
 20 19  2  0
 21 22  1  0
 22 23  2  0
 24 25  2  0
 24 26  1  0
M  END
$$$$
