CEH.pdb
     RDKit          3D

 26 26  0  0  1  0  0  0  0  0999 V2000
   26.6907  -21.1637  -15.5252 N   0  0  0  0  0  0  0  0  0  0  0  0
   26.0215  -20.1642  -14.7524 C   0  0  1  0  0  0  0  0  0  0  0  0
   26.6353  -18.7943  -14.9898 C   0  0  0  0  0  0  0  0  0  0  0  0
   28.3440  -18.8731  -14.3580 S   0  0  0  0  0  0  0  0  0  0  0  0
   24.5693  -20.0505  -15.1363 C   0  0  0  0  0  0  0  0  0  0  0  0
   24.2207  -19.9892  -16.3423 O   0  0  0  0  0  0  0  0  0  0  0  0
   23.5381  -20.0079  -14.1607 N   0  0  0  0  0  0  0  0  0  0  0  0
   22.1366  -19.9997  -14.5374 C   0  0  1  0  0  0  0  0  0  0  0  0
   21.3588  -21.0731  -13.8121 C   0  0  0  0  0  0  0  0  0  0  0  0
   19.9509  -21.2122  -14.2977 C   0  0  0  0  0  0  0  0  0  0  0  0
   19.3275  -22.3721  -13.6256 C   0  0  0  0  0  0  0  0  0  0  0  0
   19.9775  -23.0454  -12.7959 O   0  0  0  0  0  0  0  0  0  0  0  0
   21.5006  -18.6930  -14.2775 C   0  0  0  0  0  0  0  0  0  0  0  0
   21.4997  -18.1338  -13.1495 O   0  0  0  0  0  0  0  0  0  0  0  0
   18.0278  -22.7047  -13.9196 O   0  0  0  0  0  0  0  0  0  0  0  0
   20.8536  -18.0060  -15.3148 N   0  0  0  0  0  0  0  0  0  0  0  0
   20.1803  -16.7617  -15.2158 C   0  0  1  0  0  0  0  0  0  0  0  0
   20.1781  -15.9104  -16.4386 C   0  0  0  0  0  0  0  0  0  0  0  0
   19.5560  -14.5864  -16.2388 C   0  0  0  0  0  0  0  0  0  0  0  0
   19.0585  -14.0464  -15.0786 C   0  0  0  0  0  0  0  0  0  0  0  0
   18.5708  -12.8036  -15.3145 N   0  0  0  0  0  0  0  0  0  0  0  0
   18.7781  -12.5957  -16.6312 C   0  0  0  0  0  0  0  0  0  0  0  0
   19.3702  -13.6647  -17.1915 N   0  0  0  0  0  0  0  0  0  0  0  0
   18.7865  -16.9949  -14.8014 C   0  0  0  0  0  0  0  0  0  0  0  0
   18.1213  -17.8956  -15.3498 O   0  0  0  0  0  0  0  0  0  0  0  0
   18.1818  -16.2418  -13.8140 O   0  0  0  0  0  0  0  0  0  0  0  0
  2  5  1  0
  2  1  1  6
  3  2  1  0
  4  3  1  0
  5  7  1  0
  6  5  2  0
  7  8  1  0
  8  9  1  1
  9 10  1  0
 10 11  1  0
 11 12  2  0
 11 15  1  0
 13 14  2  0
 13  8  1  0
 16 13  1  0
 17 16  1  0
 17 24  1  0
 17 18  1  6
 19 18  1  0
 19 23  1  0
 20 21  1  0
 20 19  2  0
 21 22  1  0
 22 23  2  0
 24 25  2  0
 24 26  1  0
M  END
$$$$
