CEH.pdb
     RDKit          3D

 26 26  0  0  1  0  0  0  0  0999 V2000
   18.6062  -13.6641  -17.8047 N   0  0  0  0  0  0  0  0  0  0  0  0
   18.7967  -12.9903  -16.5581 C   0  0  1  0  0  0  0  0  0  0  0  0
   20.1275  -13.3738  -15.9325 C   0  0  0  0  0  0  0  0  0  0  0  0
   19.9361  -15.0749  -15.3041 S   0  0  0  0  0  0  0  0  0  0  0  0
   18.8280  -11.4951  -16.7383 C   0  0  0  0  0  0  0  0  0  0  0  0
   19.4788  -10.9688  -17.6759 O   0  0  0  0  0  0  0  0  0  0  0  0
   18.1293  -10.6209  -15.8639 N   0  0  0  0  0  0  0  0  0  0  0  0
   18.0264   -9.1988  -16.1350 C   0  0  1  0  0  0  0  0  0  0  0  0
   16.6826   -8.6482  -15.7176 C   0  0  0  0  0  0  0  0  0  0  0  0
   15.5577   -9.1150  -16.5859 C   0  0  0  0  0  0  0  0  0  0  0  0
   14.2920   -8.5515  -16.0699 C   0  0  0  0  0  0  0  0  0  0  0  0
   13.6809   -7.6738  -16.7185 O   0  0  0  0  0  0  0  0  0  0  0  0
   19.0880   -8.4275  -15.4584 C   0  0  0  0  0  0  0  0  0  0  0  0
   19.3585   -8.5453  -14.2344 O   0  0  0  0  0  0  0  0  0  0  0  0
   13.7921   -8.9997  -14.8719 O   0  0  0  0  0  0  0  0  0  0  0  0
   19.8582   -7.5054  -16.1816 N   0  0  0  0  0  0  0  0  0  0  0  0
   20.9085   -6.6978  -15.6755 C   0  0  1  0  0  0  0  0  0  0  0  0
   22.2291   -6.8270  -16.3532 C   0  0  0  0  0  0  0  0  0  0  0  0
   22.8428   -8.1619  -16.2076 C   0  0  0  0  0  0  0  0  0  0  0  0
   22.3890   -9.2318  -15.4764 C   0  0  0  0  0  0  0  0  0  0  0  0
   23.2412  -10.2786  -15.6039 N   0  0  0  0  0  0  0  0  0  0  0  0
   24.2172   -9.8315  -16.4208 C   0  0  0  0  0  0  0  0  0  0  0  0
   23.9823   -8.5594  -16.7866 N   0  0  0  0  0  0  0  0  0  0  0  0
   20.4960   -5.2845  -15.7127 C   0  0  0  0  0  0  0  0  0  0  0  0
   21.2114   -4.4177  -15.1730 O   0  0  0  0  0  0  0  0  0  0  0  0
   19.3298   -4.8795  -16.3322 O   0  0  0  0  0  0  0  0  0  0  0  0
  2  5  1  0
  2  1  1  6
  3  2  1  0
  4  3  1  0
  5  7  1  0
  6  5  2  0
  7  8  1  0
  8  9  1  1
  9 10  1  0
 10 11  1  0
 11 12  2  0
 11 15  1  0
 13 14  2  0
 13  8  1  0
 16 13  1  0
 17 16  1  0
 17 24  1  0
 17 18  1  6
 19 18  1  0
 19 23  1  0
 20 21  1  0
 20 19  2  0
 21 22  1  0
 22 23  2  0
 24 25  2  0
 24 26  1  0
M  END
$$$$
