CEH.pdb
     RDKit          3D

 26 26  0  0  1  0  0  0  0  0999 V2000
   22.5042  -16.2678  -17.8693 N   0  0  0  0  0  0  0  0  0  0  0  0
   22.1281  -15.4922  -16.7286 C   0  0  1  0  0  0  0  0  0  0  0  0
   23.1245  -15.6756  -15.5960 C   0  0  0  0  0  0  0  0  0  0  0  0
   22.8786  -17.3649  -14.9550 S   0  0  0  0  0  0  0  0  0  0  0  0
   22.1111  -14.0193  -17.0442 C   0  0  0  0  0  0  0  0  0  0  0  0
   23.0457  -13.4847  -17.6925 O   0  0  0  0  0  0  0  0  0  0  0  0
   21.0471  -13.1764  -16.6268 N   0  0  0  0  0  0  0  0  0  0  0  0
   20.9778  -11.7844  -17.0316 C   0  0  1  0  0  0  0  0  0  0  0  0
   19.5529  -11.3466  -17.2784 C   0  0  0  0  0  0  0  0  0  0  0  0
   19.4440   -9.9349  -17.7607 C   0  0  0  0  0  0  0  0  0  0  0  0
   18.0140   -9.5928  -17.9144 C   0  0  0  0  0  0  0  0  0  0  0  0
   17.5873   -8.4788  -17.5385 O   0  0  0  0  0  0  0  0  0  0  0  0
   21.5855  -10.8854  -16.0305 C   0  0  0  0  0  0  0  0  0  0  0  0
   21.4882  -11.0635  -14.7880 O   0  0  0  0  0  0  0  0  0  0  0  0
   17.1569  -10.5087  -18.4737 O   0  0  0  0  0  0  0  0  0  0  0  0
   22.3178   -9.7633  -16.4444 N   0  0  0  0  0  0  0  0  0  0  0  0
   22.9148   -8.7859  -15.6079 C   0  0  1  0  0  0  0  0  0  0  0  0
   24.3405   -8.4558  -15.8878 C   0  0  0  0  0  0  0  0  0  0  0  0
   25.2737   -9.5633  -15.6003 C   0  0  0  0  0  0  0  0  0  0  0  0
   25.1798  -10.5228  -14.6227 C   0  0  0  0  0  0  0  0  0  0  0  0
   26.2417  -11.3631  -14.6909 N   0  0  0  0  0  0  0  0  0  0  0  0
   26.9808  -10.9024  -15.7211 C   0  0  0  0  0  0  0  0  0  0  0  0
   26.4030   -9.8203  -16.2713 N   0  0  0  0  0  0  0  0  0  0  0  0
   22.1233   -7.5455  -15.6682 C   0  0  0  0  0  0  0  0  0  0  0  0
   21.1859   -7.4498  -16.4846 O   0  0  0  0  0  0  0  0  0  0  0  0
   22.3855   -6.4702  -14.8419 O   0  0  0  0  0  0  0  0  0  0  0  0
  2  5  1  0
  2  1  1  6
  3  2  1  0
  4  3  1  0
  5  7  1  0
  6  5  2  0
  7  8  1  0
  8  9  1  1
  9 10  1  0
 10 11  1  0
 11 12  2  0
 11 15  1  0
 13 14  2  0
 13  8  1  0
 16 13  1  0
 17 16  1  0
 17 24  1  0
 17 18  1  6
 19 18  1  0
 19 23  1  0
 20 21  1  0
 20 19  2  0
 21 22  1  0
 22 23  2  0
 24 25  2  0
 24 26  1  0
M  END
$$$$
