CEH.pdb
     RDKit          3D

 26 26  0  0  1  0  0  0  0  0999 V2000
   19.9285  -15.8274  -16.4385 N   0  0  0  0  0  0  0  0  0  0  0  0
   20.2342  -14.7092  -17.2753 C   0  0  1  0  0  0  0  0  0  0  0  0
   18.9647  -14.0822  -17.8274 C   0  0  0  0  0  0  0  0  0  0  0  0
   18.1381  -15.3690  -18.8203 S   0  0  0  0  0  0  0  0  0  0  0  0
   20.9443  -13.6242  -16.5087 C   0  0  0  0  0  0  0  0  0  0  0  0
   20.4698  -13.1713  -15.4367 O   0  0  0  0  0  0  0  0  0  0  0  0
   22.1714  -13.0694  -16.9595 N   0  0  0  0  0  0  0  0  0  0  0  0
   22.8405  -12.0103  -16.2266 C   0  0  1  0  0  0  0  0  0  0  0  0
   24.3405  -12.0781  -16.3954 C   0  0  0  0  0  0  0  0  0  0  0  0
   25.0737  -11.0675  -15.5715 C   0  0  0  0  0  0  0  0  0  0  0  0
   26.5203  -11.1813  -15.8544 C   0  0  0  0  0  0  0  0  0  0  0  0
   27.0023  -12.2641  -16.2537 O   0  0  0  0  0  0  0  0  0  0  0  0
   22.3749  -10.6714  -16.6390 C   0  0  0  0  0  0  0  0  0  0  0  0
   22.1586  -10.3505  -17.8371 O   0  0  0  0  0  0  0  0  0  0  0  0
   27.3314  -10.0876  -15.6751 O   0  0  0  0  0  0  0  0  0  0  0  0
   22.1495   -9.6769  -15.6764 N   0  0  0  0  0  0  0  0  0  0  0  0
   21.6004   -8.3888  -15.9018 C   0  0  1  0  0  0  0  0  0  0  0  0
   20.1902   -8.3443  -16.3807 C   0  0  0  0  0  0  0  0  0  0  0  0
   19.7132   -6.9830  -16.6959 C   0  0  0  0  0  0  0  0  0  0  0  0
   19.2093   -6.0379  -15.8367 C   0  0  0  0  0  0  0  0  0  0  0  0
   18.8834   -4.9132  -16.5203 N   0  0  0  0  0  0  0  0  0  0  0  0
   19.1953   -5.1869  -17.8039 C   0  0  0  0  0  0  0  0  0  0  0  0
   19.6946   -6.4302  -17.9147 N   0  0  0  0  0  0  0  0  0  0  0  0
   21.7042   -7.5932  -14.6669 C   0  0  0  0  0  0  0  0  0  0  0  0
   22.0773   -8.1391  -13.6099 O   0  0  0  0  0  0  0  0  0  0  0  0
   21.3989   -6.2465  -14.6372 O   0  0  0  0  0  0  0  0  0  0  0  0
  2  5  1  0
  2  1  1  1
  3  2  1  0
  4  3  1  0
  5  7  1  0
  6  5  2  0
  7  8  1  0
  8  9  1  6
  9 10  1  0
 10 11  1  0
 11 12  2  0
 11 15  1  0
 13 14  2  0
 13  8  1  0
 16 13  1  0
 17 16  1  0
 17 24  1  0
 17 18  1  1
 19 18  1  0
 19 23  1  0
 20 21  1  0
 20 19  2  0
 21 22  1  0
 22 23  2  0
 24 25  2  0
 24 26  1  0
M  END
$$$$
