CEH.pdb
     RDKit          3D

 26 26  0  0  1  0  0  0  0  0999 V2000
   12.8472  -13.6345  -11.0975 N   0  0  0  0  0  0  0  0  0  0  0  0
   12.7367  -12.2531  -11.4491 C   0  0  1  0  0  0  0  0  0  0  0  0
   12.1105  -11.4543  -10.3181 C   0  0  0  0  0  0  0  0  0  0  0  0
   10.4207  -12.1029  -10.0964 S   0  0  0  0  0  0  0  0  0  0  0  0
   14.0883  -11.6389  -11.7044 C   0  0  0  0  0  0  0  0  0  0  0  0
   15.0130  -11.7328  -10.8585 O   0  0  0  0  0  0  0  0  0  0  0  0
   14.3753  -10.9323  -12.9024 N   0  0  0  0  0  0  0  0  0  0  0  0
   15.6825  -10.3506  -13.1460 C   0  0  1  0  0  0  0  0  0  0  0  0
   16.0958  -10.4960  -14.5921 C   0  0  0  0  0  0  0  0  0  0  0  0
   16.4271  -11.9041  -14.9729 C   0  0  0  0  0  0  0  0  0  0  0  0
   16.7224  -11.9492  -16.4207 C   0  0  0  0  0  0  0  0  0  0  0  0
   17.0637  -13.0237  -16.9623 O   0  0  0  0  0  0  0  0  0  0  0  0
   15.7302   -8.9215  -12.7785 C   0  0  0  0  0  0  0  0  0  0  0  0
   14.7678   -8.1283  -12.9504 O   0  0  0  0  0  0  0  0  0  0  0  0
   16.6190  -10.8010  -17.1671 O   0  0  0  0  0  0  0  0  0  0  0  0
   16.8899   -8.3803  -12.2052 N   0  0  0  0  0  0  0  0  0  0  0  0
   17.0866   -7.0352  -11.8012 C   0  0  1  0  0  0  0  0  0  0  0  0
   17.3080   -6.8060  -10.3457 C   0  0  0  0  0  0  0  0  0  0  0  0
   16.0994   -7.0092   -9.5223 C   0  0  0  0  0  0  0  0  0  0  0  0
   14.8230   -7.2939   -9.9405 C   0  0  0  0  0  0  0  0  0  0  0  0
   13.9964   -7.4058   -8.8716 N   0  0  0  0  0  0  0  0  0  0  0  0
   14.7859   -7.1857   -7.8002 C   0  0  0  0  0  0  0  0  0  0  0  0
   16.0514   -6.9468   -8.1861 N   0  0  0  0  0  0  0  0  0  0  0  0
   18.2219   -6.4650  -12.5461 C   0  0  0  0  0  0  0  0  0  0  0  0
   18.9202   -7.2033  -13.2683 O   0  0  0  0  0  0  0  0  0  0  0  0
   18.5450   -5.1241  -12.4723 O   0  0  0  0  0  0  0  0  0  0  0  0
  2  5  1  0
  2  1  1  1
  3  2  1  0
  4  3  1  0
  5  7  1  0
  6  5  2  0
  7  8  1  0
  8  9  1  6
  9 10  1  0
 10 11  1  0
 11 12  2  0
 11 15  1  0
 13 14  2  0
 13  8  1  0
 16 13  1  0
 17 16  1  0
 17 24  1  0
 17 18  1  1
 19 18  1  0
 19 23  1  0
 20 21  1  0
 20 19  2  0
 21 22  1  0
 22 23  2  0
 24 25  2  0
 24 26  1  0
M  END
$$$$
