CEH.pdb
     RDKit          3D

 26 26  0  0  1  0  0  0  0  0999 V2000
   38.7802  -33.0691   -0.0287 N   0  0  0  0  0  0  0  0  0  0  0  0
   38.0800  -33.9786   -0.8813 C   0  0  1  0  0  0  0  0  0  0  0  0
   38.5205  -35.4102   -0.6247 C   0  0  0  0  0  0  0  0  0  0  0  0
   38.2956  -35.7120    1.1596 S   0  0  0  0  0  0  0  0  0  0  0  0
   36.5955  -33.9398   -0.6287 C   0  0  0  0  0  0  0  0  0  0  0  0
   36.0881  -33.0673    0.1202 O   0  0  0  0  0  0  0  0  0  0  0  0
   35.7106  -34.8797   -1.2206 N   0  0  0  0  0  0  0  0  0  0  0  0
   34.2709  -34.7575   -1.0837 C   0  0  1  0  0  0  0  0  0  0  0  0
   33.5630  -35.0180   -2.3929 C   0  0  0  0  0  0  0  0  0  0  0  0
   32.0759  -34.8889   -2.2960 C   0  0  0  0  0  0  0  0  0  0  0  0
   31.4984  -35.0017   -3.6523 C   0  0  0  0  0  0  0  0  0  0  0  0
   32.2395  -35.2053   -4.6391 O   0  0  0  0  0  0  0  0  0  0  0  0
   33.7318  -35.6749   -0.0602 C   0  0  0  0  0  0  0  0  0  0  0  0
   34.1114  -36.8681    0.0712 O   0  0  0  0  0  0  0  0  0  0  0  0
   30.1408  -34.8810   -3.8204 O   0  0  0  0  0  0  0  0  0  0  0  0
   32.7443  -35.2326    0.8318 N   0  0  0  0  0  0  0  0  0  0  0  0
   32.1854  -35.9669    1.9087 C   0  0  1  0  0  0  0  0  0  0  0  0
   33.1260  -36.3798    2.9879 C   0  0  0  0  0  0  0  0  0  0  0  0
   33.6672  -35.2493    3.7681 C   0  0  0  0  0  0  0  0  0  0  0  0
   33.1775  -33.9701    3.8643 C   0  0  0  0  0  0  0  0  0  0  0  0
   33.9642  -33.2303    4.6841 N   0  0  0  0  0  0  0  0  0  0  0  0
   34.9367  -34.0752    5.0842 C   0  0  0  0  0  0  0  0  0  0  0  0
   34.7626  -35.2905    4.5362 N   0  0  0  0  0  0  0  0  0  0  0  0
   31.0896  -35.1887    2.5108 C   0  0  0  0  0  0  0  0  0  0  0  0
   30.7805  -34.0815    2.0282 O   0  0  0  0  0  0  0  0  0  0  0  0
   30.3828  -35.6474    3.6052 O   0  0  0  0  0  0  0  0  0  0  0  0
  2  5  1  0
  2  1  1  1
  3  2  1  0
  4  3  1  0
  5  7  1  0
  6  5  2  0
  7  8  1  0
  8  9  1  6
  9 10  1  0
 10 11  1  0
 11 12  2  0
 11 15  1  0
 13 14  2  0
 13  8  1  0
 16 13  1  0
 17 16  1  0
 17 24  1  0
 17 18  1  1
 19 18  1  0
 19 23  1  0
 20 21  1  0
 20 19  2  0
 21 22  1  0
 22 23  2  0
 24 25  2  0
 24 26  1  0
M  END
$$$$
