CEH.pdb
     RDKit          3D

 26 26  0  0  1  0  0  0  0  0999 V2000
   19.6438  -13.1779  -16.0802 N   0  0  0  0  0  0  0  0  0  0  0  0
   18.9609  -12.0833  -16.6964 C   0  0  1  0  0  0  0  0  0  0  0  0
   17.4644  -12.1681  -16.4463 C   0  0  0  0  0  0  0  0  0  0  0  0
   16.8572  -13.5975  -17.4020 S   0  0  0  0  0  0  0  0  0  0  0  0
   19.4115  -10.7624  -16.1294 C   0  0  0  0  0  0  0  0  0  0  0  0
   19.1483  -10.4430  -14.9427 O   0  0  0  0  0  0  0  0  0  0  0  0
   20.1476   -9.8271  -16.9042 N   0  0  0  0  0  0  0  0  0  0  0  0
   20.5951   -8.5643  -16.3461 C   0  0  1  0  0  0  0  0  0  0  0  0
   21.9971   -8.2231  -16.7943 C   0  0  0  0  0  0  0  0  0  0  0  0
   23.0467   -9.0681  -16.1448 C   0  0  0  0  0  0  0  0  0  0  0  0
   24.3549   -8.7602  -16.7609 C   0  0  0  0  0  0  0  0  0  0  0  0
   24.9010   -7.6525  -16.5628 O   0  0  0  0  0  0  0  0  0  0  0  0
   19.6958   -7.4500  -16.7057 C   0  0  0  0  0  0  0  0  0  0  0  0
   18.9467   -7.4616  -17.7176 O   0  0  0  0  0  0  0  0  0  0  0  0
   24.9662   -9.7007  -17.5532 O   0  0  0  0  0  0  0  0  0  0  0  0
   19.6435   -6.3006  -15.9040 N   0  0  0  0  0  0  0  0  0  0  0  0
   18.7610   -5.2010  -16.0566 C   0  0  1  0  0  0  0  0  0  0  0  0
   17.3044   -5.5145  -16.0498 C   0  0  0  0  0  0  0  0  0  0  0  0
   16.4409   -4.3269  -16.2039 C   0  0  0  0  0  0  0  0  0  0  0  0
   16.6613   -3.2083  -16.9690 C   0  0  0  0  0  0  0  0  0  0  0  0
   15.6259   -2.3428  -16.8384 N   0  0  0  0  0  0  0  0  0  0  0  0
   14.7748   -2.9491  -15.9852 C   0  0  0  0  0  0  0  0  0  0  0  0
   15.2603   -4.1424  -15.6009 N   0  0  0  0  0  0  0  0  0  0  0  0
   19.0344   -4.2085  -15.0035 C   0  0  0  0  0  0  0  0  0  0  0  0
   19.8504   -4.4758  -14.0996 O   0  0  0  0  0  0  0  0  0  0  0  0
   18.4111   -2.9761  -14.9810 O   0  0  0  0  0  0  0  0  0  0  0  0
  2  5  1  0
  2  1  1  1
  3  2  1  0
  4  3  1  0
  5  7  1  0
  6  5  2  0
  7  8  1  0
  8  9  1  6
  9 10  1  0
 10 11  1  0
 11 12  2  0
 11 15  1  0
 13 14  2  0
 13  8  1  0
 16 13  1  0
 17 16  1  0
 17 24  1  0
 17 18  1  1
 19 18  1  0
 19 23  1  0
 20 21  1  0
 20 19  2  0
 21 22  1  0
 22 23  2  0
 24 25  2  0
 24 26  1  0
M  END
$$$$
