CEH.pdb
     RDKit          3D

 26 26  0  0  1  0  0  0  0  0999 V2000
   25.6287  -14.8198  -17.6942 N   0  0  0  0  0  0  0  0  0  0  0  0
   24.8937  -14.3092  -16.5792 C   0  0  1  0  0  0  0  0  0  0  0  0
   25.8244  -13.6630  -15.5666 C   0  0  0  0  0  0  0  0  0  0  0  0
   26.8172  -15.0086  -14.8393 S   0  0  0  0  0  0  0  0  0  0  0  0
   23.9201  -13.2406  -17.0028 C   0  0  0  0  0  0  0  0  0  0  0  0
   24.2130  -12.4190  -17.9077 O   0  0  0  0  0  0  0  0  0  0  0  0
   22.6388  -13.1149  -16.4035 N   0  0  0  0  0  0  0  0  0  0  0  0
   21.6802  -12.1261  -16.8614 C   0  0  1  0  0  0  0  0  0  0  0  0
   20.2808  -12.6929  -16.9206 C   0  0  0  0  0  0  0  0  0  0  0  0
   19.8076  -13.2358  -15.6096 C   0  0  0  0  0  0  0  0  0  0  0  0
   18.4383  -13.7663  -15.7799 C   0  0  0  0  0  0  0  0  0  0  0  0
   18.2476  -14.8329  -16.4046 O   0  0  0  0  0  0  0  0  0  0  0  0
   21.6713  -10.9244  -16.0038 C   0  0  0  0  0  0  0  0  0  0  0  0
   21.9764  -10.9412  -14.7824 O   0  0  0  0  0  0  0  0  0  0  0  0
   17.3763  -13.0782  -15.2463 O   0  0  0  0  0  0  0  0  0  0  0  0
   21.3103   -9.6797  -16.5395 N   0  0  0  0  0  0  0  0  0  0  0  0
   21.3106   -8.4338  -15.8619 C   0  0  1  0  0  0  0  0  0  0  0  0
   22.3462   -7.4497  -16.2851 C   0  0  0  0  0  0  0  0  0  0  0  0
   22.2701   -6.1621  -15.5666 C   0  0  0  0  0  0  0  0  0  0  0  0
   22.7080   -5.8680  -14.2989 C   0  0  0  0  0  0  0  0  0  0  0  0
   22.4528   -4.5686  -14.0074 N   0  0  0  0  0  0  0  0  0  0  0  0
   21.8551   -4.0779  -15.1127 C   0  0  0  0  0  0  0  0  0  0  0  0
   21.7429   -5.0321  -16.0531 N   0  0  0  0  0  0  0  0  0  0  0  0
   19.9840   -7.8082  -15.9943 C   0  0  0  0  0  0  0  0  0  0  0  0
   19.3117   -7.9980  -17.0270 O   0  0  0  0  0  0  0  0  0  0  0  0
   19.4508   -7.0083  -15.0025 O   0  0  0  0  0  0  0  0  0  0  0  0
  2  5  1  0
  2  1  1  6
  3  2  1  0
  4  3  1  0
  5  7  1  0
  6  5  2  0
  7  8  1  0
  8  9  1  1
  9 10  1  0
 10 11  1  0
 11 12  2  0
 11 15  1  0
 13 14  2  0
 13  8  1  0
 16 13  1  0
 17 16  1  0
 17 24  1  0
 17 18  1  6
 19 18  1  0
 19 23  1  0
 20 21  1  0
 20 19  2  0
 21 22  1  0
 22 23  2  0
 24 25  2  0
 24 26  1  0
M  END
$$$$
