CEH.pdb
     RDKit          3D

 26 26  0  0  1  0  0  0  0  0999 V2000
   37.5777  -24.7794    4.7737 N   0  0  0  0  0  0  0  0  0  0  0  0
   37.3179  -24.3754    6.1204 C   0  0  1  0  0  0  0  0  0  0  0  0
   37.5193  -22.8782    6.2855 C   0  0  0  0  0  0  0  0  0  0  0  0
   39.3161  -22.5813    6.1923 S   0  0  0  0  0  0  0  0  0  0  0  0
   35.8921  -24.6577    6.5159 C   0  0  0  0  0  0  0  0  0  0  0  0
   34.9400  -24.3967    5.7381 O   0  0  0  0  0  0  0  0  0  0  0  0
   35.5630  -25.2267    7.7748 N   0  0  0  0  0  0  0  0  0  0  0  0
   34.1999  -25.5981    8.1070 C   0  0  1  0  0  0  0  0  0  0  0  0
   34.1056  -27.0435    8.5369 C   0  0  0  0  0  0  0  0  0  0  0  0
   34.3677  -28.0087    7.4246 C   0  0  0  0  0  0  0  0  0  0  0  0
   34.1898  -29.3845    7.9357 C   0  0  0  0  0  0  0  0  0  0  0  0
   34.8778  -29.7950    8.8962 O   0  0  0  0  0  0  0  0  0  0  0  0
   33.6379  -24.7464    9.1740 C   0  0  0  0  0  0  0  0  0  0  0  0
   34.3445  -24.1287   10.0132 O   0  0  0  0  0  0  0  0  0  0  0  0
   33.2624  -30.2088    7.3472 O   0  0  0  0  0  0  0  0  0  0  0  0
   32.2493  -24.5908    9.2927 N   0  0  0  0  0  0  0  0  0  0  0  0
   31.5672  -23.7291   10.1892 C   0  0  1  0  0  0  0  0  0  0  0  0
   30.3392  -23.0668    9.6664 C   0  0  0  0  0  0  0  0  0  0  0  0
   30.6072  -21.8141    8.9324 C   0  0  0  0  0  0  0  0  0  0  0  0
   31.8038  -21.1593    8.7754 C   0  0  0  0  0  0  0  0  0  0  0  0
   31.6285  -20.0402    8.0303 N   0  0  0  0  0  0  0  0  0  0  0  0
   30.3118  -20.0235    7.7371 C   0  0  0  0  0  0  0  0  0  0  0  0
   29.6933  -21.0880    8.2772 N   0  0  0  0  0  0  0  0  0  0  0  0
   31.2169  -24.4758   11.4093 C   0  0  0  0  0  0  0  0  0  0  0  0
   31.4100  -25.7066   11.4572 O   0  0  0  0  0  0  0  0  0  0  0  0
   30.6750  -23.8533   12.5168 O   0  0  0  0  0  0  0  0  0  0  0  0
  2  5  1  0
  2  1  1  6
  3  2  1  0
  4  3  1  0
  5  7  1  0
  6  5  2  0
  7  8  1  0
  8  9  1  1
  9 10  1  0
 10 11  1  0
 11 12  2  0
 11 15  1  0
 13 14  2  0
 13  8  1  0
 16 13  1  0
 17 16  1  0
 17 24  1  0
 17 18  1  6
 19 18  1  0
 19 23  1  0
 20 21  1  0
 20 19  2  0
 21 22  1  0
 22 23  2  0
 24 25  2  0
 24 26  1  0
M  END
$$$$
