HYR.pdb
     RDKit          3D

 34 35  0  0  1  0  0  0  0  0999 V2000
   18.6957  -12.2774  -20.3003 N   0  0  0  0  0  0  0  0  0  0  0  0
   18.6326  -10.8861  -19.8949 C   0  0  1  0  0  0  0  0  0  0  0  0
   17.1786  -10.5139  -19.7732 C   0  0  0  0  0  0  0  0  0  0  0  0
   16.6154  -10.4704  -21.1398 C   0  0  0  0  0  0  0  0  0  0  0  0
   15.8443  -11.4211  -21.7586 C   0  0  0  0  0  0  0  0  0  0  0  0
   15.5345  -10.9877  -23.0179 N   0  0  0  0  0  0  0  0  0  0  0  0
   16.1080   -9.7860  -23.1712 C   0  0  0  0  0  0  0  0  0  0  0  0
   16.7604   -9.4775  -22.0331 N   0  0  0  0  0  0  0  0  0  0  0  0
   19.3855  -10.7578  -18.6184 C   0  0  0  0  0  0  0  0  0  0  0  0
   19.1813  -11.4932  -17.6181 O   0  0  0  0  0  0  0  0  0  0  0  0
   26.1953   -8.6979  -13.3572 O   0  0  0  0  0  0  0  0  0  0  0  0
   25.3123   -8.8625  -14.4203 C   0  0  0  0  0  0  0  0  0  0  0  0
   24.9847  -10.1226  -14.8770 C   0  0  0  0  0  0  0  0  0  0  0  0
   24.1070  -10.2758  -15.9337 C   0  0  0  0  0  0  0  0  0  0  0  0
   23.5420   -9.1842  -16.5522 C   0  0  0  0  0  0  0  0  0  0  0  0
   22.6151   -9.3044  -17.6737 C   0  0  0  0  0  0  0  0  0  0  0  0
   21.1773   -9.5589  -17.2785 C   0  0  2  0  0  0  0  0  0  0  0  0
   20.4083   -9.7525  -18.4826 N   0  0  0  0  0  0  0  0  0  0  0  0
   20.6100   -8.5219  -16.3976 C   0  0  0  0  0  0  0  0  0  0  0  0
   20.1800   -7.4208  -16.8284 O   0  0  0  0  0  0  0  0  0  0  0  0
   23.8780   -7.9335  -16.0856 C   0  0  0  0  0  0  0  0  0  0  0  0
   24.7540   -7.7597  -15.0300 C   0  0  0  0  0  0  0  0  0  0  0  0
   15.9669   -9.0152   -8.8549 N   0  0  0  0  0  0  0  0  0  0  0  0
   16.1010   -7.6301   -9.1251 C   0  0  0  0  0  0  0  0  0  0  0  0
   15.5454   -6.7142   -8.4047 N   0  0  0  0  0  0  0  0  0  0  0  0
   16.8653   -7.1341  -10.2189 N   0  0  0  0  0  0  0  0  0  0  0  0
   17.6951   -7.8804  -11.0582 C   0  0  0  0  0  0  0  0  0  0  0  0
   18.4429   -7.2039  -12.1370 C   0  0  0  0  0  0  0  0  0  0  0  0
   19.1431   -8.2538  -12.9586 C   0  0  0  0  0  0  0  0  0  0  0  0
   19.8742   -7.7158  -14.1343 C   0  0  2  0  0  0  0  0  0  0  0  0
   20.5079   -8.6976  -14.9706 N   0  0  0  0  0  0  0  0  0  0  0  0
   20.9158   -6.7530  -13.6230 C   0  0  0  0  0  0  0  0  0  0  0  0
   20.5426   -5.4752  -13.2425 O   0  0  0  0  0  0  0  0  0  0  0  0
   22.1263   -7.0634  -13.5253 O   0  0  0  0  0  0  0  0  0  0  0  0
  2  1  1  1
  2  9  1  0
  2  3  1  0
  4  3  1  0
  5  4  2  0
  6  7  1  0
  6  5  1  0
  7  8  2  0
  8  4  1  0
  9 10  2  0
 11 12  1  0
 12 22  2  0
 13 12  1  0
 13 14  2  0
 14 15  1  0
 15 21  2  0
 15 16  1  0
 17 16  1  6
 18 17  1  0
 18  9  1  0
 19 17  1  0
 20 19  2  0
 22 21  1  0
 23 24  1  0
 24 26  1  0
 25 24  2  0
 26 27  1  0
 27 28  1  0
 28 29  1  0
 30 29  1  1
 30 31  1  0
 31 19  1  0
 32 30  1  0
 32 33  1  0
 34 32  2  0
M  END
$$$$
