HYR.pdb
     RDKit          3D

 34 35  0  0  1  0  0  0  0  0999 V2000
   24.9534  -19.8578  -18.6179 N   0  0  0  0  0  0  0  0  0  0  0  0
   23.5905  -19.5167  -18.2571 C   0  0  1  0  0  0  0  0  0  0  0  0
   22.6983  -19.9523  -19.3892 C   0  0  0  0  0  0  0  0  0  0  0  0
   22.9633  -19.0549  -20.5343 C   0  0  0  0  0  0  0  0  0  0  0  0
   23.4415  -19.3970  -21.7734 C   0  0  0  0  0  0  0  0  0  0  0  0
   23.5405  -18.2666  -22.5364 N   0  0  0  0  0  0  0  0  0  0  0  0
   23.1285  -17.2428  -21.7758 C   0  0  0  0  0  0  0  0  0  0  0  0
   22.7806  -17.7243  -20.5662 N   0  0  0  0  0  0  0  0  0  0  0  0
   23.2861  -20.1948  -16.9686 C   0  0  0  0  0  0  0  0  0  0  0  0
   23.7271  -21.3334  -16.6652 O   0  0  0  0  0  0  0  0  0  0  0  0
   21.6722  -20.8022   -8.3432 O   0  0  0  0  0  0  0  0  0  0  0  0
   21.8452  -20.3624   -9.6523 C   0  0  0  0  0  0  0  0  0  0  0  0
   20.8703  -19.6147  -10.2801 C   0  0  0  0  0  0  0  0  0  0  0  0
   21.0512  -19.1828  -11.5806 C   0  0  0  0  0  0  0  0  0  0  0  0
   22.1991  -19.4850  -12.2765 C   0  0  0  0  0  0  0  0  0  0  0  0
   22.4252  -19.0516  -13.6523 C   0  0  0  0  0  0  0  0  0  0  0  0
   22.1526  -20.1091  -14.6990 C   0  0  2  0  0  0  0  0  0  0  0  0
   22.4475  -19.5462  -15.9932 N   0  0  0  0  0  0  0  0  0  0  0  0
   20.7990  -20.6879  -14.6215 C   0  0  0  0  0  0  0  0  0  0  0  0
   19.7582  -20.0252  -14.8671 O   0  0  0  0  0  0  0  0  0  0  0  0
   23.1629  -20.2315  -11.6372 C   0  0  0  0  0  0  0  0  0  0  0  0
   23.0004  -20.6728  -10.3370 C   0  0  0  0  0  0  0  0  0  0  0  0
   19.4225  -27.6699   -9.6688 N   0  0  0  0  0  0  0  0  0  0  0  0
   19.0264  -28.0601  -10.9726 C   0  0  0  0  0  0  0  0  0  0  0  0
   18.7550  -29.2814  -11.2912 N   0  0  0  0  0  0  0  0  0  0  0  0
   18.8934  -27.1305  -12.0426 N   0  0  0  0  0  0  0  0  0  0  0  0
   19.0044  -25.7413  -11.9543 C   0  0  0  0  0  0  0  0  0  0  0  0
   18.9596  -24.9245  -13.1837 C   0  0  0  0  0  0  0  0  0  0  0  0
   19.1635  -23.4822  -12.8020 C   0  0  0  0  0  0  0  0  0  0  0  0
   19.2541  -22.5556  -13.9594 C   0  0  2  0  0  0  0  0  0  0  0  0
   20.5712  -22.0634  -14.2557 N   0  0  0  0  0  0  0  0  0  0  0  0
   18.3391  -21.3894  -13.6835 C   0  0  0  0  0  0  0  0  0  0  0  0
   17.1080  -21.3181  -14.3129 O   0  0  0  0  0  0  0  0  0  0  0  0
   18.6489  -20.4650  -12.8958 O   0  0  0  0  0  0  0  0  0  0  0  0
  2  1  1  6
  2  9  1  0
  2  3  1  0
  4  3  1  0
  5  4  2  0
  6  7  1  0
  6  5  1  0
  7  8  2  0
  8  4  1  0
  9 10  2  0
 11 12  1  0
 12 22  2  0
 13 12  1  0
 13 14  2  0
 14 15  1  0
 15 21  2  0
 15 16  1  0
 17 16  1  1
 18 17  1  0
 18  9  1  0
 19 17  1  0
 20 19  2  0
 22 21  1  0
 23 24  1  0
 24 26  1  0
 25 24  2  0
 26 27  1  0
 27 28  1  0
 28 29  1  0
 30 29  1  1
 30 31  1  0
 31 19  1  0
 32 30  1  0
 32 33  1  0
 34 32  2  0
M  END
$$$$
