HYR.pdb
     RDKit          3D

 34 35  0  0  1  0  0  0  0  0999 V2000
   28.2160  -10.2625  -20.2544 N   0  0  0  0  0  0  0  0  0  0  0  0
   27.2848   -9.2012  -19.9219 C   0  0  1  0  0  0  0  0  0  0  0  0
   26.6463   -8.7387  -21.2049 C   0  0  0  0  0  0  0  0  0  0  0  0
   27.6633   -7.9719  -21.9560 C   0  0  0  0  0  0  0  0  0  0  0  0
   28.4196   -8.3996  -23.0174 C   0  0  0  0  0  0  0  0  0  0  0  0
   29.2370   -7.3790  -23.4173 N   0  0  0  0  0  0  0  0  0  0  0  0
   28.9864   -6.3374  -22.6118 C   0  0  0  0  0  0  0  0  0  0  0  0
   28.0344   -6.7007  -21.7300 N   0  0  0  0  0  0  0  0  0  0  0  0
   26.3115   -9.7515  -18.9408 C   0  0  0  0  0  0  0  0  0  0  0  0
   25.7301  -10.8573  -19.0892 O   0  0  0  0  0  0  0  0  0  0  0  0
   29.1567  -14.4486  -16.0394 O   0  0  0  0  0  0  0  0  0  0  0  0
   28.3800  -13.3009  -15.9112 C   0  0  0  0  0  0  0  0  0  0  0  0
   28.9296  -12.0510  -16.1100 C   0  0  0  0  0  0  0  0  0  0  0  0
   28.1501  -10.9170  -15.9800 C   0  0  0  0  0  0  0  0  0  0  0  0
   26.8167  -11.0051  -15.6519 C   0  0  0  0  0  0  0  0  0  0  0  0
   25.9620   -9.8312  -15.5006 C   0  0  0  0  0  0  0  0  0  0  0  0
   25.1190   -9.5049  -16.7136 C   0  0  2  0  0  0  0  0  0  0  0  0
   25.9931   -9.0096  -17.7477 N   0  0  0  0  0  0  0  0  0  0  0  0
   23.9950   -8.5944  -16.4295 C   0  0  0  0  0  0  0  0  0  0  0  0
   24.1191   -7.3426  -16.4086 O   0  0  0  0  0  0  0  0  0  0  0  0
   26.2823  -12.2585  -15.4568 C   0  0  0  0  0  0  0  0  0  0  0  0
   27.0456  -13.4046  -15.5821 C   0  0  0  0  0  0  0  0  0  0  0  0
   15.1252   -9.6667  -17.1022 N   0  0  0  0  0  0  0  0  0  0  0  0
   15.3173   -8.3410  -16.6387 C   0  0  0  0  0  0  0  0  0  0  0  0
   14.3470   -7.5072  -16.4650 N   0  0  0  0  0  0  0  0  0  0  0  0
   16.6038   -7.8191  -16.3237 N   0  0  0  0  0  0  0  0  0  0  0  0
   17.8136   -8.5155  -16.3581 C   0  0  0  0  0  0  0  0  0  0  0  0
   19.0735   -7.8080  -16.0536 C   0  0  0  0  0  0  0  0  0  0  0  0
   20.2185   -8.7579  -16.2866 C   0  0  0  0  0  0  0  0  0  0  0  0
   21.5552   -8.1794  -15.9952 C   0  0  2  0  0  0  0  0  0  0  0  0
   22.6655   -9.0778  -16.1531 N   0  0  0  0  0  0  0  0  0  0  0  0
   21.5310   -7.6647  -14.5782 C   0  0  0  0  0  0  0  0  0  0  0  0
   21.0566   -6.3903  -14.3180 O   0  0  0  0  0  0  0  0  0  0  0  0
   21.9285   -8.3514  -13.6079 O   0  0  0  0  0  0  0  0  0  0  0  0
  2  1  1  6
  2  9  1  0
  2  3  1  0
  4  3  1  0
  5  4  2  0
  6  7  1  0
  6  5  1  0
  7  8  2  0
  8  4  1  0
  9 10  2  0
 11 12  1  0
 12 22  2  0
 13 12  1  0
 13 14  2  0
 14 15  1  0
 15 21  2  0
 15 16  1  0
 17 16  1  1
 18 17  1  0
 18  9  1  0
 19 17  1  0
 20 19  2  0
 22 21  1  0
 23 24  1  0
 24 26  1  0
 25 24  2  0
 26 27  1  0
 27 28  1  0
 28 29  1  0
 30 29  1  1
 30 31  1  0
 31 19  1  0
 32 30  1  0
 32 33  1  0
 34 32  2  0
M  END
$$$$
