HYR.pdb
     RDKit          3D

 34 35  0  0  1  0  0  0  0  0999 V2000
   18.2033  -10.6810  -16.4313 N   0  0  0  0  0  0  0  0  0  0  0  0
   17.6439   -9.4174  -15.9907 C   0  0  1  0  0  0  0  0  0  0  0  0
   16.1616   -9.4610  -16.2522 C   0  0  0  0  0  0  0  0  0  0  0  0
   15.9584   -9.2248  -17.6978 C   0  0  0  0  0  0  0  0  0  0  0  0
   15.6500  -10.1499  -18.6623 C   0  0  0  0  0  0  0  0  0  0  0  0
   15.5506   -9.5140  -19.8687 N   0  0  0  0  0  0  0  0  0  0  0  0
   15.7948   -8.2147  -19.6484 C   0  0  0  0  0  0  0  0  0  0  0  0
   16.0409   -8.0448  -18.3345 N   0  0  0  0  0  0  0  0  0  0  0  0
   17.9869   -9.2538  -14.5525 C   0  0  0  0  0  0  0  0  0  0  0  0
   17.8723  -10.1766  -13.7049 O   0  0  0  0  0  0  0  0  0  0  0  0
   24.2288  -10.4636  -14.8879 O   0  0  0  0  0  0  0  0  0  0  0  0
   23.2438   -9.6568  -14.3258 C   0  0  0  0  0  0  0  0  0  0  0  0
   22.7808   -9.8948  -13.0480 C   0  0  0  0  0  0  0  0  0  0  0  0
   21.8021   -9.0881  -12.4987 C   0  0  0  0  0  0  0  0  0  0  0  0
   21.2689   -8.0354  -13.2065 C   0  0  0  0  0  0  0  0  0  0  0  0
   20.2310   -7.1642  -12.6632 C   0  0  0  0  0  0  0  0  0  0  0  0
   18.8370   -7.7508  -12.6920 C   0  0  2  0  0  0  0  0  0  0  0  0
   18.4787   -7.9895  -14.0680 N   0  0  0  0  0  0  0  0  0  0  0  0
   17.8364   -6.9426  -11.9718 C   0  0  0  0  0  0  0  0  0  0  0  0
   17.4857   -5.7950  -12.3498 O   0  0  0  0  0  0  0  0  0  0  0  0
   21.7407   -7.8100  -14.4798 C   0  0  0  0  0  0  0  0  0  0  0  0
   22.7191   -8.6057  -15.0468 C   0  0  0  0  0  0  0  0  0  0  0  0
   10.8566   -9.2197   -6.9229 N   0  0  0  0  0  0  0  0  0  0  0  0
   10.9203   -7.8055   -6.8501 C   0  0  0  0  0  0  0  0  0  0  0  0
   10.0429   -7.0913   -6.2284 N   0  0  0  0  0  0  0  0  0  0  0  0
   11.9647   -7.0540   -7.4594 N   0  0  0  0  0  0  0  0  0  0  0  0
   13.0723   -7.5688   -8.1361 C   0  0  0  0  0  0  0  0  0  0  0  0
   14.0279   -6.6468   -8.7824 C   0  0  0  0  0  0  0  0  0  0  0  0
   15.1110   -7.4664   -9.4325 C   0  0  0  0  0  0  0  0  0  0  0  0
   16.1378   -6.6607  -10.1418 C   0  0  2  0  0  0  0  0  0  0  0  0
   17.1853   -7.4134  -10.7751 N   0  0  0  0  0  0  0  0  0  0  0  0
   16.7450   -5.7110   -9.1404 C   0  0  0  0  0  0  0  0  0  0  0  0
   16.0522   -4.5725   -8.7654 O   0  0  0  0  0  0  0  0  0  0  0  0
   17.8693   -5.9098   -8.6232 O   0  0  0  0  0  0  0  0  0  0  0  0
  2  1  1  1
  2  9  1  0
  2  3  1  0
  4  3  1  0
  5  4  2  0
  6  7  1  0
  6  5  1  0
  7  8  2  0
  8  4  1  0
  9 10  2  0
 11 12  1  0
 12 22  2  0
 13 12  1  0
 13 14  2  0
 14 15  1  0
 15 21  2  0
 15 16  1  0
 17 16  1  6
 18 17  1  0
 18  9  1  0
 19 17  1  0
 20 19  2  0
 22 21  1  0
 23 24  1  0
 24 26  1  0
 25 24  2  0
 26 27  1  0
 27 28  1  0
 28 29  1  0
 30 29  1  1
 30 31  1  0
 31 19  1  0
 32 30  1  0
 32 33  1  0
 34 32  2  0
M  END
$$$$
