HYR.pdb
     RDKit          3D

 34 35  0  0  1  0  0  0  0  0999 V2000
   28.0598  -20.8716  -16.6771 N   0  0  0  0  0  0  0  0  0  0  0  0
   27.2734  -22.0897  -16.6364 C   0  0  1  0  0  0  0  0  0  0  0  0
   28.2060  -23.2416  -16.9025 C   0  0  0  0  0  0  0  0  0  0  0  0
   28.9440  -22.9373  -18.1473 C   0  0  0  0  0  0  0  0  0  0  0  0
   30.2471  -22.5273  -18.2695 C   0  0  0  0  0  0  0  0  0  0  0  0
   30.5343  -22.3571  -19.5955 N   0  0  0  0  0  0  0  0  0  0  0  0
   29.4218  -22.6585  -20.2795 C   0  0  0  0  0  0  0  0  0  0  0  0
   28.4630  -23.0086  -19.3997 N   0  0  0  0  0  0  0  0  0  0  0  0
   26.6180  -22.1544  -15.3026 C   0  0  0  0  0  0  0  0  0  0  0  0
   25.8309  -23.0752  -14.9626 O   0  0  0  0  0  0  0  0  0  0  0  0
   25.0581  -19.8266   -6.8627 O   0  0  0  0  0  0  0  0  0  0  0  0
   25.5870  -19.9762   -8.1414 C   0  0  0  0  0  0  0  0  0  0  0  0
   25.8361  -18.8756   -8.9353 C   0  0  0  0  0  0  0  0  0  0  0  0
   26.3611  -19.0344  -10.2039 C   0  0  0  0  0  0  0  0  0  0  0  0
   26.6465  -20.2844  -10.7035 C   0  0  0  0  0  0  0  0  0  0  0  0
   27.1969  -20.4937  -12.0395 C   0  0  0  0  0  0  0  0  0  0  0  0
   26.2224  -21.0779  -13.0381 C   0  0  2  0  0  0  0  0  0  0  0  0
   26.8733  -21.1290  -14.3235 N   0  0  0  0  0  0  0  0  0  0  0  0
   24.9245  -20.3802  -13.0810 C   0  0  0  0  0  0  0  0  0  0  0  0
   24.7672  -19.2652  -13.6421 O   0  0  0  0  0  0  0  0  0  0  0  0
   26.3930  -21.3730   -9.9001 C   0  0  0  0  0  0  0  0  0  0  0  0
   25.8680  -21.2346   -8.6284 C   0  0  0  0  0  0  0  0  0  0  0  0
   23.7133  -24.4575  -17.2297 N   0  0  0  0  0  0  0  0  0  0  0  0
   22.7655  -25.1766  -16.4590 C   0  0  0  0  0  0  0  0  0  0  0  0
   22.7890  -26.4611  -16.3319 N   0  0  0  0  0  0  0  0  0  0  0  0
   21.7054  -24.5361  -15.7572 N   0  0  0  0  0  0  0  0  0  0  0  0
   21.6064  -23.1743  -15.4652 C   0  0  0  0  0  0  0  0  0  0  0  0
   22.0423  -22.6758  -14.1452 C   0  0  0  0  0  0  0  0  0  0  0  0
   21.9269  -21.1744  -14.1439 C   0  0  0  0  0  0  0  0  0  0  0  0
   22.4227  -20.5293  -12.9013 C   0  0  2  0  0  0  0  0  0  0  0  0
   23.7362  -20.9300  -12.4782 N   0  0  0  0  0  0  0  0  0  0  0  0
   21.4341  -20.8321  -11.8038 C   0  0  0  0  0  0  0  0  0  0  0  0
   21.8519  -21.5080  -10.6699 O   0  0  0  0  0  0  0  0  0  0  0  0
   20.2294  -20.4932  -11.8734 O   0  0  0  0  0  0  0  0  0  0  0  0
  2  1  1  1
  2  9  1  0
  2  3  1  0
  4  3  1  0
  5  4  2  0
  6  7  1  0
  6  5  1  0
  7  8  2  0
  8  4  1  0
  9 10  2  0
 11 12  1  0
 12 22  2  0
 13 12  1  0
 13 14  2  0
 14 15  1  0
 15 21  2  0
 15 16  1  0
 17 16  1  1
 18 17  1  0
 18  9  1  0
 19 17  1  0
 20 19  2  0
 22 21  1  0
 23 24  1  0
 24 26  1  0
 25 24  2  0
 26 27  1  0
 27 28  1  0
 28 29  1  0
 30 29  1  6
 30 31  1  0
 31 19  1  0
 32 30  1  0
 32 33  1  0
 34 32  2  0
M  END
$$$$
