HYR.pdb
     RDKit          3D

 34 35  0  0  1  0  0  0  0  0999 V2000
   28.4440  -21.8255  -16.7265 N   0  0  0  0  0  0  0  0  0  0  0  0
   27.4415  -20.8113  -16.4615 C   0  0  1  0  0  0  0  0  0  0  0  0
   26.5583  -20.7171  -17.6775 C   0  0  0  0  0  0  0  0  0  0  0  0
   27.2952  -19.9479  -18.7033 C   0  0  0  0  0  0  0  0  0  0  0  0
   27.8253  -20.4140  -19.8793 C   0  0  0  0  0  0  0  0  0  0  0  0
   28.4248  -19.3752  -20.5360 N   0  0  0  0  0  0  0  0  0  0  0  0
   28.2651  -18.2847  -19.7733 C   0  0  0  0  0  0  0  0  0  0  0  0
   27.5817  -18.6359  -18.6663 N   0  0  0  0  0  0  0  0  0  0  0  0
   26.7120  -21.2149  -15.2296 C   0  0  0  0  0  0  0  0  0  0  0  0
   26.3210  -22.3906  -15.0112 O   0  0  0  0  0  0  0  0  0  0  0  0
   31.2787  -22.1584  -10.5262 O   0  0  0  0  0  0  0  0  0  0  0  0
   30.0408  -21.6056  -10.8410 C   0  0  0  0  0  0  0  0  0  0  0  0
   28.9022  -21.9938  -10.1652 C   0  0  0  0  0  0  0  0  0  0  0  0
   27.6773  -21.4392  -10.4853 C   0  0  0  0  0  0  0  0  0  0  0  0
   27.5631  -20.4933  -11.4781 C   0  0  0  0  0  0  0  0  0  0  0  0
   26.2872  -19.8881  -11.8486 C   0  0  0  0  0  0  0  0  0  0  0  0
   25.6157  -20.5181  -13.0487 C   0  0  2  0  0  0  0  0  0  0  0  0
   26.4202  -20.2379  -14.2119 N   0  0  0  0  0  0  0  0  0  0  0  0
   24.2062  -20.1211  -13.2184 C   0  0  0  0  0  0  0  0  0  0  0  0
   23.8387  -19.2430  -14.0410 O   0  0  0  0  0  0  0  0  0  0  0  0
   28.7075  -20.1158  -12.1434 C   0  0  0  0  0  0  0  0  0  0  0  0
   29.9418  -20.6589  -11.8379 C   0  0  0  0  0  0  0  0  0  0  0  0
   19.6489  -26.1137  -16.5578 N   0  0  0  0  0  0  0  0  0  0  0  0
   18.7306  -25.0341  -16.5328 C   0  0  0  0  0  0  0  0  0  0  0  0
   17.5882  -25.0663  -17.1332 N   0  0  0  0  0  0  0  0  0  0  0  0
   18.9951  -23.8201  -15.8380 N   0  0  0  0  0  0  0  0  0  0  0  0
   20.1487  -23.5121  -15.1139 C   0  0  0  0  0  0  0  0  0  0  0  0
   20.2227  -22.2440  -14.3609 C   0  0  0  0  0  0  0  0  0  0  0  0
   21.5957  -22.1336  -13.7525 C   0  0  0  0  0  0  0  0  0  0  0  0
   21.8217  -20.8795  -12.9893 C   0  0  2  0  0  0  0  0  0  0  0  0
   23.1425  -20.7147  -12.4478 N   0  0  0  0  0  0  0  0  0  0  0  0
   20.8167  -20.8410  -11.8660 C   0  0  0  0  0  0  0  0  0  0  0  0
   19.4647  -20.7704  -12.1557 O   0  0  0  0  0  0  0  0  0  0  0  0
   21.1567  -20.8706  -10.6600 O   0  0  0  0  0  0  0  0  0  0  0  0
  2  1  1  6
  2  9  1  0
  2  3  1  0
  4  3  1  0
  5  4  2  0
  6  7  1  0
  6  5  1  0
  7  8  2  0
  8  4  1  0
  9 10  2  0
 11 12  1  0
 12 22  2  0
 13 12  1  0
 13 14  2  0
 14 15  1  0
 15 21  2  0
 15 16  1  0
 17 16  1  1
 18 17  1  0
 18  9  1  0
 19 17  1  0
 20 19  2  0
 22 21  1  0
 23 24  1  0
 24 26  1  0
 25 24  2  0
 26 27  1  0
 27 28  1  0
 28 29  1  0
 30 29  1  1
 30 31  1  0
 31 19  1  0
 32 30  1  0
 32 33  1  0
 34 32  2  0
M  END
$$$$
