HYR.pdb
     RDKit          3D

 34 35  0  0  1  0  0  0  0  0999 V2000
   29.3610  -22.7496  -17.6117 N   0  0  0  0  0  0  0  0  0  0  0  0
   28.4995  -21.6033  -17.3927 C   0  0  1  0  0  0  0  0  0  0  0  0
   27.7333  -21.3611  -18.6662 C   0  0  0  0  0  0  0  0  0  0  0  0
   28.6858  -20.8254  -19.6625 C   0  0  0  0  0  0  0  0  0  0  0  0
   29.0547  -21.3905  -20.8567 C   0  0  0  0  0  0  0  0  0  0  0  0
   29.9577  -20.5696  -21.4736 N   0  0  0  0  0  0  0  0  0  0  0  0
   30.1414  -19.5137  -20.6688 C   0  0  0  0  0  0  0  0  0  0  0  0
   29.3704  -19.6729  -19.5751 N   0  0  0  0  0  0  0  0  0  0  0  0
   27.6285  -21.9148  -16.2278 C   0  0  0  0  0  0  0  0  0  0  0  0
   27.0291  -23.0119  -16.0861 O   0  0  0  0  0  0  0  0  0  0  0  0
   24.1106  -20.5724   -8.1428 O   0  0  0  0  0  0  0  0  0  0  0  0
   24.8236  -20.4703   -9.3338 C   0  0  0  0  0  0  0  0  0  0  0  0
   24.3091  -19.7718  -10.4067 C   0  0  0  0  0  0  0  0  0  0  0  0
   25.0247  -19.6764  -11.5854 C   0  0  0  0  0  0  0  0  0  0  0  0
   26.2586  -20.2709  -11.7177 C   0  0  0  0  0  0  0  0  0  0  0  0
   27.0425  -20.1970  -12.9471 C   0  0  0  0  0  0  0  0  0  0  0  0
   26.6058  -21.1569  -14.0316 C   0  0  2  0  0  0  0  0  0  0  0  0
   27.4374  -20.9357  -15.1884 N   0  0  0  0  0  0  0  0  0  0  0  0
   25.1659  -21.0903  -14.3406 C   0  0  0  0  0  0  0  0  0  0  0  0
   24.6608  -20.1803  -15.0474 O   0  0  0  0  0  0  0  0  0  0  0  0
   26.7591  -20.9642  -10.6390 C   0  0  0  0  0  0  0  0  0  0  0  0
   26.0585  -21.0710   -9.4517 C   0  0  0  0  0  0  0  0  0  0  0  0
   17.7417  -24.4192  -14.9152 N   0  0  0  0  0  0  0  0  0  0  0  0
   17.8077  -23.3387  -15.8304 C   0  0  0  0  0  0  0  0  0  0  0  0
   16.7608  -22.7415  -16.2928 N   0  0  0  0  0  0  0  0  0  0  0  0
   19.0418  -22.8205  -16.3152 N   0  0  0  0  0  0  0  0  0  0  0  0
   20.3202  -23.1793  -15.8829 C   0  0  0  0  0  0  0  0  0  0  0  0
   20.6321  -23.1747  -14.4395 C   0  0  0  0  0  0  0  0  0  0  0  0
   22.1244  -23.2937  -14.2768 C   0  0  0  0  0  0  0  0  0  0  0  0
   22.8272  -21.9906  -14.1576 C   0  0  2  0  0  0  0  0  0  0  0  0
   24.2288  -22.0698  -13.8507 N   0  0  0  0  0  0  0  0  0  0  0  0
   22.1292  -21.1917  -13.0861 C   0  0  0  0  0  0  0  0  0  0  0  0
   20.8767  -20.6562  -13.3343 O   0  0  0  0  0  0  0  0  0  0  0  0
   22.6414  -20.9869  -11.9607 O   0  0  0  0  0  0  0  0  0  0  0  0
  2  1  1  6
  2  9  1  0
  2  3  1  0
  4  3  1  0
  5  4  2  0
  6  7  1  0
  6  5  1  0
  7  8  2  0
  8  4  1  0
  9 10  2  0
 11 12  1  0
 12 22  2  0
 13 12  1  0
 13 14  2  0
 14 15  1  0
 15 21  2  0
 15 16  1  0
 17 16  1  1
 18 17  1  0
 18  9  1  0
 19 17  1  0
 20 19  2  0
 22 21  1  0
 23 24  1  0
 24 26  1  0
 25 24  2  0
 26 27  1  0
 27 28  1  0
 28 29  1  0
 30 29  1  1
 30 31  1  0
 31 19  1  0
 32 30  1  0
 32 33  1  0
 34 32  2  0
M  END
$$$$
