HYR.pdb
     RDKit          3D

 34 35  0  0  1  0  0  0  0  0999 V2000
   25.1533  -18.3652  -18.5364 N   0  0  0  0  0  0  0  0  0  0  0  0
   25.1775  -19.2327  -17.3742 C   0  0  1  0  0  0  0  0  0  0  0  0
   26.5118  -19.0517  -16.7000 C   0  0  0  0  0  0  0  0  0  0  0  0
   27.5387  -19.6511  -17.5791 C   0  0  0  0  0  0  0  0  0  0  0  0
   28.4202  -18.9987  -18.4029 C   0  0  0  0  0  0  0  0  0  0  0  0
   29.1976  -19.9255  -19.0406 N   0  0  0  0  0  0  0  0  0  0  0  0
   28.7989  -21.1319  -18.6141 C   0  0  0  0  0  0  0  0  0  0  0  0
   27.7957  -20.9609  -17.7308 N   0  0  0  0  0  0  0  0  0  0  0  0
   24.0235  -18.8591  -16.5132 C   0  0  0  0  0  0  0  0  0  0  0  0
   23.4212  -17.7582  -16.6034 O   0  0  0  0  0  0  0  0  0  0  0  0
   20.8427  -14.0039  -17.5778 O   0  0  0  0  0  0  0  0  0  0  0  0
   20.9382  -15.3210  -17.1381 C   0  0  0  0  0  0  0  0  0  0  0  0
   21.3870  -16.3159  -17.9821 C   0  0  0  0  0  0  0  0  0  0  0  0
   21.4781  -17.6210  -17.5363 C   0  0  0  0  0  0  0  0  0  0  0  0
   21.1263  -17.9586  -16.2495 C   0  0  0  0  0  0  0  0  0  0  0  0
   21.2037  -19.3256  -15.7430 C   0  0  0  0  0  0  0  0  0  0  0  0
   22.3291  -19.5717  -14.7626 C   0  0  2  0  0  0  0  0  0  0  0  0
   23.5420  -19.7785  -15.5142 N   0  0  0  0  0  0  0  0  0  0  0  0
   22.0568  -20.6588  -13.8048 C   0  0  0  0  0  0  0  0  0  0  0  0
   22.0974  -21.8752  -14.1233 O   0  0  0  0  0  0  0  0  0  0  0  0
   20.6805  -16.9555  -15.4190 C   0  0  0  0  0  0  0  0  0  0  0  0
   20.5823  -15.6442  -15.8463 C   0  0  0  0  0  0  0  0  0  0  0  0
   17.0350  -23.5549   -8.9006 N   0  0  0  0  0  0  0  0  0  0  0  0
   18.0986  -24.0507   -8.1055 C   0  0  0  0  0  0  0  0  0  0  0  0
   17.9565  -25.0165   -7.2607 N   0  0  0  0  0  0  0  0  0  0  0  0
   19.4183  -23.5213   -8.1761 N   0  0  0  0  0  0  0  0  0  0  0  0
   19.9380  -22.7197   -9.1944 C   0  0  0  0  0  0  0  0  0  0  0  0
   21.3513  -22.2946   -9.1413 C   0  0  0  0  0  0  0  0  0  0  0  0
   21.5289  -21.1230  -10.0703 C   0  0  0  0  0  0  0  0  0  0  0  0
   21.4310  -21.4712  -11.5110 C   0  0  2  0  0  0  0  0  0  0  0  0
   21.7219  -20.4025  -12.4265 N   0  0  0  0  0  0  0  0  0  0  0  0
   20.0329  -21.9753  -11.7650 C   0  0  0  0  0  0  0  0  0  0  0  0
   19.8234  -23.3194  -12.0231 O   0  0  0  0  0  0  0  0  0  0  0  0
   19.0340  -21.2184  -11.7528 O   0  0  0  0  0  0  0  0  0  0  0  0
  2  1  1  6
  2  9  1  0
  2  3  1  0
  4  3  1  0
  5  4  2  0
  6  7  1  0
  6  5  1  0
  7  8  2  0
  8  4  1  0
  9 10  2  0
 11 12  1  0
 12 22  2  0
 13 12  1  0
 13 14  2  0
 14 15  1  0
 15 21  2  0
 15 16  1  0
 17 16  1  6
 18 17  1  0
 18  9  1  0
 19 17  1  0
 20 19  2  0
 22 21  1  0
 23 24  1  0
 24 26  1  0
 25 24  2  0
 26 27  1  0
 27 28  1  0
 28 29  1  0
 30 29  1  1
 30 31  1  0
 31 19  1  0
 32 30  1  0
 32 33  1  0
 34 32  2  0
M  END
$$$$
