HYR.pdb
     RDKit          3D

 34 35  0  0  1  0  0  0  0  0999 V2000
   23.0112  -22.9674  -12.2584 N   0  0  0  0  0  0  0  0  0  0  0  0
   22.4327  -21.6419  -12.3691 C   0  0  1  0  0  0  0  0  0  0  0  0
   21.6427  -21.3848  -11.1131 C   0  0  0  0  0  0  0  0  0  0  0  0
   20.4035  -22.1875  -11.1956 C   0  0  0  0  0  0  0  0  0  0  0  0
   20.2732  -23.4856  -11.6190 C   0  0  0  0  0  0  0  0  0  0  0  0
   18.9567  -23.8464  -11.5386 N   0  0  0  0  0  0  0  0  0  0  0  0
   18.2866  -22.7836  -11.0719 C   0  0  0  0  0  0  0  0  0  0  0  0
   19.1655  -21.7831  -10.8661 N   0  0  0  0  0  0  0  0  0  0  0  0
   23.5505  -20.6818  -12.5725 C   0  0  0  0  0  0  0  0  0  0  0  0
   23.3893  -19.4356  -12.6337 O   0  0  0  0  0  0  0  0  0  0  0  0
   26.0226  -20.2697   -6.5663 O   0  0  0  0  0  0  0  0  0  0  0  0
   26.3039  -20.3615   -7.9263 C   0  0  0  0  0  0  0  0  0  0  0  0
   26.3799  -19.2279   -8.7093 C   0  0  0  0  0  0  0  0  0  0  0  0
   26.6595  -19.3294  -10.0591 C   0  0  0  0  0  0  0  0  0  0  0  0
   26.8674  -20.5538  -10.6516 C   0  0  0  0  0  0  0  0  0  0  0  0
   27.1600  -20.7026  -12.0742 C   0  0  0  0  0  0  0  0  0  0  0  0
   26.0258  -20.3109  -12.9953 C   0  0  2  0  0  0  0  0  0  0  0  0
   24.9004  -21.1658  -12.7103 N   0  0  0  0  0  0  0  0  0  0  0  0
   26.3935  -20.3054  -14.4228 C   0  0  0  0  0  0  0  0  0  0  0  0
   25.9333  -21.1348  -15.2493 O   0  0  0  0  0  0  0  0  0  0  0  0
   26.7885  -21.6757   -9.8580 C   0  0  0  0  0  0  0  0  0  0  0  0
   26.5100  -21.5948   -8.5061 C   0  0  0  0  0  0  0  0  0  0  0  0
   23.7288  -17.3364  -19.8505 N   0  0  0  0  0  0  0  0  0  0  0  0
   22.7714  -17.1399  -18.8239 C   0  0  0  0  0  0  0  0  0  0  0  0
   21.5242  -17.4464  -18.9548 N   0  0  0  0  0  0  0  0  0  0  0  0
   23.1104  -16.5866  -17.5568 N   0  0  0  0  0  0  0  0  0  0  0  0
   24.3651  -16.1150  -17.1655 C   0  0  0  0  0  0  0  0  0  0  0  0
   25.5606  -16.9560  -17.3756 C   0  0  0  0  0  0  0  0  0  0  0  0
   25.8418  -17.7067  -16.1009 C   0  0  0  0  0  0  0  0  0  0  0  0
   27.0115  -18.6187  -16.1797 C   0  0  2  0  0  0  0  0  0  0  0  0
   27.3130  -19.3430  -14.9758 N   0  0  0  0  0  0  0  0  0  0  0  0
   28.2092  -17.7923  -16.5746 C   0  0  0  0  0  0  0  0  0  0  0  0
   28.5414  -17.6591  -17.9121 O   0  0  0  0  0  0  0  0  0  0  0  0
   28.9305  -17.2100  -15.7309 O   0  0  0  0  0  0  0  0  0  0  0  0
  2  1  1  1
  2  9  1  0
  2  3  1  0
  4  3  1  0
  5  4  2  0
  6  7  1  0
  6  5  1  0
  7  8  2  0
  8  4  1  0
  9 10  2  0
 11 12  1  0
 12 22  2  0
 13 12  1  0
 13 14  2  0
 14 15  1  0
 15 21  2  0
 15 16  1  0
 17 16  1  1
 18 17  1  0
 18  9  1  0
 19 17  1  0
 20 19  2  0
 22 21  1  0
 23 24  1  0
 24 26  1  0
 25 24  2  0
 26 27  1  0
 27 28  1  0
 28 29  1  0
 30 29  1  1
 30 31  1  0
 31 19  1  0
 32 30  1  0
 32 33  1  0
 34 32  2  0
M  END
$$$$
