HYR.pdb
     RDKit          3D

 34 35  0  0  1  0  0  0  0  0999 V2000
   22.0144  -18.8245  -20.1495 N   0  0  0  0  0  0  0  0  0  0  0  0
   20.6963  -18.3617  -20.5397 C   0  0  1  0  0  0  0  0  0  0  0  0
   19.8552  -19.5770  -20.8281 C   0  0  0  0  0  0  0  0  0  0  0  0
   20.3851  -20.2019  -22.0591 C   0  0  0  0  0  0  0  0  0  0  0  0
   20.2268  -19.7716  -23.3519 C   0  0  0  0  0  0  0  0  0  0  0  0
   20.8764  -20.6367  -24.1882 N   0  0  0  0  0  0  0  0  0  0  0  0
   21.4268  -21.5865  -23.4192 C   0  0  0  0  0  0  0  0  0  0  0  0
   21.1270  -21.3195  -22.1329 N   0  0  0  0  0  0  0  0  0  0  0  0
   20.1683  -17.5265  -19.4277 C   0  0  0  0  0  0  0  0  0  0  0  0
   18.9786  -17.1210  -19.3719 O   0  0  0  0  0  0  0  0  0  0  0  0
   18.3794  -21.6283  -14.6525 O   0  0  0  0  0  0  0  0  0  0  0  0
   19.0239  -20.4368  -14.9720 C   0  0  0  0  0  0  0  0  0  0  0  0
   18.3813  -19.2249  -14.8230 C   0  0  0  0  0  0  0  0  0  0  0  0
   19.0297  -18.0470  -15.1433 C   0  0  0  0  0  0  0  0  0  0  0  0
   20.3222  -18.0529  -15.6152 C   0  0  0  0  0  0  0  0  0  0  0  0
   21.0389  -16.8311  -15.9689 C   0  0  0  0  0  0  0  0  0  0  0  0
   20.6398  -16.2286  -17.2978 C   0  0  2  0  0  0  0  0  0  0  0  0
   21.0329  -17.1426  -18.3413 N   0  0  0  0  0  0  0  0  0  0  0  0
   21.1526  -14.8629  -17.5098 C   0  0  0  0  0  0  0  0  0  0  0  0
   22.3349  -14.6258  -17.8688 O   0  0  0  0  0  0  0  0  0  0  0  0
   20.9505  -19.2693  -15.7585 C   0  0  0  0  0  0  0  0  0  0  0  0
   20.3189  -20.4582  -15.4436 C   0  0  0  0  0  0  0  0  0  0  0  0
   21.5156  -11.3657  -24.1943 N   0  0  0  0  0  0  0  0  0  0  0  0
   20.4882  -10.5869  -23.6049 C   0  0  0  0  0  0  0  0  0  0  0  0
   19.8178   -9.6958  -24.2553 N   0  0  0  0  0  0  0  0  0  0  0  0
   20.1092  -10.7268  -22.2399 N   0  0  0  0  0  0  0  0  0  0  0  0
   20.6060  -11.6642  -21.3320 C   0  0  0  0  0  0  0  0  0  0  0  0
   20.1134  -11.6663  -19.9398 C   0  0  0  0  0  0  0  0  0  0  0  0
   21.2177  -12.1677  -19.0472 C   0  0  0  0  0  0  0  0  0  0  0  0
   20.8079  -12.3771  -17.6350 C   0  0  2  0  0  0  0  0  0  0  0  0
   20.3299  -13.6949  -17.3188 N   0  0  0  0  0  0  0  0  0  0  0  0
   19.7319  -11.3697  -17.3175 C   0  0  0  0  0  0  0  0  0  0  0  0
   20.0194  -10.0165  -17.3737 O   0  0  0  0  0  0  0  0  0  0  0  0
   18.5680  -11.7087  -16.9992 O   0  0  0  0  0  0  0  0  0  0  0  0
  2  1  1  1
  2  9  1  0
  2  3  1  0
  4  3  1  0
  5  4  2  0
  6  7  1  0
  6  5  1  0
  7  8  2  0
  8  4  1  0
  9 10  2  0
 11 12  1  0
 12 22  2  0
 13 12  1  0
 13 14  2  0
 14 15  1  0
 15 21  2  0
 15 16  1  0
 17 16  1  1
 18 17  1  0
 18  9  1  0
 19 17  1  0
 20 19  2  0
 22 21  1  0
 23 24  1  0
 24 26  1  0
 25 24  2  0
 26 27  1  0
 27 28  1  0
 28 29  1  0
 30 29  1  6
 30 31  1  0
 31 19  1  0
 32 30  1  0
 32 33  1  0
 34 32  2  0
M  END
$$$$
