HYR.pdb
     RDKit          3D

 34 35  0  0  1  0  0  0  0  0999 V2000
   29.3419  -22.6331  -17.9088 N   0  0  0  0  0  0  0  0  0  0  0  0
   29.0246  -21.3632  -17.2837 C   0  0  1  0  0  0  0  0  0  0  0  0
   28.5615  -20.4264  -18.3680 C   0  0  0  0  0  0  0  0  0  0  0  0
   29.6201  -19.4120  -18.5606 C   0  0  0  0  0  0  0  0  0  0  0  0
   29.5807  -18.0848  -18.2166 C   0  0  0  0  0  0  0  0  0  0  0  0
   30.7663  -17.5017  -18.5689 N   0  0  0  0  0  0  0  0  0  0  0  0
   31.5246  -18.4583  -19.1222 C   0  0  0  0  0  0  0  0  0  0  0  0
   30.8274  -19.6114  -19.1150 N   0  0  0  0  0  0  0  0  0  0  0  0
   27.9925  -21.6220  -16.2442 C   0  0  0  0  0  0  0  0  0  0  0  0
   27.0262  -22.4104  -16.4102 O   0  0  0  0  0  0  0  0  0  0  0  0
   24.0018  -20.4822   -8.3346 O   0  0  0  0  0  0  0  0  0  0  0  0
   24.8857  -20.4640   -9.4096 C   0  0  0  0  0  0  0  0  0  0  0  0
   24.8520  -19.4399  -10.3336 C   0  0  0  0  0  0  0  0  0  0  0  0
   25.7338  -19.4309  -11.3980 C   0  0  0  0  0  0  0  0  0  0  0  0
   26.6603  -20.4349  -11.5617 C   0  0  0  0  0  0  0  0  0  0  0  0
   27.6047  -20.4635  -12.6747 C   0  0  0  0  0  0  0  0  0  0  0  0
   27.0620  -21.0775  -13.9462 C   0  0  2  0  0  0  0  0  0  0  0  0
   28.0699  -20.9549  -14.9698 N   0  0  0  0  0  0  0  0  0  0  0  0
   25.7565  -20.5320  -14.3602 C   0  0  0  0  0  0  0  0  0  0  0  0
   25.6384  -19.4542  -14.9982 O   0  0  0  0  0  0  0  0  0  0  0  0
   26.6822  -21.4497  -10.6320 C   0  0  0  0  0  0  0  0  0  0  0  0
   25.8085  -21.4765   -9.5607 C   0  0  0  0  0  0  0  0  0  0  0  0
   20.6182  -19.3204  -19.7061 N   0  0  0  0  0  0  0  0  0  0  0  0
   19.5469  -19.8984  -18.9799 C   0  0  0  0  0  0  0  0  0  0  0  0
   18.3143  -19.5529  -19.1470 N   0  0  0  0  0  0  0  0  0  0  0  0
   19.7448  -20.9143  -18.0024 N   0  0  0  0  0  0  0  0  0  0  0  0
   20.9586  -21.2756  -17.4143 C   0  0  0  0  0  0  0  0  0  0  0  0
   21.3808  -20.6322  -16.1539 C   0  0  0  0  0  0  0  0  0  0  0  0
   22.7203  -21.1960  -15.7596 C   0  0  0  0  0  0  0  0  0  0  0  0
   23.2499  -20.6613  -14.4791 C   0  0  2  0  0  0  0  0  0  0  0  0
   24.5147  -21.1997  -14.0603 N   0  0  0  0  0  0  0  0  0  0  0  0
   22.2192  -20.9284  -13.4115 C   0  0  0  0  0  0  0  0  0  0  0  0
   20.9991  -20.2754  -13.4556 O   0  0  0  0  0  0  0  0  0  0  0  0
   22.4212  -21.7294  -12.4689 O   0  0  0  0  0  0  0  0  0  0  0  0
  2  1  1  6
  2  9  1  0
  2  3  1  0
  4  3  1  0
  5  4  2  0
  6  7  1  0
  6  5  1  0
  7  8  2  0
  8  4  1  0
  9 10  2  0
 11 12  1  0
 12 22  2  0
 13 12  1  0
 13 14  2  0
 14 15  1  0
 15 21  2  0
 15 16  1  0
 17 16  1  1
 18 17  1  0
 18  9  1  0
 19 17  1  0
 20 19  2  0
 22 21  1  0
 23 24  1  0
 24 26  1  0
 25 24  2  0
 26 27  1  0
 27 28  1  0
 28 29  1  0
 30 29  1  6
 30 31  1  0
 31 19  1  0
 32 30  1  0
 32 33  1  0
 34 32  2  0
M  END
$$$$
