HYR.pdb
     RDKit          3D

 34 35  0  0  1  0  0  0  0  0999 V2000
   26.2915  -19.4342  -18.3656 N   0  0  0  0  0  0  0  0  0  0  0  0
   24.8941  -19.0710  -18.2275 C   0  0  1  0  0  0  0  0  0  0  0  0
   24.1906  -19.4825  -19.4938 C   0  0  0  0  0  0  0  0  0  0  0  0
   24.6965  -18.6202  -20.5834 C   0  0  0  0  0  0  0  0  0  0  0  0
   25.5115  -18.9799  -21.6263 C   0  0  0  0  0  0  0  0  0  0  0  0
   25.7403  -17.8813  -22.4076 N   0  0  0  0  0  0  0  0  0  0  0  0
   25.0744  -16.8594  -21.8518 C   0  0  0  0  0  0  0  0  0  0  0  0
   24.4450  -17.3110  -20.7492 N   0  0  0  0  0  0  0  0  0  0  0  0
   24.3729  -19.7524  -17.0123 C   0  0  0  0  0  0  0  0  0  0  0  0
   24.8497  -20.8269  -16.5638 O   0  0  0  0  0  0  0  0  0  0  0  0
   20.2697  -20.2515   -9.1741 O   0  0  0  0  0  0  0  0  0  0  0  0
   20.7923  -19.8402  -10.3968 C   0  0  0  0  0  0  0  0  0  0  0  0
   19.9811  -19.2654  -11.3534 C   0  0  0  0  0  0  0  0  0  0  0  0
   20.5094  -18.8604  -12.5648 C   0  0  0  0  0  0  0  0  0  0  0  0
   21.8472  -19.0190  -12.8451 C   0  0  0  0  0  0  0  0  0  0  0  0
   22.4417  -18.6088  -14.1139 C   0  0  0  0  0  0  0  0  0  0  0  0
   22.7456  -19.7459  -15.0643 C   0  0  2  0  0  0  0  0  0  0  0  0
   23.2673  -19.1834  -16.2850 N   0  0  0  0  0  0  0  0  0  0  0  0
   21.6048  -20.6512  -15.2929 C   0  0  0  0  0  0  0  0  0  0  0  0
   20.5901  -20.3164  -15.9570 O   0  0  0  0  0  0  0  0  0  0  0  0
   22.6441  -19.5938  -11.8812 C   0  0  0  0  0  0  0  0  0  0  0  0
   22.1344  -20.0054  -10.6635 C   0  0  0  0  0  0  0  0  0  0  0  0
   20.7944  -28.1616  -11.3850 N   0  0  0  0  0  0  0  0  0  0  0  0
   19.8583  -27.1354  -11.1027 C   0  0  0  0  0  0  0  0  0  0  0  0
   19.1380  -27.1132  -10.0316 N   0  0  0  0  0  0  0  0  0  0  0  0
   19.6365  -26.0384  -11.9826 N   0  0  0  0  0  0  0  0  0  0  0  0
   19.3706  -26.1124  -13.3514 C   0  0  0  0  0  0  0  0  0  0  0  0
   19.1593  -24.8714  -14.1234 C   0  0  0  0  0  0  0  0  0  0  0  0
   20.3736  -23.9967  -13.9560 C   0  0  0  0  0  0  0  0  0  0  0  0
   20.3830  -22.7982  -14.8334 C   0  0  2  0  0  0  0  0  0  0  0  0
   21.5713  -21.9929  -14.7672 N   0  0  0  0  0  0  0  0  0  0  0  0
   19.1900  -21.9530  -14.4649 C   0  0  0  0  0  0  0  0  0  0  0  0
   18.1303  -21.8379  -15.3485 O   0  0  0  0  0  0  0  0  0  0  0  0
   19.1134  -21.3391  -13.3749 O   0  0  0  0  0  0  0  0  0  0  0  0
  2  1  1  6
  2  9  1  0
  2  3  1  0
  4  3  1  0
  5  4  2  0
  6  7  1  0
  6  5  1  0
  7  8  2  0
  8  4  1  0
  9 10  2  0
 11 12  1  0
 12 22  2  0
 13 12  1  0
 13 14  2  0
 14 15  1  0
 15 21  2  0
 15 16  1  0
 17 16  1  1
 18 17  1  0
 18  9  1  0
 19 17  1  0
 20 19  2  0
 22 21  1  0
 23 24  1  0
 24 26  1  0
 25 24  2  0
 26 27  1  0
 27 28  1  0
 28 29  1  0
 30 29  1  1
 30 31  1  0
 31 19  1  0
 32 30  1  0
 32 33  1  0
 34 32  2  0
M  END
$$$$
