HYR.pdb
     RDKit          3D

 34 35  0  0  1  0  0  0  0  0999 V2000
   16.3532  -13.9615  -15.1862 N   0  0  0  0  0  0  0  0  0  0  0  0
   17.5110  -14.4683  -15.8980 C   0  0  1  0  0  0  0  0  0  0  0  0
   17.0088  -15.3162  -17.0366 C   0  0  0  0  0  0  0  0  0  0  0  0
   16.3562  -16.5064  -16.4500 C   0  0  0  0  0  0  0  0  0  0  0  0
   15.0984  -16.9865  -16.7122 C   0  0  0  0  0  0  0  0  0  0  0  0
   14.8870  -18.1071  -15.9576 N   0  0  0  0  0  0  0  0  0  0  0  0
   16.0006  -18.3129  -15.2408 C   0  0  0  0  0  0  0  0  0  0  0  0
   16.8859  -17.3426  -15.5418 N   0  0  0  0  0  0  0  0  0  0  0  0
   18.3118  -13.2958  -16.3412 C   0  0  0  0  0  0  0  0  0  0  0  0
   19.3185  -13.3890  -17.0901 O   0  0  0  0  0  0  0  0  0  0  0  0
   19.5661   -4.8387  -18.6049 O   0  0  0  0  0  0  0  0  0  0  0  0
   19.0675   -6.0362  -18.1005 C   0  0  0  0  0  0  0  0  0  0  0  0
   18.8069   -6.1804  -16.7533 C   0  0  0  0  0  0  0  0  0  0  0  0
   18.3121   -7.3738  -16.2619 C   0  0  0  0  0  0  0  0  0  0  0  0
   18.0687   -8.4398  -17.0971 C   0  0  0  0  0  0  0  0  0  0  0  0
   17.5513   -9.7174  -16.6159 C   0  0  0  0  0  0  0  0  0  0  0  0
   18.6063  -10.7748  -16.3766 C   0  0  2  0  0  0  0  0  0  0  0  0
   17.9469  -11.9699  -15.9122 N   0  0  0  0  0  0  0  0  0  0  0  0
   19.6948  -10.3377  -15.4837 C   0  0  0  0  0  0  0  0  0  0  0  0
   19.5338  -10.1568  -14.2492 O   0  0  0  0  0  0  0  0  0  0  0  0
   18.3333   -8.2812  -18.4386 C   0  0  0  0  0  0  0  0  0  0  0  0
   18.8284   -7.0956  -18.9493 C   0  0  0  0  0  0  0  0  0  0  0  0
   28.3418  -11.3619  -16.3523 N   0  0  0  0  0  0  0  0  0  0  0  0
   27.0920  -12.0307  -16.3397 C   0  0  0  0  0  0  0  0  0  0  0  0
   26.9149  -13.2036  -16.8492 N   0  0  0  0  0  0  0  0  0  0  0  0
   25.9242  -11.4600  -15.7590 N   0  0  0  0  0  0  0  0  0  0  0  0
   25.8390  -10.2301  -15.1034 C   0  0  0  0  0  0  0  0  0  0  0  0
   24.5487   -9.7929  -14.5337 C   0  0  0  0  0  0  0  0  0  0  0  0
   23.4614  -10.1075  -15.5268 C   0  0  0  0  0  0  0  0  0  0  0  0
   22.0982   -9.7305  -15.0731 C   0  0  2  0  0  0  0  0  0  0  0  0
   21.0294  -10.0846  -15.9659 N   0  0  0  0  0  0  0  0  0  0  0  0
   22.0865   -8.2390  -14.8524 C   0  0  0  0  0  0  0  0  0  0  0  0
   22.2171   -7.7330  -13.5702 O   0  0  0  0  0  0  0  0  0  0  0  0
   21.9616   -7.4221  -15.7947 O   0  0  0  0  0  0  0  0  0  0  0  0
  2  1  1  6
  2  9  1  0
  2  3  1  0
  4  3  1  0
  5  4  2  0
  6  7  1  0
  6  5  1  0
  7  8  2  0
  8  4  1  0
  9 10  2  0
 11 12  1  0
 12 22  2  0
 13 12  1  0
 13 14  2  0
 14 15  1  0
 15 21  2  0
 15 16  1  0
 17 16  1  1
 18 17  1  0
 18  9  1  0
 19 17  1  0
 20 19  2  0
 22 21  1  0
 23 24  1  0
 24 26  1  0
 25 24  2  0
 26 27  1  0
 27 28  1  0
 28 29  1  0
 30 29  1  6
 30 31  1  0
 31 19  1  0
 32 30  1  0
 32 33  1  0
 34 32  2  0
M  END
$$$$
