HYR.pdb
     RDKit          3D

 34 35  0  0  1  0  0  0  0  0999 V2000
   17.5338  -23.9901   -9.5110 N   0  0  0  0  0  0  0  0  0  0  0  0
   18.2632  -25.0363   -8.8199 C   0  0  1  0  0  0  0  0  0  0  0  0
   19.6356  -25.1153   -9.4346 C   0  0  0  0  0  0  0  0  0  0  0  0
   19.4669  -25.5157  -10.8481 C   0  0  0  0  0  0  0  0  0  0  0  0
   18.3014  -25.8454  -11.4918 C   0  0  0  0  0  0  0  0  0  0  0  0
   18.5874  -26.1543  -12.7928 N   0  0  0  0  0  0  0  0  0  0  0  0
   19.9116  -26.0163  -12.9466 C   0  0  0  0  0  0  0  0  0  0  0  0
   20.4390  -25.6301  -11.7682 N   0  0  0  0  0  0  0  0  0  0  0  0
   18.2812  -24.6883   -7.3738 C   0  0  0  0  0  0  0  0  0  0  0  0
   18.4728  -23.5208   -6.9457 O   0  0  0  0  0  0  0  0  0  0  0  0
   13.0112  -23.3095   -0.9519 O   0  0  0  0  0  0  0  0  0  0  0  0
   13.7662  -23.6875   -2.0584 C   0  0  0  0  0  0  0  0  0  0  0  0
   14.8621  -22.9469   -2.4512 C   0  0  0  0  0  0  0  0  0  0  0  0
   15.6054  -23.3302   -3.5517 C   0  0  0  0  0  0  0  0  0  0  0  0
   15.2741  -24.4512   -4.2776 C   0  0  0  0  0  0  0  0  0  0  0  0
   16.0309  -24.8857   -5.4480 C   0  0  0  0  0  0  0  0  0  0  0  0
   17.3846  -25.4847   -5.1365 C   0  0  2  0  0  0  0  0  0  0  0  0
   18.0720  -25.7131   -6.3831 N   0  0  0  0  0  0  0  0  0  0  0  0
   17.3215  -26.6890   -4.2887 C   0  0  0  0  0  0  0  0  0  0  0  0
   16.6325  -27.6985   -4.5871 O   0  0  0  0  0  0  0  0  0  0  0  0
   14.1785  -25.1801   -3.8737 C   0  0  0  0  0  0  0  0  0  0  0  0
   13.4224  -24.8130   -2.7759 C   0  0  0  0  0  0  0  0  0  0  0  0
   18.8695  -26.6244    4.3097 N   0  0  0  0  0  0  0  0  0  0  0  0
   18.1926  -25.9586    3.2571 C   0  0  0  0  0  0  0  0  0  0  0  0
   17.8069  -24.7290    3.3335 N   0  0  0  0  0  0  0  0  0  0  0  0
   17.8829  -26.5958    2.0223 N   0  0  0  0  0  0  0  0  0  0  0  0
   18.1041  -27.9367    1.7014 C   0  0  0  0  0  0  0  0  0  0  0  0
   17.7174  -28.4432    0.3693 C   0  0  0  0  0  0  0  0  0  0  0  0
   17.9844  -27.3622   -0.6445 C   0  0  0  0  0  0  0  0  0  0  0  0
   17.6910  -27.7590   -2.0455 C   0  0  2  0  0  0  0  0  0  0  0  0
   18.0493  -26.7950   -3.0491 N   0  0  0  0  0  0  0  0  0  0  0  0
   16.2138  -28.0467   -2.1389 C   0  0  0  0  0  0  0  0  0  0  0  0
   15.7775  -29.3474   -2.3249 O   0  0  0  0  0  0  0  0  0  0  0  0
   15.3478  -27.1446   -2.0541 O   0  0  0  0  0  0  0  0  0  0  0  0
  2  1  1  6
  2  9  1  0
  2  3  1  0
  4  3  1  0
  5  4  2  0
  6  7  1  0
  6  5  1  0
  7  8  2  0
  8  4  1  0
  9 10  2  0
 11 12  1  0
 12 22  2  0
 13 12  1  0
 13 14  2  0
 14 15  1  0
 15 21  2  0
 15 16  1  0
 17 16  1  6
 18 17  1  0
 18  9  1  0
 19 17  1  0
 20 19  2  0
 22 21  1  0
 23 24  1  0
 24 26  1  0
 25 24  2  0
 26 27  1  0
 27 28  1  0
 28 29  1  0
 30 29  1  1
 30 31  1  0
 31 19  1  0
 32 30  1  0
 32 33  1  0
 34 32  2  0
M  END
$$$$
