HYR.pdb
     RDKit          3D

 34 35  0  0  1  0  0  0  0  0999 V2000
   16.5032  -18.1810    2.9640 N   0  0  0  0  0  0  0  0  0  0  0  0
   15.9301  -17.1853    3.8495 C   0  0  1  0  0  0  0  0  0  0  0  0
   15.1558  -17.9163    4.9143 C   0  0  0  0  0  0  0  0  0  0  0  0
   13.9988  -18.5620    4.2578 C   0  0  0  0  0  0  0  0  0  0  0  0
   12.8083  -17.9826    3.8995 C   0  0  0  0  0  0  0  0  0  0  0  0
   12.0122  -18.9309    3.3194 N   0  0  0  0  0  0  0  0  0  0  0  0
   12.7046  -20.0785    3.3212 C   0  0  0  0  0  0  0  0  0  0  0  0
   13.9049  -19.8506    3.8896 N   0  0  0  0  0  0  0  0  0  0  0  0
   17.0504  -16.3680    4.3878 C   0  0  0  0  0  0  0  0  0  0  0  0
   18.0682  -16.0611    3.7149 O   0  0  0  0  0  0  0  0  0  0  0  0
   21.5449   -9.7629    7.4108 O   0  0  0  0  0  0  0  0  0  0  0  0
   20.6613  -10.7368    6.9548 C   0  0  0  0  0  0  0  0  0  0  0  0
   19.5334  -11.0616    7.6802 C   0  0  0  0  0  0  0  0  0  0  0  0
   18.6621  -12.0304    7.2191 C   0  0  0  0  0  0  0  0  0  0  0  0
   18.8955  -12.6903    6.0345 C   0  0  0  0  0  0  0  0  0  0  0  0
   18.0021  -13.7225    5.5167 C   0  0  0  0  0  0  0  0  0  0  0  0
   17.9992  -15.0099    6.3110 C   0  0  2  0  0  0  0  0  0  0  0  0
   17.0033  -15.8849    5.7442 N   0  0  0  0  0  0  0  0  0  0  0  0
   17.8292  -14.8133    7.7621 C   0  0  0  0  0  0  0  0  0  0  0  0
   16.7012  -14.7702    8.3176 O   0  0  0  0  0  0  0  0  0  0  0  0
   20.0245  -12.3556    5.3217 C   0  0  0  0  0  0  0  0  0  0  0  0
   20.9081  -11.3895    5.7662 C   0  0  0  0  0  0  0  0  0  0  0  0
   16.9269  -21.3215   11.2009 N   0  0  0  0  0  0  0  0  0  0  0  0
   16.3118  -20.4736   10.2460 C   0  0  0  0  0  0  0  0  0  0  0  0
   15.4746  -20.8996    9.3604 N   0  0  0  0  0  0  0  0  0  0  0  0
   16.5680  -19.0745   10.1870 N   0  0  0  0  0  0  0  0  0  0  0  0
   17.4050  -18.3471   11.0357 C   0  0  0  0  0  0  0  0  0  0  0  0
   17.4405  -16.8739   10.9412 C   0  0  0  0  0  0  0  0  0  0  0  0
   18.7503  -16.4705   10.3172 C   0  0  0  0  0  0  0  0  0  0  0  0
   18.8679  -15.0158   10.0411 C   0  0  2  0  0  0  0  0  0  0  0  0
   18.9515  -14.6548    8.6527 N   0  0  0  0  0  0  0  0  0  0  0  0
   20.0943  -14.5122   10.7593 C   0  0  0  0  0  0  0  0  0  0  0  0
   20.0557  -14.3143   12.1290 O   0  0  0  0  0  0  0  0  0  0  0  0
   21.1663  -14.2602   10.1608 O   0  0  0  0  0  0  0  0  0  0  0  0
  2  1  1  6
  2  9  1  0
  2  3  1  0
  4  3  1  0
  5  4  2  0
  6  7  1  0
  6  5  1  0
  7  8  2  0
  8  4  1  0
  9 10  2  0
 11 12  1  0
 12 22  2  0
 13 12  1  0
 13 14  2  0
 14 15  1  0
 15 21  2  0
 15 16  1  0
 17 16  1  6
 18 17  1  0
 18  9  1  0
 19 17  1  0
 20 19  2  0
 22 21  1  0
 23 24  1  0
 24 26  1  0
 25 24  2  0
 26 27  1  0
 27 28  1  0
 28 29  1  0
 30 29  1  6
 30 31  1  0
 31 19  1  0
 32 30  1  0
 32 33  1  0
 34 32  2  0
M  END
$$$$
