HYR.pdb
     RDKit          3D

 34 35  0  0  1  0  0  0  0  0999 V2000
   27.4855  -15.8225  -19.1698 N   0  0  0  0  0  0  0  0  0  0  0  0
   26.3376  -15.7329  -18.2876 C   0  0  1  0  0  0  0  0  0  0  0  0
   25.1165  -15.5460  -19.1486 C   0  0  0  0  0  0  0  0  0  0  0  0
   25.1532  -14.1657  -19.6779 C   0  0  0  0  0  0  0  0  0  0  0  0
   24.5655  -13.0477  -19.1431 C   0  0  0  0  0  0  0  0  0  0  0  0
   24.8441  -11.9756  -19.9448 N   0  0  0  0  0  0  0  0  0  0  0  0
   25.5935  -12.4290  -20.9594 C   0  0  0  0  0  0  0  0  0  0  0  0
   25.7775  -13.7536  -20.7937 N   0  0  0  0  0  0  0  0  0  0  0  0
   26.3024  -16.9764  -17.4720 C   0  0  0  0  0  0  0  0  0  0  0  0
   26.9479  -18.0153  -17.7668 O   0  0  0  0  0  0  0  0  0  0  0  0
   26.7250  -21.8782  -10.2854 O   0  0  0  0  0  0  0  0  0  0  0  0
   26.6418  -20.8830  -11.2548 C   0  0  0  0  0  0  0  0  0  0  0  0
   27.4863  -20.8882  -12.3459 C   0  0  0  0  0  0  0  0  0  0  0  0
   27.3961  -19.8952  -13.3031 C   0  0  0  0  0  0  0  0  0  0  0  0
   26.4691  -18.8843  -13.1932 C   0  0  0  0  0  0  0  0  0  0  0  0
   26.3461  -17.8155  -14.1801 C   0  0  0  0  0  0  0  0  0  0  0  0
   25.4898  -18.1599  -15.3786 C   0  0  2  0  0  0  0  0  0  0  0  0
   25.5002  -17.0321  -16.2768 N   0  0  0  0  0  0  0  0  0  0  0  0
   24.1272  -18.6008  -15.0293 C   0  0  0  0  0  0  0  0  0  0  0  0
   23.3258  -17.8866  -14.3732 O   0  0  0  0  0  0  0  0  0  0  0  0
   25.6333  -18.8923  -12.0995 C   0  0  0  0  0  0  0  0  0  0  0  0
   25.7081  -19.8766  -11.1314 C   0  0  0  0  0  0  0  0  0  0  0  0
   24.7539  -26.9785  -14.7205 N   0  0  0  0  0  0  0  0  0  0  0  0
   25.4861  -26.1373  -15.5954 C   0  0  0  0  0  0  0  0  0  0  0  0
   26.4244  -26.5707  -16.3690 N   0  0  0  0  0  0  0  0  0  0  0  0
   25.2433  -24.7380  -15.6935 N   0  0  0  0  0  0  0  0  0  0  0  0
   24.3246  -24.0001  -14.9444 C   0  0  0  0  0  0  0  0  0  0  0  0
   24.1756  -22.5517  -15.1906 C   0  0  0  0  0  0  0  0  0  0  0  0
   23.0442  -22.0402  -14.3387 C   0  0  0  0  0  0  0  0  0  0  0  0
   22.6957  -20.6173  -14.5840 C   0  0  2  0  0  0  0  0  0  0  0  0
   23.6139  -19.8907  -15.4171 N   0  0  0  0  0  0  0  0  0  0  0  0
   22.5948  -19.9342  -13.2437 C   0  0  0  0  0  0  0  0  0  0  0  0
   23.4610  -20.2903  -12.2240 O   0  0  0  0  0  0  0  0  0  0  0  0
   21.7465  -19.0423  -13.0072 O   0  0  0  0  0  0  0  0  0  0  0  0
  2  1  1  6
  2  9  1  0
  2  3  1  0
  4  3  1  0
  5  4  2  0
  6  7  1  0
  6  5  1  0
  7  8  2  0
  8  4  1  0
  9 10  2  0
 11 12  1  0
 12 22  2  0
 13 12  1  0
 13 14  2  0
 14 15  1  0
 15 21  2  0
 15 16  1  0
 17 16  1  1
 18 17  1  0
 18  9  1  0
 19 17  1  0
 20 19  2  0
 22 21  1  0
 23 24  1  0
 24 26  1  0
 25 24  2  0
 26 27  1  0
 27 28  1  0
 28 29  1  0
 30 29  1  1
 30 31  1  0
 31 19  1  0
 32 30  1  0
 32 33  1  0
 34 32  2  0
M  END
$$$$
