YDW.pdb
     RDKit          3D

 35 37  0  0  1  0  0  0  0  0999 V2000
    7.7318  -11.5510   16.7856 O   0  0  0  0  0  0  0  0  0  0  0  0
    7.9181  -12.3640   17.9211 C   0  0  0  0  0  0  0  0  0  0  0  0
    6.8415  -12.8954   18.6012 C   0  0  0  0  0  0  0  0  0  0  0  0
    6.9639  -13.6948   19.7151 C   0  0  0  0  0  0  0  0  0  0  0  0
    8.2436  -13.9709   20.1639 C   0  0  0  0  0  0  0  0  0  0  0  0
    8.3795  -14.8284   21.3590 C   0  0  0  0  0  0  0  0  0  0  0  0
    8.9407  -16.1931   21.0190 C   0  0  2  0  0  0  0  0  0  0  0  0
    8.0631  -16.8741   20.0954 N   0  0  0  0  0  0  0  0  0  0  0  0
    9.0732  -16.9387   22.3024 C   0  0  0  0  0  0  0  0  0  0  0  0
    8.0744  -17.2608   22.9951 O   0  0  0  0  0  0  0  0  0  0  0  0
    9.3582  -13.4579   19.5111 C   0  0  0  0  0  0  0  0  0  0  0  0
    9.1785  -12.6577   18.3934 C   0  0  0  0  0  0  0  0  0  0  0  0
   10.3603  -17.2920   22.7515 N   0  0  0  0  0  0  0  0  0  0  0  0
   10.5756  -17.9713   24.0289 C   0  0  1  0  0  0  0  0  0  0  0  0
   11.7660  -18.8763   23.8666 C   0  0  0  0  0  0  0  0  0  0  0  0
   11.5487  -19.8340   22.7552 C   0  0  0  0  0  0  0  0  0  0  0  0
   10.6277  -20.6963   22.8375 O   0  0  0  0  0  0  0  0  0  0  0  0
   10.8059  -16.9355   25.0696 C   0  0  0  0  0  0  0  0  0  0  0  0
   11.5714  -15.9859   24.8910 O   0  0  0  0  0  0  0  0  0  0  0  0
   12.3362  -19.8103   21.6153 O   0  0  0  0  0  0  0  0  0  0  0  0
   10.1128  -17.0620   26.2986 N   0  0  0  0  0  0  0  0  0  0  0  0
   10.7004  -16.4948   27.4918 C   0  0  1  0  0  0  0  0  0  0  0  0
   10.2842  -15.0194   27.4907 C   0  0  0  0  0  0  0  0  0  0  0  0
    8.9125  -14.9437   26.9442 C   0  0  0  0  0  0  0  0  0  0  0  0
    8.0788  -16.0257   26.6509 C   0  0  0  0  0  0  0  0  0  0  0  0
    6.9135  -15.5723   26.1663 N   0  0  0  0  0  0  0  0  0  0  0  0
    6.9233  -14.2230   26.1190 C   0  0  0  0  0  0  0  0  0  0  0  0
    5.9678  -13.3077   25.7003 C   0  0  0  0  0  0  0  0  0  0  0  0
    6.2958  -11.9755   25.7811 C   0  0  0  0  0  0  0  0  0  0  0  0
    7.5412  -11.5671   26.2654 C   0  0  0  0  0  0  0  0  0  0  0  0
    8.4661  -12.4821   26.6715 C   0  0  0  0  0  0  0  0  0  0  0  0
    8.1696  -13.8309   26.6040 C   0  0  0  0  0  0  0  0  0  0  0  0
   10.1343  -17.1683   28.6656 C   0  0  0  0  0  0  0  0  0  0  0  0
    9.2804  -18.0811   28.5074 O   0  0  0  0  0  0  0  0  0  0  0  0
   10.5252  -16.8139   29.9373 O   0  0  0  0  0  0  0  0  0  0  0  0
  2  1  1  0
  3  2  2  0
  4  3  1  0
  5 11  1  0
  5  4  2  0
  6  5  1  0
  7  6  1  0
  7  8  1  6
  9  7  1  0
  9 10  2  0
 11 12  2  0
 12  2  1  0
 13  9  1  0
 14 15  1  6
 14 13  1  0
 16 15  1  0
 17 16  2  0
 18 14  1  0
 19 18  2  0
 20 16  1  0
 21 18  1  0
 22 23  1  1
 22 21  1  0
 23 24  1  0
 24 32  1  0
 25 26  1  0
 25 24  2  0
 26 27  1  0
 27 32  2  0
 27 28  1  0
 28 29  2  0
 29 30  1  0
 31 30  2  0
 32 31  1  0
 33 22  1  0
 33 35  1  0
 34 33  2  0
M  END
$$$$
