YDW.pdb
     RDKit          3D

 35 37  0  0  1  0  0  0  0  0999 V2000
    8.7561  -12.2108   17.7339 O   0  0  0  0  0  0  0  0  0  0  0  0
    8.3448  -12.9299   18.8735 C   0  0  0  0  0  0  0  0  0  0  0  0
    8.2800  -12.3255   20.1123 C   0  0  0  0  0  0  0  0  0  0  0  0
    7.8859  -12.9782   21.2583 C   0  0  0  0  0  0  0  0  0  0  0  0
    7.5391  -14.3131   21.1441 C   0  0  0  0  0  0  0  0  0  0  0  0
    7.1157  -15.0176   22.3715 C   0  0  0  0  0  0  0  0  0  0  0  0
    6.9710  -16.5086   22.1504 C   0  0  2  0  0  0  0  0  0  0  0  0
    5.5951  -16.9066   22.3389 N   0  0  0  0  0  0  0  0  0  0  0  0
    7.8758  -17.1806   23.1251 C   0  0  0  0  0  0  0  0  0  0  0  0
    7.4669  -17.6013   24.2373 O   0  0  0  0  0  0  0  0  0  0  0  0
    7.5887  -14.9641   19.9171 C   0  0  0  0  0  0  0  0  0  0  0  0
    7.9929  -14.2595   18.7937 C   0  0  0  0  0  0  0  0  0  0  0  0
    9.2325  -17.3479   22.7868 N   0  0  0  0  0  0  0  0  0  0  0  0
   10.1805  -18.0029   23.6880 C   0  0  1  0  0  0  0  0  0  0  0  0
   11.3201  -18.5173   22.8518 C   0  0  0  0  0  0  0  0  0  0  0  0
   12.3108  -19.2278   23.6964 C   0  0  0  0  0  0  0  0  0  0  0  0
   11.9161  -19.9922   24.6230 O   0  0  0  0  0  0  0  0  0  0  0  0
   10.6355  -17.0010   24.6869 C   0  0  0  0  0  0  0  0  0  0  0  0
   11.3540  -16.0479   24.3787 O   0  0  0  0  0  0  0  0  0  0  0  0
   13.6735  -19.0755   23.4965 O   0  0  0  0  0  0  0  0  0  0  0  0
   10.2181  -17.1648   26.0307 N   0  0  0  0  0  0  0  0  0  0  0  0
   11.0326  -16.6061   27.0867 C   0  0  1  0  0  0  0  0  0  0  0  0
   10.4744  -15.1996   27.3327 C   0  0  0  0  0  0  0  0  0  0  0  0
    9.0197  -15.2457   27.0722 C   0  0  0  0  0  0  0  0  0  0  0  0
    8.2281  -16.3948   27.0053 C   0  0  0  0  0  0  0  0  0  0  0  0
    6.9590  -16.0475   26.7457 N   0  0  0  0  0  0  0  0  0  0  0  0
    6.8579  -14.7058   26.6336 C   0  0  0  0  0  0  0  0  0  0  0  0
    5.7723  -13.8810   26.3742 C   0  0  0  0  0  0  0  0  0  0  0  0
    6.0089  -12.5281   26.3238 C   0  0  0  0  0  0  0  0  0  0  0  0
    7.2914  -12.0118   26.5262 C   0  0  0  0  0  0  0  0  0  0  0  0
    8.3445  -12.8391   26.7795 C   0  0  0  0  0  0  0  0  0  0  0  0
    8.1426  -14.2057   26.8373 C   0  0  0  0  0  0  0  0  0  0  0  0
   10.8688  -17.4223   28.2944 C   0  0  0  0  0  0  0  0  0  0  0  0
   10.0721  -18.3983   28.2823 O   0  0  0  0  0  0  0  0  0  0  0  0
   11.5753  -17.1336   29.4404 O   0  0  0  0  0  0  0  0  0  0  0  0
  2  1  1  0
  3  2  2  0
  4  3  1  0
  5 11  1  0
  5  4  2  0
  6  5  1  0
  7  6  1  0
  7  8  1  1
  9  7  1  0
  9 10  2  0
 11 12  2  0
 12  2  1  0
 13  9  1  0
 14 15  1  6
 14 13  1  0
 16 15  1  0
 17 16  2  0
 18 14  1  0
 19 18  2  0
 20 16  1  0
 21 18  1  0
 22 23  1  1
 22 21  1  0
 23 24  1  0
 24 32  1  0
 25 26  1  0
 25 24  2  0
 26 27  1  0
 27 32  2  0
 27 28  1  0
 28 29  2  0
 29 30  1  0
 31 30  2  0
 32 31  1  0
 33 22  1  0
 33 35  1  0
 34 33  2  0
M  END
$$$$
