YDW.pdb
     RDKit          3D

 35 37  0  0  1  0  0  0  0  0999 V2000
    8.7245  -11.7930   18.6603 O   0  0  0  0  0  0  0  0  0  0  0  0
    8.1785  -12.8871   19.3602 C   0  0  0  0  0  0  0  0  0  0  0  0
    7.2528  -13.7216   18.7679 C   0  0  0  0  0  0  0  0  0  0  0  0
    6.6869  -14.8037   19.4031 C   0  0  0  0  0  0  0  0  0  0  0  0
    7.0788  -15.0542   20.7065 C   0  0  0  0  0  0  0  0  0  0  0  0
    6.4738  -16.2144   21.3920 C   0  0  0  0  0  0  0  0  0  0  0  0
    6.9833  -16.3666   22.8098 C   0  0  2  0  0  0  0  0  0  0  0  0
    7.0059  -15.0814   23.4692 N   0  0  0  0  0  0  0  0  0  0  0  0
    8.3465  -16.9613   22.7184 C   0  0  0  0  0  0  0  0  0  0  0  0
    8.5485  -18.0982   22.2207 O   0  0  0  0  0  0  0  0  0  0  0  0
    8.0084  -14.2412   21.3442 C   0  0  0  0  0  0  0  0  0  0  0  0
    8.5476  -13.1638   20.6584 C   0  0  0  0  0  0  0  0  0  0  0  0
    9.4421  -16.2236   23.2069 N   0  0  0  0  0  0  0  0  0  0  0  0
   10.7966  -16.7753   23.2354 C   0  0  1  0  0  0  0  0  0  0  0  0
   11.6494  -15.9316   22.3279 C   0  0  0  0  0  0  0  0  0  0  0  0
   13.0314  -16.4658   22.2612 C   0  0  0  0  0  0  0  0  0  0  0  0
   13.9973  -15.7700   22.6872 O   0  0  0  0  0  0  0  0  0  0  0  0
   11.2803  -16.7395   24.6402 C   0  0  0  0  0  0  0  0  0  0  0  0
   12.4232  -17.0836   24.9487 O   0  0  0  0  0  0  0  0  0  0  0  0
   13.2972  -17.7214   21.7386 O   0  0  0  0  0  0  0  0  0  0  0  0
   10.3834  -16.2917   25.6411 N   0  0  0  0  0  0  0  0  0  0  0  0
   10.7955  -16.3559   27.0256 C   0  0  1  0  0  0  0  0  0  0  0  0
   10.1868  -15.1162   27.6911 C   0  0  0  0  0  0  0  0  0  0  0  0
    8.8166  -14.9530   27.1604 C   0  0  0  0  0  0  0  0  0  0  0  0
    7.8982  -15.9765   26.9144 C   0  0  0  0  0  0  0  0  0  0  0  0
    6.7635  -15.4507   26.4302 N   0  0  0  0  0  0  0  0  0  0  0  0
    6.8757  -14.1084   26.3375 C   0  0  0  0  0  0  0  0  0  0  0  0
    5.9866  -13.1363   25.9010 C   0  0  0  0  0  0  0  0  0  0  0  0
    6.4167  -11.8314   25.9328 C   0  0  0  0  0  0  0  0  0  0  0  0
    7.6971  -11.5045   26.3870 C   0  0  0  0  0  0  0  0  0  0  0  0
    8.5555  -12.4744   26.8113 C   0  0  0  0  0  0  0  0  0  0  0  0
    8.1557  -13.7979   26.7929 C   0  0  0  0  0  0  0  0  0  0  0  0
   10.2354  -17.5687   27.6314 C   0  0  0  0  0  0  0  0  0  0  0  0
    9.4282  -18.2773   26.9728 O   0  0  0  0  0  0  0  0  0  0  0  0
   10.5814  -17.9408   28.9111 O   0  0  0  0  0  0  0  0  0  0  0  0
  2  1  1  0
  3  2  2  0
  4  3  1  0
  5 11  1  0
  5  4  2  0
  6  5  1  0
  7  6  1  0
  7  8  1  6
  9  7  1  0
  9 10  2  0
 11 12  2  0
 12  2  1  0
 13  9  1  0
 14 15  1  6
 14 13  1  0
 16 15  1  0
 17 16  2  0
 18 14  1  0
 19 18  2  0
 20 16  1  0
 21 18  1  0
 22 23  1  1
 22 21  1  0
 23 24  1  0
 24 32  1  0
 25 26  1  0
 25 24  2  0
 26 27  1  0
 27 32  2  0
 27 28  1  0
 28 29  2  0
 29 30  1  0
 31 30  2  0
 32 31  1  0
 33 22  1  0
 33 35  1  0
 34 33  2  0
M  END
$$$$
