YDW.pdb
     RDKit          3D

 35 37  0  0  1  0  0  0  0  0999 V2000
    0.9101  -19.8645   19.8162 O   0  0  0  0  0  0  0  0  0  0  0  0
    2.1357  -19.4789   20.3944 C   0  0  0  0  0  0  0  0  0  0  0  0
    3.0527  -18.7291   19.6867 C   0  0  0  0  0  0  0  0  0  0  0  0
    4.2641  -18.3247   20.2002 C   0  0  0  0  0  0  0  0  0  0  0  0
    4.5628  -18.6992   21.4986 C   0  0  0  0  0  0  0  0  0  0  0  0
    5.8619  -18.2675   22.0536 C   0  0  0  0  0  0  0  0  0  0  0  0
    7.0301  -18.8491   21.2854 C   0  0  2  0  0  0  0  0  0  0  0  0
    6.8723  -20.2787   21.1503 N   0  0  0  0  0  0  0  0  0  0  0  0
    8.2639  -18.5019   22.0454 C   0  0  0  0  0  0  0  0  0  0  0  0
    8.7292  -19.2493   22.9431 O   0  0  0  0  0  0  0  0  0  0  0  0
    3.6701  -19.4543   22.2501 C   0  0  0  0  0  0  0  0  0  0  0  0
    2.4633  -19.8353   21.6843 C   0  0  0  0  0  0  0  0  0  0  0  0
    8.9276  -17.2964   21.7464 N   0  0  0  0  0  0  0  0  0  0  0  0
   10.0696  -16.8259   22.5301 C   0  0  1  0  0  0  0  0  0  0  0  0
   10.7151  -15.7044   21.7632 C   0  0  0  0  0  0  0  0  0  0  0  0
   12.0066  -16.1431   21.1806 C   0  0  0  0  0  0  0  0  0  0  0  0
   12.1453  -16.1979   19.9250 O   0  0  0  0  0  0  0  0  0  0  0  0
    9.5666  -16.3735   23.8533 C   0  0  0  0  0  0  0  0  0  0  0  0
    8.3623  -16.2805   24.0997 O   0  0  0  0  0  0  0  0  0  0  0  0
   13.0785  -16.4992   21.9832 O   0  0  0  0  0  0  0  0  0  0  0  0
   10.5185  -16.0442   24.8495 N   0  0  0  0  0  0  0  0  0  0  0  0
   10.0898  -15.9790   26.2289 C   0  0  1  0  0  0  0  0  0  0  0  0
    8.7060  -16.6382   26.2583 C   0  0  0  0  0  0  0  0  0  0  0  0
    7.6970  -15.5581   26.2206 C   0  0  0  0  0  0  0  0  0  0  0  0
    6.3343  -15.7091   25.9527 C   0  0  0  0  0  0  0  0  0  0  0  0
    5.7352  -14.5102   25.9989 N   0  0  0  0  0  0  0  0  0  0  0  0
    6.6390  -13.5498   26.2881 C   0  0  0  0  0  0  0  0  0  0  0  0
    6.5088  -12.1766   26.4416 C   0  0  0  0  0  0  0  0  0  0  0  0
    7.6471  -11.4670   26.7409 C   0  0  0  0  0  0  0  0  0  0  0  0
    8.8806  -12.1080   26.8829 C   0  0  0  0  0  0  0  0  0  0  0  0
    8.9873  -13.4578   26.7278 C   0  0  0  0  0  0  0  0  0  0  0  0
    7.8623  -14.2030   26.4265 C   0  0  0  0  0  0  0  0  0  0  0  0
   11.0246  -16.7525   27.0532 C   0  0  0  0  0  0  0  0  0  0  0  0
   10.8415  -16.8273   28.2975 O   0  0  0  0  0  0  0  0  0  0  0  0
   12.0993  -17.3968   26.4827 O   0  0  0  0  0  0  0  0  0  0  0  0
  2  1  1  0
  3  2  2  0
  4  3  1  0
  5 11  1  0
  5  4  2  0
  6  5  1  0
  7  6  1  0
  7  8  1  1
  9  7  1  0
  9 10  2  0
 11 12  2  0
 12  2  1  0
 13  9  1  0
 14 15  1  6
 14 13  1  0
 16 15  1  0
 17 16  2  0
 18 14  1  0
 19 18  2  0
 20 16  1  0
 21 18  1  0
 22 23  1  6
 22 21  1  0
 23 24  1  0
 24 32  1  0
 25 26  1  0
 25 24  2  0
 26 27  1  0
 27 32  2  0
 27 28  1  0
 28 29  2  0
 29 30  1  0
 31 30  2  0
 32 31  1  0
 33 22  1  0
 33 35  1  0
 34 33  2  0
M  END
$$$$
