YDW.pdb
     RDKit          3D

 35 37  0  0  1  0  0  0  0  0999 V2000
    7.8625  -11.9384   19.6779 O   0  0  0  0  0  0  0  0  0  0  0  0
    7.6267  -13.1628   20.3339 C   0  0  0  0  0  0  0  0  0  0  0  0
    7.4194  -14.3252   19.6198 C   0  0  0  0  0  0  0  0  0  0  0  0
    7.1845  -15.5479   20.2069 C   0  0  0  0  0  0  0  0  0  0  0  0
    7.1583  -15.5962   21.5898 C   0  0  0  0  0  0  0  0  0  0  0  0
    6.9065  -16.9063   22.2240 C   0  0  0  0  0  0  0  0  0  0  0  0
    7.7636  -18.0020   21.6258 C   0  0  2  0  0  0  0  0  0  0  0  0
    7.0707  -19.2677   21.6959 N   0  0  0  0  0  0  0  0  0  0  0  0
    9.0358  -18.0284   22.4012 C   0  0  0  0  0  0  0  0  0  0  0  0
    9.3689  -19.0145   23.1068 O   0  0  0  0  0  0  0  0  0  0  0  0
    7.3619  -14.4512   22.3509 C   0  0  0  0  0  0  0  0  0  0  0  0
    7.5943  -13.2449   21.7088 C   0  0  0  0  0  0  0  0  0  0  0  0
    9.8903  -16.9107   22.3401 N   0  0  0  0  0  0  0  0  0  0  0  0
   11.2328  -16.9295   22.9206 C   0  0  1  0  0  0  0  0  0  0  0  0
   12.0052  -15.7898   22.3147 C   0  0  0  0  0  0  0  0  0  0  0  0
   12.7759  -16.2485   21.1334 C   0  0  0  0  0  0  0  0  0  0  0  0
   13.3609  -15.4042   20.3961 O   0  0  0  0  0  0  0  0  0  0  0  0
   11.1008  -16.7867   24.3940 C   0  0  0  0  0  0  0  0  0  0  0  0
   12.0674  -16.5376   25.1175 O   0  0  0  0  0  0  0  0  0  0  0  0
   12.8740  -17.5925   20.8110 O   0  0  0  0  0  0  0  0  0  0  0  0
    9.8139  -16.9450   24.9649 N   0  0  0  0  0  0  0  0  0  0  0  0
    9.6643  -16.8052   26.3962 C   0  0  1  0  0  0  0  0  0  0  0  0
    8.1599  -16.9289   26.6639 C   0  0  0  0  0  0  0  0  0  0  0  0
    7.5159  -15.6940   26.1676 C   0  0  0  0  0  0  0  0  0  0  0  0
    6.4040  -15.6230   25.3249 C   0  0  0  0  0  0  0  0  0  0  0  0
    6.1083  -14.3373   25.0840 N   0  0  0  0  0  0  0  0  0  0  0  0
    6.9773  -13.5315   25.7310 C   0  0  0  0  0  0  0  0  0  0  0  0
    7.0832  -12.1491   25.7920 C   0  0  0  0  0  0  0  0  0  0  0  0
    8.1012  -11.6299   26.5555 C   0  0  0  0  0  0  0  0  0  0  0  0
    8.9888  -12.4651   27.2389 C   0  0  0  0  0  0  0  0  0  0  0  0
    8.8677  -13.8207   27.1658 C   0  0  0  0  0  0  0  0  0  0  0  0
    7.8549  -14.3772   26.4068 C   0  0  0  0  0  0  0  0  0  0  0  0
   10.3771  -17.9037   27.0572 C   0  0  0  0  0  0  0  0  0  0  0  0
   10.9175  -18.8033   26.3599 O   0  0  0  0  0  0  0  0  0  0  0  0
   10.4616  -17.9629   28.4301 O   0  0  0  0  0  0  0  0  0  0  0  0
  2  1  1  0
  3  2  2  0
  4  3  1  0
  5 11  1  0
  5  4  2  0
  6  5  1  0
  7  6  1  0
  7  8  1  1
  9  7  1  0
  9 10  2  0
 11 12  2  0
 12  2  1  0
 13  9  1  0
 14 15  1  6
 14 13  1  0
 16 15  1  0
 17 16  2  0
 18 14  1  0
 19 18  2  0
 20 16  1  0
 21 18  1  0
 22 23  1  6
 22 21  1  0
 23 24  1  0
 24 32  1  0
 25 26  1  0
 25 24  2  0
 26 27  1  0
 27 32  2  0
 27 28  1  0
 28 29  2  0
 29 30  1  0
 31 30  2  0
 32 31  1  0
 33 22  1  0
 33 35  1  0
 34 33  2  0
M  END
$$$$
