YDW.pdb
     RDKit          3D

 35 37  0  0  1  0  0  0  0  0999 V2000
    7.2240  -12.5725   16.1630 O   0  0  0  0  0  0  0  0  0  0  0  0
    7.3637  -13.1551   17.4382 C   0  0  0  0  0  0  0  0  0  0  0  0
    7.9054  -12.4454   18.4903 C   0  0  0  0  0  0  0  0  0  0  0  0
    8.0658  -12.9631   19.7556 C   0  0  0  0  0  0  0  0  0  0  0  0
    7.6560  -14.2680   19.9669 C   0  0  0  0  0  0  0  0  0  0  0  0
    7.8264  -14.8276   21.3233 C   0  0  0  0  0  0  0  0  0  0  0  0
    9.2861  -14.9800   21.6964 C   0  0  2  0  0  0  0  0  0  0  0  0
   10.0052  -15.6347   20.6281 N   0  0  0  0  0  0  0  0  0  0  0  0
    9.3302  -15.7747   22.9561 C   0  0  0  0  0  0  0  0  0  0  0  0
    8.5240  -15.5769   23.9006 O   0  0  0  0  0  0  0  0  0  0  0  0
    7.1045  -15.0216   18.9375 C   0  0  0  0  0  0  0  0  0  0  0  0
    6.9656  -14.4514   17.6815 C   0  0  0  0  0  0  0  0  0  0  0  0
   10.3084  -16.7788   23.0904 N   0  0  0  0  0  0  0  0  0  0  0  0
   10.4581  -17.5548   24.3213 C   0  0  1  0  0  0  0  0  0  0  0  0
   11.4475  -18.6541   24.0472 C   0  0  0  0  0  0  0  0  0  0  0  0
   11.0090  -19.4785   22.8949 C   0  0  0  0  0  0  0  0  0  0  0  0
   11.7070  -19.5106   21.8411 O   0  0  0  0  0  0  0  0  0  0  0  0
   10.9323  -16.6377   25.3904 C   0  0  0  0  0  0  0  0  0  0  0  0
   11.9219  -15.9172   25.2445 O   0  0  0  0  0  0  0  0  0  0  0  0
    9.8415  -20.2235   22.9409 O   0  0  0  0  0  0  0  0  0  0  0  0
   10.2089  -16.6055   26.6080 N   0  0  0  0  0  0  0  0  0  0  0  0
   10.8959  -16.2078   27.8166 C   0  0  1  0  0  0  0  0  0  0  0  0
   10.1877  -14.9326   28.2885 C   0  0  0  0  0  0  0  0  0  0  0  0
    8.8858  -14.8620   27.5914 C   0  0  0  0  0  0  0  0  0  0  0  0
    8.0142  -15.9286   27.3580 C   0  0  0  0  0  0  0  0  0  0  0  0
    6.9366  -15.4867   26.6933 N   0  0  0  0  0  0  0  0  0  0  0  0
    7.0424  -14.1600   26.4659 C   0  0  0  0  0  0  0  0  0  0  0  0
    6.1978  -13.2634   25.8266 C   0  0  0  0  0  0  0  0  0  0  0  0
    6.6055  -11.9525   25.7622 C   0  0  0  0  0  0  0  0  0  0  0  0
    7.8210  -11.5467   26.3192 C   0  0  0  0  0  0  0  0  0  0  0  0
    8.6366  -12.4432   26.9427 C   0  0  0  0  0  0  0  0  0  0  0  0
    8.2576  -13.7703   27.0259 C   0  0  0  0  0  0  0  0  0  0  0  0
   10.7368  -17.2638   28.8221 C   0  0  0  0  0  0  0  0  0  0  0  0
   11.2672  -17.1274   29.9568 O   0  0  0  0  0  0  0  0  0  0  0  0
   10.0151  -18.4019   28.5397 O   0  0  0  0  0  0  0  0  0  0  0  0
  2  1  1  0
  3  2  2  0
  4  3  1  0
  5 11  1  0
  5  4  2  0
  6  5  1  0
  7  6  1  0
  7  8  1  6
  9  7  1  0
  9 10  2  0
 11 12  2  0
 12  2  1  0
 13  9  1  0
 14 15  1  6
 14 13  1  0
 16 15  1  0
 17 16  2  0
 18 14  1  0
 19 18  2  0
 20 16  1  0
 21 18  1  0
 22 23  1  1
 22 21  1  0
 23 24  1  0
 24 32  1  0
 25 26  1  0
 25 24  2  0
 26 27  1  0
 27 32  2  0
 27 28  1  0
 28 29  2  0
 29 30  1  0
 31 30  2  0
 32 31  1  0
 33 22  1  0
 33 35  1  0
 34 33  2  0
M  END
$$$$
