YDW.pdb
     RDKit          3D

 35 37  0  0  1  0  0  0  0  0999 V2000
    7.5474  -11.3749   17.6340 O   0  0  0  0  0  0  0  0  0  0  0  0
    7.6720  -12.3348   18.6578 C   0  0  0  0  0  0  0  0  0  0  0  0
    8.8971  -12.6126   19.2287 C   0  0  0  0  0  0  0  0  0  0  0  0
    9.0777  -13.5390   20.2306 C   0  0  0  0  0  0  0  0  0  0  0  0
    7.9591  -14.2201   20.6781 C   0  0  0  0  0  0  0  0  0  0  0  0
    8.1485  -15.2154   21.7531 C   0  0  0  0  0  0  0  0  0  0  0  0
    8.6716  -16.5335   21.2221 C   0  0  2  0  0  0  0  0  0  0  0  0
    7.6224  -17.2372   20.5212 N   0  0  0  0  0  0  0  0  0  0  0  0
    9.1638  -17.3083   22.3958 C   0  0  0  0  0  0  0  0  0  0  0  0
    8.4669  -18.1949   22.9521 O   0  0  0  0  0  0  0  0  0  0  0  0
    6.7044  -13.9738   20.1331 C   0  0  0  0  0  0  0  0  0  0  0  0
    6.5783  -13.0299   19.1257 C   0  0  0  0  0  0  0  0  0  0  0  0
   10.4516  -17.0359   22.8963 N   0  0  0  0  0  0  0  0  0  0  0  0
   11.0226  -17.7859   24.0148 C   0  0  1  0  0  0  0  0  0  0  0  0
   12.4602  -18.0754   23.6802 C   0  0  0  0  0  0  0  0  0  0  0  0
   12.9782  -19.1884   24.5126 C   0  0  0  0  0  0  0  0  0  0  0  0
   12.1753  -19.9073   25.1738 O   0  0  0  0  0  0  0  0  0  0  0  0
   10.8964  -16.9547   25.2404 C   0  0  0  0  0  0  0  0  0  0  0  0
   11.3749  -15.8211   25.3155 O   0  0  0  0  0  0  0  0  0  0  0  0
   14.3338  -19.4658   24.5872 O   0  0  0  0  0  0  0  0  0  0  0  0
   10.1995  -17.5015   26.3459 N   0  0  0  0  0  0  0  0  0  0  0  0
   10.1519  -16.7505   27.5806 C   0  0  1  0  0  0  0  0  0  0  0  0
    8.6800  -16.7614   28.0092 C   0  0  0  0  0  0  0  0  0  0  0  0
    7.9191  -15.9816   27.0098 C   0  0  0  0  0  0  0  0  0  0  0  0
    7.0825  -16.5010   26.0188 C   0  0  0  0  0  0  0  0  0  0  0  0
    6.5688  -15.4947   25.2964 N   0  0  0  0  0  0  0  0  0  0  0  0
    7.0244  -14.3108   25.7587 C   0  0  0  0  0  0  0  0  0  0  0  0
    6.7848  -13.0066   25.3491 C   0  0  0  0  0  0  0  0  0  0  0  0
    7.4163  -12.0034   26.0446 C   0  0  0  0  0  0  0  0  0  0  0  0
    8.2630  -12.2920   27.1180 C   0  0  0  0  0  0  0  0  0  0  0  0
    8.4854  -13.5800   27.5045 C   0  0  0  0  0  0  0  0  0  0  0  0
    7.8662  -14.6142   26.8271 C   0  0  0  0  0  0  0  0  0  0  0  0
   10.9661  -17.4402   28.5870 C   0  0  0  0  0  0  0  0  0  0  0  0
   11.0492  -16.9660   29.7514 O   0  0  0  0  0  0  0  0  0  0  0  0
   11.6404  -18.5990   28.2736 O   0  0  0  0  0  0  0  0  0  0  0  0
  2  1  1  0
  3  2  2  0
  4  3  1  0
  5 11  1  0
  5  4  2  0
  6  5  1  0
  7  6  1  0
  7  8  1  1
  9  7  1  0
  9 10  2  0
 11 12  2  0
 12  2  1  0
 13  9  1  0
 14 15  1  6
 14 13  1  0
 16 15  1  0
 17 16  2  0
 18 14  1  0
 19 18  2  0
 20 16  1  0
 21 18  1  0
 22 23  1  1
 22 21  1  0
 23 24  1  0
 24 32  1  0
 25 26  1  0
 25 24  2  0
 26 27  1  0
 27 32  2  0
 27 28  1  0
 28 29  2  0
 29 30  1  0
 31 30  2  0
 32 31  1  0
 33 22  1  0
 33 35  1  0
 34 33  2  0
M  END
$$$$
