YDW.pdb
     RDKit          3D

 35 37  0  0  1  0  0  0  0  0999 V2000
    8.0598  -11.4589   17.8221 O   0  0  0  0  0  0  0  0  0  0  0  0
    7.9440  -12.3729   18.8881 C   0  0  0  0  0  0  0  0  0  0  0  0
    9.0563  -12.8021   19.5826 C   0  0  0  0  0  0  0  0  0  0  0  0
    9.0027  -13.6927   20.6308 C   0  0  0  0  0  0  0  0  0  0  0  0
    7.7574  -14.1740   20.9951 C   0  0  0  0  0  0  0  0  0  0  0  0
    7.6953  -15.1300   22.1194 C   0  0  0  0  0  0  0  0  0  0  0  0
    8.1015  -16.5274   21.7008 C   0  0  2  0  0  0  0  0  0  0  0  0
    6.9705  -17.2231   21.1316 N   0  0  0  0  0  0  0  0  0  0  0  0
    8.6115  -17.2139   22.9210 C   0  0  0  0  0  0  0  0  0  0  0  0
    7.8806  -17.9551   23.6264 O   0  0  0  0  0  0  0  0  0  0  0  0
    6.6088  -13.7700   20.3248 C   0  0  0  0  0  0  0  0  0  0  0  0
    6.7191  -12.8707   19.2756 C   0  0  0  0  0  0  0  0  0  0  0  0
    9.9560  -17.0238   23.2940 N   0  0  0  0  0  0  0  0  0  0  0  0
   10.5481  -17.7170   24.4379 C   0  0  1  0  0  0  0  0  0  0  0  0
   11.8050  -18.3907   23.9594 C   0  0  0  0  0  0  0  0  0  0  0  0
   12.3951  -19.2239   25.0352 C   0  0  0  0  0  0  0  0  0  0  0  0
   13.5297  -18.9298   25.5093 O   0  0  0  0  0  0  0  0  0  0  0  0
   10.8281  -16.7095   25.4940 C   0  0  0  0  0  0  0  0  0  0  0  0
   11.6727  -15.8236   25.3471 O   0  0  0  0  0  0  0  0  0  0  0  0
   11.7301  -20.3292   25.5414 O   0  0  0  0  0  0  0  0  0  0  0  0
   10.0889  -16.7872   26.7000 N   0  0  0  0  0  0  0  0  0  0  0  0
   10.5993  -16.1164   27.8748 C   0  0  1  0  0  0  0  0  0  0  0  0
    9.4410  -15.2530   28.3880 C   0  0  0  0  0  0  0  0  0  0  0  0
    8.4831  -15.0850   27.2744 C   0  0  0  0  0  0  0  0  0  0  0  0
    7.6635  -16.0780   26.7324 C   0  0  0  0  0  0  0  0  0  0  0  0
    6.9345  -15.5586   25.7337 N   0  0  0  0  0  0  0  0  0  0  0  0
    7.2276  -14.2501   25.5761 C   0  0  0  0  0  0  0  0  0  0  0  0
    6.7455  -13.2970   24.6900 C   0  0  0  0  0  0  0  0  0  0  0  0
    7.2603  -12.0267   24.7920 C   0  0  0  0  0  0  0  0  0  0  0  0
    8.2285  -11.7153   25.7501 C   0  0  0  0  0  0  0  0  0  0  0  0
    8.6891  -12.6661   26.6111 C   0  0  0  0  0  0  0  0  0  0  0  0
    8.1930  -13.9546   26.5368 C   0  0  0  0  0  0  0  0  0  0  0  0
   10.9500  -17.1238   28.8816 C   0  0  0  0  0  0  0  0  0  0  0  0
   11.3884  -16.7554   30.0039 O   0  0  0  0  0  0  0  0  0  0  0  0
   10.8058  -18.4667   28.6139 O   0  0  0  0  0  0  0  0  0  0  0  0
  2  1  1  0
  3  2  2  0
  4  3  1  0
  5 11  1  0
  5  4  2  0
  6  5  1  0
  7  6  1  0
  7  8  1  1
  9  7  1  0
  9 10  2  0
 11 12  2  0
 12  2  1  0
 13  9  1  0
 14 15  1  6
 14 13  1  0
 16 15  1  0
 17 16  2  0
 18 14  1  0
 19 18  2  0
 20 16  1  0
 21 18  1  0
 22 23  1  1
 22 21  1  0
 23 24  1  0
 24 32  1  0
 25 26  1  0
 25 24  2  0
 26 27  1  0
 27 32  2  0
 27 28  1  0
 28 29  2  0
 29 30  1  0
 31 30  2  0
 32 31  1  0
 33 22  1  0
 33 35  1  0
 34 33  2  0
M  END
$$$$
