YDW.pdb
     RDKit          3D

 35 37  0  0  1  0  0  0  0  0999 V2000
    6.5826  -12.1595   17.4982 O   0  0  0  0  0  0  0  0  0  0  0  0
    6.9858  -13.0077   18.5484 C   0  0  0  0  0  0  0  0  0  0  0  0
    8.1208  -12.7389   19.2856 C   0  0  0  0  0  0  0  0  0  0  0  0
    8.5617  -13.5315   20.3210 C   0  0  0  0  0  0  0  0  0  0  0  0
    7.8141  -14.6554   20.6262 C   0  0  0  0  0  0  0  0  0  0  0  0
    8.2838  -15.5089   21.7365 C   0  0  0  0  0  0  0  0  0  0  0  0
    9.4391  -16.3961   21.3226 C   0  0  2  0  0  0  0  0  0  0  0  0
    9.1140  -17.0959   20.1013 N   0  0  0  0  0  0  0  0  0  0  0  0
    9.6845  -17.3408   22.4485 C   0  0  0  0  0  0  0  0  0  0  0  0
    9.3628  -18.5547   22.3856 O   0  0  0  0  0  0  0  0  0  0  0  0
    6.6635  -14.9666   19.9113 C   0  0  0  0  0  0  0  0  0  0  0  0
    6.2639  -14.1341   18.8774 C   0  0  0  0  0  0  0  0  0  0  0  0
   10.2965  -16.8548   23.6201 N   0  0  0  0  0  0  0  0  0  0  0  0
   11.2627  -17.6509   24.3767 C   0  0  1  0  0  0  0  0  0  0  0  0
   12.5076  -17.7682   23.5407 C   0  0  0  0  0  0  0  0  0  0  0  0
   13.3901  -16.5941   23.7471 C   0  0  0  0  0  0  0  0  0  0  0  0
   14.0209  -16.4634   24.8350 O   0  0  0  0  0  0  0  0  0  0  0  0
   11.5246  -16.9572   25.6647 C   0  0  0  0  0  0  0  0  0  0  0  0
   12.5320  -17.1840   26.3381 O   0  0  0  0  0  0  0  0  0  0  0  0
   13.5444  -15.6243   22.7694 O   0  0  0  0  0  0  0  0  0  0  0  0
   10.5737  -16.0082   26.1143 N   0  0  0  0  0  0  0  0  0  0  0  0
    9.9254  -16.2212   27.3891 C   0  0  1  0  0  0  0  0  0  0  0  0
    8.5640  -16.8427   27.0564 C   0  0  0  0  0  0  0  0  0  0  0  0
    7.6957  -15.7632   26.5398 C   0  0  0  0  0  0  0  0  0  0  0  0
    6.5741  -15.9244   25.7228 C   0  0  0  0  0  0  0  0  0  0  0  0
    6.0436  -14.7229   25.4514 N   0  0  0  0  0  0  0  0  0  0  0  0
    6.7622  -13.7510   26.0531 C   0  0  0  0  0  0  0  0  0  0  0  0
    6.6143  -12.3712   26.0708 C   0  0  0  0  0  0  0  0  0  0  0  0
    7.5341  -11.6498   26.7936 C   0  0  0  0  0  0  0  0  0  0  0  0
    8.5721  -12.2858   27.4795 C   0  0  0  0  0  0  0  0  0  0  0  0
    8.7000  -13.6424   27.4493 C   0  0  0  0  0  0  0  0  0  0  0  0
    7.7922  -14.3994   26.7318 C   0  0  0  0  0  0  0  0  0  0  0  0
   10.7236  -17.1684   28.1748 C   0  0  0  0  0  0  0  0  0  0  0  0
   11.7684  -17.6653   27.6758 O   0  0  0  0  0  0  0  0  0  0  0  0
   10.3437  -17.5207   29.4505 O   0  0  0  0  0  0  0  0  0  0  0  0
  2  1  1  0
  3  2  2  0
  4  3  1  0
  5 11  1  0
  5  4  2  0
  6  5  1  0
  7  6  1  0
  7  8  1  6
  9  7  1  0
  9 10  2  0
 11 12  2  0
 12  2  1  0
 13  9  1  0
 14 15  1  6
 14 13  1  0
 16 15  1  0
 17 16  2  0
 18 14  1  0
 19 18  2  0
 20 16  1  0
 21 18  1  0
 22 23  1  6
 22 21  1  0
 23 24  1  0
 24 32  1  0
 25 26  1  0
 25 24  2  0
 26 27  1  0
 27 32  2  0
 27 28  1  0
 28 29  2  0
 29 30  1  0
 31 30  2  0
 32 31  1  0
 33 22  1  0
 33 35  1  0
 34 33  2  0
M  END
$$$$
