YDW.pdb
     RDKit          3D

 35 37  0  0  1  0  0  0  0  0999 V2000
    7.4887  -11.5758   17.4011 O   0  0  0  0  0  0  0  0  0  0  0  0
    7.7235  -12.4846   18.4518 C   0  0  0  0  0  0  0  0  0  0  0  0
    6.6795  -13.1295   19.0828 C   0  0  0  0  0  0  0  0  0  0  0  0
    6.8497  -14.0258   20.1135 C   0  0  0  0  0  0  0  0  0  0  0  0
    8.1451  -14.2829   20.5271 C   0  0  0  0  0  0  0  0  0  0  0  0
    8.3323  -15.2441   21.6330 C   0  0  0  0  0  0  0  0  0  0  0  0
    9.0065  -16.5188   21.1707 C   0  0  2  0  0  0  0  0  0  0  0  0
    8.1735  -17.1985   20.2057 N   0  0  0  0  0  0  0  0  0  0  0  0
    9.2340  -17.3529   22.3843 C   0  0  0  0  0  0  0  0  0  0  0  0
    8.3808  -18.1787   22.7981 O   0  0  0  0  0  0  0  0  0  0  0  0
    9.2283  -13.6572   19.9213 C   0  0  0  0  0  0  0  0  0  0  0  0
    9.0008  -12.7625   18.8872 C   0  0  0  0  0  0  0  0  0  0  0  0
   10.4448  -17.2088   23.0888 N   0  0  0  0  0  0  0  0  0  0  0  0
   10.6959  -17.9082   24.3488 C   0  0  1  0  0  0  0  0  0  0  0  0
   12.0294  -18.5937   24.2293 C   0  0  0  0  0  0  0  0  0  0  0  0
   12.9316  -17.8321   23.3316 C   0  0  0  0  0  0  0  0  0  0  0  0
   12.7719  -17.8923   22.0788 O   0  0  0  0  0  0  0  0  0  0  0  0
   10.6863  -16.9040   25.4443 C   0  0  0  0  0  0  0  0  0  0  0  0
   11.1936  -15.7879   25.3146 O   0  0  0  0  0  0  0  0  0  0  0  0
   13.9574  -17.0471   23.8333 O   0  0  0  0  0  0  0  0  0  0  0  0
   10.0685  -17.2608   26.6682 N   0  0  0  0  0  0  0  0  0  0  0  0
   10.2632  -16.4103   27.8212 C   0  0  1  0  0  0  0  0  0  0  0  0
    8.8583  -16.1414   28.3727 C   0  0  0  0  0  0  0  0  0  0  0  0
    8.0393  -15.6064   27.2641 C   0  0  0  0  0  0  0  0  0  0  0  0
    7.2853  -16.3553   26.3574 C   0  0  0  0  0  0  0  0  0  0  0  0
    6.6816  -15.5294   25.4901 N   0  0  0  0  0  0  0  0  0  0  0  0
    6.9967  -14.2473   25.7730 C   0  0  0  0  0  0  0  0  0  0  0  0
    6.6267  -13.0524   25.1720 C   0  0  0  0  0  0  0  0  0  0  0  0
    7.1311  -11.8941   25.7132 C   0  0  0  0  0  0  0  0  0  0  0  0
    7.9806  -11.9261   26.8222 C   0  0  0  0  0  0  0  0  0  0  0  0
    8.3323  -13.1104   27.3977 C   0  0  0  0  0  0  0  0  0  0  0  0
    7.8431  -14.2951   26.8791 C   0  0  0  0  0  0  0  0  0  0  0  0
   11.0560  -17.1375   28.8184 C   0  0  0  0  0  0  0  0  0  0  0  0
   11.3903  -18.3319   28.5968 O   0  0  0  0  0  0  0  0  0  0  0  0
   11.4383  -16.5298   29.9933 O   0  0  0  0  0  0  0  0  0  0  0  0
  2  1  1  0
  3  2  2  0
  4  3  1  0
  5 11  1  0
  5  4  2  0
  6  5  1  0
  7  6  1  0
  7  8  1  6
  9  7  1  0
  9 10  2  0
 11 12  2  0
 12  2  1  0
 13  9  1  0
 14 15  1  6
 14 13  1  0
 16 15  1  0
 17 16  2  0
 18 14  1  0
 19 18  2  0
 20 16  1  0
 21 18  1  0
 22 23  1  1
 22 21  1  0
 23 24  1  0
 24 32  1  0
 25 26  1  0
 25 24  2  0
 26 27  1  0
 27 32  2  0
 27 28  1  0
 28 29  2  0
 29 30  1  0
 31 30  2  0
 32 31  1  0
 33 22  1  0
 33 35  1  0
 34 33  2  0
M  END
$$$$
