HGL.pdb
     RDKit          3D

 23 23  0  0  1  0  0  0  0  0999 V2000
    7.8736  -19.0412   22.3164 N   0  0  0  0  0  0  0  0  0  0  0  0
    9.1392  -18.4792   21.8882 C   0  0  1  0  0  0  0  0  0  0  0  0
    9.4246  -19.0488   20.5158 C   0  0  0  0  0  0  0  0  0  0  0  0
    9.6674  -20.5121   20.5860 C   0  0  0  0  0  0  0  0  0  0  0  0
   10.8358  -21.1628   20.9317 C   0  0  0  0  0  0  0  0  0  0  0  0
   10.6364  -22.5067   20.8710 N   0  0  0  0  0  0  0  0  0  0  0  0
    9.3487  -22.7002   20.4889 C   0  0  0  0  0  0  0  0  0  0  0  0
    8.7769  -21.5061   20.3207 N   0  0  0  0  0  0  0  0  0  0  0  0
    9.0379  -17.0239   21.9010 C   0  0  0  0  0  0  0  0  0  0  0  0
   10.0399  -16.3267   21.6127 O   0  0  0  0  0  0  0  0  0  0  0  0
    7.8464  -16.3092   22.2272 N   0  0  0  0  0  0  0  0  0  0  0  0
    7.7170  -14.8893   22.1013 C   0  0  0  0  0  0  0  0  0  0  0  0
    8.0368  -14.2594   23.4201 C   0  0  0  0  0  0  0  0  0  0  0  0
    8.0556  -12.9865   23.5281 O   0  0  0  0  0  0  0  0  0  0  0  0
    7.7428  -11.4498   26.0905 C   0  0  0  0  0  0  0  0  0  0  0  0
    6.8004  -12.6492   25.9017 C   0  0  2  0  0  0  0  0  0  0  0  0
    5.4996  -12.2314   26.5451 C   0  0  0  0  0  0  0  0  0  0  0  0
    7.4688  -13.8090   26.5436 C   0  0  0  0  0  0  0  0  0  0  0  0
    8.6770  -14.3427   25.8200 C   0  0  2  0  0  0  0  0  0  0  0  0
    8.3249  -14.9887   24.5762 N   0  0  0  0  0  0  0  0  0  0  0  0
    9.5311  -15.2320   26.6003 C   0  0  0  0  0  0  0  0  0  0  0  0
    9.9716  -16.4578   26.1211 O   0  0  0  0  0  0  0  0  0  0  0  0
    9.8982  -14.9031   27.7541 O   0  0  0  0  0  0  0  0  0  0  0  0
  2  1  1  6
  2  3  1  0
  3  4  1  0
  4  5  2  0
  5  6  1  0
  7  6  1  0
  8  4  1  0
  8  7  2  0
  9  2  1  0
  9 10  2  0
 11  9  1  0
 12 11  1  0
 12 13  1  0
 13 20  1  0
 14 13  2  0
 16 15  1  1
 16 17  1  0
 18 16  1  0
 19 18  1  1
 20 19  1  0
 21 19  1  0
 21 22  1  0
 23 21  2  0
M  END
$$$$
