HGL.pdb
     RDKit          3D

 23 23  0  0  1  0  0  0  0  0999 V2000
    8.0901  -14.7593   20.7006 N   0  0  0  0  0  0  0  0  0  0  0  0
    8.9968  -15.8295   20.3353 C   0  0  1  0  0  0  0  0  0  0  0  0
    9.6834  -15.3990   19.0575 C   0  0  0  0  0  0  0  0  0  0  0  0
    8.7236  -14.7476   18.1302 C   0  0  0  0  0  0  0  0  0  0  0  0
    7.3936  -14.4512   18.3562 C   0  0  0  0  0  0  0  0  0  0  0  0
    6.8719  -13.8556   17.2503 N   0  0  0  0  0  0  0  0  0  0  0  0
    7.8692  -13.7779   16.3334 C   0  0  0  0  0  0  0  0  0  0  0  0
    8.9708  -14.3119   16.8651 N   0  0  0  0  0  0  0  0  0  0  0  0
    9.9219  -16.0619   21.4392 C   0  0  0  0  0  0  0  0  0  0  0  0
   10.7272  -17.0221   21.3859 O   0  0  0  0  0  0  0  0  0  0  0  0
    9.9827  -15.2535   22.6137 N   0  0  0  0  0  0  0  0  0  0  0  0
   10.8413  -15.5356   23.7236 C   0  0  0  0  0  0  0  0  0  0  0  0
   10.0120  -15.6032   24.9670 C   0  0  0  0  0  0  0  0  0  0  0  0
   10.5655  -15.8771   26.0855 O   0  0  0  0  0  0  0  0  0  0  0  0
    8.1886  -12.5714   27.2229 C   0  0  0  0  0  0  0  0  0  0  0  0
    7.3428  -13.0023   26.0139 C   0  0  2  0  0  0  0  0  0  0  0  0
    6.2688  -11.9480   25.8904 C   0  0  0  0  0  0  0  0  0  0  0  0
    6.8443  -14.3669   26.3197 C   0  0  0  0  0  0  0  0  0  0  0  0
    7.8648  -15.4691   26.2110 C   0  0  2  0  0  0  0  0  0  0  0  0
    8.6331  -15.3809   24.9903 N   0  0  0  0  0  0  0  0  0  0  0  0
    7.3404  -16.8232   26.3539 C   0  0  0  0  0  0  0  0  0  0  0  0
    7.3575  -17.7460   25.3172 O   0  0  0  0  0  0  0  0  0  0  0  0
    6.8474  -17.1976   27.4452 O   0  0  0  0  0  0  0  0  0  0  0  0
  2  1  1  1
  2  3  1  0
  3  4  1  0
  4  5  2  0
  5  6  1  0
  7  6  1  0
  8  4  1  0
  8  7  2  0
  9  2  1  0
  9 10  2  0
 11  9  1  0
 12 11  1  0
 12 13  1  0
 13 20  1  0
 14 13  2  0
 16 15  1  1
 16 17  1  0
 18 16  1  0
 19 18  1  6
 20 19  1  0
 21 19  1  0
 21 22  1  0
 23 21  2  0
M  END
$$$$
