HGL.pdb
     RDKit          3D

 23 23  0  0  1  0  0  0  0  0999 V2000
    8.9945  -16.1123   19.6414 N   0  0  0  0  0  0  0  0  0  0  0  0
    8.3146  -14.9384   20.1520 C   0  0  1  0  0  0  0  0  0  0  0  0
    7.2299  -14.5969   19.1538 C   0  0  0  0  0  0  0  0  0  0  0  0
    7.8023  -14.3646   17.8035 C   0  0  0  0  0  0  0  0  0  0  0  0
    8.4998  -13.2594   17.3561 C   0  0  0  0  0  0  0  0  0  0  0  0
    8.8491  -13.4450   16.0549 N   0  0  0  0  0  0  0  0  0  0  0  0
    8.3735  -14.6612   15.6857 C   0  0  0  0  0  0  0  0  0  0  0  0
    7.7503  -15.2039   16.7337 N   0  0  0  0  0  0  0  0  0  0  0  0
    7.8017  -15.2327   21.4857 C   0  0  0  0  0  0  0  0  0  0  0  0
    7.0832  -14.3915   22.0768 O   0  0  0  0  0  0  0  0  0  0  0  0
    8.0636  -16.4445   22.1925 N   0  0  0  0  0  0  0  0  0  0  0  0
    7.5492  -16.7246   23.4985 C   0  0  0  0  0  0  0  0  0  0  0  0
    8.2786  -15.8784   24.4935 C   0  0  0  0  0  0  0  0  0  0  0  0
    9.5198  -15.6266   24.3245 O   0  0  0  0  0  0  0  0  0  0  0  0
    7.5991  -11.7548   25.4105 C   0  0  0  0  0  0  0  0  0  0  0  0
    6.6611  -12.6728   26.2105 C   0  0  2  0  0  0  0  0  0  0  0  0
    5.6626  -11.7442   26.8593 C   0  0  0  0  0  0  0  0  0  0  0  0
    7.5222  -13.4231   27.1590 C   0  0  0  0  0  0  0  0  0  0  0  0
    8.4055  -14.4741   26.5400 C   0  0  2  0  0  0  0  0  0  0  0  0
    7.6785  -15.3281   25.6286 N   0  0  0  0  0  0  0  0  0  0  0  0
    9.1505  -15.3002   27.4842 C   0  0  0  0  0  0  0  0  0  0  0  0
   10.1339  -14.7842   28.3168 O   0  0  0  0  0  0  0  0  0  0  0  0
    8.9157  -16.5298   27.5696 O   0  0  0  0  0  0  0  0  0  0  0  0
  2  1  1  6
  2  3  1  0
  3  4  1  0
  4  5  2  0
  5  6  1  0
  7  6  1  0
  8  4  1  0
  8  7  2  0
  9  2  1  0
  9 10  2  0
 11  9  1  0
 12 11  1  0
 12 13  1  0
 13 20  1  0
 14 13  2  0
 16 15  1  6
 16 17  1  0
 18 16  1  0
 19 18  1  1
 20 19  1  0
 21 19  1  0
 21 22  1  0
 23 21  2  0
M  END
$$$$
