HGL.pdb
     RDKit          3D

 23 23  0  0  1  0  0  0  0  0999 V2000
    9.1142  -16.5315   19.3969 N   0  0  0  0  0  0  0  0  0  0  0  0
    8.0946  -15.7919   20.1142 C   0  0  1  0  0  0  0  0  0  0  0  0
    7.0184  -15.4491   19.1074 C   0  0  0  0  0  0  0  0  0  0  0  0
    7.5651  -14.6171   18.0054 C   0  0  0  0  0  0  0  0  0  0  0  0
    8.0667  -13.3323   18.0808 C   0  0  0  0  0  0  0  0  0  0  0  0
    8.4657  -12.9326   16.8436 N   0  0  0  0  0  0  0  0  0  0  0  0
    8.2162  -13.9612   15.9943 C   0  0  0  0  0  0  0  0  0  0  0  0
    7.6790  -14.9626   16.6943 N   0  0  0  0  0  0  0  0  0  0  0  0
    7.6112  -16.6082   21.2225 C   0  0  0  0  0  0  0  0  0  0  0  0
    7.4299  -17.8383   21.0579 O   0  0  0  0  0  0  0  0  0  0  0  0
    7.3191  -16.0971   22.5226 N   0  0  0  0  0  0  0  0  0  0  0  0
    6.8382  -16.9069   23.6004 C   0  0  0  0  0  0  0  0  0  0  0  0
    6.6645  -16.0430   24.8094 C   0  0  0  0  0  0  0  0  0  0  0  0
    5.6788  -15.2327   24.8747 O   0  0  0  0  0  0  0  0  0  0  0  0
    6.4821  -11.9962   25.8244 C   0  0  0  0  0  0  0  0  0  0  0  0
    6.8753  -13.3570   26.4213 C   0  0  2  0  0  0  0  0  0  0  0  0
    6.8868  -13.1414   27.9159 C   0  0  0  0  0  0  0  0  0  0  0  0
    8.1925  -13.7053   25.8317 C   0  0  0  0  0  0  0  0  0  0  0  0
    8.6318  -15.1328   26.0248 C   0  0  2  0  0  0  0  0  0  0  0  0
    7.5314  -16.0618   25.9047 N   0  0  0  0  0  0  0  0  0  0  0  0
    9.3571  -15.4020   27.2620 C   0  0  0  0  0  0  0  0  0  0  0  0
    9.0810  -16.4973   28.0686 O   0  0  0  0  0  0  0  0  0  0  0  0
   10.2720  -14.6303   27.6383 O   0  0  0  0  0  0  0  0  0  0  0  0
  2  1  1  6
  2  3  1  0
  3  4  1  0
  4  5  2  0
  5  6  1  0
  7  6  1  0
  8  4  1  0
  8  7  2  0
  9  2  1  0
  9 10  2  0
 11  9  1  0
 12 11  1  0
 12 13  1  0
 13 20  1  0
 14 13  2  0
 16 15  1  6
 16 17  1  0
 18 16  1  0
 19 18  1  1
 20 19  1  0
 21 19  1  0
 21 22  1  0
 23 21  2  0
M  END
$$$$
