HGL.pdb
     RDKit          3D

 23 23  0  0  1  0  0  0  0  0999 V2000
    9.5868  -16.0681   18.8948 N   0  0  0  0  0  0  0  0  0  0  0  0
    8.4617  -15.4411   19.5598 C   0  0  1  0  0  0  0  0  0  0  0  0
    7.2833  -15.5536   18.6175 C   0  0  0  0  0  0  0  0  0  0  0  0
    7.5514  -14.8426   17.3416 C   0  0  0  0  0  0  0  0  0  0  0  0
    8.0417  -13.5627   17.1702 C   0  0  0  0  0  0  0  0  0  0  0  0
    8.1402  -13.2936   15.8407 N   0  0  0  0  0  0  0  0  0  0  0  0
    7.7138  -14.3991   15.1793 C   0  0  0  0  0  0  0  0  0  0  0  0
    7.3642  -15.3190   16.0809 N   0  0  0  0  0  0  0  0  0  0  0  0
    8.2427  -16.1025   20.8417 C   0  0  0  0  0  0  0  0  0  0  0  0
    8.7354  -17.2369   21.0499 O   0  0  0  0  0  0  0  0  0  0  0  0
    7.4856  -15.5387   21.9120 N   0  0  0  0  0  0  0  0  0  0  0  0
    7.2942  -16.1887   23.1727 C   0  0  0  0  0  0  0  0  0  0  0  0
    8.1798  -15.5378   24.1878 C   0  0  0  0  0  0  0  0  0  0  0  0
    9.2956  -15.0315   23.8257 O   0  0  0  0  0  0  0  0  0  0  0  0
    7.7288  -11.8428   25.5373 C   0  0  0  0  0  0  0  0  0  0  0  0
    6.9135  -12.8778   26.3290 C   0  0  2  0  0  0  0  0  0  0  0  0
    5.8922  -12.0707   27.0945 C   0  0  0  0  0  0  0  0  0  0  0  0
    7.8858  -13.6154   27.1744 C   0  0  0  0  0  0  0  0  0  0  0  0
    8.6751  -14.6870   26.4697 C   0  0  2  0  0  0  0  0  0  0  0  0
    7.8615  -15.4426   25.5447 N   0  0  0  0  0  0  0  0  0  0  0  0
    9.3958  -15.6086   27.3418 C   0  0  0  0  0  0  0  0  0  0  0  0
    9.2259  -16.9847   27.2806 O   0  0  0  0  0  0  0  0  0  0  0  0
   10.2079  -15.1693   28.1912 O   0  0  0  0  0  0  0  0  0  0  0  0
  2  1  1  6
  2  3  1  0
  3  4  1  0
  4  5  2  0
  5  6  1  0
  7  6  1  0
  8  4  1  0
  8  7  2  0
  9  2  1  0
  9 10  2  0
 11  9  1  0
 12 11  1  0
 12 13  1  0
 13 20  1  0
 14 13  2  0
 16 15  1  6
 16 17  1  0
 18 16  1  0
 19 18  1  1
 20 19  1  0
 21 19  1  0
 21 22  1  0
 23 21  2  0
M  END
$$$$
