HGL.pdb
     RDKit          3D

 23 23  0  0  1  0  0  0  0  0999 V2000
    9.0053  -19.6892   22.0448 N   0  0  0  0  0  0  0  0  0  0  0  0
    8.8664  -18.3365   21.5430 C   0  0  1  0  0  0  0  0  0  0  0  0
    8.2048  -18.4429   20.1864 C   0  0  0  0  0  0  0  0  0  0  0  0
    9.1624  -18.9351   19.1637 C   0  0  0  0  0  0  0  0  0  0  0  0
   10.3238  -18.3282   18.7269 C   0  0  0  0  0  0  0  0  0  0  0  0
   10.9102  -19.1092   17.7804 N   0  0  0  0  0  0  0  0  0  0  0  0
   10.1213  -20.2020   17.6228 C   0  0  0  0  0  0  0  0  0  0  0  0
    9.0806  -20.0914   18.4511 N   0  0  0  0  0  0  0  0  0  0  0  0
    8.0954  -17.5538   22.5029 C   0  0  0  0  0  0  0  0  0  0  0  0
    7.8073  -16.3604   22.2457 O   0  0  0  0  0  0  0  0  0  0  0  0
    7.6285  -18.0588   23.7534 N   0  0  0  0  0  0  0  0  0  0  0  0
    6.8263  -17.2985   24.6628 C   0  0  0  0  0  0  0  0  0  0  0  0
    7.7182  -16.3815   25.4386 C   0  0  0  0  0  0  0  0  0  0  0  0
    7.2169  -15.3861   26.0633 O   0  0  0  0  0  0  0  0  0  0  0  0
    9.2723  -13.1952   27.6235 C   0  0  0  0  0  0  0  0  0  0  0  0
    9.2885  -14.6402   28.1470 C   0  0  2  0  0  0  0  0  0  0  0  0
    9.6387  -14.5232   29.6113 C   0  0  0  0  0  0  0  0  0  0  0  0
   10.2856  -15.3700   27.3241 C   0  0  0  0  0  0  0  0  0  0  0  0
    9.9818  -15.4421   25.8509 C   0  0  2  0  0  0  0  0  0  0  0  0
    9.1028  -16.5433   25.5298 N   0  0  0  0  0  0  0  0  0  0  0  0
   11.1469  -15.4836   24.9734 C   0  0  0  0  0  0  0  0  0  0  0  0
   12.0106  -14.4073   24.8244 O   0  0  0  0  0  0  0  0  0  0  0  0
   11.4041  -16.5194   24.3137 O   0  0  0  0  0  0  0  0  0  0  0  0
  2  1  1  1
  2  3  1  0
  3  4  1  0
  4  5  2  0
  5  6  1  0
  7  6  1  0
  8  4  1  0
  8  7  2  0
  9  2  1  0
  9 10  2  0
 11  9  1  0
 12 11  1  0
 12 13  1  0
 13 20  1  0
 14 13  2  0
 16 15  1  6
 16 17  1  0
 18 16  1  0
 19 18  1  1
 20 19  1  0
 21 19  1  0
 21 22  1  0
 23 21  2  0
M  END
$$$$
