HGL.pdb
     RDKit          3D

 23 23  0  0  1  0  0  0  0  0999 V2000
    8.0067  -15.7585   20.2255 N   0  0  0  0  0  0  0  0  0  0  0  0
    9.4109  -15.8533   19.8787 C   0  0  1  0  0  0  0  0  0  0  0  0
    9.7963  -14.5256   19.2638 C   0  0  0  0  0  0  0  0  0  0  0  0
    9.0668  -14.2960   17.9909 C   0  0  0  0  0  0  0  0  0  0  0  0
    9.1816  -15.0003   16.8082 C   0  0  0  0  0  0  0  0  0  0  0  0
    8.3367  -14.4683   15.8847 N   0  0  0  0  0  0  0  0  0  0  0  0
    7.6938  -13.4343   16.4839 C   0  0  0  0  0  0  0  0  0  0  0  0
    8.1343  -13.3375   17.7400 N   0  0  0  0  0  0  0  0  0  0  0  0
   10.1729  -16.1776   21.0798 C   0  0  0  0  0  0  0  0  0  0  0  0
   11.3215  -16.6706   20.9750 O   0  0  0  0  0  0  0  0  0  0  0  0
    9.6956  -15.9699   22.4086 N   0  0  0  0  0  0  0  0  0  0  0  0
   10.5448  -15.9603   23.5608 C   0  0  0  0  0  0  0  0  0  0  0  0
    9.7056  -15.7077   24.7734 C   0  0  0  0  0  0  0  0  0  0  0  0
   10.2525  -15.6690   25.9274 O   0  0  0  0  0  0  0  0  0  0  0  0
    7.7563  -12.7220   27.1513 C   0  0  0  0  0  0  0  0  0  0  0  0
    7.0758  -13.0484   25.8124 C   0  0  2  0  0  0  0  0  0  0  0  0
    6.0541  -11.9542   25.6142 C   0  0  0  0  0  0  0  0  0  0  0  0
    6.5080  -14.4127   25.9557 C   0  0  0  0  0  0  0  0  0  0  0  0
    7.5084  -15.5378   25.9221 C   0  0  2  0  0  0  0  0  0  0  0  0
    8.3241  -15.5053   24.7297 N   0  0  0  0  0  0  0  0  0  0  0  0
    6.9506  -16.8759   26.0883 C   0  0  0  0  0  0  0  0  0  0  0  0
    6.4773  -17.3437   27.3063 O   0  0  0  0  0  0  0  0  0  0  0  0
    6.8833  -17.6580   25.1096 O   0  0  0  0  0  0  0  0  0  0  0  0
  2  1  1  1
  2  3  1  0
  3  4  1  0
  4  5  2  0
  5  6  1  0
  7  6  1  0
  8  4  1  0
  8  7  2  0
  9  2  1  0
  9 10  2  0
 11  9  1  0
 12 11  1  0
 12 13  1  0
 13 20  1  0
 14 13  2  0
 16 15  1  1
 16 17  1  0
 18 16  1  0
 19 18  1  6
 20 19  1  0
 21 19  1  0
 21 22  1  0
 23 21  2  0
M  END
$$$$
