HGL.pdb
     RDKit          3D

 23 23  0  0  1  0  0  0  0  0999 V2000
    7.7102  -16.7999   20.1024 N   0  0  0  0  0  0  0  0  0  0  0  0
    8.4177  -15.7023   20.7315 C   0  0  1  0  0  0  0  0  0  0  0  0
    7.6511  -14.4421   20.3944 C   0  0  0  0  0  0  0  0  0  0  0  0
    7.6466  -14.1966   18.9299 C   0  0  0  0  0  0  0  0  0  0  0  0
    8.2211  -14.9680   17.9384 C   0  0  0  0  0  0  0  0  0  0  0  0
    7.9874  -14.3918   16.7289 N   0  0  0  0  0  0  0  0  0  0  0  0
    7.2694  -13.2635   16.9586 C   0  0  0  0  0  0  0  0  0  0  0  0
    7.0699  -13.1535   18.2737 N   0  0  0  0  0  0  0  0  0  0  0  0
    8.5080  -15.9587   22.1648 C   0  0  0  0  0  0  0  0  0  0  0  0
    7.6786  -15.4334   22.9454 O   0  0  0  0  0  0  0  0  0  0  0  0
    9.5007  -16.7888   22.7666 N   0  0  0  0  0  0  0  0  0  0  0  0
   10.7619  -16.3000   23.2347 C   0  0  0  0  0  0  0  0  0  0  0  0
   10.6247  -15.9200   24.6752 C   0  0  0  0  0  0  0  0  0  0  0  0
   11.6605  -15.5898   25.3464 O   0  0  0  0  0  0  0  0  0  0  0  0
    7.7576  -12.2932   26.1717 C   0  0  0  0  0  0  0  0  0  0  0  0
    7.6983  -13.8288   26.1427 C   0  0  2  0  0  0  0  0  0  0  0  0
    6.2809  -14.1743   26.5328 C   0  0  0  0  0  0  0  0  0  0  0  0
    8.7386  -14.3037   27.0894 C   0  0  0  0  0  0  0  0  0  0  0  0
    9.3292  -15.6539   26.7793 C   0  0  2  0  0  0  0  0  0  0  0  0
    9.4058  -15.9008   25.3575 N   0  0  0  0  0  0  0  0  0  0  0  0
    8.6784  -16.7857   27.4309 C   0  0  0  0  0  0  0  0  0  0  0  0
    8.7742  -17.0204   28.7955 O   0  0  0  0  0  0  0  0  0  0  0  0
    7.9987  -17.5969   26.7570 O   0  0  0  0  0  0  0  0  0  0  0  0
  2  1  1  6
  2  3  1  0
  3  4  1  0
  4  5  2  0
  5  6  1  0
  7  6  1  0
  8  4  1  0
  8  7  2  0
  9  2  1  0
  9 10  2  0
 11  9  1  0
 12 11  1  0
 12 13  1  0
 13 20  1  0
 14 13  2  0
 16 15  1  1
 16 17  1  0
 18 16  1  0
 19 18  1  6
 20 19  1  0
 21 19  1  0
 21 22  1  0
 23 21  2  0
M  END
$$$$
