HGL.pdb
     RDKit          3D

 23 23  0  0  1  0  0  0  0  0999 V2000
    7.5328  -20.3599   22.2240 N   0  0  0  0  0  0  0  0  0  0  0  0
    6.9679  -19.0702   22.5683 C   0  0  1  0  0  0  0  0  0  0  0  0
    6.3619  -19.2163   23.9469 C   0  0  0  0  0  0  0  0  0  0  0  0
    5.6430  -20.5090   24.0788 C   0  0  0  0  0  0  0  0  0  0  0  0
    5.3264  -21.4096   23.0805 C   0  0  0  0  0  0  0  0  0  0  0  0
    4.6650  -22.4671   23.6226 N   0  0  0  0  0  0  0  0  0  0  0  0
    4.5662  -22.2326   24.9556 C   0  0  0  0  0  0  0  0  0  0  0  0
    5.1517  -21.0629   25.2205 N   0  0  0  0  0  0  0  0  0  0  0  0
    8.0198  -18.0615   22.5027 C   0  0  0  0  0  0  0  0  0  0  0  0
    9.2057  -18.3801   22.7584 O   0  0  0  0  0  0  0  0  0  0  0  0
    7.7953  -16.6948   22.1584 N   0  0  0  0  0  0  0  0  0  0  0  0
    8.8379  -15.7170   22.0839 C   0  0  0  0  0  0  0  0  0  0  0  0
    9.1146  -15.2043   23.4619 C   0  0  0  0  0  0  0  0  0  0  0  0
   10.0710  -14.3789   23.6524 O   0  0  0  0  0  0  0  0  0  0  0  0
    8.0746  -12.0064   25.8990 C   0  0  0  0  0  0  0  0  0  0  0  0
    7.0064  -13.0852   25.6584 C   0  0  2  0  0  0  0  0  0  0  0  0
    5.7092  -12.4620   26.1160 C   0  0  0  0  0  0  0  0  0  0  0  0
    7.4344  -14.2754   26.4357 C   0  0  0  0  0  0  0  0  0  0  0  0
    8.6327  -15.0079   25.8920 C   0  0  2  0  0  0  0  0  0  0  0  0
    8.3773  -15.5769   24.5885 N   0  0  0  0  0  0  0  0  0  0  0  0
    9.1871  -16.0359   26.7667 C   0  0  0  0  0  0  0  0  0  0  0  0
    9.8329  -15.7365   27.9582 O   0  0  0  0  0  0  0  0  0  0  0  0
    9.0923  -17.2477   26.4559 O   0  0  0  0  0  0  0  0  0  0  0  0
  2  1  1  1
  2  3  1  0
  3  4  1  0
  4  5  2  0
  5  6  1  0
  7  6  1  0
  8  4  1  0
  8  7  2  0
  9  2  1  0
  9 10  2  0
 11  9  1  0
 12 11  1  0
 12 13  1  0
 13 20  1  0
 14 13  2  0
 16 15  1  1
 16 17  1  0
 18 16  1  0
 19 18  1  1
 20 19  1  0
 21 19  1  0
 21 22  1  0
 23 21  2  0
M  END
$$$$
