HGL.pdb
     RDKit          3D

 23 23  0  0  1  0  0  0  0  0999 V2000
    8.2609  -15.4522   20.1953 N   0  0  0  0  0  0  0  0  0  0  0  0
    9.6438  -15.6929   19.8341 C   0  0  1  0  0  0  0  0  0  0  0  0
   10.0610  -14.5526   18.9313 C   0  0  0  0  0  0  0  0  0  0  0  0
    9.1852  -14.4723   17.7348 C   0  0  0  0  0  0  0  0  0  0  0  0
    9.0306  -15.4095   16.7319 C   0  0  0  0  0  0  0  0  0  0  0  0
    8.1327  -14.9482   15.8205 N   0  0  0  0  0  0  0  0  0  0  0  0
    7.7246  -13.7268   16.2483 C   0  0  0  0  0  0  0  0  0  0  0  0
    8.3566  -13.4494   17.3906 N   0  0  0  0  0  0  0  0  0  0  0  0
   10.4405  -15.7873   21.0527 C   0  0  0  0  0  0  0  0  0  0  0  0
   11.6886  -15.8838   20.9754 O   0  0  0  0  0  0  0  0  0  0  0  0
    9.8899  -15.7780   22.3693 N   0  0  0  0  0  0  0  0  0  0  0  0
   10.6765  -15.9263   23.5559 C   0  0  0  0  0  0  0  0  0  0  0  0
    9.7799  -15.7924   24.7460 C   0  0  0  0  0  0  0  0  0  0  0  0
   10.2646  -15.9078   25.9225 O   0  0  0  0  0  0  0  0  0  0  0  0
    7.8275  -12.8014   27.1500 C   0  0  0  0  0  0  0  0  0  0  0  0
    7.2029  -13.0495   25.7677 C   0  0  2  0  0  0  0  0  0  0  0  0
    6.2272  -11.9142   25.5684 C   0  0  0  0  0  0  0  0  0  0  0  0
    6.5859  -14.3985   25.8257 C   0  0  0  0  0  0  0  0  0  0  0  0
    7.5521  -15.5537   25.8211 C   0  0  2  0  0  0  0  0  0  0  0  0
    8.4084  -15.5423   24.6571 N   0  0  0  0  0  0  0  0  0  0  0  0
    6.9483  -16.8746   25.9625 C   0  0  0  0  0  0  0  0  0  0  0  0
    6.2014  -17.2413   27.0735 O   0  0  0  0  0  0  0  0  0  0  0  0
    7.0930  -17.7348   25.0608 O   0  0  0  0  0  0  0  0  0  0  0  0
  2  1  1  1
  2  3  1  0
  3  4  1  0
  4  5  2  0
  5  6  1  0
  7  6  1  0
  8  4  1  0
  8  7  2  0
  9  2  1  0
  9 10  2  0
 11  9  1  0
 12 11  1  0
 12 13  1  0
 13 20  1  0
 14 13  2  0
 16 15  1  1
 16 17  1  0
 18 16  1  0
 19 18  1  6
 20 19  1  0
 21 19  1  0
 21 22  1  0
 23 21  2  0
M  END
$$$$
