HGL.pdb
     RDKit          3D

 23 23  0  0  1  0  0  0  0  0999 V2000
    9.0697  -14.1311   19.7441 N   0  0  0  0  0  0  0  0  0  0  0  0
    8.3495  -15.3824   19.8726 C   0  0  1  0  0  0  0  0  0  0  0  0
    8.4183  -16.0630   18.5230 C   0  0  0  0  0  0  0  0  0  0  0  0
    8.1523  -15.0985   17.4256 C   0  0  0  0  0  0  0  0  0  0  0  0
    7.9170  -13.7412   17.5273 C   0  0  0  0  0  0  0  0  0  0  0  0
    7.7193  -13.2252   16.2846 N   0  0  0  0  0  0  0  0  0  0  0  0
    7.8297  -14.2532   15.4057 C   0  0  0  0  0  0  0  0  0  0  0  0
    8.0880  -15.3675   16.0934 N   0  0  0  0  0  0  0  0  0  0  0  0
    8.9513  -16.1652   20.9467 C   0  0  0  0  0  0  0  0  0  0  0  0
    8.4915  -17.2985   21.2249 O   0  0  0  0  0  0  0  0  0  0  0  0
   10.0597  -15.7255   21.7307 N   0  0  0  0  0  0  0  0  0  0  0  0
   10.6203  -16.4882   22.8044 C   0  0  0  0  0  0  0  0  0  0  0  0
   10.0233  -16.0152   24.0921 C   0  0  0  0  0  0  0  0  0  0  0  0
   10.7587  -15.9073   25.1313 O   0  0  0  0  0  0  0  0  0  0  0  0
    5.8225  -12.3035   26.1463 C   0  0  0  0  0  0  0  0  0  0  0  0
    6.9483  -13.2489   26.5950 C   0  0  2  0  0  0  0  0  0  0  0  0
    7.8867  -12.3856   27.4040 C   0  0  0  0  0  0  0  0  0  0  0  0
    7.5356  -13.8150   25.3546 C   0  0  0  0  0  0  0  0  0  0  0  0
    8.1464  -15.1846   25.4933 C   0  0  2  0  0  0  0  0  0  0  0  0
    8.6771  -15.6731   24.2411 N   0  0  0  0  0  0  0  0  0  0  0  0
    7.2773  -16.2007   26.0778 C   0  0  0  0  0  0  0  0  0  0  0  0
    7.4003  -16.6240   27.3939 O   0  0  0  0  0  0  0  0  0  0  0  0
    6.3739  -16.7317   25.3878 O   0  0  0  0  0  0  0  0  0  0  0  0
  2  1  1  6
  2  3  1  0
  3  4  1  0
  4  5  2  0
  5  6  1  0
  7  6  1  0
  8  4  1  0
  8  7  2  0
  9  2  1  0
  9 10  2  0
 11  9  1  0
 12 11  1  0
 12 13  1  0
 13 20  1  0
 14 13  2  0
 16 15  1  6
 16 17  1  0
 18 16  1  0
 19 18  1  6
 20 19  1  0
 21 19  1  0
 21 22  1  0
 23 21  2  0
M  END
$$$$
