HGL.pdb
     RDKit          3D

 23 23  0  0  1  0  0  0  0  0999 V2000
    8.9147  -15.9416   19.8087 N   0  0  0  0  0  0  0  0  0  0  0  0
    8.0632  -14.8623   20.2680 C   0  0  1  0  0  0  0  0  0  0  0  0
    6.9947  -14.6741   19.2134 C   0  0  0  0  0  0  0  0  0  0  0  0
    7.5942  -14.2921   17.9096 C   0  0  0  0  0  0  0  0  0  0  0  0
    8.3926  -13.2001   17.6301 C   0  0  0  0  0  0  0  0  0  0  0  0
    8.7313  -13.2165   16.3131 N   0  0  0  0  0  0  0  0  0  0  0  0
    8.1487  -14.3137   15.7669 C   0  0  0  0  0  0  0  0  0  0  0  0
    7.4720  -14.9504   16.7250 N   0  0  0  0  0  0  0  0  0  0  0  0
    7.5269  -15.2096   21.5795 C   0  0  0  0  0  0  0  0  0  0  0  0
    6.7914  -14.3956   22.1876 O   0  0  0  0  0  0  0  0  0  0  0  0
    7.7836  -16.4454   22.2455 N   0  0  0  0  0  0  0  0  0  0  0  0
    7.3048  -16.7493   23.5597 C   0  0  0  0  0  0  0  0  0  0  0  0
    8.1314  -16.0003   24.5568 C   0  0  0  0  0  0  0  0  0  0  0  0
    9.3540  -15.7353   24.2972 O   0  0  0  0  0  0  0  0  0  0  0  0
    7.7509  -11.9548   25.7454 C   0  0  0  0  0  0  0  0  0  0  0  0
    6.8074  -12.8851   26.5242 C   0  0  2  0  0  0  0  0  0  0  0  0
    5.8618  -11.9624   27.2556 C   0  0  0  0  0  0  0  0  0  0  0  0
    7.6712  -13.7149   27.4013 C   0  0  0  0  0  0  0  0  0  0  0  0
    8.4600  -14.7912   26.7030 C   0  0  2  0  0  0  0  0  0  0  0  0
    7.6441  -15.5573   25.7888 N   0  0  0  0  0  0  0  0  0  0  0  0
    9.1869  -15.7028   27.5804 C   0  0  0  0  0  0  0  0  0  0  0  0
   10.2117  -15.2801   28.4156 O   0  0  0  0  0  0  0  0  0  0  0  0
    8.8971  -16.9233   27.6025 O   0  0  0  0  0  0  0  0  0  0  0  0
  2  1  1  6
  2  3  1  0
  3  4  1  0
  4  5  2  0
  5  6  1  0
  7  6  1  0
  8  4  1  0
  8  7  2  0
  9  2  1  0
  9 10  2  0
 11  9  1  0
 12 11  1  0
 12 13  1  0
 13 20  1  0
 14 13  2  0
 16 15  1  6
 16 17  1  0
 18 16  1  0
 19 18  1  1
 20 19  1  0
 21 19  1  0
 21 22  1  0
 23 21  2  0
M  END
$$$$
