ATY.pdb
     RDKit          3D

 25 25  0  0  1  0  0  0  0  0999 V2000
   18.8931  -11.0155  -23.1210 C   0  0  0  0  0  0  0  0  0  0  0  0
   20.1536  -10.3471  -23.6312 C   0  0  2  0  0  0  0  0  0  0  0  0
   20.9956  -11.2444  -24.3799 N   0  0  0  0  0  0  0  0  0  0  0  0
   20.8732   -9.7449  -22.4765 C   0  0  0  0  0  0  0  0  0  0  0  0
   21.5943  -10.4772  -21.7354 O   0  0  0  0  0  0  0  0  0  0  0  0
   22.8543   -6.5134  -22.6417 C   0  0  0  0  0  0  0  0  0  0  0  0
   21.9961   -6.3972  -21.3938 C   0  0  1  0  0  0  0  0  0  0  0  0
   20.9165   -5.5557  -21.6748 O   0  0  0  0  0  0  0  0  0  0  0  0
   21.4952   -7.7671  -21.0589 C   0  0  2  0  0  0  0  0  0  0  0  0
   20.7949   -8.3710  -22.1536 N   0  0  0  0  0  0  0  0  0  0  0  0
   20.7132   -7.7113  -19.8151 C   0  0  0  0  0  0  0  0  0  0  0  0
   19.4603   -7.7011  -19.7524 O   0  0  0  0  0  0  0  0  0  0  0  0
   18.5683   -8.4890  -11.4409 O   0  0  0  0  0  0  0  0  0  0  0  0
   19.1859   -8.5450  -12.6742 C   0  0  0  0  0  0  0  0  0  0  0  0
   20.5364   -8.3201  -12.7733 C   0  0  0  0  0  0  0  0  0  0  0  0
   21.1419   -8.3818  -14.0331 C   0  0  0  0  0  0  0  0  0  0  0  0
   20.4080   -8.6613  -15.1578 C   0  0  0  0  0  0  0  0  0  0  0  0
   21.0326   -8.7226  -16.4773 C   0  0  0  0  0  0  0  0  0  0  0  0
   20.6979   -7.5211  -17.3285 C   0  0  2  0  0  0  0  0  0  0  0  0
   21.4316   -7.6652  -18.5876 N   0  0  0  0  0  0  0  0  0  0  0  0
   21.0427   -6.2380  -16.6782 C   0  0  0  0  0  0  0  0  0  0  0  0
   20.1152   -5.5633  -15.8604 O   0  0  0  0  0  0  0  0  0  0  0  0
   19.0543   -8.8827  -15.0276 C   0  0  0  0  0  0  0  0  0  0  0  0
   18.4248   -8.8275  -13.7840 C   0  0  0  0  0  0  0  0  0  0  0  0
   22.1578   -5.6761  -16.8072 O   0  0  0  0  0  0  0  0  0  0  0  0
  2  1  1  1
  3  2  1  0
  4  5  2  0
  4  2  1  0
  7  6  1  6
  7  8  1  0
  7  9  1  0
  9 10  1  6
 10  4  1  0
 11  9  1  0
 11 20  1  0
 12 11  2  0
 14 13  1  0
 15 14  2  0
 16 15  1  0
 17 16  2  0
 17 23  1  0
 18 17  1  0
 19 18  1  1
 20 19  1  0
 21 19  1  0
 22 21  1  0
 23 24  2  0
 24 14  1  0
 25 21  2  0
M  END
$$$$
