ATY.pdb
     RDKit          3D

 25 25  0  0  1  0  0  0  0  0999 V2000
   14.9851  -13.3061  -14.9082 C   0  0  0  0  0  0  0  0  0  0  0  0
   16.1224  -13.8806  -15.7284 C   0  0  2  0  0  0  0  0  0  0  0  0
   16.3152  -15.2899  -15.5023 N   0  0  0  0  0  0  0  0  0  0  0  0
   17.3560  -13.0991  -15.4434 C   0  0  0  0  0  0  0  0  0  0  0  0
   18.0650  -13.3914  -14.4349 O   0  0  0  0  0  0  0  0  0  0  0  0
   20.0167  -12.1501  -17.9866 C   0  0  0  0  0  0  0  0  0  0  0  0
   19.6891  -10.8687  -17.2395 C   0  0  1  0  0  0  0  0  0  0  0  0
   18.8601  -10.0846  -18.0461 O   0  0  0  0  0  0  0  0  0  0  0  0
   18.9636  -11.2474  -15.9864 C   0  0  2  0  0  0  0  0  0  0  0  0
   17.7900  -12.0251  -16.2534 N   0  0  0  0  0  0  0  0  0  0  0  0
   18.7045  -10.0405  -15.1878 C   0  0  0  0  0  0  0  0  0  0  0  0
   17.5786   -9.5107  -15.0284 O   0  0  0  0  0  0  0  0  0  0  0  0
   19.9759   -3.7595   -9.2628 O   0  0  0  0  0  0  0  0  0  0  0  0
   20.1176   -4.8587  -10.0856 C   0  0  0  0  0  0  0  0  0  0  0  0
   20.9025   -4.7755  -11.2086 C   0  0  0  0  0  0  0  0  0  0  0  0
   21.0321   -5.9018  -12.0285 C   0  0  0  0  0  0  0  0  0  0  0  0
   20.3899   -7.0753  -11.7251 C   0  0  0  0  0  0  0  0  0  0  0  0
   20.5168   -8.2540  -12.5792 C   0  0  0  0  0  0  0  0  0  0  0  0
   19.6154   -8.1876  -13.7888 C   0  0  2  0  0  0  0  0  0  0  0  0
   19.8154   -9.4251  -14.5458 N   0  0  0  0  0  0  0  0  0  0  0  0
   19.8847   -7.0128  -14.6465 C   0  0  0  0  0  0  0  0  0  0  0  0
   19.1295   -5.8305  -14.5207 O   0  0  0  0  0  0  0  0  0  0  0  0
   19.6089   -7.1293  -10.5914 C   0  0  0  0  0  0  0  0  0  0  0  0
   19.4620   -6.0218   -9.7561 C   0  0  0  0  0  0  0  0  0  0  0  0
   20.7825   -6.9894  -15.5236 O   0  0  0  0  0  0  0  0  0  0  0  0
  2  1  1  1
  3  2  1  0
  4  5  2  0
  4  2  1  0
  7  6  1  6
  7  8  1  0
  7  9  1  0
  9 10  1  6
 10  4  1  0
 11  9  1  0
 11 20  1  0
 12 11  2  0
 14 13  1  0
 15 14  2  0
 16 15  1  0
 17 16  2  0
 17 23  1  0
 18 17  1  0
 19 18  1  1
 20 19  1  0
 21 19  1  0
 22 21  1  0
 23 24  2  0
 24 14  1  0
 25 21  2  0
M  END
$$$$
