ATY.pdb
     RDKit          3D

 25 25  0  0  1  0  0  0  0  0999 V2000
   28.2932  -24.7517  -17.7571 C   0  0  0  0  0  0  0  0  0  0  0  0
   28.8274  -23.4179  -18.2384 C   0  0  2  0  0  0  0  0  0  0  0  0
   30.2665  -23.3767  -18.2793 N   0  0  0  0  0  0  0  0  0  0  0  0
   28.2658  -22.3424  -17.3773 C   0  0  0  0  0  0  0  0  0  0  0  0
   28.8435  -22.0432  -16.2900 O   0  0  0  0  0  0  0  0  0  0  0  0
   26.5907  -19.0121  -18.7271 C   0  0  0  0  0  0  0  0  0  0  0  0
   25.6949  -19.6337  -17.6696 C   0  0  1  0  0  0  0  0  0  0  0  0
   24.6572  -20.3146  -18.3117 O   0  0  0  0  0  0  0  0  0  0  0  0
   26.5242  -20.6010  -16.8845 C   0  0  2  0  0  0  0  0  0  0  0  0
   27.0979  -21.6201  -17.7126 N   0  0  0  0  0  0  0  0  0  0  0  0
   25.7319  -21.1265  -15.7630 C   0  0  0  0  0  0  0  0  0  0  0  0
   25.3206  -22.3075  -15.6632 O   0  0  0  0  0  0  0  0  0  0  0  0
   22.1380  -21.2286   -7.7531 O   0  0  0  0  0  0  0  0  0  0  0  0
   22.8348  -20.8875   -8.8948 C   0  0  0  0  0  0  0  0  0  0  0  0
   22.1826  -20.2777   -9.9374 C   0  0  0  0  0  0  0  0  0  0  0  0
   22.9083  -19.9407  -11.0851 C   0  0  0  0  0  0  0  0  0  0  0  0
   24.2499  -20.2105  -11.1783 C   0  0  0  0  0  0  0  0  0  0  0  0
   25.0132  -19.8658  -12.3756 C   0  0  0  0  0  0  0  0  0  0  0  0
   24.6258  -20.7085  -13.5672 C   0  0  2  0  0  0  0  0  0  0  0  0
   25.4060  -20.2274  -14.7092 N   0  0  0  0  0  0  0  0  0  0  0  0
   23.1796  -20.6478  -13.8723 C   0  0  0  0  0  0  0  0  0  0  0  0
   22.2970  -21.6482  -13.4201 O   0  0  0  0  0  0  0  0  0  0  0  0
   24.8780  -20.8232  -10.1160 C   0  0  0  0  0  0  0  0  0  0  0  0
   24.1790  -21.1701   -8.9597 C   0  0  0  0  0  0  0  0  0  0  0  0
   22.6526  -19.7237  -14.5386 O   0  0  0  0  0  0  0  0  0  0  0  0
  2  1  1  1
  3  2  1  0
  4  5  2  0
  4  2  1  0
  7  6  1  6
  7  8  1  0
  7  9  1  0
  9 10  1  6
 10  4  1  0
 11  9  1  0
 11 20  1  0
 12 11  2  0
 14 13  1  0
 15 14  2  0
 16 15  1  0
 17 16  2  0
 17 23  1  0
 18 17  1  0
 19 18  1  1
 20 19  1  0
 21 19  1  0
 22 21  1  0
 23 24  2  0
 24 14  1  0
 25 21  2  0
M  END
$$$$
