ATY.pdb
     RDKit          3D

 25 25  0  0  1  0  0  0  0  0999 V2000
   19.1989  -12.2263  -19.1294 C   0  0  0  0  0  0  0  0  0  0  0  0
   20.7116  -12.1453  -19.1627 C   0  0  2  0  0  0  0  0  0  0  0  0
   21.3361  -13.4387  -19.2712 N   0  0  0  0  0  0  0  0  0  0  0  0
   21.1746  -11.4050  -17.9581 C   0  0  0  0  0  0  0  0  0  0  0  0
   20.3263  -10.9784  -17.1191 O   0  0  0  0  0  0  0  0  0  0  0  0
   24.6756  -10.2413  -14.7688 C   0  0  0  0  0  0  0  0  0  0  0  0
   24.3266  -10.9751  -16.0521 C   0  0  1  0  0  0  0  0  0  0  0  0
   24.2198  -12.3392  -15.7680 O   0  0  0  0  0  0  0  0  0  0  0  0
   23.0071  -10.4533  -16.5283 C   0  0  2  0  0  0  0  0  0  0  0  0
   22.5384  -11.1455  -17.6921 N   0  0  0  0  0  0  0  0  0  0  0  0
   23.0912   -8.9956  -16.7007 C   0  0  0  0  0  0  0  0  0  0  0  0
   23.3978   -8.4137  -17.7689 O   0  0  0  0  0  0  0  0  0  0  0  0
   21.3312   -0.8535  -17.5974 O   0  0  0  0  0  0  0  0  0  0  0  0
   21.4181   -2.2135  -17.3775 C   0  0  0  0  0  0  0  0  0  0  0  0
   20.4941   -2.8370  -16.5764 C   0  0  0  0  0  0  0  0  0  0  0  0
   20.6010   -4.2162  -16.3672 C   0  0  0  0  0  0  0  0  0  0  0  0
   21.6086   -4.9437  -16.9476 C   0  0  0  0  0  0  0  0  0  0  0  0
   21.7294   -6.3835  -16.7297 C   0  0  0  0  0  0  0  0  0  0  0  0
   22.7941   -6.7243  -15.7146 C   0  0  2  0  0  0  0  0  0  0  0  0
   22.8030   -8.1815  -15.5698 N   0  0  0  0  0  0  0  0  0  0  0  0
   22.5687   -6.0801  -14.4021 C   0  0  0  0  0  0  0  0  0  0  0  0
   21.8684   -6.7436  -13.3757 O   0  0  0  0  0  0  0  0  0  0  0  0
   22.5215   -4.2910  -17.7469 C   0  0  0  0  0  0  0  0  0  0  0  0
   22.4388   -2.9170  -17.9727 C   0  0  0  0  0  0  0  0  0  0  0  0
   22.9758   -4.9267  -14.1199 O   0  0  0  0  0  0  0  0  0  0  0  0
  2  1  1  1
  3  2  1  0
  4  5  2  0
  4  2  1  0
  7  6  1  1
  7  8  1  0
  7  9  1  0
  9 10  1  6
 10  4  1  0
 11  9  1  0
 11 20  1  0
 12 11  2  0
 14 13  1  0
 15 14  2  0
 16 15  1  0
 17 16  2  0
 17 23  1  0
 18 17  1  0
 19 18  1  6
 20 19  1  0
 21 19  1  0
 22 21  1  0
 23 24  2  0
 24 14  1  0
 25 21  2  0
M  END
$$$$
