ATY.pdb
     RDKit          3D

 25 25  0  0  1  0  0  0  0  0999 V2000
   20.0252  -14.7943  -18.8005 C   0  0  0  0  0  0  0  0  0  0  0  0
   19.9446  -14.3644  -17.3498 C   0  0  2  0  0  0  0  0  0  0  0  0
   18.6702  -14.6653  -16.7500 N   0  0  0  0  0  0  0  0  0  0  0  0
   20.2694  -12.9149  -17.2648 C   0  0  0  0  0  0  0  0  0  0  0  0
   21.4625  -12.5277  -17.4436 O   0  0  0  0  0  0  0  0  0  0  0  0
   19.0734  -10.1517  -19.2791 C   0  0  0  0  0  0  0  0  0  0  0  0
   18.7271   -9.7274  -17.8623 C   0  0  1  0  0  0  0  0  0  0  0  0
   17.3806  -10.0190  -17.6286 O   0  0  0  0  0  0  0  0  0  0  0  0
   19.5856  -10.5217  -16.9285 C   0  0  2  0  0  0  0  0  0  0  0  0
   19.2993  -11.9244  -16.9895 N   0  0  0  0  0  0  0  0  0  0  0  0
   19.4886   -9.9564  -15.5748 C   0  0  0  0  0  0  0  0  0  0  0  0
   18.9493  -10.5241  -14.5946 O   0  0  0  0  0  0  0  0  0  0  0  0
   24.7194   -4.6532  -16.5361 O   0  0  0  0  0  0  0  0  0  0  0  0
   23.9014   -5.4729  -15.7848 C   0  0  0  0  0  0  0  0  0  0  0  0
   23.0268   -4.9232  -14.8810 C   0  0  0  0  0  0  0  0  0  0  0  0
   22.2070   -5.7726  -14.1301 C   0  0  0  0  0  0  0  0  0  0  0  0
   22.2677   -7.1341  -14.2859 C   0  0  0  0  0  0  0  0  0  0  0  0
   21.4182   -8.0276  -13.5017 C   0  0  0  0  0  0  0  0  0  0  0  0
   20.0006   -8.0751  -14.0197 C   0  0  2  0  0  0  0  0  0  0  0  0
   20.0489   -8.6664  -15.3585 N   0  0  0  0  0  0  0  0  0  0  0  0
   19.3589   -6.7432  -14.0704 C   0  0  0  0  0  0  0  0  0  0  0  0
   18.9609   -6.0810  -12.8926 O   0  0  0  0  0  0  0  0  0  0  0  0
   23.1553   -7.6574  -15.2006 C   0  0  0  0  0  0  0  0  0  0  0  0
   23.9842   -6.8340  -15.9626 C   0  0  0  0  0  0  0  0  0  0  0  0
   19.1307   -6.1268  -15.1399 O   0  0  0  0  0  0  0  0  0  0  0  0
  2  1  1  6
  3  2  1  0
  4  5  2  0
  4  2  1  0
  7  6  1  6
  7  8  1  0
  7  9  1  0
  9 10  1  1
 10  4  1  0
 11  9  1  0
 11 20  1  0
 12 11  2  0
 14 13  1  0
 15 14  2  0
 16 15  1  0
 17 16  2  0
 17 23  1  0
 18 17  1  0
 19 18  1  6
 20 19  1  0
 21 19  1  0
 22 21  1  0
 23 24  2  0
 24 14  1  0
 25 21  2  0
M  END
$$$$
