ATY.pdb
     RDKit          3D

 25 25  0  0  1  0  0  0  0  0999 V2000
   22.0720  -13.4101  -16.6861 C   0  0  0  0  0  0  0  0  0  0  0  0
   20.8311  -12.9586  -17.4292 C   0  0  2  0  0  0  0  0  0  0  0  0
   20.6597  -13.6352  -18.6891 N   0  0  0  0  0  0  0  0  0  0  0  0
   20.8882  -11.4813  -17.5962 C   0  0  0  0  0  0  0  0  0  0  0  0
   21.6574  -10.9775  -18.4679 O   0  0  0  0  0  0  0  0  0  0  0  0
   17.8796   -8.8450  -16.3021 C   0  0  0  0  0  0  0  0  0  0  0  0
   18.9356   -8.5285  -17.3470 C   0  0  1  0  0  0  0  0  0  0  0  0
   19.0933   -7.1416  -17.4122 O   0  0  0  0  0  0  0  0  0  0  0  0
   20.2167   -9.1624  -16.9033 C   0  0  2  0  0  0  0  0  0  0  0  0
   20.1148  -10.5893  -16.8189 N   0  0  0  0  0  0  0  0  0  0  0  0
   20.6709   -8.5270  -15.6577 C   0  0  0  0  0  0  0  0  0  0  0  0
   20.4778   -8.9830  -14.5051 O   0  0  0  0  0  0  0  0  0  0  0  0
   26.3297   -4.9884  -18.8070 O   0  0  0  0  0  0  0  0  0  0  0  0
   25.6073   -5.5086  -17.7520 C   0  0  0  0  0  0  0  0  0  0  0  0
   25.0692   -6.7678  -17.8467 C   0  0  0  0  0  0  0  0  0  0  0  0
   24.3407   -7.2754  -16.7655 C   0  0  0  0  0  0  0  0  0  0  0  0
   24.1605   -6.5359  -15.6244 C   0  0  0  0  0  0  0  0  0  0  0  0
   23.3968   -7.0575  -14.4932 C   0  0  0  0  0  0  0  0  0  0  0  0
   21.9366   -6.6789  -14.5613 C   0  0  2  0  0  0  0  0  0  0  0  0
   21.3843   -7.3006  -15.7667 N   0  0  0  0  0  0  0  0  0  0  0  0
   21.7198   -5.2159  -14.5939 C   0  0  0  0  0  0  0  0  0  0  0  0
   22.0215   -4.4098  -13.4788 O   0  0  0  0  0  0  0  0  0  0  0  0
   24.7123   -5.2752  -15.5578 C   0  0  0  0  0  0  0  0  0  0  0  0
   25.4432   -4.7443  -16.6206 C   0  0  0  0  0  0  0  0  0  0  0  0
   21.2636   -4.6074  -15.5926 O   0  0  0  0  0  0  0  0  0  0  0  0
  2  1  1  6
  3  2  1  0
  4  5  2  0
  4  2  1  0
  7  6  1  1
  7  8  1  0
  7  9  1  0
  9 10  1  1
 10  4  1  0
 11  9  1  0
 11 20  1  0
 12 11  2  0
 14 13  1  0
 15 14  2  0
 16 15  1  0
 17 16  2  0
 17 23  1  0
 18 17  1  0
 19 18  1  6
 20 19  1  0
 21 19  1  0
 22 21  1  0
 23 24  2  0
 24 14  1  0
 25 21  2  0
M  END
$$$$
