ATY.pdb
     RDKit          3D

 25 25  0  0  1  0  0  0  0  0999 V2000
   23.1677  -16.5848  -21.5738 C   0  0  0  0  0  0  0  0  0  0  0  0
   22.2872  -15.3745  -21.3376 C   0  0  2  0  0  0  0  0  0  0  0  0
   21.7621  -14.8212  -22.5594 N   0  0  0  0  0  0  0  0  0  0  0  0
   23.0602  -14.3686  -20.5602 C   0  0  0  0  0  0  0  0  0  0  0  0
   23.5374  -14.6816  -19.4290 O   0  0  0  0  0  0  0  0  0  0  0  0
   26.0784  -12.5780  -21.6246 C   0  0  0  0  0  0  0  0  0  0  0  0
   25.1357  -11.4708  -21.1856 C   0  0  1  0  0  0  0  0  0  0  0  0
   24.5427  -10.9163  -22.3230 O   0  0  0  0  0  0  0  0  0  0  0  0
   24.0844  -12.0882  -20.3176 C   0  0  2  0  0  0  0  0  0  0  0  0
   23.2968  -13.0546  -21.0242 N   0  0  0  0  0  0  0  0  0  0  0  0
   23.2892  -11.0269  -19.6829 C   0  0  0  0  0  0  0  0  0  0  0  0
   22.1075  -10.7340  -19.9857 O   0  0  0  0  0  0  0  0  0  0  0  0
   20.9129   -5.0929  -13.7239 O   0  0  0  0  0  0  0  0  0  0  0  0
   21.5431   -6.1069  -14.4168 C   0  0  0  0  0  0  0  0  0  0  0  0
   22.7885   -5.8963  -14.9543 C   0  0  0  0  0  0  0  0  0  0  0  0
   23.4089   -6.9378  -15.6527 C   0  0  0  0  0  0  0  0  0  0  0  0
   22.7924   -8.1537  -15.8043 C   0  0  0  0  0  0  0  0  0  0  0  0
   23.4321   -9.2444  -16.5365 C   0  0  0  0  0  0  0  0  0  0  0  0
   23.1723   -9.1700  -18.0222 C   0  0  2  0  0  0  0  0  0  0  0  0
   23.9062  -10.2735  -18.6453 N   0  0  0  0  0  0  0  0  0  0  0  0
   23.5844   -7.8798  -18.6171 C   0  0  0  0  0  0  0  0  0  0  0  0
   22.6943   -6.7899  -18.6811 O   0  0  0  0  0  0  0  0  0  0  0  0
   21.5425   -8.3361  -15.2539 C   0  0  0  0  0  0  0  0  0  0  0  0
   20.9008   -7.3152  -14.5526 C   0  0  0  0  0  0  0  0  0  0  0  0
   24.7269   -7.6727  -19.0939 O   0  0  0  0  0  0  0  0  0  0  0  0
  2  1  1  6
  3  2  1  0
  4  5  2  0
  4  2  1  0
  7  6  1  6
  7  8  1  0
  7  9  1  0
  9 10  1  6
 10  4  1  0
 11  9  1  0
 11 20  1  0
 12 11  2  0
 14 13  1  0
 15 14  2  0
 16 15  1  0
 17 16  2  0
 17 23  1  0
 18 17  1  0
 19 18  1  1
 20 19  1  0
 21 19  1  0
 22 21  1  0
 23 24  2  0
 24 14  1  0
 25 21  2  0
M  END
$$$$
