ATY.pdb
     RDKit          3D

 25 25  0  0  1  0  0  0  0  0999 V2000
   21.1262  -12.1168  -20.1952 C   0  0  0  0  0  0  0  0  0  0  0  0
   21.3040  -11.9386  -18.7010 C   0  0  2  0  0  0  0  0  0  0  0  0
   20.4399  -12.7963  -17.9314 N   0  0  0  0  0  0  0  0  0  0  0  0
   21.1021  -10.5030  -18.3661 C   0  0  0  0  0  0  0  0  0  0  0  0
   21.8818   -9.6299  -18.8509 O   0  0  0  0  0  0  0  0  0  0  0  0
   18.3388   -6.8721  -16.5956 C   0  0  0  0  0  0  0  0  0  0  0  0
   18.4240   -8.3097  -17.0786 C   0  0  1  0  0  0  0  0  0  0  0  0
   17.8481   -8.3854  -18.3496 O   0  0  0  0  0  0  0  0  0  0  0  0
   19.8729   -8.6763  -17.1577 C   0  0  2  0  0  0  0  0  0  0  0  0
   20.0657  -10.0496  -17.5185 N   0  0  0  0  0  0  0  0  0  0  0  0
   20.5430   -8.2936  -15.9062 C   0  0  0  0  0  0  0  0  0  0  0  0
   20.7773   -9.0696  -14.9487 O   0  0  0  0  0  0  0  0  0  0  0  0
   26.1373   -5.2652  -19.0714 O   0  0  0  0  0  0  0  0  0  0  0  0
   25.3951   -5.7431  -18.0102 C   0  0  0  0  0  0  0  0  0  0  0  0
   25.2229   -4.9665  -16.8916 C   0  0  0  0  0  0  0  0  0  0  0  0
   24.4669   -5.4707  -15.8277 C   0  0  0  0  0  0  0  0  0  0  0  0
   23.9024   -6.7192  -15.8903 C   0  0  0  0  0  0  0  0  0  0  0  0
   23.1158   -7.2543  -14.7812 C   0  0  0  0  0  0  0  0  0  0  0  0
   21.7879   -6.5522  -14.6266 C   0  0  2  0  0  0  0  0  0  0  0  0
   20.9582   -6.9394  -15.7694 N   0  0  0  0  0  0  0  0  0  0  0  0
   21.9165   -5.0799  -14.5621 C   0  0  0  0  0  0  0  0  0  0  0  0
   22.4237   -4.4427  -13.4127 O   0  0  0  0  0  0  0  0  0  0  0  0
   24.0922   -7.4761  -17.0258 C   0  0  0  0  0  0  0  0  0  0  0  0
   24.8411   -6.9984  -18.1013 C   0  0  0  0  0  0  0  0  0  0  0  0
   21.5907   -4.3163  -15.5036 O   0  0  0  0  0  0  0  0  0  0  0  0
  2  1  1  6
  3  2  1  0
  4  5  2  0
  4  2  1  0
  7  6  1  6
  7  8  1  0
  7  9  1  0
  9 10  1  1
 10  4  1  0
 11  9  1  0
 11 20  1  0
 12 11  2  0
 14 13  1  0
 15 14  2  0
 16 15  1  0
 17 16  2  0
 17 23  1  0
 18 17  1  0
 19 18  1  6
 20 19  1  0
 21 19  1  0
 22 21  1  0
 23 24  2  0
 24 14  1  0
 25 21  2  0
M  END
$$$$
