ATY.pdb
     RDKit          3D

 25 25  0  0  1  0  0  0  0  0999 V2000
   29.4116  -23.5611  -16.4929 C   0  0  0  0  0  0  0  0  0  0  0  0
   28.7857  -22.7312  -17.5955 C   0  0  2  0  0  0  0  0  0  0  0  0
   29.7407  -21.8891  -18.2688 N   0  0  0  0  0  0  0  0  0  0  0  0
   27.6620  -21.9447  -17.0189 C   0  0  0  0  0  0  0  0  0  0  0  0
   27.8850  -20.7970  -16.5305 O   0  0  0  0  0  0  0  0  0  0  0  0
   22.8920  -21.1621  -16.2539 C   0  0  0  0  0  0  0  0  0  0  0  0
   23.9345  -21.9982  -16.9759 C   0  0  1  0  0  0  0  0  0  0  0  0
   23.9766  -21.5963  -18.3136 O   0  0  0  0  0  0  0  0  0  0  0  0
   25.2569  -21.7336  -16.3269 C   0  0  2  0  0  0  0  0  0  0  0  0
   26.3304  -22.4176  -16.9851 N   0  0  0  0  0  0  0  0  0  0  0  0
   25.1629  -22.0254  -14.8890 C   0  0  0  0  0  0  0  0  0  0  0  0
   25.8233  -22.9070  -14.2887 O   0  0  0  0  0  0  0  0  0  0  0  0
   26.7114  -20.1925   -6.8441 O   0  0  0  0  0  0  0  0  0  0  0  0
   26.4744  -20.3089   -8.1990 C   0  0  0  0  0  0  0  0  0  0  0  0
   25.5773  -19.4691   -8.8107 C   0  0  0  0  0  0  0  0  0  0  0  0
   25.3524  -19.6045  -10.1849 C   0  0  0  0  0  0  0  0  0  0  0  0
   26.0116  -20.5573  -10.9191 C   0  0  0  0  0  0  0  0  0  0  0  0
   25.7782  -20.7078  -12.3537 C   0  0  0  0  0  0  0  0  0  0  0  0
   24.3897  -21.2159  -12.6603 C   0  0  2  0  0  0  0  0  0  0  0  0
   24.2532  -21.2488  -14.1180 N   0  0  0  0  0  0  0  0  0  0  0  0
   23.3239  -20.3809  -12.0644 C   0  0  0  0  0  0  0  0  0  0  0  0
   22.7717  -19.2928  -12.7684 O   0  0  0  0  0  0  0  0  0  0  0  0
   26.9064  -21.3860  -10.2782 C   0  0  0  0  0  0  0  0  0  0  0  0
   27.1501  -21.2732   -8.9094 C   0  0  0  0  0  0  0  0  0  0  0  0
   22.8501  -20.5795  -10.9191 O   0  0  0  0  0  0  0  0  0  0  0  0
  2  1  1  1
  3  2  1  0
  4  5  2  0
  4  2  1  0
  7  6  1  1
  7  8  1  0
  7  9  1  0
  9 10  1  6
 10  4  1  0
 11  9  1  0
 11 20  1  0
 12 11  2  0
 14 13  1  0
 15 14  2  0
 16 15  1  0
 17 16  2  0
 17 23  1  0
 18 17  1  0
 19 18  1  6
 20 19  1  0
 21 19  1  0
 22 21  1  0
 23 24  2  0
 24 14  1  0
 25 21  2  0
M  END
$$$$
