ATY.pdb
     RDKit          3D

 25 25  0  0  1  0  0  0  0  0999 V2000
   20.8819  -14.6485  -17.0311 C   0  0  0  0  0  0  0  0  0  0  0  0
   21.3967  -13.5133  -17.8925 C   0  0  2  0  0  0  0  0  0  0  0  0
   22.2271  -13.9698  -18.9771 N   0  0  0  0  0  0  0  0  0  0  0  0
   22.1082  -12.5400  -17.0206 C   0  0  0  0  0  0  0  0  0  0  0  0
   21.5695  -12.1545  -15.9405 O   0  0  0  0  0  0  0  0  0  0  0  0
   26.1586  -10.1254  -15.7080 C   0  0  0  0  0  0  0  0  0  0  0  0
   25.5466  -11.1327  -16.6662 C   0  0  1  0  0  0  0  0  0  0  0  0
   25.9666  -12.4120  -16.2926 O   0  0  0  0  0  0  0  0  0  0  0  0
   24.0587  -11.0324  -16.5399 C   0  0  2  0  0  0  0  0  0  0  0  0
   23.3798  -12.0102  -17.3377 N   0  0  0  0  0  0  0  0  0  0  0  0
   23.6369   -9.6505  -16.8121 C   0  0  0  0  0  0  0  0  0  0  0  0
   23.5280   -9.1428  -17.9541 O   0  0  0  0  0  0  0  0  0  0  0  0
   19.9213   -1.8782  -15.2218 O   0  0  0  0  0  0  0  0  0  0  0  0
   20.3971   -3.1709  -15.1333 C   0  0  0  0  0  0  0  0  0  0  0  0
   19.7512   -4.1841  -15.7970 C   0  0  0  0  0  0  0  0  0  0  0  0
   20.2507   -5.4869  -15.6935 C   0  0  0  0  0  0  0  0  0  0  0  0
   21.3667   -5.7592  -14.9439 C   0  0  0  0  0  0  0  0  0  0  0  0
   21.8912   -7.1180  -14.8273 C   0  0  0  0  0  0  0  0  0  0  0  0
   22.8811   -7.4481  -15.9187 C   0  0  2  0  0  0  0  0  0  0  0  0
   23.3284   -8.8245  -15.6952 N   0  0  0  0  0  0  0  0  0  0  0  0
   24.0408   -6.5301  -15.9442 C   0  0  0  0  0  0  0  0  0  0  0  0
   24.0784   -5.4281  -16.8209 O   0  0  0  0  0  0  0  0  0  0  0  0
   21.9942   -4.7221  -14.2889 C   0  0  0  0  0  0  0  0  0  0  0  0
   21.5180   -3.4138  -14.3746 C   0  0  0  0  0  0  0  0  0  0  0  0
   25.0460   -6.6665  -15.2048 O   0  0  0  0  0  0  0  0  0  0  0  0
  2  1  1  1
  3  2  1  0
  4  5  2  0
  4  2  1  0
  7  6  1  1
  7  8  1  0
  7  9  1  0
  9 10  1  6
 10  4  1  0
 11  9  1  0
 11 20  1  0
 12 11  2  0
 14 13  1  0
 15 14  2  0
 16 15  1  0
 17 16  2  0
 17 23  1  0
 18 17  1  0
 19 18  1  1
 20 19  1  0
 21 19  1  0
 22 21  1  0
 23 24  2  0
 24 14  1  0
 25 21  2  0
M  END
$$$$
