ATY.pdb
     RDKit          3D

 25 25  0  0  1  0  0  0  0  0999 V2000
   17.8405  -23.3923  -18.1477 C   0  0  0  0  0  0  0  0  0  0  0  0
   19.2840  -23.5776  -18.5694 C   0  0  2  0  0  0  0  0  0  0  0  0
   19.5640  -24.9155  -19.0235 N   0  0  0  0  0  0  0  0  0  0  0  0
   20.1646  -23.1801  -17.4378 C   0  0  0  0  0  0  0  0  0  0  0  0
   20.6942  -24.0729  -16.7113 O   0  0  0  0  0  0  0  0  0  0  0  0
   22.8894  -20.3774  -17.6240 C   0  0  0  0  0  0  0  0  0  0  0  0
   22.0397  -20.1453  -16.3865 C   0  0  1  0  0  0  0  0  0  0  0  0
   21.1005  -19.1511  -16.6734 O   0  0  0  0  0  0  0  0  0  0  0  0
   21.3369  -21.4286  -16.0718 C   0  0  2  0  0  0  0  0  0  0  0  0
   20.4491  -21.8321  -17.1218 N   0  0  0  0  0  0  0  0  0  0  0  0
   20.6879  -21.3211  -14.7570 C   0  0  0  0  0  0  0  0  0  0  0  0
   19.4518  -21.2153  -14.5709 O   0  0  0  0  0  0  0  0  0  0  0  0
   26.9502  -20.4098  -10.4098 O   0  0  0  0  0  0  0  0  0  0  0  0
   25.6467  -20.8087  -10.6273 C   0  0  0  0  0  0  0  0  0  0  0  0
   24.6398  -20.3161   -9.8352 C   0  0  0  0  0  0  0  0  0  0  0  0
   23.3259  -20.7338  -10.0733 C   0  0  0  0  0  0  0  0  0  0  0  0
   23.0368  -21.6208  -11.0788 C   0  0  0  0  0  0  0  0  0  0  0  0
   21.6677  -22.0652  -11.3301 C   0  0  0  0  0  0  0  0  0  0  0  0
   20.9317  -21.1516  -12.2808 C   0  0  2  0  0  0  0  0  0  0  0  0
   21.5252  -21.3381  -13.6065 N   0  0  0  0  0  0  0  0  0  0  0  0
   21.0005  -19.7281  -11.8841 C   0  0  0  0  0  0  0  0  0  0  0  0
   20.2392  -19.2346  -10.8065 O   0  0  0  0  0  0  0  0  0  0  0  0
   24.0680  -22.0984  -11.8579 C   0  0  0  0  0  0  0  0  0  0  0  0
   25.3870  -21.6989  -11.6428 C   0  0  0  0  0  0  0  0  0  0  0  0
   21.7239  -18.8832  -12.4658 O   0  0  0  0  0  0  0  0  0  0  0  0
  2  1  1  1
  3  2  1  0
  4  5  2  0
  4  2  1  0
  7  6  1  6
  7  8  1  0
  7  9  1  0
  9 10  1  6
 10  4  1  0
 11  9  1  0
 11 20  1  0
 12 11  2  0
 14 13  1  0
 15 14  2  0
 16 15  1  0
 17 16  2  0
 17 23  1  0
 18 17  1  0
 19 18  1  1
 20 19  1  0
 21 19  1  0
 22 21  1  0
 23 24  2  0
 24 14  1  0
 25 21  2  0
M  END
$$$$
