ATY.pdb
     RDKit          3D

 25 25  0  0  1  0  0  0  0  0999 V2000
   13.8442  -22.5487    4.6564 C   0  0  0  0  0  0  0  0  0  0  0  0
   13.0633  -22.0584    5.8588 C   0  0  2  0  0  0  0  0  0  0  0  0
   11.6421  -22.2407    5.7116 N   0  0  0  0  0  0  0  0  0  0  0  0
   13.4173  -20.6348    6.1072 C   0  0  0  0  0  0  0  0  0  0  0  0
   13.2846  -19.7838    5.1779 O   0  0  0  0  0  0  0  0  0  0  0  0
   14.6896  -17.0553    9.2426 C   0  0  0  0  0  0  0  0  0  0  0  0
   14.5352  -18.5549    9.0563 C   0  0  1  0  0  0  0  0  0  0  0  0
   13.4485  -18.9873    9.8210 O   0  0  0  0  0  0  0  0  0  0  0  0
   14.2643  -18.8061    7.6060 C   0  0  2  0  0  0  0  0  0  0  0  0
   13.9041  -20.1692    7.3499 N   0  0  0  0  0  0  0  0  0  0  0  0
   15.4052  -18.3355    6.8069 C   0  0  0  0  0  0  0  0  0  0  0  0
   16.0937  -19.0536    6.0427 O   0  0  0  0  0  0  0  0  0  0  0  0
   20.5356  -14.6923    1.2444 O   0  0  0  0  0  0  0  0  0  0  0  0
   19.5509  -15.1708    2.0852 C   0  0  0  0  0  0  0  0  0  0  0  0
   19.4527  -16.5186    2.3256 C   0  0  0  0  0  0  0  0  0  0  0  0
   18.4472  -16.9818    3.1812 C   0  0  0  0  0  0  0  0  0  0  0  0
   17.5682  -16.1125    3.7756 C   0  0  0  0  0  0  0  0  0  0  0  0
   16.5127  -16.5894    4.6664 C   0  0  0  0  0  0  0  0  0  0  0  0
   16.8808  -16.4446    6.1236 C   0  0  2  0  0  0  0  0  0  0  0  0
   15.7562  -16.9601    6.9071 N   0  0  0  0  0  0  0  0  0  0  0  0
   17.1763  -15.0473    6.5090 C   0  0  0  0  0  0  0  0  0  0  0  0
   18.4909  -14.5429    6.4687 O   0  0  0  0  0  0  0  0  0  0  0  0
   17.6911  -14.7650    3.5158 C   0  0  0  0  0  0  0  0  0  0  0  0
   18.6841  -14.2757    2.6671 C   0  0  0  0  0  0  0  0  0  0  0  0
   16.2977  -14.2352    6.8890 O   0  0  0  0  0  0  0  0  0  0  0  0
  2  1  1  6
  3  2  1  0
  4  5  2  0
  4  2  1  0
  7  6  1  6
  7  8  1  0
  7  9  1  0
  9 10  1  1
 10  4  1  0
 11  9  1  0
 11 20  1  0
 12 11  2  0
 14 13  1  0
 15 14  2  0
 16 15  1  0
 17 16  2  0
 17 23  1  0
 18 17  1  0
 19 18  1  6
 20 19  1  0
 21 19  1  0
 22 21  1  0
 23 24  2  0
 24 14  1  0
 25 21  2  0
M  END
$$$$
