ATY.pdb
     RDKit          3D

 25 25  0  0  1  0  0  0  0  0999 V2000
   26.8235  -26.1595  -18.4582 C   0  0  0  0  0  0  0  0  0  0  0  0
   28.1017  -25.7104  -17.7797 C   0  0  2  0  0  0  0  0  0  0  0  0
   28.7758  -26.7839  -17.0958 N   0  0  0  0  0  0  0  0  0  0  0  0
   27.7825  -24.5827  -16.8632 C   0  0  0  0  0  0  0  0  0  0  0  0
   27.6549  -24.8000  -15.6215 O   0  0  0  0  0  0  0  0  0  0  0  0
   27.4694  -19.7668  -15.9897 C   0  0  0  0  0  0  0  0  0  0  0  0
   27.7020  -20.8376  -17.0416 C   0  0  1  0  0  0  0  0  0  0  0  0
   29.0618  -20.8554  -17.3632 O   0  0  0  0  0  0  0  0  0  0  0  0
   27.3065  -22.1522  -16.4455 C   0  0  2  0  0  0  0  0  0  0  0  0
   27.6099  -23.2532  -17.3111 N   0  0  0  0  0  0  0  0  0  0  0  0
   25.8971  -22.0967  -16.0307 C   0  0  0  0  0  0  0  0  0  0  0  0
   24.9155  -22.1183  -16.8115 O   0  0  0  0  0  0  0  0  0  0  0  0
   25.9794  -19.9840   -8.4123 O   0  0  0  0  0  0  0  0  0  0  0  0
   25.5435  -20.6804   -9.5215 C   0  0  0  0  0  0  0  0  0  0  0  0
   26.4485  -21.3461  -10.3101 C   0  0  0  0  0  0  0  0  0  0  0  0
   25.9848  -22.0456  -11.4296 C   0  0  0  0  0  0  0  0  0  0  0  0
   24.6499  -22.0725  -11.7439 C   0  0  0  0  0  0  0  0  0  0  0  0
   24.1589  -22.7968  -12.9141 C   0  0  0  0  0  0  0  0  0  0  0  0
   24.2350  -21.9705  -14.1756 C   0  0  2  0  0  0  0  0  0  0  0  0
   25.6243  -22.0119  -14.6366 N   0  0  0  0  0  0  0  0  0  0  0  0
   23.8025  -20.5700  -13.9762 C   0  0  0  0  0  0  0  0  0  0  0  0
   22.4396  -20.2161  -14.0130 O   0  0  0  0  0  0  0  0  0  0  0  0
   23.7647  -21.3951  -10.9340 C   0  0  0  0  0  0  0  0  0  0  0  0
   24.1993  -20.6898   -9.8118 C   0  0  0  0  0  0  0  0  0  0  0  0
   24.6006  -19.6241  -13.7657 O   0  0  0  0  0  0  0  0  0  0  0  0
  2  1  1  1
  3  2  1  0
  4  5  2  0
  4  2  1  0
  7  6  1  1
  7  8  1  0
  7  9  1  0
  9 10  1  6
 10  4  1  0
 11  9  1  0
 11 20  1  0
 12 11  2  0
 14 13  1  0
 15 14  2  0
 16 15  1  0
 17 16  2  0
 17 23  1  0
 18 17  1  0
 19 18  1  1
 20 19  1  0
 21 19  1  0
 22 21  1  0
 23 24  2  0
 24 14  1  0
 25 21  2  0
M  END
$$$$
