ATY.pdb
     RDKit          3D

 25 25  0  0  1  0  0  0  0  0999 V2000
   17.9011  -13.8544  -15.5819 C   0  0  0  0  0  0  0  0  0  0  0  0
   18.6068  -12.7351  -16.3203 C   0  0  2  0  0  0  0  0  0  0  0  0
   19.8527  -13.1550  -16.9084 N   0  0  0  0  0  0  0  0  0  0  0  0
   18.7916  -11.5919  -15.3861 C   0  0  0  0  0  0  0  0  0  0  0  0
   19.6479  -11.6739  -14.4558 O   0  0  0  0  0  0  0  0  0  0  0  0
   19.7507   -8.2686  -16.2556 C   0  0  0  0  0  0  0  0  0  0  0  0
   18.5283   -8.0104  -15.3916 C   0  0  1  0  0  0  0  0  0  0  0  0
   17.4486   -7.7146  -16.2278 O   0  0  0  0  0  0  0  0  0  0  0  0
   18.2438   -9.2626  -14.6229 C   0  0  2  0  0  0  0  0  0  0  0  0
   18.0486  -10.3933  -15.4814 N   0  0  0  0  0  0  0  0  0  0  0  0
   17.1280   -9.0242  -13.6956 C   0  0  0  0  0  0  0  0  0  0  0  0
   15.9593   -9.4529  -13.8504 O   0  0  0  0  0  0  0  0  0  0  0  0
   12.5339   -7.2108   -6.5920 O   0  0  0  0  0  0  0  0  0  0  0  0
   13.5041   -7.5477   -7.5144 C   0  0  0  0  0  0  0  0  0  0  0  0
   14.7172   -6.9058   -7.4961 C   0  0  0  0  0  0  0  0  0  0  0  0
   15.6860   -7.2631   -8.4402 C   0  0  0  0  0  0  0  0  0  0  0  0
   15.4388   -8.2372   -9.3737 C   0  0  0  0  0  0  0  0  0  0  0  0
   16.4439   -8.6121  -10.3657 C   0  0  0  0  0  0  0  0  0  0  0  0
   16.2840   -7.8537  -11.6616 C   0  0  2  0  0  0  0  0  0  0  0  0
   17.3930   -8.2477  -12.5330 N   0  0  0  0  0  0  0  0  0  0  0  0
   16.2751   -6.3862  -11.4751 C   0  0  0  0  0  0  0  0  0  0  0  0
   15.0667   -5.6789  -11.3209 O   0  0  0  0  0  0  0  0  0  0  0  0
   14.2120   -8.8644   -9.3678 C   0  0  0  0  0  0  0  0  0  0  0  0
   13.2279   -8.5283   -8.4382 C   0  0  0  0  0  0  0  0  0  0  0  0
   17.3176   -5.6879  -11.4421 O   0  0  0  0  0  0  0  0  0  0  0  0
  2  1  1  1
  3  2  1  0
  4  5  2  0
  4  2  1  0
  7  6  1  6
  7  8  1  0
  7  9  1  0
  9 10  1  6
 10  4  1  0
 11  9  1  0
 11 20  1  0
 12 11  2  0
 14 13  1  0
 15 14  2  0
 16 15  1  0
 17 16  2  0
 17 23  1  0
 18 17  1  0
 19 18  1  1
 20 19  1  0
 21 19  1  0
 22 21  1  0
 23 24  2  0
 24 14  1  0
 25 21  2  0
M  END
$$$$
