STL.pdb
     RDKit          3D

 22 21  0  0  1  0  0  0  0  0999 V2000
   11.2523  -12.7595   19.0424 O   0  0  0  0  0  0  0  0  0  0  0  0
   11.0120  -14.1095   18.8879 C   0  0  0  0  0  0  0  0  0  0  0  0
    9.5924  -14.4287   18.4740 C   0  0  2  0  0  0  0  0  0  0  0  0
    9.0994  -13.2900   17.7434 N   0  0  0  0  0  0  0  0  0  0  0  0
    8.7228  -14.7398   19.6251 C   0  0  0  0  0  0  0  0  0  0  0  0
    7.6515  -14.0986   19.7527 O   0  0  0  0  0  0  0  0  0  0  0  0
    7.4063  -18.1882   20.5067 C   0  0  0  0  0  0  0  0  0  0  0  0
    8.0016  -17.6094   21.7691 C   0  0  1  0  0  0  0  0  0  0  0  0
    9.2279  -18.1956   22.0004 O   0  0  0  0  0  0  0  0  0  0  0  0
    8.1009  -16.0980   21.6406 C   0  0  2  0  0  0  0  0  0  0  0  0
    9.0309  -15.7240   20.5954 N   0  0  0  0  0  0  0  0  0  0  0  0
    8.4733  -15.4714   22.9330 C   0  0  0  0  0  0  0  0  0  0  0  0
    9.6557  -15.1038   23.1336 O   0  0  0  0  0  0  0  0  0  0  0  0
    5.4907  -12.4847   27.4897 C   0  0  0  0  0  0  0  0  0  0  0  0
    6.7555  -12.9141   26.8523 C   0  0  2  0  0  0  0  0  0  0  0  0
    7.7035  -11.7092   26.7198 C   0  0  0  0  0  0  0  0  0  0  0  0
    6.7094  -13.6935   25.5996 C   0  0  0  0  0  0  0  0  0  0  0  0
    7.8736  -14.4783   25.1926 C   0  0  2  0  0  0  0  0  0  0  0  0
    7.5320  -15.2673   23.9688 N   0  0  0  0  0  0  0  0  0  0  0  0
    8.5541  -15.3747   26.1230 C   0  0  0  0  0  0  0  0  0  0  0  0
    9.3585  -15.0760   27.0320 O   0  0  0  0  0  0  0  0  0  0  0  0
    8.3218  -16.7812   26.0451 O   0  0  0  0  0  0  0  0  0  0  0  0
  1  2  1  0
  3  2  1  0
  3  4  1  1
  5  3  1  0
  5 11  1  0
  6  5  2  0
  8  7  1  6
  9  8  1  0
 10 11  1  6
 10  8  1  0
 12 10  1  0
 12 19  1  0
 13 12  2  0
 15 16  1  6
 15 14  1  0
 17 15  1  0
 18 19  1  0
 18 17  1  1
 20 18  1  0
 21 20  2  0
 22 20  1  0
M  END
$$$$
