STL.pdb
     RDKit          3D

 22 21  0  0  1  0  0  0  0  0999 V2000
    9.7718  -11.8136   18.6822 O   0  0  0  0  0  0  0  0  0  0  0  0
    8.9658  -12.4847   19.5789 C   0  0  0  0  0  0  0  0  0  0  0  0
    8.6607  -13.9092   19.1709 C   0  0  2  0  0  0  0  0  0  0  0  0
    7.7434  -13.8437   18.0629 N   0  0  0  0  0  0  0  0  0  0  0  0
    8.1019  -14.7086   20.2783 C   0  0  0  0  0  0  0  0  0  0  0  0
    6.8558  -14.7316   20.4266 O   0  0  0  0  0  0  0  0  0  0  0  0
    8.0005  -18.4578   23.2725 C   0  0  0  0  0  0  0  0  0  0  0  0
    8.6714  -17.6871   22.1594 C   0  0  1  0  0  0  0  0  0  0  0  0
    8.2915  -18.2219   20.9467 O   0  0  0  0  0  0  0  0  0  0  0  0
    8.3189  -16.2128   22.2743 C   0  0  2  0  0  0  0  0  0  0  0  0
    8.8953  -15.4528   21.1847 N   0  0  0  0  0  0  0  0  0  0  0  0
    8.7358  -15.6606   23.5869 C   0  0  0  0  0  0  0  0  0  0  0  0
    9.9452  -15.4105   23.8059 O   0  0  0  0  0  0  0  0  0  0  0  0
    7.6958  -11.7431   25.6848 C   0  0  0  0  0  0  0  0  0  0  0  0
    6.7024  -12.8160   25.9140 C   0  0  2  0  0  0  0  0  0  0  0  0
    5.4753  -12.2385   26.6413 C   0  0  0  0  0  0  0  0  0  0  0  0
    7.1343  -14.0865   26.5288 C   0  0  0  0  0  0  0  0  0  0  0  0
    8.2414  -14.8365   25.9380 C   0  0  2  0  0  0  0  0  0  0  0  0
    7.8078  -15.3992   24.6218 N   0  0  0  0  0  0  0  0  0  0  0  0
    8.9223  -15.8992   26.6724 C   0  0  0  0  0  0  0  0  0  0  0  0
    8.7112  -17.1301   26.6194 O   0  0  0  0  0  0  0  0  0  0  0  0
    9.9705  -15.5675   27.5832 O   0  0  0  0  0  0  0  0  0  0  0  0
  1  2  1  0
  3  2  1  0
  3  4  1  6
  5  3  1  0
  5 11  1  0
  6  5  2  0
  8  7  1  1
  9  8  1  0
 10 11  1  6
 10  8  1  0
 12 10  1  0
 12 19  1  0
 13 12  2  0
 15 16  1  1
 15 14  1  0
 17 15  1  0
 18 19  1  0
 18 17  1  1
 20 18  1  0
 21 20  2  0
 22 20  1  0
M  END
$$$$
