STL.pdb
     RDKit          3D

 22 21  0  0  1  0  0  0  0  0999 V2000
    8.0379  -12.7510   17.9760 O   0  0  0  0  0  0  0  0  0  0  0  0
    8.7689  -13.3532   18.9795 C   0  0  0  0  0  0  0  0  0  0  0  0
    8.6794  -14.8633   18.9715 C   0  0  2  0  0  0  0  0  0  0  0  0
    7.9007  -15.2339   17.8183 N   0  0  0  0  0  0  0  0  0  0  0  0
    8.0858  -15.4025   20.2104 C   0  0  0  0  0  0  0  0  0  0  0  0
    6.8662  -15.6988   20.2066 O   0  0  0  0  0  0  0  0  0  0  0  0
   10.0119  -17.9212   22.5667 C   0  0  0  0  0  0  0  0  0  0  0  0
    8.5201  -17.6946   22.6446 C   0  0  1  0  0  0  0  0  0  0  0  0
    8.0343  -18.2759   23.7966 O   0  0  0  0  0  0  0  0  0  0  0  0
    8.2260  -16.2044   22.5833 C   0  0  2  0  0  0  0  0  0  0  0  0
    8.8178  -15.6046   21.4055 N   0  0  0  0  0  0  0  0  0  0  0  0
    8.6800  -15.5152   23.8164 C   0  0  0  0  0  0  0  0  0  0  0  0
    9.8686  -15.1270   23.9158 O   0  0  0  0  0  0  0  0  0  0  0  0
    7.6435  -11.6846   25.5915 C   0  0  0  0  0  0  0  0  0  0  0  0
    6.7163  -12.7278   26.0840 C   0  0  2  0  0  0  0  0  0  0  0  0
    5.5699  -12.0709   26.8727 C   0  0  0  0  0  0  0  0  0  0  0  0
    7.2557  -13.8967   26.8061 C   0  0  0  0  0  0  0  0  0  0  0  0
    8.3119  -14.7010   26.1940 C   0  0  2  0  0  0  0  0  0  0  0  0
    7.8112  -15.2729   24.9059 N   0  0  0  0  0  0  0  0  0  0  0  0
    8.9771  -15.7743   26.9274 C   0  0  0  0  0  0  0  0  0  0  0  0
    8.7994  -17.0069   26.8192 O   0  0  0  0  0  0  0  0  0  0  0  0
    9.9651  -15.4527   27.9065 O   0  0  0  0  0  0  0  0  0  0  0  0
  1  2  1  0
  3  2  1  0
  3  4  1  6
  5  3  1  0
  5 11  1  0
  6  5  2  0
  8  7  1  1
  9  8  1  0
 10 11  1  6
 10  8  1  0
 12 10  1  0
 12 19  1  0
 13 12  2  0
 15 16  1  1
 15 14  1  0
 17 15  1  0
 18 19  1  0
 18 17  1  1
 20 18  1  0
 21 20  2  0
 22 20  1  0
M  END
$$$$
