STL.pdb
     RDKit          3D

 22 21  0  0  1  0  0  0  0  0999 V2000
    8.1055  -13.2619   16.9375 O   0  0  0  0  0  0  0  0  0  0  0  0
    7.5800  -13.2349   18.2130 C   0  0  0  0  0  0  0  0  0  0  0  0
    8.6112  -13.4551   19.2979 C   0  0  2  0  0  0  0  0  0  0  0  0
    9.6575  -14.2637   18.7279 N   0  0  0  0  0  0  0  0  0  0  0  0
    8.0413  -14.0923   20.5007 C   0  0  0  0  0  0  0  0  0  0  0  0
    7.0314  -13.5682   21.0306 O   0  0  0  0  0  0  0  0  0  0  0  0
    7.3381  -17.9144   20.8824 C   0  0  0  0  0  0  0  0  0  0  0  0
    8.0630  -17.4289   22.1160 C   0  0  1  0  0  0  0  0  0  0  0  0
    9.3770  -17.8430   22.0603 O   0  0  0  0  0  0  0  0  0  0  0  0
    7.9396  -15.9172   22.2192 C   0  0  2  0  0  0  0  0  0  0  0  0
    8.5717  -15.2648   21.0914 N   0  0  0  0  0  0  0  0  0  0  0  0
    8.4944  -15.4183   23.5017 C   0  0  0  0  0  0  0  0  0  0  0  0
    9.6869  -15.0339   23.5613 O   0  0  0  0  0  0  0  0  0  0  0  0
    8.1745  -11.7740   25.8968 C   0  0  0  0  0  0  0  0  0  0  0  0
    7.0889  -12.7550   26.1200 C   0  0  2  0  0  0  0  0  0  0  0  0
    5.9317  -12.0827   26.8795 C   0  0  0  0  0  0  0  0  0  0  0  0
    7.4097  -14.0736   26.7008 C   0  0  0  0  0  0  0  0  0  0  0  0
    8.3231  -14.9716   25.9962 C   0  0  2  0  0  0  0  0  0  0  0  0
    7.7193  -15.3569   24.6832 N   0  0  0  0  0  0  0  0  0  0  0  0
    8.8347  -16.1871   26.6232 C   0  0  0  0  0  0  0  0  0  0  0  0
    8.5583  -17.3736   26.3435 O   0  0  0  0  0  0  0  0  0  0  0  0
    9.7706  -16.0869   27.6967 O   0  0  0  0  0  0  0  0  0  0  0  0
  1  2  1  0
  3  2  1  0
  3  4  1  6
  5  3  1  0
  5 11  1  0
  6  5  2  0
  8  7  1  6
  9  8  1  0
 10 11  1  6
 10  8  1  0
 12 10  1  0
 12 19  1  0
 13 12  2  0
 15 16  1  1
 15 14  1  0
 17 15  1  0
 18 19  1  0
 18 17  1  1
 20 18  1  0
 21 20  2  0
 22 20  1  0
M  END
$$$$
