STL.pdb
     RDKit          3D

 22 21  0  0  1  0  0  0  0  0999 V2000
    7.3512  -15.9096   18.0660 O   0  0  0  0  0  0  0  0  0  0  0  0
    8.7238  -16.0244   18.1486 C   0  0  0  0  0  0  0  0  0  0  0  0
    9.1865  -17.3171   18.7838 C   0  0  2  0  0  0  0  0  0  0  0  0
    8.7810  -18.3863   17.9087 N   0  0  0  0  0  0  0  0  0  0  0  0
    8.6439  -17.5068   20.1430 C   0  0  0  0  0  0  0  0  0  0  0  0
    7.5585  -18.1239   20.2702 O   0  0  0  0  0  0  0  0  0  0  0  0
   10.9169  -18.4586   23.1513 C   0  0  0  0  0  0  0  0  0  0  0  0
    9.4117  -18.5792   23.2048 C   0  0  1  0  0  0  0  0  0  0  0  0
    9.0238  -18.8222   24.5054 O   0  0  0  0  0  0  0  0  0  0  0  0
    8.7779  -17.3178   22.6410 C   0  0  2  0  0  0  0  0  0  0  0  0
    9.2815  -17.0301   21.3140 N   0  0  0  0  0  0  0  0  0  0  0  0
    8.9805  -16.1617   23.5488 C   0  0  0  0  0  0  0  0  0  0  0  0
   10.0247  -15.4723   23.4622 O   0  0  0  0  0  0  0  0  0  0  0  0
    5.7481  -12.2604   27.1238 C   0  0  0  0  0  0  0  0  0  0  0  0
    7.0334  -12.7524   26.5792 C   0  0  2  0  0  0  0  0  0  0  0  0
    7.8179  -11.5798   25.9647 C   0  0  0  0  0  0  0  0  0  0  0  0
    7.0409  -13.9242   25.6818 C   0  0  0  0  0  0  0  0  0  0  0  0
    8.2777  -14.6789   25.4876 C   0  0  2  0  0  0  0  0  0  0  0  0
    8.0263  -15.7976   24.5273 N   0  0  0  0  0  0  0  0  0  0  0  0
    9.0260  -15.2234   26.6172 C   0  0  0  0  0  0  0  0  0  0  0  0
    8.8373  -16.3032   27.2180 O   0  0  0  0  0  0  0  0  0  0  0  0
   10.1232  -14.4867   27.1575 O   0  0  0  0  0  0  0  0  0  0  0  0
  1  2  1  0
  3  2  1  0
  3  4  1  6
  5  3  1  0
  5 11  1  0
  6  5  2  0
  8  7  1  1
  9  8  1  0
 10 11  1  6
 10  8  1  0
 12 10  1  0
 12 19  1  0
 13 12  2  0
 15 16  1  6
 15 14  1  0
 17 15  1  0
 18 19  1  0
 18 17  1  1
 20 18  1  0
 21 20  2  0
 22 20  1  0
M  END
$$$$
