STL.pdb
     RDKit          3D

 22 21  0  0  1  0  0  0  0  0999 V2000
    4.7187  -20.5523   24.0439 O   0  0  0  0  0  0  0  0  0  0  0  0
    5.7729  -19.6634   23.9939 C   0  0  0  0  0  0  0  0  0  0  0  0
    6.1204  -19.2140   22.5918 C   0  0  2  0  0  0  0  0  0  0  0  0
    6.3501  -20.4028   21.8122 N   0  0  0  0  0  0  0  0  0  0  0  0
    7.2940  -18.3200   22.5576 C   0  0  0  0  0  0  0  0  0  0  0  0
    8.4337  -18.8276   22.6937 O   0  0  0  0  0  0  0  0  0  0  0  0
    8.6579  -15.9793   19.8737 C   0  0  0  0  0  0  0  0  0  0  0  0
    8.3506  -15.1664   21.1098 C   0  0  1  0  0  0  0  0  0  0  0  0
    7.1327  -14.5407   20.9480 O   0  0  0  0  0  0  0  0  0  0  0  0
    8.3767  -16.0680   22.3335 C   0  0  2  0  0  0  0  0  0  0  0  0
    7.2051  -16.9181   22.3793 N   0  0  0  0  0  0  0  0  0  0  0  0
    8.5089  -15.2771   23.5819 C   0  0  0  0  0  0  0  0  0  0  0  0
    8.2253  -14.0553   23.5828 O   0  0  0  0  0  0  0  0  0  0  0  0
    8.2799  -12.0661   26.2326 C   0  0  0  0  0  0  0  0  0  0  0  0
    7.3224  -13.1295   25.8545 C   0  0  2  0  0  0  0  0  0  0  0  0
    5.8943  -12.6986   26.2325 C   0  0  0  0  0  0  0  0  0  0  0  0
    7.5833  -14.5223   26.2677 C   0  0  0  0  0  0  0  0  0  0  0  0
    8.9158  -15.0943   26.0824 C   0  0  2  0  0  0  0  0  0  0  0  0
    8.9503  -15.8549   24.7951 N   0  0  0  0  0  0  0  0  0  0  0  0
    9.5390  -15.9274   27.1071 C   0  0  0  0  0  0  0  0  0  0  0  0
    9.6236  -17.1741   27.1403 O   0  0  0  0  0  0  0  0  0  0  0  0
   10.1477  -15.3121   28.2425 O   0  0  0  0  0  0  0  0  0  0  0  0
  1  2  1  0
  3  2  1  0
  3  4  1  6
  5  3  1  0
  5 11  1  0
  6  5  2  0
  8  7  1  6
  9  8  1  0
 10 11  1  1
 10  8  1  0
 12 10  1  0
 12 19  1  0
 13 12  2  0
 15 16  1  1
 15 14  1  0
 17 15  1  0
 18 19  1  0
 18 17  1  1
 20 18  1  0
 21 20  2  0
 22 20  1  0
M  END
$$$$
