STL.pdb
     RDKit          3D

 22 21  0  0  1  0  0  0  0  0999 V2000
    8.7890  -21.0555   23.0097 O   0  0  0  0  0  0  0  0  0  0  0  0
    9.1660  -19.7285   23.0410 C   0  0  0  0  0  0  0  0  0  0  0  0
    9.1732  -19.0686   21.6797 C   0  0  2  0  0  0  0  0  0  0  0  0
   10.2128  -19.7008   20.9096 N   0  0  0  0  0  0  0  0  0  0  0  0
    9.3811  -17.6097   21.7581 C   0  0  0  0  0  0  0  0  0  0  0  0
   10.5530  -17.1694   21.6693 O   0  0  0  0  0  0  0  0  0  0  0  0
    7.4796  -14.5324   19.9454 C   0  0  0  0  0  0  0  0  0  0  0  0
    7.4227  -14.4535   21.4532 C   0  0  1  0  0  0  0  0  0  0  0  0
    6.1921  -14.9030   21.8831 O   0  0  0  0  0  0  0  0  0  0  0  0
    8.5688  -15.2541   22.0502 C   0  0  2  0  0  0  0  0  0  0  0  0
    8.3292  -16.6771   21.9283 N   0  0  0  0  0  0  0  0  0  0  0  0
    8.8111  -14.8747   23.4641 C   0  0  0  0  0  0  0  0  0  0  0  0
    9.4176  -13.8101   23.7321 O   0  0  0  0  0  0  0  0  0  0  0  0
    8.0173  -12.1763   26.6587 C   0  0  0  0  0  0  0  0  0  0  0  0
    7.0825  -13.2098   26.1601 C   0  0  2  0  0  0  0  0  0  0  0  0
    5.6398  -12.8266   26.5342 C   0  0  0  0  0  0  0  0  0  0  0  0
    7.3473  -14.6317   26.4548 C   0  0  0  0  0  0  0  0  0  0  0  0
    8.5750  -15.2557   25.9642 C   0  0  2  0  0  0  0  0  0  0  0  0
    8.3780  -15.6796   24.5435 N   0  0  0  0  0  0  0  0  0  0  0  0
    9.2052  -16.3646   26.6750 C   0  0  0  0  0  0  0  0  0  0  0  0
    9.4718  -16.4469   27.8935 O   0  0  0  0  0  0  0  0  0  0  0  0
    9.5935  -17.5346   25.9547 O   0  0  0  0  0  0  0  0  0  0  0  0
  1  2  1  0
  3  2  1  0
  3  4  1  6
  5  3  1  0
  5 11  1  0
  6  5  2  0
  8  7  1  6
  9  8  1  0
 10 11  1  1
 10  8  1  0
 12 10  1  0
 12 19  1  0
 13 12  2  0
 15 16  1  1
 15 14  1  0
 17 15  1  0
 18 19  1  0
 18 17  1  1
 20 18  1  0
 21 20  2  0
 22 20  1  0
M  END
$$$$
