STL.pdb
     RDKit          3D

 22 21  0  0  1  0  0  0  0  0999 V2000
    5.2362  -20.7910   24.5611 O   0  0  0  0  0  0  0  0  0  0  0  0
    5.7957  -19.5459   24.3597 C   0  0  0  0  0  0  0  0  0  0  0  0
    5.7778  -19.1002   22.9141 C   0  0  2  0  0  0  0  0  0  0  0  0
    5.8297  -20.2902   22.1049 N   0  0  0  0  0  0  0  0  0  0  0  0
    6.8899  -18.1863   22.5889 C   0  0  0  0  0  0  0  0  0  0  0  0
    8.0369  -18.6733   22.4397 O   0  0  0  0  0  0  0  0  0  0  0  0
    8.8444  -13.9927   21.0513 C   0  0  0  0  0  0  0  0  0  0  0  0
    7.6028  -14.8311   21.2479 C   0  0  1  0  0  0  0  0  0  0  0  0
    7.2311  -15.3786   20.0383 O   0  0  0  0  0  0  0  0  0  0  0  0
    7.8651  -15.8925   22.3040 C   0  0  2  0  0  0  0  0  0  0  0  0
    6.7341  -16.7873   22.4356 N   0  0  0  0  0  0  0  0  0  0  0  0
    8.2121  -15.2784   23.6095 C   0  0  0  0  0  0  0  0  0  0  0  0
    8.2181  -14.0302   23.7330 O   0  0  0  0  0  0  0  0  0  0  0  0
    8.0329  -12.3077   26.3439 C   0  0  0  0  0  0  0  0  0  0  0  0
    7.1617  -13.4615   26.0270 C   0  0  2  0  0  0  0  0  0  0  0  0
    5.7011  -13.1159   26.3664 C   0  0  0  0  0  0  0  0  0  0  0  0
    7.5205  -14.8021   26.5297 C   0  0  0  0  0  0  0  0  0  0  0  0
    8.7616  -15.4335   26.0845 C   0  0  2  0  0  0  0  0  0  0  0  0
    8.5427  -16.0573   24.7428 N   0  0  0  0  0  0  0  0  0  0  0  0
    9.4657  -16.4054   26.9164 C   0  0  0  0  0  0  0  0  0  0  0  0
    9.6033  -17.6321   26.7195 O   0  0  0  0  0  0  0  0  0  0  0  0
   10.1004  -15.9748   28.1205 O   0  0  0  0  0  0  0  0  0  0  0  0
  1  2  1  0
  3  2  1  0
  3  4  1  6
  5  3  1  0
  5 11  1  0
  6  5  2  0
  8  7  1  6
  9  8  1  0
 10 11  1  1
 10  8  1  0
 12 10  1  0
 12 19  1  0
 13 12  2  0
 15 16  1  1
 15 14  1  0
 17 15  1  0
 18 19  1  0
 18 17  1  1
 20 18  1  0
 21 20  2  0
 22 20  1  0
M  END
$$$$
