STL.pdb
     RDKit          3D

 22 21  0  0  1  0  0  0  0  0999 V2000
    5.6927  -20.3519   24.6905 O   0  0  0  0  0  0  0  0  0  0  0  0
    6.5416  -19.3383   24.2957 C   0  0  0  0  0  0  0  0  0  0  0  0
    6.4918  -19.0500   22.8115 C   0  0  2  0  0  0  0  0  0  0  0  0
    6.8492  -20.2686   22.1325 N   0  0  0  0  0  0  0  0  0  0  0  0
    7.3829  -17.9410   22.4192 C   0  0  0  0  0  0  0  0  0  0  0  0
    8.5935  -18.1959   22.2077 O   0  0  0  0  0  0  0  0  0  0  0  0
    8.1676  -13.2834   20.9705 C   0  0  0  0  0  0  0  0  0  0  0  0
    7.2025  -14.4284   21.1725 C   0  0  1  0  0  0  0  0  0  0  0  0
    6.7886  -14.8928   19.9420 O   0  0  0  0  0  0  0  0  0  0  0  0
    7.8653  -15.5143   22.0046 C   0  0  2  0  0  0  0  0  0  0  0  0
    6.9467  -16.6024   22.2679 N   0  0  0  0  0  0  0  0  0  0  0  0
    8.4142  -14.9640   23.2686 C   0  0  0  0  0  0  0  0  0  0  0  0
    9.3837  -14.1689   23.2370 O   0  0  0  0  0  0  0  0  0  0  0  0
    7.9895  -11.6117   25.7966 C   0  0  0  0  0  0  0  0  0  0  0  0
    7.0481  -12.7425   25.9565 C   0  0  2  0  0  0  0  0  0  0  0  0
    5.7725  -12.2574   26.6676 C   0  0  0  0  0  0  0  0  0  0  0  0
    7.5291  -14.0116   26.5368 C   0  0  0  0  0  0  0  0  0  0  0  0
    8.5013  -14.8200   25.8030 C   0  0  2  0  0  0  0  0  0  0  0  0
    7.8789  -15.3054   24.5325 N   0  0  0  0  0  0  0  0  0  0  0  0
    9.1786  -15.9534   26.4267 C   0  0  0  0  0  0  0  0  0  0  0  0
    9.8515  -15.9645   27.4801 O   0  0  0  0  0  0  0  0  0  0  0  0
    9.1085  -17.2412   25.8144 O   0  0  0  0  0  0  0  0  0  0  0  0
  1  2  1  0
  3  2  1  0
  3  4  1  6
  5  3  1  0
  5 11  1  0
  6  5  2  0
  8  7  1  6
  9  8  1  0
 10 11  1  1
 10  8  1  0
 12 10  1  0
 12 19  1  0
 13 12  2  0
 15 16  1  1
 15 14  1  0
 17 15  1  0
 18 19  1  0
 18 17  1  1
 20 18  1  0
 21 20  2  0
 22 20  1  0
M  END
$$$$
