STL.pdb
     RDKit          3D

 22 21  0  0  1  0  0  0  0  0999 V2000
    9.7223  -12.3147   18.3969 O   0  0  0  0  0  0  0  0  0  0  0  0
    8.8103  -12.7194   19.3499 C   0  0  0  0  0  0  0  0  0  0  0  0
    8.3724  -14.1593   19.1965 C   0  0  2  0  0  0  0  0  0  0  0  0
    7.4460  -14.2039   18.0951 N   0  0  0  0  0  0  0  0  0  0  0  0
    7.7632  -14.7006   20.4269 C   0  0  0  0  0  0  0  0  0  0  0  0
    6.5628  -14.4248   20.6682 O   0  0  0  0  0  0  0  0  0  0  0  0
    7.1064  -18.2355   23.5791 C   0  0  0  0  0  0  0  0  0  0  0  0
    7.8614  -17.6384   22.4143 C   0  0  1  0  0  0  0  0  0  0  0  0
    7.3291  -18.1190   21.2367 O   0  0  0  0  0  0  0  0  0  0  0  0
    7.8067  -16.1213   22.4941 C   0  0  2  0  0  0  0  0  0  0  0  0
    8.4594  -15.5157   21.3520 N   0  0  0  0  0  0  0  0  0  0  0  0
    8.3926  -15.6278   23.7649 C   0  0  0  0  0  0  0  0  0  0  0  0
    9.6355  -15.4992   23.8736 O   0  0  0  0  0  0  0  0  0  0  0  0
    7.7721  -11.8148   25.9674 C   0  0  0  0  0  0  0  0  0  0  0  0
    6.7925  -12.8480   26.3716 C   0  0  2  0  0  0  0  0  0  0  0  0
    5.6987  -12.2104   27.2462 C   0  0  0  0  0  0  0  0  0  0  0  0
    7.2729  -14.1132   26.9610 C   0  0  0  0  0  0  0  0  0  0  0  0
    8.1982  -14.9572   26.2070 C   0  0  2  0  0  0  0  0  0  0  0  0
    7.5920  -15.2898   24.8808 N   0  0  0  0  0  0  0  0  0  0  0  0
    8.7386  -16.1914   26.7702 C   0  0  0  0  0  0  0  0  0  0  0  0
    8.3708  -17.3653   26.5487 O   0  0  0  0  0  0  0  0  0  0  0  0
    9.8228  -16.1285   27.6968 O   0  0  0  0  0  0  0  0  0  0  0  0
  1  2  1  0
  3  2  1  0
  3  4  1  6
  5  3  1  0
  5 11  1  0
  6  5  2  0
  8  7  1  1
  9  8  1  0
 10 11  1  6
 10  8  1  0
 12 10  1  0
 12 19  1  0
 13 12  2  0
 15 16  1  1
 15 14  1  0
 17 15  1  0
 18 19  1  0
 18 17  1  1
 20 18  1  0
 21 20  2  0
 22 20  1  0
M  END
$$$$
