STL.pdb
     RDKit          3D

 22 21  0  0  1  0  0  0  0  0999 V2000
   12.6881  -18.3898   22.3846 O   0  0  0  0  0  0  0  0  0  0  0  0
   11.8643  -19.0274   21.4797 C   0  0  0  0  0  0  0  0  0  0  0  0
   11.4410  -18.1495   20.3227 C   0  0  2  0  0  0  0  0  0  0  0  0
   12.6440  -17.6389   19.7180 N   0  0  0  0  0  0  0  0  0  0  0  0
   10.5481  -17.0516   20.7412 C   0  0  0  0  0  0  0  0  0  0  0  0
   10.9859  -15.8764   20.6924 O   0  0  0  0  0  0  0  0  0  0  0  0
    6.8089  -16.5852   19.6102 C   0  0  0  0  0  0  0  0  0  0  0  0
    6.9049  -16.4662   21.1135 C   0  0  1  0  0  0  0  0  0  0  0  0
    6.4503  -17.6338   21.6891 O   0  0  0  0  0  0  0  0  0  0  0  0
    8.3375  -16.1484   21.5102 C   0  0  2  0  0  0  0  0  0  0  0  0
    9.2220  -17.2512   21.1958 N   0  0  0  0  0  0  0  0  0  0  0  0
    8.4303  -15.7849   22.9458 C   0  0  0  0  0  0  0  0  0  0  0  0
    9.1435  -16.4669   23.7201 O   0  0  0  0  0  0  0  0  0  0  0  0
    6.5856  -13.1667   27.5998 C   0  0  0  0  0  0  0  0  0  0  0  0
    7.2676  -12.4246   26.5160 C   0  0  2  0  0  0  0  0  0  0  0  0
    6.7756  -10.9666   26.4978 C   0  0  0  0  0  0  0  0  0  0  0  0
    7.2961  -12.9920   25.1536 C   0  0  0  0  0  0  0  0  0  0  0  0
    7.8108  -14.3441   24.9437 C   0  0  2  0  0  0  0  0  0  0  0  0
    7.7343  -14.6796   23.4882 N   0  0  0  0  0  0  0  0  0  0  0  0
    7.2881  -15.4851   25.6903 C   0  0  0  0  0  0  0  0  0  0  0  0
    7.7346  -15.9858   26.7450 O   0  0  0  0  0  0  0  0  0  0  0  0
    6.1250  -16.1646   25.2174 O   0  0  0  0  0  0  0  0  0  0  0  0
  1  2  1  0
  3  2  1  0
  3  4  1  1
  5  3  1  0
  5 11  1  0
  6  5  2  0
  8  7  1  6
  9  8  1  0
 10 11  1  1
 10  8  1  0
 12 10  1  0
 12 19  1  0
 13 12  2  0
 15 16  1  6
 15 14  1  0
 17 15  1  0
 18 19  1  0
 18 17  1  6
 20 18  1  0
 21 20  2  0
 22 20  1  0
M  END
$$$$
