STL.pdb
     RDKit          3D

 22 21  0  0  1  0  0  0  0  0999 V2000
   12.2983  -18.4612   22.3069 O   0  0  0  0  0  0  0  0  0  0  0  0
   11.2914  -18.9780   21.5174 C   0  0  0  0  0  0  0  0  0  0  0  0
   10.9402  -18.1034   20.3340 C   0  0  2  0  0  0  0  0  0  0  0  0
   12.1582  -17.8773   19.6000 N   0  0  0  0  0  0  0  0  0  0  0  0
   10.3169  -16.8279   20.7371 C   0  0  0  0  0  0  0  0  0  0  0  0
   11.0186  -15.7877   20.7111 O   0  0  0  0  0  0  0  0  0  0  0  0
    6.8157  -15.1872   19.7286 C   0  0  0  0  0  0  0  0  0  0  0  0
    6.9373  -15.3478   21.2261 C   0  0  1  0  0  0  0  0  0  0  0  0
    6.2077  -16.4482   21.6233 O   0  0  0  0  0  0  0  0  0  0  0  0
    8.4038  -15.4600   21.6104 C   0  0  2  0  0  0  0  0  0  0  0  0
    8.9681  -16.7126   21.1522 N   0  0  0  0  0  0  0  0  0  0  0  0
    8.5909  -15.2960   23.0732 C   0  0  0  0  0  0  0  0  0  0  0  0
    8.8974  -16.2854   23.7806 O   0  0  0  0  0  0  0  0  0  0  0  0
    6.4332  -13.1148   27.6957 C   0  0  0  0  0  0  0  0  0  0  0  0
    7.3859  -12.2876   26.9219 C   0  0  2  0  0  0  0  0  0  0  0  0
    7.0116  -10.8014   27.0598 C   0  0  0  0  0  0  0  0  0  0  0  0
    7.6735  -12.6343   25.5162 C   0  0  0  0  0  0  0  0  0  0  0  0
    8.2343  -13.9454   25.1946 C   0  0  2  0  0  0  0  0  0  0  0  0
    8.4348  -14.0457   23.7158 N   0  0  0  0  0  0  0  0  0  0  0  0
    7.5950  -15.1802   25.6406 C   0  0  0  0  0  0  0  0  0  0  0  0
    7.9130  -15.9074   26.6063 O   0  0  0  0  0  0  0  0  0  0  0  0
    6.4600  -15.6819   24.9347 O   0  0  0  0  0  0  0  0  0  0  0  0
  1  2  1  0
  3  2  1  0
  3  4  1  1
  5  3  1  0
  5 11  1  0
  6  5  2  0
  8  7  1  6
  9  8  1  0
 10 11  1  1
 10  8  1  0
 12 10  1  0
 12 19  1  0
 13 12  2  0
 15 16  1  6
 15 14  1  0
 17 15  1  0
 18 19  1  0
 18 17  1  6
 20 18  1  0
 21 20  2  0
 22 20  1  0
M  END
$$$$
