STL.pdb
     RDKit          3D

 22 21  0  0  1  0  0  0  0  0999 V2000
    9.7195  -12.2176   20.4428 O   0  0  0  0  0  0  0  0  0  0  0  0
    8.8021  -12.3377   19.4191 C   0  0  0  0  0  0  0  0  0  0  0  0
    8.5225  -13.7701   19.0211 C   0  0  2  0  0  0  0  0  0  0  0  0
    7.6138  -13.7284   17.9048 N   0  0  0  0  0  0  0  0  0  0  0  0
    7.9666  -14.5686   20.1307 C   0  0  0  0  0  0  0  0  0  0  0  0
    6.7338  -14.4986   20.3555 O   0  0  0  0  0  0  0  0  0  0  0  0
    7.8138  -18.3031   23.1821 C   0  0  0  0  0  0  0  0  0  0  0  0
    8.4748  -17.5993   22.0199 C   0  0  1  0  0  0  0  0  0  0  0  0
    8.0250  -18.1541   20.8405 O   0  0  0  0  0  0  0  0  0  0  0  0
    8.1927  -16.1076   22.0989 C   0  0  2  0  0  0  0  0  0  0  0  0
    8.7486  -15.4111   20.9574 N   0  0  0  0  0  0  0  0  0  0  0  0
    8.6960  -15.5314   23.3703 C   0  0  0  0  0  0  0  0  0  0  0  0
    9.9223  -15.3128   23.5172 O   0  0  0  0  0  0  0  0  0  0  0  0
    7.8043  -11.6243   25.2910 C   0  0  0  0  0  0  0  0  0  0  0  0
    6.8457  -12.6711   25.7104 C   0  0  2  0  0  0  0  0  0  0  0  0
    5.6886  -12.0287   26.4956 C   0  0  0  0  0  0  0  0  0  0  0  0
    7.3442  -13.8804   26.3943 C   0  0  0  0  0  0  0  0  0  0  0  0
    8.3623  -14.7082   25.7499 C   0  0  2  0  0  0  0  0  0  0  0  0
    7.8334  -15.2120   24.4447 N   0  0  0  0  0  0  0  0  0  0  0  0
    8.9819  -15.8347   26.4423 C   0  0  0  0  0  0  0  0  0  0  0  0
    8.6928  -17.0476   26.3531 O   0  0  0  0  0  0  0  0  0  0  0  0
   10.0579  -15.5991   27.3506 O   0  0  0  0  0  0  0  0  0  0  0  0
  1  2  1  0
  3  2  1  0
  3  4  1  6
  5  3  1  0
  5 11  1  0
  6  5  2  0
  8  7  1  1
  9  8  1  0
 10 11  1  6
 10  8  1  0
 12 10  1  0
 12 19  1  0
 13 12  2  0
 15 16  1  1
 15 14  1  0
 17 15  1  0
 18 19  1  0
 18 17  1  1
 20 18  1  0
 21 20  2  0
 22 20  1  0
M  END
$$$$
