STL.pdb
     RDKit          3D

 22 21  0  0  1  0  0  0  0  0999 V2000
    9.8232  -12.1293   17.8521 O   0  0  0  0  0  0  0  0  0  0  0  0
    9.0337  -12.7129   18.8217 C   0  0  0  0  0  0  0  0  0  0  0  0
    8.7990  -14.1913   18.6030 C   0  0  2  0  0  0  0  0  0  0  0  0
    7.9053  -14.3154   17.4807 N   0  0  0  0  0  0  0  0  0  0  0  0
    8.2495  -14.8608   19.7978 C   0  0  0  0  0  0  0  0  0  0  0  0
    7.0055  -14.8557   19.9642 O   0  0  0  0  0  0  0  0  0  0  0  0
    8.6552  -18.3904   20.8290 C   0  0  0  0  0  0  0  0  0  0  0  0
    9.0165  -17.5903   22.0587 C   0  0  1  0  0  0  0  0  0  0  0  0
   10.3845  -17.6163   22.2290 O   0  0  0  0  0  0  0  0  0  0  0  0
    8.4800  -16.1744   21.9226 C   0  0  2  0  0  0  0  0  0  0  0  0
    9.0498  -15.5101   20.7688 N   0  0  0  0  0  0  0  0  0  0  0  0
    8.7156  -15.3885   23.1589 C   0  0  0  0  0  0  0  0  0  0  0  0
    9.8043  -14.7872   23.3213 O   0  0  0  0  0  0  0  0  0  0  0  0
    5.6055  -12.1271   27.3225 C   0  0  0  0  0  0  0  0  0  0  0  0
    6.8803  -12.6908   26.8245 C   0  0  2  0  0  0  0  0  0  0  0  0
    7.9100  -11.5616   26.6439 C   0  0  0  0  0  0  0  0  0  0  0  0
    6.8686  -13.5906   25.6544 C   0  0  0  0  0  0  0  0  0  0  0  0
    7.9958  -14.4923   25.4239 C   0  0  2  0  0  0  0  0  0  0  0  0
    7.7444  -15.2873   24.1822 N   0  0  0  0  0  0  0  0  0  0  0  0
    8.4591  -15.4157   26.4560 C   0  0  0  0  0  0  0  0  0  0  0  0
    8.1245  -16.6074   26.6303 O   0  0  0  0  0  0  0  0  0  0  0  0
    9.4128  -14.9734   27.4218 O   0  0  0  0  0  0  0  0  0  0  0  0
  1  2  1  0
  3  2  1  0
  3  4  1  6
  5  3  1  0
  5 11  1  0
  6  5  2  0
  8  7  1  6
  9  8  1  0
 10 11  1  6
 10  8  1  0
 12 10  1  0
 12 19  1  0
 13 12  2  0
 15 16  1  6
 15 14  1  0
 17 15  1  0
 18 19  1  0
 18 17  1  1
 20 18  1  0
 21 20  2  0
 22 20  1  0
M  END
$$$$
