STL.pdb
     RDKit          3D

 22 21  0  0  1  0  0  0  0  0999 V2000
   11.8876  -18.8317   22.6919 O   0  0  0  0  0  0  0  0  0  0  0  0
   12.6343  -18.3668   21.6288 C   0  0  0  0  0  0  0  0  0  0  0  0
   11.7969  -17.8264   20.4907 C   0  0  2  0  0  0  0  0  0  0  0  0
   12.7081  -17.2838   19.5166 N   0  0  0  0  0  0  0  0  0  0  0  0
   10.8250  -16.8088   20.9354 C   0  0  0  0  0  0  0  0  0  0  0  0
   11.2026  -15.6138   21.0026 O   0  0  0  0  0  0  0  0  0  0  0  0
    7.0719  -16.4885   19.6767 C   0  0  0  0  0  0  0  0  0  0  0  0
    7.1294  -16.4576   21.1862 C   0  0  1  0  0  0  0  0  0  0  0  0
    6.7390  -17.6850   21.6785 O   0  0  0  0  0  0  0  0  0  0  0  0
    8.5304  -16.0759   21.6362 C   0  0  2  0  0  0  0  0  0  0  0  0
    9.4873  -17.1068   21.2914 N   0  0  0  0  0  0  0  0  0  0  0  0
    8.5670  -15.7812   23.0900 C   0  0  0  0  0  0  0  0  0  0  0  0
    9.1649  -16.5583   23.8721 O   0  0  0  0  0  0  0  0  0  0  0  0
    5.6381  -12.0712   27.1205 C   0  0  0  0  0  0  0  0  0  0  0  0
    6.9013  -12.7654   26.7843 C   0  0  2  0  0  0  0  0  0  0  0  0
    8.0931  -11.9768   27.3549 C   0  0  0  0  0  0  0  0  0  0  0  0
    7.1555  -13.1758   25.3894 C   0  0  0  0  0  0  0  0  0  0  0  0
    7.8393  -14.4395   25.1203 C   0  0  2  0  0  0  0  0  0  0  0  0
    7.9433  -14.6378   23.6414 N   0  0  0  0  0  0  0  0  0  0  0  0
    7.3806  -15.6963   25.7054 C   0  0  0  0  0  0  0  0  0  0  0  0
    6.3741  -16.3692   25.3945 O   0  0  0  0  0  0  0  0  0  0  0  0
    8.1228  -16.2911   26.7701 O   0  0  0  0  0  0  0  0  0  0  0  0
  1  2  1  0
  3  2  1  0
  3  4  1  6
  5  3  1  0
  5 11  1  0
  6  5  2  0
  8  7  1  6
  9  8  1  0
 10 11  1  1
 10  8  1  0
 12 10  1  0
 12 19  1  0
 13 12  2  0
 15 16  1  6
 15 14  1  0
 17 15  1  0
 18 19  1  0
 18 17  1  6
 20 18  1  0
 21 20  2  0
 22 20  1  0
M  END
$$$$
