QAC.pdb
     RDKit          3D

 21 20  0  0  1  0  0  0  0  0999 V2000
   17.0646  -14.5057  -18.4227 N   0  0  0  0  0  0  0  0  0  0  0  0
   16.9027  -13.1367  -18.1447 C   0  0  0  0  0  0  0  0  0  0  0  0
   16.0787  -12.7639  -17.2875 O   0  0  0  0  0  0  0  0  0  0  0  0
   17.7096  -12.1379  -18.8686 C   0  0  0  0  0  0  0  0  0  0  0  0
   18.4869  -11.2541  -17.9074 C   0  0  0  0  0  0  0  0  0  0  0  0
   19.8138  -11.9233  -17.5396 C   0  0  2  0  0  0  0  0  0  0  0  0
   19.5891  -13.1060  -16.7414 N   0  0  0  0  0  0  0  0  0  0  0  0
   20.5919  -10.9373  -16.7327 C   0  0  0  0  0  0  0  0  0  0  0  0
   20.2440  -10.7292  -15.5534 O   0  0  0  0  0  0  0  0  0  0  0  0
   23.8066   -9.0215  -17.2554 C   0  0  0  0  0  0  0  0  0  0  0  0
   22.4886   -9.3005  -16.5869 C   0  0  2  0  0  0  0  0  0  0  0  0
   21.7022  -10.2579  -17.3074 N   0  0  0  0  0  0  0  0  0  0  0  0
   21.7150   -8.0468  -16.3422 C   0  0  0  0  0  0  0  0  0  0  0  0
   21.0505   -7.5670  -17.2800 O   0  0  0  0  0  0  0  0  0  0  0  0
   21.7308   -7.4108  -15.0757 N   0  0  0  0  0  0  0  0  0  0  0  0
   21.0627   -6.1437  -14.9181 C   0  0  1  0  0  0  0  0  0  0  0  0
   19.7284   -6.3660  -14.2032 C   0  0  0  0  0  0  0  0  0  0  0  0
   19.9407   -7.3577  -12.7072 S   0  0  0  0  0  0  0  0  0  0  0  0
   21.8923   -5.1695  -14.1653 C   0  0  0  0  0  0  0  0  0  0  0  0
   23.0105   -5.5149  -13.7467 O   0  0  0  0  0  0  0  0  0  0  0  0
   21.4316   -3.8842  -13.9268 O   0  0  0  0  0  0  0  0  0  0  0  0
  2  3  2  0
  2  1  1  0
  4  2  1  0
  5  4  1  0
  5  6  1  0
  6  7  1  1
  8 12  1  0
  8  6  1  0
  9  8  2  0
 11 10  1  6
 11 12  1  0
 11 13  1  0
 13 15  1  0
 14 13  2  0
 15 16  1  0
 16 19  1  0
 16 17  1  1
 17 18  1  0
 19 21  1  0
 20 19  2  0
M  END
$$$$
