QAC.pdb
     RDKit          3D

 21 20  0  0  1  0  0  0  0  0999 V2000
   16.8681  -13.7182  -14.2675 N   0  0  0  0  0  0  0  0  0  0  0  0
   16.9464  -13.5414  -15.6605 C   0  0  0  0  0  0  0  0  0  0  0  0
   15.9220  -13.2729  -16.3172 O   0  0  0  0  0  0  0  0  0  0  0  0
   18.2436  -13.6737  -16.3478 C   0  0  0  0  0  0  0  0  0  0  0  0
   19.2265  -12.6127  -15.8814 C   0  0  0  0  0  0  0  0  0  0  0  0
   18.9174  -11.2782  -16.5649 C   0  0  2  0  0  0  0  0  0  0  0  0
   18.7515  -11.4561  -17.9888 N   0  0  0  0  0  0  0  0  0  0  0  0
   20.0869  -10.3822  -16.3238 C   0  0  0  0  0  0  0  0  0  0  0  0
   20.4889  -10.2331  -15.1528 O   0  0  0  0  0  0  0  0  0  0  0  0
   22.5322   -8.5512  -18.5562 C   0  0  0  0  0  0  0  0  0  0  0  0
   21.8532   -8.8589  -17.2499 C   0  0  2  0  0  0  0  0  0  0  0  0
   20.7191   -9.7198  -17.4131 N   0  0  0  0  0  0  0  0  0  0  0  0
   21.4803   -7.6149  -16.5129 C   0  0  0  0  0  0  0  0  0  0  0  0
   20.3629   -7.1091  -16.7296 O   0  0  0  0  0  0  0  0  0  0  0  0
   22.3706   -7.0166  -15.5864 N   0  0  0  0  0  0  0  0  0  0  0  0
   21.9837   -5.7931  -14.9307 C   0  0  1  0  0  0  0  0  0  0  0  0
   22.4911   -5.8156  -13.4875 C   0  0  0  0  0  0  0  0  0  0  0  0
   22.2027   -4.2328  -12.6638 S   0  0  0  0  0  0  0  0  0  0  0  0
   22.5035   -4.5962  -15.6389 C   0  0  0  0  0  0  0  0  0  0  0  0
   23.6361   -4.6332  -16.1496 O   0  0  0  0  0  0  0  0  0  0  0  0
   21.7393   -3.4439  -15.7344 O   0  0  0  0  0  0  0  0  0  0  0  0
  2  3  2  0
  2  1  1  0
  4  2  1  0
  5  4  1  0
  5  6  1  0
  6  7  1  6
  8 12  1  0
  8  6  1  0
  9  8  2  0
 11 10  1  6
 11 12  1  0
 11 13  1  0
 13 15  1  0
 14 13  2  0
 15 16  1  0
 16 19  1  0
 16 17  1  1
 17 18  1  0
 19 21  1  0
 20 19  2  0
M  END
$$$$
