QAC.pdb
     RDKit          3D

 21 20  0  0  1  0  0  0  0  0999 V2000
   24.1123   -9.1687  -14.6911 N   0  0  0  0  0  0  0  0  0  0  0  0
   24.7806  -10.1454  -15.4508 C   0  0  0  0  0  0  0  0  0  0  0  0
   25.8069  -10.6934  -15.0046 O   0  0  0  0  0  0  0  0  0  0  0  0
   24.2668  -10.5235  -16.7797 C   0  0  0  0  0  0  0  0  0  0  0  0
   23.0426   -9.7039  -17.1521 C   0  0  0  0  0  0  0  0  0  0  0  0
   21.7694  -10.4814  -16.8083 C   0  0  2  0  0  0  0  0  0  0  0  0
   21.6062  -11.6154  -17.6879 N   0  0  0  0  0  0  0  0  0  0  0  0
   20.6206   -9.5486  -17.0055 C   0  0  0  0  0  0  0  0  0  0  0  0
   20.3841   -9.1336  -18.1574 O   0  0  0  0  0  0  0  0  0  0  0  0
   17.6752   -8.4707  -14.9547 C   0  0  0  0  0  0  0  0  0  0  0  0
   18.7154   -8.2477  -16.0178 C   0  0  2  0  0  0  0  0  0  0  0  0
   19.8222   -9.1503  -15.8971 N   0  0  0  0  0  0  0  0  0  0  0  0
   19.1813   -6.8293  -16.0482 C   0  0  0  0  0  0  0  0  0  0  0  0
   20.1384   -6.5033  -15.3209 O   0  0  0  0  0  0  0  0  0  0  0  0
   18.5551   -5.8694  -16.8821 N   0  0  0  0  0  0  0  0  0  0  0  0
   19.0456   -4.5145  -16.8840 C   0  0  1  0  0  0  0  0  0  0  0  0
   18.5176   -3.7919  -18.1251 C   0  0  0  0  0  0  0  0  0  0  0  0
   19.0048   -4.6467  -19.6412 S   0  0  0  0  0  0  0  0  0  0  0  0
   18.6506   -3.7801  -15.6557 C   0  0  0  0  0  0  0  0  0  0  0  0
   17.6512   -4.1520  -15.0171 O   0  0  0  0  0  0  0  0  0  0  0  0
   19.3840   -2.6886  -15.2180 O   0  0  0  0  0  0  0  0  0  0  0  0
  2  3  2  0
  2  1  1  0
  4  2  1  0
  5  4  1  0
  5  6  1  0
  6  7  1  6
  8 12  1  0
  8  6  1  0
  9  8  2  0
 11 10  1  1
 11 12  1  0
 11 13  1  0
 13 15  1  0
 14 13  2  0
 15 16  1  0
 16 19  1  0
 16 17  1  6
 17 18  1  0
 19 21  1  0
 20 19  2  0
M  END
$$$$
