QAC.pdb
     RDKit          3D

 21 20  0  0  1  0  0  0  0  0999 V2000
   16.9169  -13.6769  -14.0457 N   0  0  0  0  0  0  0  0  0  0  0  0
   16.9639  -13.9799  -15.4183 C   0  0  0  0  0  0  0  0  0  0  0  0
   16.1436  -14.7767  -15.9131 O   0  0  0  0  0  0  0  0  0  0  0  0
   17.9862  -13.3538  -16.2759 C   0  0  0  0  0  0  0  0  0  0  0  0
   18.8998  -12.4438  -15.4718 C   0  0  0  0  0  0  0  0  0  0  0  0
   18.7858  -11.0055  -15.9834 C   0  0  2  0  0  0  0  0  0  0  0  0
   18.6105  -10.9821  -17.4170 N   0  0  0  0  0  0  0  0  0  0  0  0
   20.0662  -10.3175  -15.6427 C   0  0  0  0  0  0  0  0  0  0  0  0
   20.3910  -10.2286  -14.4420 O   0  0  0  0  0  0  0  0  0  0  0  0
   23.1220   -9.2642  -17.5097 C   0  0  0  0  0  0  0  0  0  0  0  0
   22.1118   -9.0829  -16.4104 C   0  0  2  0  0  0  0  0  0  0  0  0
   20.8874   -9.7801  -16.6730 N   0  0  0  0  0  0  0  0  0  0  0  0
   21.8562   -7.6396  -16.1252 C   0  0  0  0  0  0  0  0  0  0  0  0
   22.8178   -6.9209  -15.7937 O   0  0  0  0  0  0  0  0  0  0  0  0
   20.5530   -7.0916  -16.2268 N   0  0  0  0  0  0  0  0  0  0  0  0
   20.3472   -5.7042  -15.8960 C   0  0  1  0  0  0  0  0  0  0  0  0
   19.8956   -4.9516  -17.1493 C   0  0  0  0  0  0  0  0  0  0  0  0
   18.3259   -5.5947  -17.7731 S   0  0  0  0  0  0  0  0  0  0  0  0
   19.3502   -5.5356  -14.8089 C   0  0  0  0  0  0  0  0  0  0  0  0
   19.1231   -4.3990  -14.3599 O   0  0  0  0  0  0  0  0  0  0  0  0
   18.6741   -6.6303  -14.2936 O   0  0  0  0  0  0  0  0  0  0  0  0
  2  3  2  0
  2  1  1  0
  4  2  1  0
  5  4  1  0
  5  6  1  0
  6  7  1  6
  8 12  1  0
  8  6  1  0
  9  8  2  0
 11 10  1  6
 11 12  1  0
 11 13  1  0
 13 15  1  0
 14 13  2  0
 15 16  1  0
 16 19  1  0
 16 17  1  6
 17 18  1  0
 19 21  1  0
 20 19  2  0
M  END
$$$$
