QAC.pdb
     RDKit          3D

 21 20  0  0  1  0  0  0  0  0999 V2000
   21.2576  -25.2452  -14.3396 N   0  0  0  0  0  0  0  0  0  0  0  0
   20.0843  -25.1100  -13.5762 C   0  0  0  0  0  0  0  0  0  0  0  0
   19.6718  -26.0619  -12.8861 O   0  0  0  0  0  0  0  0  0  0  0  0
   19.3385  -23.8386  -13.5913 C   0  0  0  0  0  0  0  0  0  0  0  0
   20.0106  -22.8147  -14.4910 C   0  0  0  0  0  0  0  0  0  0  0  0
   21.0483  -22.0204  -13.6937 C   0  0  2  0  0  0  0  0  0  0  0  0
   20.4062  -21.0504  -12.8373 N   0  0  0  0  0  0  0  0  0  0  0  0
   21.9022  -21.2995  -14.6836 C   0  0  0  0  0  0  0  0  0  0  0  0
   22.4828  -21.9660  -15.5632 O   0  0  0  0  0  0  0  0  0  0  0  0
   22.7244  -17.6564  -15.3399 C   0  0  0  0  0  0  0  0  0  0  0  0
   22.9008  -19.1426  -15.4888 C   0  0  2  0  0  0  0  0  0  0  0  0
   22.0420  -19.8851  -14.6141 N   0  0  0  0  0  0  0  0  0  0  0  0
   24.3264  -19.5516  -15.3146 C   0  0  0  0  0  0  0  0  0  0  0  0
   24.7275  -19.8322  -14.1694 O   0  0  0  0  0  0  0  0  0  0  0  0
   25.2097  -19.6215  -16.4209 N   0  0  0  0  0  0  0  0  0  0  0  0
   26.4327  -20.3734  -16.2962 C   0  0  1  0  0  0  0  0  0  0  0  0
   26.0957  -21.8251  -15.9497 C   0  0  0  0  0  0  0  0  0  0  0  0
   27.4994  -22.6595  -15.1752 S   0  0  0  0  0  0  0  0  0  0  0  0
   27.2467  -20.3175  -17.5365 C   0  0  0  0  0  0  0  0  0  0  0  0
   26.6917  -20.4703  -18.6382 O   0  0  0  0  0  0  0  0  0  0  0  0
   28.6137  -20.0972  -17.4756 O   0  0  0  0  0  0  0  0  0  0  0  0
  2  3  2  0
  2  1  1  0
  4  2  1  0
  5  4  1  0
  5  6  1  0
  6  7  1  1
  8 12  1  0
  8  6  1  0
  9  8  2  0
 11 10  1  1
 11 12  1  0
 11 13  1  0
 13 15  1  0
 14 13  2  0
 15 16  1  0
 16 19  1  0
 16 17  1  6
 17 18  1  0
 19 21  1  0
 20 19  2  0
M  END
$$$$
