QAC.pdb
     RDKit          3D

 21 20  0  0  1  0  0  0  0  0999 V2000
   39.5395   -6.0170   -7.9470 N   0  0  0  0  0  0  0  0  0  0  0  0
   38.2357   -6.5294   -8.0709 C   0  0  0  0  0  0  0  0  0  0  0  0
   37.2835   -5.7667   -8.3245 O   0  0  0  0  0  0  0  0  0  0  0  0
   37.9927   -7.9732   -7.9006 C   0  0  0  0  0  0  0  0  0  0  0  0
   39.2894   -8.7260   -7.6532 C   0  0  0  0  0  0  0  0  0  0  0  0
   39.0092  -10.2272   -7.5453 C   0  0  2  0  0  0  0  0  0  0  0  0
   38.1677  -10.5125   -6.4064 N   0  0  0  0  0  0  0  0  0  0  0  0
   40.3255  -10.9051   -7.3543 C   0  0  0  0  0  0  0  0  0  0  0  0
   40.7322  -11.0947   -6.1909 O   0  0  0  0  0  0  0  0  0  0  0  0
   42.7828  -12.6184   -9.6660 C   0  0  0  0  0  0  0  0  0  0  0  0
   42.3418  -12.0052   -8.3654 C   0  0  2  0  0  0  0  0  0  0  0  0
   41.0883  -11.3201   -8.4816 N   0  0  0  0  0  0  0  0  0  0  0  0
   43.3904  -11.1106   -7.7909 C   0  0  0  0  0  0  0  0  0  0  0  0
   43.4259   -9.9226   -8.1631 O   0  0  0  0  0  0  0  0  0  0  0  0
   44.3276  -11.5935   -6.8435 N   0  0  0  0  0  0  0  0  0  0  0  0
   45.3321  -10.6969   -6.3301 C   0  0  1  0  0  0  0  0  0  0  0  0
   45.3385  -10.7735   -4.8020 C   0  0  0  0  0  0  0  0  0  0  0  0
   46.5203   -9.6062   -4.0897 S   0  0  0  0  0  0  0  0  0  0  0  0
   46.6809  -11.0106   -6.8653 C   0  0  0  0  0  0  0  0  0  0  0  0
   47.0035  -12.1966   -7.0504 O   0  0  0  0  0  0  0  0  0  0  0  0
   47.5786   -9.9961   -7.1587 O   0  0  0  0  0  0  0  0  0  0  0  0
  2  3  2  0
  2  1  1  0
  4  2  1  0
  5  4  1  0
  5  6  1  0
  6  7  1  1
  8 12  1  0
  8  6  1  0
  9  8  2  0
 11 10  1  6
 11 12  1  0
 11 13  1  0
 13 15  1  0
 14 13  2  0
 15 16  1  0
 16 19  1  0
 16 17  1  1
 17 18  1  0
 19 21  1  0
 20 19  2  0
M  END
$$$$
