QAC.pdb
     RDKit          3D

 21 20  0  0  1  0  0  0  0  0999 V2000
   23.3640  -20.4692  -10.1292 N   0  0  0  0  0  0  0  0  0  0  0  0
   24.5482  -20.5824   -9.3791 C   0  0  0  0  0  0  0  0  0  0  0  0
   24.4960  -20.7322   -8.1433 O   0  0  0  0  0  0  0  0  0  0  0  0
   25.8566  -20.5238  -10.0555 C   0  0  0  0  0  0  0  0  0  0  0  0
   25.7088  -20.1044  -11.5086 C   0  0  0  0  0  0  0  0  0  0  0  0
   25.0212  -21.2161  -12.3055 C   0  0  2  0  0  0  0  0  0  0  0  0
   25.8649  -22.3855  -12.3898 N   0  0  0  0  0  0  0  0  0  0  0  0
   24.7898  -20.6880  -13.6826 C   0  0  0  0  0  0  0  0  0  0  0  0
   25.7119  -20.7814  -14.5168 O   0  0  0  0  0  0  0  0  0  0  0  0
   21.8228  -19.1614  -15.4830 C   0  0  0  0  0  0  0  0  0  0  0  0
   23.2685  -19.5403  -15.3156 C   0  0  2  0  0  0  0  0  0  0  0  0
   23.5420  -20.0944  -14.0224 N   0  0  0  0  0  0  0  0  0  0  0  0
   24.1795  -18.3946  -15.6114 C   0  0  0  0  0  0  0  0  0  0  0  0
   24.4524  -17.6007  -14.6914 O   0  0  0  0  0  0  0  0  0  0  0  0
   24.7254  -18.2070  -16.9058 N   0  0  0  0  0  0  0  0  0  0  0  0
   25.9663  -17.4881  -17.0469 C   0  0  1  0  0  0  0  0  0  0  0  0
   27.0590  -18.2149  -16.2603 C   0  0  0  0  0  0  0  0  0  0  0  0
   28.6652  -17.4133  -16.4711 S   0  0  0  0  0  0  0  0  0  0  0  0
   26.3662  -17.3463  -18.4697 C   0  0  0  0  0  0  0  0  0  0  0  0
   26.2125  -18.3053  -19.2454 O   0  0  0  0  0  0  0  0  0  0  0  0
   26.9068  -16.1588  -18.9371 O   0  0  0  0  0  0  0  0  0  0  0  0
  2  3  2  0
  2  1  1  0
  4  2  1  0
  5  4  1  0
  5  6  1  0
  6  7  1  6
  8 12  1  0
  8  6  1  0
  9  8  2  0
 11 10  1  1
 11 12  1  0
 11 13  1  0
 13 15  1  0
 14 13  2  0
 15 16  1  0
 16 19  1  0
 16 17  1  1
 17 18  1  0
 19 21  1  0
 20 19  2  0
M  END
$$$$
