QAC.pdb
     RDKit          3D

 21 20  0  0  1  0  0  0  0  0999 V2000
   14.7021  -10.5262  -14.4876 N   0  0  0  0  0  0  0  0  0  0  0  0
   14.9521  -11.9038  -14.3554 C   0  0  0  0  0  0  0  0  0  0  0  0
   14.0122  -12.6946  -14.1460 O   0  0  0  0  0  0  0  0  0  0  0  0
   16.3300  -12.4158  -14.4648 C   0  0  0  0  0  0  0  0  0  0  0  0
   17.3280  -11.2831  -14.6382 C   0  0  0  0  0  0  0  0  0  0  0  0
   17.5537  -11.0093  -16.1274 C   0  0  2  0  0  0  0  0  0  0  0  0
   18.2231  -12.1227  -16.7590 N   0  0  0  0  0  0  0  0  0  0  0  0
   18.4286   -9.8034  -16.2227 C   0  0  0  0  0  0  0  0  0  0  0  0
   19.6650   -9.9643  -16.2058 O   0  0  0  0  0  0  0  0  0  0  0  0
   17.7719   -6.1925  -17.1031 C   0  0  0  0  0  0  0  0  0  0  0  0
   18.6231   -7.3323  -16.6152 C   0  0  2  0  0  0  0  0  0  0  0  0
   17.8526   -8.5067  -16.3299 N   0  0  0  0  0  0  0  0  0  0  0  0
   19.4554   -6.9386  -15.4395 C   0  0  0  0  0  0  0  0  0  0  0  0
   18.9288   -6.9447  -14.3109 O   0  0  0  0  0  0  0  0  0  0  0  0
   20.8139   -6.5652  -15.5948 N   0  0  0  0  0  0  0  0  0  0  0  0
   21.5904   -6.2392  -14.4255 C   0  0  1  0  0  0  0  0  0  0  0  0
   22.9792   -6.8682  -14.5545 C   0  0  0  0  0  0  0  0  0  0  0  0
   22.8874   -8.6733  -14.5445 S   0  0  0  0  0  0  0  0  0  0  0  0
   21.7076   -4.7723  -14.2291 C   0  0  0  0  0  0  0  0  0  0  0  0
   21.3660   -4.0046  -15.1451 O   0  0  0  0  0  0  0  0  0  0  0  0
   22.1926   -4.2550  -13.0382 O   0  0  0  0  0  0  0  0  0  0  0  0
  2  3  2  0
  2  1  1  0
  4  2  1  0
  5  4  1  0
  5  6  1  0
  6  7  1  1
  8 12  1  0
  8  6  1  0
  9  8  2  0
 11 10  1  1
 11 12  1  0
 11 13  1  0
 13 15  1  0
 14 13  2  0
 15 16  1  0
 16 19  1  0
 16 17  1  6
 17 18  1  0
 19 21  1  0
 20 19  2  0
M  END
$$$$
