QAC.pdb
     RDKit          3D

 21 20  0  0  1  0  0  0  0  0999 V2000
   25.4247  -22.2245  -11.4886 N   0  0  0  0  0  0  0  0  0  0  0  0
   24.2651  -21.4418  -11.6310 C   0  0  0  0  0  0  0  0  0  0  0  0
   23.2357  -21.7229  -10.9876 O   0  0  0  0  0  0  0  0  0  0  0  0
   24.2654  -20.2846  -12.5441 C   0  0  0  0  0  0  0  0  0  0  0  0
   25.5415  -20.2312  -13.3675 C   0  0  0  0  0  0  0  0  0  0  0  0
   25.3402  -20.9733  -14.6913 C   0  0  2  0  0  0  0  0  0  0  0  0
   26.4139  -21.9112  -14.9233 N   0  0  0  0  0  0  0  0  0  0  0  0
   25.3541  -19.9464  -15.7748 C   0  0  0  0  0  0  0  0  0  0  0  0
   26.4200  -19.3419  -16.0059 O   0  0  0  0  0  0  0  0  0  0  0  0
   23.0422  -19.0315  -18.5853 C   0  0  0  0  0  0  0  0  0  0  0  0
   24.1281  -18.7237  -17.5914 C   0  0  2  0  0  0  0  0  0  0  0  0
   24.1723  -19.6733  -16.5188 N   0  0  0  0  0  0  0  0  0  0  0  0
   24.0216  -17.3291  -17.0684 C   0  0  0  0  0  0  0  0  0  0  0  0
   23.2222  -17.1026  -16.1406 O   0  0  0  0  0  0  0  0  0  0  0  0
   24.8079  -16.2811  -17.6092 N   0  0  0  0  0  0  0  0  0  0  0  0
   24.6460  -14.9448  -17.0948 C   0  0  1  0  0  0  0  0  0  0  0  0
   25.9116  -14.5435  -16.3344 C   0  0  0  0  0  0  0  0  0  0  0  0
   25.9138  -12.7785  -15.9454 S   0  0  0  0  0  0  0  0  0  0  0  0
   24.3637  -13.9655  -18.1744 C   0  0  0  0  0  0  0  0  0  0  0  0
   24.9444  -14.0780  -19.2676 O   0  0  0  0  0  0  0  0  0  0  0  0
   23.4622  -12.9321  -17.9735 O   0  0  0  0  0  0  0  0  0  0  0  0
  2  3  2  0
  2  1  1  0
  4  2  1  0
  5  4  1  0
  5  6  1  0
  6  7  1  6
  8 12  1  0
  8  6  1  0
  9  8  2  0
 11 10  1  6
 11 12  1  0
 11 13  1  0
 13 15  1  0
 14 13  2  0
 15 16  1  0
 16 19  1  0
 16 17  1  6
 17 18  1  0
 19 21  1  0
 20 19  2  0
M  END
$$$$
