QAC.pdb
     RDKit          3D

 21 20  0  0  1  0  0  0  0  0999 V2000
   15.4842   -5.6109   -8.1344 N   0  0  0  0  0  0  0  0  0  0  0  0
   14.2836   -6.3337   -8.2521 C   0  0  0  0  0  0  0  0  0  0  0  0
   13.2872   -6.0088   -7.5781 O   0  0  0  0  0  0  0  0  0  0  0  0
   14.2017   -7.4799   -9.1753 C   0  0  0  0  0  0  0  0  0  0  0  0
   15.4852   -7.6392   -9.9731 C   0  0  0  0  0  0  0  0  0  0  0  0
   15.3755   -8.8509  -10.9022 C   0  0  2  0  0  0  0  0  0  0  0  0
   15.5547  -10.0809  -10.1663 N   0  0  0  0  0  0  0  0  0  0  0  0
   16.4690   -8.7288  -11.9112 C   0  0  0  0  0  0  0  0  0  0  0  0
   17.6031   -9.1521  -11.6115 O   0  0  0  0  0  0  0  0  0  0  0  0
   16.6425   -7.7548  -15.5525 C   0  0  0  0  0  0  0  0  0  0  0  0
   17.2222   -7.9696  -14.1815 C   0  0  2  0  0  0  0  0  0  0  0  0
   16.2103   -8.1414  -13.1811 N   0  0  0  0  0  0  0  0  0  0  0  0
   18.1699   -6.8792  -13.8036 C   0  0  0  0  0  0  0  0  0  0  0  0
   17.7401   -5.9288  -13.1231 O   0  0  0  0  0  0  0  0  0  0  0  0
   19.5286   -6.9166  -14.2054 N   0  0  0  0  0  0  0  0  0  0  0  0
   20.3882   -5.8072  -13.8784 C   0  0  1  0  0  0  0  0  0  0  0  0
   21.7138   -6.3436  -13.3341 C   0  0  0  0  0  0  0  0  0  0  0  0
   22.8259   -4.9977  -12.8667 S   0  0  0  0  0  0  0  0  0  0  0  0
   20.6322   -4.9304  -15.0513 C   0  0  0  0  0  0  0  0  0  0  0  0
   20.8198   -5.4429  -16.1680 O   0  0  0  0  0  0  0  0  0  0  0  0
   20.6523   -3.5516  -14.9111 O   0  0  0  0  0  0  0  0  0  0  0  0
  2  3  2  0
  2  1  1  0
  4  2  1  0
  5  4  1  0
  5  6  1  0
  6  7  1  1
  8 12  1  0
  8  6  1  0
  9  8  2  0
 11 10  1  6
 11 12  1  0
 11 13  1  0
 13 15  1  0
 14 13  2  0
 15 16  1  0
 16 19  1  0
 16 17  1  6
 17 18  1  0
 19 21  1  0
 20 19  2  0
M  END
$$$$
