QAC.pdb
     RDKit          3D

 21 20  0  0  1  0  0  0  0  0999 V2000
   12.4414  -11.6272  -14.2636 N   0  0  0  0  0  0  0  0  0  0  0  0
   13.0167  -12.2425  -15.3897 C   0  0  0  0  0  0  0  0  0  0  0  0
   12.3045  -12.8823  -16.1872 O   0  0  0  0  0  0  0  0  0  0  0  0
   14.4669  -12.1311  -15.6292 C   0  0  0  0  0  0  0  0  0  0  0  0
   15.1335  -11.2530  -14.5833 C   0  0  0  0  0  0  0  0  0  0  0  0
   16.6368  -11.1633  -14.8583 C   0  0  2  0  0  0  0  0  0  0  0  0
   17.2967  -12.4021  -14.5172 N   0  0  0  0  0  0  0  0  0  0  0  0
   17.1759  -10.0747  -13.9904 C   0  0  0  0  0  0  0  0  0  0  0  0
   17.5281  -10.3611  -12.8290 O   0  0  0  0  0  0  0  0  0  0  0  0
   18.2432   -6.5032  -14.5375 C   0  0  0  0  0  0  0  0  0  0  0  0
   17.7570   -7.6511  -13.6962 C   0  0  2  0  0  0  0  0  0  0  0  0
   17.2801   -8.7460  -14.4887 N   0  0  0  0  0  0  0  0  0  0  0  0
   16.7259   -7.2158  -12.7077 C   0  0  0  0  0  0  0  0  0  0  0  0
   15.5248   -7.3048  -13.0249 O   0  0  0  0  0  0  0  0  0  0  0  0
   17.0961   -6.7119  -11.4357 N   0  0  0  0  0  0  0  0  0  0  0  0
   16.0677   -6.2590  -10.5336 C   0  0  1  0  0  0  0  0  0  0  0  0
   16.5281   -6.4885   -9.0926 C   0  0  0  0  0  0  0  0  0  0  0  0
   16.5086   -8.2451   -8.6675 S   0  0  0  0  0  0  0  0  0  0  0  0
   15.7363   -4.8273  -10.7446 C   0  0  0  0  0  0  0  0  0  0  0  0
   16.4830   -4.1252  -11.4478 O   0  0  0  0  0  0  0  0  0  0  0  0
   14.6064   -4.2704  -10.1664 O   0  0  0  0  0  0  0  0  0  0  0  0
  2  3  2  0
  2  1  1  0
  4  2  1  0
  5  4  1  0
  5  6  1  0
  6  7  1  1
  8 12  1  0
  8  6  1  0
  9  8  2  0
 11 10  1  6
 11 12  1  0
 11 13  1  0
 13 15  1  0
 14 13  2  0
 15 16  1  0
 16 19  1  0
 16 17  1  1
 17 18  1  0
 19 21  1  0
 20 19  2  0
M  END
$$$$
