QAC.pdb
     RDKit          3D

 21 20  0  0  1  0  0  0  0  0999 V2000
   12.2623  -11.1387  -10.0305 N   0  0  0  0  0  0  0  0  0  0  0  0
   12.9205  -12.1252  -10.7864 C   0  0  0  0  0  0  0  0  0  0  0  0
   12.3252  -13.1724  -11.1050 O   0  0  0  0  0  0  0  0  0  0  0  0
   14.3194  -11.9215  -11.2040 C   0  0  0  0  0  0  0  0  0  0  0  0
   14.8353  -10.5621  -10.7621 C   0  0  0  0  0  0  0  0  0  0  0  0
   16.2845  -10.3794  -11.2203 C   0  0  2  0  0  0  0  0  0  0  0  0
   17.1677  -11.2647  -10.4974 N   0  0  0  0  0  0  0  0  0  0  0  0
   16.6638   -8.9674  -10.9185 C   0  0  0  0  0  0  0  0  0  0  0  0
   17.1344   -8.7068   -9.7935 O   0  0  0  0  0  0  0  0  0  0  0  0
   16.9562   -5.7899  -12.9314 C   0  0  0  0  0  0  0  0  0  0  0  0
   16.7906   -6.5726  -11.6579 C   0  0  2  0  0  0  0  0  0  0  0  0
   16.4877   -7.9524  -11.9000 N   0  0  0  0  0  0  0  0  0  0  0  0
   15.7769   -5.9519  -10.7539 C   0  0  0  0  0  0  0  0  0  0  0  0
   14.5862   -6.2977  -10.8713 O   0  0  0  0  0  0  0  0  0  0  0  0
   16.1519   -4.9908   -9.7820 N   0  0  0  0  0  0  0  0  0  0  0  0
   15.1245   -4.3061   -9.0389 C   0  0  1  0  0  0  0  0  0  0  0  0
   15.1241   -4.8168   -7.5966 C   0  0  0  0  0  0  0  0  0  0  0  0
   13.9714   -3.8797   -6.5671 S   0  0  0  0  0  0  0  0  0  0  0  0
   15.3117   -2.8335   -9.0619 C   0  0  0  0  0  0  0  0  0  0  0  0
   14.3209   -2.0942   -9.1917 O   0  0  0  0  0  0  0  0  0  0  0  0
   16.5764   -2.2797   -8.9404 O   0  0  0  0  0  0  0  0  0  0  0  0
  2  3  2  0
  2  1  1  0
  4  2  1  0
  5  4  1  0
  5  6  1  0
  6  7  1  1
  8 12  1  0
  8  6  1  0
  9  8  2  0
 11 10  1  6
 11 12  1  0
 11 13  1  0
 13 15  1  0
 14 13  2  0
 15 16  1  0
 16 19  1  0
 16 17  1  1
 17 18  1  0
 19 21  1  0
 20 19  2  0
M  END
$$$$
