CDW.pdb
     RDKit          3D

 29 30  0  0  1  0  0  0  0  0999 V2000
    9.0830  -15.0146   18.9406 N   0  0  0  0  0  0  0  0  0  0  0  0
    8.4642  -14.7095   20.1896 C   0  0  1  0  0  0  0  0  0  0  0  0
    6.9691  -14.5057   20.0911 C   0  0  0  0  0  0  0  0  0  0  0  0
    6.2236  -16.1241   19.7200 S   0  0  0  0  0  0  0  0  0  0  0  0
    8.8201  -15.6766   21.2612 C   0  0  0  0  0  0  0  0  0  0  0  0
    8.0633  -15.7645   22.2529 O   0  0  0  0  0  0  0  0  0  0  0  0
    9.9777  -16.4909   21.1882 N   0  0  0  0  0  0  0  0  0  0  0  0
   10.3726  -17.4578   22.1835 C   0  0  1  0  0  0  0  0  0  0  0  0
   11.6014  -18.2286   21.7443 C   0  0  0  0  0  0  0  0  0  0  0  0
   11.3928  -18.9535   20.4857 C   0  0  0  0  0  0  0  0  0  0  0  0
   10.2862  -19.5556   20.3366 O   0  0  0  0  0  0  0  0  0  0  0  0
   10.7162  -16.8002   23.4740 C   0  0  0  0  0  0  0  0  0  0  0  0
   11.7084  -16.0403   23.5981 O   0  0  0  0  0  0  0  0  0  0  0  0
   12.2910  -19.0459   19.4340 O   0  0  0  0  0  0  0  0  0  0  0  0
    9.9356  -16.9954   24.6518 N   0  0  0  0  0  0  0  0  0  0  0  0
   10.3013  -16.4530   25.9574 C   0  0  1  0  0  0  0  0  0  0  0  0
   10.1274  -14.9394   25.9601 C   0  0  0  0  0  0  0  0  0  0  0  0
    8.6739  -14.6385   25.9287 C   0  0  0  0  0  0  0  0  0  0  0  0
    7.6245  -15.4588   25.5048 C   0  0  0  0  0  0  0  0  0  0  0  0
    6.4537  -14.7894   25.6376 N   0  0  0  0  0  0  0  0  0  0  0  0
    6.6737  -13.5628   26.1297 C   0  0  0  0  0  0  0  0  0  0  0  0
    5.8138  -12.5251   26.4357 C   0  0  0  0  0  0  0  0  0  0  0  0
    6.3423  -11.3542   26.9388 C   0  0  0  0  0  0  0  0  0  0  0  0
    7.7075  -11.2183   27.1353 C   0  0  0  0  0  0  0  0  0  0  0  0
    8.5272  -12.2798   26.8161 C   0  0  0  0  0  0  0  0  0  0  0  0
    8.0410  -13.4629   26.3119 C   0  0  0  0  0  0  0  0  0  0  0  0
    9.5892  -17.1155   27.0511 C   0  0  0  0  0  0  0  0  0  0  0  0
    8.6310  -18.0899   26.8041 O   0  0  0  0  0  0  0  0  0  0  0  0
    9.8398  -16.8078   28.2416 O   0  0  0  0  0  0  0  0  0  0  0  0
  2  1  1  6
  2  5  1  0
  3  2  1  0
  4  3  1  0
  5  6  2  0
  7  5  1  0
  7  8  1  0
  8 12  1  0
  8  9  1  6
 10 14  1  0
 10  9  1  0
 11 10  2  0
 12 13  2  0
 15 16  1  0
 15 12  1  0
 16 27  1  0
 16 17  1  6
 18 17  1  0
 18 19  2  0
 20 19  1  0
 21 20  1  0
 22 21  2  0
 23 22  1  0
 24 23  2  0
 24 25  1  0
 25 26  2  0
 26 21  1  0
 26 18  1  0
 27 29  2  0
 27 28  1  0
M  END
$$$$
