CDW.pdb
     RDKit          3D

 29 30  0  0  1  0  0  0  0  0999 V2000
    7.6946  -21.2399   22.9619 N   0  0  0  0  0  0  0  0  0  0  0  0
    7.6140  -19.8502   22.6482 C   0  0  1  0  0  0  0  0  0  0  0  0
    6.4948  -19.1309   23.3670 C   0  0  0  0  0  0  0  0  0  0  0  0
    6.8307  -19.2496   25.1518 S   0  0  0  0  0  0  0  0  0  0  0  0
    8.9140  -19.1466   22.8072 C   0  0  0  0  0  0  0  0  0  0  0  0
    9.9384  -19.8359   23.0063 O   0  0  0  0  0  0  0  0  0  0  0  0
    9.0211  -17.7351   22.7386 N   0  0  0  0  0  0  0  0  0  0  0  0
   10.2493  -16.9912   22.8787 C   0  0  1  0  0  0  0  0  0  0  0  0
   10.2246  -15.7266   22.0439 C   0  0  0  0  0  0  0  0  0  0  0  0
   10.2480  -16.0013   20.6027 C   0  0  0  0  0  0  0  0  0  0  0  0
   10.9224  -17.0019   20.2112 O   0  0  0  0  0  0  0  0  0  0  0  0
   10.4721  -16.5708   24.2892 C   0  0  0  0  0  0  0  0  0  0  0  0
   11.3991  -15.7906   24.6198 O   0  0  0  0  0  0  0  0  0  0  0  0
    9.6006  -15.2714   19.6181 O   0  0  0  0  0  0  0  0  0  0  0  0
    9.6426  -17.0318   25.3542 N   0  0  0  0  0  0  0  0  0  0  0  0
    9.8693  -16.6895   26.7555 C   0  0  1  0  0  0  0  0  0  0  0  0
    8.5359  -16.5032   27.4687 C   0  0  0  0  0  0  0  0  0  0  0  0
    7.6416  -15.7151   26.5837 C   0  0  0  0  0  0  0  0  0  0  0  0
    6.6572  -16.1784   25.7061 C   0  0  0  0  0  0  0  0  0  0  0  0
    6.0795  -15.1211   25.0857 N   0  0  0  0  0  0  0  0  0  0  0  0
    6.6323  -13.9762   25.5086 C   0  0  0  0  0  0  0  0  0  0  0  0
    6.3875  -12.6572   25.1763 C   0  0  0  0  0  0  0  0  0  0  0  0
    7.1321  -11.6711   25.7899 C   0  0  0  0  0  0  0  0  0  0  0  0
    8.1064  -11.9932   26.7216 C   0  0  0  0  0  0  0  0  0  0  0  0
    8.3159  -13.3222   27.0219 C   0  0  0  0  0  0  0  0  0  0  0  0
    7.5964  -14.3350   26.4329 C   0  0  0  0  0  0  0  0  0  0  0  0
   10.7497  -17.6486   27.4241 C   0  0  0  0  0  0  0  0  0  0  0  0
   11.1802  -17.4467   28.7288 O   0  0  0  0  0  0  0  0  0  0  0  0
   11.1309  -18.6796   26.8187 O   0  0  0  0  0  0  0  0  0  0  0  0
  2  1  1  1
  2  5  1  0
  3  2  1  0
  4  3  1  0
  5  6  2  0
  7  5  1  0
  7  8  1  0
  8 12  1  0
  8  9  1  6
 10 14  1  0
 10  9  1  0
 11 10  2  0
 12 13  2  0
 15 16  1  0
 15 12  1  0
 16 27  1  0
 16 17  1  1
 18 17  1  0
 18 19  2  0
 20 19  1  0
 21 20  1  0
 22 21  2  0
 23 22  1  0
 24 23  2  0
 24 25  1  0
 25 26  2  0
 26 21  1  0
 26 18  1  0
 27 29  2  0
 27 28  1  0
M  END
$$$$
