CDW.pdb
     RDKit          3D

 29 30  0  0  1  0  0  0  0  0999 V2000
    9.0489  -13.2371   19.6489 N   0  0  0  0  0  0  0  0  0  0  0  0
    7.8917  -14.0557   19.8130 C   0  0  1  0  0  0  0  0  0  0  0  0
    7.1823  -14.3690   18.5149 C   0  0  0  0  0  0  0  0  0  0  0  0
    7.2946  -12.8877   17.4632 S   0  0  0  0  0  0  0  0  0  0  0  0
    8.1620  -15.2846   20.6048 C   0  0  0  0  0  0  0  0  0  0  0  0
    7.2156  -16.0764   20.8085 O   0  0  0  0  0  0  0  0  0  0  0  0
    9.4466  -15.5785   21.1263 N   0  0  0  0  0  0  0  0  0  0  0  0
    9.7654  -16.7247   21.9423 C   0  0  1  0  0  0  0  0  0  0  0  0
   11.0175  -17.4209   21.4477 C   0  0  0  0  0  0  0  0  0  0  0  0
   11.3024  -18.6588   22.1822 C   0  0  0  0  0  0  0  0  0  0  0  0
   12.4357  -18.7553   22.7439 O   0  0  0  0  0  0  0  0  0  0  0  0
   10.0218  -16.3317   23.3550 C   0  0  0  0  0  0  0  0  0  0  0  0
   10.7904  -15.3868   23.6612 O   0  0  0  0  0  0  0  0  0  0  0  0
   10.4493  -19.7418   22.3260 O   0  0  0  0  0  0  0  0  0  0  0  0
    9.4072  -17.0085   24.4501 N   0  0  0  0  0  0  0  0  0  0  0  0
    9.6838  -16.6913   25.8483 C   0  0  1  0  0  0  0  0  0  0  0  0
    8.4002  -16.7733   26.6650 C   0  0  0  0  0  0  0  0  0  0  0  0
    7.4692  -15.7263   26.1738 C   0  0  0  0  0  0  0  0  0  0  0  0
    6.3157  -15.8814   25.3996 C   0  0  0  0  0  0  0  0  0  0  0  0
    5.7659  -14.6642   25.1700 N   0  0  0  0  0  0  0  0  0  0  0  0
    6.4982  -13.7065   25.7545 C   0  0  0  0  0  0  0  0  0  0  0  0
    6.3484  -12.3335   25.8041 C   0  0  0  0  0  0  0  0  0  0  0  0
    7.2817  -11.5907   26.4972 C   0  0  0  0  0  0  0  0  0  0  0  0
    8.3489  -12.2058   27.1327 C   0  0  0  0  0  0  0  0  0  0  0  0
    8.4579  -13.5779   27.0565 C   0  0  0  0  0  0  0  0  0  0  0  0
    7.5503  -14.3545   26.3757 C   0  0  0  0  0  0  0  0  0  0  0  0
   10.7674  -17.5076   26.3972 C   0  0  0  0  0  0  0  0  0  0  0  0
   11.2907  -17.2600   27.6595 O   0  0  0  0  0  0  0  0  0  0  0  0
   11.2429  -18.4549   25.7253 O   0  0  0  0  0  0  0  0  0  0  0  0
  2  1  1  6
  2  5  1  0
  3  2  1  0
  4  3  1  0
  5  6  2  0
  7  5  1  0
  7  8  1  0
  8 12  1  0
  8  9  1  6
 10 14  1  0
 10  9  1  0
 11 10  2  0
 12 13  2  0
 15 16  1  0
 15 12  1  0
 16 27  1  0
 16 17  1  1
 18 17  1  0
 18 19  2  0
 20 19  1  0
 21 20  1  0
 22 21  2  0
 23 22  1  0
 24 23  2  0
 24 25  1  0
 25 26  2  0
 26 21  1  0
 26 18  1  0
 27 29  2  0
 27 28  1  0
M  END
$$$$
