CDW.pdb
     RDKit          3D

 29 30  0  0  1  0  0  0  0  0999 V2000
    6.7045  -15.4394   19.6907 N   0  0  0  0  0  0  0  0  0  0  0  0
    8.0368  -15.1779   20.1295 C   0  0  1  0  0  0  0  0  0  0  0  0
    8.2347  -13.7772   20.6637 C   0  0  0  0  0  0  0  0  0  0  0  0
    7.2044  -13.6141   22.1553 S   0  0  0  0  0  0  0  0  0  0  0  0
    8.5449  -16.2063   21.0753 C   0  0  0  0  0  0  0  0  0  0  0  0
    7.7394  -16.7114   21.8877 O   0  0  0  0  0  0  0  0  0  0  0  0
    9.8992  -16.6241   21.0791 N   0  0  0  0  0  0  0  0  0  0  0  0
   10.4917  -17.4996   22.0608 C   0  0  1  0  0  0  0  0  0  0  0  0
   11.7995  -18.0805   21.5617 C   0  0  0  0  0  0  0  0  0  0  0  0
   11.6270  -18.9139   20.3663 C   0  0  0  0  0  0  0  0  0  0  0  0
   12.1393  -18.4940   19.2844 O   0  0  0  0  0  0  0  0  0  0  0  0
   10.7983  -16.7724   23.3230 C   0  0  0  0  0  0  0  0  0  0  0  0
   11.5036  -15.7334   23.3460 O   0  0  0  0  0  0  0  0  0  0  0  0
   10.9556  -20.1248   20.3008 O   0  0  0  0  0  0  0  0  0  0  0  0
   10.3076  -17.2148   24.5872 N   0  0  0  0  0  0  0  0  0  0  0  0
   10.5786  -16.5198   25.8425 C   0  0  1  0  0  0  0  0  0  0  0  0
   10.1796  -15.0542   25.7234 C   0  0  0  0  0  0  0  0  0  0  0  0
    8.7068  -14.9590   25.8843 C   0  0  0  0  0  0  0  0  0  0  0  0
    7.7516  -15.9732   25.7702 C   0  0  0  0  0  0  0  0  0  0  0  0
    6.5197  -15.4520   25.9878 N   0  0  0  0  0  0  0  0  0  0  0  0
    6.6094  -14.1394   26.2415 C   0  0  0  0  0  0  0  0  0  0  0  0
    5.6472  -13.1872   26.5199 C   0  0  0  0  0  0  0  0  0  0  0  0
    6.0488  -11.8861   26.7422 C   0  0  0  0  0  0  0  0  0  0  0  0
    7.3892  -11.5378   26.6889 C   0  0  0  0  0  0  0  0  0  0  0  0
    8.3139  -12.5209   26.4079 C   0  0  0  0  0  0  0  0  0  0  0  0
    7.9556  -13.8285   26.1795 C   0  0  0  0  0  0  0  0  0  0  0  0
    9.9664  -17.1908   26.9900 C   0  0  0  0  0  0  0  0  0  0  0  0
   10.2325  -16.7849   28.2911 O   0  0  0  0  0  0  0  0  0  0  0  0
    9.1820  -18.1537   26.8100 O   0  0  0  0  0  0  0  0  0  0  0  0
  2  1  1  1
  2  5  1  0
  3  2  1  0
  4  3  1  0
  5  6  2  0
  7  5  1  0
  7  8  1  0
  8 12  1  0
  8  9  1  6
 10 14  1  0
 10  9  1  0
 11 10  2  0
 12 13  2  0
 15 16  1  0
 15 12  1  0
 16 27  1  0
 16 17  1  6
 18 17  1  0
 18 19  2  0
 20 19  1  0
 21 20  1  0
 22 21  2  0
 23 22  1  0
 24 23  2  0
 24 25  1  0
 25 26  2  0
 26 21  1  0
 26 18  1  0
 27 29  2  0
 27 28  1  0
M  END
$$$$
