CDW.pdb
     RDKit          3D

 29 30  0  0  1  0  0  0  0  0999 V2000
    7.9140  -15.9353   21.3580 N   0  0  0  0  0  0  0  0  0  0  0  0
    8.2247  -17.3279   21.3392 C   0  0  1  0  0  0  0  0  0  0  0  0
    7.9824  -17.9845   19.9988 C   0  0  0  0  0  0  0  0  0  0  0  0
    9.0871  -17.1840   18.7941 S   0  0  0  0  0  0  0  0  0  0  0  0
    9.5857  -17.6223   21.8601 C   0  0  0  0  0  0  0  0  0  0  0  0
    9.9448  -18.8181   21.9323 O   0  0  0  0  0  0  0  0  0  0  0  0
   10.4745  -16.5973   22.2699 N   0  0  0  0  0  0  0  0  0  0  0  0
   11.7925  -16.8147   22.8148 C   0  0  1  0  0  0  0  0  0  0  0  0
   12.7885  -15.8158   22.2605 C   0  0  0  0  0  0  0  0  0  0  0  0
   14.1518  -16.0466   22.7515 C   0  0  0  0  0  0  0  0  0  0  0  0
   14.7559  -17.0794   22.3300 O   0  0  0  0  0  0  0  0  0  0  0  0
   11.8019  -16.6549   24.2947 C   0  0  0  0  0  0  0  0  0  0  0  0
   12.8338  -16.8450   24.9850 O   0  0  0  0  0  0  0  0  0  0  0  0
   14.8520  -15.2415   23.6363 O   0  0  0  0  0  0  0  0  0  0  0  0
   10.6339  -16.2752   25.0203 N   0  0  0  0  0  0  0  0  0  0  0  0
   10.6124  -16.0891   26.4684 C   0  0  1  0  0  0  0  0  0  0  0  0
    9.9220  -14.7758   26.8148 C   0  0  0  0  0  0  0  0  0  0  0  0
    8.5194  -14.8469   26.3334 C   0  0  0  0  0  0  0  0  0  0  0  0
    7.7778  -15.9772   25.9778 C   0  0  0  0  0  0  0  0  0  0  0  0
    6.5386  -15.5924   25.5869 N   0  0  0  0  0  0  0  0  0  0  0  0
    6.4199  -14.2602   25.6655 C   0  0  0  0  0  0  0  0  0  0  0  0
    5.3679  -13.4106   25.3802 C   0  0  0  0  0  0  0  0  0  0  0  0
    5.5444  -12.0544   25.5621 C   0  0  0  0  0  0  0  0  0  0  0  0
    6.7510  -11.5510   26.0222 C   0  0  0  0  0  0  0  0  0  0  0  0
    7.7725  -12.4359   26.2939 C   0  0  0  0  0  0  0  0  0  0  0  0
    7.6380  -13.7938   26.1255 C   0  0  0  0  0  0  0  0  0  0  0  0
   10.0395  -17.2412   27.1660 C   0  0  0  0  0  0  0  0  0  0  0  0
   10.1126  -17.3590   28.5478 O   0  0  0  0  0  0  0  0  0  0  0  0
    9.4665  -18.1485   26.5155 O   0  0  0  0  0  0  0  0  0  0  0  0
  2  1  1  6
  2  5  1  0
  3  2  1  0
  4  3  1  0
  5  6  2  0
  7  5  1  0
  7  8  1  0
  8 12  1  0
  8  9  1  6
 10 14  1  0
 10  9  1  0
 11 10  2  0
 12 13  2  0
 15 16  1  0
 15 12  1  0
 16 27  1  0
 16 17  1  6
 18 17  1  0
 18 19  2  0
 20 19  1  0
 21 20  1  0
 22 21  2  0
 23 22  1  0
 24 23  2  0
 24 25  1  0
 25 26  2  0
 26 21  1  0
 26 18  1  0
 27 29  2  0
 27 28  1  0
M  END
$$$$
