CDW.pdb
     RDKit          3D

 29 30  0  0  1  0  0  0  0  0999 V2000
    9.3265  -13.8747   19.0947 N   0  0  0  0  0  0  0  0  0  0  0  0
    8.4005  -13.9660   20.1765 C   0  0  1  0  0  0  0  0  0  0  0  0
    6.9546  -13.8607   19.7465 C   0  0  0  0  0  0  0  0  0  0  0  0
    6.4919  -15.4554   19.0013 S   0  0  0  0  0  0  0  0  0  0  0  0
    8.6351  -15.1548   21.0379 C   0  0  0  0  0  0  0  0  0  0  0  0
    7.8461  -15.3626   21.9857 O   0  0  0  0  0  0  0  0  0  0  0  0
    9.7136  -16.0467   20.8150 N   0  0  0  0  0  0  0  0  0  0  0  0
   10.0402  -17.1750   21.6526 C   0  0  1  0  0  0  0  0  0  0  0  0
   11.1765  -17.9866   21.0636 C   0  0  0  0  0  0  0  0  0  0  0  0
   10.8824  -18.4693   19.7094 C   0  0  0  0  0  0  0  0  0  0  0  0
    9.7504  -19.0081   19.5160 O   0  0  0  0  0  0  0  0  0  0  0  0
   10.4806  -16.7379   23.0057 C   0  0  0  0  0  0  0  0  0  0  0  0
   11.4299  -15.9337   23.1767 O   0  0  0  0  0  0  0  0  0  0  0  0
   11.7244  -18.3936   18.6110 O   0  0  0  0  0  0  0  0  0  0  0  0
    9.8479  -17.2093   24.1941 N   0  0  0  0  0  0  0  0  0  0  0  0
   10.1937  -16.7350   25.5312 C   0  0  1  0  0  0  0  0  0  0  0  0
   10.0222  -15.2230   25.6082 C   0  0  0  0  0  0  0  0  0  0  0  0
    8.5691  -14.9214   25.6461 C   0  0  0  0  0  0  0  0  0  0  0  0
    7.4975  -15.7622   25.3320 C   0  0  0  0  0  0  0  0  0  0  0  0
    6.3357  -15.0840   25.4960 N   0  0  0  0  0  0  0  0  0  0  0  0
    6.5829  -13.8321   25.9044 C   0  0  0  0  0  0  0  0  0  0  0  0
    5.7413  -12.7770   26.2018 C   0  0  0  0  0  0  0  0  0  0  0  0
    6.2971  -11.5808   26.6060 C   0  0  0  0  0  0  0  0  0  0  0  0
    7.6714  -11.4368   26.7132 C   0  0  0  0  0  0  0  0  0  0  0  0
    8.4721  -12.5162   26.4063 C   0  0  0  0  0  0  0  0  0  0  0  0
    7.9585  -13.7249   25.9993 C   0  0  0  0  0  0  0  0  0  0  0  0
    9.4635  -17.4505   26.5784 C   0  0  0  0  0  0  0  0  0  0  0  0
    9.7485  -17.2519   27.9229 O   0  0  0  0  0  0  0  0  0  0  0  0
    8.5577  -18.2626   26.2702 O   0  0  0  0  0  0  0  0  0  0  0  0
  2  1  1  6
  2  5  1  0
  3  2  1  0
  4  3  1  0
  5  6  2  0
  7  5  1  0
  7  8  1  0
  8 12  1  0
  8  9  1  6
 10 14  1  0
 10  9  1  0
 11 10  2  0
 12 13  2  0
 15 16  1  0
 15 12  1  0
 16 27  1  0
 16 17  1  6
 18 17  1  0
 18 19  2  0
 20 19  1  0
 21 20  1  0
 22 21  2  0
 23 22  1  0
 24 23  2  0
 24 25  1  0
 25 26  2  0
 26 21  1  0
 26 18  1  0
 27 29  2  0
 27 28  1  0
M  END
$$$$
