CDW.pdb
     RDKit          3D

 29 30  0  0  1  0  0  0  0  0999 V2000
    6.4073  -16.3448   20.2177 N   0  0  0  0  0  0  0  0  0  0  0  0
    7.6022  -15.6841   20.6321 C   0  0  1  0  0  0  0  0  0  0  0  0
    7.3805  -14.2581   21.0836 C   0  0  0  0  0  0  0  0  0  0  0  0
    6.4040  -14.3198   22.6183 S   0  0  0  0  0  0  0  0  0  0  0  0
    8.3765  -16.4657   21.6321 C   0  0  0  0  0  0  0  0  0  0  0  0
    7.7597  -17.2856   22.3471 O   0  0  0  0  0  0  0  0  0  0  0  0
    9.7758  -16.3087   21.7927 N   0  0  0  0  0  0  0  0  0  0  0  0
   10.5781  -16.9984   22.7735 C   0  0  1  0  0  0  0  0  0  0  0  0
   12.0522  -16.9226   22.4300 C   0  0  0  0  0  0  0  0  0  0  0  0
   12.3855  -17.6626   21.2075 C   0  0  0  0  0  0  0  0  0  0  0  0
   12.0206  -18.8759   21.1431 O   0  0  0  0  0  0  0  0  0  0  0  0
   10.4203  -16.3960   24.1256 C   0  0  0  0  0  0  0  0  0  0  0  0
   10.7402  -15.2071   24.3735 O   0  0  0  0  0  0  0  0  0  0  0  0
   13.0637  -17.1640   20.1063 O   0  0  0  0  0  0  0  0  0  0  0  0
    9.8944  -17.1370   25.2253 N   0  0  0  0  0  0  0  0  0  0  0  0
   10.0156  -16.7071   26.6155 C   0  0  1  0  0  0  0  0  0  0  0  0
    8.6535  -16.7553   27.2964 C   0  0  0  0  0  0  0  0  0  0  0  0
    7.7441  -15.8233   26.5833 C   0  0  0  0  0  0  0  0  0  0  0  0
    6.7486  -16.1235   25.6490 C   0  0  0  0  0  0  0  0  0  0  0  0
    6.1588  -14.9736   25.2410 N   0  0  0  0  0  0  0  0  0  0  0  0
    6.7141  -13.9225   25.8591 C   0  0  0  0  0  0  0  0  0  0  0  0
    6.4605  -12.5664   25.7777 C   0  0  0  0  0  0  0  0  0  0  0  0
    7.2109  -11.7053   26.5515 C   0  0  0  0  0  0  0  0  0  0  0  0
    8.1995  -12.1872   27.3949 C   0  0  0  0  0  0  0  0  0  0  0  0
    8.4174  -13.5475   27.4436 C   0  0  0  0  0  0  0  0  0  0  0  0
    7.6926  -14.4392   26.6887 C   0  0  0  0  0  0  0  0  0  0  0  0
   11.0462  -17.4539   27.3380 C   0  0  0  0  0  0  0  0  0  0  0  0
   11.4150  -17.1097   28.6319 O   0  0  0  0  0  0  0  0  0  0  0  0
   11.6165  -18.4284   26.7903 O   0  0  0  0  0  0  0  0  0  0  0  0
  2  1  1  1
  2  5  1  0
  3  2  1  0
  4  3  1  0
  5  6  2  0
  7  5  1  0
  7  8  1  0
  8 12  1  0
  8  9  1  6
 10 14  1  0
 10  9  1  0
 11 10  2  0
 12 13  2  0
 15 16  1  0
 15 12  1  0
 16 27  1  0
 16 17  1  1
 18 17  1  0
 18 19  2  0
 20 19  1  0
 21 20  1  0
 22 21  2  0
 23 22  1  0
 24 23  2  0
 24 25  1  0
 25 26  2  0
 26 21  1  0
 26 18  1  0
 27 29  2  0
 27 28  1  0
M  END
$$$$
