CDW.pdb
     RDKit          3D

 29 30  0  0  1  0  0  0  0  0999 V2000
    6.6443  -19.3284   21.2734 N   0  0  0  0  0  0  0  0  0  0  0  0
    7.1563  -18.1329   21.8606 C   0  0  1  0  0  0  0  0  0  0  0  0
    6.4754  -17.7551   23.1568 C   0  0  0  0  0  0  0  0  0  0  0  0
    4.6832  -17.7259   22.8407 S   0  0  0  0  0  0  0  0  0  0  0  0
    8.6366  -18.1459   21.9980 C   0  0  0  0  0  0  0  0  0  0  0  0
    9.1924  -19.2242   22.3017 O   0  0  0  0  0  0  0  0  0  0  0  0
    9.4230  -16.9845   21.7953 N   0  0  0  0  0  0  0  0  0  0  0  0
   10.8639  -16.9407   21.8547 C   0  0  1  0  0  0  0  0  0  0  0  0
   11.4149  -15.8076   21.0126 C   0  0  0  0  0  0  0  0  0  0  0  0
   12.8782  -15.7185   21.0745 C   0  0  0  0  0  0  0  0  0  0  0  0
   13.5326  -16.8008   20.9755 O   0  0  0  0  0  0  0  0  0  0  0  0
   11.3438  -16.7152   23.2457 C   0  0  0  0  0  0  0  0  0  0  0  0
   12.5615  -16.7506   23.5508 O   0  0  0  0  0  0  0  0  0  0  0  0
   13.6234  -14.5602   21.2304 O   0  0  0  0  0  0  0  0  0  0  0  0
   10.4448  -16.4447   24.3197 N   0  0  0  0  0  0  0  0  0  0  0  0
   10.8776  -16.2521   25.7009 C   0  0  1  0  0  0  0  0  0  0  0  0
   10.3240  -14.9399   26.2423 C   0  0  0  0  0  0  0  0  0  0  0  0
    8.8419  -14.9990   26.1778 C   0  0  0  0  0  0  0  0  0  0  0  0
    8.0181  -16.1264   26.1127 C   0  0  0  0  0  0  0  0  0  0  0  0
    6.7231  -15.7299   26.0618 N   0  0  0  0  0  0  0  0  0  0  0  0
    6.6458  -14.3926   26.0900 C   0  0  0  0  0  0  0  0  0  0  0  0
    5.5652  -13.5316   26.0598 C   0  0  0  0  0  0  0  0  0  0  0  0
    5.8004  -12.1728   26.1030 C   0  0  0  0  0  0  0  0  0  0  0  0
    7.0930  -11.6780   26.1758 C   0  0  0  0  0  0  0  0  0  0  0  0
    8.1401  -12.5743   26.2037 C   0  0  0  0  0  0  0  0  0  0  0  0
    7.9490  -13.9351   26.1618 C   0  0  0  0  0  0  0  0  0  0  0  0
   10.5584  -17.4031   26.5466 C   0  0  0  0  0  0  0  0  0  0  0  0
    9.9703  -18.5457   26.0202 O   0  0  0  0  0  0  0  0  0  0  0  0
   10.8167  -17.3719   27.7743 O   0  0  0  0  0  0  0  0  0  0  0  0
  2  1  1  1
  2  5  1  0
  3  2  1  0
  4  3  1  0
  5  6  2  0
  7  5  1  0
  7  8  1  0
  8 12  1  0
  8  9  1  6
 10 14  1  0
 10  9  1  0
 11 10  2  0
 12 13  2  0
 15 16  1  0
 15 12  1  0
 16 27  1  0
 16 17  1  1
 18 17  1  0
 18 19  2  0
 20 19  1  0
 21 20  1  0
 22 21  2  0
 23 22  1  0
 24 23  2  0
 24 25  1  0
 25 26  2  0
 26 21  1  0
 26 18  1  0
 27 29  2  0
 27 28  1  0
M  END
$$$$
