CDW.pdb
     RDKit          3D

 29 30  0  0  1  0  0  0  0  0999 V2000
    9.6155  -14.4013   20.0592 N   0  0  0  0  0  0  0  0  0  0  0  0
    8.4643  -14.8819   20.7519 C   0  0  1  0  0  0  0  0  0  0  0  0
    7.3695  -15.3792   19.8352 C   0  0  0  0  0  0  0  0  0  0  0  0
    5.9094  -15.7194   20.8673 S   0  0  0  0  0  0  0  0  0  0  0  0
    8.7982  -15.8779   21.8039 C   0  0  0  0  0  0  0  0  0  0  0  0
    7.8913  -16.2373   22.5866 O   0  0  0  0  0  0  0  0  0  0  0  0
   10.0989  -16.4240   21.9400 N   0  0  0  0  0  0  0  0  0  0  0  0
   10.5073  -17.3386   22.9783 C   0  0  1  0  0  0  0  0  0  0  0  0
   11.9095  -17.8587   22.7329 C   0  0  0  0  0  0  0  0  0  0  0  0
   12.0586  -18.4770   21.4105 C   0  0  0  0  0  0  0  0  0  0  0  0
   11.2796  -19.4366   21.1248 O   0  0  0  0  0  0  0  0  0  0  0  0
   10.5217  -16.6762   24.3113 C   0  0  0  0  0  0  0  0  0  0  0  0
   11.1680  -15.6221   24.5313 O   0  0  0  0  0  0  0  0  0  0  0  0
   12.9723  -18.1135   20.4337 O   0  0  0  0  0  0  0  0  0  0  0  0
    9.7995  -17.2022   25.4233 N   0  0  0  0  0  0  0  0  0  0  0  0
    9.9334  -16.6893   26.7839 C   0  0  1  0  0  0  0  0  0  0  0  0
    8.5613  -16.5809   27.4374 C   0  0  0  0  0  0  0  0  0  0  0  0
    7.6858  -15.7758   26.5490 C   0  0  0  0  0  0  0  0  0  0  0  0
    6.7839  -16.2224   25.5789 C   0  0  0  0  0  0  0  0  0  0  0  0
    6.1933  -15.1527   24.9930 N   0  0  0  0  0  0  0  0  0  0  0  0
    6.6589  -14.0153   25.5268 C   0  0  0  0  0  0  0  0  0  0  0  0
    6.3686  -12.6894   25.2672 C   0  0  0  0  0  0  0  0  0  0  0  0
    7.0215  -11.7146   25.9931 C   0  0  0  0  0  0  0  0  0  0  0  0
    7.9500  -12.0549   26.9642 C   0  0  0  0  0  0  0  0  0  0  0  0
    8.2078  -13.3903   27.1890 C   0  0  0  0  0  0  0  0  0  0  0  0
    7.5798  -14.3922   26.4875 C   0  0  0  0  0  0  0  0  0  0  0  0
   10.8880  -17.4655   27.5766 C   0  0  0  0  0  0  0  0  0  0  0  0
   11.3002  -17.0390   28.8322 O   0  0  0  0  0  0  0  0  0  0  0  0
   11.3512  -18.5411   27.1257 O   0  0  0  0  0  0  0  0  0  0  0  0
  2  1  1  6
  2  5  1  0
  3  2  1  0
  4  3  1  0
  5  6  2  0
  7  5  1  0
  7  8  1  0
  8 12  1  0
  8  9  1  6
 10 14  1  0
 10  9  1  0
 11 10  2  0
 12 13  2  0
 15 16  1  0
 15 12  1  0
 16 27  1  0
 16 17  1  1
 18 17  1  0
 18 19  2  0
 20 19  1  0
 21 20  1  0
 22 21  2  0
 23 22  1  0
 24 23  2  0
 24 25  1  0
 25 26  2  0
 26 21  1  0
 26 18  1  0
 27 29  2  0
 27 28  1  0
M  END
$$$$
