CDW.pdb
     RDKit          3D

 29 30  0  0  1  0  0  0  0  0999 V2000
    8.0164  -14.9956   21.2001 N   0  0  0  0  0  0  0  0  0  0  0  0
    7.8186  -16.4009   21.3493 C   0  0  1  0  0  0  0  0  0  0  0  0
    7.4017  -17.0930   20.0712 C   0  0  0  0  0  0  0  0  0  0  0  0
    6.7283  -15.8196   18.9586 S   0  0  0  0  0  0  0  0  0  0  0  0
    8.9731  -17.0806   21.9939 C   0  0  0  0  0  0  0  0  0  0  0  0
    8.9152  -18.3195   22.1541 O   0  0  0  0  0  0  0  0  0  0  0  0
   10.1220  -16.3710   22.4241 N   0  0  0  0  0  0  0  0  0  0  0  0
   11.2519  -16.9594   23.1013 C   0  0  1  0  0  0  0  0  0  0  0  0
   12.5219  -16.1767   22.8341 C   0  0  0  0  0  0  0  0  0  0  0  0
   13.0183  -16.3570   21.4651 C   0  0  0  0  0  0  0  0  0  0  0  0
   13.0985  -17.5444   21.0261 O   0  0  0  0  0  0  0  0  0  0  0  0
   11.0559  -16.9699   24.5769 C   0  0  0  0  0  0  0  0  0  0  0  0
   11.8564  -17.5422   25.3574 O   0  0  0  0  0  0  0  0  0  0  0  0
   13.4106  -15.3510   20.5959 O   0  0  0  0  0  0  0  0  0  0  0  0
    9.9419  -16.3283   25.1949 N   0  0  0  0  0  0  0  0  0  0  0  0
    9.6294  -16.4526   26.6159 C   0  0  1  0  0  0  0  0  0  0  0  0
    8.1413  -16.7227   26.8004 C   0  0  0  0  0  0  0  0  0  0  0  0
    7.3849  -15.6408   26.1211 C   0  0  0  0  0  0  0  0  0  0  0  0
    6.4746  -15.7460   25.0656 C   0  0  0  0  0  0  0  0  0  0  0  0
    6.0188  -14.5107   24.7450 N   0  0  0  0  0  0  0  0  0  0  0  0
    6.5822  -13.5883   25.5369 C   0  0  0  0  0  0  0  0  0  0  0  0
    6.4405  -12.2149   25.5966 C   0  0  0  0  0  0  0  0  0  0  0  0
    7.1666  -11.5150   26.5380 C   0  0  0  0  0  0  0  0  0  0  0  0
    8.0213  -12.1730   27.4083 C   0  0  0  0  0  0  0  0  0  0  0  0
    8.1308  -13.5439   27.3123 C   0  0  0  0  0  0  0  0  0  0  0  0
    7.4258  -14.2783   26.3883 C   0  0  0  0  0  0  0  0  0  0  0  0
   10.4798  -17.4377   27.2854 C   0  0  0  0  0  0  0  0  0  0  0  0
   11.4501  -18.1468   26.5896 O   0  0  0  0  0  0  0  0  0  0  0  0
   10.3416  -17.6560   28.5135 O   0  0  0  0  0  0  0  0  0  0  0  0
  2  1  1  6
  2  5  1  0
  3  2  1  0
  4  3  1  0
  5  6  2  0
  7  5  1  0
  7  8  1  0
  8 12  1  0
  8  9  1  1
 10 14  1  0
 10  9  1  0
 11 10  2  0
 12 13  2  0
 15 16  1  0
 15 12  1  0
 16 27  1  0
 16 17  1  6
 18 17  1  0
 18 19  2  0
 20 19  1  0
 21 20  1  0
 22 21  2  0
 23 22  1  0
 24 23  2  0
 24 25  1  0
 25 26  2  0
 26 21  1  0
 26 18  1  0
 27 29  2  0
 27 28  1  0
M  END
$$$$
