CDW.pdb
     RDKit          3D

 29 30  0  0  1  0  0  0  0  0999 V2000
    7.9657  -16.0436   16.9263 N   0  0  0  0  0  0  0  0  0  0  0  0
    9.0576  -16.2266   17.8266 C   0  0  1  0  0  0  0  0  0  0  0  0
   10.0550  -15.0903   17.8078 C   0  0  0  0  0  0  0  0  0  0  0  0
   10.8284  -15.0733   16.1603 S   0  0  0  0  0  0  0  0  0  0  0  0
    8.6174  -16.5519   19.2088 C   0  0  0  0  0  0  0  0  0  0  0  0
    7.5704  -16.0180   19.6365 O   0  0  0  0  0  0  0  0  0  0  0  0
    9.3425  -17.4399   20.0420 N   0  0  0  0  0  0  0  0  0  0  0  0
    8.9079  -17.8971   21.3396 C   0  0  1  0  0  0  0  0  0  0  0  0
    8.7613  -19.4052   21.3707 C   0  0  0  0  0  0  0  0  0  0  0  0
    8.3639  -19.9063   22.6913 C   0  0  0  0  0  0  0  0  0  0  0  0
    7.3366  -19.3888   23.2259 O   0  0  0  0  0  0  0  0  0  0  0  0
    9.8901  -17.5387   22.3991 C   0  0  0  0  0  0  0  0  0  0  0  0
   11.1167  -17.7855   22.2901 O   0  0  0  0  0  0  0  0  0  0  0  0
    9.0035  -20.8980   23.4186 O   0  0  0  0  0  0  0  0  0  0  0  0
    9.4947  -16.8912   23.6071 N   0  0  0  0  0  0  0  0  0  0  0  0
   10.4061  -16.6399   24.7199 C   0  0  1  0  0  0  0  0  0  0  0  0
   10.1900  -15.2329   25.2629 C   0  0  0  0  0  0  0  0  0  0  0  0
    8.7479  -15.0724   25.5772 C   0  0  0  0  0  0  0  0  0  0  0  0
    7.8471  -16.0336   26.0446 C   0  0  0  0  0  0  0  0  0  0  0  0
    6.6259  -15.4650   26.1933 N   0  0  0  0  0  0  0  0  0  0  0  0
    6.6710  -14.1714   25.8474 C   0  0  0  0  0  0  0  0  0  0  0  0
    5.6996  -13.1886   25.8279 C   0  0  0  0  0  0  0  0  0  0  0  0
    6.0500  -11.9199   25.4143 C   0  0  0  0  0  0  0  0  0  0  0  0
    7.3492  -11.6333   25.0260 C   0  0  0  0  0  0  0  0  0  0  0  0
    8.2850  -12.6450   25.0616 C   0  0  0  0  0  0  0  0  0  0  0  0
    7.9770  -13.9223   25.4665 C   0  0  0  0  0  0  0  0  0  0  0  0
   10.3181  -17.6741   25.7518 C   0  0  0  0  0  0  0  0  0  0  0  0
   11.2898  -17.7972   26.7363 O   0  0  0  0  0  0  0  0  0  0  0  0
    9.3501  -18.4726   25.7603 O   0  0  0  0  0  0  0  0  0  0  0  0
  2  1  1  6
  2  5  1  0
  3  2  1  0
  4  3  1  0
  5  6  2  0
  7  5  1  0
  7  8  1  0
  8 12  1  0
  8  9  1  6
 10 14  1  0
 10  9  1  0
 11 10  2  0
 12 13  2  0
 15 16  1  0
 15 12  1  0
 16 27  1  0
 16 17  1  1
 18 17  1  0
 18 19  2  0
 20 19  1  0
 21 20  1  0
 22 21  2  0
 23 22  1  0
 24 23  2  0
 24 25  1  0
 25 26  2  0
 26 21  1  0
 26 18  1  0
 27 29  2  0
 27 28  1  0
M  END
$$$$
