CDW.pdb
     RDKit          3D

 29 30  0  0  1  0  0  0  0  0999 V2000
    6.4472  -16.1690   20.2179 N   0  0  0  0  0  0  0  0  0  0  0  0
    7.7643  -15.6505   20.3977 C   0  0  1  0  0  0  0  0  0  0  0  0
    7.7921  -14.1907   20.7909 C   0  0  0  0  0  0  0  0  0  0  0  0
    6.8072  -14.0189   22.3119 S   0  0  0  0  0  0  0  0  0  0  0  0
    8.5928  -16.4834   21.3087 C   0  0  0  0  0  0  0  0  0  0  0  0
    8.0085  -17.1797   22.1677 O   0  0  0  0  0  0  0  0  0  0  0  0
   10.0076  -16.5095   21.2292 N   0  0  0  0  0  0  0  0  0  0  0  0
   10.8738  -17.2226   22.1362 C   0  0  1  0  0  0  0  0  0  0  0  0
   12.2670  -17.3760   21.5597 C   0  0  0  0  0  0  0  0  0  0  0  0
   12.2760  -18.1236   20.2971 C   0  0  0  0  0  0  0  0  0  0  0  0
   11.6809  -19.2437   20.2789 O   0  0  0  0  0  0  0  0  0  0  0  0
   11.0208  -16.4994   23.4290 C   0  0  0  0  0  0  0  0  0  0  0  0
   11.6204  -15.3996   23.5197 O   0  0  0  0  0  0  0  0  0  0  0  0
   12.8739  -17.7243   19.1120 O   0  0  0  0  0  0  0  0  0  0  0  0
   10.4873  -17.0152   24.6472 N   0  0  0  0  0  0  0  0  0  0  0  0
   10.6674  -16.3653   25.9424 C   0  0  1  0  0  0  0  0  0  0  0  0
   10.2587  -14.9004   25.8516 C   0  0  0  0  0  0  0  0  0  0  0  0
    8.7757  -14.8310   25.8481 C   0  0  0  0  0  0  0  0  0  0  0  0
    7.8570  -15.8602   25.6228 C   0  0  0  0  0  0  0  0  0  0  0  0
    6.5997  -15.3613   25.7047 N   0  0  0  0  0  0  0  0  0  0  0  0
    6.6376  -14.0493   25.9738 C   0  0  0  0  0  0  0  0  0  0  0  0
    5.6340  -13.1154   26.1485 C   0  0  0  0  0  0  0  0  0  0  0  0
    5.9855  -11.8094   26.4212 C   0  0  0  0  0  0  0  0  0  0  0  0
    7.3173  -11.4384   26.5194 C   0  0  0  0  0  0  0  0  0  0  0  0
    8.2845  -12.4038   26.3378 C   0  0  0  0  0  0  0  0  0  0  0  0
    7.9767  -13.7155   26.0638 C   0  0  0  0  0  0  0  0  0  0  0  0
    9.9903  -17.0853   27.0218 C   0  0  0  0  0  0  0  0  0  0  0  0
   10.1400  -16.7053   28.3491 O   0  0  0  0  0  0  0  0  0  0  0  0
    9.2553  -18.0675   26.7577 O   0  0  0  0  0  0  0  0  0  0  0  0
  2  1  1  1
  2  5  1  0
  3  2  1  0
  4  3  1  0
  5  6  2  0
  7  5  1  0
  7  8  1  0
  8 12  1  0
  8  9  1  6
 10 14  1  0
 10  9  1  0
 11 10  2  0
 12 13  2  0
 15 16  1  0
 15 12  1  0
 16 27  1  0
 16 17  1  6
 18 17  1  0
 18 19  2  0
 20 19  1  0
 21 20  1  0
 22 21  2  0
 23 22  1  0
 24 23  2  0
 24 25  1  0
 25 26  2  0
 26 21  1  0
 26 18  1  0
 27 29  2  0
 27 28  1  0
M  END
$$$$
