ASR.pdb
     RDKit          3D

 23 22  0  0  1  0  0  0  0  0999 V2000
   13.4697  -10.3524  -11.2590 C   0  0  0  0  0  0  0  0  0  0  0  0
   14.6656  -10.0894  -10.3689 C   0  0  2  0  0  0  0  0  0  0  0  0
   14.2261   -9.7325   -9.0363 N   0  0  0  0  0  0  0  0  0  0  0  0
   15.3961   -8.9143  -10.9507 C   0  0  0  0  0  0  0  0  0  0  0  0
   15.4938   -8.7643  -12.1873 O   0  0  0  0  0  0  0  0  0  0  0  0
   17.6356   -6.2225   -8.4301 O   0  0  0  0  0  0  0  0  0  0  0  0
   16.7779   -5.7880   -9.4405 C   0  0  0  0  0  0  0  0  0  0  0  0
   16.7928   -6.8389  -10.5596 C   0  0  2  0  0  0  0  0  0  0  0  0
   16.0003   -7.9344  -10.1163 N   0  0  0  0  0  0  0  0  0  0  0  0
   18.1432   -7.1666  -10.9868 C   0  0  0  0  0  0  0  0  0  0  0  0
   18.6670   -8.2533  -10.6585 O   0  0  0  0  0  0  0  0  0  0  0  0
   21.8552  -12.1023  -15.7649 N   0  0  0  0  0  0  0  0  0  0  0  0
   22.9368  -11.2014  -15.5676 C   0  0  0  0  0  0  0  0  0  0  0  0
   24.1431  -11.4552  -15.9815 N   0  0  0  0  0  0  0  0  0  0  0  0
   22.7515   -9.9670  -14.9018 N   0  0  0  0  0  0  0  0  0  0  0  0
   21.4678   -9.6662  -14.3102 C   0  0  0  0  0  0  0  0  0  0  0  0
   21.4828   -8.3085  -13.6370 C   0  0  0  0  0  0  0  0  0  0  0  0
   20.1782   -7.9407  -13.0282 C   0  0  0  0  0  0  0  0  0  0  0  0
   20.2533   -6.6380  -12.2821 C   0  0  2  0  0  0  0  0  0  0  0  0
   18.9102   -6.2834  -11.7800 N   0  0  0  0  0  0  0  0  0  0  0  0
   20.8363   -5.5241  -13.0255 C   0  0  0  0  0  0  0  0  0  0  0  0
   20.2465   -4.7431  -13.8029 O   0  0  0  0  0  0  0  0  0  0  0  0
   22.2151   -5.2770  -12.8698 O   0  0  0  0  0  0  0  0  0  0  0  0
  2  1  1  6
  2  3  1  0
  4  2  1  0
  4  9  1  0
  5  4  2  0
  7  6  1  0
  8  9  1  0
  8  7  1  1
  8 10  1  0
 10 11  2  0
 10 20  1  0
 13 12  1  0
 13 14  2  0
 15 13  1  0
 16 17  1  0
 16 15  1  0
 18 17  1  0
 19 18  1  6
 20 19  1  0
 21 23  1  0
 21 19  1  0
 22 21  2  0
M  END
$$$$
