ASR.pdb
     RDKit          3D

 23 22  0  0  1  0  0  0  0  0999 V2000
   22.7662  -10.0933  -14.6367 C   0  0  0  0  0  0  0  0  0  0  0  0
   21.4903   -9.3155  -14.8791 C   0  0  2  0  0  0  0  0  0  0  0  0
   21.6303   -8.4822  -16.0548 N   0  0  0  0  0  0  0  0  0  0  0  0
   21.2900   -8.4191  -13.6919 C   0  0  0  0  0  0  0  0  0  0  0  0
   21.1292   -8.8927  -12.5469 O   0  0  0  0  0  0  0  0  0  0  0  0
   20.8336   -4.2693  -14.3492 O   0  0  0  0  0  0  0  0  0  0  0  0
   21.5201   -4.7156  -13.2201 C   0  0  0  0  0  0  0  0  0  0  0  0
   20.9296   -6.0726  -12.8116 C   0  0  2  0  0  0  0  0  0  0  0  0
   21.2767   -7.0041  -13.8297 N   0  0  0  0  0  0  0  0  0  0  0  0
   19.5142   -5.9816  -12.4928 C   0  0  0  0  0  0  0  0  0  0  0  0
   18.6516   -6.1177  -13.3876 O   0  0  0  0  0  0  0  0  0  0  0  0
   13.4307   -9.5311   -8.6268 N   0  0  0  0  0  0  0  0  0  0  0  0
   12.9459   -8.1996   -8.5155 C   0  0  0  0  0  0  0  0  0  0  0  0
   11.6882   -7.9261   -8.3307 N   0  0  0  0  0  0  0  0  0  0  0  0
   13.8202   -7.0907   -8.6017 N   0  0  0  0  0  0  0  0  0  0  0  0
   15.1673   -7.2860   -9.0872 C   0  0  0  0  0  0  0  0  0  0  0  0
   15.9442   -5.9849   -9.0771 C   0  0  0  0  0  0  0  0  0  0  0  0
   17.3650   -6.1463   -9.4811 C   0  0  0  0  0  0  0  0  0  0  0  0
   17.6264   -5.5885  -10.8522 C   0  0  2  0  0  0  0  0  0  0  0  0
   19.0595   -5.7389  -11.1768 N   0  0  0  0  0  0  0  0  0  0  0  0
   17.1930   -4.2092  -11.0595 C   0  0  0  0  0  0  0  0  0  0  0  0
   16.0338   -3.8092  -11.3014 O   0  0  0  0  0  0  0  0  0  0  0  0
   18.1673   -3.1935  -10.9847 O   0  0  0  0  0  0  0  0  0  0  0  0
  2  1  1  1
  2  3  1  0
  4  2  1  0
  4  9  1  0
  5  4  2  0
  7  6  1  0
  8  9  1  0
  8  7  1  6
  8 10  1  0
 10 11  2  0
 10 20  1  0
 13 12  1  0
 13 14  2  0
 15 13  1  0
 16 17  1  0
 16 15  1  0
 18 17  1  0
 19 18  1  1
 20 19  1  0
 21 23  1  0
 21 19  1  0
 22 21  2  0
M  END
$$$$
