ASR.pdb
     RDKit          3D

 23 22  0  0  1  0  0  0  0  0999 V2000
   19.2407  -28.5269  -12.6565 C   0  0  0  0  0  0  0  0  0  0  0  0
   20.1131  -27.2954  -12.7755 C   0  0  2  0  0  0  0  0  0  0  0  0
   21.5109  -27.6729  -12.7740 N   0  0  0  0  0  0  0  0  0  0  0  0
   19.8545  -26.4547  -11.5593 C   0  0  0  0  0  0  0  0  0  0  0  0
   20.3320  -26.7662  -10.4474 O   0  0  0  0  0  0  0  0  0  0  0  0
   18.1029  -22.8573  -12.2245 O   0  0  0  0  0  0  0  0  0  0  0  0
   18.9122  -22.9636  -11.0936 C   0  0  0  0  0  0  0  0  0  0  0  0
   18.7832  -24.3941  -10.5510 C   0  0  2  0  0  0  0  0  0  0  0  0
   19.0593  -25.2783  -11.6310 N   0  0  0  0  0  0  0  0  0  0  0  0
   17.5200  -24.6087   -9.8642 C   0  0  0  0  0  0  0  0  0  0  0  0
   16.5367  -25.0801  -10.4759 O   0  0  0  0  0  0  0  0  0  0  0  0
   17.3424  -28.3331   -4.4533 N   0  0  0  0  0  0  0  0  0  0  0  0
   17.9275  -27.1458   -3.9351 C   0  0  0  0  0  0  0  0  0  0  0  0
   19.1085  -27.1277   -3.3912 N   0  0  0  0  0  0  0  0  0  0  0  0
   17.2442  -25.9082   -3.9863 N   0  0  0  0  0  0  0  0  0  0  0  0
   15.8358  -25.8887   -4.3097 C   0  0  0  0  0  0  0  0  0  0  0  0
   15.6213  -25.7186   -5.8002 C   0  0  0  0  0  0  0  0  0  0  0  0
   16.2345  -24.4790   -6.3439 C   0  0  0  0  0  0  0  0  0  0  0  0
   16.0355  -24.3580   -7.8288 C   0  0  2  0  0  0  0  0  0  0  0  0
   17.3521  -24.2980   -8.4958 N   0  0  0  0  0  0  0  0  0  0  0  0
   15.1893  -23.2476   -8.2581 C   0  0  0  0  0  0  0  0  0  0  0  0
   15.4986  -22.0376   -8.3101 O   0  0  0  0  0  0  0  0  0  0  0  0
   13.8722  -23.5410   -8.6649 O   0  0  0  0  0  0  0  0  0  0  0  0
  2  1  1  1
  2  3  1  0
  4  2  1  0
  4  9  1  0
  5  4  2  0
  7  6  1  0
  8  9  1  0
  8  7  1  6
  8 10  1  0
 10 11  2  0
 10 20  1  0
 13 12  1  0
 13 14  2  0
 15 13  1  0
 16 17  1  0
 16 15  1  0
 18 17  1  0
 19 18  1  1
 20 19  1  0
 21 23  1  0
 21 19  1  0
 22 21  2  0
M  END
$$$$
