ASR.pdb
     RDKit          3D

 23 22  0  0  1  0  0  0  0  0999 V2000
   29.9727  -11.0487  -21.8282 C   0  0  0  0  0  0  0  0  0  0  0  0
   29.4801  -11.2296  -20.4082 C   0  0  2  0  0  0  0  0  0  0  0  0
   29.4880  -12.6332  -20.0530 N   0  0  0  0  0  0  0  0  0  0  0  0
   28.0597  -10.7459  -20.3710 C   0  0  0  0  0  0  0  0  0  0  0  0
   27.7888   -9.5325  -20.4963 O   0  0  0  0  0  0  0  0  0  0  0  0
   23.4419  -12.2782  -20.1349 O   0  0  0  0  0  0  0  0  0  0  0  0
   24.7977  -12.6039  -20.0989 C   0  0  0  0  0  0  0  0  0  0  0  0
   25.6005  -11.2956  -20.1241 C   0  0  2  0  0  0  0  0  0  0  0  0
   26.9769  -11.6498  -20.1925 N   0  0  0  0  0  0  0  0  0  0  0  0
   25.2298  -10.4032  -19.0380 C   0  0  0  0  0  0  0  0  0  0  0  0
   25.7420  -10.5346  -17.9051 O   0  0  0  0  0  0  0  0  0  0  0  0
   24.7229   -1.9348  -18.4667 N   0  0  0  0  0  0  0  0  0  0  0  0
   25.6906   -2.8895  -18.0512 C   0  0  0  0  0  0  0  0  0  0  0  0
   26.9604   -2.6167  -17.9882 N   0  0  0  0  0  0  0  0  0  0  0  0
   25.3144   -4.2020  -17.6805 N   0  0  0  0  0  0  0  0  0  0  0  0
   23.9453   -4.6260  -17.8652 C   0  0  0  0  0  0  0  0  0  0  0  0
   23.7639   -6.0746  -17.4588 C   0  0  0  0  0  0  0  0  0  0  0  0
   24.1247   -7.0354  -18.5333 C   0  0  0  0  0  0  0  0  0  0  0  0
   23.8953   -8.4604  -18.1136 C   0  0  2  0  0  0  0  0  0  0  0  0
   24.2881   -9.3641  -19.2141 N   0  0  0  0  0  0  0  0  0  0  0  0
   22.5436   -8.7669  -17.6527 C   0  0  0  0  0  0  0  0  0  0  0  0
   22.0667   -8.5575  -16.5164 O   0  0  0  0  0  0  0  0  0  0  0  0
   21.6547   -9.3657  -18.5679 O   0  0  0  0  0  0  0  0  0  0  0  0
  2  1  1  6
  2  3  1  0
  4  2  1  0
  4  9  1  0
  5  4  2  0
  7  6  1  0
  8  9  1  0
  8  7  1  1
  8 10  1  0
 10 11  2  0
 10 20  1  0
 13 12  1  0
 13 14  2  0
 15 13  1  0
 16 17  1  0
 16 15  1  0
 18 17  1  0
 19 18  1  6
 20 19  1  0
 21 23  1  0
 21 19  1  0
 22 21  2  0
M  END
$$$$
