ASR.pdb
     RDKit          3D

 23 22  0  0  1  0  0  0  0  0999 V2000
   14.6193  -11.2667  -14.8225 C   0  0  0  0  0  0  0  0  0  0  0  0
   16.1295  -11.3184  -14.7315 C   0  0  2  0  0  0  0  0  0  0  0  0
   16.5753  -12.6913  -14.6186 N   0  0  0  0  0  0  0  0  0  0  0  0
   16.5188  -10.5955  -13.4750 C   0  0  0  0  0  0  0  0  0  0  0  0
   15.9180  -10.8039  -12.3994 O   0  0  0  0  0  0  0  0  0  0  0  0
   19.2965   -7.4427  -13.6998 O   0  0  0  0  0  0  0  0  0  0  0  0
   19.4249   -8.3728  -12.6684 C   0  0  0  0  0  0  0  0  0  0  0  0
   18.0251   -8.9088  -12.3362 C   0  0  2  0  0  0  0  0  0  0  0  0
   17.5818   -9.6514  -13.4661 N   0  0  0  0  0  0  0  0  0  0  0  0
   17.1299   -7.8591  -11.8779 C   0  0  0  0  0  0  0  0  0  0  0  0
   16.1692   -7.4891  -12.5874 O   0  0  0  0  0  0  0  0  0  0  0  0
   10.7809   -8.8035   -7.8691 N   0  0  0  0  0  0  0  0  0  0  0  0
   11.2826   -7.7481   -7.0598 C   0  0  0  0  0  0  0  0  0  0  0  0
   10.6586   -7.3202   -6.0022 N   0  0  0  0  0  0  0  0  0  0  0  0
   12.5027   -7.1024   -7.3694 N   0  0  0  0  0  0  0  0  0  0  0  0
   13.1145   -7.3237   -8.6597 C   0  0  0  0  0  0  0  0  0  0  0  0
   14.3802   -6.5040   -8.8104 C   0  0  0  0  0  0  0  0  0  0  0  0
   14.9970   -6.6186  -10.1575 C   0  0  0  0  0  0  0  0  0  0  0  0
   16.4194   -6.1328  -10.1677 C   0  0  2  0  0  0  0  0  0  0  0  0
   17.3050   -7.2213  -10.6289 N   0  0  0  0  0  0  0  0  0  0  0  0
   16.8999   -5.5775   -8.9051 C   0  0  0  0  0  0  0  0  0  0  0  0
   17.7361   -6.0837   -8.1262 O   0  0  0  0  0  0  0  0  0  0  0  0
   16.3815   -4.3337   -8.4920 O   0  0  0  0  0  0  0  0  0  0  0  0
  2  1  1  1
  2  3  1  0
  4  2  1  0
  4  9  1  0
  5  4  2  0
  7  6  1  0
  8  9  1  0
  8  7  1  6
  8 10  1  0
 10 11  2  0
 10 20  1  0
 13 12  1  0
 13 14  2  0
 15 13  1  0
 16 17  1  0
 16 15  1  0
 18 17  1  0
 19 18  1  1
 20 19  1  0
 21 23  1  0
 21 19  1  0
 22 21  2  0
M  END
$$$$
