ASR.pdb
     RDKit          3D

 23 22  0  0  1  0  0  0  0  0999 V2000
   12.2787   -4.0896   -6.9866 C   0  0  0  0  0  0  0  0  0  0  0  0
   13.4563   -5.0348   -6.8807 C   0  0  2  0  0  0  0  0  0  0  0  0
   14.4487   -4.4951   -5.9750 N   0  0  0  0  0  0  0  0  0  0  0  0
   14.0708   -5.1257   -8.2472 C   0  0  0  0  0  0  0  0  0  0  0  0
   13.4338   -5.6050   -9.2094 O   0  0  0  0  0  0  0  0  0  0  0  0
   16.4172   -2.3828   -9.9450 O   0  0  0  0  0  0  0  0  0  0  0  0
   17.1024   -3.5810   -9.7439 C   0  0  0  0  0  0  0  0  0  0  0  0
   16.0738   -4.7208   -9.7420 C   0  0  2  0  0  0  0  0  0  0  0  0
   15.3953   -4.6707   -8.4923 N   0  0  0  0  0  0  0  0  0  0  0  0
   16.6719   -6.0002  -10.0866 C   0  0  0  0  0  0  0  0  0  0  0  0
   17.1652   -6.7302   -9.1995 O   0  0  0  0  0  0  0  0  0  0  0  0
   14.5202  -13.5972  -10.2097 N   0  0  0  0  0  0  0  0  0  0  0  0
   15.4899  -13.7034  -11.2435 C   0  0  0  0  0  0  0  0  0  0  0  0
   15.8765  -14.8476  -11.7253 N   0  0  0  0  0  0  0  0  0  0  0  0
   16.0907  -12.5532  -11.8071 N   0  0  0  0  0  0  0  0  0  0  0  0
   15.7088  -11.2454  -11.3251 C   0  0  0  0  0  0  0  0  0  0  0  0
   16.3969  -10.1509  -12.1157 C   0  0  0  0  0  0  0  0  0  0  0  0
   16.0244   -8.7828  -11.6712 C   0  0  0  0  0  0  0  0  0  0  0  0
   17.1810   -7.8273  -11.7636 C   0  0  2  0  0  0  0  0  0  0  0  0
   16.7205   -6.4666  -11.4199 N   0  0  0  0  0  0  0  0  0  0  0  0
   17.8895   -7.8243  -13.0409 C   0  0  0  0  0  0  0  0  0  0  0  0
   17.5721   -7.2062  -14.0799 O   0  0  0  0  0  0  0  0  0  0  0  0
   19.0653   -8.5944  -13.1446 O   0  0  0  0  0  0  0  0  0  0  0  0
  2  1  1  6
  2  3  1  0
  4  2  1  0
  4  9  1  0
  5  4  2  0
  7  6  1  0
  8  9  1  0
  8  7  1  1
  8 10  1  0
 10 11  2  0
 10 20  1  0
 13 12  1  0
 13 14  2  0
 15 13  1  0
 16 17  1  0
 16 15  1  0
 18 17  1  0
 19 18  1  6
 20 19  1  0
 21 23  1  0
 21 19  1  0
 22 21  2  0
M  END
$$$$
