ASR.pdb
     RDKit          3D

 23 22  0  0  1  0  0  0  0  0999 V2000
   20.8705  -13.5785  -16.8469 C   0  0  0  0  0  0  0  0  0  0  0  0
   20.1694  -12.2550  -17.0674 C   0  0  2  0  0  0  0  0  0  0  0  0
   20.8488  -11.4966  -18.0968 N   0  0  0  0  0  0  0  0  0  0  0  0
   20.2653  -11.4875  -15.7810 C   0  0  0  0  0  0  0  0  0  0  0  0
   19.7791  -11.9404  -14.7228 O   0  0  0  0  0  0  0  0  0  0  0  0
   21.7704   -7.6359  -16.0268 O   0  0  0  0  0  0  0  0  0  0  0  0
   22.0225   -8.3136  -14.8341 C   0  0  0  0  0  0  0  0  0  0  0  0
   20.8907   -9.3279  -14.6167 C   0  0  2  0  0  0  0  0  0  0  0  0
   20.9111  -10.2222  -15.7232 N   0  0  0  0  0  0  0  0  0  0  0  0
   19.6170   -8.6800  -14.3498 C   0  0  0  0  0  0  0  0  0  0  0  0
   18.8354   -8.4058  -15.2864 O   0  0  0  0  0  0  0  0  0  0  0  0
   14.0648   -8.9870   -7.4275 N   0  0  0  0  0  0  0  0  0  0  0  0
   13.4972   -8.0660   -8.3494 C   0  0  0  0  0  0  0  0  0  0  0  0
   12.3090   -7.5615   -8.1925 N   0  0  0  0  0  0  0  0  0  0  0  0
   14.2070   -7.6470   -9.4992 N   0  0  0  0  0  0  0  0  0  0  0  0
   15.4702   -8.2717   -9.8194 C   0  0  0  0  0  0  0  0  0  0  0  0
   16.0473   -7.7077  -11.1021 C   0  0  0  0  0  0  0  0  0  0  0  0
   17.3585   -8.3037  -11.4678 C   0  0  0  0  0  0  0  0  0  0  0  0
   17.8961   -7.7351  -12.7512 C   0  0  2  0  0  0  0  0  0  0  0  0
   19.2138   -8.3374  -13.0393 N   0  0  0  0  0  0  0  0  0  0  0  0
   17.9727   -6.2775  -12.8060 C   0  0  0  0  0  0  0  0  0  0  0  0
   17.0535   -5.4828  -13.0991 O   0  0  0  0  0  0  0  0  0  0  0  0
   19.2068   -5.6699  -12.4995 O   0  0  0  0  0  0  0  0  0  0  0  0
  2  1  1  1
  2  3  1  0
  4  2  1  0
  4  9  1  0
  5  4  2  0
  7  6  1  0
  8  9  1  0
  8  7  1  6
  8 10  1  0
 10 11  2  0
 10 20  1  0
 13 12  1  0
 13 14  2  0
 15 13  1  0
 16 17  1  0
 16 15  1  0
 18 17  1  0
 19 18  1  1
 20 19  1  0
 21 23  1  0
 21 19  1  0
 22 21  2  0
M  END
$$$$
