ASR.pdb
     RDKit          3D

 23 22  0  0  1  0  0  0  0  0999 V2000
   13.5488  -11.9991  -15.8898 C   0  0  0  0  0  0  0  0  0  0  0  0
   14.7029  -12.2444  -14.9414 C   0  0  2  0  0  0  0  0  0  0  0  0
   14.4792  -13.4605  -14.1882 N   0  0  0  0  0  0  0  0  0  0  0  0
   14.7303  -11.0951  -13.9764 C   0  0  0  0  0  0  0  0  0  0  0  0
   15.0098   -9.9390  -14.3592 O   0  0  0  0  0  0  0  0  0  0  0  0
   14.3580  -11.7742   -9.8013 O   0  0  0  0  0  0  0  0  0  0  0  0
   13.5537  -10.8271  -10.4350 C   0  0  0  0  0  0  0  0  0  0  0  0
   14.3421  -10.2525  -11.6206 C   0  0  2  0  0  0  0  0  0  0  0  0
   14.4398  -11.2825  -12.5973 N   0  0  0  0  0  0  0  0  0  0  0  0
   15.5995   -9.6531  -11.2047 C   0  0  0  0  0  0  0  0  0  0  0  0
   16.6838  -10.2362  -11.4228 O   0  0  0  0  0  0  0  0  0  0  0  0
   20.7417   -5.2329  -15.2754 N   0  0  0  0  0  0  0  0  0  0  0  0
   21.1481   -4.8414  -13.9708 C   0  0  0  0  0  0  0  0  0  0  0  0
   22.1322   -4.0175  -13.7624 N   0  0  0  0  0  0  0  0  0  0  0  0
   20.4927   -5.3360  -12.8187 N   0  0  0  0  0  0  0  0  0  0  0  0
   19.3041   -6.1438  -12.9711 C   0  0  0  0  0  0  0  0  0  0  0  0
   18.7210   -6.5150  -11.6225 C   0  0  0  0  0  0  0  0  0  0  0  0
   17.5078   -7.3672  -11.7219 C   0  0  0  0  0  0  0  0  0  0  0  0
   16.9089   -7.6523  -10.3730 C   0  0  2  0  0  0  0  0  0  0  0  0
   15.6491   -8.4039  -10.5457 N   0  0  0  0  0  0  0  0  0  0  0  0
   16.6994   -6.4839   -9.5220 C   0  0  0  0  0  0  0  0  0  0  0  0
   17.5402   -5.9247   -8.7852 O   0  0  0  0  0  0  0  0  0  0  0  0
   15.4171   -5.8992   -9.5084 O   0  0  0  0  0  0  0  0  0  0  0  0
  2  1  1  6
  2  3  1  0
  4  2  1  0
  4  9  1  0
  5  4  2  0
  7  6  1  0
  8  9  1  0
  8  7  1  1
  8 10  1  0
 10 11  2  0
 10 20  1  0
 13 12  1  0
 13 14  2  0
 15 13  1  0
 16 17  1  0
 16 15  1  0
 18 17  1  0
 19 18  1  6
 20 19  1  0
 21 23  1  0
 21 19  1  0
 22 21  2  0
M  END
$$$$
