ASR.pdb
     RDKit          3D

 23 22  0  0  1  0  0  0  0  0999 V2000
   29.0026  -15.9341  -20.0273 C   0  0  0  0  0  0  0  0  0  0  0  0
   27.6262  -16.5591  -19.9459 C   0  0  2  0  0  0  0  0  0  0  0  0
   26.6071  -15.5375  -20.0648 N   0  0  0  0  0  0  0  0  0  0  0  0
   27.5067  -17.1826  -18.5857 C   0  0  0  0  0  0  0  0  0  0  0  0
   28.2532  -18.1231  -18.2403 O   0  0  0  0  0  0  0  0  0  0  0  0
   26.2850  -16.7355  -14.0639 O   0  0  0  0  0  0  0  0  0  0  0  0
   26.4757  -16.1815  -15.3296 C   0  0  0  0  0  0  0  0  0  0  0  0
   26.2900  -17.2968  -16.3683 C   0  0  2  0  0  0  0  0  0  0  0  0
   26.5422  -16.7252  -17.6466 N   0  0  0  0  0  0  0  0  0  0  0  0
   25.0142  -17.9779  -16.2200 C   0  0  0  0  0  0  0  0  0  0  0  0
   23.9560  -17.4352  -16.6061 O   0  0  0  0  0  0  0  0  0  0  0  0
   24.1365  -25.4359  -14.7952 N   0  0  0  0  0  0  0  0  0  0  0  0
   23.0581  -25.0574  -15.6403 C   0  0  0  0  0  0  0  0  0  0  0  0
   21.8509  -25.5136  -15.4809 N   0  0  0  0  0  0  0  0  0  0  0  0
   23.2478  -24.1531  -16.7116 N   0  0  0  0  0  0  0  0  0  0  0  0
   24.4788  -23.4005  -16.7946 C   0  0  0  0  0  0  0  0  0  0  0  0
   24.2092  -21.9096  -16.7610 C   0  0  0  0  0  0  0  0  0  0  0  0
   23.8076  -21.4158  -15.4182 C   0  0  0  0  0  0  0  0  0  0  0  0
   23.6184  -19.9248  -15.4010 C   0  0  2  0  0  0  0  0  0  0  0  0
   24.9172  -19.2637  -15.6416 N   0  0  0  0  0  0  0  0  0  0  0  0
   22.9819  -19.3888  -14.2006 C   0  0  0  0  0  0  0  0  0  0  0  0
   23.5403  -18.8145  -13.2411 O   0  0  0  0  0  0  0  0  0  0  0  0
   21.5835  -19.5183  -14.0818 O   0  0  0  0  0  0  0  0  0  0  0  0
  2  1  1  1
  2  3  1  0
  4  2  1  0
  4  9  1  0
  5  4  2  0
  7  6  1  0
  8  9  1  0
  8  7  1  1
  8 10  1  0
 10 11  2  0
 10 20  1  0
 13 12  1  0
 13 14  2  0
 15 13  1  0
 16 17  1  0
 16 15  1  0
 18 17  1  0
 19 18  1  1
 20 19  1  0
 21 23  1  0
 21 19  1  0
 22 21  2  0
M  END
$$$$
