ASR.pdb
     RDKit          3D

 23 22  0  0  1  0  0  0  0  0999 V2000
   18.3664  -12.7825  -17.3397 C   0  0  0  0  0  0  0  0  0  0  0  0
   19.8503  -12.8837  -17.0575 C   0  0  2  0  0  0  0  0  0  0  0  0
   20.1754  -14.2072  -16.5686 N   0  0  0  0  0  0  0  0  0  0  0  0
   20.1592  -11.8950  -15.9712 C   0  0  0  0  0  0  0  0  0  0  0  0
   19.7626  -12.0791  -14.8007 O   0  0  0  0  0  0  0  0  0  0  0  0
   21.9159   -8.2129  -17.0235 O   0  0  0  0  0  0  0  0  0  0  0  0
   22.3531   -8.8597  -15.8677 C   0  0  0  0  0  0  0  0  0  0  0  0
   21.1788   -9.6746  -15.3073 C   0  0  2  0  0  0  0  0  0  0  0  0
   20.9118  -10.7184  -16.2367 N   0  0  0  0  0  0  0  0  0  0  0  0
   20.0456   -8.8343  -14.9564 C   0  0  0  0  0  0  0  0  0  0  0  0
   19.1023   -8.6718  -15.7608 O   0  0  0  0  0  0  0  0  0  0  0  0
   15.1491   -7.6909   -7.7002 N   0  0  0  0  0  0  0  0  0  0  0  0
   14.4887   -7.1909   -8.8553 C   0  0  0  0  0  0  0  0  0  0  0  0
   13.2002   -7.0240   -8.9073 N   0  0  0  0  0  0  0  0  0  0  0  0
   15.2110   -6.8454  -10.0216 N   0  0  0  0  0  0  0  0  0  0  0  0
   16.4919   -7.4658  -10.2722 C   0  0  0  0  0  0  0  0  0  0  0  0
   17.0520   -7.0368  -11.6134 C   0  0  0  0  0  0  0  0  0  0  0  0
   18.2906   -7.7651  -11.9924 C   0  0  0  0  0  0  0  0  0  0  0  0
   18.8076   -7.3336  -13.3362 C   0  0  2  0  0  0  0  0  0  0  0  0
   19.9632   -8.1747  -13.7092 N   0  0  0  0  0  0  0  0  0  0  0  0
   19.1428   -5.9167  -13.4520 C   0  0  0  0  0  0  0  0  0  0  0  0
   20.2691   -5.3926  -13.3138 O   0  0  0  0  0  0  0  0  0  0  0  0
   18.1019   -5.0151  -13.7522 O   0  0  0  0  0  0  0  0  0  0  0  0
  2  1  1  1
  2  3  1  0
  4  2  1  0
  4  9  1  0
  5  4  2  0
  7  6  1  0
  8  9  1  0
  8  7  1  6
  8 10  1  0
 10 11  2  0
 10 20  1  0
 13 12  1  0
 13 14  2  0
 15 13  1  0
 16 17  1  0
 16 15  1  0
 18 17  1  0
 19 18  1  1
 20 19  1  0
 21 23  1  0
 21 19  1  0
 22 21  2  0
M  END
$$$$
