ASR.pdb
     RDKit          3D

 23 22  0  0  1  0  0  0  0  0999 V2000
   20.7854  -11.4510  -18.8795 C   0  0  0  0  0  0  0  0  0  0  0  0
   21.6964  -11.1569  -17.7068 C   0  0  2  0  0  0  0  0  0  0  0  0
   22.3123  -12.3795  -17.2353 N   0  0  0  0  0  0  0  0  0  0  0  0
   20.8333  -10.6133  -16.6057 C   0  0  0  0  0  0  0  0  0  0  0  0
   19.8843  -11.2808  -16.1418 O   0  0  0  0  0  0  0  0  0  0  0  0
   21.7067   -6.8009  -15.1080 O   0  0  0  0  0  0  0  0  0  0  0  0
   21.2662   -7.7979  -14.2377 C   0  0  0  0  0  0  0  0  0  0  0  0
   20.3104   -8.7157  -15.0130 C   0  0  2  0  0  0  0  0  0  0  0  0
   21.0658   -9.3236  -16.0544 N   0  0  0  0  0  0  0  0  0  0  0  0
   19.1016   -8.0236  -15.4290 C   0  0  0  0  0  0  0  0  0  0  0  0
   19.0405   -7.4690  -16.5479 O   0  0  0  0  0  0  0  0  0  0  0  0
   10.5515   -8.4396  -12.7941 N   0  0  0  0  0  0  0  0  0  0  0  0
   10.6049   -7.5546  -13.9052 C   0  0  0  0  0  0  0  0  0  0  0  0
    9.5385   -7.0340  -14.4368 N   0  0  0  0  0  0  0  0  0  0  0  0
   11.8382   -7.1915  -14.4955 N   0  0  0  0  0  0  0  0  0  0  0  0
   13.0571   -7.8130  -14.0303 C   0  0  0  0  0  0  0  0  0  0  0  0
   14.2688   -7.2208  -14.7214 C   0  0  0  0  0  0  0  0  0  0  0  0
   15.5474   -7.8590  -14.3138 C   0  0  0  0  0  0  0  0  0  0  0  0
   16.7294   -7.2447  -15.0102 C   0  0  2  0  0  0  0  0  0  0  0  0
   17.9606   -7.9492  -14.5984 N   0  0  0  0  0  0  0  0  0  0  0  0
   16.8781   -5.8022  -14.8356 C   0  0  0  0  0  0  0  0  0  0  0  0
   17.4777   -5.2103  -13.9123 O   0  0  0  0  0  0  0  0  0  0  0  0
   16.2913   -4.9573  -15.7991 O   0  0  0  0  0  0  0  0  0  0  0  0
  2  1  1  6
  2  3  1  0
  4  2  1  0
  4  9  1  0
  5  4  2  0
  7  6  1  0
  8  9  1  0
  8  7  1  6
  8 10  1  0
 10 11  2  0
 10 20  1  0
 13 12  1  0
 13 14  2  0
 15 13  1  0
 16 17  1  0
 16 15  1  0
 18 17  1  0
 19 18  1  1
 20 19  1  0
 21 23  1  0
 21 19  1  0
 22 21  2  0
M  END
$$$$
