ASR.pdb
     RDKit          3D

 23 22  0  0  1  0  0  0  0  0999 V2000
   15.5201  -12.9026  -15.0612 C   0  0  0  0  0  0  0  0  0  0  0  0
   16.8796  -12.5943  -15.6514 C   0  0  2  0  0  0  0  0  0  0  0  0
   17.7735  -13.7166  -15.4573 N   0  0  0  0  0  0  0  0  0  0  0  0
   17.4311  -11.4211  -14.8948 C   0  0  0  0  0  0  0  0  0  0  0  0
   17.2207  -11.2876  -13.6704 O   0  0  0  0  0  0  0  0  0  0  0  0
   20.3987   -7.5933  -15.2515 O   0  0  0  0  0  0  0  0  0  0  0  0
   19.8001   -8.6848  -15.8805 C   0  0  0  0  0  0  0  0  0  0  0  0
   18.7278   -9.2468  -14.9362 C   0  0  2  0  0  0  0  0  0  0  0  0
   18.2096  -10.4243  -15.5442 N   0  0  0  0  0  0  0  0  0  0  0  0
   17.7454   -8.2428  -14.5619 C   0  0  0  0  0  0  0  0  0  0  0  0
   16.7611   -8.0122  -15.2976 O   0  0  0  0  0  0  0  0  0  0  0  0
   14.2602   -6.1729   -6.9427 N   0  0  0  0  0  0  0  0  0  0  0  0
   14.2820   -7.2103   -7.9142 C   0  0  0  0  0  0  0  0  0  0  0  0
   13.9190   -8.4294   -7.6441 N   0  0  0  0  0  0  0  0  0  0  0  0
   14.7055   -6.9641   -9.2414 N   0  0  0  0  0  0  0  0  0  0  0  0
   15.2672   -5.6761   -9.5789 C   0  0  0  0  0  0  0  0  0  0  0  0
   15.5768   -5.5878  -11.0598 C   0  0  0  0  0  0  0  0  0  0  0  0
   16.5669   -6.5986  -11.5138 C   0  0  0  0  0  0  0  0  0  0  0  0
   16.8687   -6.4706  -12.9807 C   0  0  2  0  0  0  0  0  0  0  0  0
   17.8595   -7.4954  -13.3679 N   0  0  0  0  0  0  0  0  0  0  0  0
   17.3008   -5.1453  -13.4171 C   0  0  0  0  0  0  0  0  0  0  0  0
   18.4372   -4.8151  -13.8193 O   0  0  0  0  0  0  0  0  0  0  0  0
   16.3536   -4.1019  -13.3936 O   0  0  0  0  0  0  0  0  0  0  0  0
  2  1  1  1
  2  3  1  0
  4  2  1  0
  4  9  1  0
  5  4  2  0
  7  6  1  0
  8  9  1  0
  8  7  1  6
  8 10  1  0
 10 11  2  0
 10 20  1  0
 13 12  1  0
 13 14  2  0
 15 13  1  0
 16 17  1  0
 16 15  1  0
 18 17  1  0
 19 18  1  1
 20 19  1  0
 21 23  1  0
 21 19  1  0
 22 21  2  0
M  END
$$$$
