YMS.pdb
     RDKit          3D

 27 27  0  0  1  0  0  0  0  0999 V2000
    3.9790  -24.5390   25.2815 O   0  0  0  0  0  0  0  0  0  0  0  0
    4.6828  -23.3705   25.1080 C   0  0  0  0  0  0  0  0  0  0  0  0
    5.7416  -23.3796   24.2048 C   0  0  0  0  0  0  0  0  0  0  0  0
    6.4373  -22.2163   24.0363 C   0  0  0  0  0  0  0  0  0  0  0  0
    6.1615  -21.0373   24.6991 C   0  0  0  0  0  0  0  0  0  0  0  0
    6.9979  -19.8753   24.4101 C   0  0  0  0  0  0  0  0  0  0  0  0
    6.2716  -18.7643   23.6881 C   0  0  2  0  0  0  0  0  0  0  0  0
    5.8943  -19.2595   22.3730 N   0  0  0  0  0  0  0  0  0  0  0  0
    7.2382  -17.6462   23.5805 C   0  0  0  0  0  0  0  0  0  0  0  0
    7.9203  -17.5793   22.5341 O   0  0  0  0  0  0  0  0  0  0  0  0
    5.1106  -21.0404   25.5911 C   0  0  0  0  0  0  0  0  0  0  0  0
    4.3868  -22.1994   25.7851 C   0  0  0  0  0  0  0  0  0  0  0  0
    5.3088  -11.6127   26.6197 C   0  0  0  0  0  0  0  0  0  0  0  0
    6.8285  -12.5579   26.7424 S   0  0  0  0  0  0  0  0  0  0  0  0
    6.9968  -13.7794   25.4446 C   0  0  0  0  0  0  0  0  0  0  0  0
    8.2350  -14.5818   25.5688 C   0  0  0  0  0  0  0  0  0  0  0  0
    8.4497  -15.6627   24.5478 C   0  0  2  0  0  0  0  0  0  0  0  0
    7.4305  -16.6524   24.5957 N   0  0  0  0  0  0  0  0  0  0  0  0
    9.8196  -16.2162   24.6593 C   0  0  0  0  0  0  0  0  0  0  0  0
   10.1851  -16.9780   25.5912 O   0  0  0  0  0  0  0  0  0  0  0  0
   12.6669  -15.6594   21.4080 O   0  0  0  0  0  0  0  0  0  0  0  0
   12.4639  -16.8104   22.1360 C   0  0  0  0  0  0  0  0  0  0  0  0
   12.0689  -16.5493   23.5716 C   0  0  2  0  0  0  0  0  0  0  0  0
   10.7918  -15.8853   23.6755 N   0  0  0  0  0  0  0  0  0  0  0  0
   13.1439  -15.8545   24.2869 C   0  0  0  0  0  0  0  0  0  0  0  0
   14.3069  -16.3535   24.2753 O   0  0  0  0  0  0  0  0  0  0  0  0
   12.8766  -14.6868   24.9506 O   0  0  0  0  0  0  0  0  0  0  0  0
  2 12  2  0
  2  1  1  0
  3  2  1  0
  4  5  1  0
  4  3  2  0
  5 11  2  0
  6  7  1  0
  6  5  1  0
  7  9  1  0
  7  8  1  6
  9 10  2  0
 11 12  1  0
 13 14  1  0
 14 15  1  0
 17 16  1  1
 16 15  1  0
 18 17  1  0
 18  9  1  0
 19 24  1  0
 19 17  1  0
 20 19  2  0
 22 21  1  0
 23 24  1  0
 23 22  1  6
 25 23  1  0
 26 25  2  0
 27 25  1  0
M  END
$$$$
