YMS.pdb
     RDKit          3D

 27 27  0  0  1  0  0  0  0  0999 V2000
    7.1463  -13.2973   15.9840 O   0  0  0  0  0  0  0  0  0  0  0  0
    7.3848  -13.8695   17.2115 C   0  0  0  0  0  0  0  0  0  0  0  0
    8.0853  -13.1191   18.1512 C   0  0  0  0  0  0  0  0  0  0  0  0
    8.3194  -13.6922   19.3688 C   0  0  0  0  0  0  0  0  0  0  0  0
    7.9094  -14.9604   19.7279 C   0  0  0  0  0  0  0  0  0  0  0  0
    8.2365  -15.4334   21.0705 C   0  0  0  0  0  0  0  0  0  0  0  0
    9.5226  -14.8637   21.6223 C   0  0  2  0  0  0  0  0  0  0  0  0
   10.6254  -15.4420   20.8697 N   0  0  0  0  0  0  0  0  0  0  0  0
    9.5742  -15.2739   23.0453 C   0  0  0  0  0  0  0  0  0  0  0  0
   10.3414  -16.2168   23.3407 O   0  0  0  0  0  0  0  0  0  0  0  0
    7.2165  -15.6941   18.7889 C   0  0  0  0  0  0  0  0  0  0  0  0
    6.9630  -15.1447   17.5484 C   0  0  0  0  0  0  0  0  0  0  0  0
    5.2982  -12.2664   26.8287 C   0  0  0  0  0  0  0  0  0  0  0  0
    6.9637  -11.8917   27.3799 S   0  0  0  0  0  0  0  0  0  0  0  0
    8.2212  -12.7268   26.4176 C   0  0  0  0  0  0  0  0  0  0  0  0
    7.9962  -14.1873   26.3235 C   0  0  0  0  0  0  0  0  0  0  0  0
    8.9505  -14.9679   25.4651 C   0  0  2  0  0  0  0  0  0  0  0  0
    8.8039  -14.6576   24.0856 N   0  0  0  0  0  0  0  0  0  0  0  0
    8.8481  -16.4161   25.7614 C   0  0  0  0  0  0  0  0  0  0  0  0
    7.8211  -17.1014   25.5206 O   0  0  0  0  0  0  0  0  0  0  0  0
   11.1164  -18.9178   24.7349 O   0  0  0  0  0  0  0  0  0  0  0  0
   10.8904  -19.3366   26.0270 C   0  0  0  0  0  0  0  0  0  0  0  0
    9.9023  -18.4698   26.7735 C   0  0  2  0  0  0  0  0  0  0  0  0
    9.9533  -17.0916   26.3485 N   0  0  0  0  0  0  0  0  0  0  0  0
   10.0576  -18.6363   28.2221 C   0  0  0  0  0  0  0  0  0  0  0  0
   10.3012  -17.6168   28.9312 O   0  0  0  0  0  0  0  0  0  0  0  0
    9.9379  -19.8806   28.7813 O   0  0  0  0  0  0  0  0  0  0  0  0
  2 12  2  0
  2  1  1  0
  3  2  1  0
  4  5  1  0
  4  3  2  0
  5 11  2  0
  6  7  1  0
  6  5  1  0
  7  9  1  0
  7  8  1  6
  9 10  2  0
 11 12  1  0
 13 14  1  0
 14 15  1  0
 17 16  1  1
 16 15  1  0
 18 17  1  0
 18  9  1  0
 19 24  1  0
 19 17  1  0
 20 19  2  0
 22 21  1  0
 23 24  1  0
 23 22  1  6
 25 23  1  0
 26 25  2  0
 27 25  1  0
M  END
$$$$
