YMS.pdb
     RDKit          3D

 27 27  0  0  1  0  0  0  0  0999 V2000
   11.8377  -20.6080   31.4032 O   0  0  0  0  0  0  0  0  0  0  0  0
   11.2379  -20.2798   30.2101 C   0  0  0  0  0  0  0  0  0  0  0  0
   11.3770  -18.9727   29.7528 C   0  0  0  0  0  0  0  0  0  0  0  0
   10.7792  -18.6521   28.5672 C   0  0  0  0  0  0  0  0  0  0  0  0
   10.0496  -19.5341   27.7957 C   0  0  0  0  0  0  0  0  0  0  0  0
    9.4707  -19.0395   26.5493 C   0  0  0  0  0  0  0  0  0  0  0  0
    8.0694  -18.4949   26.7005 C   0  0  2  0  0  0  0  0  0  0  0  0
    7.1613  -19.6261   26.8135 N   0  0  0  0  0  0  0  0  0  0  0  0
    7.7992  -17.7141   25.4703 C   0  0  0  0  0  0  0  0  0  0  0  0
    7.2445  -18.3140   24.5231 O   0  0  0  0  0  0  0  0  0  0  0  0
    9.9187  -20.8258   28.2589 C   0  0  0  0  0  0  0  0  0  0  0  0
   10.5104  -21.1830   29.4535 C   0  0  0  0  0  0  0  0  0  0  0  0
    5.9044  -11.7067   27.2583 C   0  0  0  0  0  0  0  0  0  0  0  0
    7.2314  -12.2573   26.1840 S   0  0  0  0  0  0  0  0  0  0  0  0
    6.7714  -13.6587   25.1696 C   0  0  0  0  0  0  0  0  0  0  0  0
    7.8800  -14.1342   24.3109 C   0  0  0  0  0  0  0  0  0  0  0  0
    7.9805  -15.6167   24.0897 C   0  0  2  0  0  0  0  0  0  0  0  0
    8.1342  -16.3294   25.3100 N   0  0  0  0  0  0  0  0  0  0  0  0
    9.0298  -15.9213   23.0888 C   0  0  0  0  0  0  0  0  0  0  0  0
   10.2392  -16.0991   23.3854 O   0  0  0  0  0  0  0  0  0  0  0  0
    8.1018  -15.6638   18.9908 O   0  0  0  0  0  0  0  0  0  0  0  0
    8.9014  -16.7182   19.3712 C   0  0  0  0  0  0  0  0  0  0  0  0
    9.5885  -16.5000   20.7000 C   0  0  2  0  0  0  0  0  0  0  0  0
    8.6791  -16.0237   21.7144 N   0  0  0  0  0  0  0  0  0  0  0  0
   10.7730  -15.6509   20.5378 C   0  0  0  0  0  0  0  0  0  0  0  0
   11.6503  -15.9829   19.6883 O   0  0  0  0  0  0  0  0  0  0  0  0
   10.9113  -14.5219   21.3005 O   0  0  0  0  0  0  0  0  0  0  0  0
  2 12  2  0
  2  1  1  0
  3  2  1  0
  4  5  1  0
  4  3  2  0
  5 11  2  0
  6  7  1  0
  6  5  1  0
  7  9  1  0
  7  8  1  6
  9 10  2  0
 11 12  1  0
 13 14  1  0
 14 15  1  0
 17 16  1  1
 16 15  1  0
 18 17  1  0
 18  9  1  0
 19 24  1  0
 19 17  1  0
 20 19  2  0
 22 21  1  0
 23 24  1  0
 23 22  1  6
 25 23  1  0
 26 25  2  0
 27 25  1  0
M  END
$$$$
