YMS.pdb
     RDKit          3D

 27 27  0  0  1  0  0  0  0  0999 V2000
    6.1181  -18.5953   15.0631 O   0  0  0  0  0  0  0  0  0  0  0  0
    6.7263  -18.0780   16.1827 C   0  0  0  0  0  0  0  0  0  0  0  0
    6.2664  -18.5037   17.4253 C   0  0  0  0  0  0  0  0  0  0  0  0
    6.8741  -17.9867   18.5340 C   0  0  0  0  0  0  0  0  0  0  0  0
    7.9093  -17.0741   18.5044 C   0  0  0  0  0  0  0  0  0  0  0  0
    8.4558  -16.6141   19.7783 C   0  0  0  0  0  0  0  0  0  0  0  0
    8.1651  -15.1622   20.0790 C   0  0  2  0  0  0  0  0  0  0  0  0
    8.9331  -14.3515   19.1463 N   0  0  0  0  0  0  0  0  0  0  0  0
    8.6101  -14.9365   21.4744 C   0  0  0  0  0  0  0  0  0  0  0  0
    9.8429  -14.8813   21.6791 O   0  0  0  0  0  0  0  0  0  0  0  0
    8.3563  -16.6599   17.2680 C   0  0  0  0  0  0  0  0  0  0  0  0
    7.7641  -17.1628   16.1272 C   0  0  0  0  0  0  0  0  0  0  0  0
    6.8556  -10.8517   27.2837 C   0  0  0  0  0  0  0  0  0  0  0  0
    6.2898  -12.5276   26.9844 S   0  0  0  0  0  0  0  0  0  0  0  0
    7.5091  -13.5362   26.1474 C   0  0  0  0  0  0  0  0  0  0  0  0
    7.1556  -13.8109   24.7360 C   0  0  0  0  0  0  0  0  0  0  0  0
    8.1511  -14.5912   23.9255 C   0  0  2  0  0  0  0  0  0  0  0  0
    7.7173  -14.7804   22.5852 N   0  0  0  0  0  0  0  0  0  0  0  0
    8.5077  -15.8522   24.6171 C   0  0  0  0  0  0  0  0  0  0  0  0
    7.7694  -16.8706   24.6248 O   0  0  0  0  0  0  0  0  0  0  0  0
   12.2485  -18.6333   25.4445 O   0  0  0  0  0  0  0  0  0  0  0  0
   11.6210  -17.4908   25.0007 C   0  0  0  0  0  0  0  0  0  0  0  0
   10.3280  -17.1971   25.7267 C   0  0  2  0  0  0  0  0  0  0  0  0
    9.7427  -15.9434   25.3163 N   0  0  0  0  0  0  0  0  0  0  0  0
   10.5123  -17.3039   27.1775 C   0  0  0  0  0  0  0  0  0  0  0  0
   10.2223  -16.3095   27.9046 O   0  0  0  0  0  0  0  0  0  0  0  0
   10.9909  -18.4670   27.7194 O   0  0  0  0  0  0  0  0  0  0  0  0
  2 12  2  0
  2  1  1  0
  3  2  1  0
  4  5  1  0
  4  3  2  0
  5 11  2  0
  6  7  1  0
  6  5  1  0
  7  9  1  0
  7  8  1  6
  9 10  2  0
 11 12  1  0
 13 14  1  0
 14 15  1  0
 17 16  1  1
 16 15  1  0
 18 17  1  0
 18  9  1  0
 19 24  1  0
 19 17  1  0
 20 19  2  0
 22 21  1  0
 23 24  1  0
 23 22  1  6
 25 23  1  0
 26 25  2  0
 27 25  1  0
M  END
$$$$
