YMS.pdb
     RDKit          3D

 27 27  0  0  1  0  0  0  0  0999 V2000
   11.2327  -20.2476   31.2323 O   0  0  0  0  0  0  0  0  0  0  0  0
   10.7780  -19.6384   30.0864 C   0  0  0  0  0  0  0  0  0  0  0  0
   11.0630  -20.2511   28.8698 C   0  0  0  0  0  0  0  0  0  0  0  0
   10.6091  -19.6417   27.7347 C   0  0  0  0  0  0  0  0  0  0  0  0
    9.8896  -18.4639   27.7139 C   0  0  0  0  0  0  0  0  0  0  0  0
    9.4735  -17.9363   26.4170 C   0  0  0  0  0  0  0  0  0  0  0  0
    7.9767  -17.7944   26.2672 C   0  0  2  0  0  0  0  0  0  0  0  0
    7.4132  -19.1296   26.1373 N   0  0  0  0  0  0  0  0  0  0  0  0
    7.7626  -17.0022   25.0332 C   0  0  0  0  0  0  0  0  0  0  0  0
    7.3723  -17.6202   24.0180 O   0  0  0  0  0  0  0  0  0  0  0  0
    9.6134  -17.8662   28.9249 C   0  0  0  0  0  0  0  0  0  0  0  0
   10.0576  -18.4558   30.0912 C   0  0  0  0  0  0  0  0  0  0  0  0
    5.4319  -11.5315   27.3950 C   0  0  0  0  0  0  0  0  0  0  0  0
    6.7254  -11.7966   26.1806 S   0  0  0  0  0  0  0  0  0  0  0  0
    6.3379  -13.1067   25.0238 C   0  0  0  0  0  0  0  0  0  0  0  0
    7.4440  -13.3840   24.0793 C   0  0  0  0  0  0  0  0  0  0  0  0
    7.7260  -14.8263   23.7676 C   0  0  2  0  0  0  0  0  0  0  0  0
    7.9753  -15.5874   24.9420 N   0  0  0  0  0  0  0  0  0  0  0  0
    8.7980  -14.9366   22.7506 C   0  0  0  0  0  0  0  0  0  0  0  0
    8.7482  -14.3719   21.6277 O   0  0  0  0  0  0  0  0  0  0  0  0
   12.1600  -17.3742   23.6343 O   0  0  0  0  0  0  0  0  0  0  0  0
   12.3175  -16.3193   22.7634 C   0  0  0  0  0  0  0  0  0  0  0  0
   11.0306  -15.9018   22.0892 C   0  0  2  0  0  0  0  0  0  0  0  0
    9.9544  -15.7149   23.0325 N   0  0  0  0  0  0  0  0  0  0  0  0
   10.6935  -16.8234   20.9996 C   0  0  0  0  0  0  0  0  0  0  0  0
    9.5604  -17.3869   21.0052 O   0  0  0  0  0  0  0  0  0  0  0  0
   11.6011  -17.0587   20.0014 O   0  0  0  0  0  0  0  0  0  0  0  0
  2 12  2  0
  2  1  1  0
  3  2  1  0
  4  5  1  0
  4  3  2  0
  5 11  2  0
  6  7  1  0
  6  5  1  0
  7  9  1  0
  7  8  1  6
  9 10  2  0
 11 12  1  0
 13 14  1  0
 14 15  1  0
 17 16  1  1
 16 15  1  0
 18 17  1  0
 18  9  1  0
 19 24  1  0
 19 17  1  0
 20 19  2  0
 22 21  1  0
 23 24  1  0
 23 22  1  1
 25 23  1  0
 26 25  2  0
 27 25  1  0
M  END
$$$$
