YMS.pdb
     RDKit          3D

 27 27  0  0  1  0  0  0  0  0999 V2000
   11.2492  -14.2741   30.4464 O   0  0  0  0  0  0  0  0  0  0  0  0
   10.8064  -15.2315   29.5640 C   0  0  0  0  0  0  0  0  0  0  0  0
   10.3443  -14.8046   28.3227 C   0  0  0  0  0  0  0  0  0  0  0  0
    9.9057  -15.7596   27.4501 C   0  0  0  0  0  0  0  0  0  0  0  0
    9.8901  -17.1139   27.7163 C   0  0  0  0  0  0  0  0  0  0  0  0
    9.3902  -18.0119   26.6785 C   0  0  0  0  0  0  0  0  0  0  0  0
    7.9202  -17.8375   26.3761 C   0  0  2  0  0  0  0  0  0  0  0  0
    7.3199  -19.1610   26.3037 N   0  0  0  0  0  0  0  0  0  0  0  0
    7.8512  -17.1477   25.0663 C   0  0  0  0  0  0  0  0  0  0  0  0
    7.4875  -17.8273   24.0811 O   0  0  0  0  0  0  0  0  0  0  0  0
   10.3502  -17.5248   28.9490 C   0  0  0  0  0  0  0  0  0  0  0  0
   10.8006  -16.5854   29.8544 C   0  0  0  0  0  0  0  0  0  0  0  0
    5.5176  -11.5055   26.9234 C   0  0  0  0  0  0  0  0  0  0  0  0
    6.7198  -11.7727   25.6191 S   0  0  0  0  0  0  0  0  0  0  0  0
    6.5393  -13.3642   24.8196 C   0  0  0  0  0  0  0  0  0  0  0  0
    7.6162  -13.6406   23.8417 C   0  0  0  0  0  0  0  0  0  0  0  0
    7.9962  -15.0797   23.6380 C   0  0  2  0  0  0  0  0  0  0  0  0
    8.1739  -15.7646   24.8708 N   0  0  0  0  0  0  0  0  0  0  0  0
    9.1610  -15.1842   22.7281 C   0  0  0  0  0  0  0  0  0  0  0  0
    9.1957  -14.6615   21.5845 O   0  0  0  0  0  0  0  0  0  0  0  0
   12.6471  -15.3427   24.3276 O   0  0  0  0  0  0  0  0  0  0  0  0
   12.7630  -16.0451   23.1490 C   0  0  0  0  0  0  0  0  0  0  0  0
   11.4942  -16.0498   22.3273 C   0  0  2  0  0  0  0  0  0  0  0  0
   10.3129  -15.9072   23.1440 N   0  0  0  0  0  0  0  0  0  0  0  0
   11.4520  -17.2206   21.4455 C   0  0  0  0  0  0  0  0  0  0  0  0
   12.3746  -17.3768   20.5935 O   0  0  0  0  0  0  0  0  0  0  0  0
   10.4247  -18.1196   21.5557 O   0  0  0  0  0  0  0  0  0  0  0  0
  2 12  2  0
  2  1  1  0
  3  2  1  0
  4  5  1  0
  4  3  2  0
  5 11  2  0
  6  7  1  0
  6  5  1  0
  7  9  1  0
  7  8  1  6
  9 10  2  0
 11 12  1  0
 13 14  1  0
 14 15  1  0
 17 16  1  1
 16 15  1  0
 18 17  1  0
 18  9  1  0
 19 24  1  0
 19 17  1  0
 20 19  2  0
 22 21  1  0
 23 24  1  0
 23 22  1  1
 25 23  1  0
 26 25  2  0
 27 25  1  0
M  END
$$$$
