YMS.pdb
     RDKit          3D

 27 27  0  0  1  0  0  0  0  0999 V2000
   12.2313  -24.2569   23.7340 O   0  0  0  0  0  0  0  0  0  0  0  0
   11.8585  -22.9360   23.8196 C   0  0  0  0  0  0  0  0  0  0  0  0
   12.7368  -22.0537   24.4416 C   0  0  0  0  0  0  0  0  0  0  0  0
   12.3616  -20.7429   24.5239 C   0  0  0  0  0  0  0  0  0  0  0  0
   11.1746  -20.2371   24.0335 C   0  0  0  0  0  0  0  0  0  0  0  0
   10.9166  -18.8090   24.1984 C   0  0  0  0  0  0  0  0  0  0  0  0
   10.7454  -18.0647   22.8946 C   0  0  2  0  0  0  0  0  0  0  0  0
   12.0412  -18.0179   22.2346 N   0  0  0  0  0  0  0  0  0  0  0  0
   10.2818  -16.7048   23.2579 C   0  0  0  0  0  0  0  0  0  0  0  0
   11.0865  -15.9729   23.8755 O   0  0  0  0  0  0  0  0  0  0  0  0
   10.3128  -21.1204   23.4195 C   0  0  0  0  0  0  0  0  0  0  0  0
   10.6613  -22.4521   23.3195 C   0  0  0  0  0  0  0  0  0  0  0  0
    7.7229  -12.5147   18.4192 C   0  0  0  0  0  0  0  0  0  0  0  0
    7.0057  -13.3646   19.8268 S   0  0  0  0  0  0  0  0  0  0  0  0
    8.2161  -13.7909   21.0749 C   0  0  0  0  0  0  0  0  0  0  0  0
    7.6000  -14.2966   22.3228 C   0  0  0  0  0  0  0  0  0  0  0  0
    8.5244  -14.9041   23.3393 C   0  0  2  0  0  0  0  0  0  0  0  0
    8.9807  -16.1911   22.9442 N   0  0  0  0  0  0  0  0  0  0  0  0
    7.9021  -14.8824   24.6839 C   0  0  0  0  0  0  0  0  0  0  0  0
    6.9825  -15.6659   25.0341 O   0  0  0  0  0  0  0  0  0  0  0  0
    9.9740  -13.5582   28.0079 O   0  0  0  0  0  0  0  0  0  0  0  0
    8.8054  -14.2860   28.0336 C   0  0  0  0  0  0  0  0  0  0  0  0
    7.8076  -13.8543   26.9833 C   0  0  2  0  0  0  0  0  0  0  0  0
    8.3486  -13.9371   25.6479 N   0  0  0  0  0  0  0  0  0  0  0  0
    7.2550  -12.5347   27.3046 C   0  0  0  0  0  0  0  0  0  0  0  0
    6.6709  -12.3714   28.4154 O   0  0  0  0  0  0  0  0  0  0  0  0
    7.3778  -11.5079   26.4068 O   0  0  0  0  0  0  0  0  0  0  0  0
  2 12  2  0
  2  1  1  0
  3  2  1  0
  4  5  1  0
  4  3  2  0
  5 11  2  0
  6  7  1  0
  6  5  1  0
  7  9  1  0
  7  8  1  1
  9 10  2  0
 11 12  1  0
 13 14  1  0
 14 15  1  0
 17 16  1  6
 16 15  1  0
 18 17  1  0
 18  9  1  0
 19 24  1  0
 19 17  1  0
 20 19  2  0
 22 21  1  0
 23 24  1  0
 23 22  1  1
 25 23  1  0
 26 25  2  0
 27 25  1  0
M  END
$$$$
