YMS.pdb
     RDKit          3D

 27 27  0  0  1  0  0  0  0  0999 V2000
   12.5806  -17.1280   32.4348 O   0  0  0  0  0  0  0  0  0  0  0  0
   12.1583  -17.1203   31.1262 C   0  0  0  0  0  0  0  0  0  0  0  0
   11.3613  -16.0586   30.7086 C   0  0  0  0  0  0  0  0  0  0  0  0
   10.9445  -16.0560   29.4078 C   0  0  0  0  0  0  0  0  0  0  0  0
   11.2597  -17.0318   28.4838 C   0  0  0  0  0  0  0  0  0  0  0  0
   10.7371  -16.8876   27.1275 C   0  0  0  0  0  0  0  0  0  0  0  0
    9.2880  -17.2909   26.9853 C   0  0  2  0  0  0  0  0  0  0  0  0
    9.1971  -18.7217   27.2335 N   0  0  0  0  0  0  0  0  0  0  0  0
    8.9081  -16.9659   25.5903 C   0  0  0  0  0  0  0  0  0  0  0  0
    8.6643  -17.9258   24.8261 O   0  0  0  0  0  0  0  0  0  0  0  0
   12.0497  -18.0784   28.9089 C   0  0  0  0  0  0  0  0  0  0  0  0
   12.4880  -18.1117   30.2173 C   0  0  0  0  0  0  0  0  0  0  0  0
    5.8415  -11.2179   26.3782 C   0  0  0  0  0  0  0  0  0  0  0  0
    6.9657  -11.7322   25.0783 S   0  0  0  0  0  0  0  0  0  0  0  0
    6.8568  -13.4814   24.7137 C   0  0  0  0  0  0  0  0  0  0  0  0
    7.8222  -13.9128   23.6772 C   0  0  0  0  0  0  0  0  0  0  0  0
    8.3370  -15.3209   23.7720 C   0  0  2  0  0  0  0  0  0  0  0  0
    8.8065  -15.6310   25.0774 N   0  0  0  0  0  0  0  0  0  0  0  0
    9.3328  -15.5814   22.7062 C   0  0  0  0  0  0  0  0  0  0  0  0
   10.5444  -15.2554   22.7956 O   0  0  0  0  0  0  0  0  0  0  0  0
    7.9622  -18.0360   19.8295 O   0  0  0  0  0  0  0  0  0  0  0  0
    9.3296  -17.8951   19.7506 C   0  0  0  0  0  0  0  0  0  0  0  0
    9.8526  -16.6941   20.5050 C   0  0  2  0  0  0  0  0  0  0  0  0
    8.9248  -16.2323   21.5094 N   0  0  0  0  0  0  0  0  0  0  0  0
   10.2728  -15.6408   19.5754 C   0  0  0  0  0  0  0  0  0  0  0  0
   11.1376  -15.9147   18.6929 O   0  0  0  0  0  0  0  0  0  0  0  0
    9.7286  -14.3880   19.6745 O   0  0  0  0  0  0  0  0  0  0  0  0
  2 12  2  0
  2  1  1  0
  3  2  1  0
  4  5  1  0
  4  3  2  0
  5 11  2  0
  6  7  1  0
  6  5  1  0
  7  9  1  0
  7  8  1  6
  9 10  2  0
 11 12  1  0
 13 14  1  0
 14 15  1  0
 17 16  1  1
 16 15  1  0
 18 17  1  0
 18  9  1  0
 19 24  1  0
 19 17  1  0
 20 19  2  0
 22 21  1  0
 23 24  1  0
 23 22  1  6
 25 23  1  0
 26 25  2  0
 27 25  1  0
M  END
$$$$
