YMS.pdb
     RDKit          3D

 27 27  0  0  1  0  0  0  0  0999 V2000
    7.0610  -12.6240   16.6178 O   0  0  0  0  0  0  0  0  0  0  0  0
    7.2834  -13.2556   17.8189 C   0  0  0  0  0  0  0  0  0  0  0  0
    7.0617  -14.6281   17.8802 C   0  0  0  0  0  0  0  0  0  0  0  0
    7.2841  -15.2504   19.0756 C   0  0  0  0  0  0  0  0  0  0  0  0
    7.7122  -14.6117   20.2219 C   0  0  0  0  0  0  0  0  0  0  0  0
    7.9053  -15.4167   21.4252 C   0  0  0  0  0  0  0  0  0  0  0  0
    9.3228  -15.9052   21.6123 C   0  0  2  0  0  0  0  0  0  0  0  0
    9.4897  -17.1071   20.8092 N   0  0  0  0  0  0  0  0  0  0  0  0
    9.4651  -16.2043   23.0567 C   0  0  0  0  0  0  0  0  0  0  0  0
    9.9140  -17.3303   23.3655 O   0  0  0  0  0  0  0  0  0  0  0  0
    7.9283  -13.2522   20.1491 C   0  0  0  0  0  0  0  0  0  0  0  0
    7.7131  -12.5924   18.9560 C   0  0  0  0  0  0  0  0  0  0  0  0
    5.5879  -11.9453   27.0279 C   0  0  0  0  0  0  0  0  0  0  0  0
    7.2991  -12.4535   27.2050 S   0  0  0  0  0  0  0  0  0  0  0  0
    7.7437  -13.7991   26.1113 C   0  0  0  0  0  0  0  0  0  0  0  0
    9.1420  -14.2503   26.2955 C   0  0  0  0  0  0  0  0  0  0  0  0
    9.6072  -15.3902   25.4347 C   0  0  2  0  0  0  0  0  0  0  0  0
    9.1211  -15.2865   24.1029 N   0  0  0  0  0  0  0  0  0  0  0  0
    9.2965  -16.6873   26.0801 C   0  0  0  0  0  0  0  0  0  0  0  0
    8.1481  -17.2005   26.0859 O   0  0  0  0  0  0  0  0  0  0  0  0
   10.9208  -19.8272   25.4339 O   0  0  0  0  0  0  0  0  0  0  0  0
   10.9609  -19.7814   26.8095 C   0  0  0  0  0  0  0  0  0  0  0  0
   10.1156  -18.6744   27.3969 C   0  0  2  0  0  0  0  0  0  0  0  0
   10.3316  -17.4107   26.7342 N   0  0  0  0  0  0  0  0  0  0  0  0
   10.2908  -18.6043   28.8510 C   0  0  0  0  0  0  0  0  0  0  0  0
   10.6781  -17.5158   29.3675 O   0  0  0  0  0  0  0  0  0  0  0  0
   10.0353  -19.7071   29.6217 O   0  0  0  0  0  0  0  0  0  0  0  0
  2 12  2  0
  2  1  1  0
  3  2  1  0
  4  5  1  0
  4  3  2  0
  5 11  2  0
  6  7  1  0
  6  5  1  0
  7  9  1  0
  7  8  1  6
  9 10  2  0
 11 12  1  0
 13 14  1  0
 14 15  1  0
 17 16  1  1
 16 15  1  0
 18 17  1  0
 18  9  1  0
 19 24  1  0
 19 17  1  0
 20 19  2  0
 22 21  1  0
 23 24  1  0
 23 22  1  6
 25 23  1  0
 26 25  2  0
 27 25  1  0
M  END
$$$$
