YMS.pdb
     RDKit          3D

 27 27  0  0  1  0  0  0  0  0999 V2000
   11.4563  -15.5183   31.9726 O   0  0  0  0  0  0  0  0  0  0  0  0
   11.0827  -15.8853   30.7010 C   0  0  0  0  0  0  0  0  0  0  0  0
   10.4914  -14.9175   29.8946 C   0  0  0  0  0  0  0  0  0  0  0  0
   10.1222  -15.2874   28.6325 C   0  0  0  0  0  0  0  0  0  0  0  0
   10.2958  -16.5515   28.1060 C   0  0  0  0  0  0  0  0  0  0  0  0
    9.8482  -16.7924   26.7367 C   0  0  0  0  0  0  0  0  0  0  0  0
    8.3631  -17.0420   26.6146 C   0  0  2  0  0  0  0  0  0  0  0  0
    8.1272  -18.4566   26.8603 N   0  0  0  0  0  0  0  0  0  0  0  0
    7.9992  -16.6734   25.2261 C   0  0  0  0  0  0  0  0  0  0  0  0
    7.5748  -17.5873   24.4849 O   0  0  0  0  0  0  0  0  0  0  0  0
   10.8826  -17.5016   28.9141 C   0  0  0  0  0  0  0  0  0  0  0  0
   11.2675  -17.1610   30.1950 C   0  0  0  0  0  0  0  0  0  0  0  0
    5.7932  -11.3908   26.5869 C   0  0  0  0  0  0  0  0  0  0  0  0
    7.0761  -11.9747   25.4774 S   0  0  0  0  0  0  0  0  0  0  0  0
    6.4271  -12.8786   24.0751 C   0  0  0  0  0  0  0  0  0  0  0  0
    7.4893  -13.4983   23.2503 C   0  0  0  0  0  0  0  0  0  0  0  0
    7.6787  -14.9821   23.3891 C   0  0  2  0  0  0  0  0  0  0  0  0
    8.1060  -15.3460   24.6950 N   0  0  0  0  0  0  0  0  0  0  0  0
    8.5584  -15.4951   22.3128 C   0  0  0  0  0  0  0  0  0  0  0  0
    9.7672  -15.7947   22.4901 O   0  0  0  0  0  0  0  0  0  0  0  0
    8.5784  -17.1277   17.6681 O   0  0  0  0  0  0  0  0  0  0  0  0
    7.9328  -16.4505   18.6783 C   0  0  0  0  0  0  0  0  0  0  0  0
    8.7260  -16.3941   19.9639 C   0  0  2  0  0  0  0  0  0  0  0  0
    8.0350  -15.6674   21.0017 N   0  0  0  0  0  0  0  0  0  0  0  0
   10.0834  -15.8989   19.7142 C   0  0  0  0  0  0  0  0  0  0  0  0
   10.8311  -16.5409   18.9202 O   0  0  0  0  0  0  0  0  0  0  0  0
   10.5183  -14.7598   20.3378 O   0  0  0  0  0  0  0  0  0  0  0  0
  2 12  2  0
  2  1  1  0
  3  2  1  0
  4  5  1  0
  4  3  2  0
  5 11  2  0
  6  7  1  0
  6  5  1  0
  7  9  1  0
  7  8  1  6
  9 10  2  0
 11 12  1  0
 13 14  1  0
 14 15  1  0
 17 16  1  1
 16 15  1  0
 18 17  1  0
 18  9  1  0
 19 24  1  0
 19 17  1  0
 20 19  2  0
 22 21  1  0
 23 24  1  0
 23 22  1  6
 25 23  1  0
 26 25  2  0
 27 25  1  0
M  END
$$$$
