YMS.pdb
     RDKit          3D

 27 27  0  0  1  0  0  0  0  0999 V2000
   12.2574  -16.8543   31.1485 O   0  0  0  0  0  0  0  0  0  0  0  0
   11.2268  -16.8023   30.2396 C   0  0  0  0  0  0  0  0  0  0  0  0
   10.9981  -15.5943   29.5875 C   0  0  0  0  0  0  0  0  0  0  0  0
    9.9732  -15.5482   28.6857 C   0  0  0  0  0  0  0  0  0  0  0  0
    9.1527  -16.6151   28.3793 C   0  0  0  0  0  0  0  0  0  0  0  0
    8.0977  -16.4082   27.3907 C   0  0  0  0  0  0  0  0  0  0  0  0
    8.4100  -16.9927   26.0328 C   0  0  2  0  0  0  0  0  0  0  0  0
    9.8239  -16.7741   25.7679 N   0  0  0  0  0  0  0  0  0  0  0  0
    7.5651  -16.2536   25.0653 C   0  0  0  0  0  0  0  0  0  0  0  0
    6.3459  -16.5324   25.0420 O   0  0  0  0  0  0  0  0  0  0  0  0
    9.3889  -17.8063   29.0315 C   0  0  0  0  0  0  0  0  0  0  0  0
   10.4168  -17.8871   29.9489 C   0  0  0  0  0  0  0  0  0  0  0  0
    6.1303  -11.6862   26.7202 C   0  0  0  0  0  0  0  0  0  0  0  0
    7.1720  -12.3817   25.4360 S   0  0  0  0  0  0  0  0  0  0  0  0
    6.2539  -12.8568   23.9745 C   0  0  0  0  0  0  0  0  0  0  0  0
    7.1194  -13.4078   22.9069 C   0  0  0  0  0  0  0  0  0  0  0  0
    7.4110  -14.8805   22.9609 C   0  0  2  0  0  0  0  0  0  0  0  0
    8.0625  -15.2518   24.1685 N   0  0  0  0  0  0  0  0  0  0  0  0
    8.1334  -15.3108   21.7408 C   0  0  0  0  0  0  0  0  0  0  0  0
    7.7097  -15.1015   20.5751 O   0  0  0  0  0  0  0  0  0  0  0  0
   12.2396  -16.2363   19.5739 O   0  0  0  0  0  0  0  0  0  0  0  0
   11.4461  -15.7326   20.5801 C   0  0  0  0  0  0  0  0  0  0  0  0
   10.1334  -16.4666   20.7320 C   0  0  2  0  0  0  0  0  0  0  0  0
    9.3723  -15.9978   21.8651 N   0  0  0  0  0  0  0  0  0  0  0  0
   10.3481  -17.9171   20.7375 C   0  0  0  0  0  0  0  0  0  0  0  0
    9.9182  -18.5942   21.7164 O   0  0  0  0  0  0  0  0  0  0  0  0
   11.0044  -18.5124   19.6933 O   0  0  0  0  0  0  0  0  0  0  0  0
  2 12  2  0
  2  1  1  0
  3  2  1  0
  4  5  1  0
  4  3  2  0
  5 11  2  0
  6  7  1  0
  6  5  1  0
  7  9  1  0
  7  8  1  6
  9 10  2  0
 11 12  1  0
 13 14  1  0
 14 15  1  0
 17 16  1  6
 16 15  1  0
 18 17  1  0
 18  9  1  0
 19 24  1  0
 19 17  1  0
 20 19  2  0
 22 21  1  0
 23 24  1  0
 23 22  1  1
 25 23  1  0
 26 25  2  0
 27 25  1  0
M  END
$$$$
