YMS.pdb
     RDKit          3D

 27 27  0  0  1  0  0  0  0  0999 V2000
   10.0773  -19.7494   30.0405 O   0  0  0  0  0  0  0  0  0  0  0  0
    9.3637  -19.9537   28.8828 C   0  0  0  0  0  0  0  0  0  0  0  0
   10.0072  -19.7096   27.6733 C   0  0  0  0  0  0  0  0  0  0  0  0
    9.2938  -19.9141   26.5265 C   0  0  0  0  0  0  0  0  0  0  0  0
    7.9829  -20.3449   26.4874 C   0  0  0  0  0  0  0  0  0  0  0  0
    7.3555  -20.5171   25.1798 C   0  0  0  0  0  0  0  0  0  0  0  0
    6.0456  -19.7792   25.0290 C   0  0  2  0  0  0  0  0  0  0  0  0
    5.1992  -20.5523   24.1327 N   0  0  0  0  0  0  0  0  0  0  0  0
    6.3837  -18.4620   24.4402 C   0  0  0  0  0  0  0  0  0  0  0  0
    6.6147  -18.4278   23.2113 O   0  0  0  0  0  0  0  0  0  0  0  0
    7.3561  -20.5833   27.6917 C   0  0  0  0  0  0  0  0  0  0  0  0
    8.0484  -20.3866   28.8694 C   0  0  0  0  0  0  0  0  0  0  0  0
    7.1281  -10.5819   25.5795 C   0  0  0  0  0  0  0  0  0  0  0  0
    6.6847  -12.2050   26.2016 S   0  0  0  0  0  0  0  0  0  0  0  0
    7.1106  -13.5255   25.0704 C   0  0  0  0  0  0  0  0  0  0  0  0
    6.7012  -14.8596   25.5655 C   0  0  0  0  0  0  0  0  0  0  0  0
    7.0104  -16.0360   24.6838 C   0  0  2  0  0  0  0  0  0  0  0  0
    6.4590  -17.2436   25.1919 N   0  0  0  0  0  0  0  0  0  0  0  0
    8.4657  -16.1148   24.4166 C   0  0  0  0  0  0  0  0  0  0  0  0
    9.3002  -16.5529   25.2497 O   0  0  0  0  0  0  0  0  0  0  0  0
    9.3772  -16.0866   20.4166 O   0  0  0  0  0  0  0  0  0  0  0  0
   10.4457  -15.7089   21.1987 C   0  0  0  0  0  0  0  0  0  0  0  0
   10.2718  -16.0577   22.6593 C   0  0  2  0  0  0  0  0  0  0  0  0
    8.9727  -15.6795   23.1612 N   0  0  0  0  0  0  0  0  0  0  0  0
   11.3801  -15.5216   23.4557 C   0  0  0  0  0  0  0  0  0  0  0  0
   11.1161  -14.8607   24.5022 O   0  0  0  0  0  0  0  0  0  0  0  0
   12.6724  -15.7417   23.0594 O   0  0  0  0  0  0  0  0  0  0  0  0
  2 12  2  0
  2  1  1  0
  3  2  1  0
  4  5  1  0
  4  3  2  0
  5 11  2  0
  6  7  1  0
  6  5  1  0
  7  9  1  0
  7  8  1  6
  9 10  2  0
 11 12  1  0
 13 14  1  0
 14 15  1  0
 17 16  1  1
 16 15  1  0
 18 17  1  0
 18  9  1  0
 19 24  1  0
 19 17  1  0
 20 19  2  0
 22 21  1  0
 23 24  1  0
 23 22  1  6
 25 23  1  0
 26 25  2  0
 27 25  1  0
M  END
$$$$
