GWD.pdb
     RDKit          3D

 27 28  0  0  1  0  0  0  0  0999 V2000
   28.1858  -22.5901  -15.4396 N   0  0  0  0  0  0  0  0  0  0  0  0
   27.6855  -21.3404  -14.8910 C   0  0  0  0  0  0  0  0  0  0  0  0
   26.6847  -21.5893  -13.8194 C   0  0  0  0  0  0  0  0  0  0  0  0
   25.9161  -22.5913  -13.9768 O   0  0  0  0  0  0  0  0  0  0  0  0
   26.5258  -20.8089  -12.6572 N   0  0  0  0  0  0  0  0  0  0  0  0
   25.4112  -20.9860  -11.7900 C   0  0  1  0  0  0  0  0  0  0  0  0
   25.6503  -20.6432  -10.3696 C   0  0  0  0  0  0  0  0  0  0  0  0
   26.9600  -20.9642   -9.8030 C   0  0  0  0  0  0  0  0  0  0  0  0
   27.9647  -21.7500  -10.2921 C   0  0  0  0  0  0  0  0  0  0  0  0
   29.0149  -21.7459   -9.4133 N   0  0  0  0  0  0  0  0  0  0  0  0
   28.6595  -20.9597   -8.3850 C   0  0  0  0  0  0  0  0  0  0  0  0
   29.3340  -20.6017   -7.2272 C   0  0  0  0  0  0  0  0  0  0  0  0
   28.7537  -19.7532   -6.2855 C   0  0  0  0  0  0  0  0  0  0  0  0
   27.4990  -19.2541   -6.4867 C   0  0  0  0  0  0  0  0  0  0  0  0
   26.8551  -19.6288   -7.6466 C   0  0  0  0  0  0  0  0  0  0  0  0
   27.4029  -20.4662   -8.5968 C   0  0  0  0  0  0  0  0  0  0  0  0
   24.1851  -20.3017  -12.2928 C   0  0  0  0  0  0  0  0  0  0  0  0
   24.1809  -19.1294  -12.7273 O   0  0  0  0  0  0  0  0  0  0  0  0
   22.9770  -21.0325  -12.2702 N   0  0  0  0  0  0  0  0  0  0  0  0
   21.7504  -20.5355  -12.9016 C   0  0  1  0  0  0  0  0  0  0  0  0
   21.2970  -21.5035  -13.9754 C   0  0  0  0  0  0  0  0  0  0  0  0
   20.8563  -22.7545  -13.3342 C   0  0  0  0  0  0  0  0  0  0  0  0
   20.8603  -22.8983  -12.0691 O   0  0  0  0  0  0  0  0  0  0  0  0
   20.6989  -20.4717  -11.8623 C   0  0  0  0  0  0  0  0  0  0  0  0
   20.8341  -20.8970  -10.5649 O   0  0  0  0  0  0  0  0  0  0  0  0
   20.4007  -23.8789  -14.0483 O   0  0  0  0  0  0  0  0  0  0  0  0
   19.5433  -19.9875  -12.1470 O   0  0  0  0  0  0  0  0  0  0  0  0
  2  3  1  0
  2  1  1  0
  3  4  2  0
  5  6  1  0
  5  3  1  0
  6 17  1  0
  7  8  1  0
  6  7  1  1
  8 16  1  0
  9 10  1  0
  9  8  2  0
 10 11  1  0
 11 16  2  0
 11 12  1  0
 12 13  2  0
 13 14  1  0
 15 14  2  0
 16 15  1  0
 17 18  2  0
 17 19  1  0
 19 20  1  0
 20 24  1  0
 20 21  1  6
 22 21  1  0
 23 22  2  0
 24 27  2  0
 24 25  1  0
 26 22  1  0
M  END
$$$$
