GWD.pdb
     RDKit          3D

 27 28  0  0  1  0  0  0  0  0999 V2000
   27.5363  -23.0920  -15.8459 N   0  0  0  0  0  0  0  0  0  0  0  0
   27.3892  -21.7704  -15.2588 C   0  0  0  0  0  0  0  0  0  0  0  0
   26.5054  -21.8116  -14.0633 C   0  0  0  0  0  0  0  0  0  0  0  0
   25.7790  -22.8473  -13.9250 O   0  0  0  0  0  0  0  0  0  0  0  0
   26.4132  -20.8026  -13.0843 N   0  0  0  0  0  0  0  0  0  0  0  0
   25.3905  -20.8189  -12.0946 C   0  0  1  0  0  0  0  0  0  0  0  0
   25.7660  -20.2432  -10.7832 C   0  0  0  0  0  0  0  0  0  0  0  0
   27.0539  -20.6352  -10.2112 C   0  0  0  0  0  0  0  0  0  0  0  0
   28.0887  -21.3351  -10.7639 C   0  0  0  0  0  0  0  0  0  0  0  0
   29.0997  -21.4527   -9.8478 N   0  0  0  0  0  0  0  0  0  0  0  0
   28.6902  -20.8270   -8.7331 C   0  0  0  0  0  0  0  0  0  0  0  0
   29.3092  -20.6374   -7.5065 C   0  0  0  0  0  0  0  0  0  0  0  0
   28.6780  -19.9389   -6.4783 C   0  0  0  0  0  0  0  0  0  0  0  0
   27.4270  -19.4235   -6.6608 C   0  0  0  0  0  0  0  0  0  0  0  0
   26.8388  -19.6292   -7.8904 C   0  0  0  0  0  0  0  0  0  0  0  0
   27.4378  -20.3157   -8.9268 C   0  0  0  0  0  0  0  0  0  0  0  0
   24.1165  -20.2169  -12.5833 C   0  0  0  0  0  0  0  0  0  0  0  0
   24.0295  -19.0464  -13.0138 O   0  0  0  0  0  0  0  0  0  0  0  0
   22.9603  -21.0271  -12.5515 N   0  0  0  0  0  0  0  0  0  0  0  0
   21.6584  -20.5510  -13.0295 C   0  0  1  0  0  0  0  0  0  0  0  0
   21.2548  -21.3198  -14.2712 C   0  0  0  0  0  0  0  0  0  0  0  0
   21.4841  -22.7562  -14.0382 C   0  0  0  0  0  0  0  0  0  0  0  0
   21.9848  -23.1884  -12.9501 O   0  0  0  0  0  0  0  0  0  0  0  0
   20.6597  -20.8230  -11.9720 C   0  0  0  0  0  0  0  0  0  0  0  0
   20.9148  -21.4450  -10.7760 O   0  0  0  0  0  0  0  0  0  0  0  0
   21.1763  -23.7581  -14.9780 O   0  0  0  0  0  0  0  0  0  0  0  0
   19.4359  -20.4685  -12.1382 O   0  0  0  0  0  0  0  0  0  0  0  0
  2  3  1  0
  2  1  1  0
  3  4  2  0
  5  6  1  0
  5  3  1  0
  6 17  1  0
  7  8  1  0
  6  7  1  1
  8 16  1  0
  9 10  1  0
  9  8  2  0
 10 11  1  0
 11 16  2  0
 11 12  1  0
 12 13  2  0
 13 14  1  0
 15 14  2  0
 16 15  1  0
 17 18  2  0
 17 19  1  0
 19 20  1  0
 20 24  1  0
 20 21  1  6
 22 21  1  0
 23 22  2  0
 24 27  2  0
 24 25  1  0
 26 22  1  0
M  END
$$$$
