GWD.pdb
     RDKit          3D

 27 28  0  0  1  0  0  0  0  0999 V2000
   28.6364  -21.7152  -14.9015 N   0  0  0  0  0  0  0  0  0  0  0  0
   28.4101  -20.6377  -13.9524 C   0  0  0  0  0  0  0  0  0  0  0  0
   27.4942  -21.0685  -12.8626 C   0  0  0  0  0  0  0  0  0  0  0  0
   26.7194  -22.0447  -13.1197 O   0  0  0  0  0  0  0  0  0  0  0  0
   27.4212  -20.4844  -11.5826 N   0  0  0  0  0  0  0  0  0  0  0  0
   26.3531  -20.7817  -10.6901 C   0  0  1  0  0  0  0  0  0  0  0  0
   26.5710  -20.3798   -9.2818 C   0  0  0  0  0  0  0  0  0  0  0  0
   27.8423  -20.7466   -8.6582 C   0  0  0  0  0  0  0  0  0  0  0  0
   28.8749  -21.5017   -9.1372 C   0  0  0  0  0  0  0  0  0  0  0  0
   29.8679  -21.5647   -8.1963 N   0  0  0  0  0  0  0  0  0  0  0  0
   29.4494  -20.8502   -7.1398 C   0  0  0  0  0  0  0  0  0  0  0  0
   30.0501  -20.5775   -5.9199 C   0  0  0  0  0  0  0  0  0  0  0  0
   29.4127  -19.7937   -4.9592 C   0  0  0  0  0  0  0  0  0  0  0  0
   28.1736  -19.2750   -5.2032 C   0  0  0  0  0  0  0  0  0  0  0  0
   27.6035  -19.5644   -6.4244 C   0  0  0  0  0  0  0  0  0  0  0  0
   28.2091  -20.3364   -7.3947 C   0  0  0  0  0  0  0  0  0  0  0  0
   25.0416  -20.2694  -11.1821 C   0  0  0  0  0  0  0  0  0  0  0  0
   24.8712  -19.1027  -11.5979 O   0  0  0  0  0  0  0  0  0  0  0  0
   23.9488  -21.1636  -11.1712 N   0  0  0  0  0  0  0  0  0  0  0  0
   22.7439  -20.9357  -11.9753 C   0  0  1  0  0  0  0  0  0  0  0  0
   22.4918  -22.1303  -12.8725 C   0  0  0  0  0  0  0  0  0  0  0  0
   21.2735  -21.8839  -13.6633 C   0  0  0  0  0  0  0  0  0  0  0  0
   20.5776  -20.8283  -13.5132 O   0  0  0  0  0  0  0  0  0  0  0  0
   21.5981  -20.8035  -11.0482 C   0  0  0  0  0  0  0  0  0  0  0  0
   21.6453  -20.9959   -9.6905 O   0  0  0  0  0  0  0  0  0  0  0  0
   20.7806  -22.7751  -14.6352 O   0  0  0  0  0  0  0  0  0  0  0  0
   20.4388  -20.4850  -11.5016 O   0  0  0  0  0  0  0  0  0  0  0  0
  2  3  1  0
  2  1  1  0
  3  4  2  0
  5  6  1  0
  5  3  1  0
  6 17  1  0
  7  8  1  0
  6  7  1  1
  8 16  1  0
  9 10  1  0
  9  8  2  0
 10 11  1  0
 11 16  2  0
 11 12  1  0
 12 13  2  0
 13 14  1  0
 15 14  2  0
 16 15  1  0
 17 18  2  0
 17 19  1  0
 19 20  1  0
 20 24  1  0
 20 21  1  6
 22 21  1  0
 23 22  2  0
 24 27  2  0
 24 25  1  0
 26 22  1  0
M  END
$$$$
