GWD.pdb
     RDKit          3D

 27 28  0  0  1  0  0  0  0  0999 V2000
   24.1451  -18.8461  -17.6392 N   0  0  0  0  0  0  0  0  0  0  0  0
   25.2694  -18.5413  -16.7699 C   0  0  0  0  0  0  0  0  0  0  0  0
   25.2755  -19.4251  -15.5737 C   0  0  0  0  0  0  0  0  0  0  0  0
   25.2277  -20.6784  -15.7889 O   0  0  0  0  0  0  0  0  0  0  0  0
   25.3298  -18.9844  -14.2366 N   0  0  0  0  0  0  0  0  0  0  0  0
   25.4817  -19.9004  -13.1579 C   0  0  1  0  0  0  0  0  0  0  0  0
   26.1558  -19.3603  -11.9555 C   0  0  0  0  0  0  0  0  0  0  0  0
   26.4865  -20.2971  -10.8819 C   0  0  0  0  0  0  0  0  0  0  0  0
   26.6205  -21.6563  -10.9067 C   0  0  0  0  0  0  0  0  0  0  0  0
   26.9509  -22.1043   -9.6555 N   0  0  0  0  0  0  0  0  0  0  0  0
   27.0209  -21.0247   -8.8610 C   0  0  0  0  0  0  0  0  0  0  0  0
   27.3166  -20.8951   -7.5121 C   0  0  0  0  0  0  0  0  0  0  0  0
   27.3318  -19.6466   -6.8920 C   0  0  0  0  0  0  0  0  0  0  0  0
   27.0533  -18.5175   -7.6071 C   0  0  0  0  0  0  0  0  0  0  0  0
   26.7631  -18.6797   -8.9449 C   0  0  0  0  0  0  0  0  0  0  0  0
   26.7403  -19.9012   -9.5865 C   0  0  0  0  0  0  0  0  0  0  0  0
   24.1958  -20.5574  -12.7846 C   0  0  0  0  0  0  0  0  0  0  0  0
   24.1149  -21.4884  -11.9540 O   0  0  0  0  0  0  0  0  0  0  0  0
   23.0202  -20.0888  -13.4110 N   0  0  0  0  0  0  0  0  0  0  0  0
   21.6921  -20.6086  -13.0704 C   0  0  1  0  0  0  0  0  0  0  0  0
   20.8725  -19.5243  -12.4009 C   0  0  0  0  0  0  0  0  0  0  0  0
   19.5327  -20.0573  -12.0989 C   0  0  0  0  0  0  0  0  0  0  0  0
   19.3694  -21.0955  -11.3800 O   0  0  0  0  0  0  0  0  0  0  0  0
   21.0162  -20.9875  -14.3311 C   0  0  0  0  0  0  0  0  0  0  0  0
   19.9602  -21.8568  -14.4390 O   0  0  0  0  0  0  0  0  0  0  0  0
   18.3386  -19.4782  -12.5683 O   0  0  0  0  0  0  0  0  0  0  0  0
   21.4136  -20.4902  -15.4473 O   0  0  0  0  0  0  0  0  0  0  0  0
  2  3  1  0
  2  1  1  0
  3  4  2  0
  5  6  1  0
  5  3  1  0
  6 17  1  0
  7  8  1  0
  6  7  1  1
  8 16  1  0
  9 10  1  0
  9  8  2  0
 10 11  1  0
 11 16  2  0
 11 12  1  0
 12 13  2  0
 13 14  1  0
 15 14  2  0
 16 15  1  0
 17 18  2  0
 17 19  1  0
 19 20  1  0
 20 24  1  0
 20 21  1  6
 22 21  1  0
 23 22  2  0
 24 27  2  0
 24 25  1  0
 26 22  1  0
M  END
$$$$
