GWD.pdb
     RDKit          3D

 27 28  0  0  1  0  0  0  0  0999 V2000
   25.9302  -24.7958  -17.0055 N   0  0  0  0  0  0  0  0  0  0  0  0
   25.6108  -26.0938  -16.4346 C   0  0  0  0  0  0  0  0  0  0  0  0
   26.2625  -27.1898  -17.2002 C   0  0  0  0  0  0  0  0  0  0  0  0
   26.6974  -26.8968  -18.3597 O   0  0  0  0  0  0  0  0  0  0  0  0
   26.4327  -28.5118  -16.7436 N   0  0  0  0  0  0  0  0  0  0  0  0
   27.1727  -29.4678  -17.4947 C   0  0  1  0  0  0  0  0  0  0  0  0
   28.4645  -29.8808  -16.9007 C   0  0  0  0  0  0  0  0  0  0  0  0
   29.5705  -28.9246  -16.9442 C   0  0  0  0  0  0  0  0  0  0  0  0
   29.6514  -27.6465  -16.4688 C   0  0  0  0  0  0  0  0  0  0  0  0
   30.8965  -27.1407  -16.7316 N   0  0  0  0  0  0  0  0  0  0  0  0
   31.5822  -28.1040  -17.3670 C   0  0  0  0  0  0  0  0  0  0  0  0
   32.8786  -28.1362  -17.8587 C   0  0  0  0  0  0  0  0  0  0  0  0
   33.3837  -29.2707  -18.4922 C   0  0  0  0  0  0  0  0  0  0  0  0
   32.6047  -30.3818  -18.6420 C   0  0  0  0  0  0  0  0  0  0  0  0
   31.3213  -30.3181  -18.1430 C   0  0  0  0  0  0  0  0  0  0  0  0
   30.7934  -29.2104  -17.5116 C   0  0  0  0  0  0  0  0  0  0  0  0
   26.3570  -30.6638  -17.8535 C   0  0  0  0  0  0  0  0  0  0  0  0
   25.4681  -31.1374  -17.1129 O   0  0  0  0  0  0  0  0  0  0  0  0
   26.6161  -31.2778  -19.0985 N   0  0  0  0  0  0  0  0  0  0  0  0
   25.8514  -32.4352  -19.5737 C   0  0  1  0  0  0  0  0  0  0  0  0
   25.4552  -32.2295  -21.0216 C   0  0  0  0  0  0  0  0  0  0  0  0
   24.6769  -33.3960  -21.4733 C   0  0  0  0  0  0  0  0  0  0  0  0
   25.1643  -34.2602  -22.2713 O   0  0  0  0  0  0  0  0  0  0  0  0
   26.7319  -33.6223  -19.4992 C   0  0  0  0  0  0  0  0  0  0  0  0
   26.3084  -34.9258  -19.4360 O   0  0  0  0  0  0  0  0  0  0  0  0
   23.3528  -33.6537  -21.0709 O   0  0  0  0  0  0  0  0  0  0  0  0
   28.0083  -33.4752  -19.4883 O   0  0  0  0  0  0  0  0  0  0  0  0
  2  3  1  0
  2  1  1  0
  3  4  2  0
  5  6  1  0
  5  3  1  0
  6 17  1  0
  7  8  1  0
  6  7  1  1
  8 16  1  0
  9 10  1  0
  9  8  2  0
 10 11  1  0
 11 16  2  0
 11 12  1  0
 12 13  2  0
 13 14  1  0
 15 14  2  0
 16 15  1  0
 17 18  2  0
 17 19  1  0
 19 20  1  0
 20 24  1  0
 20 21  1  6
 22 21  1  0
 23 22  2  0
 24 27  2  0
 24 25  1  0
 26 22  1  0
M  END
$$$$
