GWD.pdb
     RDKit          3D

 27 28  0  0  1  0  0  0  0  0999 V2000
   27.0879  -24.7660  -16.5407 N   0  0  0  0  0  0  0  0  0  0  0  0
   26.8400  -23.3341  -16.5758 C   0  0  0  0  0  0  0  0  0  0  0  0
   26.0409  -22.9006  -15.3987 C   0  0  0  0  0  0  0  0  0  0  0  0
   26.5457  -23.1233  -14.2520 O   0  0  0  0  0  0  0  0  0  0  0  0
   24.7827  -22.2693  -15.4572 N   0  0  0  0  0  0  0  0  0  0  0  0
   24.2426  -21.5834  -14.3332 C   0  0  1  0  0  0  0  0  0  0  0  0
   25.1088  -20.5315  -13.7541 C   0  0  0  0  0  0  0  0  0  0  0  0
   25.4792  -19.4061  -14.6119 C   0  0  0  0  0  0  0  0  0  0  0  0
   24.7257  -18.3663  -15.0781 C   0  0  0  0  0  0  0  0  0  0  0  0
   25.5085  -17.5442  -15.8440 N   0  0  0  0  0  0  0  0  0  0  0  0
   26.7414  -18.0748  -15.8502 C   0  0  0  0  0  0  0  0  0  0  0  0
   27.9165  -17.6597  -16.4588 C   0  0  0  0  0  0  0  0  0  0  0  0
   29.0985  -18.3856  -16.3194 C   0  0  0  0  0  0  0  0  0  0  0  0
   29.1221  -19.5294  -15.5744 C   0  0  0  0  0  0  0  0  0  0  0  0
   27.9383  -19.9154  -14.9829 C   0  0  0  0  0  0  0  0  0  0  0  0
   26.7533  -19.2184  -15.1024 C   0  0  0  0  0  0  0  0  0  0  0  0
   22.8759  -21.0476  -14.5968 C   0  0  0  0  0  0  0  0  0  0  0  0
   22.5320  -20.5485  -15.6903 O   0  0  0  0  0  0  0  0  0  0  0  0
   21.9359  -21.1179  -13.5454 N   0  0  0  0  0  0  0  0  0  0  0  0
   20.5333  -20.7291  -13.7231 C   0  0  1  0  0  0  0  0  0  0  0  0
   19.6381  -21.6596  -12.9303 C   0  0  0  0  0  0  0  0  0  0  0  0
   19.2012  -22.7613  -13.8053 C   0  0  0  0  0  0  0  0  0  0  0  0
   19.5169  -22.8052  -15.0381 O   0  0  0  0  0  0  0  0  0  0  0  0
   20.3702  -19.3603  -13.1850 C   0  0  0  0  0  0  0  0  0  0  0  0
   19.5030  -18.4127  -13.6670 O   0  0  0  0  0  0  0  0  0  0  0  0
   18.4125  -23.8412  -13.3655 O   0  0  0  0  0  0  0  0  0  0  0  0
   21.0773  -18.9758  -12.1834 O   0  0  0  0  0  0  0  0  0  0  0  0
  2  3  1  0
  2  1  1  0
  3  4  2  0
  5  6  1  0
  5  3  1  0
  6 17  1  0
  7  8  1  0
  6  7  1  6
  8 16  1  0
  9 10  1  0
  9  8  2  0
 10 11  1  0
 11 16  2  0
 11 12  1  0
 12 13  2  0
 13 14  1  0
 15 14  2  0
 16 15  1  0
 17 18  2  0
 17 19  1  0
 19 20  1  0
 20 24  1  0
 20 21  1  1
 22 21  1  0
 23 22  2  0
 24 27  2  0
 24 25  1  0
 26 22  1  0
M  END
$$$$
