GWD.pdb
     RDKit          3D

 27 28  0  0  1  0  0  0  0  0999 V2000
   18.9936   -9.7452  -18.5910 N   0  0  0  0  0  0  0  0  0  0  0  0
   20.3947   -9.4052  -18.7758 C   0  0  0  0  0  0  0  0  0  0  0  0
   20.8135   -8.3326  -17.8344 C   0  0  0  0  0  0  0  0  0  0  0  0
   20.1514   -8.2314  -16.7523 O   0  0  0  0  0  0  0  0  0  0  0  0
   21.8751   -7.4313  -18.0480 N   0  0  0  0  0  0  0  0  0  0  0  0
   22.1998   -6.4262  -17.0940 C   0  0  1  0  0  0  0  0  0  0  0  0
   23.5229   -6.5694  -16.4451 C   0  0  0  0  0  0  0  0  0  0  0  0
   23.7891   -7.8039  -15.7071 C   0  0  0  0  0  0  0  0  0  0  0  0
   24.5743   -8.8739  -16.0307 C   0  0  0  0  0  0  0  0  0  0  0  0
   24.5241   -9.7976  -15.0211 N   0  0  0  0  0  0  0  0  0  0  0  0
   23.7106   -9.2991  -14.0770 C   0  0  0  0  0  0  0  0  0  0  0  0
   23.3072   -9.8071  -12.8511 C   0  0  0  0  0  0  0  0  0  0  0  0
   22.4414   -9.0945  -12.0227 C   0  0  0  0  0  0  0  0  0  0  0  0
   21.9696   -7.8721  -12.4059 C   0  0  0  0  0  0  0  0  0  0  0  0
   22.3888   -7.3952  -13.6296 C   0  0  0  0  0  0  0  0  0  0  0  0
   23.2444   -8.0765  -14.4709 C   0  0  0  0  0  0  0  0  0  0  0  0
   22.0328   -5.0485  -17.6403 C   0  0  0  0  0  0  0  0  0  0  0  0
   22.4480   -4.7004  -18.7669 O   0  0  0  0  0  0  0  0  0  0  0  0
   21.3675   -4.1035  -16.8288 N   0  0  0  0  0  0  0  0  0  0  0  0
   21.0076   -2.7687  -17.3176 C   0  0  1  0  0  0  0  0  0  0  0  0
   20.0349   -2.8899  -18.4729 C   0  0  0  0  0  0  0  0  0  0  0  0
   19.7278   -1.5416  -18.9811 C   0  0  0  0  0  0  0  0  0  0  0  0
   20.2781   -0.5003  -18.4973 O   0  0  0  0  0  0  0  0  0  0  0  0
   20.3300   -2.0496  -16.2159 C   0  0  0  0  0  0  0  0  0  0  0  0
   20.5289   -0.7338  -15.8821 O   0  0  0  0  0  0  0  0  0  0  0  0
   18.8178   -1.2899  -20.0252 O   0  0  0  0  0  0  0  0  0  0  0  0
   19.4755   -2.6635  -15.4784 O   0  0  0  0  0  0  0  0  0  0  0  0
  2  3  1  0
  2  1  1  0
  3  4  2  0
  5  6  1  0
  5  3  1  0
  6 17  1  0
  7  8  1  0
  6  7  1  6
  8 16  1  0
  9 10  1  0
  9  8  2  0
 10 11  1  0
 11 16  2  0
 11 12  1  0
 12 13  2  0
 13 14  1  0
 15 14  2  0
 16 15  1  0
 17 18  2  0
 17 19  1  0
 19 20  1  0
 20 24  1  0
 20 21  1  6
 22 21  1  0
 23 22  2  0
 24 27  2  0
 24 25  1  0
 26 22  1  0
M  END
$$$$
