GWD.pdb
     RDKit          3D

 27 28  0  0  1  0  0  0  0  0999 V2000
   28.4936  -21.7397  -15.6078 N   0  0  0  0  0  0  0  0  0  0  0  0
   27.9061  -20.6569  -14.8362 C   0  0  0  0  0  0  0  0  0  0  0  0
   26.9908  -21.1823  -13.7882 C   0  0  0  0  0  0  0  0  0  0  0  0
   26.4280  -22.2982  -14.0281 O   0  0  0  0  0  0  0  0  0  0  0  0
   26.7038  -20.5453  -12.5648 N   0  0  0  0  0  0  0  0  0  0  0  0
   25.6930  -21.0357  -11.6910 C   0  0  1  0  0  0  0  0  0  0  0  0
   25.8920  -20.7328  -10.2554 C   0  0  0  0  0  0  0  0  0  0  0  0
   27.2034  -21.0200   -9.6745 C   0  0  0  0  0  0  0  0  0  0  0  0
   28.2791  -21.6747  -10.2041 C   0  0  0  0  0  0  0  0  0  0  0  0
   29.2975  -21.6919   -9.2889 N   0  0  0  0  0  0  0  0  0  0  0  0
   28.8518  -21.0495   -8.1978 C   0  0  0  0  0  0  0  0  0  0  0  0
   29.4604  -20.7729   -6.9826 C   0  0  0  0  0  0  0  0  0  0  0  0
   28.7886  -20.0752   -5.9798 C   0  0  0  0  0  0  0  0  0  0  0  0
   27.5072  -19.6473   -6.1765 C   0  0  0  0  0  0  0  0  0  0  0  0
   26.9304  -19.9382   -7.3943 C   0  0  0  0  0  0  0  0  0  0  0  0
   27.5692  -20.6263   -8.4056 C   0  0  0  0  0  0  0  0  0  0  0  0
   24.3234  -20.6345  -12.1241 C   0  0  0  0  0  0  0  0  0  0  0  0
   24.0041  -19.4556  -12.3908 O   0  0  0  0  0  0  0  0  0  0  0  0
   23.3516  -21.6532  -12.2339 N   0  0  0  0  0  0  0  0  0  0  0  0
   22.0468  -21.4248  -12.8627 C   0  0  1  0  0  0  0  0  0  0  0  0
   21.6577  -22.6321  -13.6914 C   0  0  0  0  0  0  0  0  0  0  0  0
   20.3337  -22.3920  -14.2911 C   0  0  0  0  0  0  0  0  0  0  0  0
   20.0469  -21.2936  -14.8677 O   0  0  0  0  0  0  0  0  0  0  0  0
   21.0461  -21.2614  -11.7849 C   0  0  0  0  0  0  0  0  0  0  0  0
   21.2904  -21.4044  -10.4424 O   0  0  0  0  0  0  0  0  0  0  0  0
   19.2896  -23.3362  -14.2805 O   0  0  0  0  0  0  0  0  0  0  0  0
   19.8312  -20.9619  -12.0768 O   0  0  0  0  0  0  0  0  0  0  0  0
  2  3  1  0
  2  1  1  0
  3  4  2  0
  5  6  1  0
  5  3  1  0
  6 17  1  0
  7  8  1  0
  6  7  1  1
  8 16  1  0
  9 10  1  0
  9  8  2  0
 10 11  1  0
 11 16  2  0
 11 12  1  0
 12 13  2  0
 13 14  1  0
 15 14  2  0
 16 15  1  0
 17 18  2  0
 17 19  1  0
 19 20  1  0
 20 24  1  0
 20 21  1  6
 22 21  1  0
 23 22  2  0
 24 27  2  0
 24 25  1  0
 26 22  1  0
M  END
$$$$
