GWD.pdb
     RDKit          3D

 27 28  0  0  1  0  0  0  0  0999 V2000
   29.7590  -32.4131  -16.7037 N   0  0  0  0  0  0  0  0  0  0  0  0
   28.7981  -31.8976  -17.6649 C   0  0  0  0  0  0  0  0  0  0  0  0
   27.6963  -31.1690  -16.9813 C   0  0  0  0  0  0  0  0  0  0  0  0
   27.8137  -31.0036  -15.7250 O   0  0  0  0  0  0  0  0  0  0  0  0
   26.5466  -30.6544  -17.6125 N   0  0  0  0  0  0  0  0  0  0  0  0
   25.5785  -29.8997  -16.8922 C   0  0  1  0  0  0  0  0  0  0  0  0
   25.5741  -28.4447  -17.1667 C   0  0  0  0  0  0  0  0  0  0  0  0
   25.5878  -28.0158  -18.5650 C   0  0  0  0  0  0  0  0  0  0  0  0
   26.3845  -28.4114  -19.6018 C   0  0  0  0  0  0  0  0  0  0  0  0
   26.0215  -27.7382  -20.7377 N   0  0  0  0  0  0  0  0  0  0  0  0
   25.0035  -26.9298  -20.4030 C   0  0  0  0  0  0  0  0  0  0  0  0
   24.2570  -26.0344  -21.1543 C   0  0  0  0  0  0  0  0  0  0  0  0
   23.2267  -25.2914  -20.5798 C   0  0  0  0  0  0  0  0  0  0  0  0
   22.9304  -25.4322  -19.2546 C   0  0  0  0  0  0  0  0  0  0  0  0
   23.6906  -26.3294  -18.5353 C   0  0  0  0  0  0  0  0  0  0  0  0
   24.7159  -27.0787  -19.0755 C   0  0  0  0  0  0  0  0  0  0  0  0
   24.2034  -30.4607  -17.0288 C   0  0  0  0  0  0  0  0  0  0  0  0
   23.8412  -31.1659  -17.9956 O   0  0  0  0  0  0  0  0  0  0  0  0
   23.2777  -30.1706  -16.0026 N   0  0  0  0  0  0  0  0  0  0  0  0
   21.9030  -30.6803  -16.0224 C   0  0  1  0  0  0  0  0  0  0  0  0
   21.3664  -30.7652  -14.6080 C   0  0  0  0  0  0  0  0  0  0  0  0
   20.0570  -31.4398  -14.6346 C   0  0  0  0  0  0  0  0  0  0  0  0
   19.5702  -31.9190  -15.7092 O   0  0  0  0  0  0  0  0  0  0  0  0
   21.0720  -29.7147  -16.7753 C   0  0  0  0  0  0  0  0  0  0  0  0
   21.0348  -28.3597  -16.5627 O   0  0  0  0  0  0  0  0  0  0  0  0
   19.2445  -31.6114  -13.4979 O   0  0  0  0  0  0  0  0  0  0  0  0
   20.3014  -30.1280  -17.7167 O   0  0  0  0  0  0  0  0  0  0  0  0
  2  3  1  0
  2  1  1  0
  3  4  2  0
  5  6  1  0
  5  3  1  0
  6 17  1  0
  7  8  1  0
  6  7  1  6
  8 16  1  0
  9 10  1  0
  9  8  2  0
 10 11  1  0
 11 16  2  0
 11 12  1  0
 12 13  2  0
 13 14  1  0
 15 14  2  0
 16 15  1  0
 17 18  2  0
 17 19  1  0
 19 20  1  0
 20 24  1  0
 20 21  1  1
 22 21  1  0
 23 22  2  0
 24 27  2  0
 24 25  1  0
 26 22  1  0
M  END
$$$$
