VVK.pdb
     RDKit          3D

 24 23  0  0  1  0  0  0  0  0999 V2000
   25.7700  -16.3562  -14.4787 C   0  0  0  0  0  0  0  0  0  0  0  0
   26.6733  -16.9378  -15.5333 C   0  0  1  0  0  0  0  0  0  0  0  0
   27.6687  -15.9760  -16.0933 C   0  0  0  0  0  0  0  0  0  0  0  0
   27.2483  -18.2685  -15.2116 C   0  0  2  0  0  0  0  0  0  0  0  0
   27.9504  -18.8609  -16.3533 N   0  0  0  0  0  0  0  0  0  0  0  0
   26.3543  -19.2762  -14.6538 C   0  0  0  0  0  0  0  0  0  0  0  0
   25.6337  -20.0058  -15.4425 O   0  0  0  0  0  0  0  0  0  0  0  0
   27.0982  -21.8431  -11.7786 C   0  0  0  0  0  0  0  0  0  0  0  0
   25.7144  -21.3106  -11.5693 C   0  0  1  0  0  0  0  0  0  0  0  0
   25.5657  -20.4642  -10.3547 C   0  0  0  0  0  0  0  0  0  0  0  0
   25.2618  -20.6358  -12.8383 C   0  0  2  0  0  0  0  0  0  0  0  0
   26.1455  -19.5947  -13.2865 N   0  0  0  0  0  0  0  0  0  0  0  0
   23.8328  -20.1997  -12.7441 C   0  0  0  0  0  0  0  0  0  0  0  0
   23.6278  -19.1169  -12.1565 O   0  0  0  0  0  0  0  0  0  0  0  0
   22.7983  -20.9491  -13.2755 N   0  0  0  0  0  0  0  0  0  0  0  0
   21.4172  -20.5300  -13.3021 C   0  0  1  0  0  0  0  0  0  0  0  0
   20.9250  -20.2416  -14.6796 C   0  0  0  0  0  0  0  0  0  0  0  0
   19.4817  -19.8130  -14.7514 C   0  0  0  0  0  0  0  0  0  0  0  0
   19.0565  -19.5842  -16.1597 C   0  0  0  0  0  0  0  0  0  0  0  0
   17.6133  -19.1399  -16.2773 C   0  0  0  0  0  0  0  0  0  0  0  0
   17.1851  -19.0293  -17.6513 N   0  0  0  0  0  0  0  0  0  0  0  0
   20.5888  -21.5883  -12.6591 C   0  0  0  0  0  0  0  0  0  0  0  0
   19.3890  -21.3580  -12.0145 O   0  0  0  0  0  0  0  0  0  0  0  0
   21.0075  -22.7777  -12.7060 O   0  0  0  0  0  0  0  0  0  0  0  0
  2  1  1  1
  2  3  1  0
  4  6  1  0
  4  2  1  0
  4  5  1  6
  6  7  2  0
  9  8  1  6
  9 11  1  0
 10  9  1  0
 11 12  1  1
 12  6  1  0
 13 14  2  0
 13 11  1  0
 15 13  1  0
 16 15  1  0
 16 17  1  6
 17 18  1  0
 19 20  1  0
 19 18  1  0
 21 20  1  0
 22 16  1  0
 23 22  1  0
 24 22  2  0
M  END
$$$$
