VVK.pdb
     RDKit          3D

 24 23  0  0  1  0  0  0  0  0999 V2000
   28.1612  -13.7430  -18.3790 C   0  0  0  0  0  0  0  0  0  0  0  0
   26.8530  -13.9871  -17.6750 C   0  0  1  0  0  0  0  0  0  0  0  0
   25.8050  -12.9583  -17.9441 C   0  0  0  0  0  0  0  0  0  0  0  0
   26.3480  -15.3818  -17.7418 C   0  0  2  0  0  0  0  0  0  0  0  0
   26.0895  -15.8136  -19.1180 N   0  0  0  0  0  0  0  0  0  0  0  0
   25.1840  -15.7207  -16.9317 C   0  0  0  0  0  0  0  0  0  0  0  0
   25.2671  -15.6931  -15.6410 O   0  0  0  0  0  0  0  0  0  0  0  0
   21.6219  -14.3565  -16.8412 C   0  0  0  0  0  0  0  0  0  0  0  0
   21.4911  -15.8477  -16.8760 C   0  0  1  0  0  0  0  0  0  0  0  0
   20.9318  -16.3797  -18.1480 C   0  0  0  0  0  0  0  0  0  0  0  0
   22.8161  -16.4556  -16.4946 C   0  0  2  0  0  0  0  0  0  0  0  0
   23.8916  -16.0998  -17.3792 N   0  0  0  0  0  0  0  0  0  0  0  0
   22.6954  -17.9311  -16.2728 C   0  0  0  0  0  0  0  0  0  0  0  0
   22.9715  -18.6569  -17.2509 O   0  0  0  0  0  0  0  0  0  0  0  0
   22.3017  -18.4626  -15.0575 N   0  0  0  0  0  0  0  0  0  0  0  0
   22.1710  -19.8748  -14.7886 C   0  0  1  0  0  0  0  0  0  0  0  0
   22.7578  -20.2723  -13.4769 C   0  0  0  0  0  0  0  0  0  0  0  0
   22.5973  -21.7318  -13.1362 C   0  0  0  0  0  0  0  0  0  0  0  0
   23.7183  -22.5410  -13.6887 C   0  0  0  0  0  0  0  0  0  0  0  0
   23.5890  -24.0185  -13.3816 C   0  0  0  0  0  0  0  0  0  0  0  0
   24.6876  -24.7867  -13.9166 N   0  0  0  0  0  0  0  0  0  0  0  0
   20.7270  -20.2366  -14.8493 C   0  0  0  0  0  0  0  0  0  0  0  0
   20.2465  -21.4738  -15.2322 O   0  0  0  0  0  0  0  0  0  0  0  0
   19.8822  -19.3561  -14.5281 O   0  0  0  0  0  0  0  0  0  0  0  0
  2  1  1  6
  2  3  1  0
  4  6  1  0
  4  2  1  0
  4  5  1  6
  6  7  2  0
  9  8  1  6
  9 11  1  0
 10  9  1  0
 11 12  1  6
 12  6  1  0
 13 14  2  0
 13 11  1  0
 15 13  1  0
 16 15  1  0
 16 17  1  1
 17 18  1  0
 19 20  1  0
 19 18  1  0
 21 20  1  0
 22 16  1  0
 23 22  1  0
 24 22  2  0
M  END
$$$$
