VVK.pdb
     RDKit          3D

 24 23  0  0  1  0  0  0  0  0999 V2000
   28.4485  -18.3525  -17.1834 C   0  0  0  0  0  0  0  0  0  0  0  0
   27.4212  -19.2114  -16.4952 C   0  0  1  0  0  0  0  0  0  0  0  0
   26.3649  -19.7557  -17.3994 C   0  0  0  0  0  0  0  0  0  0  0  0
   27.9668  -20.2149  -15.5467 C   0  0  2  0  0  0  0  0  0  0  0  0
   28.7661  -21.2406  -16.2221 N   0  0  0  0  0  0  0  0  0  0  0  0
   27.0282  -20.8838  -14.6535 C   0  0  0  0  0  0  0  0  0  0  0  0
   26.5254  -22.0282  -14.9869 O   0  0  0  0  0  0  0  0  0  0  0  0
   25.6628  -19.4773  -10.8326 C   0  0  0  0  0  0  0  0  0  0  0  0
   25.6991  -20.9430  -11.1367 C   0  0  1  0  0  0  0  0  0  0  0  0
   24.7413  -21.7539  -10.3375 C   0  0  0  0  0  0  0  0  0  0  0  0
   25.5571  -21.1289  -12.6252 C   0  0  2  0  0  0  0  0  0  0  0  0
   26.5556  -20.4358  -13.3924 N   0  0  0  0  0  0  0  0  0  0  0  0
   24.1591  -20.8451  -13.0791 C   0  0  0  0  0  0  0  0  0  0  0  0
   23.8860  -19.6459  -13.2962 O   0  0  0  0  0  0  0  0  0  0  0  0
   23.2227  -21.8494  -13.2494 N   0  0  0  0  0  0  0  0  0  0  0  0
   21.8635  -21.6325  -13.6844 C   0  0  1  0  0  0  0  0  0  0  0  0
   21.1362  -22.9022  -13.9700 C   0  0  0  0  0  0  0  0  0  0  0  0
   19.7182  -22.7175  -14.4466 C   0  0  0  0  0  0  0  0  0  0  0  0
   19.0146  -24.0242  -14.5653 C   0  0  0  0  0  0  0  0  0  0  0  0
   17.6538  -23.9062  -15.2197 C   0  0  0  0  0  0  0  0  0  0  0  0
   16.9743  -25.1770  -15.3022 N   0  0  0  0  0  0  0  0  0  0  0  0
   21.1524  -20.8432  -12.6398 C   0  0  0  0  0  0  0  0  0  0  0  0
   21.3169  -21.0194  -11.2797 O   0  0  0  0  0  0  0  0  0  0  0  0
   20.3451  -19.9508  -13.0195 O   0  0  0  0  0  0  0  0  0  0  0  0
  2  1  1  6
  2  3  1  0
  4  6  1  0
  4  2  1  0
  4  5  1  6
  6  7  2  0
  9  8  1  6
  9 11  1  0
 10  9  1  0
 11 12  1  6
 12  6  1  0
 13 14  2  0
 13 11  1  0
 15 13  1  0
 16 15  1  0
 16 17  1  1
 17 18  1  0
 19 20  1  0
 19 18  1  0
 21 20  1  0
 22 16  1  0
 23 22  1  0
 24 22  2  0
M  END
$$$$
