VVK.pdb
     RDKit          3D

 24 23  0  0  1  0  0  0  0  0999 V2000
   17.6273  -15.0785  -18.7176 C   0  0  0  0  0  0  0  0  0  0  0  0
   18.2271  -14.2689  -17.5989 C   0  0  1  0  0  0  0  0  0  0  0  0
   18.9847  -15.0710  -16.5929 C   0  0  0  0  0  0  0  0  0  0  0  0
   18.9265  -13.0283  -18.0188 C   0  0  2  0  0  0  0  0  0  0  0  0
   20.0271  -13.2985  -18.9477 N   0  0  0  0  0  0  0  0  0  0  0  0
   19.4210  -12.1417  -16.9722 C   0  0  0  0  0  0  0  0  0  0  0  0
   18.6041  -11.6743  -16.0846 O   0  0  0  0  0  0  0  0  0  0  0  0
   23.4847  -10.9793  -16.3250 C   0  0  0  0  0  0  0  0  0  0  0  0
   22.5071  -10.9834  -15.1907 C   0  0  1  0  0  0  0  0  0  0  0  0
   22.8656  -10.0661  -14.0755 C   0  0  0  0  0  0  0  0  0  0  0  0
   21.1254  -10.7527  -15.7460 C   0  0  2  0  0  0  0  0  0  0  0  0
   20.7506  -11.6877  -16.7712 N   0  0  0  0  0  0  0  0  0  0  0  0
   20.9310   -9.3238  -16.1479 C   0  0  0  0  0  0  0  0  0  0  0  0
   21.4120   -8.9949  -17.2526 O   0  0  0  0  0  0  0  0  0  0  0  0
   20.2587   -8.4188  -15.3459 N   0  0  0  0  0  0  0  0  0  0  0  0
   20.1076   -7.0155  -15.6485 C   0  0  1  0  0  0  0  0  0  0  0  0
   18.6965   -6.6340  -15.9417 C   0  0  0  0  0  0  0  0  0  0  0  0
   18.4727   -5.1542  -16.1207 C   0  0  0  0  0  0  0  0  0  0  0  0
   17.0341   -4.8509  -16.3558 C   0  0  0  0  0  0  0  0  0  0  0  0
   16.7638   -3.3723  -16.5418 C   0  0  0  0  0  0  0  0  0  0  0  0
   15.3520   -3.0732  -16.5674 N   0  0  0  0  0  0  0  0  0  0  0  0
   20.6385   -6.2244  -14.5030 C   0  0  0  0  0  0  0  0  0  0  0  0
   20.8337   -6.7254  -13.2306 O   0  0  0  0  0  0  0  0  0  0  0  0
   20.9327   -5.0141  -14.7055 O   0  0  0  0  0  0  0  0  0  0  0  0
  2  1  1  6
  2  3  1  0
  4  6  1  0
  4  2  1  0
  4  5  1  1
  6  7  2  0
  9  8  1  6
  9 11  1  0
 10  9  1  0
 11 12  1  6
 12  6  1  0
 13 14  2  0
 13 11  1  0
 15 13  1  0
 16 15  1  0
 16 17  1  1
 17 18  1  0
 19 20  1  0
 19 18  1  0
 21 20  1  0
 22 16  1  0
 23 22  1  0
 24 22  2  0
M  END
$$$$
