VVK.pdb
     RDKit          3D

 24 23  0  0  1  0  0  0  0  0999 V2000
   21.1780  -17.9104  -15.8172 C   0  0  0  0  0  0  0  0  0  0  0  0
   21.1033  -18.8740  -14.6628 C   0  0  1  0  0  0  0  0  0  0  0  0
   19.9339  -19.8014  -14.7067 C   0  0  0  0  0  0  0  0  0  0  0  0
   22.3811  -19.5447  -14.3133 C   0  0  2  0  0  0  0  0  0  0  0  0
   22.9348  -20.3050  -15.4370 N   0  0  0  0  0  0  0  0  0  0  0  0
   22.3967  -20.4001  -13.1327 C   0  0  0  0  0  0  0  0  0  0  0  0
   22.1920  -21.6716  -13.2555 O   0  0  0  0  0  0  0  0  0  0  0  0
   24.9395  -20.9304  -10.3291 C   0  0  0  0  0  0  0  0  0  0  0  0
   23.6163  -20.7513   -9.6515 C   0  0  1  0  0  0  0  0  0  0  0  0
   23.5015  -19.4941   -8.8641 C   0  0  0  0  0  0  0  0  0  0  0  0
   22.5243  -20.9285  -10.6745 C   0  0  2  0  0  0  0  0  0  0  0  0
   22.6177  -20.0190  -11.7835 N   0  0  0  0  0  0  0  0  0  0  0  0
   21.1722  -20.9419  -10.0320 C   0  0  0  0  0  0  0  0  0  0  0  0
   20.4257  -19.9789  -10.3058 O   0  0  0  0  0  0  0  0  0  0  0  0
   20.7703  -21.9593   -9.1848 N   0  0  0  0  0  0  0  0  0  0  0  0
   19.4153  -22.4455   -9.0790 C   0  0  1  0  0  0  0  0  0  0  0  0
   18.9655  -23.1791  -10.2965 C   0  0  0  0  0  0  0  0  0  0  0  0
   17.5594  -23.7167  -10.2193 C   0  0  0  0  0  0  0  0  0  0  0  0
   17.1676  -24.3863  -11.4900 C   0  0  0  0  0  0  0  0  0  0  0  0
   15.7821  -24.9957  -11.4349 C   0  0  0  0  0  0  0  0  0  0  0  0
   15.3868  -25.5711  -12.6983 N   0  0  0  0  0  0  0  0  0  0  0  0
   19.3176  -23.3168   -7.8745 C   0  0  0  0  0  0  0  0  0  0  0  0
   18.1405  -23.6054   -7.2117 O   0  0  0  0  0  0  0  0  0  0  0  0
   20.3803  -23.8295   -7.4271 O   0  0  0  0  0  0  0  0  0  0  0  0
  2  1  1  6
  2  3  1  0
  4  6  1  0
  4  2  1  0
  4  5  1  6
  6  7  2  0
  9  8  1  6
  9 11  1  0
 10  9  1  0
 11 12  1  6
 12  6  1  0
 13 14  2  0
 13 11  1  0
 15 13  1  0
 16 15  1  0
 16 17  1  6
 17 18  1  0
 19 20  1  0
 19 18  1  0
 21 20  1  0
 22 16  1  0
 23 22  1  0
 24 22  2  0
M  END
$$$$
