VVK.pdb
     RDKit          3D

 24 23  0  0  1  0  0  0  0  0999 V2000
   16.7078   -8.9739  -16.3967 C   0  0  0  0  0  0  0  0  0  0  0  0
   16.2942   -9.7318  -15.1634 C   0  0  1  0  0  0  0  0  0  0  0  0
   15.6261  -11.0389  -15.4364 C   0  0  0  0  0  0  0  0  0  0  0  0
   17.3164   -9.7997  -14.0886 C   0  0  2  0  0  0  0  0  0  0  0  0
   16.7785  -10.3577  -12.8450 N   0  0  0  0  0  0  0  0  0  0  0  0
   18.0401   -8.5764  -13.7634 C   0  0  0  0  0  0  0  0  0  0  0  0
   17.5083   -7.7049  -12.9689 O   0  0  0  0  0  0  0  0  0  0  0  0
   21.9914   -7.7570  -14.8607 C   0  0  0  0  0  0  0  0  0  0  0  0
   21.4058   -6.9425  -13.7490 C   0  0  1  0  0  0  0  0  0  0  0  0
   22.0301   -5.6022  -13.5830 C   0  0  0  0  0  0  0  0  0  0  0  0
   19.9096   -6.8977  -13.9222 C   0  0  2  0  0  0  0  0  0  0  0  0
   19.3234   -8.1760  -14.2188 N   0  0  0  0  0  0  0  0  0  0  0  0
   19.5039   -5.8231  -14.8823 C   0  0  0  0  0  0  0  0  0  0  0  0
   19.5249   -6.1325  -16.0921 O   0  0  0  0  0  0  0  0  0  0  0  0
   19.1271   -4.5613  -14.4579 N   0  0  0  0  0  0  0  0  0  0  0  0
   18.6975   -3.4995  -15.3364 C   0  0  1  0  0  0  0  0  0  0  0  0
   17.2372   -3.2169  -15.2339 C   0  0  0  0  0  0  0  0  0  0  0  0
   16.7521   -2.1002  -16.1225 C   0  0  0  0  0  0  0  0  0  0  0  0
   15.2795   -1.9168  -16.0028 C   0  0  0  0  0  0  0  0  0  0  0  0
   14.7381   -0.8527  -16.9348 C   0  0  0  0  0  0  0  0  0  0  0  0
   13.2953   -0.8425  -16.9742 N   0  0  0  0  0  0  0  0  0  0  0  0
   19.4921   -2.2779  -15.0263 C   0  0  0  0  0  0  0  0  0  0  0  0
   19.8222   -1.3048  -15.9495 O   0  0  0  0  0  0  0  0  0  0  0  0
   19.8910   -2.1166  -13.8401 O   0  0  0  0  0  0  0  0  0  0  0  0
  2  1  1  6
  2  3  1  0
  4  6  1  0
  4  2  1  0
  4  5  1  1
  6  7  2  0
  9  8  1  6
  9 11  1  0
 10  9  1  0
 11 12  1  6
 12  6  1  0
 13 14  2  0
 13 11  1  0
 15 13  1  0
 16 15  1  0
 16 17  1  1
 17 18  1  0
 19 20  1  0
 19 18  1  0
 21 20  1  0
 22 16  1  0
 23 22  1  0
 24 22  2  0
M  END
$$$$
