VVK.pdb
     RDKit          3D

 24 23  0  0  1  0  0  0  0  0999 V2000
   17.8228  -11.9577  -18.4467 C   0  0  0  0  0  0  0  0  0  0  0  0
   18.0503  -13.2858  -17.7752 C   0  0  1  0  0  0  0  0  0  0  0  0
   17.5977  -14.4659  -18.5702 C   0  0  0  0  0  0  0  0  0  0  0  0
   19.3891  -13.4628  -17.1581 C   0  0  2  0  0  0  0  0  0  0  0  0
   19.4970  -14.7223  -16.4169 N   0  0  0  0  0  0  0  0  0  0  0  0
   19.8909  -12.3896  -16.3081 C   0  0  0  0  0  0  0  0  0  0  0  0
   19.4135  -12.2353  -15.1157 O   0  0  0  0  0  0  0  0  0  0  0  0
   23.0404  -11.6417  -14.6355 C   0  0  0  0  0  0  0  0  0  0  0  0
   22.7339  -10.3718  -15.3673 C   0  0  1  0  0  0  0  0  0  0  0  0
   23.6356  -10.1010  -16.5194 C   0  0  0  0  0  0  0  0  0  0  0  0
   21.2707  -10.3655  -15.7274 C   0  0  2  0  0  0  0  0  0  0  0  0
   20.8893  -11.4289  -16.6159 N   0  0  0  0  0  0  0  0  0  0  0  0
   20.8309   -9.0142  -16.1981 C   0  0  0  0  0  0  0  0  0  0  0  0
   20.8676   -8.8249  -17.4320 O   0  0  0  0  0  0  0  0  0  0  0  0
   20.4081   -8.0312  -15.3210 N   0  0  0  0  0  0  0  0  0  0  0  0
   20.0244   -6.6966  -15.7147 C   0  0  1  0  0  0  0  0  0  0  0  0
   18.5647   -6.4406  -15.5511 C   0  0  0  0  0  0  0  0  0  0  0  0
   18.1276   -5.0481  -15.9278 C   0  0  0  0  0  0  0  0  0  0  0  0
   16.6547   -4.8871  -15.7810 C   0  0  0  0  0  0  0  0  0  0  0  0
   16.1749   -3.4921  -16.1243 C   0  0  0  0  0  0  0  0  0  0  0  0
   14.7355   -3.3877  -16.1022 N   0  0  0  0  0  0  0  0  0  0  0  0
   20.8213   -5.7208  -14.9194 C   0  0  0  0  0  0  0  0  0  0  0  0
   21.0889   -4.4243  -15.3139 O   0  0  0  0  0  0  0  0  0  0  0  0
   21.2835   -6.1002  -13.8083 O   0  0  0  0  0  0  0  0  0  0  0  0
  2  1  1  6
  2  3  1  0
  4  6  1  0
  4  2  1  0
  4  5  1  1
  6  7  2  0
  9  8  1  6
  9 11  1  0
 10  9  1  0
 11 12  1  6
 12  6  1  0
 13 14  2  0
 13 11  1  0
 15 13  1  0
 16 15  1  0
 16 17  1  1
 17 18  1  0
 19 20  1  0
 19 18  1  0
 21 20  1  0
 22 16  1  0
 23 22  1  0
 24 22  2  0
M  END
$$$$
