VVK.pdb
     RDKit          3D

 24 23  0  0  1  0  0  0  0  0999 V2000
   27.7266  -20.3807  -18.2171 C   0  0  0  0  0  0  0  0  0  0  0  0
   26.8039  -20.9416  -17.1680 C   0  0  1  0  0  0  0  0  0  0  0  0
   25.6302  -21.6872  -17.7120 C   0  0  0  0  0  0  0  0  0  0  0  0
   27.4748  -21.6320  -16.0376 C   0  0  2  0  0  0  0  0  0  0  0  0
   28.1844  -22.8400  -16.4669 N   0  0  0  0  0  0  0  0  0  0  0  0
   26.6653  -21.9689  -14.8727 C   0  0  0  0  0  0  0  0  0  0  0  0
   26.1196  -23.1385  -14.7836 O   0  0  0  0  0  0  0  0  0  0  0  0
   25.8398  -19.5076  -11.3990 C   0  0  0  0  0  0  0  0  0  0  0  0
   25.8475  -21.0040  -11.3459 C   0  0  1  0  0  0  0  0  0  0  0  0
   25.0471  -21.5770  -10.2302 C   0  0  0  0  0  0  0  0  0  0  0  0
   25.4643  -21.5352  -12.7029 C   0  0  2  0  0  0  0  0  0  0  0  0
   26.3695  -21.1509  -13.7511 N   0  0  0  0  0  0  0  0  0  0  0  0
   24.0315  -21.2389  -13.0197 C   0  0  0  0  0  0  0  0  0  0  0  0
   23.8137  -20.1666  -13.6218 O   0  0  0  0  0  0  0  0  0  0  0  0
   23.0070  -22.0997  -12.6682 N   0  0  0  0  0  0  0  0  0  0  0  0
   21.6079  -21.8490  -12.9201 C   0  0  1  0  0  0  0  0  0  0  0  0
   20.7244  -22.9441  -12.4273 C   0  0  0  0  0  0  0  0  0  0  0  0
   19.2790  -22.8131  -12.8345 C   0  0  0  0  0  0  0  0  0  0  0  0
   18.4533  -23.9061  -12.2514 C   0  0  0  0  0  0  0  0  0  0  0  0
   17.0271  -23.9066  -12.7614 C   0  0  0  0  0  0  0  0  0  0  0  0
   16.2883  -25.0649  -12.3188 N   0  0  0  0  0  0  0  0  0  0  0  0
   21.2383  -20.5512  -12.2884 C   0  0  0  0  0  0  0  0  0  0  0  0
   20.5266  -19.5494  -12.9193 O   0  0  0  0  0  0  0  0  0  0  0  0
   21.5964  -20.3505  -11.0953 O   0  0  0  0  0  0  0  0  0  0  0  0
  2  1  1  6
  2  3  1  0
  4  6  1  0
  4  2  1  0
  4  5  1  6
  6  7  2  0
  9  8  1  6
  9 11  1  0
 10  9  1  0
 11 12  1  6
 12  6  1  0
 13 14  2  0
 13 11  1  0
 15 13  1  0
 16 15  1  0
 16 17  1  1
 17 18  1  0
 19 20  1  0
 19 18  1  0
 21 20  1  0
 22 16  1  0
 23 22  1  0
 24 22  2  0
M  END
$$$$
