VVK.pdb
     RDKit          3D

 24 23  0  0  1  0  0  0  0  0999 V2000
   18.4364  -14.4240  -20.1421 C   0  0  0  0  0  0  0  0  0  0  0  0
   18.7733  -13.5064  -18.9970 C   0  0  1  0  0  0  0  0  0  0  0  0
   17.6247  -12.6930  -18.4985 C   0  0  0  0  0  0  0  0  0  0  0  0
   19.5844  -14.1166  -17.9133 C   0  0  2  0  0  0  0  0  0  0  0  0
   18.8941  -15.2350  -17.2654 N   0  0  0  0  0  0  0  0  0  0  0  0
   20.0984  -13.2341  -16.8727 C   0  0  0  0  0  0  0  0  0  0  0  0
   19.3951  -13.0134  -15.8095 O   0  0  0  0  0  0  0  0  0  0  0  0
   23.9875  -11.6075  -16.6661 C   0  0  0  0  0  0  0  0  0  0  0  0
   23.1368  -11.6327  -15.4341 C   0  0  1  0  0  0  0  0  0  0  0  0
   23.5110  -10.6146  -14.4157 C   0  0  0  0  0  0  0  0  0  0  0  0
   21.6892  -11.5734  -15.8481 C   0  0  2  0  0  0  0  0  0  0  0  0
   21.3352  -12.5380  -16.8531 N   0  0  0  0  0  0  0  0  0  0  0  0
   21.2788  -10.1767  -16.1974 C   0  0  0  0  0  0  0  0  0  0  0  0
   21.4893   -9.8222  -17.3763 O   0  0  0  0  0  0  0  0  0  0  0  0
   20.7003   -9.3267  -15.2717 N   0  0  0  0  0  0  0  0  0  0  0  0
   20.3154   -7.9626  -15.5454 C   0  0  1  0  0  0  0  0  0  0  0  0
   18.8395   -7.7893  -15.6655 C   0  0  0  0  0  0  0  0  0  0  0  0
   18.3965   -6.3772  -15.9513 C   0  0  0  0  0  0  0  0  0  0  0  0
   16.9188   -6.2985  -16.1160 C   0  0  0  0  0  0  0  0  0  0  0  0
   16.4257   -4.8885  -16.3668 C   0  0  0  0  0  0  0  0  0  0  0  0
   16.6025   -4.0345  -15.2168 N   0  0  0  0  0  0  0  0  0  0  0  0
   20.8606   -7.0913  -14.4667 C   0  0  0  0  0  0  0  0  0  0  0  0
   21.2711   -7.5448  -13.2282 O   0  0  0  0  0  0  0  0  0  0  0  0
   20.9572   -5.8545  -14.6971 O   0  0  0  0  0  0  0  0  0  0  0  0
  2  1  1  6
  2  3  1  0
  4  6  1  0
  4  2  1  0
  4  5  1  1
  6  7  2  0
  9  8  1  6
  9 11  1  0
 10  9  1  0
 11 12  1  6
 12  6  1  0
 13 14  2  0
 13 11  1  0
 15 13  1  0
 16 15  1  0
 16 17  1  1
 17 18  1  0
 19 20  1  0
 19 18  1  0
 21 20  1  0
 22 16  1  0
 23 22  1  0
 24 22  2  0
M  END
$$$$
