KMM.pdb
     RDKit          3D

 26 25  0  0  1  0  0  0  0  0999 V2000
   28.0590  -21.9650  -15.9665 N   0  0  0  0  0  0  0  0  0  0  0  0
   27.6201  -20.8896  -15.1723 C   0  0  1  0  0  0  0  0  0  0  0  0
   26.9930  -19.7209  -15.8794 C   0  0  0  0  0  0  0  0  0  0  0  0
   27.8211  -19.0226  -16.8764 C   0  0  0  0  0  0  0  0  0  0  0  0
   29.1681  -18.5622  -16.5035 C   0  0  0  0  0  0  0  0  0  0  0  0
   29.9364  -17.8074  -17.5277 C   0  0  0  0  0  0  0  0  0  0  0  0
   29.6363  -18.2971  -18.8410 N   0  0  0  0  0  0  0  0  0  0  0  0
   26.8046  -21.2614  -13.9764 C   0  0  0  0  0  0  0  0  0  0  0  0
   25.9320  -22.1756  -14.1669 O   0  0  0  0  0  0  0  0  0  0  0  0
   27.7447  -20.4977   -7.4003 C   0  0  0  0  0  0  0  0  0  0  0  0
   26.0486  -19.9830   -7.6979 S   0  0  0  0  0  0  0  0  0  0  0  0
   25.3974  -20.6743   -9.2642 C   0  0  0  0  0  0  0  0  0  0  0  0
   26.3389  -20.3835  -10.3900 C   0  0  0  0  0  0  0  0  0  0  0  0
   25.8976  -21.0067  -11.6883 C   0  0  2  0  0  0  0  0  0  0  0  0
   26.9289  -20.6968  -12.7143 N   0  0  0  0  0  0  0  0  0  0  0  0
   24.6087  -20.4398  -12.1100 C   0  0  0  0  0  0  0  0  0  0  0  0
   24.6207  -19.3900  -12.8481 O   0  0  0  0  0  0  0  0  0  0  0  0
   23.2187  -20.6770  -17.0010 C   0  0  0  0  0  0  0  0  0  0  0  0
   21.6391  -21.4459  -16.5066 S   0  0  0  0  0  0  0  0  0  0  0  0
   21.1991  -20.7485  -14.8751 C   0  0  0  0  0  0  0  0  0  0  0  0
   22.3295  -21.0375  -13.9377 C   0  0  0  0  0  0  0  0  0  0  0  0
   22.1336  -20.5099  -12.5418 C   0  0  2  0  0  0  0  0  0  0  0  0
   23.3235  -20.9409  -11.7887 N   0  0  0  0  0  0  0  0  0  0  0  0
   20.9256  -21.1092  -11.9592 C   0  0  0  0  0  0  0  0  0  0  0  0
   21.0343  -22.1077  -11.2098 O   0  0  0  0  0  0  0  0  0  0  0  0
   19.6779  -20.6028  -12.2124 O   0  0  0  0  0  0  0  0  0  0  0  0
  2  1  1  6
  3  2  1  0
  4  3  1  0
  5  4  1  0
  5  6  1  0
  7  6  1  0
  8  9  2  0
  8  2  1  0
 10 11  1  0
 11 12  1  0
 12 13  1  0
 14 13  1  1
 14 15  1  0
 15  8  1  0
 16 14  1  0
 17 16  2  0
 18 19  1  0
 20 19  1  0
 22 21  1  6
 21 20  1  0
 22 23  1  0
 23 16  1  0
 24 26  1  0
 24 22  1  0
 25 24  2  0
M  END
$$$$
