KMM.pdb
     RDKit          3D

 26 25  0  0  1  0  0  0  0  0999 V2000
   20.3710  -19.6382  -13.5677 N   0  0  0  0  0  0  0  0  0  0  0  0
   21.1749  -20.7283  -13.1864 C   0  0  1  0  0  0  0  0  0  0  0  0
   21.0941  -21.9719  -14.0264 C   0  0  0  0  0  0  0  0  0  0  0  0
   19.8901  -22.8046  -13.8703 C   0  0  0  0  0  0  0  0  0  0  0  0
   19.3220  -23.0108  -12.5286 C   0  0  0  0  0  0  0  0  0  0  0  0
   18.0424  -23.7616  -12.4401 C   0  0  0  0  0  0  0  0  0  0  0  0
   17.5522  -23.7597  -11.0932 N   0  0  0  0  0  0  0  0  0  0  0  0
   22.6031  -20.4037  -12.8890 C   0  0  0  0  0  0  0  0  0  0  0  0
   23.0879  -19.4106  -13.5311 O   0  0  0  0  0  0  0  0  0  0  0  0
   28.6883  -20.5576   -7.9526 C   0  0  0  0  0  0  0  0  0  0  0  0
   27.0407  -21.1049   -8.4173 S   0  0  0  0  0  0  0  0  0  0  0  0
   26.7300  -20.8694  -10.2070 C   0  0  0  0  0  0  0  0  0  0  0  0
   25.3436  -21.3112  -10.5550 C   0  0  0  0  0  0  0  0  0  0  0  0
   24.8020  -20.6103  -11.7732 C   0  0  2  0  0  0  0  0  0  0  0  0
   23.4106  -21.0885  -11.9910 N   0  0  0  0  0  0  0  0  0  0  0  0
   25.6175  -20.9389  -12.9511 C   0  0  0  0  0  0  0  0  0  0  0  0
   25.4818  -22.1017  -13.4770 O   0  0  0  0  0  0  0  0  0  0  0  0
   29.9405  -17.9136  -18.8232 C   0  0  0  0  0  0  0  0  0  0  0  0
   29.0382  -17.6890  -17.2529 S   0  0  0  0  0  0  0  0  0  0  0  0
   28.4826  -19.3470  -16.7201 C   0  0  0  0  0  0  0  0  0  0  0  0
   27.7508  -19.1863  -15.4244 C   0  0  0  0  0  0  0  0  0  0  0  0
   27.1438  -20.4551  -14.8886 C   0  0  2  0  0  0  0  0  0  0  0  0
   26.5548  -20.0900  -13.5890 N   0  0  0  0  0  0  0  0  0  0  0  0
   28.1999  -21.4581  -14.6979 C   0  0  0  0  0  0  0  0  0  0  0  0
   28.8628  -21.4589  -13.6344 O   0  0  0  0  0  0  0  0  0  0  0  0
   28.4800  -22.3981  -15.6545 O   0  0  0  0  0  0  0  0  0  0  0  0
  2  1  1  6
  3  2  1  0
  4  3  1  0
  5  4  1  0
  5  6  1  0
  7  6  1  0
  8  9  2  0
  8  2  1  0
 10 11  1  0
 11 12  1  0
 12 13  1  0
 14 13  1  1
 14 15  1  0
 15  8  1  0
 16 14  1  0
 17 16  2  0
 18 19  1  0
 20 19  1  0
 22 21  1  1
 21 20  1  0
 22 23  1  0
 23 16  1  0
 24 26  1  0
 24 22  1  0
 25 24  2  0
M  END
$$$$
