KMM.pdb
     RDKit          3D

 26 25  0  0  1  0  0  0  0  0999 V2000
   27.9303  -18.7547  -14.9045 N   0  0  0  0  0  0  0  0  0  0  0  0
   27.4052  -19.9920  -15.3208 C   0  0  1  0  0  0  0  0  0  0  0  0
   27.9679  -20.5918  -16.5787 C   0  0  0  0  0  0  0  0  0  0  0  0
   27.7349  -19.8539  -17.8312 C   0  0  0  0  0  0  0  0  0  0  0  0
   28.8007  -18.9975  -18.3754 C   0  0  0  0  0  0  0  0  0  0  0  0
   28.5100  -18.2702  -19.6385 C   0  0  0  0  0  0  0  0  0  0  0  0
   29.6670  -17.5472  -20.0781 N   0  0  0  0  0  0  0  0  0  0  0  0
   27.2986  -21.0378  -14.2586 C   0  0  0  0  0  0  0  0  0  0  0  0
   27.6886  -22.2074  -14.5955 O   0  0  0  0  0  0  0  0  0  0  0  0
   32.6495  -22.0693  -11.7313 C   0  0  0  0  0  0  0  0  0  0  0  0
   31.5560  -20.8646  -10.9676 S   0  0  0  0  0  0  0  0  0  0  0  0
   29.8453  -21.5024  -10.8203 C   0  0  0  0  0  0  0  0  0  0  0  0
   28.9793  -20.9149  -11.8896 C   0  0  0  0  0  0  0  0  0  0  0  0
   27.5617  -21.4201  -11.8280 C   0  0  2  0  0  0  0  0  0  0  0  0
   26.8188  -20.8285  -12.9728 N   0  0  0  0  0  0  0  0  0  0  0  0
   26.9283  -20.9999  -10.5700 C   0  0  0  0  0  0  0  0  0  0  0  0
   26.3595  -19.8500  -10.5323 O   0  0  0  0  0  0  0  0  0  0  0  0
   28.4856  -18.4271   -5.5777 C   0  0  0  0  0  0  0  0  0  0  0  0
   27.5013  -19.7469   -4.7905 S   0  0  0  0  0  0  0  0  0  0  0  0
   26.2161  -20.2379   -5.9941 C   0  0  0  0  0  0  0  0  0  0  0  0
   26.9107  -20.7540   -7.2153 C   0  0  0  0  0  0  0  0  0  0  0  0
   25.9924  -21.3280   -8.2605 C   0  0  2  0  0  0  0  0  0  0  0  0
   26.8697  -21.7456   -9.3672 N   0  0  0  0  0  0  0  0  0  0  0  0
   25.0649  -20.2856   -8.7200 C   0  0  0  0  0  0  0  0  0  0  0  0
   23.9194  -20.2160   -8.2165 O   0  0  0  0  0  0  0  0  0  0  0  0
   25.4202  -19.3823   -9.6869 O   0  0  0  0  0  0  0  0  0  0  0  0
  2  1  1  1
  3  2  1  0
  4  3  1  0
  5  4  1  0
  5  6  1  0
  7  6  1  0
  8  9  2  0
  8  2  1  0
 10 11  1  0
 11 12  1  0
 12 13  1  0
 14 13  1  1
 14 15  1  0
 15  8  1  0
 16 14  1  0
 17 16  2  0
 18 19  1  0
 20 19  1  0
 22 21  1  1
 21 20  1  0
 22 23  1  0
 23 16  1  0
 24 26  1  0
 24 22  1  0
 25 24  2  0
M  END
$$$$
