KMM.pdb
     RDKit          3D

 26 25  0  0  1  0  0  0  0  0999 V2000
   26.3301  -23.5172  -14.2436 N   0  0  0  0  0  0  0  0  0  0  0  0
   25.1696  -23.0343  -14.8760 C   0  0  1  0  0  0  0  0  0  0  0  0
   23.8877  -23.7779  -14.6259 C   0  0  0  0  0  0  0  0  0  0  0  0
   23.6962  -25.0410  -15.3575 C   0  0  0  0  0  0  0  0  0  0  0  0
   24.4031  -25.2542  -16.6303 C   0  0  0  0  0  0  0  0  0  0  0  0
   24.0883  -26.4965  -17.3831 C   0  0  0  0  0  0  0  0  0  0  0  0
   24.9489  -26.6240  -18.5222 N   0  0  0  0  0  0  0  0  0  0  0  0
   24.9377  -21.5623  -14.7619 C   0  0  0  0  0  0  0  0  0  0  0  0
   24.4544  -21.1652  -13.6474 O   0  0  0  0  0  0  0  0  0  0  0  0
   28.5274  -16.6862  -17.2220 C   0  0  0  0  0  0  0  0  0  0  0  0
   26.8645  -16.0074  -17.2858 S   0  0  0  0  0  0  0  0  0  0  0  0
   25.7212  -16.9148  -16.1791 C   0  0  0  0  0  0  0  0  0  0  0  0
   25.9076  -18.3907  -16.3388 C   0  0  0  0  0  0  0  0  0  0  0  0
   24.9800  -19.1889  -15.4606 C   0  0  2  0  0  0  0  0  0  0  0  0
   25.2038  -20.6295  -15.7551 N   0  0  0  0  0  0  0  0  0  0  0  0
   23.5819  -18.8452  -15.7561 C   0  0  0  0  0  0  0  0  0  0  0  0
   23.0616  -19.2996  -16.8377 O   0  0  0  0  0  0  0  0  0  0  0  0
   19.6071  -18.0784  -11.3373 C   0  0  0  0  0  0  0  0  0  0  0  0
   18.4152  -17.2824  -12.4670 S   0  0  0  0  0  0  0  0  0  0  0  0
   19.1141  -17.4131  -14.1510 C   0  0  0  0  0  0  0  0  0  0  0  0
   20.5883  -17.6335  -14.0153 C   0  0  0  0  0  0  0  0  0  0  0  0
   21.3063  -17.8727  -15.3163 C   0  0  2  0  0  0  0  0  0  0  0  0
   22.7226  -18.0535  -14.9554 N   0  0  0  0  0  0  0  0  0  0  0  0
   21.1542  -16.6947  -16.1807 C   0  0  0  0  0  0  0  0  0  0  0  0
   21.9178  -15.7136  -16.0235 O   0  0  0  0  0  0  0  0  0  0  0  0
   20.1973  -16.6400  -17.1598 O   0  0  0  0  0  0  0  0  0  0  0  0
  2  1  1  1
  3  2  1  0
  4  3  1  0
  5  4  1  0
  5  6  1  0
  7  6  1  0
  8  9  2  0
  8  2  1  0
 10 11  1  0
 11 12  1  0
 12 13  1  0
 14 13  1  6
 14 15  1  0
 15  8  1  0
 16 14  1  0
 17 16  2  0
 18 19  1  0
 20 19  1  0
 22 21  1  1
 21 20  1  0
 22 23  1  0
 23 16  1  0
 24 26  1  0
 24 22  1  0
 25 24  2  0
M  END
$$$$
