KMM.pdb
     RDKit          3D

 26 25  0  0  1  0  0  0  0  0999 V2000
   28.2792  -22.3026  -15.6132 N   0  0  0  0  0  0  0  0  0  0  0  0
   27.3759  -21.2626  -15.3262 C   0  0  1  0  0  0  0  0  0  0  0  0
   26.7266  -20.5717  -16.4924 C   0  0  0  0  0  0  0  0  0  0  0  0
   27.6222  -19.9557  -17.4852 C   0  0  0  0  0  0  0  0  0  0  0  0
   28.3508  -18.7254  -17.1374 C   0  0  0  0  0  0  0  0  0  0  0  0
   29.2287  -18.1367  -18.1822 C   0  0  0  0  0  0  0  0  0  0  0  0
   29.9239  -16.9939  -17.6672 N   0  0  0  0  0  0  0  0  0  0  0  0
   26.3548  -21.5660  -14.2781 C   0  0  0  0  0  0  0  0  0  0  0  0
   25.6798  -22.6361  -14.4594 O   0  0  0  0  0  0  0  0  0  0  0  0
   27.6710  -20.4840   -7.4784 C   0  0  0  0  0  0  0  0  0  0  0  0
   26.2863  -19.9788   -8.5068 S   0  0  0  0  0  0  0  0  0  0  0  0
   26.1842  -20.9757  -10.0401 C   0  0  0  0  0  0  0  0  0  0  0  0
   25.1574  -20.4013  -10.9643 C   0  0  0  0  0  0  0  0  0  0  0  0
   25.0105  -21.1995  -12.2332 C   0  0  2  0  0  0  0  0  0  0  0  0
   26.0998  -20.7866  -13.1578 N   0  0  0  0  0  0  0  0  0  0  0  0
   23.7107  -20.9201  -12.8598 C   0  0  0  0  0  0  0  0  0  0  0  0
   23.5615  -19.8030  -13.4738 O   0  0  0  0  0  0  0  0  0  0  0  0
   18.9257  -25.1384  -13.7048 C   0  0  0  0  0  0  0  0  0  0  0  0
   18.7146  -24.0416  -15.1480 S   0  0  0  0  0  0  0  0  0  0  0  0
   19.3439  -22.3965  -14.6589 C   0  0  0  0  0  0  0  0  0  0  0  0
   20.7012  -22.5895  -14.0582 C   0  0  0  0  0  0  0  0  0  0  0  0
   21.3117  -21.3411  -13.4804 C   0  0  2  0  0  0  0  0  0  0  0  0
   22.5790  -21.7718  -12.8663 N   0  0  0  0  0  0  0  0  0  0  0  0
   20.4168  -20.7911  -12.4535 C   0  0  0  0  0  0  0  0  0  0  0  0
   20.6621  -21.0077  -11.2437 O   0  0  0  0  0  0  0  0  0  0  0  0
   19.3175  -20.0429  -12.7835 O   0  0  0  0  0  0  0  0  0  0  0  0
  2  1  1  6
  3  2  1  0
  4  3  1  0
  5  4  1  0
  5  6  1  0
  7  6  1  0
  8  9  2  0
  8  2  1  0
 10 11  1  0
 11 12  1  0
 12 13  1  0
 14 13  1  1
 14 15  1  0
 15  8  1  0
 16 14  1  0
 17 16  2  0
 18 19  1  0
 20 19  1  0
 22 21  1  1
 21 20  1  0
 22 23  1  0
 23 16  1  0
 24 26  1  0
 24 22  1  0
 25 24  2  0
M  END
$$$$
