KMM.pdb
     RDKit          3D

 26 25  0  0  1  0  0  0  0  0999 V2000
   26.9100  -34.4482  -14.2746 N   0  0  0  0  0  0  0  0  0  0  0  0
   25.7333  -34.5649  -13.5118 C   0  0  1  0  0  0  0  0  0  0  0  0
   25.0074  -35.8800  -13.5608 C   0  0  0  0  0  0  0  0  0  0  0  0
   23.9528  -36.0217  -14.5782 C   0  0  0  0  0  0  0  0  0  0  0  0
   22.9277  -34.9740  -14.7085 C   0  0  0  0  0  0  0  0  0  0  0  0
   21.5700  -35.2828  -14.1886 C   0  0  0  0  0  0  0  0  0  0  0  0
   20.7275  -34.1259  -14.2687 N   0  0  0  0  0  0  0  0  0  0  0  0
   25.8299  -34.0861  -12.0994 C   0  0  0  0  0  0  0  0  0  0  0  0
   27.0118  -34.0290  -11.6164 O   0  0  0  0  0  0  0  0  0  0  0  0
   23.2283  -28.9620   -9.8475 C   0  0  0  0  0  0  0  0  0  0  0  0
   23.4039  -29.7898   -8.2619 S   0  0  0  0  0  0  0  0  0  0  0  0
   24.3993  -31.3207   -8.4053 C   0  0  0  0  0  0  0  0  0  0  0  0
   24.2004  -31.9441   -9.7508 C   0  0  0  0  0  0  0  0  0  0  0  0
   25.0245  -33.1910   -9.9377 C   0  0  2  0  0  0  0  0  0  0  0  0
   24.7550  -33.7125  -11.3043 N   0  0  0  0  0  0  0  0  0  0  0  0
   24.6394  -34.2060   -8.9469 C   0  0  0  0  0  0  0  0  0  0  0  0
   23.5412  -34.8447   -9.1288 O   0  0  0  0  0  0  0  0  0  0  0  0
   26.9273  -39.4177   -3.5959 C   0  0  0  0  0  0  0  0  0  0  0  0
   27.3342  -37.9980   -4.6679 S   0  0  0  0  0  0  0  0  0  0  0  0
   25.7465  -37.2830   -5.2243 C   0  0  0  0  0  0  0  0  0  0  0  0
   26.0535  -36.2407   -6.2537 C   0  0  0  0  0  0  0  0  0  0  0  0
   24.8421  -35.5743   -6.8483 C   0  0  2  0  0  0  0  0  0  0  0  0
   25.3683  -34.5701   -7.7883 N   0  0  0  0  0  0  0  0  0  0  0  0
   24.0772  -34.9131   -5.7826 C   0  0  0  0  0  0  0  0  0  0  0  0
   24.2611  -33.6938   -5.5591 O   0  0  0  0  0  0  0  0  0  0  0  0
   23.1627  -35.5957   -5.0243 O   0  0  0  0  0  0  0  0  0  0  0  0
  2  1  1  1
  3  2  1  0
  4  3  1  0
  5  4  1  0
  5  6  1  0
  7  6  1  0
  8  9  2  0
  8  2  1  0
 10 11  1  0
 11 12  1  0
 12 13  1  0
 14 13  1  1
 14 15  1  0
 15  8  1  0
 16 14  1  0
 17 16  2  0
 18 19  1  0
 20 19  1  0
 22 21  1  1
 21 20  1  0
 22 23  1  0
 23 16  1  0
 24 26  1  0
 24 22  1  0
 25 24  2  0
M  END
$$$$
