KMM.pdb
     RDKit          3D

 26 25  0  0  1  0  0  0  0  0999 V2000
   34.0252   -8.2325  -17.6906 N   0  0  0  0  0  0  0  0  0  0  0  0
   33.0765   -7.7696  -16.7602 C   0  0  1  0  0  0  0  0  0  0  0  0
   33.3849   -6.4864  -16.0412 C   0  0  0  0  0  0  0  0  0  0  0  0
   34.7651   -6.3061  -15.5616 C   0  0  0  0  0  0  0  0  0  0  0  0
   35.3146   -7.2438  -14.5696 C   0  0  0  0  0  0  0  0  0  0  0  0
   36.7076   -7.0068  -14.1088 C   0  0  0  0  0  0  0  0  0  0  0  0
   37.0957   -8.0024  -13.1534 N   0  0  0  0  0  0  0  0  0  0  0  0
   31.6589   -7.7629  -17.2334 C   0  0  0  0  0  0  0  0  0  0  0  0
   30.7905   -7.4027  -16.3676 O   0  0  0  0  0  0  0  0  0  0  0  0
   27.7413   -3.3415  -19.9723 C   0  0  0  0  0  0  0  0  0  0  0  0
   27.9620   -5.0600  -20.4499 S   0  0  0  0  0  0  0  0  0  0  0  0
   29.4253   -5.8046  -19.6378 C   0  0  0  0  0  0  0  0  0  0  0  0
   29.5385   -7.2519  -19.9998 C   0  0  0  0  0  0  0  0  0  0  0  0
   29.7796   -8.1307  -18.8006 C   0  0  2  0  0  0  0  0  0  0  0  0
   31.2381   -8.1115  -18.5097 N   0  0  0  0  0  0  0  0  0  0  0  0
   29.3613   -9.5096  -19.0907 C   0  0  0  0  0  0  0  0  0  0  0  0
   30.1012  -10.2174  -19.8644 O   0  0  0  0  0  0  0  0  0  0  0  0
   25.8244  -11.1898  -14.3877 C   0  0  0  0  0  0  0  0  0  0  0  0
   26.3001  -12.6606  -15.3576 S   0  0  0  0  0  0  0  0  0  0  0  0
   27.5982  -12.1253  -16.5281 C   0  0  0  0  0  0  0  0  0  0  0  0
   26.9839  -12.0662  -17.8918 C   0  0  0  0  0  0  0  0  0  0  0  0
   27.9015  -11.5520  -18.9683 C   0  0  2  0  0  0  0  0  0  0  0  0
   28.2064  -10.1610  -18.5926 N   0  0  0  0  0  0  0  0  0  0  0  0
   27.2026  -11.5822  -20.2600 C   0  0  0  0  0  0  0  0  0  0  0  0
   27.0748  -12.6723  -20.8649 O   0  0  0  0  0  0  0  0  0  0  0  0
   26.6827  -10.4465  -20.8230 O   0  0  0  0  0  0  0  0  0  0  0  0
  2  1  1  6
  3  2  1  0
  4  3  1  0
  5  4  1  0
  5  6  1  0
  7  6  1  0
  8  9  2  0
  8  2  1  0
 10 11  1  0
 11 12  1  0
 12 13  1  0
 14 13  1  6
 14 15  1  0
 15  8  1  0
 16 14  1  0
 17 16  2  0
 18 19  1  0
 20 19  1  0
 22 21  1  1
 21 20  1  0
 22 23  1  0
 23 16  1  0
 24 26  1  0
 24 22  1  0
 25 24  2  0
M  END
$$$$
