KMM.pdb
     RDKit          3D

 26 25  0  0  1  0  0  0  0  0999 V2000
   27.3256  -17.1571  -14.5013 N   0  0  0  0  0  0  0  0  0  0  0  0
   27.1726  -18.4508  -15.0331 C   0  0  1  0  0  0  0  0  0  0  0  0
   28.3170  -19.0078  -15.8324 C   0  0  0  0  0  0  0  0  0  0  0  0
   28.6098  -18.3570  -17.1201 C   0  0  0  0  0  0  0  0  0  0  0  0
   27.5066  -17.7887  -17.9109 C   0  0  0  0  0  0  0  0  0  0  0  0
   27.8324  -17.2909  -19.2728 C   0  0  0  0  0  0  0  0  0  0  0  0
   26.9405  -17.8587  -20.2407 N   0  0  0  0  0  0  0  0  0  0  0  0
   26.6632  -19.4837  -14.0807 C   0  0  0  0  0  0  0  0  0  0  0  0
   26.5066  -20.6544  -14.5693 O   0  0  0  0  0  0  0  0  0  0  0  0
   27.2918  -20.6432   -7.4886 C   0  0  0  0  0  0  0  0  0  0  0  0
   25.5341  -20.6630   -7.8632 S   0  0  0  0  0  0  0  0  0  0  0  0
   25.2228  -21.0575   -9.6246 C   0  0  0  0  0  0  0  0  0  0  0  0
   25.8796  -20.0432  -10.5068 C   0  0  0  0  0  0  0  0  0  0  0  0
   25.7028  -20.3494  -11.9710 C   0  0  2  0  0  0  0  0  0  0  0  0
   26.3587  -19.2615  -12.7446 N   0  0  0  0  0  0  0  0  0  0  0  0
   24.2734  -20.3920  -12.3106 C   0  0  0  0  0  0  0  0  0  0  0  0
   23.6921  -19.2918  -12.6250 O   0  0  0  0  0  0  0  0  0  0  0  0
   21.8771  -24.1559  -16.5125 C   0  0  0  0  0  0  0  0  0  0  0  0
   20.5276  -24.3739  -15.3034 S   0  0  0  0  0  0  0  0  0  0  0  0
   20.5134  -22.8792  -14.2512 C   0  0  0  0  0  0  0  0  0  0  0  0
   21.8950  -22.6942  -13.7061 C   0  0  0  0  0  0  0  0  0  0  0  0
   22.0678  -21.4729  -12.8437 C   0  0  2  0  0  0  0  0  0  0  0  0
   23.4484  -21.5430  -12.3359 N   0  0  0  0  0  0  0  0  0  0  0  0
   21.1173  -21.5277  -11.7250 C   0  0  0  0  0  0  0  0  0  0  0  0
   21.5368  -21.7903  -10.5736 O   0  0  0  0  0  0  0  0  0  0  0  0
   19.7791  -21.2966  -11.9065 O   0  0  0  0  0  0  0  0  0  0  0  0
  2  1  1  1
  3  2  1  0
  4  3  1  0
  5  4  1  0
  5  6  1  0
  7  6  1  0
  8  9  2  0
  8  2  1  0
 10 11  1  0
 11 12  1  0
 12 13  1  0
 14 13  1  1
 14 15  1  0
 15  8  1  0
 16 14  1  0
 17 16  2  0
 18 19  1  0
 20 19  1  0
 22 21  1  6
 21 20  1  0
 22 23  1  0
 23 16  1  0
 24 26  1  0
 24 22  1  0
 25 24  2  0
M  END
$$$$
