KMM.pdb
     RDKit          3D

 26 25  0  0  1  0  0  0  0  0999 V2000
   27.6884  -19.8613  -16.0147 N   0  0  0  0  0  0  0  0  0  0  0  0
   27.1164  -21.1347  -16.1908 C   0  0  1  0  0  0  0  0  0  0  0  0
   28.0320  -22.2499  -16.6112 C   0  0  0  0  0  0  0  0  0  0  0  0
   29.0829  -21.9174  -17.5872 C   0  0  0  0  0  0  0  0  0  0  0  0
   29.2658  -20.5183  -18.0050 C   0  0  0  0  0  0  0  0  0  0  0  0
   30.2555  -20.2542  -19.0818 C   0  0  0  0  0  0  0  0  0  0  0  0
   31.4449  -19.6686  -18.5368 N   0  0  0  0  0  0  0  0  0  0  0  0
   26.2197  -21.5972  -15.0883 C   0  0  0  0  0  0  0  0  0  0  0  0
   25.7648  -22.7854  -15.2096 O   0  0  0  0  0  0  0  0  0  0  0  0
   26.5189  -19.4607   -9.1641 C   0  0  0  0  0  0  0  0  0  0  0  0
   25.9939  -21.1744   -9.0314 S   0  0  0  0  0  0  0  0  0  0  0  0
   25.6822  -21.9153  -10.6773 C   0  0  0  0  0  0  0  0  0  0  0  0
   25.2340  -20.8637  -11.6426 C   0  0  0  0  0  0  0  0  0  0  0  0
   24.9038  -21.4275  -12.9996 C   0  0  2  0  0  0  0  0  0  0  0  0
   25.8602  -20.8448  -13.9783 N   0  0  0  0  0  0  0  0  0  0  0  0
   23.5335  -21.0579  -13.3820 C   0  0  0  0  0  0  0  0  0  0  0  0
   23.3188  -19.8575  -13.7822 O   0  0  0  0  0  0  0  0  0  0  0  0
   16.3597  -23.4620  -15.4848 C   0  0  0  0  0  0  0  0  0  0  0  0
   17.9979  -23.8852  -14.8009 S   0  0  0  0  0  0  0  0  0  0  0  0
   18.7971  -22.3103  -14.3292 C   0  0  0  0  0  0  0  0  0  0  0  0
   20.2425  -22.5957  -14.0649 C   0  0  0  0  0  0  0  0  0  0  0  0
   21.0630  -21.3852  -13.7089 C   0  0  2  0  0  0  0  0  0  0  0  0
   22.3974  -21.9035  -13.3630 N   0  0  0  0  0  0  0  0  0  0  0  0
   20.4661  -20.7168  -12.5449 C   0  0  0  0  0  0  0  0  0  0  0  0
   19.5925  -19.8360  -12.7224 O   0  0  0  0  0  0  0  0  0  0  0  0
   20.8387  -21.0328  -11.2649 O   0  0  0  0  0  0  0  0  0  0  0  0
  2  1  1  1
  3  2  1  0
  4  3  1  0
  5  4  1  0
  5  6  1  0
  7  6  1  0
  8  9  2  0
  8  2  1  0
 10 11  1  0
 11 12  1  0
 12 13  1  0
 14 13  1  1
 14 15  1  0
 15  8  1  0
 16 14  1  0
 17 16  2  0
 18 19  1  0
 20 19  1  0
 22 21  1  1
 21 20  1  0
 22 23  1  0
 23 16  1  0
 24 26  1  0
 24 22  1  0
 25 24  2  0
M  END
$$$$
