KMM.pdb
     RDKit          3D

 26 25  0  0  1  0  0  0  0  0999 V2000
   18.5099  -14.5684  -18.1281 N   0  0  0  0  0  0  0  0  0  0  0  0
   19.8657  -14.4931  -17.7594 C   0  0  1  0  0  0  0  0  0  0  0  0
   20.7134  -15.7115  -17.9956 C   0  0  0  0  0  0  0  0  0  0  0  0
   20.0334  -17.0163  -17.9463 C   0  0  0  0  0  0  0  0  0  0  0  0
   19.4916  -17.5019  -16.6672 C   0  0  0  0  0  0  0  0  0  0  0  0
   18.8286  -18.8321  -16.6709 C   0  0  0  0  0  0  0  0  0  0  0  0
   19.8066  -19.8797  -16.6432 N   0  0  0  0  0  0  0  0  0  0  0  0
   20.5913  -13.2688  -18.2156 C   0  0  0  0  0  0  0  0  0  0  0  0
   21.8668  -13.3331  -18.1654 O   0  0  0  0  0  0  0  0  0  0  0  0
   18.3256   -7.0668  -20.1808 C   0  0  0  0  0  0  0  0  0  0  0  0
   19.7714   -7.5816  -21.1161 S   0  0  0  0  0  0  0  0  0  0  0  0
   20.8227   -8.7337  -20.1556 C   0  0  0  0  0  0  0  0  0  0  0  0
   20.0525   -9.9672  -19.8038 C   0  0  0  0  0  0  0  0  0  0  0  0
   20.8443  -10.9177  -18.9445 C   0  0  2  0  0  0  0  0  0  0  0  0
   19.9898  -12.1048  -18.6746 N   0  0  0  0  0  0  0  0  0  0  0  0
   21.1973  -10.2748  -17.6707 C   0  0  0  0  0  0  0  0  0  0  0  0
   20.2929  -10.1886  -16.7642 O   0  0  0  0  0  0  0  0  0  0  0  0
   26.7357  -11.7667  -14.1840 C   0  0  0  0  0  0  0  0  0  0  0  0
   26.4837  -10.7131  -15.6527 S   0  0  0  0  0  0  0  0  0  0  0  0
   24.6901  -10.7174  -16.0054 C   0  0  0  0  0  0  0  0  0  0  0  0
   24.1698   -9.3410  -15.7310 C   0  0  0  0  0  0  0  0  0  0  0  0
   22.6961   -9.1687  -15.9833 C   0  0  2  0  0  0  0  0  0  0  0  0
   22.4587   -9.7327  -17.3229 N   0  0  0  0  0  0  0  0  0  0  0  0
   22.3641   -7.7377  -15.9742 C   0  0  0  0  0  0  0  0  0  0  0  0
   22.2188   -7.1330  -17.0622 O   0  0  0  0  0  0  0  0  0  0  0  0
   22.2064   -7.0436  -14.8036 O   0  0  0  0  0  0  0  0  0  0  0  0
  2  1  1  6
  3  2  1  0
  4  3  1  0
  5  4  1  0
  5  6  1  0
  7  6  1  0
  8  9  2  0
  8  2  1  0
 10 11  1  0
 11 12  1  0
 12 13  1  0
 14 13  1  6
 14 15  1  0
 15  8  1  0
 16 14  1  0
 17 16  2  0
 18 19  1  0
 20 19  1  0
 22 21  1  6
 21 20  1  0
 22 23  1  0
 23 16  1  0
 24 26  1  0
 24 22  1  0
 25 24  2  0
M  END
$$$$
