KMM.pdb
     RDKit          3D

 26 25  0  0  1  0  0  0  0  0999 V2000
   27.7322  -21.5118  -14.6307 N   0  0  0  0  0  0  0  0  0  0  0  0
   27.7396  -20.4866  -13.6670 C   0  0  1  0  0  0  0  0  0  0  0  0
   27.3757  -19.1034  -14.1287 C   0  0  0  0  0  0  0  0  0  0  0  0
   27.8194  -18.7125  -15.4769 C   0  0  0  0  0  0  0  0  0  0  0  0
   26.8841  -18.8248  -16.6074 C   0  0  0  0  0  0  0  0  0  0  0  0
   27.3355  -18.2908  -17.9189 C   0  0  0  0  0  0  0  0  0  0  0  0
   26.3210  -18.4808  -18.9134 N   0  0  0  0  0  0  0  0  0  0  0  0
   27.0361  -20.8001  -12.3862 C   0  0  0  0  0  0  0  0  0  0  0  0
   26.1280  -21.6963  -12.4612 O   0  0  0  0  0  0  0  0  0  0  0  0
   26.5867  -20.2673   -4.4899 C   0  0  0  0  0  0  0  0  0  0  0  0
   27.4369  -19.8897   -6.0277 S   0  0  0  0  0  0  0  0  0  0  0  0
   26.4676  -20.4279   -7.4857 C   0  0  0  0  0  0  0  0  0  0  0  0
   27.2060  -20.1060   -8.7466 C   0  0  0  0  0  0  0  0  0  0  0  0
   26.5087  -20.6296   -9.9747 C   0  0  2  0  0  0  0  0  0  0  0  0
   27.2960  -20.2005  -11.1613 N   0  0  0  0  0  0  0  0  0  0  0  0
   25.1525  -20.0699  -10.0645 C   0  0  0  0  0  0  0  0  0  0  0  0
   25.0288  -18.8001  -10.2031 O   0  0  0  0  0  0  0  0  0  0  0  0
   24.0520  -18.8061  -14.7444 C   0  0  0  0  0  0  0  0  0  0  0  0
   22.5480  -19.8396  -14.7648 S   0  0  0  0  0  0  0  0  0  0  0  0
   21.9193  -19.8926  -13.0491 C   0  0  0  0  0  0  0  0  0  0  0  0
   23.0620  -20.2669  -12.1579 C   0  0  0  0  0  0  0  0  0  0  0  0
   22.7282  -20.2895  -10.6905 C   0  0  2  0  0  0  0  0  0  0  0  0
   23.9376  -20.7967  -10.0205 N   0  0  0  0  0  0  0  0  0  0  0  0
   21.6039  -21.2066  -10.4604 C   0  0  0  0  0  0  0  0  0  0  0  0
   21.8337  -22.3775  -10.0773 O   0  0  0  0  0  0  0  0  0  0  0  0
   20.3052  -20.8144  -10.6521 O   0  0  0  0  0  0  0  0  0  0  0  0
  2  1  1  6
  3  2  1  0
  4  3  1  0
  5  4  1  0
  5  6  1  0
  7  6  1  0
  8  9  2  0
  8  2  1  0
 10 11  1  0
 11 12  1  0
 12 13  1  0
 14 13  1  1
 14 15  1  0
 15  8  1  0
 16 14  1  0
 17 16  2  0
 18 19  1  0
 20 19  1  0
 22 21  1  6
 21 20  1  0
 22 23  1  0
 23 16  1  0
 24 26  1  0
 24 22  1  0
 25 24  2  0
M  END
$$$$
