KMM.pdb
     RDKit          3D

 26 25  0  0  1  0  0  0  0  0999 V2000
   24.6986  -19.6316  -16.5058 N   0  0  0  0  0  0  0  0  0  0  0  0
   25.7328  -19.3665  -15.5893 C   0  0  1  0  0  0  0  0  0  0  0  0
   26.7511  -18.3320  -15.9788 C   0  0  0  0  0  0  0  0  0  0  0  0
   27.9775  -18.8170  -16.6330 C   0  0  0  0  0  0  0  0  0  0  0  0
   28.0772  -20.2317  -17.0254 C   0  0  0  0  0  0  0  0  0  0  0  0
   29.3496  -20.6754  -17.6523 C   0  0  0  0  0  0  0  0  0  0  0  0
   29.2840  -22.0672  -17.9888 N   0  0  0  0  0  0  0  0  0  0  0  0
   25.3019  -19.1530  -14.1744 C   0  0  0  0  0  0  0  0  0  0  0  0
   24.8014  -18.0053  -13.9179 O   0  0  0  0  0  0  0  0  0  0  0  0
   21.0817  -22.5887  -12.2776 C   0  0  0  0  0  0  0  0  0  0  0  0
   20.9941  -21.4498  -10.8899 S   0  0  0  0  0  0  0  0  0  0  0  0
   22.5036  -20.4199  -10.7645 C   0  0  0  0  0  0  0  0  0  0  0  0
   23.3466  -20.5845  -11.9895 C   0  0  0  0  0  0  0  0  0  0  0  0
   24.6602  -19.8542  -11.8898 C   0  0  2  0  0  0  0  0  0  0  0  0
   25.4071  -20.0888  -13.1544 N   0  0  0  0  0  0  0  0  0  0  0  0
   25.4441  -20.3737  -10.7602 C   0  0  0  0  0  0  0  0  0  0  0  0
   25.5645  -21.6458  -10.6401 O   0  0  0  0  0  0  0  0  0  0  0  0
   29.4766  -20.1275   -4.4277 C   0  0  0  0  0  0  0  0  0  0  0  0
   29.0532  -19.6997   -6.1505 S   0  0  0  0  0  0  0  0  0  0  0  0
   27.2455  -19.4325   -6.2003 C   0  0  0  0  0  0  0  0  0  0  0  0
   26.8811  -19.0504   -7.6008 C   0  0  0  0  0  0  0  0  0  0  0  0
   26.4961  -20.2070   -8.4836 C   0  0  2  0  0  0  0  0  0  0  0  0
   26.1028  -19.6056   -9.7691 N   0  0  0  0  0  0  0  0  0  0  0  0
   25.3542  -20.9148   -7.8894 C   0  0  0  0  0  0  0  0  0  0  0  0
   24.1997  -20.4488   -8.0323 O   0  0  0  0  0  0  0  0  0  0  0  0
   25.5175  -22.0766   -7.1818 O   0  0  0  0  0  0  0  0  0  0  0  0
  2  1  1  6
  3  2  1  0
  4  3  1  0
  5  4  1  0
  5  6  1  0
  7  6  1  0
  8  9  2  0
  8  2  1  0
 10 11  1  0
 11 12  1  0
 12 13  1  0
 14 13  1  6
 14 15  1  0
 15  8  1  0
 16 14  1  0
 17 16  2  0
 18 19  1  0
 20 19  1  0
 22 21  1  1
 21 20  1  0
 22 23  1  0
 23 16  1  0
 24 26  1  0
 24 22  1  0
 25 24  2  0
M  END
$$$$
