KMM.pdb
     RDKit          3D

 26 25  0  0  1  0  0  0  0  0999 V2000
   18.3909  -27.7492   -7.5584 N   0  0  0  0  0  0  0  0  0  0  0  0
   18.2017  -26.7034   -6.6362 C   0  0  1  0  0  0  0  0  0  0  0  0
   17.2155  -25.6303   -7.0031 C   0  0  0  0  0  0  0  0  0  0  0  0
   17.4247  -24.9442   -8.2888 C   0  0  0  0  0  0  0  0  0  0  0  0
   18.2044  -23.6968   -8.3247 C   0  0  0  0  0  0  0  0  0  0  0  0
   18.3337  -23.0134   -9.6381 C   0  0  0  0  0  0  0  0  0  0  0  0
   19.6942  -23.0462  -10.0884 N   0  0  0  0  0  0  0  0  0  0  0  0
   17.9954  -27.1242   -5.2171 C   0  0  0  0  0  0  0  0  0  0  0  0
   17.3773  -28.2310   -5.0546 O   0  0  0  0  0  0  0  0  0  0  0  0
   21.7841  -26.0516    0.2390 C   0  0  0  0  0  0  0  0  0  0  0  0
   20.0663  -25.8684    0.7348 S   0  0  0  0  0  0  0  0  0  0  0  0
   18.9392  -26.7828   -0.3825 C   0  0  0  0  0  0  0  0  0  0  0  0
   19.0002  -26.2094   -1.7630 C   0  0  0  0  0  0  0  0  0  0  0  0
   18.1830  -26.9974   -2.7530 C   0  0  2  0  0  0  0  0  0  0  0  0
   18.4169  -26.4141   -4.1010 N   0  0  0  0  0  0  0  0  0  0  0  0
   16.7541  -26.8982   -2.4231 C   0  0  0  0  0  0  0  0  0  0  0  0
   16.1558  -25.7854   -2.6487 O   0  0  0  0  0  0  0  0  0  0  0  0
   13.0060  -31.4431   -2.8268 C   0  0  0  0  0  0  0  0  0  0  0  0
   12.8183  -30.2430   -4.1889 S   0  0  0  0  0  0  0  0  0  0  0  0
   13.4782  -28.6491   -3.5843 C   0  0  0  0  0  0  0  0  0  0  0  0
   13.7547  -28.7976   -2.1208 C   0  0  0  0  0  0  0  0  0  0  0  0
   14.5392  -27.6648   -1.5154 C   0  0  2  0  0  0  0  0  0  0  0  0
   15.9434  -27.9229   -1.8764 N   0  0  0  0  0  0  0  0  0  0  0  0
   14.3829  -27.6894   -0.0550 C   0  0  0  0  0  0  0  0  0  0  0  0
   15.3520  -28.0323    0.6617 O   0  0  0  0  0  0  0  0  0  0  0  0
   13.2018  -27.3443    0.5477 O   0  0  0  0  0  0  0  0  0  0  0  0
  2  1  1  6
  3  2  1  0
  4  3  1  0
  5  4  1  0
  5  6  1  0
  7  6  1  0
  8  9  2  0
  8  2  1  0
 10 11  1  0
 11 12  1  0
 12 13  1  0
 14 13  1  1
 14 15  1  0
 15  8  1  0
 16 14  1  0
 17 16  2  0
 18 19  1  0
 20 19  1  0
 22 21  1  6
 21 20  1  0
 22 23  1  0
 23 16  1  0
 24 26  1  0
 24 22  1  0
 25 24  2  0
M  END
$$$$
