KMM.pdb
     RDKit          3D

 26 25  0  0  1  0  0  0  0  0999 V2000
   28.0746  -19.3250  -14.4795 N   0  0  0  0  0  0  0  0  0  0  0  0
   27.3998  -20.4651  -14.9535 C   0  0  1  0  0  0  0  0  0  0  0  0
   28.2378  -21.5771  -15.5193 C   0  0  0  0  0  0  0  0  0  0  0  0
   28.9047  -21.3204  -16.8064 C   0  0  0  0  0  0  0  0  0  0  0  0
   28.1152  -20.8214  -17.9436 C   0  0  0  0  0  0  0  0  0  0  0  0
   28.8242  -20.6438  -19.2377 C   0  0  0  0  0  0  0  0  0  0  0  0
   27.9097  -20.2173  -20.2558 N   0  0  0  0  0  0  0  0  0  0  0  0
   26.3574  -21.0240  -14.0401 C   0  0  0  0  0  0  0  0  0  0  0  0
   25.7420  -22.0573  -14.4727 O   0  0  0  0  0  0  0  0  0  0  0  0
   26.9600  -19.2494   -8.1002 C   0  0  0  0  0  0  0  0  0  0  0  0
   26.5906  -21.0028   -8.2383 S   0  0  0  0  0  0  0  0  0  0  0  0
   26.3565  -21.5088   -9.9831 C   0  0  0  0  0  0  0  0  0  0  0  0
   25.1530  -20.8340  -10.5615 C   0  0  0  0  0  0  0  0  0  0  0  0
   24.9436  -21.1709  -12.0145 C   0  0  2  0  0  0  0  0  0  0  0  0
   26.0247  -20.5105  -12.7939 N   0  0  0  0  0  0  0  0  0  0  0  0
   23.6404  -20.6656  -12.4690 C   0  0  0  0  0  0  0  0  0  0  0  0
   23.5291  -19.4110  -12.7155 O   0  0  0  0  0  0  0  0  0  0  0  0
   18.0131  -21.2342  -17.5450 C   0  0  0  0  0  0  0  0  0  0  0  0
   19.5133  -21.8776  -16.7289 S   0  0  0  0  0  0  0  0  0  0  0  0
   19.6637  -21.0013  -15.1317 C   0  0  0  0  0  0  0  0  0  0  0  0
   20.9432  -21.4406  -14.4912 C   0  0  0  0  0  0  0  0  0  0  0  0
   21.2273  -20.7994  -13.1595 C   0  0  2  0  0  0  0  0  0  0  0  0
   22.4668  -21.4310  -12.6762 N   0  0  0  0  0  0  0  0  0  0  0  0
   20.1229  -21.0867  -12.2346 C   0  0  0  0  0  0  0  0  0  0  0  0
   20.2699  -21.9680  -11.3558 O   0  0  0  0  0  0  0  0  0  0  0  0
   18.9319  -20.4131  -12.3054 O   0  0  0  0  0  0  0  0  0  0  0  0
  2  1  1  1
  3  2  1  0
  4  3  1  0
  5  4  1  0
  5  6  1  0
  7  6  1  0
  8  9  2  0
  8  2  1  0
 10 11  1  0
 11 12  1  0
 12 13  1  0
 14 13  1  1
 14 15  1  0
 15  8  1  0
 16 14  1  0
 17 16  2  0
 18 19  1  0
 20 19  1  0
 22 21  1  6
 21 20  1  0
 22 23  1  0
 23 16  1  0
 24 26  1  0
 24 22  1  0
 25 24  2  0
M  END
$$$$
