KMM.pdb
     RDKit          3D

 26 25  0  0  1  0  0  0  0  0999 V2000
   20.6494  -20.9911  -11.7262 N   0  0  0  0  0  0  0  0  0  0  0  0
   21.6192  -21.2994  -12.6980 C   0  0  1  0  0  0  0  0  0  0  0  0
   21.1658  -21.3611  -14.1295 C   0  0  0  0  0  0  0  0  0  0  0  0
   20.2818  -22.4783  -14.5011 C   0  0  0  0  0  0  0  0  0  0  0  0
   20.8714  -23.7716  -14.8820 C   0  0  0  0  0  0  0  0  0  0  0  0
   19.9335  -24.8647  -15.2488 C   0  0  0  0  0  0  0  0  0  0  0  0
   20.6570  -26.0616  -15.5628 N   0  0  0  0  0  0  0  0  0  0  0  0
   22.8981  -20.5326  -12.5991 C   0  0  0  0  0  0  0  0  0  0  0  0
   22.7733  -19.2742  -12.4135 O   0  0  0  0  0  0  0  0  0  0  0  0
   29.3983  -21.7660  -10.9937 C   0  0  0  0  0  0  0  0  0  0  0  0
   27.9468  -22.2119  -10.0321 S   0  0  0  0  0  0  0  0  0  0  0  0
   26.4712  -21.2614  -10.5554 C   0  0  0  0  0  0  0  0  0  0  0  0
   26.4969  -21.0369  -12.0344 C   0  0  0  0  0  0  0  0  0  0  0  0
   25.3469  -20.1886  -12.5105 C   0  0  2  0  0  0  0  0  0  0  0  0
   24.1704  -21.0800  -12.6932 N   0  0  0  0  0  0  0  0  0  0  0  0
   25.6810  -19.5573  -13.7951 C   0  0  0  0  0  0  0  0  0  0  0  0
   25.4065  -20.1961  -14.8739 O   0  0  0  0  0  0  0  0  0  0  0  0
   27.6495  -12.8219  -17.4176 C   0  0  0  0  0  0  0  0  0  0  0  0
   27.1976  -13.7222  -15.8958 S   0  0  0  0  0  0  0  0  0  0  0  0
   27.0332  -15.4845  -16.3528 C   0  0  0  0  0  0  0  0  0  0  0  0
   26.7160  -16.2495  -15.1061 C   0  0  0  0  0  0  0  0  0  0  0  0
   26.4401  -17.7128  -15.3245 C   0  0  2  0  0  0  0  0  0  0  0  0
   26.2813  -18.2876  -13.9779 N   0  0  0  0  0  0  0  0  0  0  0  0
   27.5884  -18.3295  -16.0021 C   0  0  0  0  0  0  0  0  0  0  0  0
   28.5373  -18.7794  -15.3183 O   0  0  0  0  0  0  0  0  0  0  0  0
   27.6495  -18.4285  -17.3673 O   0  0  0  0  0  0  0  0  0  0  0  0
  2  1  1  1
  3  2  1  0
  4  3  1  0
  5  4  1  0
  5  6  1  0
  7  6  1  0
  8  9  2  0
  8  2  1  0
 10 11  1  0
 11 12  1  0
 12 13  1  0
 14 13  1  6
 14 15  1  0
 15  8  1  0
 16 14  1  0
 17 16  2  0
 18 19  1  0
 20 19  1  0
 22 21  1  1
 21 20  1  0
 22 23  1  0
 23 16  1  0
 24 26  1  0
 24 22  1  0
 25 24  2  0
M  END
$$$$
