GEI.pdb
     RDKit          3D

 22 21  0  0  1  0  0  0  0  0999 V2000
    7.5534  -15.4953   17.6126 N   0  0  0  0  0  0  0  0  0  0  0  0
    8.5427  -15.0078   18.5759 C   0  0  0  0  0  0  0  0  0  0  0  0
    8.2373  -15.6392   19.8849 C   0  0  0  0  0  0  0  0  0  0  0  0
    7.0881  -16.1397   20.1324 O   0  0  0  0  0  0  0  0  0  0  0  0
    9.2576  -15.6810   20.8794 N   0  0  0  0  0  0  0  0  0  0  0  0
    9.0095  -16.3586   22.1116 C   0  0  1  0  0  0  0  0  0  0  0  0
    9.8540  -17.6070   22.2674 C   0  0  0  0  0  0  0  0  0  0  0  0
   11.1973  -17.2866   22.8839 C   0  0  0  0  0  0  0  0  0  0  0  0
   12.0188  -18.5095   23.0580 C   0  0  0  0  0  0  0  0  0  0  0  0
   12.6908  -18.9095   22.0560 O   0  0  0  0  0  0  0  0  0  0  0  0
    9.2551  -15.4217   23.2380 C   0  0  0  0  0  0  0  0  0  0  0  0
   10.1759  -14.5594   23.2112 O   0  0  0  0  0  0  0  0  0  0  0  0
   12.0624  -19.1983   24.2562 O   0  0  0  0  0  0  0  0  0  0  0  0
    6.8230  -11.2414   26.6166 C   0  0  0  0  0  0  0  0  0  0  0  0
    7.8449  -12.3452   26.5830 C   0  0  0  0  0  0  0  0  0  0  0  0
    7.5822  -13.4321   25.6042 C   0  0  2  0  0  0  0  0  0  0  0  0
    6.1998  -13.9910   25.8548 C   0  0  0  0  0  0  0  0  0  0  0  0
    8.6177  -14.4990   25.4984 C   0  0  2  0  0  0  0  0  0  0  0  0
    8.4558  -15.4374   24.4372 N   0  0  0  0  0  0  0  0  0  0  0  0
    8.8774  -15.1119   26.8052 C   0  0  0  0  0  0  0  0  0  0  0  0
    9.4091  -14.3716   27.8323 O   0  0  0  0  0  0  0  0  0  0  0  0
    8.6140  -16.3166   26.9893 O   0  0  0  0  0  0  0  0  0  0  0  0
  2  1  1  0
  3  5  1  0
  3  2  1  0
  4  3  2  0
  6  5  1  0
  6 11  1  0
  6  7  1  1
  8  7  1  0
  9  8  1  0
 10  9  2  0
 11 19  1  0
 12 11  2  0
 13  9  1  0
 14 15  1  0
 16 18  1  0
 16 15  1  0
 16 17  1  1
 18 20  1  0
 18 19  1  6
 20 21  1  0
 22 20  2  0
M  END
$$$$
