GEI.pdb
     RDKit          3D

 22 21  0  0  1  0  0  0  0  0999 V2000
    7.5247  -12.6577   18.1512 N   0  0  0  0  0  0  0  0  0  0  0  0
    8.6817  -13.1323   18.9129 C   0  0  0  0  0  0  0  0  0  0  0  0
    8.1867  -14.1237   19.9017 C   0  0  0  0  0  0  0  0  0  0  0  0
    6.9433  -14.3978   20.0066 O   0  0  0  0  0  0  0  0  0  0  0  0
    9.1302  -14.7769   20.7473 N   0  0  0  0  0  0  0  0  0  0  0  0
    8.6676  -15.6995   21.7341 C   0  0  1  0  0  0  0  0  0  0  0  0
    9.1947  -17.1023   21.5089 C   0  0  0  0  0  0  0  0  0  0  0  0
   10.6711  -17.0869   21.1815 C   0  0  0  0  0  0  0  0  0  0  0  0
   11.1760  -18.4515   20.8921 C   0  0  0  0  0  0  0  0  0  0  0  0
   10.4608  -19.4316   21.2710 O   0  0  0  0  0  0  0  0  0  0  0  0
    9.0598  -15.2073   23.0797 C   0  0  0  0  0  0  0  0  0  0  0  0
   10.1913  -14.6986   23.3098 O   0  0  0  0  0  0  0  0  0  0  0  0
   12.3750  -18.6656   20.2375 O   0  0  0  0  0  0  0  0  0  0  0  0
    6.9970  -11.3947   27.1102 C   0  0  0  0  0  0  0  0  0  0  0  0
    7.8168  -12.6454   26.9449 C   0  0  0  0  0  0  0  0  0  0  0  0
    7.4582  -13.4976   25.7814 C   0  0  2  0  0  0  0  0  0  0  0  0
    6.0418  -13.9957   25.9594 C   0  0  0  0  0  0  0  0  0  0  0  0
    8.4089  -14.5933   25.4390 C   0  0  2  0  0  0  0  0  0  0  0  0
    8.1711  -15.2795   24.2120 N   0  0  0  0  0  0  0  0  0  0  0  0
    8.6273  -15.4787   26.5876 C   0  0  0  0  0  0  0  0  0  0  0  0
    9.2644  -15.0197   27.7141 O   0  0  0  0  0  0  0  0  0  0  0  0
    8.2319  -16.6603   26.5445 O   0  0  0  0  0  0  0  0  0  0  0  0
  2  1  1  0
  3  5  1  0
  3  2  1  0
  4  3  2  0
  6  5  1  0
  6 11  1  0
  6  7  1  6
  8  7  1  0
  9  8  1  0
 10  9  2  0
 11 19  1  0
 12 11  2  0
 13  9  1  0
 14 15  1  0
 16 18  1  0
 16 15  1  0
 16 17  1  1
 18 20  1  0
 18 19  1  6
 20 21  1  0
 22 20  2  0
M  END
$$$$
