GEI.pdb
     RDKit          3D

 22 21  0  0  1  0  0  0  0  0999 V2000
    7.1020  -12.9511   18.7089 N   0  0  0  0  0  0  0  0  0  0  0  0
    8.3761  -13.0964   19.4157 C   0  0  0  0  0  0  0  0  0  0  0  0
    8.1650  -14.0696   20.5173 C   0  0  0  0  0  0  0  0  0  0  0  0
    7.0075  -14.2665   21.0211 O   0  0  0  0  0  0  0  0  0  0  0  0
    9.2872  -14.7938   21.0154 N   0  0  0  0  0  0  0  0  0  0  0  0
    9.0946  -15.7690   22.0406 C   0  0  1  0  0  0  0  0  0  0  0  0
    9.9514  -17.0020   21.8367 C   0  0  0  0  0  0  0  0  0  0  0  0
    9.7478  -18.0016   22.9532 C   0  0  0  0  0  0  0  0  0  0  0  0
   10.6042  -19.1992   22.7708 C   0  0  0  0  0  0  0  0  0  0  0  0
   11.3859  -19.5090   23.7239 O   0  0  0  0  0  0  0  0  0  0  0  0
    9.3823  -15.1491   23.3596 C   0  0  0  0  0  0  0  0  0  0  0  0
   10.5298  -14.7281   23.6724 O   0  0  0  0  0  0  0  0  0  0  0  0
   10.5655  -19.9585   21.6158 O   0  0  0  0  0  0  0  0  0  0  0  0
    5.9228  -11.9974   26.8765 C   0  0  0  0  0  0  0  0  0  0  0  0
    6.5186  -13.2441   26.2811 C   0  0  0  0  0  0  0  0  0  0  0  0
    7.9861  -13.2059   26.0501 C   0  0  2  0  0  0  0  0  0  0  0  0
    8.2971  -12.0983   25.0689 C   0  0  0  0  0  0  0  0  0  0  0  0
    8.6368  -14.4947   25.6797 C   0  0  2  0  0  0  0  0  0  0  0  0
    8.3668  -14.9885   24.3696 N   0  0  0  0  0  0  0  0  0  0  0  0
    8.4704  -15.4925   26.7416 C   0  0  0  0  0  0  0  0  0  0  0  0
    8.9319  -15.2469   28.0114 O   0  0  0  0  0  0  0  0  0  0  0  0
    7.9048  -16.5754   26.4929 O   0  0  0  0  0  0  0  0  0  0  0  0
  2  1  1  0
  3  5  1  0
  3  2  1  0
  4  3  2  0
  6  5  1  0
  6 11  1  0
  6  7  1  6
  8  7  1  0
  9  8  1  0
 10  9  2  0
 11 19  1  0
 12 11  2  0
 13  9  1  0
 14 15  1  0
 16 18  1  0
 16 15  1  0
 16 17  1  6
 18 20  1  0
 18 19  1  6
 20 21  1  0
 22 20  2  0
M  END
$$$$
