GEI.pdb
     RDKit          3D

 22 21  0  0  1  0  0  0  0  0999 V2000
    7.3515  -13.1510   18.4798 N   0  0  0  0  0  0  0  0  0  0  0  0
    8.6283  -13.5942   19.0433 C   0  0  0  0  0  0  0  0  0  0  0  0
    8.3262  -14.3691   20.2737 C   0  0  0  0  0  0  0  0  0  0  0  0
    7.1439  -14.4234   20.7545 O   0  0  0  0  0  0  0  0  0  0  0  0
    9.3882  -15.0630   20.9237 N   0  0  0  0  0  0  0  0  0  0  0  0
    9.0933  -15.9307   22.0187 C   0  0  1  0  0  0  0  0  0  0  0  0
    9.9437  -17.1849   22.0103 C   0  0  0  0  0  0  0  0  0  0  0  0
   10.6133  -17.3839   20.6689 C   0  0  0  0  0  0  0  0  0  0  0  0
   11.4754  -18.5912   20.6678 C   0  0  0  0  0  0  0  0  0  0  0  0
   10.9329  -19.6962   20.3514 O   0  0  0  0  0  0  0  0  0  0  0  0
    9.2786  -15.1862   23.2907 C   0  0  0  0  0  0  0  0  0  0  0  0
   10.3039  -14.4881   23.5219 O   0  0  0  0  0  0  0  0  0  0  0  0
   12.8175  -18.5334   20.9958 O   0  0  0  0  0  0  0  0  0  0  0  0
    6.5642  -11.2926   26.9182 C   0  0  0  0  0  0  0  0  0  0  0  0
    7.5250  -12.4490   26.8590 C   0  0  0  0  0  0  0  0  0  0  0  0
    7.3513  -13.3681   25.7043 C   0  0  2  0  0  0  0  0  0  0  0  0
    5.9528  -13.9415   25.7429 C   0  0  0  0  0  0  0  0  0  0  0  0
    8.3933  -14.4188   25.5255 C   0  0  2  0  0  0  0  0  0  0  0  0
    8.2971  -15.2137   24.3458 N   0  0  0  0  0  0  0  0  0  0  0  0
    8.5754  -15.1945   26.7568 C   0  0  0  0  0  0  0  0  0  0  0  0
    8.4008  -16.5565   26.7583 O   0  0  0  0  0  0  0  0  0  0  0  0
    8.8920  -14.6151   27.8144 O   0  0  0  0  0  0  0  0  0  0  0  0
  2  1  1  0
  3  5  1  0
  3  2  1  0
  4  3  2  0
  6  5  1  0
  6 11  1  0
  6  7  1  1
  8  7  1  0
  9  8  1  0
 10  9  2  0
 11 19  1  0
 12 11  2  0
 13  9  1  0
 14 15  1  0
 16 18  1  0
 16 15  1  0
 16 17  1  1
 18 20  1  0
 18 19  1  6
 20 21  1  0
 22 20  2  0
M  END
$$$$
