GEI.pdb
     RDKit          3D

 22 21  0  0  1  0  0  0  0  0999 V2000
   13.1331  -19.1539   27.9542 N   0  0  0  0  0  0  0  0  0  0  0  0
   12.0875  -19.4871   26.9847 C   0  0  0  0  0  0  0  0  0  0  0  0
   11.6647  -18.2209   26.3341 C   0  0  0  0  0  0  0  0  0  0  0  0
   11.7712  -17.0962   26.9307 O   0  0  0  0  0  0  0  0  0  0  0  0
   11.1289  -18.2751   25.0143 N   0  0  0  0  0  0  0  0  0  0  0  0
   10.6819  -17.0721   24.3882 C   0  0  1  0  0  0  0  0  0  0  0  0
   10.5769  -17.2063   22.8825 C   0  0  0  0  0  0  0  0  0  0  0  0
   10.1139  -15.9138   22.2481 C   0  0  0  0  0  0  0  0  0  0  0  0
    9.9726  -16.0524   20.7779 C   0  0  0  0  0  0  0  0  0  0  0  0
    8.8055  -16.2622   20.3203 O   0  0  0  0  0  0  0  0  0  0  0  0
    9.3707  -16.6824   24.9675 C   0  0  0  0  0  0  0  0  0  0  0  0
    8.5117  -17.5332   25.3283 O   0  0  0  0  0  0  0  0  0  0  0  0
   11.0576  -15.9597   19.9256 O   0  0  0  0  0  0  0  0  0  0  0  0
    6.2152  -11.5306   26.8660 C   0  0  0  0  0  0  0  0  0  0  0  0
    6.3192  -13.0079   26.6003 C   0  0  0  0  0  0  0  0  0  0  0  0
    7.5020  -13.4349   25.8085 C   0  0  2  0  0  0  0  0  0  0  0  0
    7.4521  -12.7624   24.4552 C   0  0  0  0  0  0  0  0  0  0  0  0
    7.7423  -14.9025   25.7071 C   0  0  2  0  0  0  0  0  0  0  0  0
    8.9939  -15.3039   25.1547 N   0  0  0  0  0  0  0  0  0  0  0  0
    6.5835  -15.5865   25.1238 C   0  0  0  0  0  0  0  0  0  0  0  0
    5.5175  -15.9509   25.9090 O   0  0  0  0  0  0  0  0  0  0  0  0
    6.5623  -15.8411   23.9035 O   0  0  0  0  0  0  0  0  0  0  0  0
  2  1  1  0
  3  5  1  0
  3  2  1  0
  4  3  2  0
  6  5  1  0
  6 11  1  0
  6  7  1  6
  8  7  1  0
  9  8  1  0
 10  9  2  0
 11 19  1  0
 12 11  2  0
 13  9  1  0
 14 15  1  0
 16 18  1  0
 16 15  1  0
 16 17  1  6
 18 20  1  0
 18 19  1  6
 20 21  1  0
 22 20  2  0
M  END
$$$$
