GEI.pdb
     RDKit          3D

 22 21  0  0  1  0  0  0  0  0999 V2000
   12.0465  -16.1141   18.9050 N   0  0  0  0  0  0  0  0  0  0  0  0
   12.1447  -16.1025   20.3660 C   0  0  0  0  0  0  0  0  0  0  0  0
   10.8357  -15.6427   20.8958 C   0  0  0  0  0  0  0  0  0  0  0  0
   10.4694  -14.4223   20.8020 O   0  0  0  0  0  0  0  0  0  0  0  0
    9.9781  -16.5940   21.5214 N   0  0  0  0  0  0  0  0  0  0  0  0
    8.7163  -16.1690   22.0374 C   0  0  1  0  0  0  0  0  0  0  0  0
    7.6922  -17.2856   22.0578 C   0  0  0  0  0  0  0  0  0  0  0  0
    7.3696  -17.7589   20.6580 C   0  0  0  0  0  0  0  0  0  0  0  0
    6.4878  -18.9517   20.6794 C   0  0  0  0  0  0  0  0  0  0  0  0
    6.2041  -19.4483   21.8145 O   0  0  0  0  0  0  0  0  0  0  0  0
    8.9117  -15.6186   23.4033 C   0  0  0  0  0  0  0  0  0  0  0  0
    9.8009  -16.0529   24.1860 O   0  0  0  0  0  0  0  0  0  0  0  0
    5.9866  -19.5131   19.5193 O   0  0  0  0  0  0  0  0  0  0  0  0
    6.6595  -11.1375   27.2835 C   0  0  0  0  0  0  0  0  0  0  0  0
    7.4811  -12.3623   26.9858 C   0  0  0  0  0  0  0  0  0  0  0  0
    7.2795  -12.9575   25.6392 C   0  0  2  0  0  0  0  0  0  0  0  0
    5.8143  -13.2881   25.4661 C   0  0  0  0  0  0  0  0  0  0  0  0
    8.1680  -14.0972   25.2739 C   0  0  2  0  0  0  0  0  0  0  0  0
    8.0958  -14.5508   23.9241 N   0  0  0  0  0  0  0  0  0  0  0  0
    8.0855  -15.1695   26.2710 C   0  0  0  0  0  0  0  0  0  0  0  0
    7.2250  -16.2249   26.0943 O   0  0  0  0  0  0  0  0  0  0  0  0
    8.8022  -15.1260   27.2903 O   0  0  0  0  0  0  0  0  0  0  0  0
  2  1  1  0
  3  5  1  0
  3  2  1  0
  4  3  2  0
  6  5  1  0
  6 11  1  0
  6  7  1  1
  8  7  1  0
  9  8  1  0
 10  9  2  0
 11 19  1  0
 12 11  2  0
 13  9  1  0
 14 15  1  0
 16 18  1  0
 16 15  1  0
 16 17  1  1
 18 20  1  0
 18 19  1  6
 20 21  1  0
 22 20  2  0
M  END
$$$$
