GEI.pdb
     RDKit          3D

 22 21  0  0  1  0  0  0  0  0999 V2000
    7.4263  -12.9915   18.3531 N   0  0  0  0  0  0  0  0  0  0  0  0
    8.3309  -12.8857   19.4997 C   0  0  0  0  0  0  0  0  0  0  0  0
    8.0637  -14.0473   20.3855 C   0  0  0  0  0  0  0  0  0  0  0  0
    6.8795  -14.4931   20.5624 O   0  0  0  0  0  0  0  0  0  0  0  0
    9.1616  -14.6699   21.0480 N   0  0  0  0  0  0  0  0  0  0  0  0
    8.9110  -15.6909   22.0143 C   0  0  1  0  0  0  0  0  0  0  0  0
    9.7381  -16.9368   21.7694 C   0  0  0  0  0  0  0  0  0  0  0  0
    9.5373  -17.4606   20.3649 C   0  0  0  0  0  0  0  0  0  0  0  0
   10.3759  -18.6570   20.1080 C   0  0  0  0  0  0  0  0  0  0  0  0
   10.2561  -19.2223   18.9760 O   0  0  0  0  0  0  0  0  0  0  0  0
    9.1770  -15.1496   23.3718 C   0  0  0  0  0  0  0  0  0  0  0  0
   10.2574  -14.5689   23.6679 O   0  0  0  0  0  0  0  0  0  0  0  0
   11.2575  -19.1502   21.0523 O   0  0  0  0  0  0  0  0  0  0  0  0
    5.8254  -11.8300   25.7403 C   0  0  0  0  0  0  0  0  0  0  0  0
    6.9267  -12.7319   25.2527 C   0  0  0  0  0  0  0  0  0  0  0  0
    7.4101  -13.7400   26.2317 C   0  0  2  0  0  0  0  0  0  0  0  0
    7.8482  -13.0268   27.4908 C   0  0  0  0  0  0  0  0  0  0  0  0
    8.4304  -14.7098   25.7416 C   0  0  2  0  0  0  0  0  0  0  0  0
    8.2161  -15.2532   24.4410 N   0  0  0  0  0  0  0  0  0  0  0  0
    8.7381  -15.7129   26.7663 C   0  0  0  0  0  0  0  0  0  0  0  0
    9.5524  -15.4024   27.8275 O   0  0  0  0  0  0  0  0  0  0  0  0
    8.2572  -16.8597   26.6766 O   0  0  0  0  0  0  0  0  0  0  0  0
  2  1  1  0
  3  5  1  0
  3  2  1  0
  4  3  2  0
  6  5  1  0
  6 11  1  0
  6  7  1  6
  8  7  1  0
  9  8  1  0
 10  9  2  0
 11 19  1  0
 12 11  2  0
 13  9  1  0
 14 15  1  0
 16 18  1  0
 16 15  1  0
 16 17  1  1
 18 20  1  0
 18 19  1  6
 20 21  1  0
 22 20  2  0
M  END
$$$$
