GEI.pdb
     RDKit          3D

 22 21  0  0  1  0  0  0  0  0999 V2000
    7.1537  -14.0850   18.2436 N   0  0  0  0  0  0  0  0  0  0  0  0
    7.7609  -13.4378   19.4083 C   0  0  0  0  0  0  0  0  0  0  0  0
    7.8296  -14.4493   20.4935 C   0  0  0  0  0  0  0  0  0  0  0  0
    6.8043  -15.1294   20.8376 O   0  0  0  0  0  0  0  0  0  0  0  0
    9.0732  -14.6563   21.1587 N   0  0  0  0  0  0  0  0  0  0  0  0
    9.1783  -15.6810   22.1476 C   0  0  1  0  0  0  0  0  0  0  0  0
   10.2574  -16.6936   21.8212 C   0  0  0  0  0  0  0  0  0  0  0  0
   10.3401  -17.7676   22.8827 C   0  0  0  0  0  0  0  0  0  0  0  0
   11.3731  -18.7792   22.5503 C   0  0  0  0  0  0  0  0  0  0  0  0
   10.9786  -19.8640   22.0182 O   0  0  0  0  0  0  0  0  0  0  0  0
    9.4370  -15.0544   23.4694 C   0  0  0  0  0  0  0  0  0  0  0  0
   10.4405  -14.3204   23.6845 O   0  0  0  0  0  0  0  0  0  0  0  0
   12.7157  -18.5657   22.8033 O   0  0  0  0  0  0  0  0  0  0  0  0
    5.9490  -11.9339   25.7121 C   0  0  0  0  0  0  0  0  0  0  0  0
    7.1088  -12.7825   25.2666 C   0  0  0  0  0  0  0  0  0  0  0  0
    7.6851  -13.6762   26.3047 C   0  0  2  0  0  0  0  0  0  0  0  0
    8.1103  -12.8379   27.4890 C   0  0  0  0  0  0  0  0  0  0  0  0
    8.7532  -14.6151   25.8583 C   0  0  2  0  0  0  0  0  0  0  0  0
    8.5565  -15.2452   24.5944 N   0  0  0  0  0  0  0  0  0  0  0  0
    9.1270  -15.5376   26.9354 C   0  0  0  0  0  0  0  0  0  0  0  0
    9.8283  -15.0905   28.0280 O   0  0  0  0  0  0  0  0  0  0  0  0
    8.8064  -16.7402   26.8619 O   0  0  0  0  0  0  0  0  0  0  0  0
  2  1  1  0
  3  5  1  0
  3  2  1  0
  4  3  2  0
  6  5  1  0
  6 11  1  0
  6  7  1  6
  8  7  1  0
  9  8  1  0
 10  9  2  0
 11 19  1  0
 12 11  2  0
 13  9  1  0
 14 15  1  0
 16 18  1  0
 16 15  1  0
 16 17  1  1
 18 20  1  0
 18 19  1  6
 20 21  1  0
 22 20  2  0
M  END
$$$$
