GEI.pdb
     RDKit          3D

 22 21  0  0  1  0  0  0  0  0999 V2000
    6.6780  -13.0469   19.1858 N   0  0  0  0  0  0  0  0  0  0  0  0
    8.0524  -13.3224   19.6089 C   0  0  0  0  0  0  0  0  0  0  0  0
    7.9869  -14.3049   20.7206 C   0  0  0  0  0  0  0  0  0  0  0  0
    6.8838  -14.5805   21.3033 O   0  0  0  0  0  0  0  0  0  0  0  0
    9.1888  -14.9476   21.1379 N   0  0  0  0  0  0  0  0  0  0  0  0
    9.1430  -15.9001   22.2008 C   0  0  1  0  0  0  0  0  0  0  0  0
   10.1212  -17.0399   22.0009 C   0  0  0  0  0  0  0  0  0  0  0  0
    9.9859  -18.0762   23.0940 C   0  0  0  0  0  0  0  0  0  0  0  0
   10.9542  -19.1852   22.9118 C   0  0  0  0  0  0  0  0  0  0  0  0
   10.6254  -20.3277   23.3613 O   0  0  0  0  0  0  0  0  0  0  0  0
    9.4109  -15.2053   23.4862 C   0  0  0  0  0  0  0  0  0  0  0  0
   10.4449  -14.5070   23.6741 O   0  0  0  0  0  0  0  0  0  0  0  0
   12.1704  -18.9995   22.2806 O   0  0  0  0  0  0  0  0  0  0  0  0
    5.6702  -12.1009   25.5366 C   0  0  0  0  0  0  0  0  0  0  0  0
    6.8767  -12.8987   25.1223 C   0  0  0  0  0  0  0  0  0  0  0  0
    7.5492  -13.6553   26.2102 C   0  0  2  0  0  0  0  0  0  0  0  0
    7.9325  -12.6915   27.3103 C   0  0  0  0  0  0  0  0  0  0  0  0
    8.6796  -14.5394   25.8076 C   0  0  2  0  0  0  0  0  0  0  0  0
    8.5051  -15.2844   24.6045 N   0  0  0  0  0  0  0  0  0  0  0  0
    9.1534  -15.3380   26.9428 C   0  0  0  0  0  0  0  0  0  0  0  0
    9.1736  -16.7093   26.8741 O   0  0  0  0  0  0  0  0  0  0  0  0
    9.5427  -14.7698   27.9821 O   0  0  0  0  0  0  0  0  0  0  0  0
  2  1  1  0
  3  5  1  0
  3  2  1  0
  4  3  2  0
  6  5  1  0
  6 11  1  0
  6  7  1  6
  8  7  1  0
  9  8  1  0
 10  9  2  0
 11 19  1  0
 12 11  2  0
 13  9  1  0
 14 15  1  0
 16 18  1  0
 16 15  1  0
 16 17  1  1
 18 20  1  0
 18 19  1  6
 20 21  1  0
 22 20  2  0
M  END
$$$$
