TMQ.pdb
     RDKit          3D

 25 24  0  0  1  0  0  0  0  0999 V2000
   26.7484  -24.6921  -18.4406 C   0  0  0  0  0  0  0  0  0  0  0  0
   26.0444  -23.7799  -17.4292 C   0  0  1  0  0  0  0  0  0  0  0  0
   24.7180  -23.7112  -17.8142 O   0  0  0  0  0  0  0  0  0  0  0  0
   26.2184  -24.4338  -16.0796 C   0  0  2  0  0  0  0  0  0  0  0  0
   25.6924  -25.7762  -16.0592 N   0  0  0  0  0  0  0  0  0  0  0  0
   25.6613  -23.6005  -14.9850 C   0  0  0  0  0  0  0  0  0  0  0  0
   24.5526  -23.8859  -14.4739 O   0  0  0  0  0  0  0  0  0  0  0  0
   24.2782  -19.8891   -9.4966 C   0  0  0  0  0  0  0  0  0  0  0  0
   25.5951  -20.8550  -10.2584 S   0  0  0  0  0  0  0  0  0  0  0  0
   26.2481  -19.9565  -11.6455 C   0  0  0  0  0  0  0  0  0  0  0  0
   26.6791  -20.7389  -12.8321 C   0  0  0  0  0  0  0  0  0  0  0  0
   25.6757  -21.5836  -13.5108 C   0  0  2  0  0  0  0  0  0  0  0  0
   26.3508  -22.4708  -14.4862 N   0  0  0  0  0  0  0  0  0  0  0  0
   24.5500  -20.9079  -14.1626 C   0  0  0  0  0  0  0  0  0  0  0  0
   24.5077  -20.6461  -15.3658 O   0  0  0  0  0  0  0  0  0  0  0  0
   20.5662  -24.5741  -14.4486 N   0  0  0  0  0  0  0  0  0  0  0  0
   19.6891  -23.4884  -14.6784 C   0  0  0  0  0  0  0  0  0  0  0  0
   18.4788  -23.7499  -15.0123 O   0  0  0  0  0  0  0  0  0  0  0  0
   20.1189  -22.0835  -14.5400 C   0  0  0  0  0  0  0  0  0  0  0  0
   21.5151  -21.8926  -14.0528 C   0  0  0  0  0  0  0  0  0  0  0  0
   22.0434  -20.5016  -13.9890 C   0  0  2  0  0  0  0  0  0  0  0  0
   23.3850  -20.4953  -13.4068 N   0  0  0  0  0  0  0  0  0  0  0  0
   21.2477  -19.4755  -13.3417 C   0  0  0  0  0  0  0  0  0  0  0  0
   21.5545  -19.1092  -12.1478 O   0  0  0  0  0  0  0  0  0  0  0  0
   20.1516  -18.8064  -13.8828 O   0  0  0  0  0  0  0  0  0  0  0  0
  2  4  1  0
  2  1  1  6
  3  2  1  0
  4  6  1  0
  4  5  1  6
  6 13  1  0
  6  7  2  0
  8  9  1  0
 10  9  1  0
 12 11  1  6
 11 10  1  0
 12 14  1  0
 13 12  1  0
 14 15  2  0
 16 17  1  0
 17 18  2  0
 17 19  1  0
 19 20  1  0
 21 20  1  1
 22 21  1  0
 22 14  1  0
 23 21  1  0
 23 25  1  0
 24 23  2  0
M  END
$$$$
