TMQ.pdb
     RDKit          3D

 25 24  0  0  1  0  0  0  0  0999 V2000
   27.7995  -19.2178  -14.6469 C   0  0  0  0  0  0  0  0  0  0  0  0
   27.1095  -20.5823  -14.5349 C   0  0  1  0  0  0  0  0  0  0  0  0
   28.0902  -21.4951  -14.1926 O   0  0  0  0  0  0  0  0  0  0  0  0
   26.0591  -20.4364  -13.4602 C   0  0  2  0  0  0  0  0  0  0  0  0
   25.6813  -21.7100  -12.8995 N   0  0  0  0  0  0  0  0  0  0  0  0
   24.8831  -19.6665  -13.9366 C   0  0  0  0  0  0  0  0  0  0  0  0
   24.6161  -18.5468  -13.4396 O   0  0  0  0  0  0  0  0  0  0  0  0
   22.1715  -16.8058  -18.9501 C   0  0  0  0  0  0  0  0  0  0  0  0
   23.3088  -16.1348  -17.7237 S   0  0  0  0  0  0  0  0  0  0  0  0
   23.9413  -17.4638  -16.7280 C   0  0  0  0  0  0  0  0  0  0  0  0
   23.1707  -18.7332  -16.7033 C   0  0  0  0  0  0  0  0  0  0  0  0
   22.8776  -19.3441  -15.3910 C   0  0  2  0  0  0  0  0  0  0  0  0
   24.0334  -20.1607  -14.9536 N   0  0  0  0  0  0  0  0  0  0  0  0
   21.6482  -20.1331  -15.2700 C   0  0  0  0  0  0  0  0  0  0  0  0
   21.6274  -21.3542  -15.1071 O   0  0  0  0  0  0  0  0  0  0  0  0
   19.4947  -23.6442  -13.0448 N   0  0  0  0  0  0  0  0  0  0  0  0
   18.3408  -22.9246  -12.6558 C   0  0  0  0  0  0  0  0  0  0  0  0
   17.3973  -23.5664  -12.0706 O   0  0  0  0  0  0  0  0  0  0  0  0
   18.1965  -21.4755  -12.8945 C   0  0  0  0  0  0  0  0  0  0  0  0
   19.3601  -20.8236  -13.5610 C   0  0  0  0  0  0  0  0  0  0  0  0
   19.1324  -20.1871  -14.8880 C   0  0  2  0  0  0  0  0  0  0  0  0
   20.3450  -19.5040  -15.3372 N   0  0  0  0  0  0  0  0  0  0  0  0
   18.0024  -19.2926  -15.0550 C   0  0  0  0  0  0  0  0  0  0  0  0
   18.1793  -18.0287  -14.8982 O   0  0  0  0  0  0  0  0  0  0  0  0
   16.6973  -19.6521  -15.3860 O   0  0  0  0  0  0  0  0  0  0  0  0
  2  4  1  0
  2  1  1  1
  3  2  1  0
  4  6  1  0
  4  5  1  6
  6 13  1  0
  6  7  2  0
  8  9  1  0
 10  9  1  0
 12 11  1  6
 11 10  1  0
 12 14  1  0
 13 12  1  0
 14 15  2  0
 16 17  1  0
 17 18  2  0
 17 19  1  0
 19 20  1  0
 21 20  1  1
 22 21  1  0
 22 14  1  0
 23 21  1  0
 23 25  1  0
 24 23  2  0
M  END
$$$$
