TMQ.pdb
     RDKit          3D

 25 24  0  0  1  0  0  0  0  0999 V2000
   20.6137  -22.6392  -12.1783 C   0  0  0  0  0  0  0  0  0  0  0  0
   22.0185  -22.0253  -12.1624 C   0  0  1  0  0  0  0  0  0  0  0  0
   22.2733  -21.5861  -13.4486 O   0  0  0  0  0  0  0  0  0  0  0  0
   21.9717  -20.8917  -11.1663 C   0  0  2  0  0  0  0  0  0  0  0  0
   21.0352  -19.8679  -11.5585 N   0  0  0  0  0  0  0  0  0  0  0  0
   23.3215  -20.3376  -10.8948 C   0  0  0  0  0  0  0  0  0  0  0  0
   23.7739  -19.4011  -11.5951 O   0  0  0  0  0  0  0  0  0  0  0  0
   27.4483  -18.6925   -5.6054 C   0  0  0  0  0  0  0  0  0  0  0  0
   27.9666  -20.2295   -6.3907 S   0  0  0  0  0  0  0  0  0  0  0  0
   27.4485  -20.2180   -8.0905 C   0  0  0  0  0  0  0  0  0  0  0  0
   26.0355  -20.5702   -8.3824 C   0  0  0  0  0  0  0  0  0  0  0  0
   25.5500  -20.4096   -9.7679 C   0  0  2  0  0  0  0  0  0  0  0  0
   24.1347  -20.8384   -9.8515 N   0  0  0  0  0  0  0  0  0  0  0  0
   26.3200  -21.0554  -10.8351 C   0  0  0  0  0  0  0  0  0  0  0  0
   26.5133  -22.2702  -10.9057 O   0  0  0  0  0  0  0  0  0  0  0  0
   25.4421  -24.3227  -14.7075 N   0  0  0  0  0  0  0  0  0  0  0  0
   25.0587  -23.0142  -15.0838 C   0  0  0  0  0  0  0  0  0  0  0  0
   24.0847  -22.8836  -15.9077 O   0  0  0  0  0  0  0  0  0  0  0  0
   25.7333  -21.8119  -14.5575 C   0  0  0  0  0  0  0  0  0  0  0  0
   26.7776  -22.0714  -13.5254 C   0  0  0  0  0  0  0  0  0  0  0  0
   27.5788  -20.9126  -13.0425 C   0  0  2  0  0  0  0  0  0  0  0  0
   26.9176  -20.2792  -11.9022 N   0  0  0  0  0  0  0  0  0  0  0  0
   27.9688  -19.8836  -13.9881 C   0  0  0  0  0  0  0  0  0  0  0  0
   28.6701  -20.2133  -15.0142 O   0  0  0  0  0  0  0  0  0  0  0  0
   27.6554  -18.5275  -13.9197 O   0  0  0  0  0  0  0  0  0  0  0  0
  2  4  1  0
  2  1  1  6
  3  2  1  0
  4  6  1  0
  4  5  1  6
  6 13  1  0
  6  7  2  0
  8  9  1  0
 10  9  1  0
 12 11  1  1
 11 10  1  0
 12 14  1  0
 13 12  1  0
 14 15  2  0
 16 17  1  0
 17 18  2  0
 17 19  1  0
 19 20  1  0
 21 20  1  6
 22 21  1  0
 22 14  1  0
 23 21  1  0
 23 25  1  0
 24 23  2  0
M  END
$$$$
