TMQ.pdb
     RDKit          3D

 25 24  0  0  1  0  0  0  0  0999 V2000
   27.6059  -18.2730  -13.1803 C   0  0  0  0  0  0  0  0  0  0  0  0
   27.6716  -19.5197  -14.0701 C   0  0  1  0  0  0  0  0  0  0  0  0
   28.5690  -19.2364  -15.0833 O   0  0  0  0  0  0  0  0  0  0  0  0
   28.1430  -20.6465  -13.1827 C   0  0  2  0  0  0  0  0  0  0  0  0
   28.5444  -21.8020  -13.9462 N   0  0  0  0  0  0  0  0  0  0  0  0
   27.1415  -20.9871  -12.1416 C   0  0  0  0  0  0  0  0  0  0  0  0
   26.3260  -21.9207  -12.3293 O   0  0  0  0  0  0  0  0  0  0  0  0
   28.5285  -20.8745   -5.3471 C   0  0  0  0  0  0  0  0  0  0  0  0
   27.3538  -19.8373   -6.2371 S   0  0  0  0  0  0  0  0  0  0  0  0
   27.0120  -20.5709   -7.8192 C   0  0  0  0  0  0  0  0  0  0  0  0
   26.1172  -19.8290   -8.7437 C   0  0  0  0  0  0  0  0  0  0  0  0
   25.8589  -20.4088  -10.0772 C   0  0  2  0  0  0  0  0  0  0  0  0
   27.0717  -20.2811  -10.9180 N   0  0  0  0  0  0  0  0  0  0  0  0
   24.6959  -19.9124  -10.8185 C   0  0  0  0  0  0  0  0  0  0  0  0
   24.7539  -19.0378  -11.6844 O   0  0  0  0  0  0  0  0  0  0  0  0
   21.4369  -20.4447  -15.4356 N   0  0  0  0  0  0  0  0  0  0  0  0
   21.3364  -21.6937  -14.7794 C   0  0  0  0  0  0  0  0  0  0  0  0
   20.7647  -22.6586  -15.4014 O   0  0  0  0  0  0  0  0  0  0  0  0
   21.8693  -21.9172  -13.4216 C   0  0  0  0  0  0  0  0  0  0  0  0
   22.6668  -20.7894  -12.8599 C   0  0  0  0  0  0  0  0  0  0  0  0
   22.2753  -20.2610  -11.5237 C   0  0  2  0  0  0  0  0  0  0  0  0
   23.3690  -20.4371  -10.5688 N   0  0  0  0  0  0  0  0  0  0  0  0
   21.0435  -20.7277  -10.9155 C   0  0  0  0  0  0  0  0  0  0  0  0
   21.1012  -21.6410  -10.0122 O   0  0  0  0  0  0  0  0  0  0  0  0
   19.7539  -20.2817  -11.1981 O   0  0  0  0  0  0  0  0  0  0  0  0
  2  4  1  0
  2  1  1  1
  3  2  1  0
  4  6  1  0
  4  5  1  6
  6 13  1  0
  6  7  2  0
  8  9  1  0
 10  9  1  0
 12 11  1  1
 11 10  1  0
 12 14  1  0
 13 12  1  0
 14 15  2  0
 16 17  1  0
 17 18  2  0
 17 19  1  0
 19 20  1  0
 21 20  1  6
 22 21  1  0
 22 14  1  0
 23 21  1  0
 23 25  1  0
 24 23  2  0
M  END
$$$$
