TMQ.pdb
     RDKit          3D

 25 24  0  0  1  0  0  0  0  0999 V2000
   14.3587  -19.2451    4.7827 C   0  0  0  0  0  0  0  0  0  0  0  0
   15.1708  -20.0601    3.7693 C   0  0  1  0  0  0  0  0  0  0  0  0
   14.2644  -20.8274    3.0609 O   0  0  0  0  0  0  0  0  0  0  0  0
   15.8821  -19.0561    2.8944 C   0  0  2  0  0  0  0  0  0  0  0  0
   16.4258  -19.6661    1.7064 N   0  0  0  0  0  0  0  0  0  0  0  0
   16.9080  -18.2935    3.6486 C   0  0  0  0  0  0  0  0  0  0  0  0
   18.0577  -18.7672    3.8090 O   0  0  0  0  0  0  0  0  0  0  0  0
   19.8050  -11.3381    5.7495 C   0  0  0  0  0  0  0  0  0  0  0  0
   18.4606  -12.2087    4.9234 S   0  0  0  0  0  0  0  0  0  0  0  0
   18.5653  -13.9404    5.3085 C   0  0  0  0  0  0  0  0  0  0  0  0
   17.5923  -14.8518    4.6539 C   0  0  0  0  0  0  0  0  0  0  0  0
   17.7023  -16.2991    4.9264 C   0  0  2  0  0  0  0  0  0  0  0  0
   16.6300  -17.0234    4.2054 N   0  0  0  0  0  0  0  0  0  0  0  0
   17.7222  -16.7253    6.3287 C   0  0  0  0  0  0  0  0  0  0  0  0
   16.7307  -17.1268    6.9401 O   0  0  0  0  0  0  0  0  0  0  0  0
   20.4265  -21.6392   10.2822 N   0  0  0  0  0  0  0  0  0  0  0  0
   20.6241  -20.4533    9.5371 C   0  0  0  0  0  0  0  0  0  0  0  0
   21.7523  -20.2899    8.9496 O   0  0  0  0  0  0  0  0  0  0  0  0
   19.5815  -19.4165    9.4123 C   0  0  0  0  0  0  0  0  0  0  0  0
   20.0046  -18.1735    8.7057 C   0  0  0  0  0  0  0  0  0  0  0  0
   18.9841  -17.1075    8.5058 C   0  0  2  0  0  0  0  0  0  0  0  0
   18.9467  -16.6984    7.1022 N   0  0  0  0  0  0  0  0  0  0  0  0
   19.0341  -15.9201    9.3381 C   0  0  0  0  0  0  0  0  0  0  0  0
   19.2874  -14.7848    8.7899 O   0  0  0  0  0  0  0  0  0  0  0  0
   18.8244  -15.8581   10.7144 O   0  0  0  0  0  0  0  0  0  0  0  0
  2  4  1  0
  2  1  1  1
  3  2  1  0
  4  6  1  0
  4  5  1  6
  6 13  1  0
  6  7  2  0
  8  9  1  0
 10  9  1  0
 12 11  1  1
 11 10  1  0
 12 14  1  0
 13 12  1  0
 14 15  2  0
 16 17  1  0
 17 18  2  0
 17 19  1  0
 19 20  1  0
 21 20  1  6
 22 21  1  0
 22 14  1  0
 23 21  1  0
 23 25  1  0
 24 23  2  0
M  END
$$$$
