TMQ.pdb
     RDKit          3D

 25 24  0  0  1  0  0  0  0  0999 V2000
   28.1511  -19.3743  -15.9345 C   0  0  0  0  0  0  0  0  0  0  0  0
   27.1622  -19.6526  -14.7965 C   0  0  1  0  0  0  0  0  0  0  0  0
   25.8949  -19.4773  -15.3213 O   0  0  0  0  0  0  0  0  0  0  0  0
   27.4121  -21.0761  -14.3597 C   0  0  2  0  0  0  0  0  0  0  0  0
   27.0961  -22.0225  -15.4006 N   0  0  0  0  0  0  0  0  0  0  0  0
   26.7173  -21.3946  -13.0874 C   0  0  0  0  0  0  0  0  0  0  0  0
   25.6624  -22.0721  -13.0949 O   0  0  0  0  0  0  0  0  0  0  0  0
   26.1966  -20.0548   -5.2870 C   0  0  0  0  0  0  0  0  0  0  0  0
   27.2382  -19.8926   -6.7487 S   0  0  0  0  0  0  0  0  0  0  0  0
   26.3319  -20.4464   -8.1734 C   0  0  0  0  0  0  0  0  0  0  0  0
   27.0679  -20.5544   -9.4589 C   0  0  0  0  0  0  0  0  0  0  0  0
   26.3066  -20.9304  -10.6673 C   0  0  2  0  0  0  0  0  0  0  0  0
   27.2128  -20.9520  -11.8389 N   0  0  0  0  0  0  0  0  0  0  0  0
   25.1121  -20.1436  -10.9881 C   0  0  0  0  0  0  0  0  0  0  0  0
   25.1418  -19.0365  -11.5278 O   0  0  0  0  0  0  0  0  0  0  0  0
   22.7932  -19.5206  -15.5641 N   0  0  0  0  0  0  0  0  0  0  0  0
   22.4689  -20.7868  -15.0234 C   0  0  0  0  0  0  0  0  0  0  0  0
   22.2992  -21.7649  -15.8355 O   0  0  0  0  0  0  0  0  0  0  0  0
   22.3289  -21.0131  -13.5720 C   0  0  0  0  0  0  0  0  0  0  0  0
   22.7178  -19.8602  -12.7101 C   0  0  0  0  0  0  0  0  0  0  0  0
   22.5820  -20.0194  -11.2356 C   0  0  2  0  0  0  0  0  0  0  0  0
   23.7855  -20.6370  -10.6796 N   0  0  0  0  0  0  0  0  0  0  0  0
   21.4175  -20.7037  -10.7058 C   0  0  0  0  0  0  0  0  0  0  0  0
   20.2478  -20.2395  -10.9701 O   0  0  0  0  0  0  0  0  0  0  0  0
   21.4135  -21.8545   -9.9199 O   0  0  0  0  0  0  0  0  0  0  0  0
  2  4  1  0
  2  1  1  6
  3  2  1  0
  4  6  1  0
  4  5  1  6
  6 13  1  0
  6  7  2  0
  8  9  1  0
 10  9  1  0
 12 11  1  1
 11 10  1  0
 12 14  1  0
 13 12  1  0
 14 15  2  0
 16 17  1  0
 17 18  2  0
 17 19  1  0
 19 20  1  0
 21 20  1  6
 22 21  1  0
 22 14  1  0
 23 21  1  0
 23 25  1  0
 24 23  2  0
M  END
$$$$
