TMQ.pdb
     RDKit          3D

 25 24  0  0  1  0  0  0  0  0999 V2000
   28.4553  -18.8124  -16.7108 C   0  0  0  0  0  0  0  0  0  0  0  0
   27.3148  -19.3179  -15.8195 C   0  0  1  0  0  0  0  0  0  0  0  0
   26.2221  -19.5094  -16.6451 O   0  0  0  0  0  0  0  0  0  0  0  0
   27.8021  -20.6067  -15.2022 C   0  0  2  0  0  0  0  0  0  0  0  0
   28.0846  -21.6090  -16.1996 N   0  0  0  0  0  0  0  0  0  0  0  0
   26.8730  -21.1061  -14.1581 C   0  0  0  0  0  0  0  0  0  0  0  0
   26.2492  -22.1805  -14.3274 O   0  0  0  0  0  0  0  0  0  0  0  0
   27.2734  -20.2702   -7.7647 C   0  0  0  0  0  0  0  0  0  0  0  0
   25.4764  -20.3250   -7.8888 S   0  0  0  0  0  0  0  0  0  0  0  0
   25.0212  -20.7910   -9.5422 C   0  0  0  0  0  0  0  0  0  0  0  0
   25.9488  -20.4225  -10.6419 C   0  0  0  0  0  0  0  0  0  0  0  0
   25.6193  -20.8705  -12.0101 C   0  0  2  0  0  0  0  0  0  0  0  0
   26.6606  -20.3987  -12.9519 N   0  0  0  0  0  0  0  0  0  0  0  0
   24.2943  -20.5277  -12.5349 C   0  0  0  0  0  0  0  0  0  0  0  0
   24.0086  -19.4317  -13.0199 O   0  0  0  0  0  0  0  0  0  0  0  0
   19.2261  -24.6055  -12.7418 N   0  0  0  0  0  0  0  0  0  0  0  0
   18.6868  -23.3441  -13.0866 C   0  0  0  0  0  0  0  0  0  0  0  0
   17.4269  -23.2674  -13.3135 O   0  0  0  0  0  0  0  0  0  0  0  0
   19.5194  -22.1297  -13.1843 C   0  0  0  0  0  0  0  0  0  0  0  0
   20.9610  -22.3211  -12.8554 C   0  0  0  0  0  0  0  0  0  0  0  0
   21.8547  -21.1325  -12.9361 C   0  0  2  0  0  0  0  0  0  0  0  0
   23.2092  -21.4872  -12.5134 N   0  0  0  0  0  0  0  0  0  0  0  0
   21.4604  -19.9085  -12.2643 C   0  0  0  0  0  0  0  0  0  0  0  0
   21.6426  -19.8073  -10.9954 O   0  0  0  0  0  0  0  0  0  0  0  0
   20.8924  -18.7807  -12.8536 O   0  0  0  0  0  0  0  0  0  0  0  0
  2  4  1  0
  2  1  1  6
  3  2  1  0
  4  6  1  0
  4  5  1  6
  6 13  1  0
  6  7  2  0
  8  9  1  0
 10  9  1  0
 12 11  1  1
 11 10  1  0
 12 14  1  0
 13 12  1  0
 14 15  2  0
 16 17  1  0
 17 18  2  0
 17 19  1  0
 19 20  1  0
 21 20  1  1
 22 21  1  0
 22 14  1  0
 23 21  1  0
 23 25  1  0
 24 23  2  0
M  END
$$$$
