TMQ.pdb
     RDKit          3D

 25 24  0  0  1  0  0  0  0  0999 V2000
   25.4280   -8.9112  -20.1783 C   0  0  0  0  0  0  0  0  0  0  0  0
   24.9547   -9.9568  -21.1948 C   0  0  1  0  0  0  0  0  0  0  0  0
   25.9733  -10.1000  -22.1190 O   0  0  0  0  0  0  0  0  0  0  0  0
   24.7062  -11.2235  -20.4118 C   0  0  2  0  0  0  0  0  0  0  0  0
   24.4274  -12.3445  -21.2748 N   0  0  0  0  0  0  0  0  0  0  0  0
   23.6550  -11.0394  -19.3805 C   0  0  0  0  0  0  0  0  0  0  0  0
   22.4705  -10.8060  -19.7188 O   0  0  0  0  0  0  0  0  0  0  0  0
   20.7897  -12.6459  -12.2978 C   0  0  0  0  0  0  0  0  0  0  0  0
   22.0625  -12.9896  -13.5264 S   0  0  0  0  0  0  0  0  0  0  0  0
   22.0119  -11.7345  -14.7835 C   0  0  0  0  0  0  0  0  0  0  0  0
   22.9611  -11.8582  -15.9191 C   0  0  0  0  0  0  0  0  0  0  0  0
   22.8666  -10.8735  -17.0157 C   0  0  2  0  0  0  0  0  0  0  0  0
   23.9469  -11.1192  -17.9989 N   0  0  0  0  0  0  0  0  0  0  0  0
   22.8505   -9.4536  -16.6522 C   0  0  0  0  0  0  0  0  0  0  0  0
   23.8640   -8.7660  -16.5179 O   0  0  0  0  0  0  0  0  0  0  0  0
   20.9386   -4.9708  -19.7266 N   0  0  0  0  0  0  0  0  0  0  0  0
   20.8960   -4.3311  -18.4658 C   0  0  0  0  0  0  0  0  0  0  0  0
   20.6622   -3.0705  -18.4357 O   0  0  0  0  0  0  0  0  0  0  0  0
   21.1030   -5.0635  -17.2016 C   0  0  0  0  0  0  0  0  0  0  0  0
   21.2700   -6.5384  -17.3433 C   0  0  0  0  0  0  0  0  0  0  0  0
   21.5639   -7.3246  -16.1132 C   0  0  2  0  0  0  0  0  0  0  0  0
   21.6032   -8.7536  -16.4223 N   0  0  0  0  0  0  0  0  0  0  0  0
   20.7406   -7.1232  -14.9356 C   0  0  0  0  0  0  0  0  0  0  0  0
   19.7550   -7.9205  -14.7201 O   0  0  0  0  0  0  0  0  0  0  0  0
   20.9006   -6.1345  -13.9666 O   0  0  0  0  0  0  0  0  0  0  0  0
  2  4  1  0
  2  1  1  1
  3  2  1  0
  4  6  1  0
  4  5  1  6
  6 13  1  0
  6  7  2  0
  8  9  1  0
 10  9  1  0
 12 11  1  1
 11 10  1  0
 12 14  1  0
 13 12  1  0
 14 15  2  0
 16 17  1  0
 17 18  2  0
 17 19  1  0
 19 20  1  0
 21 20  1  6
 22 21  1  0
 22 14  1  0
 23 21  1  0
 23 25  1  0
 24 23  2  0
M  END
$$$$
