TMQ.pdb
     RDKit          3D

 25 24  0  0  1  0  0  0  0  0999 V2000
   22.0311  -16.9971  -19.6341 C   0  0  0  0  0  0  0  0  0  0  0  0
   21.5027  -17.9908  -18.5930 C   0  0  1  0  0  0  0  0  0  0  0  0
   21.3858  -19.2107  -19.2335 O   0  0  0  0  0  0  0  0  0  0  0  0
   22.5245  -18.0201  -17.4818 C   0  0  2  0  0  0  0  0  0  0  0  0
   22.2265  -19.0354  -16.5024 N   0  0  0  0  0  0  0  0  0  0  0  0
   22.7063  -16.6840  -16.8618 C   0  0  0  0  0  0  0  0  0  0  0  0
   21.7525  -16.1263  -16.2691 O   0  0  0  0  0  0  0  0  0  0  0  0
   27.8605  -16.2581  -16.3718 C   0  0  0  0  0  0  0  0  0  0  0  0
   26.9523  -16.4686  -14.8295 S   0  0  0  0  0  0  0  0  0  0  0  0
   25.8173  -15.1153  -14.6333 C   0  0  0  0  0  0  0  0  0  0  0  0
   25.3968  -14.3859  -15.8567 C   0  0  0  0  0  0  0  0  0  0  0  0
   24.0352  -14.6250  -16.3763 C   0  0  2  0  0  0  0  0  0  0  0  0
   23.9439  -16.0014  -16.9160 N   0  0  0  0  0  0  0  0  0  0  0  0
   23.5102  -13.6772  -17.3636 C   0  0  0  0  0  0  0  0  0  0  0  0
   23.7803  -13.7149  -18.5651 O   0  0  0  0  0  0  0  0  0  0  0  0
   17.8624  -11.8947  -19.0356 N   0  0  0  0  0  0  0  0  0  0  0  0
   18.1983  -11.7839  -17.6660 C   0  0  0  0  0  0  0  0  0  0  0  0
   17.2497  -11.5888  -16.8253 O   0  0  0  0  0  0  0  0  0  0  0  0
   19.5884  -11.8919  -17.1829 C   0  0  0  0  0  0  0  0  0  0  0  0
   20.6124  -12.1177  -18.2431 C   0  0  0  0  0  0  0  0  0  0  0  0
   22.0136  -11.7049  -17.9533 C   0  0  2  0  0  0  0  0  0  0  0  0
   22.6154  -12.6073  -16.9724 N   0  0  0  0  0  0  0  0  0  0  0  0
   22.2751  -10.3355  -17.5514 C   0  0  0  0  0  0  0  0  0  0  0  0
   22.8557  -10.1164  -16.4252 O   0  0  0  0  0  0  0  0  0  0  0  0
   21.9675   -9.1828  -18.2717 O   0  0  0  0  0  0  0  0  0  0  0  0
  2  4  1  0
  2  1  1  6
  3  2  1  0
  4  6  1  0
  4  5  1  1
  6 13  1  0
  6  7  2  0
  8  9  1  0
 10  9  1  0
 12 11  1  6
 11 10  1  0
 12 14  1  0
 13 12  1  0
 14 15  2  0
 16 17  1  0
 17 18  2  0
 17 19  1  0
 19 20  1  0
 21 20  1  1
 22 21  1  0
 22 14  1  0
 23 21  1  0
 23 25  1  0
 24 23  2  0
M  END
$$$$
