TMQ.pdb
     RDKit          3D

 25 24  0  0  1  0  0  0  0  0999 V2000
   28.2942  -18.7743  -15.8715 C   0  0  0  0  0  0  0  0  0  0  0  0
   27.2837  -19.2196  -14.8080 C   0  0  1  0  0  0  0  0  0  0  0  0
   26.0350  -19.1614  -15.3992 O   0  0  0  0  0  0  0  0  0  0  0  0
   27.6717  -20.6264  -14.4208 C   0  0  2  0  0  0  0  0  0  0  0  0
   27.6079  -21.5309  -15.5419 N   0  0  0  0  0  0  0  0  0  0  0  0
   26.8851  -21.1185  -13.2624 C   0  0  0  0  0  0  0  0  0  0  0  0
   25.9351  -21.9181  -13.4363 O   0  0  0  0  0  0  0  0  0  0  0  0
   28.1742  -20.1788   -6.8221 C   0  0  0  0  0  0  0  0  0  0  0  0
   26.4079  -19.8248   -6.8724 S   0  0  0  0  0  0  0  0  0  0  0  0
   25.7489  -20.3718   -8.4295 C   0  0  0  0  0  0  0  0  0  0  0  0
   26.6568  -20.3579   -9.6048 C   0  0  0  0  0  0  0  0  0  0  0  0
   26.1229  -20.8195  -10.9022 C   0  0  2  0  0  0  0  0  0  0  0  0
   27.1743  -20.7093  -11.9398 N   0  0  0  0  0  0  0  0  0  0  0  0
   24.8892  -20.1949  -11.3884 C   0  0  0  0  0  0  0  0  0  0  0  0
   24.8390  -19.0721  -11.8932 O   0  0  0  0  0  0  0  0  0  0  0  0
   23.2130  -18.6909  -15.6169 N   0  0  0  0  0  0  0  0  0  0  0  0
   22.0337  -19.4719  -15.6189 C   0  0  0  0  0  0  0  0  0  0  0  0
   21.1688  -19.2576  -16.5414 O   0  0  0  0  0  0  0  0  0  0  0  0
   21.7768  -20.5163  -14.6086 C   0  0  0  0  0  0  0  0  0  0  0  0
   22.8527  -20.6930  -13.5916 C   0  0  0  0  0  0  0  0  0  0  0  0
   22.4860  -20.5277  -12.1577 C   0  0  2  0  0  0  0  0  0  0  0  0
   23.6171  -20.8823  -11.3011 N   0  0  0  0  0  0  0  0  0  0  0  0
   21.2944  -21.1858  -11.6555 C   0  0  0  0  0  0  0  0  0  0  0  0
   21.4215  -22.2611  -10.9619 O   0  0  0  0  0  0  0  0  0  0  0  0
   19.9759  -20.7719  -11.8349 O   0  0  0  0  0  0  0  0  0  0  0  0
  2  4  1  0
  2  1  1  6
  3  2  1  0
  4  6  1  0
  4  5  1  6
  6 13  1  0
  6  7  2  0
  8  9  1  0
 10  9  1  0
 12 11  1  1
 11 10  1  0
 12 14  1  0
 13 12  1  0
 14 15  2  0
 16 17  1  0
 17 18  2  0
 17 19  1  0
 19 20  1  0
 21 20  1  6
 22 21  1  0
 22 14  1  0
 23 21  1  0
 23 25  1  0
 24 23  2  0
M  END
$$$$
