TMQ.pdb
     RDKit          3D

 25 24  0  0  1  0  0  0  0  0999 V2000
   28.5585  -19.5767  -17.2199 C   0  0  0  0  0  0  0  0  0  0  0  0
   27.3981  -19.8485  -16.2554 C   0  0  1  0  0  0  0  0  0  0  0  0
   26.2488  -19.8986  -17.0228 O   0  0  0  0  0  0  0  0  0  0  0  0
   27.7035  -21.1689  -15.5901 C   0  0  2  0  0  0  0  0  0  0  0  0
   27.7584  -22.2515  -16.5410 N   0  0  0  0  0  0  0  0  0  0  0  0
   26.7688  -21.4551  -14.4733 C   0  0  0  0  0  0  0  0  0  0  0  0
   25.7312  -22.1299  -14.6736 O   0  0  0  0  0  0  0  0  0  0  0  0
   25.0540  -20.8925   -6.7778 C   0  0  0  0  0  0  0  0  0  0  0  0
   26.2226  -20.3943   -8.0560 S   0  0  0  0  0  0  0  0  0  0  0  0
   25.5665  -20.8343   -9.6478 C   0  0  0  0  0  0  0  0  0  0  0  0
   26.4687  -20.7157  -10.8216 C   0  0  0  0  0  0  0  0  0  0  0  0
   25.9324  -21.0724  -12.1506 C   0  0  2  0  0  0  0  0  0  0  0  0
   27.0110  -20.9839  -13.1619 N   0  0  0  0  0  0  0  0  0  0  0  0
   24.7557  -20.3388  -12.6259 C   0  0  0  0  0  0  0  0  0  0  0  0
   24.8118  -19.3367  -13.3405 O   0  0  0  0  0  0  0  0  0  0  0  0
   23.1786  -21.7931  -17.2242 N   0  0  0  0  0  0  0  0  0  0  0  0
   21.8958  -21.2772  -16.9257 C   0  0  0  0  0  0  0  0  0  0  0  0
   21.0461  -21.1809  -17.8815 O   0  0  0  0  0  0  0  0  0  0  0  0
   21.5103  -20.8593  -15.5641 C   0  0  0  0  0  0  0  0  0  0  0  0
   22.5870  -20.9688  -14.5384 C   0  0  0  0  0  0  0  0  0  0  0  0
   22.2724  -20.5247  -13.1522 C   0  0  2  0  0  0  0  0  0  0  0  0
   23.4162  -20.7619  -12.2721 N   0  0  0  0  0  0  0  0  0  0  0  0
   21.0737  -21.0267  -12.5071 C   0  0  0  0  0  0  0  0  0  0  0  0
   19.9441  -20.4730  -12.7732 O   0  0  0  0  0  0  0  0  0  0  0  0
   20.9948  -22.0847  -11.6035 O   0  0  0  0  0  0  0  0  0  0  0  0
  2  4  1  0
  2  1  1  6
  3  2  1  0
  4  6  1  0
  4  5  1  6
  6 13  1  0
  6  7  2  0
  8  9  1  0
 10  9  1  0
 12 11  1  1
 11 10  1  0
 12 14  1  0
 13 12  1  0
 14 15  2  0
 16 17  1  0
 17 18  2  0
 17 19  1  0
 19 20  1  0
 21 20  1  6
 22 21  1  0
 22 14  1  0
 23 21  1  0
 23 25  1  0
 24 23  2  0
M  END
$$$$
