TMQ.pdb
     RDKit          3D

 25 24  0  0  1  0  0  0  0  0999 V2000
   18.6219  -12.5450  -18.3337 C   0  0  0  0  0  0  0  0  0  0  0  0
   18.3707  -13.5220  -17.1791 C   0  0  1  0  0  0  0  0  0  0  0  0
   17.3746  -14.3841  -17.5995 O   0  0  0  0  0  0  0  0  0  0  0  0
   19.6806  -14.2319  -16.9352 C   0  0  2  0  0  0  0  0  0  0  0  0
   19.5379  -15.3200  -15.9999 N   0  0  0  0  0  0  0  0  0  0  0  0
   20.7545  -13.2893  -16.5338 C   0  0  0  0  0  0  0  0  0  0  0  0
   20.8039  -12.8487  -15.3610 O   0  0  0  0  0  0  0  0  0  0  0  0
   27.1944  -10.1925  -15.4223 C   0  0  0  0  0  0  0  0  0  0  0  0
   26.0384  -11.5441  -15.7131 S   0  0  0  0  0  0  0  0  0  0  0  0
   25.1950  -11.2673  -17.2526 C   0  0  0  0  0  0  0  0  0  0  0  0
   24.0562  -12.1611  -17.5847 C   0  0  0  0  0  0  0  0  0  0  0  0
   22.7310  -11.8399  -17.0175 C   0  0  2  0  0  0  0  0  0  0  0  0
   21.7464  -12.8603  -17.4461 N   0  0  0  0  0  0  0  0  0  0  0  0
   22.1904  -10.5017  -17.2732 C   0  0  0  0  0  0  0  0  0  0  0  0
   21.6115  -10.1803  -18.3123 O   0  0  0  0  0  0  0  0  0  0  0  0
   17.2898   -9.0389  -16.7825 N   0  0  0  0  0  0  0  0  0  0  0  0
   17.7166   -7.7171  -16.5149 C   0  0  0  0  0  0  0  0  0  0  0  0
   16.8206   -6.8127  -16.3603 O   0  0  0  0  0  0  0  0  0  0  0  0
   19.1428   -7.3555  -16.4032 C   0  0  0  0  0  0  0  0  0  0  0  0
   20.0982   -8.4909  -16.5494 C   0  0  0  0  0  0  0  0  0  0  0  0
   21.5506   -8.1996  -16.3962 C   0  0  2  0  0  0  0  0  0  0  0  0
   22.3089   -9.4455  -16.2888 N   0  0  0  0  0  0  0  0  0  0  0  0
   21.9805   -7.2981  -15.3438 C   0  0  0  0  0  0  0  0  0  0  0  0
   21.4590   -6.1246  -15.2764 O   0  0  0  0  0  0  0  0  0  0  0  0
   22.9229   -7.5643  -14.3523 O   0  0  0  0  0  0  0  0  0  0  0  0
  2  4  1  0
  2  1  1  6
  3  2  1  0
  4  6  1  0
  4  5  1  1
  6 13  1  0
  6  7  2  0
  8  9  1  0
 10  9  1  0
 12 11  1  6
 11 10  1  0
 12 14  1  0
 13 12  1  0
 14 15  2  0
 16 17  1  0
 17 18  2  0
 17 19  1  0
 19 20  1  0
 21 20  1  1
 22 21  1  0
 22 14  1  0
 23 21  1  0
 23 25  1  0
 24 23  2  0
M  END
$$$$
