TMQ.pdb
     RDKit          3D

 25 24  0  0  1  0  0  0  0  0999 V2000
   26.9786  -18.6804  -15.4349 C   0  0  0  0  0  0  0  0  0  0  0  0
   27.2029  -19.9292  -16.2956 C   0  0  1  0  0  0  0  0  0  0  0  0
   28.1018  -19.5727  -17.2840 O   0  0  0  0  0  0  0  0  0  0  0  0
   27.7556  -20.9857  -15.3694 C   0  0  2  0  0  0  0  0  0  0  0  0
   28.1052  -22.1928  -16.0763 N   0  0  0  0  0  0  0  0  0  0  0  0
   26.8451  -21.2522  -14.2280 C   0  0  0  0  0  0  0  0  0  0  0  0
   25.9337  -22.1069  -14.3318 O   0  0  0  0  0  0  0  0  0  0  0  0
   25.5038  -21.0818   -6.5914 C   0  0  0  0  0  0  0  0  0  0  0  0
   26.3228  -20.0988   -7.8605 S   0  0  0  0  0  0  0  0  0  0  0  0
   25.6204  -20.4922   -9.4447 C   0  0  0  0  0  0  0  0  0  0  0  0
   26.5032  -20.3886  -10.6346 C   0  0  0  0  0  0  0  0  0  0  0  0
   25.9445  -20.7603  -11.9503 C   0  0  2  0  0  0  0  0  0  0  0  0
   26.9707  -20.5619  -13.0000 N   0  0  0  0  0  0  0  0  0  0  0  0
   24.6937  -20.1165  -12.3619 C   0  0  0  0  0  0  0  0  0  0  0  0
   24.6225  -18.9657  -12.7962 O   0  0  0  0  0  0  0  0  0  0  0  0
   22.9390  -19.6090  -16.8265 N   0  0  0  0  0  0  0  0  0  0  0  0
   23.0029  -20.9163  -16.2901 C   0  0  0  0  0  0  0  0  0  0  0  0
   23.5321  -21.8383  -17.0074 O   0  0  0  0  0  0  0  0  0  0  0  0
   22.4918  -21.2435  -14.9451 C   0  0  0  0  0  0  0  0  0  0  0  0
   22.0550  -20.0733  -14.1307 C   0  0  0  0  0  0  0  0  0  0  0  0
   22.1655  -20.1790  -12.6493 C   0  0  2  0  0  0  0  0  0  0  0  0
   23.4284  -20.8171  -12.2795 N   0  0  0  0  0  0  0  0  0  0  0  0
   21.0890  -20.8067  -11.9062 C   0  0  0  0  0  0  0  0  0  0  0  0
   21.3453  -21.8491  -11.1983 O   0  0  0  0  0  0  0  0  0  0  0  0
   19.7586  -20.3946  -11.8590 O   0  0  0  0  0  0  0  0  0  0  0  0
  2  4  1  0
  2  1  1  1
  3  2  1  0
  4  6  1  0
  4  5  1  6
  6 13  1  0
  6  7  2  0
  8  9  1  0
 10  9  1  0
 12 11  1  1
 11 10  1  0
 12 14  1  0
 13 12  1  0
 14 15  2  0
 16 17  1  0
 17 18  2  0
 17 19  1  0
 19 20  1  0
 21 20  1  6
 22 21  1  0
 22 14  1  0
 23 21  1  0
 23 25  1  0
 24 23  2  0
M  END
$$$$
