TMQ.pdb
     RDKit          3D

 25 24  0  0  1  0  0  0  0  0999 V2000
   19.7394  -11.7503  -17.3528 C   0  0  0  0  0  0  0  0  0  0  0  0
   20.8126  -12.7943  -17.0231 C   0  0  1  0  0  0  0  0  0  0  0  0
   20.3905  -13.9864  -17.5824 O   0  0  0  0  0  0  0  0  0  0  0  0
   22.0945  -12.2908  -17.6418 C   0  0  2  0  0  0  0  0  0  0  0  0
   22.9722  -13.3713  -18.0178 N   0  0  0  0  0  0  0  0  0  0  0  0
   22.7745  -11.2968  -16.7743 C   0  0  0  0  0  0  0  0  0  0  0  0
   22.3650  -11.0901  -15.6075 O   0  0  0  0  0  0  0  0  0  0  0  0
   28.1000  -12.3462  -15.0251 C   0  0  0  0  0  0  0  0  0  0  0  0
   26.7274  -11.1792  -15.0632 S   0  0  0  0  0  0  0  0  0  0  0  0
   26.8053  -10.2381  -16.5687 C   0  0  0  0  0  0  0  0  0  0  0  0
   25.8056   -9.1561  -16.7573 C   0  0  0  0  0  0  0  0  0  0  0  0
   24.4002   -9.4371  -16.4007 C   0  0  2  0  0  0  0  0  0  0  0  0
   23.8925  -10.5576  -17.2259 N   0  0  0  0  0  0  0  0  0  0  0  0
   23.4511   -8.3213  -16.4548 C   0  0  0  0  0  0  0  0  0  0  0  0
   22.8997   -7.9363  -17.4872 O   0  0  0  0  0  0  0  0  0  0  0  0
   18.1263   -7.9193  -16.1355 N   0  0  0  0  0  0  0  0  0  0  0  0
   18.8257   -7.1957  -17.1295 C   0  0  0  0  0  0  0  0  0  0  0  0
   18.2409   -6.9925  -18.2526 O   0  0  0  0  0  0  0  0  0  0  0  0
   20.1870   -6.6694  -16.9118 C   0  0  0  0  0  0  0  0  0  0  0  0
   20.7740   -6.9637  -15.5731 C   0  0  0  0  0  0  0  0  0  0  0  0
   22.1500   -6.4668  -15.2946 C   0  0  2  0  0  0  0  0  0  0  0  0
   23.0947   -7.5828  -15.2607 N   0  0  0  0  0  0  0  0  0  0  0  0
   22.3738   -5.6289  -14.1314 C   0  0  0  0  0  0  0  0  0  0  0  0
   22.0551   -4.3845  -14.1889 O   0  0  0  0  0  0  0  0  0  0  0  0
   22.9068   -6.0282  -12.9073 O   0  0  0  0  0  0  0  0  0  0  0  0
  2  4  1  0
  2  1  1  6
  3  2  1  0
  4  6  1  0
  4  5  1  1
  6 13  1  0
  6  7  2  0
  8  9  1  0
 10  9  1  0
 12 11  1  6
 11 10  1  0
 12 14  1  0
 13 12  1  0
 14 15  2  0
 16 17  1  0
 17 18  2  0
 17 19  1  0
 19 20  1  0
 21 20  1  1
 22 21  1  0
 22 14  1  0
 23 21  1  0
 23 25  1  0
 24 23  2  0
M  END
$$$$
