TMQ.pdb
     RDKit          3D

 25 24  0  0  1  0  0  0  0  0999 V2000
   25.5480  -10.6136  -14.5553 C   0  0  0  0  0  0  0  0  0  0  0  0
   26.0049  -11.2764  -15.8601 C   0  0  1  0  0  0  0  0  0  0  0  0
   27.1627  -11.9731  -15.5662 O   0  0  0  0  0  0  0  0  0  0  0  0
   24.8786  -12.1866  -16.2873 C   0  0  2  0  0  0  0  0  0  0  0  0
   25.2549  -13.0246  -17.3987 N   0  0  0  0  0  0  0  0  0  0  0  0
   23.6291  -11.4322  -16.5563 C   0  0  0  0  0  0  0  0  0  0  0  0
   23.4975  -10.7853  -17.6223 O   0  0  0  0  0  0  0  0  0  0  0  0
   18.9780  -14.9894  -18.1235 C   0  0  0  0  0  0  0  0  0  0  0  0
   19.0750  -14.0038  -16.6179 S   0  0  0  0  0  0  0  0  0  0  0  0
   19.8512  -12.4490  -16.9892 C   0  0  0  0  0  0  0  0  0  0  0  0
   20.1533  -11.5412  -15.8532 C   0  0  0  0  0  0  0  0  0  0  0  0
   21.3298  -10.6553  -15.9640 C   0  0  2  0  0  0  0  0  0  0  0  0
   22.5574  -11.4158  -15.6336 N   0  0  0  0  0  0  0  0  0  0  0  0
   21.3103   -9.4038  -15.2011 C   0  0  0  0  0  0  0  0  0  0  0  0
   21.8841   -9.2465  -14.1222 O   0  0  0  0  0  0  0  0  0  0  0  0
   24.3005   -4.8285  -16.1804 N   0  0  0  0  0  0  0  0  0  0  0  0
   23.3542   -4.1813  -15.3519 C   0  0  0  0  0  0  0  0  0  0  0  0
   23.5986   -2.9781  -14.9814 O   0  0  0  0  0  0  0  0  0  0  0  0
   22.1082   -4.8391  -14.9135 C   0  0  0  0  0  0  0  0  0  0  0  0
   21.8992   -6.2177  -15.4419 C   0  0  0  0  0  0  0  0  0  0  0  0
   20.6736   -6.9468  -15.0126 C   0  0  2  0  0  0  0  0  0  0  0  0
   20.5927   -8.2425  -15.6859 N   0  0  0  0  0  0  0  0  0  0  0  0
   19.3872   -6.2839  -15.1174 C   0  0  0  0  0  0  0  0  0  0  0  0
   19.1492   -5.2635  -14.3720 O   0  0  0  0  0  0  0  0  0  0  0  0
   18.3392   -6.6291  -15.9686 O   0  0  0  0  0  0  0  0  0  0  0  0
  2  4  1  0
  2  1  1  1
  3  2  1  0
  4  6  1  0
  4  5  1  6
  6 13  1  0
  6  7  2  0
  8  9  1  0
 10  9  1  0
 12 11  1  1
 11 10  1  0
 12 14  1  0
 13 12  1  0
 14 15  2  0
 16 17  1  0
 17 18  2  0
 17 19  1  0
 19 20  1  0
 21 20  1  6
 22 21  1  0
 22 14  1  0
 23 21  1  0
 23 25  1  0
 24 23  2  0
M  END
$$$$
