TMQ.pdb
     RDKit          3D

 25 24  0  0  1  0  0  0  0  0999 V2000
   27.1185  -18.3619  -14.5690 C   0  0  0  0  0  0  0  0  0  0  0  0
   27.1354  -19.5805  -15.4992 C   0  0  1  0  0  0  0  0  0  0  0  0
   27.9292  -19.2427  -16.5799 O   0  0  0  0  0  0  0  0  0  0  0  0
   27.7149  -20.7180  -14.6932 C   0  0  2  0  0  0  0  0  0  0  0  0
   27.9416  -21.8904  -15.5013 N   0  0  0  0  0  0  0  0  0  0  0  0
   26.8960  -21.0188  -13.4924 C   0  0  0  0  0  0  0  0  0  0  0  0
   25.9223  -21.8047  -13.5711 O   0  0  0  0  0  0  0  0  0  0  0  0
   25.7679  -20.2157   -5.6954 C   0  0  0  0  0  0  0  0  0  0  0  0
   26.9225  -19.9876   -7.0601 S   0  0  0  0  0  0  0  0  0  0  0  0
   26.1087  -20.3982   -8.5856 C   0  0  0  0  0  0  0  0  0  0  0  0
   26.9066  -20.3170   -9.8357 C   0  0  0  0  0  0  0  0  0  0  0  0
   26.2395  -20.6515  -11.1102 C   0  0  2  0  0  0  0  0  0  0  0  0
   27.1802  -20.4383  -12.2344 N   0  0  0  0  0  0  0  0  0  0  0  0
   24.9674  -19.9855  -11.4046 C   0  0  0  0  0  0  0  0  0  0  0  0
   24.8771  -18.8851  -11.9514 O   0  0  0  0  0  0  0  0  0  0  0  0
   22.7734  -20.4327  -16.0782 N   0  0  0  0  0  0  0  0  0  0  0  0
   22.4299  -21.5986  -15.3548 C   0  0  0  0  0  0  0  0  0  0  0  0
   22.2371  -22.6827  -16.0124 O   0  0  0  0  0  0  0  0  0  0  0  0
   22.2956  -21.6050  -13.8853 C   0  0  0  0  0  0  0  0  0  0  0  0
   22.6304  -20.3172  -13.2124 C   0  0  0  0  0  0  0  0  0  0  0  0
   22.4567  -20.2406  -11.7353 C   0  0  2  0  0  0  0  0  0  0  0  0
   23.7023  -20.6010  -11.0591 N   0  0  0  0  0  0  0  0  0  0  0  0
   21.3621  -20.9648  -11.1168 C   0  0  0  0  0  0  0  0  0  0  0  0
   21.6298  -21.9025  -10.2787 O   0  0  0  0  0  0  0  0  0  0  0  0
   20.0005  -20.7527  -11.3241 O   0  0  0  0  0  0  0  0  0  0  0  0
  2  4  1  0
  2  1  1  1
  3  2  1  0
  4  6  1  0
  4  5  1  6
  6 13  1  0
  6  7  2  0
  8  9  1  0
 10  9  1  0
 12 11  1  1
 11 10  1  0
 12 14  1  0
 13 12  1  0
 14 15  2  0
 16 17  1  0
 17 18  2  0
 17 19  1  0
 19 20  1  0
 21 20  1  6
 22 21  1  0
 22 14  1  0
 23 21  1  0
 23 25  1  0
 24 23  2  0
M  END
$$$$
