TMQ.pdb
     RDKit          3D

 25 24  0  0  1  0  0  0  0  0999 V2000
   28.5161  -17.8499  -15.8725 C   0  0  0  0  0  0  0  0  0  0  0  0
   27.4389  -18.5606  -15.0448 C   0  0  1  0  0  0  0  0  0  0  0  0
   26.3584  -18.7560  -15.8854 O   0  0  0  0  0  0  0  0  0  0  0  0
   28.0514  -19.8612  -14.5837 C   0  0  2  0  0  0  0  0  0  0  0  0
   28.4263  -20.7034  -15.6924 N   0  0  0  0  0  0  0  0  0  0  0  0
   27.1792  -20.5709  -13.6150 C   0  0  0  0  0  0  0  0  0  0  0  0
   26.5603  -21.6051  -13.9603 O   0  0  0  0  0  0  0  0  0  0  0  0
   27.3834  -19.8287   -7.1763 C   0  0  0  0  0  0  0  0  0  0  0  0
   25.7597  -20.6057   -7.2642 S   0  0  0  0  0  0  0  0  0  0  0  0
   25.3775  -20.9646   -8.9621 C   0  0  0  0  0  0  0  0  0  0  0  0
   26.3010  -20.4423  -10.0014 C   0  0  0  0  0  0  0  0  0  0  0  0
   26.0145  -20.7663  -11.4135 C   0  0  2  0  0  0  0  0  0  0  0  0
   27.0170  -20.1130  -12.2867 N   0  0  0  0  0  0  0  0  0  0  0  0
   24.6677  -20.4782  -11.9154 C   0  0  0  0  0  0  0  0  0  0  0  0
   24.3002  -19.3674  -12.3014 O   0  0  0  0  0  0  0  0  0  0  0  0
   21.4578  -24.6454  -15.2966 N   0  0  0  0  0  0  0  0  0  0  0  0
   20.5303  -23.5848  -15.1716 C   0  0  0  0  0  0  0  0  0  0  0  0
   19.4244  -23.6705  -15.8152 O   0  0  0  0  0  0  0  0  0  0  0  0
   20.7921  -22.4025  -14.3284 C   0  0  0  0  0  0  0  0  0  0  0  0
   22.0984  -22.4131  -13.6094 C   0  0  0  0  0  0  0  0  0  0  0  0
   22.3768  -21.3000  -12.6600 C   0  0  2  0  0  0  0  0  0  0  0  0
   23.6584  -21.5147  -11.9890 N   0  0  0  0  0  0  0  0  0  0  0  0
   21.3787  -20.9581  -11.6640 C   0  0  0  0  0  0  0  0  0  0  0  0
   21.4206  -21.5354  -10.5158 O   0  0  0  0  0  0  0  0  0  0  0  0
   20.3430  -20.0364  -11.8048 O   0  0  0  0  0  0  0  0  0  0  0  0
  2  4  1  0
  2  1  1  6
  3  2  1  0
  4  6  1  0
  4  5  1  6
  6 13  1  0
  6  7  2  0
  8  9  1  0
 10  9  1  0
 12 11  1  1
 11 10  1  0
 12 14  1  0
 13 12  1  0
 14 15  2  0
 16 17  1  0
 17 18  2  0
 17 19  1  0
 19 20  1  0
 21 20  1  1
 22 21  1  0
 22 14  1  0
 23 21  1  0
 23 25  1  0
 24 23  2  0
M  END
$$$$
