LFW.pdb
     RDKit          3D

 34 36  0  0  1  0  0  0  0  0999 V2000
   12.4796  -17.9940   14.0061 C   0  0  0  0  0  0  0  0  0  0  0  0
   13.1873  -16.6427   14.1178 C   0  0  2  0  0  0  0  0  0  0  0  0
   14.6358  -16.8451   13.7260 C   0  0  0  0  0  0  0  0  0  0  0  0
   13.0505  -16.0714   15.4945 C   0  0  0  0  0  0  0  0  0  0  0  0
   11.6055  -15.8810   15.8252 C   0  0  2  0  0  0  0  0  0  0  0  0
   10.9265  -14.9622   14.9403 N   0  0  0  0  0  0  0  0  0  0  0  0
   11.3972  -15.4169   17.2234 C   0  0  0  0  0  0  0  0  0  0  0  0
   11.8042  -14.2983   17.6043 O   0  0  0  0  0  0  0  0  0  0  0  0
   10.7338  -16.2341   18.1479 N   0  0  0  0  0  0  0  0  0  0  0  0
   10.5186  -15.8513   19.5664 C   0  0  1  0  0  0  0  0  0  0  0  0
    9.0514  -15.9711   19.7654 C   0  0  0  0  0  0  0  0  0  0  0  0
    8.2622  -14.7579   19.8533 C   0  0  0  0  0  0  0  0  0  0  0  0
    8.0475  -14.0806   21.0225 C   0  0  0  0  0  0  0  0  0  0  0  0
    7.2899  -12.9249   21.0994 C   0  0  0  0  0  0  0  0  0  0  0  0
    6.7166  -12.4113   19.9728 C   0  0  0  0  0  0  0  0  0  0  0  0
    6.9162  -13.0789   18.7614 C   0  0  0  0  0  0  0  0  0  0  0  0
    7.6758  -14.2279   18.7160 C   0  0  0  0  0  0  0  0  0  0  0  0
   11.2696  -16.8303   20.3701 C   0  0  0  0  0  0  0  0  0  0  0  0
   11.3330  -18.0393   19.9734 O   0  0  0  0  0  0  0  0  0  0  0  0
   11.9593  -16.5685   21.5770 N   0  0  0  0  0  0  0  0  0  0  0  0
   13.4057  -16.4121   21.6300 C   0  0  1  0  0  0  0  0  0  0  0  0
   13.8948  -15.6438   20.4160 C   0  0  0  0  0  0  0  0  0  0  0  0
   15.3537  -15.6347   20.3217 C   0  0  0  0  0  0  0  0  0  0  0  0
   16.2086  -16.4646   20.9931 C   0  0  0  0  0  0  0  0  0  0  0  0
   17.4531  -16.1170   20.6337 N   0  0  0  0  0  0  0  0  0  0  0  0
   17.4168  -15.0913   19.7540 C   0  0  0  0  0  0  0  0  0  0  0  0
   18.4074  -14.3780   19.0933 C   0  0  0  0  0  0  0  0  0  0  0  0
   18.0456  -13.3603   18.2372 C   0  0  0  0  0  0  0  0  0  0  0  0
   16.7300  -13.0260   18.0139 C   0  0  0  0  0  0  0  0  0  0  0  0
   15.7403  -13.7306   18.6670 C   0  0  0  0  0  0  0  0  0  0  0  0
   16.1007  -14.7552   19.5293 C   0  0  0  0  0  0  0  0  0  0  0  0
   13.8688  -15.7014   22.8396 C   0  0  0  0  0  0  0  0  0  0  0  0
   13.2698  -14.7601   23.4026 O   0  0  0  0  0  0  0  0  0  0  0  0
   15.0817  -16.1330   23.3886 O   0  0  0  0  0  0  0  0  0  0  0  0
  2  3  1  1
  2  1  1  0
  4  2  1  0
  5  6  1  6
  5  4  1  0
  7  5  1  0
  8  7  2  0
  9  7  1  0
 10  9  1  0
 11 12  1  0
 10 11  1  1
 12 17  2  0
 13 14  2  0
 13 12  1  0
 14 15  1  0
 15 16  2  0
 17 16  1  0
 18 10  1  0
 18 20  1  0
 19 18  2  0
 21 20  1  0
 21 22  1  6
 22 23  1  0
 23 31  1  0
 24 23  2  0
 24 25  1  0
 25 26  1  0
 26 27  2  0
 27 28  1  0
 29 28  2  0
 30 29  1  0
 31 30  2  0
 31 26  1  0
 32 34  1  0
 32 21  1  0
 33 32  2  0
M  END
$$$$
