LFW.pdb
     RDKit          3D

 34 36  0  0  1  0  0  0  0  0999 V2000
   11.0297  -18.4721   15.8024 C   0  0  0  0  0  0  0  0  0  0  0  0
   10.5060  -17.0597   16.0677 C   0  0  2  0  0  0  0  0  0  0  0  0
   10.9659  -16.1742   14.9290 C   0  0  0  0  0  0  0  0  0  0  0  0
   10.9670  -16.5518   17.3981 C   0  0  0  0  0  0  0  0  0  0  0  0
   10.1559  -17.1730   18.4890 C   0  0  2  0  0  0  0  0  0  0  0  0
    8.7867  -17.4387   18.1110 N   0  0  0  0  0  0  0  0  0  0  0  0
   10.1429  -16.3503   19.7286 C   0  0  0  0  0  0  0  0  0  0  0  0
   11.1120  -15.6236   20.0366 O   0  0  0  0  0  0  0  0  0  0  0  0
    9.0322  -16.3756   20.5820 N   0  0  0  0  0  0  0  0  0  0  0  0
    8.9984  -15.6847   21.8959 C   0  0  1  0  0  0  0  0  0  0  0  0
    7.5584  -15.4081   22.1338 C   0  0  0  0  0  0  0  0  0  0  0  0
    7.1705  -14.7729   23.3780 C   0  0  0  0  0  0  0  0  0  0  0  0
    7.4127  -13.4563   23.6604 C   0  0  0  0  0  0  0  0  0  0  0  0
    7.0427  -12.8574   24.8521 C   0  0  0  0  0  0  0  0  0  0  0  0
    6.4042  -13.5884   25.8111 C   0  0  0  0  0  0  0  0  0  0  0  0
    6.1413  -14.9368   25.5545 C   0  0  0  0  0  0  0  0  0  0  0  0
    6.5219  -15.5054   24.3582 C   0  0  0  0  0  0  0  0  0  0  0  0
    9.5488  -16.6402   22.8719 C   0  0  0  0  0  0  0  0  0  0  0  0
    9.3235  -17.8843   22.7159 O   0  0  0  0  0  0  0  0  0  0  0  0
   10.3340  -16.3203   24.0042 N   0  0  0  0  0  0  0  0  0  0  0  0
   11.0301  -17.3351   24.7819 C   0  0  1  0  0  0  0  0  0  0  0  0
   11.6012  -16.7247   26.0487 C   0  0  0  0  0  0  0  0  0  0  0  0
   10.5557  -16.2066   26.9296 C   0  0  0  0  0  0  0  0  0  0  0  0
    9.3092  -16.7425   27.1008 C   0  0  0  0  0  0  0  0  0  0  0  0
    8.6651  -15.9603   27.9793 N   0  0  0  0  0  0  0  0  0  0  0  0
    9.4632  -14.9428   28.3728 C   0  0  0  0  0  0  0  0  0  0  0  0
    9.2786  -13.8816   29.2482 C   0  0  0  0  0  0  0  0  0  0  0  0
   10.3071  -12.9855   29.4447 C   0  0  0  0  0  0  0  0  0  0  0  0
   11.5162  -13.1076   28.7999 C   0  0  0  0  0  0  0  0  0  0  0  0
   11.7067  -14.1596   27.9287 C   0  0  0  0  0  0  0  0  0  0  0  0
   10.6738  -15.0633   27.7283 C   0  0  0  0  0  0  0  0  0  0  0  0
   10.1622  -18.4664   25.1689 C   0  0  0  0  0  0  0  0  0  0  0  0
   10.5578  -19.5702   25.6012 O   0  0  0  0  0  0  0  0  0  0  0  0
    8.7833  -18.2667   25.0352 O   0  0  0  0  0  0  0  0  0  0  0  0
  2  3  1  6
  2  1  1  0
  4  2  1  0
  5  6  1  6
  5  4  1  0
  7  5  1  0
  8  7  2  0
  9  7  1  0
 10  9  1  0
 11 12  1  0
 10 11  1  1
 12 17  2  0
 13 14  2  0
 13 12  1  0
 14 15  1  0
 15 16  2  0
 17 16  1  0
 18 10  1  0
 18 20  1  0
 19 18  2  0
 21 20  1  0
 21 22  1  1
 22 23  1  0
 23 31  1  0
 24 23  2  0
 24 25  1  0
 25 26  1  0
 26 27  2  0
 27 28  1  0
 29 28  2  0
 30 29  1  0
 31 30  2  0
 31 26  1  0
 32 34  1  0
 32 21  1  0
 33 32  2  0
M  END
$$$$
