LFW.pdb
     RDKit          3D

 34 36  0  0  1  0  0  0  0  0999 V2000
    8.1699  -19.5526   17.4430 C   0  0  0  0  0  0  0  0  0  0  0  0
    7.9558  -18.0411   17.5383 C   0  0  2  0  0  0  0  0  0  0  0  0
    7.6126  -17.5341   16.1535 C   0  0  0  0  0  0  0  0  0  0  0  0
    9.1604  -17.3579   18.1060 C   0  0  0  0  0  0  0  0  0  0  0  0
    9.3711  -17.7901   19.5211 C   0  0  2  0  0  0  0  0  0  0  0  0
    8.2495  -18.5114   20.0779 N   0  0  0  0  0  0  0  0  0  0  0  0
    9.6834  -16.6502   20.4248 C   0  0  0  0  0  0  0  0  0  0  0  0
   10.5922  -15.8361   20.1538 O   0  0  0  0  0  0  0  0  0  0  0  0
    8.9565  -16.4669   21.6083 N   0  0  0  0  0  0  0  0  0  0  0  0
    9.2070  -15.3493   22.5534 C   0  0  1  0  0  0  0  0  0  0  0  0
    7.8967  -15.1207   23.2147 C   0  0  0  0  0  0  0  0  0  0  0  0
    7.8221  -14.1501   24.2892 C   0  0  0  0  0  0  0  0  0  0  0  0
    8.2435  -12.8543   24.1659 C   0  0  0  0  0  0  0  0  0  0  0  0
    8.1725  -11.9340   25.1973 C   0  0  0  0  0  0  0  0  0  0  0  0
    7.6629  -12.3062   26.4069 C   0  0  0  0  0  0  0  0  0  0  0  0
    7.2233  -13.6232   26.5667 C   0  0  0  0  0  0  0  0  0  0  0  0
    7.3066  -14.5171   25.5211 C   0  0  0  0  0  0  0  0  0  0  0  0
   10.2276  -15.8359   23.4968 C   0  0  0  0  0  0  0  0  0  0  0  0
   11.3395  -15.2194   23.5790 O   0  0  0  0  0  0  0  0  0  0  0  0
   10.1061  -16.9508   24.3589 N   0  0  0  0  0  0  0  0  0  0  0  0
   11.1271  -17.2937   25.3382 C   0  0  1  0  0  0  0  0  0  0  0  0
   10.5275  -18.1399   26.4463 C   0  0  0  0  0  0  0  0  0  0  0  0
   10.2210  -17.3497   27.6375 C   0  0  0  0  0  0  0  0  0  0  0  0
   10.5623  -17.6669   28.9233 C   0  0  0  0  0  0  0  0  0  0  0  0
   10.0832  -16.6897   29.7069 N   0  0  0  0  0  0  0  0  0  0  0  0
    9.4473  -15.7600   28.9596 C   0  0  0  0  0  0  0  0  0  0  0  0
    8.7917  -14.5788   29.2782 C   0  0  0  0  0  0  0  0  0  0  0  0
    8.2289  -13.8287   28.2682 C   0  0  0  0  0  0  0  0  0  0  0  0
    8.2951  -14.2125   26.9488 C   0  0  0  0  0  0  0  0  0  0  0  0
    8.9450  -15.3851   26.6248 C   0  0  0  0  0  0  0  0  0  0  0  0
    9.5125  -16.1425   27.6386 C   0  0  0  0  0  0  0  0  0  0  0  0
   12.2628  -18.0382   24.7563 C   0  0  0  0  0  0  0  0  0  0  0  0
   13.3410  -18.2878   25.3367 O   0  0  0  0  0  0  0  0  0  0  0  0
   12.0992  -18.4964   23.4439 O   0  0  0  0  0  0  0  0  0  0  0  0
  2  3  1  6
  2  1  1  0
  4  2  1  0
  5  6  1  1
  5  4  1  0
  7  5  1  0
  8  7  2  0
  9  7  1  0
 10  9  1  0
 11 12  1  0
 10 11  1  1
 12 17  2  0
 13 14  2  0
 13 12  1  0
 14 15  1  0
 15 16  2  0
 17 16  1  0
 18 10  1  0
 18 20  1  0
 19 18  2  0
 21 20  1  0
 21 22  1  1
 22 23  1  0
 23 31  1  0
 24 23  2  0
 24 25  1  0
 25 26  1  0
 26 27  2  0
 27 28  1  0
 29 28  2  0
 30 29  1  0
 31 30  2  0
 31 26  1  0
 32 34  1  0
 32 21  1  0
 33 32  2  0
M  END
$$$$
