LFW.pdb
     RDKit          3D

 34 36  0  0  1  0  0  0  0  0999 V2000
    9.2926  -17.8539   16.2832 C   0  0  0  0  0  0  0  0  0  0  0  0
    8.4191  -16.6314   16.5695 C   0  0  2  0  0  0  0  0  0  0  0  0
    8.2850  -15.8466   15.2816 C   0  0  0  0  0  0  0  0  0  0  0  0
    8.9921  -15.8033   17.6769 C   0  0  0  0  0  0  0  0  0  0  0  0
    9.0204  -16.5965   18.9433 C   0  0  2  0  0  0  0  0  0  0  0  0
    7.7761  -17.2735   19.2288 N   0  0  0  0  0  0  0  0  0  0  0  0
    9.3793  -15.7686   20.1264 C   0  0  0  0  0  0  0  0  0  0  0  0
   10.4604  -15.1439   20.1785 O   0  0  0  0  0  0  0  0  0  0  0  0
    8.5023  -15.6736   21.2148 N   0  0  0  0  0  0  0  0  0  0  0  0
    8.7911  -14.8637   22.4254 C   0  0  1  0  0  0  0  0  0  0  0  0
    7.4533  -14.5410   22.9847 C   0  0  0  0  0  0  0  0  0  0  0  0
    7.3823  -13.8377   24.2506 C   0  0  0  0  0  0  0  0  0  0  0  0
    6.7239  -14.3230   25.3474 C   0  0  0  0  0  0  0  0  0  0  0  0
    6.6572  -13.6443   26.5518 C   0  0  0  0  0  0  0  0  0  0  0  0
    7.2671  -12.4309   26.6833 C   0  0  0  0  0  0  0  0  0  0  0  0
    7.9486  -11.9062   25.5817 C   0  0  0  0  0  0  0  0  0  0  0  0
    7.9978  -12.6055   24.3952 C   0  0  0  0  0  0  0  0  0  0  0  0
    9.5717  -15.7345   23.3203 C   0  0  0  0  0  0  0  0  0  0  0  0
    9.2981  -16.9778   23.3687 O   0  0  0  0  0  0  0  0  0  0  0  0
   10.6354  -15.3313   24.1610 N   0  0  0  0  0  0  0  0  0  0  0  0
   11.5460  -16.2851   24.7777 C   0  0  1  0  0  0  0  0  0  0  0  0
   10.7639  -17.4120   25.4272 C   0  0  0  0  0  0  0  0  0  0  0  0
    9.7830  -16.9165   26.3916 C   0  0  0  0  0  0  0  0  0  0  0  0
    8.5142  -17.3958   26.5672 C   0  0  0  0  0  0  0  0  0  0  0  0
    7.9493  -16.6595   27.5354 N   0  0  0  0  0  0  0  0  0  0  0  0
    8.8193  -15.7263   27.9816 C   0  0  0  0  0  0  0  0  0  0  0  0
    8.7290  -14.7378   28.9518 C   0  0  0  0  0  0  0  0  0  0  0  0
    9.8147  -13.9207   29.1822 C   0  0  0  0  0  0  0  0  0  0  0  0
   10.9904  -14.0521   28.4802 C   0  0  0  0  0  0  0  0  0  0  0  0
   11.0874  -15.0322   27.5147 C   0  0  0  0  0  0  0  0  0  0  0  0
    9.9968  -15.8563   27.2801 C   0  0  0  0  0  0  0  0  0  0  0  0
   12.4987  -16.8814   23.8189 C   0  0  0  0  0  0  0  0  0  0  0  0
   12.1942  -17.4229   22.7345 O   0  0  0  0  0  0  0  0  0  0  0  0
   13.8523  -16.8248   24.1702 O   0  0  0  0  0  0  0  0  0  0  0  0
  2  3  1  6
  2  1  1  0
  4  2  1  0
  5  6  1  1
  5  4  1  0
  7  5  1  0
  8  7  2  0
  9  7  1  0
 10  9  1  0
 11 12  1  0
 10 11  1  1
 12 17  2  0
 13 14  2  0
 13 12  1  0
 14 15  1  0
 15 16  2  0
 17 16  1  0
 18 10  1  0
 18 20  1  0
 19 18  2  0
 21 20  1  0
 21 22  1  6
 22 23  1  0
 23 31  1  0
 24 23  2  0
 24 25  1  0
 25 26  1  0
 26 27  2  0
 27 28  1  0
 29 28  2  0
 30 29  1  0
 31 30  2  0
 31 26  1  0
 32 34  1  0
 32 21  1  0
 33 32  2  0
M  END
$$$$
