LFW.pdb
     RDKit          3D

 34 36  0  0  1  0  0  0  0  0999 V2000
    9.2726  -19.9682   17.7583 C   0  0  0  0  0  0  0  0  0  0  0  0
    8.2164  -18.8708   17.6184 C   0  0  2  0  0  0  0  0  0  0  0  0
    7.9117  -18.7069   16.1443 C   0  0  0  0  0  0  0  0  0  0  0  0
    8.6776  -17.5917   18.2441 C   0  0  0  0  0  0  0  0  0  0  0  0
    8.8586  -17.7811   19.7155 C   0  0  2  0  0  0  0  0  0  0  0  0
    7.8189  -18.5763   20.3278 N   0  0  0  0  0  0  0  0  0  0  0  0
    8.9473  -16.4901   20.4496 C   0  0  0  0  0  0  0  0  0  0  0  0
    9.5902  -15.5228   19.9881 O   0  0  0  0  0  0  0  0  0  0  0  0
    8.3048  -16.3338   21.6848 N   0  0  0  0  0  0  0  0  0  0  0  0
    8.4241  -15.1091   22.5159 C   0  0  1  0  0  0  0  0  0  0  0  0
    7.1550  -15.0573   23.2861 C   0  0  0  0  0  0  0  0  0  0  0  0
    7.0454  -14.1113   24.3794 C   0  0  0  0  0  0  0  0  0  0  0  0
    6.4138  -14.3926   25.5600 C   0  0  0  0  0  0  0  0  0  0  0  0
    6.3100  -13.4832   26.5982 C   0  0  0  0  0  0  0  0  0  0  0  0
    6.8533  -12.2383   26.4687 C   0  0  0  0  0  0  0  0  0  0  0  0
    7.5059  -11.9183   25.2750 C   0  0  0  0  0  0  0  0  0  0  0  0
    7.5933  -12.8451   24.2587 C   0  0  0  0  0  0  0  0  0  0  0  0
    9.5932  -15.3207   23.3859 C   0  0  0  0  0  0  0  0  0  0  0  0
   10.2164  -14.3081   23.8435 O   0  0  0  0  0  0  0  0  0  0  0  0
   10.1197  -16.5697   23.7905 N   0  0  0  0  0  0  0  0  0  0  0  0
   11.3387  -16.6835   24.5780 C   0  0  1  0  0  0  0  0  0  0  0  0
   11.0961  -17.5546   25.7969 C   0  0  0  0  0  0  0  0  0  0  0  0
   10.0278  -17.0286   26.6453 C   0  0  0  0  0  0  0  0  0  0  0  0
    8.7764  -17.5616   26.7867 C   0  0  0  0  0  0  0  0  0  0  0  0
    8.1099  -16.7720   27.6415 N   0  0  0  0  0  0  0  0  0  0  0  0
    8.8985  -15.7526   28.0489 C   0  0  0  0  0  0  0  0  0  0  0  0
    8.6918  -14.6846   28.9110 C   0  0  0  0  0  0  0  0  0  0  0  0
    9.7159  -13.7883   29.1287 C   0  0  0  0  0  0  0  0  0  0  0  0
   10.9419  -13.9167   28.5178 C   0  0  0  0  0  0  0  0  0  0  0  0
   11.1544  -14.9756   27.6599 C   0  0  0  0  0  0  0  0  0  0  0  0
   10.1260  -15.8794   27.4384 C   0  0  0  0  0  0  0  0  0  0  0  0
   12.4679  -17.2603   23.8197 C   0  0  0  0  0  0  0  0  0  0  0  0
   13.6543  -17.3097   24.2094 O   0  0  0  0  0  0  0  0  0  0  0  0
   12.1646  -17.7934   22.5616 O   0  0  0  0  0  0  0  0  0  0  0  0
  2  3  1  6
  2  1  1  0
  4  2  1  0
  5  6  1  1
  5  4  1  0
  7  5  1  0
  8  7  2  0
  9  7  1  0
 10  9  1  0
 11 12  1  0
 10 11  1  1
 12 17  2  0
 13 14  2  0
 13 12  1  0
 14 15  1  0
 15 16  2  0
 17 16  1  0
 18 10  1  0
 18 20  1  0
 19 18  2  0
 21 20  1  0
 21 22  1  1
 22 23  1  0
 23 31  1  0
 24 23  2  0
 24 25  1  0
 25 26  1  0
 26 27  2  0
 27 28  1  0
 29 28  2  0
 30 29  1  0
 31 30  2  0
 31 26  1  0
 32 34  1  0
 32 21  1  0
 33 32  2  0
M  END
$$$$
