LFW.pdb
     RDKit          3D

 34 36  0  0  1  0  0  0  0  0999 V2000
    8.9251  -20.6840   18.7324 C   0  0  0  0  0  0  0  0  0  0  0  0
    8.3736  -19.3011   18.3819 C   0  0  2  0  0  0  0  0  0  0  0  0
    8.2232  -19.2307   16.8769 C   0  0  0  0  0  0  0  0  0  0  0  0
    9.2571  -18.2151   18.9113 C   0  0  0  0  0  0  0  0  0  0  0  0
    9.3234  -18.2943   20.4023 C   0  0  2  0  0  0  0  0  0  0  0  0
    8.0483  -18.5711   21.0233 N   0  0  0  0  0  0  0  0  0  0  0  0
    9.8779  -17.0569   21.0147 C   0  0  0  0  0  0  0  0  0  0  0  0
   10.9801  -16.5909   20.6540 O   0  0  0  0  0  0  0  0  0  0  0  0
    9.1669  -16.3847   22.0173 N   0  0  0  0  0  0  0  0  0  0  0  0
    9.6319  -15.1172   22.6356 C   0  0  1  0  0  0  0  0  0  0  0  0
    8.4333  -14.2398   22.6316 C   0  0  0  0  0  0  0  0  0  0  0  0
    7.8940  -13.8083   21.3568 C   0  0  0  0  0  0  0  0  0  0  0  0
    6.7887  -14.3683   20.7767 C   0  0  0  0  0  0  0  0  0  0  0  0
    6.2816  -13.9535   19.5575 C   0  0  0  0  0  0  0  0  0  0  0  0
    6.8906  -12.9398   18.8771 C   0  0  0  0  0  0  0  0  0  0  0  0
    8.0225  -12.3455   19.4418 C   0  0  0  0  0  0  0  0  0  0  0  0
    8.5043  -12.7802   20.6577 C   0  0  0  0  0  0  0  0  0  0  0  0
   10.0612  -15.4646   24.0007 C   0  0  0  0  0  0  0  0  0  0  0  0
   10.7656  -14.6320   24.6594 O   0  0  0  0  0  0  0  0  0  0  0  0
    9.7639  -16.6625   24.6916 N   0  0  0  0  0  0  0  0  0  0  0  0
   10.0815  -16.8494   26.1000 C   0  0  1  0  0  0  0  0  0  0  0  0
    8.8156  -17.1240   26.8909 C   0  0  0  0  0  0  0  0  0  0  0  0
    7.7464  -16.1826   26.5623 C   0  0  0  0  0  0  0  0  0  0  0  0
    6.5672  -16.4892   25.9410 C   0  0  0  0  0  0  0  0  0  0  0  0
    5.8804  -15.3437   25.8198 N   0  0  0  0  0  0  0  0  0  0  0  0
    6.5859  -14.3172   26.3449 C   0  0  0  0  0  0  0  0  0  0  0  0
    6.3281  -12.9589   26.4677 C   0  0  0  0  0  0  0  0  0  0  0  0
    7.2682  -12.1476   27.0656 C   0  0  0  0  0  0  0  0  0  0  0  0
    8.4589  -12.6404   27.5472 C   0  0  0  0  0  0  0  0  0  0  0  0
    8.7217  -13.9891   27.4286 C   0  0  0  0  0  0  0  0  0  0  0  0
    7.7781  -14.8086   26.8274 C   0  0  0  0  0  0  0  0  0  0  0  0
   11.0227  -17.9626   26.3401 C   0  0  0  0  0  0  0  0  0  0  0  0
   11.5208  -18.2666   27.4451 O   0  0  0  0  0  0  0  0  0  0  0  0
   11.3737  -18.7319   25.2248 O   0  0  0  0  0  0  0  0  0  0  0  0
  2  3  1  6
  2  1  1  0
  4  2  1  0
  5  6  1  1
  5  4  1  0
  7  5  1  0
  8  7  2  0
  9  7  1  0
 10  9  1  0
 11 12  1  0
 10 11  1  1
 12 17  2  0
 13 14  2  0
 13 12  1  0
 14 15  1  0
 15 16  2  0
 17 16  1  0
 18 10  1  0
 18 20  1  0
 19 18  2  0
 21 20  1  0
 21 22  1  1
 22 23  1  0
 23 31  1  0
 24 23  2  0
 24 25  1  0
 25 26  1  0
 26 27  2  0
 27 28  1  0
 29 28  2  0
 30 29  1  0
 31 30  2  0
 31 26  1  0
 32 34  1  0
 32 21  1  0
 33 32  2  0
M  END
$$$$
