LFW.pdb
     RDKit          3D

 34 36  0  0  1  0  0  0  0  0999 V2000
    2.8217  -21.3439   22.1253 C   0  0  0  0  0  0  0  0  0  0  0  0
    2.2541  -20.0017   22.5899 C   0  0  2  0  0  0  0  0  0  0  0  0
    0.8751  -19.8477   21.9840 C   0  0  0  0  0  0  0  0  0  0  0  0
    3.1623  -18.8714   22.2184 C   0  0  0  0  0  0  0  0  0  0  0  0
    4.5064  -19.0731   22.8399 C   0  0  2  0  0  0  0  0  0  0  0  0
    4.4621  -19.7959   24.0905 N   0  0  0  0  0  0  0  0  0  0  0  0
    5.2257  -17.7913   23.0709 C   0  0  0  0  0  0  0  0  0  0  0  0
    5.1433  -16.8445   22.2593 O   0  0  0  0  0  0  0  0  0  0  0  0
    6.0166  -17.6209   24.2147 N   0  0  0  0  0  0  0  0  0  0  0  0
    6.7779  -16.3786   24.5010 C   0  0  1  0  0  0  0  0  0  0  0  0
    6.6342  -16.1837   25.9666 C   0  0  0  0  0  0  0  0  0  0  0  0
    7.0920  -14.9373   26.5486 C   0  0  0  0  0  0  0  0  0  0  0  0
    8.3105  -14.7896   27.1531 C   0  0  0  0  0  0  0  0  0  0  0  0
    8.7396  -13.5972   27.7098 C   0  0  0  0  0  0  0  0  0  0  0  0
    7.9317  -12.4984   27.6698 C   0  0  0  0  0  0  0  0  0  0  0  0
    6.6799  -12.6151   27.0593 C   0  0  0  0  0  0  0  0  0  0  0  0
    6.2802  -13.8157   26.5135 C   0  0  0  0  0  0  0  0  0  0  0  0
    8.1707  -16.6567   24.1118 C   0  0  0  0  0  0  0  0  0  0  0  0
    8.6618  -17.8083   24.3479 O   0  0  0  0  0  0  0  0  0  0  0  0
    9.0573  -15.7561   23.4765 N   0  0  0  0  0  0  0  0  0  0  0  0
   10.2981  -16.1933   22.8531 C   0  0  1  0  0  0  0  0  0  0  0  0
   10.5720  -15.3782   21.6024 C   0  0  0  0  0  0  0  0  0  0  0  0
    9.3546  -15.1237   20.8339 C   0  0  0  0  0  0  0  0  0  0  0  0
    8.4693  -16.0682   20.3929 C   0  0  0  0  0  0  0  0  0  0  0  0
    7.5062  -15.4182   19.7232 N   0  0  0  0  0  0  0  0  0  0  0  0
    7.7510  -14.0888   19.7243 C   0  0  0  0  0  0  0  0  0  0  0  0
    7.0760  -13.0035   19.1830 C   0  0  0  0  0  0  0  0  0  0  0  0
    7.5904  -11.7368   19.3574 C   0  0  0  0  0  0  0  0  0  0  0  0
    8.7555  -11.5104   20.0529 C   0  0  0  0  0  0  0  0  0  0  0  0
    9.4315  -12.5841   20.5936 C   0  0  0  0  0  0  0  0  0  0  0  0
    8.9169  -13.8603   20.4200 C   0  0  0  0  0  0  0  0  0  0  0  0
   11.4697  -16.0723   23.7449 C   0  0  0  0  0  0  0  0  0  0  0  0
   11.4678  -15.5474   24.8790 O   0  0  0  0  0  0  0  0  0  0  0  0
   12.6747  -16.5968   23.2633 O   0  0  0  0  0  0  0  0  0  0  0  0
  2  3  1  6
  2  1  1  0
  4  2  1  0
  5  6  1  1
  5  4  1  0
  7  5  1  0
  8  7  2  0
  9  7  1  0
 10  9  1  0
 11 12  1  0
 10 11  1  1
 12 17  2  0
 13 14  2  0
 13 12  1  0
 14 15  1  0
 15 16  2  0
 17 16  1  0
 18 10  1  0
 18 20  1  0
 19 18  2  0
 21 20  1  0
 21 22  1  6
 22 23  1  0
 23 31  1  0
 24 23  2  0
 24 25  1  0
 25 26  1  0
 26 27  2  0
 27 28  1  0
 29 28  2  0
 30 29  1  0
 31 30  2  0
 31 26  1  0
 32 34  1  0
 32 21  1  0
 33 32  2  0
M  END
$$$$
