LFW.pdb
     RDKit          3D

 34 36  0  0  1  0  0  0  0  0999 V2000
    8.8562  -19.5044   17.0025 C   0  0  0  0  0  0  0  0  0  0  0  0
   10.2603  -19.1306   17.4800 C   0  0  2  0  0  0  0  0  0  0  0  0
   11.1406  -20.3535   17.3312 C   0  0  0  0  0  0  0  0  0  0  0  0
   10.2364  -18.6213   18.8873 C   0  0  0  0  0  0  0  0  0  0  0  0
    9.3131  -17.4504   18.9892 C   0  0  2  0  0  0  0  0  0  0  0  0
    9.4185  -16.5331   17.8776 N   0  0  0  0  0  0  0  0  0  0  0  0
    9.5078  -16.6789   20.2464 C   0  0  0  0  0  0  0  0  0  0  0  0
   10.5446  -16.0096   20.4443 O   0  0  0  0  0  0  0  0  0  0  0  0
    8.5219  -16.6889   21.2417 N   0  0  0  0  0  0  0  0  0  0  0  0
    8.6323  -15.9176   22.5057 C   0  0  1  0  0  0  0  0  0  0  0  0
    7.2274  -15.6123   22.8791 C   0  0  0  0  0  0  0  0  0  0  0  0
    6.9728  -14.9664   24.1519 C   0  0  0  0  0  0  0  0  0  0  0  0
    6.5198  -15.6316   25.2583 C   0  0  0  0  0  0  0  0  0  0  0  0
    6.2756  -15.0076   26.4694 C   0  0  0  0  0  0  0  0  0  0  0  0
    6.4872  -13.6658   26.5979 C   0  0  0  0  0  0  0  0  0  0  0  0
    6.9501  -12.9560   25.4865 C   0  0  0  0  0  0  0  0  0  0  0  0
    7.1843  -13.6050   24.2936 C   0  0  0  0  0  0  0  0  0  0  0  0
    9.2817  -16.8163   23.4748 C   0  0  0  0  0  0  0  0  0  0  0  0
    8.9695  -18.0515   23.4800 O   0  0  0  0  0  0  0  0  0  0  0  0
   10.2541  -16.4495   24.4343 N   0  0  0  0  0  0  0  0  0  0  0  0
   11.1539  -17.4191   25.0421 C   0  0  1  0  0  0  0  0  0  0  0  0
   12.0854  -16.7282   26.0211 C   0  0  0  0  0  0  0  0  0  0  0  0
   11.3619  -16.1383   27.1462 C   0  0  0  0  0  0  0  0  0  0  0  0
   10.7772  -16.8238   28.1751 C   0  0  0  0  0  0  0  0  0  0  0  0
   10.2133  -15.9122   28.9811 N   0  0  0  0  0  0  0  0  0  0  0  0
   10.4210  -14.6674   28.4971 C   0  0  0  0  0  0  0  0  0  0  0  0
   10.0522  -13.4062   28.9443 C   0  0  0  0  0  0  0  0  0  0  0  0
   10.4221  -12.2985   28.2124 C   0  0  0  0  0  0  0  0  0  0  0  0
   11.1479  -12.4007   27.0482 C   0  0  0  0  0  0  0  0  0  0  0  0
   11.5179  -13.6507   26.5978 C   0  0  0  0  0  0  0  0  0  0  0  0
   11.1472  -14.7676   27.3317 C   0  0  0  0  0  0  0  0  0  0  0  0
   10.4452  -18.4951   25.7650 C   0  0  0  0  0  0  0  0  0  0  0  0
   10.9643  -19.5512   26.1857 O   0  0  0  0  0  0  0  0  0  0  0  0
    9.0780  -18.2974   25.9903 O   0  0  0  0  0  0  0  0  0  0  0  0
  2  3  1  1
  2  1  1  0
  4  2  1  0
  5  6  1  6
  5  4  1  0
  7  5  1  0
  8  7  2  0
  9  7  1  0
 10  9  1  0
 11 12  1  0
 10 11  1  1
 12 17  2  0
 13 14  2  0
 13 12  1  0
 14 15  1  0
 15 16  2  0
 17 16  1  0
 18 10  1  0
 18 20  1  0
 19 18  2  0
 21 20  1  0
 21 22  1  1
 22 23  1  0
 23 31  1  0
 24 23  2  0
 24 25  1  0
 25 26  1  0
 26 27  2  0
 27 28  1  0
 29 28  2  0
 30 29  1  0
 31 30  2  0
 31 26  1  0
 32 34  1  0
 32 21  1  0
 33 32  2  0
M  END
$$$$
