LFW.pdb
     RDKit          3D

 34 36  0  0  1  0  0  0  0  0999 V2000
    8.9684  -15.0166   15.8377 C   0  0  0  0  0  0  0  0  0  0  0  0
    8.5810  -14.2879   17.1254 C   0  0  2  0  0  0  0  0  0  0  0  0
    8.0465  -12.9240   16.7425 C   0  0  0  0  0  0  0  0  0  0  0  0
    9.7420  -14.1946   18.0655 C   0  0  0  0  0  0  0  0  0  0  0  0
    9.8113  -15.4240   18.9125 C   0  0  2  0  0  0  0  0  0  0  0  0
    8.7472  -16.3662   18.6512 N   0  0  0  0  0  0  0  0  0  0  0  0
    9.8090  -15.1145   20.3678 C   0  0  0  0  0  0  0  0  0  0  0  0
   10.6565  -14.3454   20.8699 O   0  0  0  0  0  0  0  0  0  0  0  0
    8.8464  -15.6857   21.2103 N   0  0  0  0  0  0  0  0  0  0  0  0
    8.7495  -15.3816   22.6604 C   0  0  1  0  0  0  0  0  0  0  0  0
    7.2912  -15.2704   22.9205 C   0  0  0  0  0  0  0  0  0  0  0  0
    6.8518  -14.8391   24.2331 C   0  0  0  0  0  0  0  0  0  0  0  0
    6.7713  -13.5257   24.6079 C   0  0  0  0  0  0  0  0  0  0  0  0
    6.3542  -13.1213   25.8642 C   0  0  0  0  0  0  0  0  0  0  0  0
    5.9995  -14.0532   26.7955 C   0  0  0  0  0  0  0  0  0  0  0  0
    6.0702  -15.4042   26.4451 C   0  0  0  0  0  0  0  0  0  0  0  0
    6.4893  -15.7764   25.1861 C   0  0  0  0  0  0  0  0  0  0  0  0
    9.3519  -16.5302   23.3578 C   0  0  0  0  0  0  0  0  0  0  0  0
    9.2230  -17.6952   22.8586 O   0  0  0  0  0  0  0  0  0  0  0  0
   10.0902  -16.4833   24.5635 N   0  0  0  0  0  0  0  0  0  0  0  0
   10.8253  -17.6321   25.0724 C   0  0  1  0  0  0  0  0  0  0  0  0
   11.9254  -17.1758   26.0132 C   0  0  0  0  0  0  0  0  0  0  0  0
   11.3911  -16.5612   27.2274 C   0  0  0  0  0  0  0  0  0  0  0  0
   11.0343  -17.2190   28.3722 C   0  0  0  0  0  0  0  0  0  0  0  0
   10.5845  -16.2923   29.2309 N   0  0  0  0  0  0  0  0  0  0  0  0
   10.6439  -15.0647   28.6682 C   0  0  0  0  0  0  0  0  0  0  0  0
   10.3048  -13.7987   29.1251 C   0  0  0  0  0  0  0  0  0  0  0  0
   10.4851  -12.7136   28.2946 C   0  0  0  0  0  0  0  0  0  0  0  0
   10.9921  -12.8432   27.0223 C   0  0  0  0  0  0  0  0  0  0  0  0
   11.3313  -14.0982   26.5617 C   0  0  0  0  0  0  0  0  0  0  0  0
   11.1511  -15.1924   27.3946 C   0  0  0  0  0  0  0  0  0  0  0  0
    9.9700  -18.5931   25.7990 C   0  0  0  0  0  0  0  0  0  0  0  0
    8.7759  -18.4063   26.1167 O   0  0  0  0  0  0  0  0  0  0  0  0
   10.5633  -19.8107   26.1518 O   0  0  0  0  0  0  0  0  0  0  0  0
  2  3  1  6
  2  1  1  0
  4  2  1  0
  5  6  1  1
  5  4  1  0
  7  5  1  0
  8  7  2  0
  9  7  1  0
 10  9  1  0
 11 12  1  0
 10 11  1  1
 12 17  2  0
 13 14  2  0
 13 12  1  0
 14 15  1  0
 15 16  2  0
 17 16  1  0
 18 10  1  0
 18 20  1  0
 19 18  2  0
 21 20  1  0
 21 22  1  1
 22 23  1  0
 23 31  1  0
 24 23  2  0
 24 25  1  0
 25 26  1  0
 26 27  2  0
 27 28  1  0
 29 28  2  0
 30 29  1  0
 31 30  2  0
 31 26  1  0
 32 34  1  0
 32 21  1  0
 33 32  2  0
M  END
$$$$
