LFW.pdb
     RDKit          3D

 34 36  0  0  1  0  0  0  0  0999 V2000
   10.7635  -19.2746   16.8286 C   0  0  0  0  0  0  0  0  0  0  0  0
   10.9812  -17.7663   16.6990 C   0  0  2  0  0  0  0  0  0  0  0  0
   12.0749  -17.5428   15.6760 C   0  0  0  0  0  0  0  0  0  0  0  0
   11.3133  -17.1509   18.0224 C   0  0  0  0  0  0  0  0  0  0  0  0
   10.2350  -17.4571   19.0110 C   0  0  2  0  0  0  0  0  0  0  0  0
    8.9089  -17.1299   18.5393 N   0  0  0  0  0  0  0  0  0  0  0  0
   10.4453  -16.7712   20.3145 C   0  0  0  0  0  0  0  0  0  0  0  0
   11.5939  -16.5401   20.7493 O   0  0  0  0  0  0  0  0  0  0  0  0
    9.3477  -16.3679   21.0861 N   0  0  0  0  0  0  0  0  0  0  0  0
    9.4809  -15.6907   22.4008 C   0  0  1  0  0  0  0  0  0  0  0  0
    8.1621  -15.0435   22.6210 C   0  0  0  0  0  0  0  0  0  0  0  0
    7.9999  -14.1731   23.7692 C   0  0  0  0  0  0  0  0  0  0  0  0
    8.9880  -13.9432   24.6872 C   0  0  0  0  0  0  0  0  0  0  0  0
    8.8248  -13.1136   25.7830 C   0  0  0  0  0  0  0  0  0  0  0  0
    7.6333  -12.4803   25.9850 C   0  0  0  0  0  0  0  0  0  0  0  0
    6.6025  -12.6934   25.0657 C   0  0  0  0  0  0  0  0  0  0  0  0
    6.7948  -13.5252   23.9839 C   0  0  0  0  0  0  0  0  0  0  0  0
    9.7472  -16.7562   23.3817 C   0  0  0  0  0  0  0  0  0  0  0  0
    9.5020  -17.9656   23.0648 O   0  0  0  0  0  0  0  0  0  0  0  0
   10.2693  -16.5820   24.6847 N   0  0  0  0  0  0  0  0  0  0  0  0
   11.2252  -17.5099   25.2718 C   0  0  1  0  0  0  0  0  0  0  0  0
   10.8986  -17.7427   26.7356 C   0  0  0  0  0  0  0  0  0  0  0  0
    9.8009  -16.8940   27.1962 C   0  0  0  0  0  0  0  0  0  0  0  0
    8.4668  -17.1758   27.0901 C   0  0  0  0  0  0  0  0  0  0  0  0
    7.8049  -16.1372   27.6208 N   0  0  0  0  0  0  0  0  0  0  0  0
    8.6765  -15.2028   28.0616 C   0  0  0  0  0  0  0  0  0  0  0  0
    8.5086  -13.9694   28.6758 C   0  0  0  0  0  0  0  0  0  0  0  0
    9.6212  -13.2296   29.0137 C   0  0  0  0  0  0  0  0  0  0  0  0
   10.8986  -13.6739   28.7618 C   0  0  0  0  0  0  0  0  0  0  0  0
   11.0730  -14.8986   28.1518 C   0  0  0  0  0  0  0  0  0  0  0  0
    9.9556  -15.6458   27.8104 C   0  0  0  0  0  0  0  0  0  0  0  0
   11.2520  -18.8221   24.5936 C   0  0  0  0  0  0  0  0  0  0  0  0
   10.3988  -19.2363   23.7798 O   0  0  0  0  0  0  0  0  0  0  0  0
   12.3320  -19.6583   24.8992 O   0  0  0  0  0  0  0  0  0  0  0  0
  2  3  1  6
  2  1  1  0
  4  2  1  0
  5  6  1  6
  5  4  1  0
  7  5  1  0
  8  7  2  0
  9  7  1  0
 10  9  1  0
 11 12  1  0
 10 11  1  1
 12 17  2  0
 13 14  2  0
 13 12  1  0
 14 15  1  0
 15 16  2  0
 17 16  1  0
 18 10  1  0
 18 20  1  0
 19 18  2  0
 21 20  1  0
 21 22  1  1
 22 23  1  0
 23 31  1  0
 24 23  2  0
 24 25  1  0
 25 26  1  0
 26 27  2  0
 27 28  1  0
 29 28  2  0
 30 29  1  0
 31 30  2  0
 31 26  1  0
 32 34  1  0
 32 21  1  0
 33 32  2  0
M  END
$$$$
