LFW.pdb
     RDKit          3D

 34 36  0  0  1  0  0  0  0  0999 V2000
    6.5587  -14.1370   18.2418 C   0  0  0  0  0  0  0  0  0  0  0  0
    7.7803  -13.7225   19.0634 C   0  0  2  0  0  0  0  0  0  0  0  0
    7.8593  -12.2106   19.0447 C   0  0  0  0  0  0  0  0  0  0  0  0
    9.0288  -14.3585   18.5369 C   0  0  0  0  0  0  0  0  0  0  0  0
    9.3417  -15.5915   19.3213 C   0  0  2  0  0  0  0  0  0  0  0  0
    8.3325  -16.6197   19.2085 N   0  0  0  0  0  0  0  0  0  0  0  0
    9.5554  -15.3088   20.7663 C   0  0  0  0  0  0  0  0  0  0  0  0
   10.5144  -14.6089   21.1568 O   0  0  0  0  0  0  0  0  0  0  0  0
    8.6760  -15.8277   21.7256 N   0  0  0  0  0  0  0  0  0  0  0  0
    8.7633  -15.5019   23.1717 C   0  0  1  0  0  0  0  0  0  0  0  0
    7.3526  -15.3088   23.5952 C   0  0  0  0  0  0  0  0  0  0  0  0
    7.0930  -14.6863   24.8786 C   0  0  0  0  0  0  0  0  0  0  0  0
    7.2934  -13.3557   25.1261 C   0  0  0  0  0  0  0  0  0  0  0  0
    7.0467  -12.7689   26.3551 C   0  0  0  0  0  0  0  0  0  0  0  0
    6.5807  -13.5270   27.3893 C   0  0  0  0  0  0  0  0  0  0  0  0
    6.3649  -14.8903   27.1702 C   0  0  0  0  0  0  0  0  0  0  0  0
    6.6197  -15.4463   25.9353 C   0  0  0  0  0  0  0  0  0  0  0  0
    9.3809  -16.6734   23.8156 C   0  0  0  0  0  0  0  0  0  0  0  0
    9.1417  -17.8347   23.3494 O   0  0  0  0  0  0  0  0  0  0  0  0
   10.2471  -16.6535   24.9338 N   0  0  0  0  0  0  0  0  0  0  0  0
   10.9946  -17.8271   25.3616 C   0  0  1  0  0  0  0  0  0  0  0  0
   11.9964  -17.4474   26.4367 C   0  0  0  0  0  0  0  0  0  0  0  0
   11.3425  -16.9775   27.6569 C   0  0  0  0  0  0  0  0  0  0  0  0
   10.9429  -17.7572   28.7070 C   0  0  0  0  0  0  0  0  0  0  0  0
   10.3806  -16.9393   29.6089 N   0  0  0  0  0  0  0  0  0  0  0  0
   10.4098  -15.6628   29.1653 C   0  0  0  0  0  0  0  0  0  0  0  0
    9.9671  -14.4640   29.7072 C   0  0  0  0  0  0  0  0  0  0  0  0
   10.1440  -13.2979   28.9941 C   0  0  0  0  0  0  0  0  0  0  0  0
   10.7473  -13.2814   27.7579 C   0  0  0  0  0  0  0  0  0  0  0  0
   11.1897  -14.4689   27.2133 C   0  0  0  0  0  0  0  0  0  0  0  0
   11.0133  -15.6443   27.9280 C   0  0  0  0  0  0  0  0  0  0  0  0
   10.1326  -18.9010   25.8969 C   0  0  0  0  0  0  0  0  0  0  0  0
   10.5094  -20.0557   26.1908 O   0  0  0  0  0  0  0  0  0  0  0  0
    8.7835  -18.5797   26.0858 O   0  0  0  0  0  0  0  0  0  0  0  0
  2  3  1  6
  2  1  1  0
  4  2  1  0
  5  6  1  1
  5  4  1  0
  7  5  1  0
  8  7  2  0
  9  7  1  0
 10  9  1  0
 11 12  1  0
 10 11  1  1
 12 17  2  0
 13 14  2  0
 13 12  1  0
 14 15  1  0
 15 16  2  0
 17 16  1  0
 18 10  1  0
 18 20  1  0
 19 18  2  0
 21 20  1  0
 21 22  1  1
 22 23  1  0
 23 31  1  0
 24 23  2  0
 24 25  1  0
 25 26  1  0
 26 27  2  0
 27 28  1  0
 29 28  2  0
 30 29  1  0
 31 30  2  0
 31 26  1  0
 32 34  1  0
 32 21  1  0
 33 32  2  0
M  END
$$$$
