VPD.pdb
     RDKit          3D

 23 23  0  0  1  0  0  0  0  0999 V2000
    8.0659  -12.9744   27.0752 C   0  0  0  0  0  0  0  0  0  0  0  0
    7.1721  -12.3033   26.0351 C   0  0  2  0  0  0  0  0  0  0  0  0
    6.4243  -11.1649   26.6442 C   0  0  0  0  0  0  0  0  0  0  0  0
    6.2561  -13.4158   25.5176 C   0  0  2  0  0  0  0  0  0  0  0  0
    5.7340  -14.0659   26.7496 N   0  0  0  0  0  0  0  0  0  0  0  0
    7.0845  -14.4305   24.8100 C   0  0  0  0  0  0  0  0  0  0  0  0
    7.4654  -15.4254   25.5308 O   0  0  0  0  0  0  0  0  0  0  0  0
    7.4530  -14.3577   23.4449 N   0  0  0  0  0  0  0  0  0  0  0  0
    7.1836  -13.2933   22.5060 C   0  0  0  0  0  0  0  0  0  0  0  0
    7.0919  -14.0399   21.1525 C   0  0  0  0  0  0  0  0  0  0  0  0
    8.2643  -14.9826   21.3175 C   0  0  0  0  0  0  0  0  0  0  0  0
    8.1678  -15.4064   22.7384 C   0  0  1  0  0  0  0  0  0  0  0  0
    9.4752  -15.6013   23.3955 C   0  0  0  0  0  0  0  0  0  0  0  0
    9.8100  -14.9293   24.4064 O   0  0  0  0  0  0  0  0  0  0  0  0
   10.4362  -16.5544   22.9332 N   0  0  0  0  0  0  0  0  0  0  0  0
   11.4936  -17.0786   23.7349 C   0  0  1  0  0  0  0  0  0  0  0  0
   10.8972  -17.7907   24.9282 C   0  0  0  0  0  0  0  0  0  0  0  0
   12.0146  -18.3640   25.7199 C   0  0  0  0  0  0  0  0  0  0  0  0
   13.2189  -18.2792   25.3535 O   0  0  0  0  0  0  0  0  0  0  0  0
   12.3902  -18.0009   22.9999 C   0  0  0  0  0  0  0  0  0  0  0  0
   12.0369  -18.7009   22.0299 O   0  0  0  0  0  0  0  0  0  0  0  0
   11.7993  -19.0351   26.9236 O   0  0  0  0  0  0  0  0  0  0  0  0
   13.7117  -18.0962   23.4129 O   0  0  0  0  0  0  0  0  0  0  0  0
  2  1  1  1
  2  3  1  0
  4  2  1  0
  4  5  1  1
  6  4  1  0
  6  8  1  0
  7  6  2  0
  8 12  1  0
  9  8  1  0
 10 11  1  0
 10  9  1  0
 11 12  1  0
 12 13  1  1
 13 15  1  0
 14 13  2  0
 15 16  1  0
 16 20  1  0
 17 18  1  0
 16 17  1  1
 18 22  1  0
 19 18  2  0
 20 21  2  0
 20 23  1  0
M  END
$$$$
