VPD.pdb
     RDKit          3D

 23 23  0  0  1  0  0  0  0  0999 V2000
    7.9153  -13.4338   27.0699 C   0  0  0  0  0  0  0  0  0  0  0  0
    7.1967  -12.6338   25.9861 C   0  0  2  0  0  0  0  0  0  0  0  0
    6.5039  -11.4532   26.5798 C   0  0  0  0  0  0  0  0  0  0  0  0
    6.2349  -13.6268   25.3277 C   0  0  2  0  0  0  0  0  0  0  0  0
    5.5859  -14.3238   26.4706 N   0  0  0  0  0  0  0  0  0  0  0  0
    7.0285  -14.6485   24.5911 C   0  0  0  0  0  0  0  0  0  0  0  0
    7.2451  -15.7414   25.2339 O   0  0  0  0  0  0  0  0  0  0  0  0
    7.5299  -14.4837   23.2773 N   0  0  0  0  0  0  0  0  0  0  0  0
    7.3040  -13.3823   22.3703 C   0  0  0  0  0  0  0  0  0  0  0  0
    7.3884  -14.0561   20.9787 C   0  0  0  0  0  0  0  0  0  0  0  0
    8.5842  -14.9526   21.2174 C   0  0  0  0  0  0  0  0  0  0  0  0
    8.3651  -15.4584   22.5973 C   0  0  1  0  0  0  0  0  0  0  0  0
    9.6070  -15.6301   23.3766 C   0  0  0  0  0  0  0  0  0  0  0  0
    9.9246  -14.8274   24.2933 O   0  0  0  0  0  0  0  0  0  0  0  0
   10.5202  -16.7062   23.1448 N   0  0  0  0  0  0  0  0  0  0  0  0
   11.4100  -17.2275   24.1308 C   0  0  1  0  0  0  0  0  0  0  0  0
   10.6054  -17.6694   25.3325 C   0  0  0  0  0  0  0  0  0  0  0  0
   11.5538  -18.2016   26.3431 C   0  0  0  0  0  0  0  0  0  0  0  0
   12.6500  -17.6362   26.6086 O   0  0  0  0  0  0  0  0  0  0  0  0
   12.2375  -18.3549   23.6420 C   0  0  0  0  0  0  0  0  0  0  0  0
   13.4848  -18.3604   23.6348 O   0  0  0  0  0  0  0  0  0  0  0  0
   11.2888  -19.3657   27.0644 O   0  0  0  0  0  0  0  0  0  0  0  0
   11.5878  -19.4824   23.1595 O   0  0  0  0  0  0  0  0  0  0  0  0
  2  1  1  1
  2  3  1  0
  4  2  1  0
  4  5  1  1
  6  4  1  0
  6  8  1  0
  7  6  2  0
  8 12  1  0
  9  8  1  0
 10 11  1  0
 10  9  1  0
 11 12  1  0
 12 13  1  1
 13 15  1  0
 14 13  2  0
 15 16  1  0
 16 20  1  0
 17 18  1  0
 16 17  1  1
 18 22  1  0
 19 18  2  0
 20 21  2  0
 20 23  1  0
M  END
$$$$
