VPD.pdb
     RDKit          3D

 23 23  0  0  1  0  0  0  0  0999 V2000
    7.3672  -15.2599   21.2156 C   0  0  0  0  0  0  0  0  0  0  0  0
    6.9262  -13.7985   21.2476 C   0  0  2  0  0  0  0  0  0  0  0  0
    6.6102  -13.3172   19.8711 C   0  0  0  0  0  0  0  0  0  0  0  0
    8.0901  -13.0438   21.8959 C   0  0  2  0  0  0  0  0  0  0  0  0
    9.2734  -13.4160   21.0748 N   0  0  0  0  0  0  0  0  0  0  0  0
    8.3192  -13.5936   23.2604 C   0  0  0  0  0  0  0  0  0  0  0  0
    9.3113  -14.4056   23.3640 O   0  0  0  0  0  0  0  0  0  0  0  0
    7.5358  -13.2777   24.3967 N   0  0  0  0  0  0  0  0  0  0  0  0
    6.4058  -12.3813   24.4772 C   0  0  0  0  0  0  0  0  0  0  0  0
    6.4818  -11.8575   25.9325 C   0  0  0  0  0  0  0  0  0  0  0  0
    6.8068  -13.1558   26.6391 C   0  0  0  0  0  0  0  0  0  0  0  0
    7.7791  -13.8105   25.7259 C   0  0  1  0  0  0  0  0  0  0  0  0
    7.6505  -15.2800   25.6679 C   0  0  0  0  0  0  0  0  0  0  0  0
    6.9521  -15.8449   24.7855 O   0  0  0  0  0  0  0  0  0  0  0  0
    8.3027  -16.1484   26.5986 N   0  0  0  0  0  0  0  0  0  0  0  0
    8.7946  -17.4473   26.2722 C   0  0  1  0  0  0  0  0  0  0  0  0
    9.7161  -17.3367   25.0783 C   0  0  0  0  0  0  0  0  0  0  0  0
   10.2383  -18.6942   24.7805 C   0  0  0  0  0  0  0  0  0  0  0  0
    9.9356  -19.7044   25.4731 O   0  0  0  0  0  0  0  0  0  0  0  0
    9.5051  -18.1080   27.3917 C   0  0  0  0  0  0  0  0  0  0  0  0
    9.3235  -19.2922   27.7386 O   0  0  0  0  0  0  0  0  0  0  0  0
   11.1002  -18.9363   23.7109 O   0  0  0  0  0  0  0  0  0  0  0  0
   10.4356  -17.3655   28.1051 O   0  0  0  0  0  0  0  0  0  0  0  0
  2  1  1  6
  2  3  1  0
  4  2  1  0
  4  5  1  6
  6  4  1  0
  6  8  1  0
  7  6  2  0
  8 12  1  0
  9  8  1  0
 10 11  1  0
 10  9  1  0
 11 12  1  0
 12 13  1  6
 13 15  1  0
 14 13  2  0
 15 16  1  0
 16 20  1  0
 17 18  1  0
 16 17  1  6
 18 22  1  0
 19 18  2  0
 20 21  2  0
 20 23  1  0
M  END
$$$$
