VPD.pdb
     RDKit          3D

 23 23  0  0  1  0  0  0  0  0999 V2000
    6.1707  -12.3700   27.3230 C   0  0  0  0  0  0  0  0  0  0  0  0
    7.1530  -13.1982   26.4982 C   0  0  2  0  0  0  0  0  0  0  0  0
    8.0259  -12.3095   25.6769 C   0  0  0  0  0  0  0  0  0  0  0  0
    6.2795  -14.1300   25.6535 C   0  0  2  0  0  0  0  0  0  0  0  0
    5.6622  -15.0534   26.6430 N   0  0  0  0  0  0  0  0  0  0  0  0
    7.1601  -14.9550   24.7814 C   0  0  0  0  0  0  0  0  0  0  0  0
    7.7442  -15.9394   25.3679 O   0  0  0  0  0  0  0  0  0  0  0  0
    7.3726  -14.7206   23.4013 N   0  0  0  0  0  0  0  0  0  0  0  0
    6.8074  -13.6762   22.5787 C   0  0  0  0  0  0  0  0  0  0  0  0
    6.7350  -14.3372   21.1803 C   0  0  0  0  0  0  0  0  0  0  0  0
    8.0817  -15.0278   21.1703 C   0  0  0  0  0  0  0  0  0  0  0  0
    8.2095  -15.5527   22.5546 C   0  0  1  0  0  0  0  0  0  0  0  0
    9.5870  -15.5168   23.0840 C   0  0  0  0  0  0  0  0  0  0  0  0
    9.8860  -14.8259   24.0933 O   0  0  0  0  0  0  0  0  0  0  0  0
   10.6598  -16.2552   22.4928 N   0  0  0  0  0  0  0  0  0  0  0  0
   11.8779  -16.5736   23.1641 C   0  0  1  0  0  0  0  0  0  0  0  0
   11.5556  -17.3385   24.4281 C   0  0  0  0  0  0  0  0  0  0  0  0
   12.8246  -17.5434   25.1709 C   0  0  0  0  0  0  0  0  0  0  0  0
   13.9272  -17.0784   24.7711 O   0  0  0  0  0  0  0  0  0  0  0  0
   12.8223  -17.3568   22.3337 C   0  0  0  0  0  0  0  0  0  0  0  0
   12.6083  -18.5176   21.9306 O   0  0  0  0  0  0  0  0  0  0  0  0
   12.8749  -18.2666   26.3625 O   0  0  0  0  0  0  0  0  0  0  0  0
   14.0259  -16.7651   21.9771 O   0  0  0  0  0  0  0  0  0  0  0  0
  2  1  1  6
  2  3  1  0
  4  2  1  0
  4  5  1  1
  6  4  1  0
  6  8  1  0
  7  6  2  0
  8 12  1  0
  9  8  1  0
 10 11  1  0
 10  9  1  0
 11 12  1  0
 12 13  1  1
 13 15  1  0
 14 13  2  0
 15 16  1  0
 16 20  1  0
 17 18  1  0
 16 17  1  1
 18 22  1  0
 19 18  2  0
 20 21  2  0
 20 23  1  0
M  END
$$$$
