VPD.pdb
     RDKit          3D

 23 23  0  0  1  0  0  0  0  0999 V2000
    8.4603  -19.3316   19.6079 C   0  0  0  0  0  0  0  0  0  0  0  0
    7.2729  -18.4539   19.2197 C   0  0  2  0  0  0  0  0  0  0  0  0
    6.3587  -19.1885   18.2973 C   0  0  0  0  0  0  0  0  0  0  0  0
    7.8899  -17.2043   18.5852 C   0  0  2  0  0  0  0  0  0  0  0  0
    8.8213  -17.7363   17.5545 N   0  0  0  0  0  0  0  0  0  0  0  0
    8.7229  -16.5090   19.6045 C   0  0  0  0  0  0  0  0  0  0  0  0
    9.9558  -16.8733   19.6451 O   0  0  0  0  0  0  0  0  0  0  0  0
    8.2460  -15.5103   20.4878 N   0  0  0  0  0  0  0  0  0  0  0  0
    6.9070  -14.9779   20.5891 C   0  0  0  0  0  0  0  0  0  0  0  0
    7.1469  -13.5251   21.0684 C   0  0  0  0  0  0  0  0  0  0  0  0
    8.2220  -13.7866   22.1010 C   0  0  0  0  0  0  0  0  0  0  0  0
    9.0779  -14.8145   21.4539 C   0  0  1  0  0  0  0  0  0  0  0  0
    9.6317  -15.8102   22.3925 C   0  0  0  0  0  0  0  0  0  0  0  0
    8.9895  -16.8469   22.7061 O   0  0  0  0  0  0  0  0  0  0  0  0
   10.9183  -15.6650   23.0002 N   0  0  0  0  0  0  0  0  0  0  0  0
   11.3937  -16.4778   24.0721 C   0  0  1  0  0  0  0  0  0  0  0  0
   12.7693  -15.9984   24.4779 C   0  0  0  0  0  0  0  0  0  0  0  0
   13.6882  -16.2363   23.3364 C   0  0  0  0  0  0  0  0  0  0  0  0
   13.2757  -16.3873   22.1537 O   0  0  0  0  0  0  0  0  0  0  0  0
   10.4981  -16.4818   25.2521 C   0  0  0  0  0  0  0  0  0  0  0  0
    9.7633  -15.5289   25.5805 O   0  0  0  0  0  0  0  0  0  0  0  0
   15.0712  -16.3078   23.5034 O   0  0  0  0  0  0  0  0  0  0  0  0
   10.4700  -17.6181   26.0484 O   0  0  0  0  0  0  0  0  0  0  0  0
  2  1  1  6
  2  3  1  0
  4  2  1  0
  4  5  1  6
  6  4  1  0
  6  8  1  0
  7  6  2  0
  8 12  1  0
  9  8  1  0
 10 11  1  0
 10  9  1  0
 11 12  1  0
 12 13  1  1
 13 15  1  0
 14 13  2  0
 15 16  1  0
 16 20  1  0
 17 18  1  0
 16 17  1  1
 18 22  1  0
 19 18  2  0
 20 21  2  0
 20 23  1  0
M  END
$$$$
