VPD.pdb
     RDKit          3D

 23 23  0  0  1  0  0  0  0  0999 V2000
    6.9447  -15.3767   19.4028 C   0  0  0  0  0  0  0  0  0  0  0  0
    7.4698  -15.6189   20.8159 C   0  0  2  0  0  0  0  0  0  0  0  0
    6.4607  -16.3578   21.6295 C   0  0  0  0  0  0  0  0  0  0  0  0
    7.7850  -14.2264   21.3693 C   0  0  2  0  0  0  0  0  0  0  0  0
    8.8369  -13.6981   20.4597 N   0  0  0  0  0  0  0  0  0  0  0  0
    8.4082  -14.3731   22.7135 C   0  0  0  0  0  0  0  0  0  0  0  0
    9.6023  -14.8512   22.7141 O   0  0  0  0  0  0  0  0  0  0  0  0
    7.7800  -14.0248   23.9336 N   0  0  0  0  0  0  0  0  0  0  0  0
    6.4765  -13.4325   24.1259 C   0  0  0  0  0  0  0  0  0  0  0  0
    6.6569  -12.6121   25.4268 C   0  0  0  0  0  0  0  0  0  0  0  0
    7.4516  -13.6147   26.2354 C   0  0  0  0  0  0  0  0  0  0  0  0
    8.3923  -14.1913   25.2401 C   0  0  1  0  0  0  0  0  0  0  0  0
    8.6726  -15.6265   25.4422 C   0  0  0  0  0  0  0  0  0  0  0  0
    7.8474  -16.5128   25.0975 O   0  0  0  0  0  0  0  0  0  0  0  0
    9.8851  -16.0992   26.0357 N   0  0  0  0  0  0  0  0  0  0  0  0
   10.1405  -17.4663   26.3542 C   0  0  1  0  0  0  0  0  0  0  0  0
   11.2587  -17.9744   25.4721 C   0  0  0  0  0  0  0  0  0  0  0  0
   11.5329  -19.3830   25.8526 C   0  0  0  0  0  0  0  0  0  0  0  0
   10.6189  -20.2456   25.9646 O   0  0  0  0  0  0  0  0  0  0  0  0
   10.4884  -17.6858   27.7774 C   0  0  0  0  0  0  0  0  0  0  0  0
   10.6541  -18.8080   28.2959 O   0  0  0  0  0  0  0  0  0  0  0  0
   12.8249  -19.8407   26.1109 O   0  0  0  0  0  0  0  0  0  0  0  0
   10.6418  -16.5731   28.5925 O   0  0  0  0  0  0  0  0  0  0  0  0
  2  1  1  6
  2  3  1  0
  4  2  1  0
  4  5  1  6
  6  4  1  0
  6  8  1  0
  7  6  2  0
  8 12  1  0
  9  8  1  0
 10 11  1  0
 10  9  1  0
 11 12  1  0
 12 13  1  1
 13 15  1  0
 14 13  2  0
 15 16  1  0
 16 20  1  0
 17 18  1  0
 16 17  1  6
 18 22  1  0
 19 18  2  0
 20 21  2  0
 20 23  1  0
M  END
$$$$
