VPD.pdb
     RDKit          3D

 23 23  0  0  1  0  0  0  0  0999 V2000
    6.3820  -14.0631   19.9009 C   0  0  0  0  0  0  0  0  0  0  0  0
    7.0491  -14.5091   21.1998 C   0  0  2  0  0  0  0  0  0  0  0  0
    6.1375  -15.3977   21.9779 C   0  0  0  0  0  0  0  0  0  0  0  0
    7.3974  -13.2125   21.9361 C   0  0  2  0  0  0  0  0  0  0  0  0
    8.4174  -12.5606   21.0715 N   0  0  0  0  0  0  0  0  0  0  0  0
    8.0712  -13.5542   23.2190 C   0  0  0  0  0  0  0  0  0  0  0  0
    9.2376  -14.0833   23.1007 O   0  0  0  0  0  0  0  0  0  0  0  0
    7.5168  -13.3320   24.5027 N   0  0  0  0  0  0  0  0  0  0  0  0
    6.2243  -12.7756   24.8296 C   0  0  0  0  0  0  0  0  0  0  0  0
    6.4795  -12.0822   26.1905 C   0  0  0  0  0  0  0  0  0  0  0  0
    7.3274  -13.1489   26.8490 C   0  0  0  0  0  0  0  0  0  0  0  0
    8.2086  -13.6165   25.7477 C   0  0  1  0  0  0  0  0  0  0  0  0
    8.5085  -15.0612   25.7928 C   0  0  0  0  0  0  0  0  0  0  0  0
    7.6705  -15.9192   25.4092 O   0  0  0  0  0  0  0  0  0  0  0  0
    9.7552  -15.5755   26.2692 N   0  0  0  0  0  0  0  0  0  0  0  0
    9.9971  -16.9527   26.5528 C   0  0  1  0  0  0  0  0  0  0  0  0
   11.4288  -17.2826   26.1950 C   0  0  0  0  0  0  0  0  0  0  0  0
   11.5459  -17.2511   24.7153 C   0  0  0  0  0  0  0  0  0  0  0  0
   10.5557  -17.4240   23.9527 O   0  0  0  0  0  0  0  0  0  0  0  0
    9.7383  -17.3190   27.9647 C   0  0  0  0  0  0  0  0  0  0  0  0
    9.5599  -16.4948   28.8837 O   0  0  0  0  0  0  0  0  0  0  0  0
   12.7647  -17.0274   24.0749 O   0  0  0  0  0  0  0  0  0  0  0  0
    9.6894  -18.6667   28.2926 O   0  0  0  0  0  0  0  0  0  0  0  0
  2  1  1  6
  2  3  1  0
  4  2  1  0
  4  5  1  6
  6  4  1  0
  6  8  1  0
  7  6  2  0
  8 12  1  0
  9  8  1  0
 10 11  1  0
 10  9  1  0
 11 12  1  0
 12 13  1  1
 13 15  1  0
 14 13  2  0
 15 16  1  0
 16 20  1  0
 17 18  1  0
 16 17  1  1
 18 22  1  0
 19 18  2  0
 20 21  2  0
 20 23  1  0
M  END
$$$$
