VPD.pdb
     RDKit          3D

 23 23  0  0  1  0  0  0  0  0999 V2000
    7.1718  -14.0823   18.8212 C   0  0  0  0  0  0  0  0  0  0  0  0
    7.6487  -14.5916   20.1793 C   0  0  2  0  0  0  0  0  0  0  0  0
    6.5626  -15.3518   20.8638 C   0  0  0  0  0  0  0  0  0  0  0  0
    8.0813  -13.3391   20.9465 C   0  0  2  0  0  0  0  0  0  0  0  0
    9.2579  -12.8321   20.1905 N   0  0  0  0  0  0  0  0  0  0  0  0
    8.5728  -13.7453   22.2919 C   0  0  0  0  0  0  0  0  0  0  0  0
    9.7609  -14.2376   22.3150 O   0  0  0  0  0  0  0  0  0  0  0  0
    7.8311  -13.6184   23.4912 N   0  0  0  0  0  0  0  0  0  0  0  0
    6.5123  -13.0553   23.6665 C   0  0  0  0  0  0  0  0  0  0  0  0
    6.5656  -12.4891   25.1068 C   0  0  0  0  0  0  0  0  0  0  0  0
    7.2859  -13.6325   25.7884 C   0  0  0  0  0  0  0  0  0  0  0  0
    8.3187  -14.0287   24.7964 C   0  0  1  0  0  0  0  0  0  0  0  0
    8.5860  -15.4800   24.7572 C   0  0  0  0  0  0  0  0  0  0  0  0
    7.7835  -16.2821   24.2113 O   0  0  0  0  0  0  0  0  0  0  0  0
    9.7597  -16.0637   25.3296 N   0  0  0  0  0  0  0  0  0  0  0  0
   10.0113  -17.4671   25.3829 C   0  0  1  0  0  0  0  0  0  0  0  0
   11.2460  -17.7750   24.5659 C   0  0  0  0  0  0  0  0  0  0  0  0
   11.4839  -19.2387   24.6368 C   0  0  0  0  0  0  0  0  0  0  0  0
   10.5724  -20.0608   24.9290 O   0  0  0  0  0  0  0  0  0  0  0  0
   10.1825  -17.9841   26.7606 C   0  0  0  0  0  0  0  0  0  0  0  0
   10.0656  -19.1838   27.0811 O   0  0  0  0  0  0  0  0  0  0  0  0
   12.7368  -19.7969   24.3834 O   0  0  0  0  0  0  0  0  0  0  0  0
   10.4940  -17.0787   27.7653 O   0  0  0  0  0  0  0  0  0  0  0  0
  2  1  1  6
  2  3  1  0
  4  2  1  0
  4  5  1  6
  6  4  1  0
  6  8  1  0
  7  6  2  0
  8 12  1  0
  9  8  1  0
 10 11  1  0
 10  9  1  0
 11 12  1  0
 12 13  1  6
 13 15  1  0
 14 13  2  0
 15 16  1  0
 16 20  1  0
 17 18  1  0
 16 17  1  6
 18 22  1  0
 19 18  2  0
 20 21  2  0
 20 23  1  0
M  END
$$$$
