VPD.pdb
     RDKit          3D

 23 23  0  0  1  0  0  0  0  0999 V2000
    7.5792  -15.9680   22.1513 C   0  0  0  0  0  0  0  0  0  0  0  0
    6.7574  -14.6919   21.9870 C   0  0  2  0  0  0  0  0  0  0  0  0
    6.1597  -14.6267   20.6214 C   0  0  0  0  0  0  0  0  0  0  0  0
    7.7345  -13.5477   22.2707 C   0  0  2  0  0  0  0  0  0  0  0  0
    8.8539  -13.7745   21.3175 N   0  0  0  0  0  0  0  0  0  0  0  0
    8.2908  -13.7191   23.6410 C   0  0  0  0  0  0  0  0  0  0  0  0
    9.4279  -14.3174   23.6993 O   0  0  0  0  0  0  0  0  0  0  0  0
    7.6591  -13.2730   24.8270 N   0  0  0  0  0  0  0  0  0  0  0  0
    6.4570  -12.4816   24.9514 C   0  0  0  0  0  0  0  0  0  0  0  0
    6.6927  -11.6971   26.2655 C   0  0  0  0  0  0  0  0  0  0  0  0
    7.2731  -12.8109   27.1100 C   0  0  0  0  0  0  0  0  0  0  0  0
    8.1643  -13.5313   26.1641 C   0  0  1  0  0  0  0  0  0  0  0  0
    8.2027  -14.9923   26.3719 C   0  0  0  0  0  0  0  0  0  0  0  0
    7.2115  -15.7211   26.1039 O   0  0  0  0  0  0  0  0  0  0  0  0
    9.3540  -15.6682   26.8852 N   0  0  0  0  0  0  0  0  0  0  0  0
    9.3803  -17.0508   27.2364 C   0  0  1  0  0  0  0  0  0  0  0  0
    9.8446  -17.8515   26.0405 C   0  0  0  0  0  0  0  0  0  0  0  0
   11.2265  -17.4188   25.7132 C   0  0  0  0  0  0  0  0  0  0  0  0
   11.9044  -17.9527   24.7928 O   0  0  0  0  0  0  0  0  0  0  0  0
   10.2451  -17.3474   28.4021 C   0  0  0  0  0  0  0  0  0  0  0  0
   10.3824  -18.4802   28.9058 O   0  0  0  0  0  0  0  0  0  0  0  0
   11.8628  -16.3899   26.4076 O   0  0  0  0  0  0  0  0  0  0  0  0
   10.9521  -16.2998   28.9756 O   0  0  0  0  0  0  0  0  0  0  0  0
  2  1  1  6
  2  3  1  0
  4  2  1  0
  4  5  1  6
  6  4  1  0
  6  8  1  0
  7  6  2  0
  8 12  1  0
  9  8  1  0
 10 11  1  0
 10  9  1  0
 11 12  1  0
 12 13  1  1
 13 15  1  0
 14 13  2  0
 15 16  1  0
 16 20  1  0
 17 18  1  0
 16 17  1  6
 18 22  1  0
 19 18  2  0
 20 21  2  0
 20 23  1  0
M  END
$$$$
