VPD.pdb
     RDKit          3D

 23 23  0  0  1  0  0  0  0  0999 V2000
    8.0754  -13.6000   27.2519 C   0  0  0  0  0  0  0  0  0  0  0  0
    7.2862  -12.8341   26.1930 C   0  0  2  0  0  0  0  0  0  0  0  0
    6.5481  -11.6950   26.8126 C   0  0  0  0  0  0  0  0  0  0  0  0
    6.3609  -13.8735   25.5543 C   0  0  2  0  0  0  0  0  0  0  0  0
    5.8092  -14.6337   26.7079 N   0  0  0  0  0  0  0  0  0  0  0  0
    7.1841  -14.8271   24.7608 C   0  0  0  0  0  0  0  0  0  0  0  0
    7.5414  -15.8932   25.3855 O   0  0  0  0  0  0  0  0  0  0  0  0
    7.5716  -14.6274   23.4137 N   0  0  0  0  0  0  0  0  0  0  0  0
    7.2682  -13.5039   22.5578 C   0  0  0  0  0  0  0  0  0  0  0  0
    7.2343  -14.1418   21.1472 C   0  0  0  0  0  0  0  0  0  0  0  0
    8.4468  -15.0405   21.2602 C   0  0  0  0  0  0  0  0  0  0  0  0
    8.3466  -15.5818   22.6403 C   0  0  1  0  0  0  0  0  0  0  0  0
    9.6506  -15.7695   23.3064 C   0  0  0  0  0  0  0  0  0  0  0  0
   10.2481  -14.8118   23.8643 O   0  0  0  0  0  0  0  0  0  0  0  0
   10.3132  -17.0358   23.3613 N   0  0  0  0  0  0  0  0  0  0  0  0
   11.6704  -17.2123   23.7643 C   0  0  1  0  0  0  0  0  0  0  0  0
   11.8348  -18.6023   24.3369 C   0  0  0  0  0  0  0  0  0  0  0  0
   10.9449  -18.7142   25.5199 C   0  0  0  0  0  0  0  0  0  0  0  0
   10.9454  -17.8639   26.4520 O   0  0  0  0  0  0  0  0  0  0  0  0
   12.6438  -17.0062   22.6667 C   0  0  0  0  0  0  0  0  0  0  0  0
   12.3632  -17.0852   21.4539 O   0  0  0  0  0  0  0  0  0  0  0  0
   10.0492  -19.7724   25.6734 O   0  0  0  0  0  0  0  0  0  0  0  0
   13.9558  -16.7045   23.0037 O   0  0  0  0  0  0  0  0  0  0  0  0
  2  1  1  1
  2  3  1  0
  4  2  1  0
  4  5  1  1
  6  4  1  0
  6  8  1  0
  7  6  2  0
  8 12  1  0
  9  8  1  0
 10 11  1  0
 10  9  1  0
 11 12  1  0
 12 13  1  1
 13 15  1  0
 14 13  2  0
 15 16  1  0
 16 20  1  0
 17 18  1  0
 16 17  1  6
 18 22  1  0
 19 18  2  0
 20 21  2  0
 20 23  1  0
M  END
$$$$
