VPD.pdb
     RDKit          3D

 23 23  0  0  1  0  0  0  0  0999 V2000
    9.8389  -17.5845   16.4430 C   0  0  0  0  0  0  0  0  0  0  0  0
    8.5843  -16.7501   16.1966 C   0  0  2  0  0  0  0  0  0  0  0  0
    7.9489  -17.1307   14.9014 C   0  0  0  0  0  0  0  0  0  0  0  0
    9.0594  -15.2948   16.2283 C   0  0  2  0  0  0  0  0  0  0  0  0
   10.2872  -15.2899   15.3884 N   0  0  0  0  0  0  0  0  0  0  0  0
    9.4818  -14.9571   17.6154 C   0  0  0  0  0  0  0  0  0  0  0  0
   10.7251  -15.1612   17.8740 O   0  0  0  0  0  0  0  0  0  0  0  0
    8.6214  -14.4430   18.6155 N   0  0  0  0  0  0  0  0  0  0  0  0
    7.1933  -14.2384   18.5414 C   0  0  0  0  0  0  0  0  0  0  0  0
    6.9663  -13.0323   19.4857 C   0  0  0  0  0  0  0  0  0  0  0  0
    7.8815  -13.4393   20.6203 C   0  0  0  0  0  0  0  0  0  0  0  0
    9.0700  -13.9938   19.9219 C   0  0  1  0  0  0  0  0  0  0  0  0
    9.6941  -15.1368   20.6170 C   0  0  0  0  0  0  0  0  0  0  0  0
    9.3921  -16.3253   20.3308 O   0  0  0  0  0  0  0  0  0  0  0  0
   10.6709  -14.9720   21.6486 N   0  0  0  0  0  0  0  0  0  0  0  0
   11.2854  -16.0523   22.3493 C   0  0  1  0  0  0  0  0  0  0  0  0
   12.7012  -15.6611   22.7089 C   0  0  0  0  0  0  0  0  0  0  0  0
   13.3569  -16.8433   23.3225 C   0  0  0  0  0  0  0  0  0  0  0  0
   12.8650  -17.4554   24.3100 O   0  0  0  0  0  0  0  0  0  0  0  0
   10.5529  -16.4552   23.5724 C   0  0  0  0  0  0  0  0  0  0  0  0
    9.7960  -15.7033   24.2186 O   0  0  0  0  0  0  0  0  0  0  0  0
   14.5636  -17.3516   22.8417 O   0  0  0  0  0  0  0  0  0  0  0  0
   10.7151  -17.7538   24.0342 O   0  0  0  0  0  0  0  0  0  0  0  0
  2  1  1  6
  2  3  1  0
  4  2  1  0
  4  5  1  6
  6  4  1  0
  6  8  1  0
  7  6  2  0
  8 12  1  0
  9  8  1  0
 10 11  1  0
 10  9  1  0
 11 12  1  0
 12 13  1  1
 13 15  1  0
 14 13  2  0
 15 16  1  0
 16 20  1  0
 17 18  1  0
 16 17  1  1
 18 22  1  0
 19 18  2  0
 20 21  2  0
 20 23  1  0
M  END
$$$$
