VPD.pdb
     RDKit          3D

 23 23  0  0  1  0  0  0  0  0999 V2000
    7.9420  -13.3984   27.2327 C   0  0  0  0  0  0  0  0  0  0  0  0
    7.1060  -12.6637   26.1876 C   0  0  2  0  0  0  0  0  0  0  0  0
    6.3136  -11.5718   26.8247 C   0  0  0  0  0  0  0  0  0  0  0  0
    6.2320  -13.7434   25.5435 C   0  0  2  0  0  0  0  0  0  0  0  0
    5.6842  -14.5092   26.6952 N   0  0  0  0  0  0  0  0  0  0  0  0
    7.1052  -14.6760   24.7790 C   0  0  0  0  0  0  0  0  0  0  0  0
    7.5629  -15.6725   25.4512 O   0  0  0  0  0  0  0  0  0  0  0  0
    7.4376  -14.5271   23.4107 N   0  0  0  0  0  0  0  0  0  0  0  0
    7.0923  -13.4399   22.5244 C   0  0  0  0  0  0  0  0  0  0  0  0
    7.0074  -14.1330   21.1423 C   0  0  0  0  0  0  0  0  0  0  0  0
    8.2300  -15.0195   21.2418 C   0  0  0  0  0  0  0  0  0  0  0  0
    8.1884  -15.5067   22.6450 C   0  0  1  0  0  0  0  0  0  0  0  0
    9.5190  -15.6605   23.2654 C   0  0  0  0  0  0  0  0  0  0  0  0
    9.7361  -15.3040   24.4533 O   0  0  0  0  0  0  0  0  0  0  0  0
   10.6358  -16.2178   22.5668 N   0  0  0  0  0  0  0  0  0  0  0  0
   11.8687  -16.5794   23.1871 C   0  0  1  0  0  0  0  0  0  0  0  0
   11.5762  -17.4501   24.3884 C   0  0  0  0  0  0  0  0  0  0  0  0
   12.8714  -17.7878   25.0305 C   0  0  0  0  0  0  0  0  0  0  0  0
   13.4758  -18.8730   24.8092 O   0  0  0  0  0  0  0  0  0  0  0  0
   12.8036  -17.2815   22.2773 C   0  0  0  0  0  0  0  0  0  0  0  0
   14.0376  -17.1004   22.2604 O   0  0  0  0  0  0  0  0  0  0  0  0
   13.5022  -16.9208   25.9228 O   0  0  0  0  0  0  0  0  0  0  0  0
   12.2778  -18.2032   21.3828 O   0  0  0  0  0  0  0  0  0  0  0  0
  2  1  1  1
  2  3  1  0
  4  2  1  0
  4  5  1  1
  6  4  1  0
  6  8  1  0
  7  6  2  0
  8 12  1  0
  9  8  1  0
 10 11  1  0
 10  9  1  0
 11 12  1  0
 12 13  1  1
 13 15  1  0
 14 13  2  0
 15 16  1  0
 16 20  1  0
 17 18  1  0
 16 17  1  1
 18 22  1  0
 19 18  2  0
 20 21  2  0
 20 23  1  0
M  END
$$$$
