VPD.pdb
     RDKit          3D

 23 23  0  0  1  0  0  0  0  0999 V2000
    6.2509  -11.9345   26.9927 C   0  0  0  0  0  0  0  0  0  0  0  0
    7.1200  -13.0392   26.3965 C   0  0  2  0  0  0  0  0  0  0  0  0
    8.3642  -12.4648   25.8062 C   0  0  0  0  0  0  0  0  0  0  0  0
    6.2297  -13.7344   25.3629 C   0  0  2  0  0  0  0  0  0  0  0  0
    5.2361  -14.4841   26.1775 N   0  0  0  0  0  0  0  0  0  0  0  0
    7.0417  -14.7455   24.6314 C   0  0  0  0  0  0  0  0  0  0  0  0
    7.2935  -15.8233   25.2865 O   0  0  0  0  0  0  0  0  0  0  0  0
    7.5244  -14.5861   23.3099 N   0  0  0  0  0  0  0  0  0  0  0  0
    7.3327  -13.4628   22.4220 C   0  0  0  0  0  0  0  0  0  0  0  0
    7.3581  -14.1205   21.0204 C   0  0  0  0  0  0  0  0  0  0  0  0
    8.5148  -15.0751   21.2232 C   0  0  0  0  0  0  0  0  0  0  0  0
    8.2993  -15.5891   22.6006 C   0  0  1  0  0  0  0  0  0  0  0  0
    9.5468  -15.8295   23.3523 C   0  0  0  0  0  0  0  0  0  0  0  0
   10.1084  -14.9113   24.0057 O   0  0  0  0  0  0  0  0  0  0  0  0
   10.1922  -17.1054   23.3876 N   0  0  0  0  0  0  0  0  0  0  0  0
   11.4578  -17.3457   24.0007 C   0  0  1  0  0  0  0  0  0  0  0  0
   11.4748  -18.7526   24.5550 C   0  0  0  0  0  0  0  0  0  0  0  0
   12.7318  -18.9214   25.3267 C   0  0  0  0  0  0  0  0  0  0  0  0
   13.2813  -20.0453   25.4907 O   0  0  0  0  0  0  0  0  0  0  0  0
   12.6043  -17.1575   23.0814 C   0  0  0  0  0  0  0  0  0  0  0  0
   12.5644  -17.3750   21.8539 O   0  0  0  0  0  0  0  0  0  0  0  0
   13.3851  -17.8416   25.9206 O   0  0  0  0  0  0  0  0  0  0  0  0
   13.8043  -16.7094   23.6154 O   0  0  0  0  0  0  0  0  0  0  0  0
  2  1  1  6
  2  3  1  0
  4  2  1  0
  4  5  1  1
  6  4  1  0
  6  8  1  0
  7  6  2  0
  8 12  1  0
  9  8  1  0
 10 11  1  0
 10  9  1  0
 11 12  1  0
 12 13  1  1
 13 15  1  0
 14 13  2  0
 15 16  1  0
 16 20  1  0
 17 18  1  0
 16 17  1  6
 18 22  1  0
 19 18  2  0
 20 21  2  0
 20 23  1  0
M  END
$$$$
