VPD.pdb
     RDKit          3D

 23 23  0  0  1  0  0  0  0  0999 V2000
    6.3362  -15.6284   20.9206 C   0  0  0  0  0  0  0  0  0  0  0  0
    7.4026  -15.0586   19.9883 C   0  0  2  0  0  0  0  0  0  0  0  0
    8.5287  -16.0245   19.8293 C   0  0  0  0  0  0  0  0  0  0  0  0
    7.8309  -13.7367   20.6314 C   0  0  2  0  0  0  0  0  0  0  0  0
    8.8435  -13.1819   19.6934 N   0  0  0  0  0  0  0  0  0  0  0  0
    8.5378  -14.0300   21.9084 C   0  0  0  0  0  0  0  0  0  0  0  0
    9.7480  -14.4463   21.7811 O   0  0  0  0  0  0  0  0  0  0  0  0
    7.9692  -13.8766   23.1960 N   0  0  0  0  0  0  0  0  0  0  0  0
    6.6561  -13.3791   23.5353 C   0  0  0  0  0  0  0  0  0  0  0  0
    6.8794  -12.7296   24.9232 C   0  0  0  0  0  0  0  0  0  0  0  0
    7.7612  -13.7900   25.5463 C   0  0  0  0  0  0  0  0  0  0  0  0
    8.6642  -14.1839   24.4338 C   0  0  1  0  0  0  0  0  0  0  0  0
    9.0149  -15.6178   24.4260 C   0  0  0  0  0  0  0  0  0  0  0  0
    8.2664  -16.4751   23.8872 O   0  0  0  0  0  0  0  0  0  0  0  0
   10.2132  -16.1218   25.0225 N   0  0  0  0  0  0  0  0  0  0  0  0
   10.4490  -17.5006   25.3031 C   0  0  1  0  0  0  0  0  0  0  0  0
   11.9233  -17.7905   25.1319 C   0  0  0  0  0  0  0  0  0  0  0  0
   12.2030  -17.8768   23.6764 C   0  0  0  0  0  0  0  0  0  0  0  0
   11.3153  -17.6779   22.8021 O   0  0  0  0  0  0  0  0  0  0  0  0
   10.0139  -17.9099   26.6588 C   0  0  0  0  0  0  0  0  0  0  0  0
    9.7373  -17.1143   27.5787 O   0  0  0  0  0  0  0  0  0  0  0  0
   13.4714  -18.1848   23.1846 O   0  0  0  0  0  0  0  0  0  0  0  0
    9.9046  -19.2668   26.9291 O   0  0  0  0  0  0  0  0  0  0  0  0
  2  1  1  1
  2  3  1  0
  4  2  1  0
  4  5  1  6
  6  4  1  0
  6  8  1  0
  7  6  2  0
  8 12  1  0
  9  8  1  0
 10 11  1  0
 10  9  1  0
 11 12  1  0
 12 13  1  6
 13 15  1  0
 14 13  2  0
 15 16  1  0
 16 20  1  0
 17 18  1  0
 16 17  1  1
 18 22  1  0
 19 18  2  0
 20 21  2  0
 20 23  1  0
M  END
$$$$
