VPD.pdb
     RDKit          3D

 23 23  0  0  1  0  0  0  0  0999 V2000
    7.8766  -13.2545   27.1997 C   0  0  0  0  0  0  0  0  0  0  0  0
    7.2040  -12.4016   26.1268 C   0  0  2  0  0  0  0  0  0  0  0  0
    6.5569  -11.2048   26.7394 C   0  0  0  0  0  0  0  0  0  0  0  0
    6.2069  -13.3379   25.4386 C   0  0  2  0  0  0  0  0  0  0  0  0
    5.4640  -13.9732   26.5599 N   0  0  0  0  0  0  0  0  0  0  0  0
    6.9611  -14.4209   24.7496 C   0  0  0  0  0  0  0  0  0  0  0  0
    7.1724  -15.4753   25.4554 O   0  0  0  0  0  0  0  0  0  0  0  0
    7.4320  -14.3504   23.4162 N   0  0  0  0  0  0  0  0  0  0  0  0
    7.2324  -13.2888   22.4570 C   0  0  0  0  0  0  0  0  0  0  0  0
    7.2452  -14.0386   21.1022 C   0  0  0  0  0  0  0  0  0  0  0  0
    8.4037  -14.9782   21.3580 C   0  0  0  0  0  0  0  0  0  0  0  0
    8.2005  -15.3990   22.7686 C   0  0  1  0  0  0  0  0  0  0  0  0
    9.4547  -15.5894   23.5235 C   0  0  0  0  0  0  0  0  0  0  0  0
    9.5899  -15.1506   24.6959 O   0  0  0  0  0  0  0  0  0  0  0  0
   10.5853  -16.2764   22.9797 N   0  0  0  0  0  0  0  0  0  0  0  0
   11.6455  -16.8197   23.7648 C   0  0  1  0  0  0  0  0  0  0  0  0
   11.0567  -17.7192   24.8283 C   0  0  0  0  0  0  0  0  0  0  0  0
   12.1712  -18.2037   25.6811 C   0  0  0  0  0  0  0  0  0  0  0  0
   13.3752  -17.8961   25.4633 O   0  0  0  0  0  0  0  0  0  0  0  0
   12.6427  -17.5733   22.9695 C   0  0  0  0  0  0  0  0  0  0  0  0
   12.3921  -18.6173   22.3347 O   0  0  0  0  0  0  0  0  0  0  0  0
   11.9532  -19.0333   26.7811 O   0  0  0  0  0  0  0  0  0  0  0  0
   13.9430  -17.0904   22.9236 O   0  0  0  0  0  0  0  0  0  0  0  0
  2  1  1  1
  2  3  1  0
  4  2  1  0
  4  5  1  1
  6  4  1  0
  6  8  1  0
  7  6  2  0
  8 12  1  0
  9  8  1  0
 10 11  1  0
 10  9  1  0
 11 12  1  0
 12 13  1  1
 13 15  1  0
 14 13  2  0
 15 16  1  0
 16 20  1  0
 17 18  1  0
 16 17  1  1
 18 22  1  0
 19 18  2  0
 20 21  2  0
 20 23  1  0
M  END
$$$$
