HGT.pdb
     RDKit          3D

 22 22  0  0  1  0  0  0  0  0999 V2000
    8.6095  -17.9774   20.9798 N   0  0  0  0  0  0  0  0  0  0  0  0
    8.8545  -16.8299   20.1347 C   0  0  1  0  0  0  0  0  0  0  0  0
    8.3037  -17.0592   18.7462 C   0  0  0  0  0  0  0  0  0  0  0  0
    9.1964  -18.0622   18.0650 C   0  0  0  0  0  0  0  0  0  0  0  0
   10.5626  -18.1379   18.1892 C   0  0  0  0  0  0  0  0  0  0  0  0
   10.9573  -19.1641   17.4222 N   0  0  0  0  0  0  0  0  0  0  0  0
    9.8948  -19.7321   16.8246 C   0  0  0  0  0  0  0  0  0  0  0  0
    8.8285  -19.0425   17.2316 N   0  0  0  0  0  0  0  0  0  0  0  0
    8.3006  -15.6039   20.7520 C   0  0  0  0  0  0  0  0  0  0  0  0
    8.5296  -14.5135   20.1913 O   0  0  0  0  0  0  0  0  0  0  0  0
    7.5333  -15.6658   21.9435 N   0  0  0  0  0  0  0  0  0  0  0  0
    7.0176  -14.4800   22.5527 C   0  0  0  0  0  0  0  0  0  0  0  0
    7.7041  -14.1183   23.8059 C   0  0  0  0  0  0  0  0  0  0  0  0
    8.9598  -14.1547   23.8549 O   0  0  0  0  0  0  0  0  0  0  0  0
    6.6360  -10.9610   26.1347 C   0  0  0  0  0  0  0  0  0  0  0  0
    6.7554  -12.2768   26.8906 C   0  0  1  0  0  0  0  0  0  0  0  0
    5.5110  -12.8772   26.9701 O   0  0  0  0  0  0  0  0  0  0  0  0
    7.7294  -13.1742   26.1394 C   0  0  2  0  0  0  0  0  0  0  0  0
    7.0219  -13.7225   24.9870 N   0  0  0  0  0  0  0  0  0  0  0  0
    8.1552  -14.2606   27.0552 C   0  0  0  0  0  0  0  0  0  0  0  0
    7.8022  -15.4355   26.7932 O   0  0  0  0  0  0  0  0  0  0  0  0
    8.9229  -14.0482   28.1862 O   0  0  0  0  0  0  0  0  0  0  0  0
  2  1  1  1
  3  2  1  0
  3  4  1  0
  4  5  2  0
  5  6  1  0
  7  6  1  0
  8  4  1  0
  8  7  2  0
  9  2  1  0
  9 10  2  0
 11  9  1  0
 12 11  1  0
 12 13  1  0
 13 19  1  0
 14 13  2  0
 16 15  1  6
 16 17  1  0
 18 16  1  0
 18 20  1  0
 18 19  1  6
 20 22  1  0
 21 20  2  0
M  END
$$$$
