HGT.pdb
     RDKit          3D

 22 22  0  0  1  0  0  0  0  0999 V2000
    8.4199  -15.5426   22.5342 N   0  0  0  0  0  0  0  0  0  0  0  0
    9.2781  -16.3074   21.6569 C   0  0  1  0  0  0  0  0  0  0  0  0
    9.7805  -15.4509   20.5177 C   0  0  0  0  0  0  0  0  0  0  0  0
    8.6113  -14.6571   19.9984 C   0  0  0  0  0  0  0  0  0  0  0  0
    7.3230  -15.1160   19.8658 C   0  0  0  0  0  0  0  0  0  0  0  0
    6.6058  -14.0968   19.3718 N   0  0  0  0  0  0  0  0  0  0  0  0
    7.3924  -13.0211   19.1904 C   0  0  0  0  0  0  0  0  0  0  0  0
    8.6144  -13.3860   19.5800 N   0  0  0  0  0  0  0  0  0  0  0  0
   10.3902  -16.9161   22.4210 C   0  0  0  0  0  0  0  0  0  0  0  0
   11.1615  -17.6868   21.8152 O   0  0  0  0  0  0  0  0  0  0  0  0
   10.5740  -16.6327   23.7988 N   0  0  0  0  0  0  0  0  0  0  0  0
   11.6881  -17.1633   24.5200 C   0  0  0  0  0  0  0  0  0  0  0  0
   11.6985  -16.7850   25.9445 C   0  0  0  0  0  0  0  0  0  0  0  0
   12.6924  -17.0818   26.6550 O   0  0  0  0  0  0  0  0  0  0  0  0
   10.1324  -13.2900   27.3729 C   0  0  0  0  0  0  0  0  0  0  0  0
    9.6850  -14.5264   28.1396 C   0  0  1  0  0  0  0  0  0  0  0  0
    8.4615  -14.9526   27.6533 O   0  0  0  0  0  0  0  0  0  0  0  0
   10.7364  -15.6121   27.9534 C   0  0  2  0  0  0  0  0  0  0  0  0
   10.6339  -16.0914   26.5790 N   0  0  0  0  0  0  0  0  0  0  0  0
   10.4430  -16.7067   28.9106 C   0  0  0  0  0  0  0  0  0  0  0  0
   10.6080  -16.4896   30.1350 O   0  0  0  0  0  0  0  0  0  0  0  0
    9.9960  -17.9578   28.5254 O   0  0  0  0  0  0  0  0  0  0  0  0
  2  1  1  1
  3  2  1  0
  3  4  1  0
  4  5  2  0
  5  6  1  0
  7  6  1  0
  8  4  1  0
  8  7  2  0
  9  2  1  0
  9 10  2  0
 11  9  1  0
 12 11  1  0
 12 13  1  0
 13 19  1  0
 14 13  2  0
 16 15  1  6
 16 17  1  0
 18 16  1  0
 18 20  1  0
 18 19  1  6
 20 22  1  0
 21 20  2  0
M  END
$$$$
