HGT.pdb
     RDKit          3D

 22 22  0  0  1  0  0  0  0  0999 V2000
    9.4243  -15.9946   19.0588 N   0  0  0  0  0  0  0  0  0  0  0  0
    8.3431  -15.2488   19.6634 C   0  0  1  0  0  0  0  0  0  0  0  0
    7.1155  -15.2743   18.7822 C   0  0  0  0  0  0  0  0  0  0  0  0
    7.5130  -14.7286   17.4364 C   0  0  0  0  0  0  0  0  0  0  0  0
    7.9947  -13.4655   17.1911 C   0  0  0  0  0  0  0  0  0  0  0  0
    8.2210  -13.3951   15.8716 N   0  0  0  0  0  0  0  0  0  0  0  0
    7.9007  -14.5612   15.2832 C   0  0  0  0  0  0  0  0  0  0  0  0
    7.4700  -15.3622   16.2584 N   0  0  0  0  0  0  0  0  0  0  0  0
    8.0568  -15.7606   21.0225 C   0  0  0  0  0  0  0  0  0  0  0  0
    8.3980  -16.9302   21.2896 O   0  0  0  0  0  0  0  0  0  0  0  0
    7.4147  -14.9476   21.9915 N   0  0  0  0  0  0  0  0  0  0  0  0
    7.1478  -15.4375   23.3074 C   0  0  0  0  0  0  0  0  0  0  0  0
    7.8758  -14.7106   24.3628 C   0  0  0  0  0  0  0  0  0  0  0  0
    9.0376  -14.2885   24.1331 O   0  0  0  0  0  0  0  0  0  0  0  0
    6.9253  -11.5275   26.1324 C   0  0  0  0  0  0  0  0  0  0  0  0
    7.0916  -12.6147   27.1845 C   0  0  1  0  0  0  0  0  0  0  0  0
    5.8610  -13.1880   27.4534 O   0  0  0  0  0  0  0  0  0  0  0  0
    8.0566  -13.6612   26.6438 C   0  0  2  0  0  0  0  0  0  0  0  0
    7.3363  -14.4512   25.6507 N   0  0  0  0  0  0  0  0  0  0  0  0
    8.4906  -14.5163   27.7755 C   0  0  0  0  0  0  0  0  0  0  0  0
    8.1148  -15.7129   27.7985 O   0  0  0  0  0  0  0  0  0  0  0  0
    9.2898  -14.0648   28.8104 O   0  0  0  0  0  0  0  0  0  0  0  0
  2  1  1  6
  3  2  1  0
  3  4  1  0
  4  5  2  0
  5  6  1  0
  7  6  1  0
  8  4  1  0
  8  7  2  0
  9  2  1  0
  9 10  2  0
 11  9  1  0
 12 11  1  0
 12 13  1  0
 13 19  1  0
 14 13  2  0
 16 15  1  6
 16 17  1  0
 18 16  1  0
 18 20  1  0
 18 19  1  6
 20 22  1  0
 21 20  2  0
M  END
$$$$
