HGT.pdb
     RDKit          3D

 22 22  0  0  1  0  0  0  0  0999 V2000
    9.0302  -15.8791   19.9936 N   0  0  0  0  0  0  0  0  0  0  0  0
    8.3045  -14.7214   20.4667 C   0  0  1  0  0  0  0  0  0  0  0  0
    7.0642  -14.4893   19.6349 C   0  0  0  0  0  0  0  0  0  0  0  0
    7.5124  -14.1662   18.2343 C   0  0  0  0  0  0  0  0  0  0  0  0
    8.5515  -13.3339   17.8942 C   0  0  0  0  0  0  0  0  0  0  0  0
    8.6087  -13.3259   16.5549 N   0  0  0  0  0  0  0  0  0  0  0  0
    7.6491  -14.1182   16.0448 C   0  0  0  0  0  0  0  0  0  0  0  0
    6.9906  -14.6218   17.0893 N   0  0  0  0  0  0  0  0  0  0  0  0
    7.9851  -14.8619   21.9052 C   0  0  0  0  0  0  0  0  0  0  0  0
    7.5281  -13.8664   22.5016 O   0  0  0  0  0  0  0  0  0  0  0  0
    8.1919  -16.0896   22.5851 N   0  0  0  0  0  0  0  0  0  0  0  0
    9.1044  -16.1826   23.6813 C   0  0  0  0  0  0  0  0  0  0  0  0
    9.0575  -15.0183   24.5839 C   0  0  0  0  0  0  0  0  0  0  0  0
    9.8789  -14.0799   24.4246 O   0  0  0  0  0  0  0  0  0  0  0  0
    6.7041  -12.2722   25.6611 C   0  0  0  0  0  0  0  0  0  0  0  0
    6.9290  -13.1864   26.8571 C   0  0  1  0  0  0  0  0  0  0  0  0
    5.9126  -14.1237   26.9183 O   0  0  0  0  0  0  0  0  0  0  0  0
    8.2759  -13.8760   26.6866 C   0  0  2  0  0  0  0  0  0  0  0  0
    8.1230  -14.8866   25.6452 N   0  0  0  0  0  0  0  0  0  0  0  0
    8.6364  -14.5091   27.9787 C   0  0  0  0  0  0  0  0  0  0  0  0
    8.6098  -15.7607   28.0586 O   0  0  0  0  0  0  0  0  0  0  0  0
    9.0015  -13.7923   29.1040 O   0  0  0  0  0  0  0  0  0  0  0  0
  2  1  1  6
  3  2  1  0
  3  4  1  0
  4  5  2  0
  5  6  1  0
  7  6  1  0
  8  4  1  0
  8  7  2  0
  9  2  1  0
  9 10  2  0
 11  9  1  0
 12 11  1  0
 12 13  1  0
 13 19  1  0
 14 13  2  0
 16 15  1  6
 16 17  1  0
 18 16  1  0
 18 20  1  0
 18 19  1  6
 20 22  1  0
 21 20  2  0
M  END
$$$$
