HGT.pdb
     RDKit          3D

 22 22  0  0  1  0  0  0  0  0999 V2000
    8.5918  -16.2756   21.4142 N   0  0  0  0  0  0  0  0  0  0  0  0
    9.5525  -16.5863   20.3791 C   0  0  1  0  0  0  0  0  0  0  0  0
   10.1406  -15.3219   19.7963 C   0  0  0  0  0  0  0  0  0  0  0  0
    8.9939  -14.4374   19.3844 C   0  0  0  0  0  0  0  0  0  0  0  0
    8.4447  -13.4290   20.1390 C   0  0  0  0  0  0  0  0  0  0  0  0
    7.4562  -12.8999   19.4040 N   0  0  0  0  0  0  0  0  0  0  0  0
    7.3655  -13.5358   18.2224 C   0  0  0  0  0  0  0  0  0  0  0  0
    8.3150  -14.4720   18.2317 N   0  0  0  0  0  0  0  0  0  0  0  0
   10.6005  -17.4927   20.8997 C   0  0  0  0  0  0  0  0  0  0  0  0
   11.5488  -17.7839   20.1435 O   0  0  0  0  0  0  0  0  0  0  0  0
   10.5299  -18.0144   22.2169 N   0  0  0  0  0  0  0  0  0  0  0  0
   11.5042  -18.9435   22.6970 C   0  0  0  0  0  0  0  0  0  0  0  0
   11.3074  -19.3236   24.1074 C   0  0  0  0  0  0  0  0  0  0  0  0
   10.3535  -18.8221   24.7548 O   0  0  0  0  0  0  0  0  0  0  0  0
   12.2529  -23.0367   25.5512 C   0  0  0  0  0  0  0  0  0  0  0  0
   12.7224  -21.8960   26.4427 C   0  0  1  0  0  0  0  0  0  0  0  0
   14.0504  -21.6158   26.1717 O   0  0  0  0  0  0  0  0  0  0  0  0
   11.8552  -20.6771   26.1579 C   0  0  2  0  0  0  0  0  0  0  0  0
   12.1452  -20.2404   24.7962 N   0  0  0  0  0  0  0  0  0  0  0  0
   12.2141  -19.6183   27.1328 C   0  0  0  0  0  0  0  0  0  0  0  0
   12.8644  -18.6262   26.7247 O   0  0  0  0  0  0  0  0  0  0  0  0
   11.8696  -19.6652   28.4717 O   0  0  0  0  0  0  0  0  0  0  0  0
  2  1  1  1
  3  2  1  0
  3  4  1  0
  4  5  2  0
  5  6  1  0
  7  6  1  0
  8  4  1  0
  8  7  2  0
  9  2  1  0
  9 10  2  0
 11  9  1  0
 12 11  1  0
 12 13  1  0
 13 19  1  0
 14 13  2  0
 16 15  1  6
 16 17  1  0
 18 16  1  0
 18 20  1  0
 18 19  1  6
 20 22  1  0
 21 20  2  0
M  END
$$$$
