HGT.pdb
     RDKit          3D

 22 22  0  0  1  0  0  0  0  0999 V2000
    6.9422  -14.0262   19.3880 N   0  0  0  0  0  0  0  0  0  0  0  0
    7.6414  -15.2888   19.4758 C   0  0  1  0  0  0  0  0  0  0  0  0
    8.9611  -15.2232   18.7421 C   0  0  0  0  0  0  0  0  0  0  0  0
    8.6625  -14.9048   17.3011 C   0  0  0  0  0  0  0  0  0  0  0  0
    8.1872  -13.7072   16.8239 C   0  0  0  0  0  0  0  0  0  0  0  0
    8.0624  -13.8500   15.4967 N   0  0  0  0  0  0  0  0  0  0  0  0
    8.4398  -15.0864   15.1258 C   0  0  0  0  0  0  0  0  0  0  0  0
    8.8029  -15.7143   16.2448 N   0  0  0  0  0  0  0  0  0  0  0  0
    7.8166  -15.6871   20.8906 C   0  0  0  0  0  0  0  0  0  0  0  0
    8.6194  -16.6078   21.1427 O   0  0  0  0  0  0  0  0  0  0  0  0
    7.0947  -15.0429   21.9280 N   0  0  0  0  0  0  0  0  0  0  0  0
    7.1010  -15.5565   23.2618 C   0  0  0  0  0  0  0  0  0  0  0  0
    7.7542  -14.6601   24.2325 C   0  0  0  0  0  0  0  0  0  0  0  0
    8.7213  -13.9476   23.8615 O   0  0  0  0  0  0  0  0  0  0  0  0
    6.5704  -11.7009   26.0901 C   0  0  0  0  0  0  0  0  0  0  0  0
    6.9628  -12.7414   27.1295 C   0  0  1  0  0  0  0  0  0  0  0  0
    5.8473  -13.4779   27.4881 O   0  0  0  0  0  0  0  0  0  0  0  0
    8.0239  -13.6490   26.5220 C   0  0  2  0  0  0  0  0  0  0  0  0
    7.3515  -14.5479   25.5898 N   0  0  0  0  0  0  0  0  0  0  0  0
    8.6578  -14.4169   27.6215 C   0  0  0  0  0  0  0  0  0  0  0  0
    8.4495  -15.6523   27.6846 O   0  0  0  0  0  0  0  0  0  0  0  0
    9.4688  -13.8431   28.5841 O   0  0  0  0  0  0  0  0  0  0  0  0
  2  1  1  1
  3  2  1  0
  3  4  1  0
  4  5  2  0
  5  6  1  0
  7  6  1  0
  8  4  1  0
  8  7  2  0
  9  2  1  0
  9 10  2  0
 11  9  1  0
 12 11  1  0
 12 13  1  0
 13 19  1  0
 14 13  2  0
 16 15  1  6
 16 17  1  0
 18 16  1  0
 18 20  1  0
 18 19  1  6
 20 22  1  0
 21 20  2  0
M  END
$$$$
