HGT.pdb
     RDKit          3D

 22 22  0  0  1  0  0  0  0  0999 V2000
    8.2368  -15.8942   20.5415 N   0  0  0  0  0  0  0  0  0  0  0  0
    9.3394  -16.2884   19.6931 C   0  0  1  0  0  0  0  0  0  0  0  0
    9.9114  -15.0928   18.9670 C   0  0  0  0  0  0  0  0  0  0  0  0
    8.7797  -14.4262   18.2309 C   0  0  0  0  0  0  0  0  0  0  0  0
    8.4563  -14.6180   16.9094 C   0  0  0  0  0  0  0  0  0  0  0  0
    7.3934  -13.8394   16.6618 N   0  0  0  0  0  0  0  0  0  0  0  0
    7.0401  -13.1697   17.7732 C   0  0  0  0  0  0  0  0  0  0  0  0
    7.9010  -13.5436   18.7204 N   0  0  0  0  0  0  0  0  0  0  0  0
   10.3708  -17.0003   20.4809 C   0  0  0  0  0  0  0  0  0  0  0  0
   11.4330  -17.3112   19.9059 O   0  0  0  0  0  0  0  0  0  0  0  0
   10.1589  -17.3194   21.8468 N   0  0  0  0  0  0  0  0  0  0  0  0
   11.1636  -17.0616   22.8302 C   0  0  0  0  0  0  0  0  0  0  0  0
   10.6224  -16.5458   24.1004 C   0  0  0  0  0  0  0  0  0  0  0  0
   11.4038  -16.3246   25.0601 O   0  0  0  0  0  0  0  0  0  0  0  0
    7.8201  -13.8637   25.0269 C   0  0  0  0  0  0  0  0  0  0  0  0
    7.4273  -15.2523   25.5107 C   0  0  1  0  0  0  0  0  0  0  0  0
    6.5670  -15.8331   24.5954 O   0  0  0  0  0  0  0  0  0  0  0  0
    8.6933  -16.0867   25.6511 C   0  0  2  0  0  0  0  0  0  0  0  0
    9.2442  -16.2772   24.3134 N   0  0  0  0  0  0  0  0  0  0  0  0
    8.3214  -17.3907   26.2524 C   0  0  0  0  0  0  0  0  0  0  0  0
    7.9156  -17.4072   27.4393 O   0  0  0  0  0  0  0  0  0  0  0  0
    8.3980  -18.5936   25.5736 O   0  0  0  0  0  0  0  0  0  0  0  0
  2  1  1  1
  3  2  1  0
  3  4  1  0
  4  5  2  0
  5  6  1  0
  7  6  1  0
  8  4  1  0
  8  7  2  0
  9  2  1  0
  9 10  2  0
 11  9  1  0
 12 11  1  0
 12 13  1  0
 13 19  1  0
 14 13  2  0
 16 15  1  6
 16 17  1  0
 18 16  1  0
 18 20  1  0
 18 19  1  6
 20 22  1  0
 21 20  2  0
M  END
$$$$
