HGT.pdb
     RDKit          3D

 22 22  0  0  1  0  0  0  0  0999 V2000
    6.5052  -16.8942   20.8879 N   0  0  0  0  0  0  0  0  0  0  0  0
    7.7160  -17.0432   20.1116 C   0  0  1  0  0  0  0  0  0  0  0  0
    7.5897  -16.3387   18.7806 C   0  0  0  0  0  0  0  0  0  0  0  0
    7.8209  -14.8706   19.0218 C   0  0  0  0  0  0  0  0  0  0  0  0
    6.8584  -13.9494   19.3576 C   0  0  0  0  0  0  0  0  0  0  0  0
    7.4862  -12.7709   19.4775 N   0  0  0  0  0  0  0  0  0  0  0  0
    8.8000  -12.9180   19.2307 C   0  0  0  0  0  0  0  0  0  0  0  0
    8.9826  -14.2097   18.9542 N   0  0  0  0  0  0  0  0  0  0  0  0
    8.8867  -16.5638   20.8802 C   0  0  0  0  0  0  0  0  0  0  0  0
   10.0017  -16.5891   20.3217 O   0  0  0  0  0  0  0  0  0  0  0  0
    8.7463  -16.0903   22.2100 N   0  0  0  0  0  0  0  0  0  0  0  0
    9.8669  -15.5773   22.9339 C   0  0  0  0  0  0  0  0  0  0  0  0
    9.5144  -15.0510   24.2648 C   0  0  0  0  0  0  0  0  0  0  0  0
   10.4203  -14.5975   25.0093 O   0  0  0  0  0  0  0  0  0  0  0  0
    6.8319  -12.6961   25.8371 C   0  0  0  0  0  0  0  0  0  0  0  0
    6.6035  -14.1158   26.3363 C   0  0  1  0  0  0  0  0  0  0  0  0
    5.6066  -14.7136   25.5853 O   0  0  0  0  0  0  0  0  0  0  0  0
    7.9080  -14.8887   26.1961 C   0  0  2  0  0  0  0  0  0  0  0  0
    8.1875  -15.0232   24.7703 N   0  0  0  0  0  0  0  0  0  0  0  0
    7.7230  -16.2220   26.8193 C   0  0  0  0  0  0  0  0  0  0  0  0
    7.6587  -17.2271   26.0716 O   0  0  0  0  0  0  0  0  0  0  0  0
    7.6171  -16.4180   28.1846 O   0  0  0  0  0  0  0  0  0  0  0  0
  2  1  1  1
  3  2  1  0
  3  4  1  0
  4  5  2  0
  5  6  1  0
  7  6  1  0
  8  4  1  0
  8  7  2  0
  9  2  1  0
  9 10  2  0
 11  9  1  0
 12 11  1  0
 12 13  1  0
 13 19  1  0
 14 13  2  0
 16 15  1  6
 16 17  1  0
 18 16  1  0
 18 20  1  0
 18 19  1  6
 20 22  1  0
 21 20  2  0
M  END
$$$$
