HGT.pdb
     RDKit          3D

 22 22  0  0  1  0  0  0  0  0999 V2000
    9.2589  -15.8474   20.2985 N   0  0  0  0  0  0  0  0  0  0  0  0
    8.5413  -14.9103   21.1338 C   0  0  1  0  0  0  0  0  0  0  0  0
    7.1529  -14.6619   20.5908 C   0  0  0  0  0  0  0  0  0  0  0  0
    7.2959  -14.2740   19.1430 C   0  0  0  0  0  0  0  0  0  0  0  0
    7.8249  -13.0956   18.6747 C   0  0  0  0  0  0  0  0  0  0  0  0
    7.7642  -13.1574   17.3368 N   0  0  0  0  0  0  0  0  0  0  0  0
    7.2196  -14.3249   16.9507 C   0  0  0  0  0  0  0  0  0  0  0  0
    6.9407  -14.9921   18.0711 N   0  0  0  0  0  0  0  0  0  0  0  0
    8.5082  -15.3851   22.5354 C   0  0  0  0  0  0  0  0  0  0  0  0
    7.8748  -14.7049   23.3673 O   0  0  0  0  0  0  0  0  0  0  0  0
    9.1753  -16.5759   22.9216 N   0  0  0  0  0  0  0  0  0  0  0  0
    9.0611  -17.0891   24.2507 C   0  0  0  0  0  0  0  0  0  0  0  0
    9.8646  -16.3455   25.2377 C   0  0  0  0  0  0  0  0  0  0  0  0
   10.9832  -15.8817   24.8998 O   0  0  0  0  0  0  0  0  0  0  0  0
   10.3330  -13.4163   29.0014 C   0  0  0  0  0  0  0  0  0  0  0  0
    9.4286  -14.3083   28.1628 C   0  0  1  0  0  0  0  0  0  0  0  0
    8.8156  -13.5499   27.1807 O   0  0  0  0  0  0  0  0  0  0  0  0
   10.2831  -15.3999   27.5328 C   0  0  2  0  0  0  0  0  0  0  0  0
    9.4460  -16.1149   26.5750 N   0  0  0  0  0  0  0  0  0  0  0  0
   10.7357  -16.3113   28.6121 C   0  0  0  0  0  0  0  0  0  0  0  0
   10.1467  -17.4099   28.7524 O   0  0  0  0  0  0  0  0  0  0  0  0
   11.7753  -16.0148   29.4752 O   0  0  0  0  0  0  0  0  0  0  0  0
  2  1  1  6
  3  2  1  0
  3  4  1  0
  4  5  2  0
  5  6  1  0
  7  6  1  0
  8  4  1  0
  8  7  2  0
  9  2  1  0
  9 10  2  0
 11  9  1  0
 12 11  1  0
 12 13  1  0
 13 19  1  0
 14 13  2  0
 16 15  1  6
 16 17  1  0
 18 16  1  0
 18 20  1  0
 18 19  1  6
 20 22  1  0
 21 20  2  0
M  END
$$$$
