HGT.pdb
     RDKit          3D

 22 22  0  0  1  0  0  0  0  0999 V2000
    9.3078  -14.9400   20.8810 N   0  0  0  0  0  0  0  0  0  0  0  0
    7.9367  -14.6510   21.2379 C   0  0  1  0  0  0  0  0  0  0  0  0
    6.9991  -15.0287   20.1144 C   0  0  0  0  0  0  0  0  0  0  0  0
    7.4901  -14.3451   18.8660 C   0  0  0  0  0  0  0  0  0  0  0  0
    7.9236  -13.0442   18.7789 C   0  0  0  0  0  0  0  0  0  0  0  0
    8.2677  -12.8435   17.4988 N   0  0  0  0  0  0  0  0  0  0  0  0
    8.0672  -13.9646   16.7834 C   0  0  0  0  0  0  0  0  0  0  0  0
    7.5915  -14.8699   17.6392 N   0  0  0  0  0  0  0  0  0  0  0  0
    7.5778  -15.3257   22.5056 C   0  0  0  0  0  0  0  0  0  0  0  0
    6.3961  -15.6953   22.6559 O   0  0  0  0  0  0  0  0  0  0  0  0
    8.5465  -15.5455   23.5184 N   0  0  0  0  0  0  0  0  0  0  0  0
    8.1758  -16.0766   24.7926 C   0  0  0  0  0  0  0  0  0  0  0  0
    9.2981  -16.1538   25.7449 C   0  0  0  0  0  0  0  0  0  0  0  0
   10.4768  -16.1882   25.3088 O   0  0  0  0  0  0  0  0  0  0  0  0
   10.8864  -13.8764   29.4881 C   0  0  0  0  0  0  0  0  0  0  0  0
    9.6998  -14.5126   28.7782 C   0  0  1  0  0  0  0  0  0  0  0  0
    9.1757  -13.6165   27.8631 O   0  0  0  0  0  0  0  0  0  0  0  0
   10.1836  -15.7709   28.0700 C   0  0  2  0  0  0  0  0  0  0  0  0
    9.1286  -16.1925   27.1544 N   0  0  0  0  0  0  0  0  0  0  0  0
   10.4295  -16.8122   29.0973 C   0  0  0  0  0  0  0  0  0  0  0  0
    9.5397  -17.6727   29.3006 O   0  0  0  0  0  0  0  0  0  0  0  0
   11.5904  -16.8865   29.8460 O   0  0  0  0  0  0  0  0  0  0  0  0
  2  1  1  6
  3  2  1  0
  3  4  1  0
  4  5  2  0
  5  6  1  0
  7  6  1  0
  8  4  1  0
  8  7  2  0
  9  2  1  0
  9 10  2  0
 11  9  1  0
 12 11  1  0
 12 13  1  0
 13 19  1  0
 14 13  2  0
 16 15  1  6
 16 17  1  0
 18 16  1  0
 18 20  1  0
 18 19  1  6
 20 22  1  0
 21 20  2  0
M  END
$$$$
