THI.pdb
     RDKit          3D

 26 26  0  0  1  0  0  0  0  0999 V2000
    9.3431  -12.2331   18.0070 C   0  0  0  0  0  0  0  0  0  0  0  0
    8.9046  -12.9899   19.2396 C   0  0  1  0  0  0  0  0  0  0  0  0
    7.7480  -12.3955   19.7084 O   0  0  0  0  0  0  0  0  0  0  0  0
    8.7448  -14.4619   18.9534 C   0  0  2  0  0  0  0  0  0  0  0  0
    7.7101  -14.6060   17.9608 N   0  0  0  0  0  0  0  0  0  0  0  0
    8.4383  -15.2587   20.1418 C   0  0  0  0  0  0  0  0  0  0  0  0
    7.2703  -15.6854   20.3259 O   0  0  0  0  0  0  0  0  0  0  0  0
    9.4051  -15.5859   21.1217 N   0  0  0  0  0  0  0  0  0  0  0  0
    9.0629  -16.3968   22.3274 C   0  0  1  0  0  0  0  0  0  0  0  0
   10.0056  -17.5688   22.3208 C   0  0  0  0  0  0  0  0  0  0  0  0
   10.0183  -18.4077   23.5041 C   0  0  0  0  0  0  0  0  0  0  0  0
   11.0436  -18.4177   24.4593 C   0  0  0  0  0  0  0  0  0  0  0  0
   10.6650  -19.3207   25.3692 N   0  0  0  0  0  0  0  0  0  0  0  0
    9.4877  -19.8511   25.0270 C   0  0  0  0  0  0  0  0  0  0  0  0
    9.0901  -19.2954   23.8881 N   0  0  0  0  0  0  0  0  0  0  0  0
    9.2327  -15.5349   23.4878 C   0  0  0  0  0  0  0  0  0  0  0  0
   10.2218  -14.7261   23.5219 O   0  0  0  0  0  0  0  0  0  0  0  0
    6.7403  -11.5758   27.0303 C   0  0  0  0  0  0  0  0  0  0  0  0
    7.7577  -12.6607   26.9680 C   0  0  0  0  0  0  0  0  0  0  0  0
    7.4963  -13.6754   25.8844 C   0  0  2  0  0  0  0  0  0  0  0  0
    6.2091  -14.4231   26.1076 C   0  0  0  0  0  0  0  0  0  0  0  0
    8.6503  -14.6640   25.7626 C   0  0  2  0  0  0  0  0  0  0  0  0
    8.3689  -15.5064   24.6127 N   0  0  0  0  0  0  0  0  0  0  0  0
    8.7998  -15.4229   27.0120 C   0  0  0  0  0  0  0  0  0  0  0  0
    8.5558  -16.7699   27.1788 O   0  0  0  0  0  0  0  0  0  0  0  0
    9.1914  -14.8286   28.0854 O   0  0  0  0  0  0  0  0  0  0  0  0
  2  1  1  6
  3  2  1  0
  4  2  1  0
  4  6  1  0
  4  5  1  6
  6  7  2  0
  8  6  1  0
  8  9  1  0
  9 10  1  1
 11 10  1  0
 12 11  2  0
 13 12  1  0
 14 13  1  0
 14 15  2  0
 15 11  1  0
 16  9  1  0
 16 17  2  0
 18 19  1  0
 19 20  1  0
 20 21  1  1
 20 22  1  0
 22 23  1  6
 23 16  1  0
 24 22  1  0
 24 25  1  0
 26 24  2  0
M  END
$$$$
