THI.pdb
     RDKit          3D

 26 26  0  0  1  0  0  0  0  0999 V2000
    8.6434  -12.5014   19.0944 C   0  0  0  0  0  0  0  0  0  0  0  0
    8.6170  -13.2214   20.4230 C   0  0  1  0  0  0  0  0  0  0  0  0
    7.9869  -12.3962   21.3357 O   0  0  0  0  0  0  0  0  0  0  0  0
    7.9707  -14.5783   20.3004 C   0  0  2  0  0  0  0  0  0  0  0  0
    6.6325  -14.3835   19.8025 N   0  0  0  0  0  0  0  0  0  0  0  0
    7.9530  -15.3330   21.5539 C   0  0  0  0  0  0  0  0  0  0  0  0
    6.8854  -15.4332   22.2100 O   0  0  0  0  0  0  0  0  0  0  0  0
    9.0974  -15.9736   22.0850 N   0  0  0  0  0  0  0  0  0  0  0  0
    9.0482  -16.7446   23.3623 C   0  0  1  0  0  0  0  0  0  0  0  0
    9.9570  -17.9274   23.1685 C   0  0  0  0  0  0  0  0  0  0  0  0
    9.4704  -18.9966   22.3173 C   0  0  0  0  0  0  0  0  0  0  0  0
    8.1816  -19.5423   22.3865 C   0  0  0  0  0  0  0  0  0  0  0  0
    8.1513  -20.4882   21.4427 N   0  0  0  0  0  0  0  0  0  0  0  0
    9.3286  -20.5473   20.8143 C   0  0  0  0  0  0  0  0  0  0  0  0
   10.1365  -19.6373   21.3464 N   0  0  0  0  0  0  0  0  0  0  0  0
    9.4931  -15.8512   24.4215 C   0  0  0  0  0  0  0  0  0  0  0  0
   10.5441  -15.1467   24.2399 O   0  0  0  0  0  0  0  0  0  0  0  0
    6.1422  -12.7664   26.7551 C   0  0  0  0  0  0  0  0  0  0  0  0
    7.3810  -13.4081   26.2359 C   0  0  0  0  0  0  0  0  0  0  0  0
    8.2278  -14.0465   27.3071 C   0  0  2  0  0  0  0  0  0  0  0  0
    8.7484  -13.0363   28.2942 C   0  0  0  0  0  0  0  0  0  0  0  0
    9.3929  -14.8216   26.7023 C   0  0  2  0  0  0  0  0  0  0  0  0
    8.8409  -15.6821   25.6698 N   0  0  0  0  0  0  0  0  0  0  0  0
   10.1059  -15.5628   27.7519 C   0  0  0  0  0  0  0  0  0  0  0  0
   10.0724  -16.9272   27.9488 O   0  0  0  0  0  0  0  0  0  0  0  0
   10.8465  -14.9334   28.5970 O   0  0  0  0  0  0  0  0  0  0  0  0
  2  1  1  6
  3  2  1  0
  4  2  1  0
  4  6  1  0
  4  5  1  1
  6  7  2  0
  8  6  1  0
  8  9  1  0
  9 10  1  6
 11 10  1  0
 12 11  2  0
 13 12  1  0
 14 13  1  0
 14 15  2  0
 15 11  1  0
 16  9  1  0
 16 17  2  0
 18 19  1  0
 19 20  1  0
 20 21  1  1
 20 22  1  0
 22 23  1  6
 23 16  1  0
 24 22  1  0
 24 25  1  0
 26 24  2  0
M  END
$$$$
