THI.pdb
     RDKit          3D

 26 26  0  0  1  0  0  0  0  0999 V2000
    9.1071  -12.5364   19.7801 C   0  0  0  0  0  0  0  0  0  0  0  0
    8.3878  -13.2920   18.6865 C   0  0  1  0  0  0  0  0  0  0  0  0
    8.8681  -12.8346   17.4737 O   0  0  0  0  0  0  0  0  0  0  0  0
    8.5325  -14.7828   18.8613 C   0  0  2  0  0  0  0  0  0  0  0  0
    7.9078  -15.4200   17.7298 N   0  0  0  0  0  0  0  0  0  0  0  0
    7.9672  -15.2822   20.1153 C   0  0  0  0  0  0  0  0  0  0  0  0
    6.7261  -15.4531   20.2189 O   0  0  0  0  0  0  0  0  0  0  0  0
    8.7564  -15.5920   21.2480 N   0  0  0  0  0  0  0  0  0  0  0  0
    8.1555  -16.1257   22.5059 C   0  0  1  0  0  0  0  0  0  0  0  0
    8.5613  -17.5722   22.5789 C   0  0  0  0  0  0  0  0  0  0  0  0
    8.2166  -18.2903   23.7912 C   0  0  0  0  0  0  0  0  0  0  0  0
    9.1083  -18.5508   24.8405 C   0  0  0  0  0  0  0  0  0  0  0  0
    8.3949  -19.2275   25.7457 N   0  0  0  0  0  0  0  0  0  0  0  0
    7.1414  -19.3904   25.3136 C   0  0  0  0  0  0  0  0  0  0  0  0
    7.0295  -18.8189   24.1200 N   0  0  0  0  0  0  0  0  0  0  0  0
    8.6812  -15.3298   23.6052 C   0  0  0  0  0  0  0  0  0  0  0  0
    9.9173  -15.0045   23.6014 O   0  0  0  0  0  0  0  0  0  0  0  0
    5.6013  -12.0097   26.9415 C   0  0  0  0  0  0  0  0  0  0  0  0
    6.3640  -13.2217   26.5347 C   0  0  0  0  0  0  0  0  0  0  0  0
    7.7834  -12.9332   26.1178 C   0  0  2  0  0  0  0  0  0  0  0  0
    7.8476  -12.0401   24.9079 C   0  0  0  0  0  0  0  0  0  0  0  0
    8.5530  -14.2211   25.8472 C   0  0  2  0  0  0  0  0  0  0  0  0
    7.9202  -14.8630   24.7075 N   0  0  0  0  0  0  0  0  0  0  0  0
    8.5669  -15.0640   27.0508 C   0  0  0  0  0  0  0  0  0  0  0  0
    7.9560  -16.2924   27.1897 O   0  0  0  0  0  0  0  0  0  0  0  0
    9.1910  -14.6713   28.1067 O   0  0  0  0  0  0  0  0  0  0  0  0
  2  1  1  1
  3  2  1  0
  4  2  1  0
  4  6  1  0
  4  5  1  6
  6  7  2  0
  8  6  1  0
  8  9  1  0
  9 10  1  1
 11 10  1  0
 12 11  2  0
 13 12  1  0
 14 13  1  0
 14 15  2  0
 15 11  1  0
 16  9  1  0
 16 17  2  0
 18 19  1  0
 19 20  1  0
 20 21  1  6
 20 22  1  0
 22 23  1  6
 23 16  1  0
 24 22  1  0
 24 25  1  0
 26 24  2  0
M  END
$$$$
