THI.pdb
     RDKit          3D

 26 26  0  0  1  0  0  0  0  0999 V2000
   10.3056  -13.4759   18.1150 C   0  0  0  0  0  0  0  0  0  0  0  0
    9.7487  -13.8713   19.4632 C   0  0  1  0  0  0  0  0  0  0  0  0
    9.8638  -12.7788   20.3023 O   0  0  0  0  0  0  0  0  0  0  0  0
    8.3362  -14.3864   19.3451 C   0  0  2  0  0  0  0  0  0  0  0  0
    7.5341  -13.3384   18.7665 N   0  0  0  0  0  0  0  0  0  0  0  0
    7.7680  -14.8319   20.6179 C   0  0  0  0  0  0  0  0  0  0  0  0
    6.8264  -14.1862   21.1439 O   0  0  0  0  0  0  0  0  0  0  0  0
    8.2284  -15.9772   21.3095 N   0  0  0  0  0  0  0  0  0  0  0  0
    7.5761  -16.4564   22.5637 C   0  0  1  0  0  0  0  0  0  0  0  0
    7.8336  -17.9370   22.6261 C   0  0  0  0  0  0  0  0  0  0  0  0
    7.3747  -18.6337   23.8128 C   0  0  0  0  0  0  0  0  0  0  0  0
    6.7173  -18.0216   24.8884 C   0  0  0  0  0  0  0  0  0  0  0  0
    6.4758  -19.0079   25.7576 N   0  0  0  0  0  0  0  0  0  0  0  0
    6.9413  -20.1651   25.2795 C   0  0  0  0  0  0  0  0  0  0  0  0
    7.4909  -19.9397   24.0916 N   0  0  0  0  0  0  0  0  0  0  0  0
    8.1790  -15.7257   23.6686 C   0  0  0  0  0  0  0  0  0  0  0  0
    9.4469  -15.5653   23.6893 O   0  0  0  0  0  0  0  0  0  0  0  0
    5.7090  -11.5447   25.9267 C   0  0  0  0  0  0  0  0  0  0  0  0
    6.6962  -12.5333   25.4127 C   0  0  0  0  0  0  0  0  0  0  0  0
    7.1887  -13.4989   26.4602 C   0  0  2  0  0  0  0  0  0  0  0  0
    7.8490  -12.7936   27.6145 C   0  0  0  0  0  0  0  0  0  0  0  0
    8.1513  -14.5191   25.8629 C   0  0  2  0  0  0  0  0  0  0  0  0
    7.4633  -15.1526   24.7510 N   0  0  0  0  0  0  0  0  0  0  0  0
    8.5814  -15.4726   26.8950 C   0  0  0  0  0  0  0  0  0  0  0  0
    9.7637  -15.4251   27.6032 O   0  0  0  0  0  0  0  0  0  0  0  0
    7.8261  -16.4670   27.2102 O   0  0  0  0  0  0  0  0  0  0  0  0
  2  1  1  6
  3  2  1  0
  4  2  1  0
  4  6  1  0
  4  5  1  1
  6  7  2  0
  8  6  1  0
  8  9  1  0
  9 10  1  1
 11 10  1  0
 12 11  2  0
 13 12  1  0
 14 13  1  0
 14 15  2  0
 15 11  1  0
 16  9  1  0
 16 17  2  0
 18 19  1  0
 19 20  1  0
 20 21  1  1
 20 22  1  0
 22 23  1  6
 23 16  1  0
 24 22  1  0
 24 25  1  0
 26 24  2  0
M  END
$$$$
