THI.pdb
     RDKit          3D

 26 26  0  0  1  0  0  0  0  0999 V2000
    8.8120  -12.3910   20.1709 C   0  0  0  0  0  0  0  0  0  0  0  0
    8.1787  -13.1706   19.0415 C   0  0  1  0  0  0  0  0  0  0  0  0
    8.5456  -12.5640   17.8547 O   0  0  0  0  0  0  0  0  0  0  0  0
    8.5505  -14.6307   19.1048 C   0  0  2  0  0  0  0  0  0  0  0  0
    7.9182  -15.2931   17.9922 N   0  0  0  0  0  0  0  0  0  0  0  0
    8.1841  -15.2731   20.3674 C   0  0  0  0  0  0  0  0  0  0  0  0
    6.9818  -15.5576   20.5999 O   0  0  0  0  0  0  0  0  0  0  0  0
    9.1285  -15.6017   21.3685 N   0  0  0  0  0  0  0  0  0  0  0  0
    8.7404  -16.3376   22.6079 C   0  0  1  0  0  0  0  0  0  0  0  0
    9.5055  -17.6323   22.5788 C   0  0  0  0  0  0  0  0  0  0  0  0
    8.9634  -18.6968   21.7559 C   0  0  0  0  0  0  0  0  0  0  0  0
    7.6508  -18.7317   21.2662 C   0  0  0  0  0  0  0  0  0  0  0  0
    7.5684  -19.8681   20.5674 N   0  0  0  0  0  0  0  0  0  0  0  0
    8.7366  -20.5150   20.6040 C   0  0  0  0  0  0  0  0  0  0  0  0
    9.5907  -19.8019   21.3293 N   0  0  0  0  0  0  0  0  0  0  0  0
    9.0933  -15.4920   23.7386 C   0  0  0  0  0  0  0  0  0  0  0  0
   10.2349  -14.9173   23.7526 O   0  0  0  0  0  0  0  0  0  0  0  0
    5.6590  -12.1653   25.9718 C   0  0  0  0  0  0  0  0  0  0  0  0
    6.8695  -12.8895   25.4961 C   0  0  0  0  0  0  0  0  0  0  0  0
    7.5377  -13.7192   26.5625 C   0  0  2  0  0  0  0  0  0  0  0  0
    7.9739  -12.8860   27.7377 C   0  0  0  0  0  0  0  0  0  0  0  0
    8.7325  -14.4821   26.0018 C   0  0  2  0  0  0  0  0  0  0  0  0
    8.2558  -15.2353   24.8544 N   0  0  0  0  0  0  0  0  0  0  0  0
    9.3246  -15.3313   27.0448 C   0  0  0  0  0  0  0  0  0  0  0  0
   10.3162  -14.9608   27.9285 O   0  0  0  0  0  0  0  0  0  0  0  0
    8.9207  -16.5449   27.1955 O   0  0  0  0  0  0  0  0  0  0  0  0
  2  1  1  1
  3  2  1  0
  4  2  1  0
  4  6  1  0
  4  5  1  6
  6  7  2  0
  8  6  1  0
  8  9  1  0
  9 10  1  1
 11 10  1  0
 12 11  2  0
 13 12  1  0
 14 13  1  0
 14 15  2  0
 15 11  1  0
 16  9  1  0
 16 17  2  0
 18 19  1  0
 19 20  1  0
 20 21  1  1
 20 22  1  0
 22 23  1  6
 23 16  1  0
 24 22  1  0
 24 25  1  0
 26 24  2  0
M  END
$$$$
