THI.pdb
     RDKit          3D

 26 26  0  0  1  0  0  0  0  0999 V2000
    9.0073  -12.4035   20.2996 C   0  0  0  0  0  0  0  0  0  0  0  0
    8.2133  -13.0726   19.2013 C   0  0  1  0  0  0  0  0  0  0  0  0
    8.5397  -12.4530   18.0095 O   0  0  0  0  0  0  0  0  0  0  0  0
    8.4476  -14.5622   19.1826 C   0  0  2  0  0  0  0  0  0  0  0  0
    7.6666  -15.1157   18.1055 N   0  0  0  0  0  0  0  0  0  0  0  0
    8.1251  -15.2208   20.4489 C   0  0  0  0  0  0  0  0  0  0  0  0
    6.9268  -15.4631   20.7417 O   0  0  0  0  0  0  0  0  0  0  0  0
    9.1088  -15.6112   21.3880 N   0  0  0  0  0  0  0  0  0  0  0  0
    8.7592  -16.3589   22.6318 C   0  0  1  0  0  0  0  0  0  0  0  0
    9.5765  -17.6212   22.6010 C   0  0  0  0  0  0  0  0  0  0  0  0
    9.0481  -18.7266   21.8244 C   0  0  0  0  0  0  0  0  0  0  0  0
    7.8198  -18.7076   21.1502 C   0  0  0  0  0  0  0  0  0  0  0  0
    7.7196  -19.9086   20.5720 N   0  0  0  0  0  0  0  0  0  0  0  0
    8.7991  -20.6439   20.8518 C   0  0  0  0  0  0  0  0  0  0  0  0
    9.6125  -19.9246   21.6166 N   0  0  0  0  0  0  0  0  0  0  0  0
    9.0843  -15.4963   23.7580 C   0  0  0  0  0  0  0  0  0  0  0  0
   10.1456  -14.7855   23.7104 O   0  0  0  0  0  0  0  0  0  0  0  0
    5.6804  -12.2486   25.8111 C   0  0  0  0  0  0  0  0  0  0  0  0
    6.9175  -12.9767   25.4166 C   0  0  0  0  0  0  0  0  0  0  0  0
    7.5443  -13.7604   26.5413 C   0  0  2  0  0  0  0  0  0  0  0  0
    7.9501  -12.8763   27.6899 C   0  0  0  0  0  0  0  0  0  0  0  0
    8.7498  -14.5572   26.0554 C   0  0  2  0  0  0  0  0  0  0  0  0
    8.3016  -15.3647   24.9337 N   0  0  0  0  0  0  0  0  0  0  0  0
    9.3051  -15.3558   27.1568 C   0  0  0  0  0  0  0  0  0  0  0  0
   10.2468  -14.9343   28.0718 O   0  0  0  0  0  0  0  0  0  0  0  0
    8.9149  -16.5703   27.3342 O   0  0  0  0  0  0  0  0  0  0  0  0
  2  1  1  1
  3  2  1  0
  4  2  1  0
  4  6  1  0
  4  5  1  6
  6  7  2  0
  8  6  1  0
  8  9  1  0
  9 10  1  1
 11 10  1  0
 12 11  2  0
 13 12  1  0
 14 13  1  0
 14 15  2  0
 15 11  1  0
 16  9  1  0
 16 17  2  0
 18 19  1  0
 19 20  1  0
 20 21  1  1
 20 22  1  0
 22 23  1  6
 23 16  1  0
 24 22  1  0
 24 25  1  0
 26 24  2  0
M  END
$$$$
