THI.pdb
     RDKit          3D

 26 26  0  0  1  0  0  0  0  0999 V2000
    9.5735  -11.9722   18.5881 C   0  0  0  0  0  0  0  0  0  0  0  0
    9.0799  -12.7566   19.7820 C   0  0  1  0  0  0  0  0  0  0  0  0
    8.0630  -12.0290   20.3716 O   0  0  0  0  0  0  0  0  0  0  0  0
    8.6645  -14.1521   19.3896 C   0  0  2  0  0  0  0  0  0  0  0  0
    7.5511  -14.0394   18.4816 N   0  0  0  0  0  0  0  0  0  0  0  0
    8.3201  -15.0021   20.5298 C   0  0  0  0  0  0  0  0  0  0  0  0
    7.1134  -15.2107   20.8139 O   0  0  0  0  0  0  0  0  0  0  0  0
    9.2912  -15.6193   21.3531 N   0  0  0  0  0  0  0  0  0  0  0  0
    8.9117  -16.4423   22.5393 C   0  0  1  0  0  0  0  0  0  0  0  0
    9.6819  -17.7284   22.4159 C   0  0  0  0  0  0  0  0  0  0  0  0
    9.2359  -18.6660   21.4028 C   0  0  0  0  0  0  0  0  0  0  0  0
    7.8932  -18.9197   21.0918 C   0  0  0  0  0  0  0  0  0  0  0  0
    7.9267  -19.8356   20.1190 N   0  0  0  0  0  0  0  0  0  0  0  0
    9.1920  -20.1477   19.8260 C   0  0  0  0  0  0  0  0  0  0  0  0
    9.9940  -19.4348   20.6085 N   0  0  0  0  0  0  0  0  0  0  0  0
    9.2664  -15.6768   23.7252 C   0  0  0  0  0  0  0  0  0  0  0  0
   10.4352  -15.1664   23.8090 O   0  0  0  0  0  0  0  0  0  0  0  0
    5.9449  -12.2005   25.7797 C   0  0  0  0  0  0  0  0  0  0  0  0
    7.1408  -12.9931   25.3827 C   0  0  0  0  0  0  0  0  0  0  0  0
    7.6822  -13.8671   26.4850 C   0  0  2  0  0  0  0  0  0  0  0  0
    8.0965  -13.0664   27.6904 C   0  0  0  0  0  0  0  0  0  0  0  0
    8.8570  -14.7076   25.9979 C   0  0  2  0  0  0  0  0  0  0  0  0
    8.4028  -15.4333   24.8239 N   0  0  0  0  0  0  0  0  0  0  0  0
    9.3291  -15.5887   27.0750 C   0  0  0  0  0  0  0  0  0  0  0  0
   10.2557  -15.2639   28.0432 O   0  0  0  0  0  0  0  0  0  0  0  0
    8.8713  -16.7884   27.1749 O   0  0  0  0  0  0  0  0  0  0  0  0
  2  1  1  6
  3  2  1  0
  4  2  1  0
  4  6  1  0
  4  5  1  6
  6  7  2  0
  8  6  1  0
  8  9  1  0
  9 10  1  6
 11 10  1  0
 12 11  2  0
 13 12  1  0
 14 13  1  0
 14 15  2  0
 15 11  1  0
 16  9  1  0
 16 17  2  0
 18 19  1  0
 19 20  1  0
 20 21  1  1
 20 22  1  0
 22 23  1  6
 23 16  1  0
 24 22  1  0
 24 25  1  0
 26 24  2  0
M  END
$$$$
