THI.pdb
     RDKit          3D

 26 26  0  0  1  0  0  0  0  0999 V2000
    8.5392  -12.4294   20.5235 C   0  0  0  0  0  0  0  0  0  0  0  0
    7.6149  -13.1952   19.6050 C   0  0  1  0  0  0  0  0  0  0  0  0
    7.4807  -12.4645   18.4392 O   0  0  0  0  0  0  0  0  0  0  0  0
    8.1097  -14.6009   19.3742 C   0  0  2  0  0  0  0  0  0  0  0  0
    7.2071  -15.2372   18.4484 N   0  0  0  0  0  0  0  0  0  0  0  0
    8.2323  -15.3868   20.6024 C   0  0  0  0  0  0  0  0  0  0  0  0
    7.2186  -15.9462   21.0921 O   0  0  0  0  0  0  0  0  0  0  0  0
    9.4572  -15.5586   21.2894 N   0  0  0  0  0  0  0  0  0  0  0  0
    9.5571  -16.3837   22.5294 C   0  0  1  0  0  0  0  0  0  0  0  0
   10.8702  -17.1116   22.4391 C   0  0  0  0  0  0  0  0  0  0  0  0
   10.8981  -18.3179   21.6338 C   0  0  0  0  0  0  0  0  0  0  0  0
    9.8033  -19.1723   21.4456 C   0  0  0  0  0  0  0  0  0  0  0  0
   10.2536  -20.1475   20.6502 N   0  0  0  0  0  0  0  0  0  0  0  0
   11.5381  -19.9379   20.3494 C   0  0  0  0  0  0  0  0  0  0  0  0
   11.9346  -18.8209   20.9488 N   0  0  0  0  0  0  0  0  0  0  0  0
    9.4879  -15.4705   23.6605 C   0  0  0  0  0  0  0  0  0  0  0  0
    9.8142  -14.2462   23.4918 O   0  0  0  0  0  0  0  0  0  0  0  0
    6.5666  -11.8924   26.4797 C   0  0  0  0  0  0  0  0  0  0  0  0
    7.7409  -12.7812   26.6965 C   0  0  0  0  0  0  0  0  0  0  0  0
    7.8454  -13.9027   25.6948 C   0  0  2  0  0  0  0  0  0  0  0  0
    6.5653  -14.6874   25.5879 C   0  0  0  0  0  0  0  0  0  0  0  0
    8.9970  -14.8421   26.0346 C   0  0  2  0  0  0  0  0  0  0  0  0
    9.0711  -15.8268   24.9688 N   0  0  0  0  0  0  0  0  0  0  0  0
    8.7870  -15.4403   27.3603 C   0  0  0  0  0  0  0  0  0  0  0  0
    8.4431  -16.7512   27.6150 O   0  0  0  0  0  0  0  0  0  0  0  0
    8.9216  -14.7225   28.4211 O   0  0  0  0  0  0  0  0  0  0  0  0
  2  1  1  1
  3  2  1  0
  4  2  1  0
  4  6  1  0
  4  5  1  6
  6  7  2  0
  8  6  1  0
  8  9  1  0
  9 10  1  6
 11 10  1  0
 12 11  2  0
 13 12  1  0
 14 13  1  0
 14 15  2  0
 15 11  1  0
 16  9  1  0
 16 17  2  0
 18 19  1  0
 19 20  1  0
 20 21  1  1
 20 22  1  0
 22 23  1  6
 23 16  1  0
 24 22  1  0
 24 25  1  0
 26 24  2  0
M  END
$$$$
