THI.pdb
     RDKit          3D

 26 26  0  0  1  0  0  0  0  0999 V2000
    9.6549  -13.8080   18.1041 C   0  0  0  0  0  0  0  0  0  0  0  0
    9.2681  -14.1305   19.5291 C   0  0  1  0  0  0  0  0  0  0  0  0
    9.5984  -13.0396   20.3114 O   0  0  0  0  0  0  0  0  0  0  0  0
    7.8143  -14.5183   19.6300 C   0  0  2  0  0  0  0  0  0  0  0  0
    7.0290  -13.3987   19.1757 N   0  0  0  0  0  0  0  0  0  0  0  0
    7.4093  -14.9238   20.9764 C   0  0  0  0  0  0  0  0  0  0  0  0
    6.8155  -14.1067   21.7248 O   0  0  0  0  0  0  0  0  0  0  0  0
    7.6533  -16.2156   21.4993 N   0  0  0  0  0  0  0  0  0  0  0  0
    7.1819  -16.6190   22.8570 C   0  0  1  0  0  0  0  0  0  0  0  0
    7.3552  -18.1114   22.9302 C   0  0  0  0  0  0  0  0  0  0  0  0
    7.0207  -18.7500   24.1890 C   0  0  0  0  0  0  0  0  0  0  0  0
    6.5150  -18.0785   25.3103 C   0  0  0  0  0  0  0  0  0  0  0  0
    6.3497  -19.0249   26.2395 N   0  0  0  0  0  0  0  0  0  0  0  0
    6.7200  -20.2134   25.7549 C   0  0  0  0  0  0  0  0  0  0  0  0
    7.1303  -20.0486   24.5025 N   0  0  0  0  0  0  0  0  0  0  0  0
    7.9973  -15.9021   23.8261 C   0  0  0  0  0  0  0  0  0  0  0  0
    9.2582  -15.8156   23.6347 O   0  0  0  0  0  0  0  0  0  0  0  0
    6.0778  -11.4916   25.9623 C   0  0  0  0  0  0  0  0  0  0  0  0
    6.9869  -12.5473   25.4379 C   0  0  0  0  0  0  0  0  0  0  0  0
    7.5889  -13.4170   26.5117 C   0  0  2  0  0  0  0  0  0  0  0  0
    8.4623  -12.6315   27.4530 C   0  0  0  0  0  0  0  0  0  0  0  0
    8.3876  -14.5671   25.9087 C   0  0  2  0  0  0  0  0  0  0  0  0
    7.5019  -15.2658   24.9931 N   0  0  0  0  0  0  0  0  0  0  0  0
    8.9142  -15.4304   26.9749 C   0  0  0  0  0  0  0  0  0  0  0  0
    8.4414  -16.6799   27.3167 O   0  0  0  0  0  0  0  0  0  0  0  0
    9.9092  -15.0370   27.6918 O   0  0  0  0  0  0  0  0  0  0  0  0
  2  1  1  6
  3  2  1  0
  4  2  1  0
  4  6  1  0
  4  5  1  1
  6  7  2  0
  8  6  1  0
  8  9  1  0
  9 10  1  1
 11 10  1  0
 12 11  2  0
 13 12  1  0
 14 13  1  0
 14 15  2  0
 15 11  1  0
 16  9  1  0
 16 17  2  0
 18 19  1  0
 19 20  1  0
 20 21  1  1
 20 22  1  0
 22 23  1  6
 23 16  1  0
 24 22  1  0
 24 25  1  0
 26 24  2  0
M  END
$$$$
