THI.pdb
     RDKit          3D

 26 26  0  0  1  0  0  0  0  0999 V2000
    9.3929  -12.7687   20.4663 C   0  0  0  0  0  0  0  0  0  0  0  0
    8.0821  -13.0295   19.7606 C   0  0  1  0  0  0  0  0  0  0  0  0
    8.1267  -12.3837   18.5392 O   0  0  0  0  0  0  0  0  0  0  0  0
    7.8047  -14.5072   19.6441 C   0  0  2  0  0  0  0  0  0  0  0  0
    6.6024  -14.6679   18.8661 N   0  0  0  0  0  0  0  0  0  0  0  0
    7.6806  -15.1825   20.9363 C   0  0  0  0  0  0  0  0  0  0  0  0
    6.6005  -15.1173   21.5762 O   0  0  0  0  0  0  0  0  0  0  0  0
    8.7328  -15.9242   21.5234 N   0  0  0  0  0  0  0  0  0  0  0  0
    8.5591  -16.6534   22.8143 C   0  0  1  0  0  0  0  0  0  0  0  0
    9.4249  -17.8796   22.7183 C   0  0  0  0  0  0  0  0  0  0  0  0
    9.5246  -18.7074   23.9054 C   0  0  0  0  0  0  0  0  0  0  0  0
    8.8634  -18.4464   25.1131 C   0  0  0  0  0  0  0  0  0  0  0  0
    9.2260  -19.4388   25.9317 N   0  0  0  0  0  0  0  0  0  0  0  0
   10.0560  -20.2739   25.3009 C   0  0  0  0  0  0  0  0  0  0  0  0
   10.2403  -19.8298   24.0628 N   0  0  0  0  0  0  0  0  0  0  0  0
    8.9682  -15.7484   23.8781 C   0  0  0  0  0  0  0  0  0  0  0  0
   10.0853  -15.1354   23.7773 O   0  0  0  0  0  0  0  0  0  0  0  0
    5.8783  -12.0882   25.7474 C   0  0  0  0  0  0  0  0  0  0  0  0
    6.9906  -13.0053   25.3760 C   0  0  0  0  0  0  0  0  0  0  0  0
    7.6129  -13.7113   26.5534 C   0  0  2  0  0  0  0  0  0  0  0  0
    8.1260  -12.7444   27.5867 C   0  0  0  0  0  0  0  0  0  0  0  0
    8.7408  -14.6363   26.1105 C   0  0  2  0  0  0  0  0  0  0  0  0
    8.2121  -15.4721   25.0461 N   0  0  0  0  0  0  0  0  0  0  0  0
    9.2411  -15.4080   27.2566 C   0  0  0  0  0  0  0  0  0  0  0  0
   10.3482  -15.1034   28.0203 O   0  0  0  0  0  0  0  0  0  0  0  0
    8.6307  -16.4790   27.6297 O   0  0  0  0  0  0  0  0  0  0  0  0
  2  1  1  6
  3  2  1  0
  4  2  1  0
  4  6  1  0
  4  5  1  1
  6  7  2  0
  8  6  1  0
  8  9  1  0
  9 10  1  6
 11 10  1  0
 12 11  2  0
 13 12  1  0
 14 13  1  0
 14 15  2  0
 15 11  1  0
 16  9  1  0
 16 17  2  0
 18 19  1  0
 19 20  1  0
 20 21  1  1
 20 22  1  0
 22 23  1  6
 23 16  1  0
 24 22  1  0
 24 25  1  0
 26 24  2  0
M  END
$$$$
