THI.pdb
     RDKit          3D

 26 26  0  0  1  0  0  0  0  0999 V2000
    8.3387  -12.3128   20.7383 C   0  0  0  0  0  0  0  0  0  0  0  0
    7.4263  -13.2763   20.0148 C   0  0  1  0  0  0  0  0  0  0  0  0
    6.8387  -12.5923   18.9670 O   0  0  0  0  0  0  0  0  0  0  0  0
    8.1689  -14.5137   19.5773 C   0  0  2  0  0  0  0  0  0  0  0  0
    7.2292  -15.3743   18.9042 N   0  0  0  0  0  0  0  0  0  0  0  0
    8.8248  -15.2216   20.6773 C   0  0  0  0  0  0  0  0  0  0  0  0
    8.2253  -16.1563   21.2667 O   0  0  0  0  0  0  0  0  0  0  0  0
   10.1285  -14.9075   21.1284 N   0  0  0  0  0  0  0  0  0  0  0  0
   10.7867  -15.6693   22.2306 C   0  0  1  0  0  0  0  0  0  0  0  0
   12.2667  -15.4843   22.0370 C   0  0  0  0  0  0  0  0  0  0  0  0
   12.8704  -16.1611   20.9049 C   0  0  0  0  0  0  0  0  0  0  0  0
   12.5927  -17.4824   20.5295 C   0  0  0  0  0  0  0  0  0  0  0  0
   13.3521  -17.7069   19.4527 N   0  0  0  0  0  0  0  0  0  0  0  0
   14.0635  -16.6155   19.1573 C   0  0  0  0  0  0  0  0  0  0  0  0
   13.7714  -15.6696   20.0427 N   0  0  0  0  0  0  0  0  0  0  0  0
   10.3020  -15.1148   23.4859 C   0  0  0  0  0  0  0  0  0  0  0  0
   10.5106  -13.8800   23.7416 O   0  0  0  0  0  0  0  0  0  0  0  0
    6.7782  -12.2631   26.2849 C   0  0  0  0  0  0  0  0  0  0  0  0
    7.7689  -13.3357   26.5748 C   0  0  0  0  0  0  0  0  0  0  0  0
    8.1427  -14.1579   25.3680 C   0  0  2  0  0  0  0  0  0  0  0  0
    6.9435  -14.8100   24.7338 C   0  0  0  0  0  0  0  0  0  0  0  0
    9.1781  -15.2196   25.7214 C   0  0  2  0  0  0  0  0  0  0  0  0
    9.5914  -15.8418   24.4752 N   0  0  0  0  0  0  0  0  0  0  0  0
    8.6137  -16.1750   26.6848 C   0  0  0  0  0  0  0  0  0  0  0  0
    8.3139  -17.4979   26.4368 O   0  0  0  0  0  0  0  0  0  0  0  0
    8.3526  -15.7996   27.8888 O   0  0  0  0  0  0  0  0  0  0  0  0
  2  1  1  6
  3  2  1  0
  4  2  1  0
  4  6  1  0
  4  5  1  1
  6  7  2  0
  8  6  1  0
  8  9  1  0
  9 10  1  1
 11 10  1  0
 12 11  2  0
 13 12  1  0
 14 13  1  0
 14 15  2  0
 15 11  1  0
 16  9  1  0
 16 17  2  0
 18 19  1  0
 19 20  1  0
 20 21  1  1
 20 22  1  0
 22 23  1  6
 23 16  1  0
 24 22  1  0
 24 25  1  0
 26 24  2  0
M  END
$$$$
