THI.pdb
     RDKit          3D

 26 26  0  0  1  0  0  0  0  0999 V2000
    8.9339  -12.6122   18.0142 C   0  0  0  0  0  0  0  0  0  0  0  0
    8.8810  -13.1962   19.4072 C   0  0  1  0  0  0  0  0  0  0  0  0
    8.2813  -12.2626   20.2317 O   0  0  0  0  0  0  0  0  0  0  0  0
    8.1855  -14.5342   19.4166 C   0  0  2  0  0  0  0  0  0  0  0  0
    6.8549  -14.3406   18.8984 N   0  0  0  0  0  0  0  0  0  0  0  0
    8.1414  -15.1610   20.7381 C   0  0  0  0  0  0  0  0  0  0  0  0
    7.0869  -15.1108   21.4206 O   0  0  0  0  0  0  0  0  0  0  0  0
    9.2453  -15.8383   21.3080 N   0  0  0  0  0  0  0  0  0  0  0  0
    9.1296  -16.5977   22.5879 C   0  0  1  0  0  0  0  0  0  0  0  0
   10.1975  -17.6559   22.5409 C   0  0  0  0  0  0  0  0  0  0  0  0
    9.9415  -18.8099   21.7000 C   0  0  0  0  0  0  0  0  0  0  0  0
    8.7224  -19.4990   21.6472 C   0  0  0  0  0  0  0  0  0  0  0  0
    8.9142  -20.4813   20.7613 N   0  0  0  0  0  0  0  0  0  0  0  0
   10.1595  -20.4293   20.2808 C   0  0  0  0  0  0  0  0  0  0  0  0
   10.7895  -19.4092   20.8524 N   0  0  0  0  0  0  0  0  0  0  0  0
    9.3183  -15.6450   23.6719 C   0  0  0  0  0  0  0  0  0  0  0  0
   10.2969  -14.8248   23.6152 O   0  0  0  0  0  0  0  0  0  0  0  0
    6.8533  -11.3167   26.5999 C   0  0  0  0  0  0  0  0  0  0  0  0
    7.6705  -12.5266   26.8903 C   0  0  0  0  0  0  0  0  0  0  0  0
    7.5035  -13.6288   25.8757 C   0  0  2  0  0  0  0  0  0  0  0  0
    6.2695  -14.4519   26.1319 C   0  0  0  0  0  0  0  0  0  0  0  0
    8.7278  -14.5363   25.8385 C   0  0  2  0  0  0  0  0  0  0  0  0
    8.4840  -15.5375   24.8141 N   0  0  0  0  0  0  0  0  0  0  0  0
    8.9679  -15.1159   27.1673 C   0  0  0  0  0  0  0  0  0  0  0  0
    8.8472  -16.4469   27.5072 O   0  0  0  0  0  0  0  0  0  0  0  0
    9.3262  -14.3597   28.1463 O   0  0  0  0  0  0  0  0  0  0  0  0
  2  1  1  6
  3  2  1  0
  4  2  1  0
  4  6  1  0
  4  5  1  1
  6  7  2  0
  8  6  1  0
  8  9  1  0
  9 10  1  6
 11 10  1  0
 12 11  2  0
 13 12  1  0
 14 13  1  0
 14 15  2  0
 15 11  1  0
 16  9  1  0
 16 17  2  0
 18 19  1  0
 19 20  1  0
 20 21  1  1
 20 22  1  0
 22 23  1  6
 23 16  1  0
 24 22  1  0
 24 25  1  0
 26 24  2  0
M  END
$$$$
