THI.pdb
     RDKit          3D

 26 26  0  0  1  0  0  0  0  0999 V2000
   10.3009  -14.0087   17.7089 C   0  0  0  0  0  0  0  0  0  0  0  0
    9.8718  -14.2147   19.1434 C   0  0  1  0  0  0  0  0  0  0  0  0
   10.2605  -13.0999   19.8625 O   0  0  0  0  0  0  0  0  0  0  0  0
    8.3943  -14.5011   19.2398 C   0  0  2  0  0  0  0  0  0  0  0  0
    7.6909  -13.3609   18.7091 N   0  0  0  0  0  0  0  0  0  0  0  0
    7.9444  -14.8016   20.5994 C   0  0  0  0  0  0  0  0  0  0  0  0
    7.3256  -13.9303   21.2615 O   0  0  0  0  0  0  0  0  0  0  0  0
    8.1710  -16.0481   21.2293 N   0  0  0  0  0  0  0  0  0  0  0  0
    7.5477  -16.3939   22.5408 C   0  0  1  0  0  0  0  0  0  0  0  0
    7.6764  -17.8860   22.6811 C   0  0  0  0  0  0  0  0  0  0  0  0
    7.2417  -18.4671   23.9372 C   0  0  0  0  0  0  0  0  0  0  0  0
    6.6792  -17.7409   24.9954 C   0  0  0  0  0  0  0  0  0  0  0  0
    6.4274  -18.6462   25.9459 N   0  0  0  0  0  0  0  0  0  0  0  0
    6.7987  -19.8609   25.5324 C   0  0  0  0  0  0  0  0  0  0  0  0
    7.2965  -19.7547   24.3057 N   0  0  0  0  0  0  0  0  0  0  0  0
    8.2717  -15.6600   23.5681 C   0  0  0  0  0  0  0  0  0  0  0  0
    9.5284  -15.4725   23.4289 O   0  0  0  0  0  0  0  0  0  0  0  0
    5.8893  -11.8295   26.8986 C   0  0  0  0  0  0  0  0  0  0  0  0
    6.4963  -13.1448   26.5555 C   0  0  0  0  0  0  0  0  0  0  0  0
    7.8589  -13.0363   25.9202 C   0  0  2  0  0  0  0  0  0  0  0  0
    7.8130  -12.3098   24.6026 C   0  0  0  0  0  0  0  0  0  0  0  0
    8.4902  -14.4105   25.7275 C   0  0  2  0  0  0  0  0  0  0  0  0
    7.6885  -15.1119   24.7393 N   0  0  0  0  0  0  0  0  0  0  0  0
    8.5682  -15.1158   27.0143 C   0  0  0  0  0  0  0  0  0  0  0  0
    7.8449  -16.2335   27.3735 O   0  0  0  0  0  0  0  0  0  0  0  0
    9.3686  -14.6972   27.9324 O   0  0  0  0  0  0  0  0  0  0  0  0
  2  1  1  6
  3  2  1  0
  4  2  1  0
  4  6  1  0
  4  5  1  1
  6  7  2  0
  8  6  1  0
  8  9  1  0
  9 10  1  1
 11 10  1  0
 12 11  2  0
 13 12  1  0
 14 13  1  0
 14 15  2  0
 15 11  1  0
 16  9  1  0
 16 17  2  0
 18 19  1  0
 19 20  1  0
 20 21  1  6
 20 22  1  0
 22 23  1  6
 23 16  1  0
 24 22  1  0
 24 25  1  0
 26 24  2  0
M  END
$$$$
