PAQ.pdb
     RDKit          3D

 22 22  0  0  1  0  0  0  0  0999 V2000
    9.4026  -13.9035   18.5586 N   0  0  0  0  0  0  0  0  0  0  0  0
    8.6361  -12.9726   17.7057 C   0  0  0  0  0  0  0  0  0  0  0  0
    7.2430  -13.2151   18.2999 C   0  0  0  0  0  0  0  0  0  0  0  0
    7.5459  -13.0713   19.7730 C   0  0  0  0  0  0  0  0  0  0  0  0
    8.9657  -13.6039   19.8835 C   0  0  1  0  0  0  0  0  0  0  0  0
    8.9707  -14.7343   20.8169 C   0  0  0  0  0  0  0  0  0  0  0  0
    8.6666  -14.5663   22.0480 O   0  0  0  0  0  0  0  0  0  0  0  0
    8.9637  -18.4795   20.8654 C   0  0  0  0  0  0  0  0  0  0  0  0
    9.3723  -17.1455   21.4478 C   0  0  2  0  0  0  0  0  0  0  0  0
    9.2971  -16.0793   20.4812 N   0  0  0  0  0  0  0  0  0  0  0  0
   10.7111  -17.2941   22.0417 C   0  0  0  0  0  0  0  0  0  0  0  0
   10.9598  -18.3358   22.7015 O   0  0  0  0  0  0  0  0  0  0  0  0
   15.7318  -13.8284   20.5336 N   0  0  0  0  0  0  0  0  0  0  0  0
   14.9340  -14.6268   19.6526 C   0  0  0  0  0  0  0  0  0  0  0  0
   15.0065  -14.4715   18.4220 O   0  0  0  0  0  0  0  0  0  0  0  0
   14.0370  -15.6243   20.2681 C   0  0  0  0  0  0  0  0  0  0  0  0
   14.1084  -15.7005   21.7501 C   0  0  0  0  0  0  0  0  0  0  0  0
   13.1174  -16.6120   22.4064 C   0  0  2  0  0  0  0  0  0  0  0  0
   11.7559  -16.3370   21.9238 N   0  0  0  0  0  0  0  0  0  0  0  0
   13.1079  -16.4882   23.8780 C   0  0  0  0  0  0  0  0  0  0  0  0
   12.1222  -15.9705   24.4435 O   0  0  0  0  0  0  0  0  0  0  0  0
   14.1600  -16.9290   24.6588 O   0  0  0  0  0  0  0  0  0  0  0  0
  2  1  1  0
  3  2  1  0
  4  3  1  0
  4  5  1  0
  5  1  1  0
  5  6  1  1
  6 10  1  0
  7  6  2  0
  9  8  1  6
  9 10  1  0
  9 11  1  0
 11 19  1  0
 12 11  2  0
 14 13  1  0
 14 16  1  0
 15 14  2  0
 17 16  1  0
 18 20  1  0
 18 17  1  6
 19 18  1  0
 20 22  1  0
 21 20  2  0
M  END
$$$$
