PAQ.pdb
     RDKit          3D

 22 22  0  0  1  0  0  0  0  0999 V2000
    9.2053  -14.3687   18.4589 N   0  0  0  0  0  0  0  0  0  0  0  0
    8.7416  -13.6221   17.2718 C   0  0  0  0  0  0  0  0  0  0  0  0
    7.2747  -13.4358   17.6795 C   0  0  0  0  0  0  0  0  0  0  0  0
    7.4469  -12.9089   19.0849 C   0  0  0  0  0  0  0  0  0  0  0  0
    8.7057  -13.6152   19.5628 C   0  0  1  0  0  0  0  0  0  0  0  0
    8.3789  -14.3963   20.7595 C   0  0  0  0  0  0  0  0  0  0  0  0
    7.7843  -13.8520   21.7527 O   0  0  0  0  0  0  0  0  0  0  0  0
    8.7755  -17.9513   22.0805 C   0  0  0  0  0  0  0  0  0  0  0  0
    8.3353  -16.5064   22.1448 C   0  0  2  0  0  0  0  0  0  0  0  0
    8.6694  -15.7779   20.9471 N   0  0  0  0  0  0  0  0  0  0  0  0
    8.9031  -15.9068   23.3634 C   0  0  0  0  0  0  0  0  0  0  0  0
   10.0924  -15.4984   23.3302 O   0  0  0  0  0  0  0  0  0  0  0  0
    6.1122  -11.0356   26.6291 N   0  0  0  0  0  0  0  0  0  0  0  0
    6.2641  -12.4466   26.8189 C   0  0  0  0  0  0  0  0  0  0  0  0
    5.5543  -13.0521   27.6394 O   0  0  0  0  0  0  0  0  0  0  0  0
    7.2878  -13.1330   26.0069 C   0  0  0  0  0  0  0  0  0  0  0  0
    7.7983  -14.4026   26.5855 C   0  0  0  0  0  0  0  0  0  0  0  0
    8.8208  -15.1295   25.7671 C   0  0  2  0  0  0  0  0  0  0  0  0
    8.1994  -15.7531   24.5893 N   0  0  0  0  0  0  0  0  0  0  0  0
    9.5167  -16.1894   26.5242 C   0  0  0  0  0  0  0  0  0  0  0  0
    9.1844  -17.3815   26.3571 O   0  0  0  0  0  0  0  0  0  0  0  0
   10.5319  -15.9069   27.4188 O   0  0  0  0  0  0  0  0  0  0  0  0
  2  1  1  0
  3  2  1  0
  4  3  1  0
  4  5  1  0
  5  1  1  0
  5  6  1  1
  6 10  1  0
  7  6  2  0
  9  8  1  6
  9 10  1  0
  9 11  1  0
 11 19  1  0
 12 11  2  0
 14 13  1  0
 14 16  1  0
 15 14  2  0
 17 16  1  0
 18 20  1  0
 18 17  1  1
 19 18  1  0
 20 22  1  0
 21 20  2  0
M  END
$$$$
