PAQ.pdb
     RDKit          3D

 22 22  0  0  1  0  0  0  0  0999 V2000
    8.1874  -13.2785   16.4494 N   0  0  0  0  0  0  0  0  0  0  0  0
    8.1132  -14.0644   15.2011 C   0  0  0  0  0  0  0  0  0  0  0  0
    8.7413  -15.3661   15.7146 C   0  0  0  0  0  0  0  0  0  0  0  0
    7.9410  -15.5750   16.9789 C   0  0  0  0  0  0  0  0  0  0  0  0
    7.6630  -14.1550   17.4459 C   0  0  1  0  0  0  0  0  0  0  0  0
    8.2242  -13.9855   18.7895 C   0  0  0  0  0  0  0  0  0  0  0  0
    9.4287  -13.5852   18.9487 O   0  0  0  0  0  0  0  0  0  0  0  0
    7.1557  -14.2788   22.4334 C   0  0  0  0  0  0  0  0  0  0  0  0
    8.1576  -14.1721   21.3062 C   0  0  2  0  0  0  0  0  0  0  0  0
    7.5322  -14.2332   20.0094 N   0  0  0  0  0  0  0  0  0  0  0  0
    9.1830  -15.2099   21.5031 C   0  0  0  0  0  0  0  0  0  0  0  0
    8.9887  -16.3453   20.9976 O   0  0  0  0  0  0  0  0  0  0  0  0
   15.1816  -14.5529   19.9450 N   0  0  0  0  0  0  0  0  0  0  0  0
   14.1267  -15.5211   19.9413 C   0  0  0  0  0  0  0  0  0  0  0  0
   14.2815  -16.6194   19.3815 O   0  0  0  0  0  0  0  0  0  0  0  0
   12.8694  -15.1554   20.6223 C   0  0  0  0  0  0  0  0  0  0  0  0
   12.7355  -15.6710   22.0092 C   0  0  0  0  0  0  0  0  0  0  0  0
   11.3620  -16.1109   22.4135 C   0  0  2  0  0  0  0  0  0  0  0  0
   10.3903  -15.0225   22.2302 N   0  0  0  0  0  0  0  0  0  0  0  0
   11.2888  -16.5483   23.8221 C   0  0  0  0  0  0  0  0  0  0  0  0
   10.6436  -15.8645   24.6440 O   0  0  0  0  0  0  0  0  0  0  0  0
   11.9142  -17.6979   24.2674 O   0  0  0  0  0  0  0  0  0  0  0  0
  2  1  1  0
  3  2  1  0
  4  3  1  0
  4  5  1  0
  5  1  1  0
  5  6  1  1
  6 10  1  0
  7  6  2  0
  9  8  1  1
  9 10  1  0
  9 11  1  0
 11 19  1  0
 12 11  2  0
 14 13  1  0
 14 16  1  0
 15 14  2  0
 17 16  1  0
 18 20  1  0
 18 17  1  1
 19 18  1  0
 20 22  1  0
 21 20  2  0
M  END
$$$$
