PAQ.pdb
     RDKit          3D

 22 22  0  0  1  0  0  0  0  0999 V2000
    9.2783  -14.7094   18.3809 N   0  0  0  0  0  0  0  0  0  0  0  0
    8.9655  -13.9296   17.1661 C   0  0  0  0  0  0  0  0  0  0  0  0
    7.5083  -13.5778   17.4911 C   0  0  0  0  0  0  0  0  0  0  0  0
    7.6613  -13.0572   18.9011 C   0  0  0  0  0  0  0  0  0  0  0  0
    8.8061  -13.8928   19.4516 C   0  0  1  0  0  0  0  0  0  0  0  0
    8.3301  -14.6193   20.6325 C   0  0  0  0  0  0  0  0  0  0  0  0
    7.8194  -13.9922   21.6235 O   0  0  0  0  0  0  0  0  0  0  0  0
    8.1199  -18.2015   21.9227 C   0  0  0  0  0  0  0  0  0  0  0  0
    7.9605  -16.7008   22.0124 C   0  0  2  0  0  0  0  0  0  0  0  0
    8.3780  -16.0322   20.8060 N   0  0  0  0  0  0  0  0  0  0  0  0
    8.6776  -16.2334   23.2101 C   0  0  0  0  0  0  0  0  0  0  0  0
    9.8821  -15.8913   23.0899 O   0  0  0  0  0  0  0  0  0  0  0  0
    5.3340  -12.5096   26.5000 N   0  0  0  0  0  0  0  0  0  0  0  0
    6.5945  -12.2275   27.1178 C   0  0  0  0  0  0  0  0  0  0  0  0
    6.7086  -11.2791   27.9124 O   0  0  0  0  0  0  0  0  0  0  0  0
    7.7306  -13.1028   26.7692 C   0  0  0  0  0  0  0  0  0  0  0  0
    7.4142  -14.1831   25.7996 C   0  0  0  0  0  0  0  0  0  0  0  0
    8.5372  -15.1195   25.4747 C   0  0  2  0  0  0  0  0  0  0  0  0
    8.1037  -16.1388   24.5075 N   0  0  0  0  0  0  0  0  0  0  0  0
    9.0644  -15.8205   26.6628 C   0  0  0  0  0  0  0  0  0  0  0  0
    8.6723  -16.9788   26.9158 O   0  0  0  0  0  0  0  0  0  0  0  0
    9.9848  -15.2355   27.5123 O   0  0  0  0  0  0  0  0  0  0  0  0
  2  1  1  0
  3  2  1  0
  4  3  1  0
  4  5  1  0
  5  1  1  0
  5  6  1  1
  6 10  1  0
  7  6  2  0
  9  8  1  6
  9 10  1  0
  9 11  1  0
 11 19  1  0
 12 11  2  0
 14 13  1  0
 14 16  1  0
 15 14  2  0
 17 16  1  0
 18 20  1  0
 18 17  1  1
 19 18  1  0
 20 22  1  0
 21 20  2  0
M  END
$$$$
