PAQ.pdb
     RDKit          3D

 22 22  0  0  1  0  0  0  0  0999 V2000
    7.2021  -14.9166   20.9024 N   0  0  0  0  0  0  0  0  0  0  0  0
    7.0254  -14.5080   19.4941 C   0  0  0  0  0  0  0  0  0  0  0  0
    7.2510  -13.0005   19.6652 C   0  0  0  0  0  0  0  0  0  0  0  0
    8.5327  -13.0054   20.4649 C   0  0  0  0  0  0  0  0  0  0  0  0
    8.4051  -14.2648   21.3073 C   0  0  1  0  0  0  0  0  0  0  0  0
    8.4703  -13.8900   22.7230 C   0  0  0  0  0  0  0  0  0  0  0  0
    9.5958  -13.6673   23.2887 O   0  0  0  0  0  0  0  0  0  0  0  0
    6.1573  -12.8055   25.5193 C   0  0  0  0  0  0  0  0  0  0  0  0
    7.4578  -13.3477   24.9711 C   0  0  2  0  0  0  0  0  0  0  0  0
    7.3492  -13.7382   23.5882 N   0  0  0  0  0  0  0  0  0  0  0  0
    7.9050  -14.4425   25.8476 C   0  0  0  0  0  0  0  0  0  0  0  0
    8.0256  -14.2115   27.0783 O   0  0  0  0  0  0  0  0  0  0  0  0
    6.9469  -20.9883   25.7537 N   0  0  0  0  0  0  0  0  0  0  0  0
    6.9418  -20.2584   26.9855 C   0  0  0  0  0  0  0  0  0  0  0  0
    6.1584  -20.5687   27.8986 O   0  0  0  0  0  0  0  0  0  0  0  0
    7.8953  -19.1391   27.1134 C   0  0  0  0  0  0  0  0  0  0  0  0
    7.6210  -17.9785   26.2274 C   0  0  0  0  0  0  0  0  0  0  0  0
    8.5749  -16.8293   26.3411 C   0  0  2  0  0  0  0  0  0  0  0  0
    8.2143  -15.7568   25.4019 N   0  0  0  0  0  0  0  0  0  0  0  0
    9.9747  -17.2140   26.0705 C   0  0  0  0  0  0  0  0  0  0  0  0
   10.4578  -17.0131   24.9366 O   0  0  0  0  0  0  0  0  0  0  0  0
   10.7768  -17.7934   27.0359 O   0  0  0  0  0  0  0  0  0  0  0  0
  2  1  1  0
  3  2  1  0
  4  3  1  0
  4  5  1  0
  5  1  1  0
  5  6  1  1
  6 10  1  0
  7  6  2  0
  9  8  1  1
  9 10  1  0
  9 11  1  0
 11 19  1  0
 12 11  2  0
 14 13  1  0
 14 16  1  0
 15 14  2  0
 17 16  1  0
 18 20  1  0
 18 17  1  6
 19 18  1  0
 20 22  1  0
 21 20  2  0
M  END
$$$$
