PAQ.pdb
     RDKit          3D

 22 22  0  0  1  0  0  0  0  0999 V2000
    9.4846  -14.4110   18.4805 N   0  0  0  0  0  0  0  0  0  0  0  0
    9.0916  -13.6122   17.3020 C   0  0  0  0  0  0  0  0  0  0  0  0
    7.5870  -13.5162   17.5841 C   0  0  0  0  0  0  0  0  0  0  0  0
    7.6079  -13.0717   19.0279 C   0  0  0  0  0  0  0  0  0  0  0  0
    8.8527  -13.7510   19.5766 C   0  0  1  0  0  0  0  0  0  0  0  0
    8.4600  -14.6193   20.6905 C   0  0  0  0  0  0  0  0  0  0  0  0
    7.7092  -14.1798   21.6282 O   0  0  0  0  0  0  0  0  0  0  0  0
    9.1296  -18.1536   21.9543 C   0  0  0  0  0  0  0  0  0  0  0  0
    8.5422  -16.7622   22.0225 C   0  0  2  0  0  0  0  0  0  0  0  0
    8.8474  -15.9804   20.8511 N   0  0  0  0  0  0  0  0  0  0  0  0
    8.9972  -16.1322   23.2727 C   0  0  0  0  0  0  0  0  0  0  0  0
   10.1419  -15.6111   23.2971 O   0  0  0  0  0  0  0  0  0  0  0  0
    5.5357  -13.0204   27.2782 N   0  0  0  0  0  0  0  0  0  0  0  0
    6.5638  -12.2921   26.5980 C   0  0  0  0  0  0  0  0  0  0  0  0
    6.4947  -11.0562   26.4904 O   0  0  0  0  0  0  0  0  0  0  0  0
    7.6884  -13.0686   26.0407 C   0  0  0  0  0  0  0  0  0  0  0  0
    7.6098  -14.5349   26.2668 C   0  0  0  0  0  0  0  0  0  0  0  0
    8.7097  -15.3501   25.6590 C   0  0  2  0  0  0  0  0  0  0  0  0
    8.2306  -16.0679   24.4684 N   0  0  0  0  0  0  0  0  0  0  0  0
    9.2699  -16.3480   26.5924 C   0  0  0  0  0  0  0  0  0  0  0  0
    8.9757  -17.5534   26.4505 O   0  0  0  0  0  0  0  0  0  0  0  0
   10.1158  -15.9928   27.6263 O   0  0  0  0  0  0  0  0  0  0  0  0
  2  1  1  0
  3  2  1  0
  4  3  1  0
  4  5  1  0
  5  1  1  0
  5  6  1  1
  6 10  1  0
  7  6  2  0
  9  8  1  6
  9 10  1  0
  9 11  1  0
 11 19  1  0
 12 11  2  0
 14 13  1  0
 14 16  1  0
 15 14  2  0
 17 16  1  0
 18 20  1  0
 18 17  1  1
 19 18  1  0
 20 22  1  0
 21 20  2  0
M  END
$$$$
