PAQ.pdb
     RDKit          3D

 22 22  0  0  1  0  0  0  0  0999 V2000
    9.1455  -14.5578   18.7040 N   0  0  0  0  0  0  0  0  0  0  0  0
    8.6573  -13.7946   17.5375 C   0  0  0  0  0  0  0  0  0  0  0  0
    7.2557  -13.4541   18.0594 C   0  0  0  0  0  0  0  0  0  0  0  0
    7.5979  -12.9166   19.4293 C   0  0  0  0  0  0  0  0  0  0  0  0
    8.8179  -13.7344   19.8224 C   0  0  1  0  0  0  0  0  0  0  0  0
    8.5197  -14.4528   21.0649 C   0  0  0  0  0  0  0  0  0  0  0  0
    8.1292  -13.8218   22.1068 O   0  0  0  0  0  0  0  0  0  0  0  0
    8.6060  -18.0059   22.4400 C   0  0  0  0  0  0  0  0  0  0  0  0
    8.2602  -16.5345   22.4695 C   0  0  2  0  0  0  0  0  0  0  0  0
    8.6243  -15.8613   21.2484 N   0  0  0  0  0  0  0  0  0  0  0  0
    8.8814  -15.9403   23.6645 C   0  0  0  0  0  0  0  0  0  0  0  0
   10.0817  -15.5707   23.5929 O   0  0  0  0  0  0  0  0  0  0  0  0
    6.1105  -10.8505   26.1592 N   0  0  0  0  0  0  0  0  0  0  0  0
    6.2716  -12.2048   26.5951 C   0  0  0  0  0  0  0  0  0  0  0  0
    5.5738  -12.6568   27.5184 O   0  0  0  0  0  0  0  0  0  0  0  0
    7.2899  -13.0215   25.9063 C   0  0  0  0  0  0  0  0  0  0  0  0
    7.8403  -14.1439   26.7091 C   0  0  0  0  0  0  0  0  0  0  0  0
    8.8438  -15.0132   26.0156 C   0  0  2  0  0  0  0  0  0  0  0  0
    8.2184  -15.7509   24.9079 N   0  0  0  0  0  0  0  0  0  0  0  0
    9.4713  -16.0002   26.9173 C   0  0  0  0  0  0  0  0  0  0  0  0
   10.2479  -15.6064   27.8125 O   0  0  0  0  0  0  0  0  0  0  0  0
    9.2275  -17.3562   26.8054 O   0  0  0  0  0  0  0  0  0  0  0  0
  2  1  1  0
  3  2  1  0
  4  3  1  0
  4  5  1  0
  5  1  1  0
  5  6  1  1
  6 10  1  0
  7  6  2  0
  9  8  1  6
  9 10  1  0
  9 11  1  0
 11 19  1  0
 12 11  2  0
 14 13  1  0
 14 16  1  0
 15 14  2  0
 17 16  1  0
 18 20  1  0
 18 17  1  1
 19 18  1  0
 20 22  1  0
 21 20  2  0
M  END
$$$$
