PAQ.pdb
     RDKit          3D

 22 22  0  0  1  0  0  0  0  0999 V2000
    9.0717  -15.0301   18.2077 N   0  0  0  0  0  0  0  0  0  0  0  0
    9.0115  -14.2048   16.9842 C   0  0  0  0  0  0  0  0  0  0  0  0
    7.6790  -13.4948   17.2546 C   0  0  0  0  0  0  0  0  0  0  0  0
    7.9053  -13.0202   18.6710 C   0  0  0  0  0  0  0  0  0  0  0  0
    8.7809  -14.1137   19.2621 C   0  0  1  0  0  0  0  0  0  0  0  0
    8.0931  -14.6888   20.4218 C   0  0  0  0  0  0  0  0  0  0  0  0
    7.7394  -13.9500   21.4043 O   0  0  0  0  0  0  0  0  0  0  0  0
    6.9552  -18.0968   21.6974 C   0  0  0  0  0  0  0  0  0  0  0  0
    7.1336  -16.5972   21.7675 C   0  0  2  0  0  0  0  0  0  0  0  0
    7.7563  -16.0633   20.5826 N   0  0  0  0  0  0  0  0  0  0  0  0
    7.8711  -16.2794   23.0013 C   0  0  0  0  0  0  0  0  0  0  0  0
    9.1265  -16.2196   22.9485 O   0  0  0  0  0  0  0  0  0  0  0  0
    5.2282  -12.3604   26.9393 N   0  0  0  0  0  0  0  0  0  0  0  0
    6.5178  -12.4343   27.5569 C   0  0  0  0  0  0  0  0  0  0  0  0
    6.7937  -11.7104   28.5283 O   0  0  0  0  0  0  0  0  0  0  0  0
    7.4854  -13.3949   26.9917 C   0  0  0  0  0  0  0  0  0  0  0  0
    6.9787  -14.1929   25.8456 C   0  0  0  0  0  0  0  0  0  0  0  0
    7.9221  -15.2176   25.2945 C   0  0  2  0  0  0  0  0  0  0  0  0
    7.2633  -16.0322   24.2627 N   0  0  0  0  0  0  0  0  0  0  0  0
    8.4440  -16.1345   26.3279 C   0  0  0  0  0  0  0  0  0  0  0  0
    7.8958  -17.2436   26.4972 O   0  0  0  0  0  0  0  0  0  0  0  0
    9.5274  -15.8063   27.1212 O   0  0  0  0  0  0  0  0  0  0  0  0
  2  1  1  0
  3  2  1  0
  4  3  1  0
  4  5  1  0
  5  1  1  0
  5  6  1  1
  6 10  1  0
  7  6  2  0
  9  8  1  6
  9 10  1  0
  9 11  1  0
 11 19  1  0
 12 11  2  0
 14 13  1  0
 14 16  1  0
 15 14  2  0
 17 16  1  0
 18 20  1  0
 18 17  1  1
 19 18  1  0
 20 22  1  0
 21 20  2  0
M  END
$$$$
