PAQ.pdb
     RDKit          3D

 22 22  0  0  1  0  0  0  0  0999 V2000
    8.2304  -18.2825   18.8411 N   0  0  0  0  0  0  0  0  0  0  0  0
    7.6650  -19.5985   19.2017 C   0  0  0  0  0  0  0  0  0  0  0  0
    7.5386  -19.3844   20.7152 C   0  0  0  0  0  0  0  0  0  0  0  0
    6.8380  -18.0461   20.7439 C   0  0  0  0  0  0  0  0  0  0  0  0
    7.3898  -17.3451   19.5126 C   0  0  1  0  0  0  0  0  0  0  0  0
    8.0454  -16.1038   19.9347 C   0  0  0  0  0  0  0  0  0  0  0  0
    9.3127  -16.0586   20.1021 O   0  0  0  0  0  0  0  0  0  0  0  0
    7.1796  -12.4510   20.5547 C   0  0  0  0  0  0  0  0  0  0  0  0
    8.0687  -13.6724   20.6137 C   0  0  2  0  0  0  0  0  0  0  0  0
    7.3844  -14.8692   20.1940 N   0  0  0  0  0  0  0  0  0  0  0  0
    8.6246  -13.7709   21.9732 C   0  0  0  0  0  0  0  0  0  0  0  0
    9.3606  -12.8383   22.3869 O   0  0  0  0  0  0  0  0  0  0  0  0
    5.4869  -13.4131   26.6646 N   0  0  0  0  0  0  0  0  0  0  0  0
    6.6585  -12.5900   26.6728 C   0  0  0  0  0  0  0  0  0  0  0  0
    6.6773  -11.5270   27.3158 O   0  0  0  0  0  0  0  0  0  0  0  0
    7.8207  -13.0583   25.8929 C   0  0  0  0  0  0  0  0  0  0  0  0
    7.5877  -14.2951   25.1033 C   0  0  0  0  0  0  0  0  0  0  0  0
    8.7475  -14.7785   24.2880 C   0  0  2  0  0  0  0  0  0  0  0  0
    8.3890  -14.8538   22.8639 N   0  0  0  0  0  0  0  0  0  0  0  0
    9.2273  -16.1120   24.7034 C   0  0  0  0  0  0  0  0  0  0  0  0
    8.9709  -17.1053   23.9914 O   0  0  0  0  0  0  0  0  0  0  0  0
    9.9567  -16.3017   25.8622 O   0  0  0  0  0  0  0  0  0  0  0  0
  2  1  1  0
  3  2  1  0
  4  3  1  0
  4  5  1  0
  5  1  1  0
  5  6  1  1
  6 10  1  0
  7  6  2  0
  9  8  1  1
  9 10  1  0
  9 11  1  0
 11 19  1  0
 12 11  2  0
 14 13  1  0
 14 16  1  0
 15 14  2  0
 17 16  1  0
 18 20  1  0
 18 17  1  1
 19 18  1  0
 20 22  1  0
 21 20  2  0
M  END
$$$$
