PAQ.pdb
     RDKit          3D

 22 22  0  0  1  0  0  0  0  0999 V2000
    8.3616  -15.3547   19.1702 N   0  0  0  0  0  0  0  0  0  0  0  0
    7.7657  -16.3357   18.2407 C   0  0  0  0  0  0  0  0  0  0  0  0
    7.4035  -17.4233   19.2599 C   0  0  0  0  0  0  0  0  0  0  0  0
    6.6882  -16.5943   20.3008 C   0  0  0  0  0  0  0  0  0  0  0  0
    7.4141  -15.2599   20.2330 C   0  0  1  0  0  0  0  0  0  0  0  0
    7.9789  -14.9662   21.5534 C   0  0  0  0  0  0  0  0  0  0  0  0
    9.2082  -15.2122   21.8076 O   0  0  0  0  0  0  0  0  0  0  0  0
    6.9033  -13.4745   24.8913 C   0  0  0  0  0  0  0  0  0  0  0  0
    7.8324  -14.2210   23.9610 C   0  0  2  0  0  0  0  0  0  0  0  0
    7.2643  -14.4033   22.6492 N   0  0  0  0  0  0  0  0  0  0  0  0
    8.2105  -15.4878   24.6084 C   0  0  0  0  0  0  0  0  0  0  0  0
    7.4765  -16.4934   24.4279 O   0  0  0  0  0  0  0  0  0  0  0  0
   13.0522  -18.1650   23.1622 N   0  0  0  0  0  0  0  0  0  0  0  0
   13.2333  -16.9242   23.8534 C   0  0  0  0  0  0  0  0  0  0  0  0
   14.2595  -16.2470   23.6742 O   0  0  0  0  0  0  0  0  0  0  0  0
   12.1603  -16.4983   24.7729 C   0  0  0  0  0  0  0  0  0  0  0  0
   10.9684  -17.3848   24.7978 C   0  0  0  0  0  0  0  0  0  0  0  0
    9.8839  -16.9957   25.7550 C   0  0  2  0  0  0  0  0  0  0  0  0
    9.3564  -15.6617   25.4318 N   0  0  0  0  0  0  0  0  0  0  0  0
   10.3371  -16.9732   27.1603 C   0  0  0  0  0  0  0  0  0  0  0  0
   10.2527  -15.9133   27.8151 O   0  0  0  0  0  0  0  0  0  0  0  0
   10.8558  -18.0934   27.7825 O   0  0  0  0  0  0  0  0  0  0  0  0
  2  1  1  0
  3  2  1  0
  4  3  1  0
  4  5  1  0
  5  1  1  0
  5  6  1  1
  6 10  1  0
  7  6  2  0
  9  8  1  1
  9 10  1  0
  9 11  1  0
 11 19  1  0
 12 11  2  0
 14 13  1  0
 14 16  1  0
 15 14  2  0
 17 16  1  0
 18 20  1  0
 18 17  1  6
 19 18  1  0
 20 22  1  0
 21 20  2  0
M  END
$$$$
