PAQ.pdb
     RDKit          3D

 22 22  0  0  1  0  0  0  0  0999 V2000
    8.3136  -17.8673   20.5819 N   0  0  0  0  0  0  0  0  0  0  0  0
    7.6382  -18.3278   19.3517 C   0  0  0  0  0  0  0  0  0  0  0  0
    6.8478  -17.0520   19.0354 C   0  0  0  0  0  0  0  0  0  0  0  0
    7.9431  -16.0175   19.1480 C   0  0  0  0  0  0  0  0  0  0  0  0
    8.8427  -16.5890   20.2324 C   0  0  1  0  0  0  0  0  0  0  0  0
    8.9246  -15.6218   21.3309 C   0  0  0  0  0  0  0  0  0  0  0  0
   10.0037  -14.9704   21.5487 O   0  0  0  0  0  0  0  0  0  0  0  0
    6.6723  -13.6044   23.5299 C   0  0  0  0  0  0  0  0  0  0  0  0
    7.9798  -14.3199   23.2766 C   0  0  2  0  0  0  0  0  0  0  0  0
    7.8698  -15.3106   22.2359 N   0  0  0  0  0  0  0  0  0  0  0  0
    8.4552  -14.8745   24.5547 C   0  0  0  0  0  0  0  0  0  0  0  0
    7.8012  -14.6169   25.5980 O   0  0  0  0  0  0  0  0  0  0  0  0
    6.0465  -19.1271   25.2552 N   0  0  0  0  0  0  0  0  0  0  0  0
    7.1036  -19.6874   26.0418 C   0  0  0  0  0  0  0  0  0  0  0  0
    6.8745  -20.6148   26.8362 O   0  0  0  0  0  0  0  0  0  0  0  0
    8.4539  -19.1181   25.8655 C   0  0  0  0  0  0  0  0  0  0  0  0
    8.4957  -17.8141   25.1548 C   0  0  0  0  0  0  0  0  0  0  0  0
    9.6112  -16.8931   25.5434 C   0  0  2  0  0  0  0  0  0  0  0  0
    9.6117  -15.6888   24.6996 N   0  0  0  0  0  0  0  0  0  0  0  0
   10.9426  -17.5223   25.4320 C   0  0  0  0  0  0  0  0  0  0  0  0
   11.2436  -18.4607   26.1991 O   0  0  0  0  0  0  0  0  0  0  0  0
   11.8757  -17.1066   24.5007 O   0  0  0  0  0  0  0  0  0  0  0  0
  2  1  1  0
  3  2  1  0
  4  3  1  0
  4  5  1  0
  5  1  1  0
  5  6  1  1
  6 10  1  0
  7  6  2  0
  9  8  1  1
  9 10  1  0
  9 11  1  0
 11 19  1  0
 12 11  2  0
 14 13  1  0
 14 16  1  0
 15 14  2  0
 17 16  1  0
 18 20  1  0
 18 17  1  6
 19 18  1  0
 20 22  1  0
 21 20  2  0
M  END
$$$$
