PAQ.pdb
     RDKit          3D

 22 22  0  0  1  0  0  0  0  0999 V2000
    9.2225  -14.1077   18.5076 N   0  0  0  0  0  0  0  0  0  0  0  0
    8.5060  -13.2316   17.5586 C   0  0  0  0  0  0  0  0  0  0  0  0
    7.1190  -13.2752   18.2122 C   0  0  0  0  0  0  0  0  0  0  0  0
    7.4835  -12.9701   19.6462 C   0  0  0  0  0  0  0  0  0  0  0  0
    8.8577  -13.6042   19.7919 C   0  0  1  0  0  0  0  0  0  0  0  0
    8.8021  -14.6016   20.8647 C   0  0  0  0  0  0  0  0  0  0  0  0
    8.4137  -14.2767   22.0394 O   0  0  0  0  0  0  0  0  0  0  0  0
    9.3590  -18.3396   21.3548 C   0  0  0  0  0  0  0  0  0  0  0  0
    9.0574  -16.9293   21.8082 C   0  0  2  0  0  0  0  0  0  0  0  0
    9.1550  -15.9751   20.7327 N   0  0  0  0  0  0  0  0  0  0  0  0
    9.9397  -16.6130   22.9434 C   0  0  0  0  0  0  0  0  0  0  0  0
   10.9843  -15.9482   22.7212 O   0  0  0  0  0  0  0  0  0  0  0  0
    8.5779  -13.4880   27.6310 N   0  0  0  0  0  0  0  0  0  0  0  0
    9.8345  -13.9352   28.1515 C   0  0  0  0  0  0  0  0  0  0  0  0
   10.2975  -13.4397   29.1927 O   0  0  0  0  0  0  0  0  0  0  0  0
   10.5398  -14.9937   27.4028 C   0  0  0  0  0  0  0  0  0  0  0  0
    9.8014  -15.5292   26.2301 C   0  0  0  0  0  0  0  0  0  0  0  0
   10.5364  -16.5349   25.3983 C   0  0  2  0  0  0  0  0  0  0  0  0
    9.6965  -17.0074   24.2876 N   0  0  0  0  0  0  0  0  0  0  0  0
   10.9681  -17.7166   26.1716 C   0  0  0  0  0  0  0  0  0  0  0  0
   10.2876  -18.7626   26.1243 O   0  0  0  0  0  0  0  0  0  0  0  0
   12.1085  -17.7065   26.9527 O   0  0  0  0  0  0  0  0  0  0  0  0
  2  1  1  0
  3  2  1  0
  4  3  1  0
  4  5  1  0
  5  1  1  0
  5  6  1  1
  6 10  1  0
  7  6  2  0
  9  8  1  6
  9 10  1  0
  9 11  1  0
 11 19  1  0
 12 11  2  0
 14 13  1  0
 14 16  1  0
 15 14  2  0
 17 16  1  0
 18 20  1  0
 18 17  1  1
 19 18  1  0
 20 22  1  0
 21 20  2  0
M  END
$$$$
