PAQ.pdb
     RDKit          3D

 22 22  0  0  1  0  0  0  0  0999 V2000
    9.1891  -14.5888   18.5499 N   0  0  0  0  0  0  0  0  0  0  0  0
    8.7333  -13.9075   17.3212 C   0  0  0  0  0  0  0  0  0  0  0  0
    7.2900  -13.6117   17.7477 C   0  0  0  0  0  0  0  0  0  0  0  0
    7.5281  -12.9927   19.1052 C   0  0  0  0  0  0  0  0  0  0  0  0
    8.7603  -13.7297   19.6054 C   0  0  1  0  0  0  0  0  0  0  0  0
    8.4255  -14.4012   20.8647 C   0  0  0  0  0  0  0  0  0  0  0  0
    7.9741  -13.7362   21.8598 O   0  0  0  0  0  0  0  0  0  0  0  0
    8.4085  -17.9167   22.3417 C   0  0  0  0  0  0  0  0  0  0  0  0
    8.1597  -16.4255   22.3496 C   0  0  2  0  0  0  0  0  0  0  0  0
    8.5565  -15.7972   21.1149 N   0  0  0  0  0  0  0  0  0  0  0  0
    8.8286  -15.8543   23.5300 C   0  0  0  0  0  0  0  0  0  0  0  0
   10.0277  -15.4904   23.4196 O   0  0  0  0  0  0  0  0  0  0  0  0
    6.4618  -10.9183   26.6428 N   0  0  0  0  0  0  0  0  0  0  0  0
    6.3180  -12.3424   26.6052 C   0  0  0  0  0  0  0  0  0  0  0  0
    5.3550  -12.8935   27.1644 O   0  0  0  0  0  0  0  0  0  0  0  0
    7.3524  -13.1087   25.8833 C   0  0  0  0  0  0  0  0  0  0  0  0
    8.0425  -14.1458   26.6929 C   0  0  0  0  0  0  0  0  0  0  0  0
    8.9322  -15.0824   25.9346 C   0  0  2  0  0  0  0  0  0  0  0  0
    8.2135  -15.6813   24.8001 N   0  0  0  0  0  0  0  0  0  0  0  0
    9.4544  -16.1830   26.7693 C   0  0  0  0  0  0  0  0  0  0  0  0
    9.0030  -17.3370   26.6153 O   0  0  0  0  0  0  0  0  0  0  0  0
   10.4340  -15.9798   27.7233 O   0  0  0  0  0  0  0  0  0  0  0  0
  2  1  1  0
  3  2  1  0
  4  3  1  0
  4  5  1  0
  5  1  1  0
  5  6  1  1
  6 10  1  0
  7  6  2  0
  9  8  1  6
  9 10  1  0
  9 11  1  0
 11 19  1  0
 12 11  2  0
 14 13  1  0
 14 16  1  0
 15 14  2  0
 17 16  1  0
 18 20  1  0
 18 17  1  1
 19 18  1  0
 20 22  1  0
 21 20  2  0
M  END
$$$$
