TEW.pdb
     RDKit          3D

 31 32  0  0  1  0  0  0  0  0999 V2000
    2.3995  -39.9232   -4.2544 C   0  0  0  0  0  0  0  0  0  0  0  0
    1.6852  -41.2338   -4.2180 C   0  0  1  0  0  0  0  0  0  0  0  0
    2.5819  -42.2862   -4.3035 O   0  0  0  0  0  0  0  0  0  0  0  0
    0.8147  -41.4337   -3.0106 C   0  0  2  0  0  0  0  0  0  0  0  0
   -0.2725  -42.3476   -3.2452 N   0  0  0  0  0  0  0  0  0  0  0  0
    0.2750  -40.1220   -2.5302 C   0  0  0  0  0  0  0  0  0  0  0  0
    0.8924  -39.0459   -2.7536 O   0  0  0  0  0  0  0  0  0  0  0  0
   -0.9426  -40.0120   -1.8068 N   0  0  0  0  0  0  0  0  0  0  0  0
   -2.2165  -39.9551   -2.4835 C   0  0  1  0  0  0  0  0  0  0  0  0
   -2.9060  -38.6560   -2.2242 C   0  0  0  0  0  0  0  0  0  0  0  0
   -4.0148  -38.7635   -1.2154 C   0  0  0  0  0  0  0  0  0  0  0  0
   -4.1931  -37.4262   -0.5884 C   0  0  0  0  0  0  0  0  0  0  0  0
   -5.2286  -37.0959    0.0323 O   0  0  0  0  0  0  0  0  0  0  0  0
   -2.0744  -40.1613   -3.9471 C   0  0  0  0  0  0  0  0  0  0  0  0
   -2.6093  -39.3241   -4.7139 O   0  0  0  0  0  0  0  0  0  0  0  0
   -3.1737  -36.4785   -0.6827 O   0  0  0  0  0  0  0  0  0  0  0  0
   -1.3673  -41.2523   -4.5121 N   0  0  0  0  0  0  0  0  0  0  0  0
   -2.0348  -42.5691   -4.6752 C   0  0  1  0  0  0  0  0  0  0  0  0
   -2.7289  -42.8911   -3.3818 C   0  0  0  0  0  0  0  0  0  0  0  0
   -1.9408  -43.5677   -2.3581 C   0  0  0  0  0  0  0  0  0  0  0  0
   -0.8374  -44.3872   -2.5937 C   0  0  0  0  0  0  0  0  0  0  0  0
   -0.3968  -44.8537   -1.4107 N   0  0  0  0  0  0  0  0  0  0  0  0
   -1.1352  -44.3966   -0.4080 C   0  0  0  0  0  0  0  0  0  0  0  0
   -1.0953  -44.5578    0.9637 C   0  0  0  0  0  0  0  0  0  0  0  0
   -1.9909  -43.9418    1.8010 C   0  0  0  0  0  0  0  0  0  0  0  0
   -2.9529  -43.1420    1.2473 C   0  0  0  0  0  0  0  0  0  0  0  0
   -2.9962  -42.9798   -0.1157 C   0  0  0  0  0  0  0  0  0  0  0  0
   -2.1102  -43.5854   -0.9955 C   0  0  0  0  0  0  0  0  0  0  0  0
   -2.9164  -42.4424   -5.8371 C   0  0  0  0  0  0  0  0  0  0  0  0
   -3.3806  -43.4124   -6.5043 O   0  0  0  0  0  0  0  0  0  0  0  0
   -3.3316  -41.1839   -6.3200 O   0  0  0  0  0  0  0  0  0  0  0  0
  2  1  1  1
  3  2  1  0
  4  2  1  0
  4  5  1  6
  6  4  1  0
  6  7  2  0
  8  6  1  0
  9  8  1  0
  9 10  1  6
 11 10  1  0
 12 11  1  0
 13 12  2  0
 14  9  1  0
 15 14  2  0
 16 12  1  0
 17 14  1  0
 18 17  1  0
 18 19  1  1
 20 28  1  0
 20 19  1  0
 21 20  2  0
 22 21  1  0
 22 23  1  0
 23 28  2  0
 24 23  1  0
 24 25  2  0
 25 26  1  0
 26 27  2  0
 28 27  1  0
 29 18  1  0
 30 29  2  0
 31 29  1  0
M  END
$$$$
