TEW.pdb
     RDKit          3D

 31 32  0  0  1  0  0  0  0  0999 V2000
    9.0042  -12.8527   19.9017 C   0  0  0  0  0  0  0  0  0  0  0  0
    7.9948  -13.3974   18.9459 C   0  0  1  0  0  0  0  0  0  0  0  0
    7.5996  -12.4265   18.0402 O   0  0  0  0  0  0  0  0  0  0  0  0
    8.4483  -14.6127   18.1888 C   0  0  2  0  0  0  0  0  0  0  0  0
    7.4812  -15.0694   17.2254 N   0  0  0  0  0  0  0  0  0  0  0  0
    8.7815  -15.7253   19.1341 C   0  0  0  0  0  0  0  0  0  0  0  0
    7.8724  -16.4142   19.6709 O   0  0  0  0  0  0  0  0  0  0  0  0
   10.1171  -16.0662   19.4775 N   0  0  0  0  0  0  0  0  0  0  0  0
   10.4053  -17.1264   20.4139 C   0  0  1  0  0  0  0  0  0  0  0  0
   11.4560  -18.0442   19.8811 C   0  0  0  0  0  0  0  0  0  0  0  0
   12.7326  -17.3383   19.5192 C   0  0  0  0  0  0  0  0  0  0  0  0
   13.3355  -18.0503   18.3603 C   0  0  0  0  0  0  0  0  0  0  0  0
   12.8257  -19.0712   17.8460 O   0  0  0  0  0  0  0  0  0  0  0  0
   10.8285  -16.5968   21.7350 C   0  0  0  0  0  0  0  0  0  0  0  0
   11.8020  -15.8053   21.7671 O   0  0  0  0  0  0  0  0  0  0  0  0
   14.5239  -17.5782   17.8029 O   0  0  0  0  0  0  0  0  0  0  0  0
   10.1874  -16.9421   22.9512 N   0  0  0  0  0  0  0  0  0  0  0  0
   10.7081  -16.4232   24.2419 C   0  0  1  0  0  0  0  0  0  0  0  0
    9.6126  -16.5575   25.2617 C   0  0  0  0  0  0  0  0  0  0  0  0
    9.9078  -16.0999   26.6147 C   0  0  0  0  0  0  0  0  0  0  0  0
   10.2888  -16.9136   27.6811 C   0  0  0  0  0  0  0  0  0  0  0  0
   10.4411  -16.1388   28.7709 N   0  0  0  0  0  0  0  0  0  0  0  0
   10.1868  -14.8663   28.4959 C   0  0  0  0  0  0  0  0  0  0  0  0
   10.2121  -13.7011   29.2381 C   0  0  0  0  0  0  0  0  0  0  0  0
    9.9157  -12.4774   28.6927 C   0  0  0  0  0  0  0  0  0  0  0  0
    9.5849  -12.4209   27.3664 C   0  0  0  0  0  0  0  0  0  0  0  0
    9.5580  -13.5769   26.6256 C   0  0  0  0  0  0  0  0  0  0  0  0
    9.8502  -14.8323   27.1397 C   0  0  0  0  0  0  0  0  0  0  0  0
   11.9227  -17.1870   24.5325 C   0  0  0  0  0  0  0  0  0  0  0  0
   12.1143  -18.3953   24.2082 O   0  0  0  0  0  0  0  0  0  0  0  0
   13.0125  -16.6148   25.2211 O   0  0  0  0  0  0  0  0  0  0  0  0
  2  1  1  6
  3  2  1  0
  4  2  1  0
  4  5  1  6
  6  4  1  0
  6  7  2  0
  8  6  1  0
  9  8  1  0
  9 10  1  6
 11 10  1  0
 12 11  1  0
 13 12  2  0
 14  9  1  0
 15 14  2  0
 16 12  1  0
 17 14  1  0
 18 17  1  0
 18 19  1  1
 20 28  1  0
 20 19  1  0
 21 20  2  0
 22 21  1  0
 22 23  1  0
 23 28  2  0
 24 23  1  0
 24 25  2  0
 25 26  1  0
 26 27  2  0
 28 27  1  0
 29 18  1  0
 30 29  2  0
 31 29  1  0
M  END
$$$$
