TEW.pdb
     RDKit          3D

 31 32  0  0  1  0  0  0  0  0999 V2000
   14.5228  -17.2710   20.6596 C   0  0  0  0  0  0  0  0  0  0  0  0
   14.7797  -15.8965   20.1362 C   0  0  1  0  0  0  0  0  0  0  0  0
   15.8808  -15.8872   19.2956 O   0  0  0  0  0  0  0  0  0  0  0  0
   13.6149  -15.2770   19.4186 C   0  0  2  0  0  0  0  0  0  0  0  0
   13.9019  -13.9614   18.9098 N   0  0  0  0  0  0  0  0  0  0  0  0
   12.4168  -15.2197   20.3152 C   0  0  0  0  0  0  0  0  0  0  0  0
   12.2599  -14.2688   21.1277 O   0  0  0  0  0  0  0  0  0  0  0  0
   11.4030  -16.2147   20.3055 N   0  0  0  0  0  0  0  0  0  0  0  0
   10.2492  -16.1208   21.1680 C   0  0  1  0  0  0  0  0  0  0  0  0
    9.1641  -17.0427   20.7175 C   0  0  0  0  0  0  0  0  0  0  0  0
    8.5533  -16.6432   19.4037 C   0  0  0  0  0  0  0  0  0  0  0  0
    7.5952  -17.7084   19.0028 C   0  0  0  0  0  0  0  0  0  0  0  0
    7.3435  -17.9860   17.8085 O   0  0  0  0  0  0  0  0  0  0  0  0
   10.5927  -16.4084   22.5836 C   0  0  0  0  0  0  0  0  0  0  0  0
   11.6601  -17.0261   22.8162 O   0  0  0  0  0  0  0  0  0  0  0  0
    6.9335  -18.4463   19.9845 O   0  0  0  0  0  0  0  0  0  0  0  0
    9.7758  -16.0195   23.6749 N   0  0  0  0  0  0  0  0  0  0  0  0
   10.1483  -16.4060   25.0599 C   0  0  1  0  0  0  0  0  0  0  0  0
    9.7694  -15.2696   25.9672 C   0  0  0  0  0  0  0  0  0  0  0  0
    8.3783  -14.8327   25.9355 C   0  0  0  0  0  0  0  0  0  0  0  0
    7.2737  -15.6571   25.7248 C   0  0  0  0  0  0  0  0  0  0  0  0
    6.1669  -14.8916   25.7324 N   0  0  0  0  0  0  0  0  0  0  0  0
    6.4661  -13.6153   25.9348 C   0  0  0  0  0  0  0  0  0  0  0  0
    5.7161  -12.4598   26.0427 C   0  0  0  0  0  0  0  0  0  0  0  0
    6.2865  -11.2344   26.2786 C   0  0  0  0  0  0  0  0  0  0  0  0
    7.6466  -11.1660   26.4100 C   0  0  0  0  0  0  0  0  0  0  0  0
    8.3955  -12.3121   26.3028 C   0  0  0  0  0  0  0  0  0  0  0  0
    7.8570  -13.5687   26.0642 C   0  0  0  0  0  0  0  0  0  0  0  0
    9.4640  -17.6712   25.3320 C   0  0  0  0  0  0  0  0  0  0  0  0
    8.5564  -18.1751   24.6079 O   0  0  0  0  0  0  0  0  0  0  0  0
    9.7745  -18.4548   26.4628 O   0  0  0  0  0  0  0  0  0  0  0  0
  2  1  1  6
  3  2  1  0
  4  2  1  0
  4  5  1  1
  6  4  1  0
  6  7  2  0
  8  6  1  0
  9  8  1  0
  9 10  1  6
 11 10  1  0
 12 11  1  0
 13 12  2  0
 14  9  1  0
 15 14  2  0
 16 12  1  0
 17 14  1  0
 18 17  1  0
 18 19  1  1
 20 28  1  0
 20 19  1  0
 21 20  2  0
 22 21  1  0
 22 23  1  0
 23 28  2  0
 24 23  1  0
 24 25  2  0
 25 26  1  0
 26 27  2  0
 28 27  1  0
 29 18  1  0
 30 29  2  0
 31 29  1  0
M  END
$$$$
