TEW.pdb
     RDKit          3D

 31 32  0  0  1  0  0  0  0  0999 V2000
    7.4497  -12.6119   19.8982 C   0  0  0  0  0  0  0  0  0  0  0  0
    7.9163  -13.7215   20.7813 C   0  0  1  0  0  0  0  0  0  0  0  0
    7.0114  -13.9504   21.8049 O   0  0  0  0  0  0  0  0  0  0  0  0
    8.1794  -15.0160   20.0665 C   0  0  2  0  0  0  0  0  0  0  0  0
    7.0653  -15.4546   19.2674 N   0  0  0  0  0  0  0  0  0  0  0  0
    8.5516  -16.0882   21.0433 C   0  0  0  0  0  0  0  0  0  0  0  0
    7.7219  -16.9760   21.3788 O   0  0  0  0  0  0  0  0  0  0  0  0
    9.8379  -16.1691   21.6406 N   0  0  0  0  0  0  0  0  0  0  0  0
   10.1441  -17.1715   22.6333 C   0  0  1  0  0  0  0  0  0  0  0  0
   11.4314  -17.8615   22.3221 C   0  0  0  0  0  0  0  0  0  0  0  0
   12.5892  -16.9160   22.1670 C   0  0  0  0  0  0  0  0  0  0  0  0
   13.5962  -17.5676   21.2867 C   0  0  0  0  0  0  0  0  0  0  0  0
   13.4294  -18.7000   20.7804 O   0  0  0  0  0  0  0  0  0  0  0  0
   10.2048  -16.5947   24.0003 C   0  0  0  0  0  0  0  0  0  0  0  0
   10.6576  -15.4312   24.1284 O   0  0  0  0  0  0  0  0  0  0  0  0
   14.7900  -16.9065   20.9971 O   0  0  0  0  0  0  0  0  0  0  0  0
    9.7774  -17.2936   25.1572 N   0  0  0  0  0  0  0  0  0  0  0  0
    9.9427  -16.6824   26.5009 C   0  0  1  0  0  0  0  0  0  0  0  0
    8.5810  -16.5904   27.1298 C   0  0  0  0  0  0  0  0  0  0  0  0
    7.6374  -15.6532   26.5314 C   0  0  0  0  0  0  0  0  0  0  0  0
    6.5279  -15.9998   25.7611 C   0  0  0  0  0  0  0  0  0  0  0  0
    5.9207  -14.8676   25.3605 N   0  0  0  0  0  0  0  0  0  0  0  0
    6.5545  -13.7948   25.8153 C   0  0  0  0  0  0  0  0  0  0  0  0
    6.3380  -12.4345   25.7059 C   0  0  0  0  0  0  0  0  0  0  0  0
    7.1566  -11.5109   26.3055 C   0  0  0  0  0  0  0  0  0  0  0  0
    8.2216  -11.9640   27.0349 C   0  0  0  0  0  0  0  0  0  0  0  0
    8.4406  -13.3152   27.1454 C   0  0  0  0  0  0  0  0  0  0  0  0
    7.6372  -14.2801   26.5542 C   0  0  0  0  0  0  0  0  0  0  0  0
   10.9021  -17.5225   27.2198 C   0  0  0  0  0  0  0  0  0  0  0  0
   11.3736  -18.6155   26.7897 O   0  0  0  0  0  0  0  0  0  0  0  0
   11.3929  -17.1660   28.4930 O   0  0  0  0  0  0  0  0  0  0  0  0
  2  1  1  6
  3  2  1  0
  4  2  1  0
  4  5  1  1
  6  4  1  0
  6  7  2  0
  8  6  1  0
  9  8  1  0
  9 10  1  6
 11 10  1  0
 12 11  1  0
 13 12  2  0
 14  9  1  0
 15 14  2  0
 16 12  1  0
 17 14  1  0
 18 17  1  0
 18 19  1  1
 20 28  1  0
 20 19  1  0
 21 20  2  0
 22 21  1  0
 22 23  1  0
 23 28  2  0
 24 23  1  0
 24 25  2  0
 25 26  1  0
 26 27  2  0
 28 27  1  0
 29 18  1  0
 30 29  2  0
 31 29  1  0
M  END
$$$$
