TEW.pdb
     RDKit          3D

 31 32  0  0  1  0  0  0  0  0999 V2000
    9.6645  -12.8247   19.0665 C   0  0  0  0  0  0  0  0  0  0  0  0
    8.6562  -13.1085   18.0025 C   0  0  1  0  0  0  0  0  0  0  0  0
    8.7160  -12.1544   17.0000 O   0  0  0  0  0  0  0  0  0  0  0  0
    8.7728  -14.4720   17.3837 C   0  0  2  0  0  0  0  0  0  0  0  0
    7.8184  -14.6955   16.3295 N   0  0  0  0  0  0  0  0  0  0  0  0
    8.6282  -15.5358   18.4276 C   0  0  0  0  0  0  0  0  0  0  0  0
    7.5026  -15.8050   18.9275 O   0  0  0  0  0  0  0  0  0  0  0  0
    9.7295  -16.2925   18.9096 N   0  0  0  0  0  0  0  0  0  0  0  0
    9.5831  -17.2165   20.0091 C   0  0  1  0  0  0  0  0  0  0  0  0
   10.5859  -18.3197   19.9220 C   0  0  0  0  0  0  0  0  0  0  0  0
   10.4363  -19.3450   21.0107 C   0  0  0  0  0  0  0  0  0  0  0  0
   11.4736  -20.3904   20.7992 C   0  0  0  0  0  0  0  0  0  0  0  0
   12.2908  -20.3593   19.8517 O   0  0  0  0  0  0  0  0  0  0  0  0
    9.7035  -16.5353   21.3230 C   0  0  0  0  0  0  0  0  0  0  0  0
   10.7169  -15.8234   21.5260 O   0  0  0  0  0  0  0  0  0  0  0  0
   11.5600  -21.4655   21.6838 O   0  0  0  0  0  0  0  0  0  0  0  0
    8.7328  -16.6519   22.3495 N   0  0  0  0  0  0  0  0  0  0  0  0
    8.9187  -15.9339   23.6364 C   0  0  1  0  0  0  0  0  0  0  0  0
    7.5549  -15.6136   24.1802 C   0  0  0  0  0  0  0  0  0  0  0  0
    7.4959  -15.0112   25.5070 C   0  0  0  0  0  0  0  0  0  0  0  0
    7.6415  -15.6931   26.7147 C   0  0  0  0  0  0  0  0  0  0  0  0
    7.4944  -14.8100   27.7194 N   0  0  0  0  0  0  0  0  0  0  0  0
    7.2618  -13.5889   27.2566 C   0  0  0  0  0  0  0  0  0  0  0  0
    7.0593  -12.3593   27.8536 C   0  0  0  0  0  0  0  0  0  0  0  0
    6.8532  -11.2151   27.1249 C   0  0  0  0  0  0  0  0  0  0  0  0
    6.8501  -11.3066   25.7598 C   0  0  0  0  0  0  0  0  0  0  0  0
    7.0504  -12.5271   25.1628 C   0  0  0  0  0  0  0  0  0  0  0  0
    7.2613  -13.7061   25.8638 C   0  0  0  0  0  0  0  0  0  0  0  0
    9.7334  -16.8085   24.4816 C   0  0  0  0  0  0  0  0  0  0  0  0
    9.7189  -18.0735   24.4424 O   0  0  0  0  0  0  0  0  0  0  0  0
   10.6299  -16.2904   25.4393 O   0  0  0  0  0  0  0  0  0  0  0  0
  2  1  1  1
  3  2  1  0
  4  2  1  0
  4  5  1  6
  6  4  1  0
  6  7  2  0
  8  6  1  0
  9  8  1  0
  9 10  1  6
 11 10  1  0
 12 11  1  0
 13 12  2  0
 14  9  1  0
 15 14  2  0
 16 12  1  0
 17 14  1  0
 18 17  1  0
 18 19  1  1
 20 28  1  0
 20 19  1  0
 21 20  2  0
 22 21  1  0
 22 23  1  0
 23 28  2  0
 24 23  1  0
 24 25  2  0
 25 26  1  0
 26 27  2  0
 28 27  1  0
 29 18  1  0
 30 29  2  0
 31 29  1  0
M  END
$$$$
