TEW.pdb
     RDKit          3D

 31 32  0  0  1  0  0  0  0  0999 V2000
    7.4660  -12.3324   19.5411 C   0  0  0  0  0  0  0  0  0  0  0  0
    8.0910  -13.3199   20.4703 C   0  0  1  0  0  0  0  0  0  0  0  0
    7.6634  -13.1112   21.7713 O   0  0  0  0  0  0  0  0  0  0  0  0
    7.8504  -14.7564   20.1040 C   0  0  2  0  0  0  0  0  0  0  0  0
    6.4546  -15.0714   19.9468 N   0  0  0  0  0  0  0  0  0  0  0  0
    8.4603  -15.6670   21.1244 C   0  0  0  0  0  0  0  0  0  0  0  0
    7.7390  -16.3025   21.9399 O   0  0  0  0  0  0  0  0  0  0  0  0
    9.8624  -15.8668   21.2341 N   0  0  0  0  0  0  0  0  0  0  0  0
   10.4129  -16.8595   22.1260 C   0  0  1  0  0  0  0  0  0  0  0  0
   11.7786  -17.2769   21.6895 C   0  0  0  0  0  0  0  0  0  0  0  0
   12.3248  -18.4355   22.4756 C   0  0  0  0  0  0  0  0  0  0  0  0
   13.6762  -18.7537   21.9410 C   0  0  0  0  0  0  0  0  0  0  0  0
   13.8590  -19.3128   20.8362 O   0  0  0  0  0  0  0  0  0  0  0  0
   10.4637  -16.3746   23.5286 C   0  0  0  0  0  0  0  0  0  0  0  0
   10.9969  -15.2595   23.7467 O   0  0  0  0  0  0  0  0  0  0  0  0
   14.8083  -18.4239   22.6864 O   0  0  0  0  0  0  0  0  0  0  0  0
    9.9411  -17.1086   24.6229 N   0  0  0  0  0  0  0  0  0  0  0  0
   10.0183  -16.5528   25.9982 C   0  0  1  0  0  0  0  0  0  0  0  0
    8.6643  -16.7123   26.6304 C   0  0  0  0  0  0  0  0  0  0  0  0
    7.6256  -15.7764   26.2156 C   0  0  0  0  0  0  0  0  0  0  0  0
    6.4151  -16.1217   25.6157 C   0  0  0  0  0  0  0  0  0  0  0  0
    5.7365  -14.9903   25.3504 N   0  0  0  0  0  0  0  0  0  0  0  0
    6.4176  -13.9192   25.7357 C   0  0  0  0  0  0  0  0  0  0  0  0
    6.1668  -12.5607   25.7047 C   0  0  0  0  0  0  0  0  0  0  0  0
    7.0550  -11.6394   26.1995 C   0  0  0  0  0  0  0  0  0  0  0  0
    8.2270  -12.0929   26.7403 C   0  0  0  0  0  0  0  0  0  0  0  0
    8.4802  -13.4423   26.7723 C   0  0  0  0  0  0  0  0  0  0  0  0
    7.6089  -14.4049   26.2821 C   0  0  0  0  0  0  0  0  0  0  0  0
   11.1045  -17.2677   26.6705 C   0  0  0  0  0  0  0  0  0  0  0  0
   11.7494  -18.2378   26.1758 O   0  0  0  0  0  0  0  0  0  0  0  0
   11.5318  -16.9180   27.9684 O   0  0  0  0  0  0  0  0  0  0  0  0
  2  1  1  6
  3  2  1  0
  4  2  1  0
  4  5  1  1
  6  4  1  0
  6  7  2  0
  8  6  1  0
  9  8  1  0
  9 10  1  6
 11 10  1  0
 12 11  1  0
 13 12  2  0
 14  9  1  0
 15 14  2  0
 16 12  1  0
 17 14  1  0
 18 17  1  0
 18 19  1  1
 20 28  1  0
 20 19  1  0
 21 20  2  0
 22 21  1  0
 22 23  1  0
 23 28  2  0
 24 23  1  0
 24 25  2  0
 25 26  1  0
 26 27  2  0
 28 27  1  0
 29 18  1  0
 30 29  2  0
 31 29  1  0
M  END
$$$$
