TEW.pdb
     RDKit          3D

 31 32  0  0  1  0  0  0  0  0999 V2000
    8.9413  -12.5964   19.7451 C   0  0  0  0  0  0  0  0  0  0  0  0
    8.1673  -13.4627   18.8073 C   0  0  1  0  0  0  0  0  0  0  0  0
    7.6030  -12.7083   17.7916 O   0  0  0  0  0  0  0  0  0  0  0  0
    8.9609  -14.5827   18.1976 C   0  0  2  0  0  0  0  0  0  0  0  0
    8.1593  -15.4691   17.3953 N   0  0  0  0  0  0  0  0  0  0  0  0
    9.6659  -15.3656   19.2617 C   0  0  0  0  0  0  0  0  0  0  0  0
    9.0456  -16.2073   19.9658 O   0  0  0  0  0  0  0  0  0  0  0  0
   11.0507  -15.2107   19.5378 N   0  0  0  0  0  0  0  0  0  0  0  0
   11.6560  -15.8076   20.7046 C   0  0  1  0  0  0  0  0  0  0  0  0
   13.1258  -15.5458   20.7419 C   0  0  0  0  0  0  0  0  0  0  0  0
   13.8191  -16.2165   21.8943 C   0  0  0  0  0  0  0  0  0  0  0  0
   15.2662  -15.8804   21.8150 C   0  0  0  0  0  0  0  0  0  0  0  0
   15.8596  -15.2076   22.6878 O   0  0  0  0  0  0  0  0  0  0  0  0
   11.0306  -15.3223   21.9608 C   0  0  0  0  0  0  0  0  0  0  0  0
   11.0552  -14.0890   22.1921 O   0  0  0  0  0  0  0  0  0  0  0  0
   16.0188  -16.3238   20.7273 O   0  0  0  0  0  0  0  0  0  0  0  0
   10.4120  -16.1825   22.9026 N   0  0  0  0  0  0  0  0  0  0  0  0
    9.7174  -15.6153   24.0867 C   0  0  1  0  0  0  0  0  0  0  0  0
    8.2830  -15.3815   23.7043 C   0  0  0  0  0  0  0  0  0  0  0  0
    7.3767  -14.9540   24.7639 C   0  0  0  0  0  0  0  0  0  0  0  0
    6.4238  -15.7572   25.3894 C   0  0  0  0  0  0  0  0  0  0  0  0
    5.7609  -15.0056   26.2876 N   0  0  0  0  0  0  0  0  0  0  0  0
    6.2126  -13.7585   26.2983 C   0  0  0  0  0  0  0  0  0  0  0  0
    5.8915  -12.6283   27.0256 C   0  0  0  0  0  0  0  0  0  0  0  0
    6.5431  -11.4336   26.8502 C   0  0  0  0  0  0  0  0  0  0  0  0
    7.5442  -11.3706   25.9199 C   0  0  0  0  0  0  0  0  0  0  0  0
    7.8658  -12.4916   25.1947 C   0  0  0  0  0  0  0  0  0  0  0  0
    7.2309  -13.7167   25.3417 C   0  0  0  0  0  0  0  0  0  0  0  0
    9.9204  -16.5690   25.1786 C   0  0  0  0  0  0  0  0  0  0  0  0
    9.7451  -16.3141   26.4059 O   0  0  0  0  0  0  0  0  0  0  0  0
   10.3421  -17.8933   24.9387 O   0  0  0  0  0  0  0  0  0  0  0  0
  2  1  1  6
  3  2  1  0
  4  2  1  0
  4  5  1  1
  6  4  1  0
  6  7  2  0
  8  6  1  0
  9  8  1  0
  9 10  1  1
 11 10  1  0
 12 11  1  0
 13 12  2  0
 14  9  1  0
 15 14  2  0
 16 12  1  0
 17 14  1  0
 18 17  1  0
 18 19  1  6
 20 28  1  0
 20 19  1  0
 21 20  2  0
 22 21  1  0
 22 23  1  0
 23 28  2  0
 24 23  1  0
 24 25  2  0
 25 26  1  0
 26 27  2  0
 28 27  1  0
 29 18  1  0
 30 29  2  0
 31 29  1  0
M  END
$$$$
