TEW.pdb
     RDKit          3D

 31 32  0  0  1  0  0  0  0  0999 V2000
    6.0927  -15.3260   19.7552 C   0  0  0  0  0  0  0  0  0  0  0  0
    7.3180  -15.9672   20.3179 C   0  0  1  0  0  0  0  0  0  0  0  0
    8.4614  -15.3431   19.8465 O   0  0  0  0  0  0  0  0  0  0  0  0
    7.3673  -16.0031   21.8185 C   0  0  2  0  0  0  0  0  0  0  0  0
    7.3636  -14.6924   22.4137 N   0  0  0  0  0  0  0  0  0  0  0  0
    8.5689  -16.7648   22.2857 C   0  0  0  0  0  0  0  0  0  0  0  0
    8.8305  -17.9090   21.8256 O   0  0  0  0  0  0  0  0  0  0  0  0
    9.4706  -16.2547   23.2576 N   0  0  0  0  0  0  0  0  0  0  0  0
   10.7399  -16.8929   23.5138 C   0  0  1  0  0  0  0  0  0  0  0  0
   11.6215  -16.8401   22.3095 C   0  0  0  0  0  0  0  0  0  0  0  0
   12.9604  -17.4877   22.5254 C   0  0  0  0  0  0  0  0  0  0  0  0
   13.6056  -17.6569   21.1955 C   0  0  0  0  0  0  0  0  0  0  0  0
   14.2114  -18.6990   20.8583 O   0  0  0  0  0  0  0  0  0  0  0  0
   11.4407  -16.2837   24.6724 C   0  0  0  0  0  0  0  0  0  0  0  0
   12.6697  -16.5043   24.7991 O   0  0  0  0  0  0  0  0  0  0  0  0
   13.5469  -16.6208   20.2633 O   0  0  0  0  0  0  0  0  0  0  0  0
   10.7892  -15.4706   25.6336 N   0  0  0  0  0  0  0  0  0  0  0  0
   10.1113  -16.0926   26.7998 C   0  0  1  0  0  0  0  0  0  0  0  0
    8.7621  -16.5695   26.3410 C   0  0  0  0  0  0  0  0  0  0  0  0
    7.7059  -15.5691   26.2389 C   0  0  0  0  0  0  0  0  0  0  0  0
    6.3663  -15.8300   25.9529 C   0  0  0  0  0  0  0  0  0  0  0  0
    5.7065  -14.6579   25.9115 N   0  0  0  0  0  0  0  0  0  0  0  0
    6.5207  -13.6386   26.1518 C   0  0  0  0  0  0  0  0  0  0  0  0
    6.3457  -12.2707   26.2370 C   0  0  0  0  0  0  0  0  0  0  0  0
    7.3793  -11.4155   26.5250 C   0  0  0  0  0  0  0  0  0  0  0  0
    8.6226  -11.9469   26.7334 C   0  0  0  0  0  0  0  0  0  0  0  0
    8.8007  -13.3060   26.6489 C   0  0  0  0  0  0  0  0  0  0  0  0
    7.7823  -14.2033   26.3595 C   0  0  0  0  0  0  0  0  0  0  0  0
   11.0082  -17.1431   27.2848 C   0  0  0  0  0  0  0  0  0  0  0  0
   11.6366  -17.1100   28.3829 O   0  0  0  0  0  0  0  0  0  0  0  0
   11.2499  -18.3155   26.5390 O   0  0  0  0  0  0  0  0  0  0  0  0
  2  1  1  1
  3  2  1  0
  4  2  1  0
  4  5  1  1
  6  4  1  0
  6  7  2  0
  8  6  1  0
  9  8  1  0
  9 10  1  6
 11 10  1  0
 12 11  1  0
 13 12  2  0
 14  9  1  0
 15 14  2  0
 16 12  1  0
 17 14  1  0
 18 17  1  0
 18 19  1  6
 20 28  1  0
 20 19  1  0
 21 20  2  0
 22 21  1  0
 22 23  1  0
 23 28  2  0
 24 23  1  0
 24 25  2  0
 25 26  1  0
 26 27  2  0
 28 27  1  0
 29 18  1  0
 30 29  2  0
 31 29  1  0
M  END
$$$$
