TEW.pdb
     RDKit          3D

 31 32  0  0  1  0  0  0  0  0999 V2000
    8.8352  -12.6506   20.7754 C   0  0  0  0  0  0  0  0  0  0  0  0
    7.8872  -13.1247   19.7239 C   0  0  1  0  0  0  0  0  0  0  0  0
    7.7814  -12.1963   18.7012 O   0  0  0  0  0  0  0  0  0  0  0  0
    8.2324  -14.4617   19.1331 C   0  0  2  0  0  0  0  0  0  0  0  0
    7.2969  -14.8912   18.1269 N   0  0  0  0  0  0  0  0  0  0  0  0
    8.3289  -15.5005   20.2073 C   0  0  0  0  0  0  0  0  0  0  0  0
    7.2964  -16.0700   20.6532 O   0  0  0  0  0  0  0  0  0  0  0  0
    9.5663  -15.9003   20.7790 N   0  0  0  0  0  0  0  0  0  0  0  0
    9.6312  -16.9373   21.7813 C   0  0  1  0  0  0  0  0  0  0  0  0
   10.5983  -18.0053   21.3887 C   0  0  0  0  0  0  0  0  0  0  0  0
   11.9296  -17.4668   20.9455 C   0  0  0  0  0  0  0  0  0  0  0  0
   12.7713  -18.6192   20.5246 C   0  0  0  0  0  0  0  0  0  0  0  0
   12.4112  -19.4468   19.6574 O   0  0  0  0  0  0  0  0  0  0  0  0
    9.9998  -16.3955   23.1137 C   0  0  0  0  0  0  0  0  0  0  0  0
   10.7613  -15.3986   23.1535 O   0  0  0  0  0  0  0  0  0  0  0  0
   14.0240  -18.8083   21.1086 O   0  0  0  0  0  0  0  0  0  0  0  0
    9.5338  -16.9492   24.3327 N   0  0  0  0  0  0  0  0  0  0  0  0
   10.0010  -16.3959   25.6296 C   0  0  1  0  0  0  0  0  0  0  0  0
    8.8179  -16.3432   26.5547 C   0  0  0  0  0  0  0  0  0  0  0  0
    7.7287  -15.4463   26.1859 C   0  0  0  0  0  0  0  0  0  0  0  0
    6.4935  -15.8389   25.6715 C   0  0  0  0  0  0  0  0  0  0  0  0
    5.7672  -14.7331   25.4249 N   0  0  0  0  0  0  0  0  0  0  0  0
    6.4398  -13.6349   25.7427 C   0  0  0  0  0  0  0  0  0  0  0  0
    6.1484  -12.2850   25.6979 C   0  0  0  0  0  0  0  0  0  0  0  0
    7.0388  -11.3281   26.1152 C   0  0  0  0  0  0  0  0  0  0  0  0
    8.2550  -11.7363   26.5907 C   0  0  0  0  0  0  0  0  0  0  0  0
    8.5486  -13.0771   26.6362 C   0  0  0  0  0  0  0  0  0  0  0  0
    7.6765  -14.0746   26.2233 C   0  0  0  0  0  0  0  0  0  0  0  0
   11.0974  -17.2583   26.0737 C   0  0  0  0  0  0  0  0  0  0  0  0
   11.4494  -18.3337   25.5066 O   0  0  0  0  0  0  0  0  0  0  0  0
   11.8742  -16.9462   27.2088 O   0  0  0  0  0  0  0  0  0  0  0  0
  2  1  1  1
  3  2  1  0
  4  2  1  0
  4  5  1  6
  6  4  1  0
  6  7  2  0
  8  6  1  0
  9  8  1  0
  9 10  1  6
 11 10  1  0
 12 11  1  0
 13 12  2  0
 14  9  1  0
 15 14  2  0
 16 12  1  0
 17 14  1  0
 18 17  1  0
 18 19  1  1
 20 28  1  0
 20 19  1  0
 21 20  2  0
 22 21  1  0
 22 23  1  0
 23 28  2  0
 24 23  1  0
 24 25  2  0
 25 26  1  0
 26 27  2  0
 28 27  1  0
 29 18  1  0
 30 29  2  0
 31 29  1  0
M  END
$$$$
