TEW.pdb
     RDKit          3D

 31 32  0  0  1  0  0  0  0  0999 V2000
    7.4269  -12.9908   18.7596 C   0  0  0  0  0  0  0  0  0  0  0  0
    8.1844  -13.9054   19.6645 C   0  0  1  0  0  0  0  0  0  0  0  0
    7.6331  -13.9091   20.9354 O   0  0  0  0  0  0  0  0  0  0  0  0
    8.2853  -15.3214   19.1742 C   0  0  2  0  0  0  0  0  0  0  0  0
    7.0046  -15.9065   18.8753 N   0  0  0  0  0  0  0  0  0  0  0  0
    9.0067  -16.1722   20.1733 C   0  0  0  0  0  0  0  0  0  0  0  0
    8.3719  -16.8918   20.9908 O   0  0  0  0  0  0  0  0  0  0  0  0
   10.4239  -16.2194   20.2598 N   0  0  0  0  0  0  0  0  0  0  0  0
   11.0886  -16.9263   21.3287 C   0  0  1  0  0  0  0  0  0  0  0  0
   12.5290  -17.1556   21.0079 C   0  0  0  0  0  0  0  0  0  0  0  0
   13.2425  -17.9828   22.0401 C   0  0  0  0  0  0  0  0  0  0  0  0
   14.6509  -18.1559   21.5929 C   0  0  0  0  0  0  0  0  0  0  0  0
   14.9814  -18.2192   20.3873 O   0  0  0  0  0  0  0  0  0  0  0  0
   10.9739  -16.2064   22.6223 C   0  0  0  0  0  0  0  0  0  0  0  0
   11.1534  -14.9643   22.6224 O   0  0  0  0  0  0  0  0  0  0  0  0
   15.6688  -18.2550   22.5416 O   0  0  0  0  0  0  0  0  0  0  0  0
   10.6730  -16.8541   23.8468 N   0  0  0  0  0  0  0  0  0  0  0  0
    9.8629  -16.1579   24.8790 C   0  0  1  0  0  0  0  0  0  0  0  0
    8.5653  -15.7495   24.2403 C   0  0  0  0  0  0  0  0  0  0  0  0
    7.5900  -15.0793   25.0926 C   0  0  0  0  0  0  0  0  0  0  0  0
    6.4294  -15.6567   25.6066 C   0  0  0  0  0  0  0  0  0  0  0  0
    5.7709  -14.7224   26.3168 N   0  0  0  0  0  0  0  0  0  0  0  0
    6.4192  -13.5652   26.3073 C   0  0  0  0  0  0  0  0  0  0  0  0
    6.1838  -12.3293   26.8786 C   0  0  0  0  0  0  0  0  0  0  0  0
    7.0469  -11.2738   26.7246 C   0  0  0  0  0  0  0  0  0  0  0  0
    8.1771  -11.4630   25.9773 C   0  0  0  0  0  0  0  0  0  0  0  0
    8.4141  -12.6898   25.4073 C   0  0  0  0  0  0  0  0  0  0  0  0
    7.5666  -13.7808   25.5387 C   0  0  0  0  0  0  0  0  0  0  0  0
    9.7355  -17.0906   26.0001 C   0  0  0  0  0  0  0  0  0  0  0  0
    9.3124  -16.7849   27.1531 O   0  0  0  0  0  0  0  0  0  0  0  0
   10.0871  -18.4509   25.8776 O   0  0  0  0  0  0  0  0  0  0  0  0
  2  1  1  6
  3  2  1  0
  4  2  1  0
  4  5  1  1
  6  4  1  0
  6  7  2  0
  8  6  1  0
  9  8  1  0
  9 10  1  6
 11 10  1  0
 12 11  1  0
 13 12  2  0
 14  9  1  0
 15 14  2  0
 16 12  1  0
 17 14  1  0
 18 17  1  0
 18 19  1  6
 20 28  1  0
 20 19  1  0
 21 20  2  0
 22 21  1  0
 22 23  1  0
 23 28  2  0
 24 23  1  0
 24 25  2  0
 25 26  1  0
 26 27  2  0
 28 27  1  0
 29 18  1  0
 30 29  2  0
 31 29  1  0
M  END
$$$$
