TEW.pdb
     RDKit          3D

 31 32  0  0  1  0  0  0  0  0999 V2000
    9.2915  -12.7946   20.1873 C   0  0  0  0  0  0  0  0  0  0  0  0
    8.0337  -13.3603   19.6153 C   0  0  1  0  0  0  0  0  0  0  0  0
    7.5831  -12.5886   18.5567 O   0  0  0  0  0  0  0  0  0  0  0  0
    8.1437  -14.7884   19.1637 C   0  0  2  0  0  0  0  0  0  0  0  0
    6.9103  -15.3083   18.6341 N   0  0  0  0  0  0  0  0  0  0  0  0
    8.6158  -15.6588   20.2870 C   0  0  0  0  0  0  0  0  0  0  0  0
    7.8196  -16.0509   21.1822 O   0  0  0  0  0  0  0  0  0  0  0  0
    9.9644  -16.0878   20.4106 N   0  0  0  0  0  0  0  0  0  0  0  0
   10.3703  -17.0011   21.4523 C   0  0  1  0  0  0  0  0  0  0  0  0
   11.5824  -17.7741   21.0481 C   0  0  0  0  0  0  0  0  0  0  0  0
   11.3708  -18.6081   19.8159 C   0  0  0  0  0  0  0  0  0  0  0  0
   11.9856  -19.9416   20.0558 C   0  0  0  0  0  0  0  0  0  0  0  0
   12.7725  -20.1702   21.0019 O   0  0  0  0  0  0  0  0  0  0  0  0
   10.6315  -16.2972   22.7333 C   0  0  0  0  0  0  0  0  0  0  0  0
   11.4125  -15.3149   22.7163 O   0  0  0  0  0  0  0  0  0  0  0  0
   11.6873  -21.0027   19.2008 O   0  0  0  0  0  0  0  0  0  0  0  0
   10.0430  -16.6817   23.9643 N   0  0  0  0  0  0  0  0  0  0  0  0
   10.4645  -16.0266   25.2290 C   0  0  1  0  0  0  0  0  0  0  0  0
    9.8696  -14.6467   25.2472 C   0  0  0  0  0  0  0  0  0  0  0  0
    8.4392  -14.5459   25.5134 C   0  0  0  0  0  0  0  0  0  0  0  0
    7.5327  -15.6051   25.4875 C   0  0  0  0  0  0  0  0  0  0  0  0
    6.3060  -15.1185   25.7514 N   0  0  0  0  0  0  0  0  0  0  0  0
    6.3410  -13.8076   25.9508 C   0  0  0  0  0  0  0  0  0  0  0  0
    5.3856  -12.8587   26.2604 C   0  0  0  0  0  0  0  0  0  0  0  0
    5.6973  -11.5340   26.4362 C   0  0  0  0  0  0  0  0  0  0  0  0
    7.0032  -11.1506   26.2977 C   0  0  0  0  0  0  0  0  0  0  0  0
    7.9557  -12.0907   25.9894 C   0  0  0  0  0  0  0  0  0  0  0  0
    7.6810  -13.4382   25.8031 C   0  0  0  0  0  0  0  0  0  0  0  0
   10.0249  -16.9056   26.3140 C   0  0  0  0  0  0  0  0  0  0  0  0
   10.1579  -16.6568   27.5477 O   0  0  0  0  0  0  0  0  0  0  0  0
    9.3964  -18.1422   26.0590 O   0  0  0  0  0  0  0  0  0  0  0  0
  2  1  1  6
  3  2  1  0
  4  2  1  0
  4  5  1  1
  6  4  1  0
  6  7  2  0
  8  6  1  0
  9  8  1  0
  9 10  1  6
 11 10  1  0
 12 11  1  0
 13 12  2  0
 14  9  1  0
 15 14  2  0
 16 12  1  0
 17 14  1  0
 18 17  1  0
 18 19  1  1
 20 28  1  0
 20 19  1  0
 21 20  2  0
 22 21  1  0
 22 23  1  0
 23 28  2  0
 24 23  1  0
 24 25  2  0
 25 26  1  0
 26 27  2  0
 28 27  1  0
 29 18  1  0
 30 29  2  0
 31 29  1  0
M  END
$$$$
