TEW.pdb
     RDKit          3D

 31 32  0  0  1  0  0  0  0  0999 V2000
    7.4181  -12.5450   19.8634 C   0  0  0  0  0  0  0  0  0  0  0  0
    8.0405  -13.5416   20.7846 C   0  0  1  0  0  0  0  0  0  0  0  0
    7.6577  -13.3075   22.0952 O   0  0  0  0  0  0  0  0  0  0  0  0
    7.7468  -14.9738   20.4408 C   0  0  2  0  0  0  0  0  0  0  0  0
    6.3382  -15.2490   20.3300 N   0  0  0  0  0  0  0  0  0  0  0  0
    8.3613  -15.8924   21.4512 C   0  0  0  0  0  0  0  0  0  0  0  0
    7.6453  -16.5171   22.2797 O   0  0  0  0  0  0  0  0  0  0  0  0
    9.7621  -16.1119   21.5367 N   0  0  0  0  0  0  0  0  0  0  0  0
   10.3235  -17.0131   22.5149 C   0  0  1  0  0  0  0  0  0  0  0  0
   11.7052  -17.4305   22.1315 C   0  0  0  0  0  0  0  0  0  0  0  0
   12.2758  -18.4910   23.0307 C   0  0  0  0  0  0  0  0  0  0  0  0
   13.6683  -18.7667   22.5852 C   0  0  0  0  0  0  0  0  0  0  0  0
   14.6403  -18.8127   23.3724 O   0  0  0  0  0  0  0  0  0  0  0  0
   10.3423  -16.4126   23.8728 C   0  0  0  0  0  0  0  0  0  0  0  0
   10.7324  -15.2250   23.9856 O   0  0  0  0  0  0  0  0  0  0  0  0
   13.9290  -18.9875   21.2327 O   0  0  0  0  0  0  0  0  0  0  0  0
    9.9423  -17.1147   25.0375 N   0  0  0  0  0  0  0  0  0  0  0  0
   10.0582  -16.4724   26.3718 C   0  0  1  0  0  0  0  0  0  0  0  0
    8.6949  -16.4866   27.0039 C   0  0  0  0  0  0  0  0  0  0  0  0
    7.6873  -15.6059   26.4242 C   0  0  0  0  0  0  0  0  0  0  0  0
    6.5795  -16.0173   25.6840 C   0  0  0  0  0  0  0  0  0  0  0  0
    5.9020  -14.9224   25.2926 N   0  0  0  0  0  0  0  0  0  0  0  0
    6.4878  -13.8138   25.7254 C   0  0  0  0  0  0  0  0  0  0  0  0
    6.1950  -12.4680   25.6141 C   0  0  0  0  0  0  0  0  0  0  0  0
    6.9769  -11.4973   26.1878 C   0  0  0  0  0  0  0  0  0  0  0  0
    8.0827  -11.8871   26.8927 C   0  0  0  0  0  0  0  0  0  0  0  0
    8.3774  -13.2238   27.0051 C   0  0  0  0  0  0  0  0  0  0  0  0
    7.6132  -14.2347   26.4396 C   0  0  0  0  0  0  0  0  0  0  0  0
   11.0867  -17.2182   27.0993 C   0  0  0  0  0  0  0  0  0  0  0  0
   11.6592  -18.2646   26.6763 O   0  0  0  0  0  0  0  0  0  0  0  0
   11.5352  -16.8134   28.3738 O   0  0  0  0  0  0  0  0  0  0  0  0
  2  1  1  6
  3  2  1  0
  4  2  1  0
  4  5  1  1
  6  4  1  0
  6  7  2  0
  8  6  1  0
  9  8  1  0
  9 10  1  6
 11 10  1  0
 12 11  1  0
 13 12  2  0
 14  9  1  0
 15 14  2  0
 16 12  1  0
 17 14  1  0
 18 17  1  0
 18 19  1  1
 20 28  1  0
 20 19  1  0
 21 20  2  0
 22 21  1  0
 22 23  1  0
 23 28  2  0
 24 23  1  0
 24 25  2  0
 25 26  1  0
 26 27  2  0
 28 27  1  0
 29 18  1  0
 30 29  2  0
 31 29  1  0
M  END
$$$$
