TEW.pdb
     RDKit          3D

 31 32  0  0  1  0  0  0  0  0999 V2000
    6.3914  -13.6583   20.5190 C   0  0  0  0  0  0  0  0  0  0  0  0
    7.3233  -14.4176   21.4045 C   0  0  1  0  0  0  0  0  0  0  0  0
    6.8304  -14.4836   22.6975 O   0  0  0  0  0  0  0  0  0  0  0  0
    7.6351  -15.8085   20.9315 C   0  0  2  0  0  0  0  0  0  0  0  0
    6.4567  -16.6021   20.6999 N   0  0  0  0  0  0  0  0  0  0  0  0
    8.5285  -16.5071   21.9093 C   0  0  0  0  0  0  0  0  0  0  0  0
    8.0801  -17.4086   22.6680 O   0  0  0  0  0  0  0  0  0  0  0  0
    9.9099  -16.2026   22.0398 N   0  0  0  0  0  0  0  0  0  0  0  0
   10.7357  -16.8629   23.0227 C   0  0  1  0  0  0  0  0  0  0  0  0
   12.1737  -16.8390   22.6209 C   0  0  0  0  0  0  0  0  0  0  0  0
   13.0653  -17.6009   23.5607 C   0  0  0  0  0  0  0  0  0  0  0  0
   14.4678  -17.4398   23.0911 C   0  0  0  0  0  0  0  0  0  0  0  0
   15.4614  -17.7060   23.8043 O   0  0  0  0  0  0  0  0  0  0  0  0
   10.5837  -16.2562   24.3694 C   0  0  0  0  0  0  0  0  0  0  0  0
   10.8506  -15.0367   24.4989 O   0  0  0  0  0  0  0  0  0  0  0  0
   14.7137  -16.9719   21.8001 O   0  0  0  0  0  0  0  0  0  0  0  0
   10.1539  -16.9866   25.5058 N   0  0  0  0  0  0  0  0  0  0  0  0
   10.2338  -16.3770   26.8579 C   0  0  1  0  0  0  0  0  0  0  0  0
    8.8466  -16.3671   27.4356 C   0  0  0  0  0  0  0  0  0  0  0  0
    7.8183  -15.6648   26.6763 C   0  0  0  0  0  0  0  0  0  0  0  0
    6.8636  -16.2649   25.8561 C   0  0  0  0  0  0  0  0  0  0  0  0
    6.1128  -15.2954   25.3015 N   0  0  0  0  0  0  0  0  0  0  0  0
    6.5073  -14.0936   25.7010 C   0  0  0  0  0  0  0  0  0  0  0  0
    6.0726  -12.8072   25.4448 C   0  0  0  0  0  0  0  0  0  0  0  0
    6.6598  -11.7070   26.0170 C   0  0  0  0  0  0  0  0  0  0  0  0
    7.7118  -11.9023   26.8696 C   0  0  0  0  0  0  0  0  0  0  0  0
    8.1471  -13.1793   27.1262 C   0  0  0  0  0  0  0  0  0  0  0  0
    7.5811  -14.3166   26.5676 C   0  0  0  0  0  0  0  0  0  0  0  0
   11.2121  -17.1665   27.6080 C   0  0  0  0  0  0  0  0  0  0  0  0
   11.5492  -16.9524   28.8089 O   0  0  0  0  0  0  0  0  0  0  0  0
   11.8786  -18.2667   27.0293 O   0  0  0  0  0  0  0  0  0  0  0  0
  2  1  1  6
  3  2  1  0
  4  2  1  0
  4  5  1  1
  6  4  1  0
  6  7  2  0
  8  6  1  0
  9  8  1  0
  9 10  1  6
 11 10  1  0
 12 11  1  0
 13 12  2  0
 14  9  1  0
 15 14  2  0
 16 12  1  0
 17 14  1  0
 18 17  1  0
 18 19  1  1
 20 28  1  0
 20 19  1  0
 21 20  2  0
 22 21  1  0
 22 23  1  0
 23 28  2  0
 24 23  1  0
 24 25  2  0
 25 26  1  0
 26 27  2  0
 28 27  1  0
 29 18  1  0
 30 29  2  0
 31 29  1  0
M  END
$$$$
