TEW.pdb
     RDKit          3D

 31 32  0  0  1  0  0  0  0  0999 V2000
    9.1476  -12.5982   20.8290 C   0  0  0  0  0  0  0  0  0  0  0  0
    7.9398  -13.0893   20.1017 C   0  0  1  0  0  0  0  0  0  0  0  0
    7.5465  -12.1827   19.1310 O   0  0  0  0  0  0  0  0  0  0  0  0
    8.1033  -14.4407   19.4671 C   0  0  2  0  0  0  0  0  0  0  0  0
    6.9267  -14.8780   18.7623 N   0  0  0  0  0  0  0  0  0  0  0  0
    8.4823  -15.4608   20.4958 C   0  0  0  0  0  0  0  0  0  0  0  0
    7.6007  -16.1094   21.1213 O   0  0  0  0  0  0  0  0  0  0  0  0
    9.8329  -15.7545   20.8237 N   0  0  0  0  0  0  0  0  0  0  0  0
   10.1687  -16.7999   21.7610 C   0  0  1  0  0  0  0  0  0  0  0  0
   11.4421  -17.4785   21.3766 C   0  0  0  0  0  0  0  0  0  0  0  0
   11.4044  -18.0741   19.9972 C   0  0  0  0  0  0  0  0  0  0  0  0
   12.7470  -18.6473   19.7104 C   0  0  0  0  0  0  0  0  0  0  0  0
   13.4651  -19.1765   20.5884 O   0  0  0  0  0  0  0  0  0  0  0  0
   10.2776  -16.2834   23.1489 C   0  0  0  0  0  0  0  0  0  0  0  0
   10.8335  -15.1715   23.3210 O   0  0  0  0  0  0  0  0  0  0  0  0
   13.2516  -18.6054   18.4105 O   0  0  0  0  0  0  0  0  0  0  0  0
    9.7856  -16.9843   24.2786 N   0  0  0  0  0  0  0  0  0  0  0  0
    9.9426  -16.4093   25.6391 C   0  0  1  0  0  0  0  0  0  0  0  0
    8.6393  -16.5933   26.3644 C   0  0  0  0  0  0  0  0  0  0  0  0
    7.5406  -15.7125   25.9852 C   0  0  0  0  0  0  0  0  0  0  0  0
    6.3653  -16.1095   25.3484 C   0  0  0  0  0  0  0  0  0  0  0  0
    5.6099  -15.0165   25.1349 N   0  0  0  0  0  0  0  0  0  0  0  0
    6.2072  -13.9226   25.5889 C   0  0  0  0  0  0  0  0  0  0  0  0
    5.8591  -12.5860   25.6286 C   0  0  0  0  0  0  0  0  0  0  0  0
    6.6726  -11.6325   26.1870 C   0  0  0  0  0  0  0  0  0  0  0  0
    7.8679  -12.0304   26.7204 C   0  0  0  0  0  0  0  0  0  0  0  0
    8.2176  -13.3580   26.6824 C   0  0  0  0  0  0  0  0  0  0  0  0
    7.4240  -14.3515   26.1266 C   0  0  0  0  0  0  0  0  0  0  0  0
   11.0896  -17.0892   26.2432 C   0  0  0  0  0  0  0  0  0  0  0  0
   11.5946  -18.1712   25.8237 O   0  0  0  0  0  0  0  0  0  0  0  0
   11.7444  -16.5723   27.3805 O   0  0  0  0  0  0  0  0  0  0  0  0
  2  1  1  6
  3  2  1  0
  4  2  1  0
  4  5  1  1
  6  4  1  0
  6  7  2  0
  8  6  1  0
  9  8  1  0
  9 10  1  6
 11 10  1  0
 12 11  1  0
 13 12  2  0
 14  9  1  0
 15 14  2  0
 16 12  1  0
 17 14  1  0
 18 17  1  0
 18 19  1  1
 20 28  1  0
 20 19  1  0
 21 20  2  0
 22 21  1  0
 22 23  1  0
 23 28  2  0
 24 23  1  0
 24 25  2  0
 25 26  1  0
 26 27  2  0
 28 27  1  0
 29 18  1  0
 30 29  2  0
 31 29  1  0
M  END
$$$$
