HFL.pdb
     RDKit          3D

 30 31  0  0  1  0  0  0  0  0999 V2000
   27.6599  -21.7943  -17.5507 N   0  0  0  0  0  0  0  0  0  0  0  0
   26.9186  -20.7704  -16.8852 C   0  0  1  0  0  0  0  0  0  0  0  0
   25.7623  -20.2622  -17.7460 C   0  0  0  0  0  0  0  0  0  0  0  0
   26.3731  -19.3223  -18.7319 C   0  0  0  0  0  0  0  0  0  0  0  0
   27.5731  -18.6433  -18.6485 C   0  0  0  0  0  0  0  0  0  0  0  0
   27.7773  -17.8837  -19.7485 N   0  0  0  0  0  0  0  0  0  0  0  0
   26.7012  -18.0862  -20.5264 C   0  0  0  0  0  0  0  0  0  0  0  0
   25.8512  -18.9431  -19.9352 N   0  0  0  0  0  0  0  0  0  0  0  0
   26.4349  -21.2732  -15.5823 C   0  0  0  0  0  0  0  0  0  0  0  0
   25.9146  -22.4120  -15.5141 O   0  0  0  0  0  0  0  0  0  0  0  0
   26.5660  -20.4612  -14.4282 N   0  0  0  0  0  0  0  0  0  0  0  0
   25.9958  -20.8505  -13.1272 C   0  0  1  0  0  0  0  0  0  0  0  0
   26.7633  -20.0907  -12.1020 C   0  0  0  0  0  0  0  0  0  0  0  0
   26.3697  -20.2868  -10.7109 C   0  0  0  0  0  0  0  0  0  0  0  0
   25.8070  -19.2335  -10.0134 C   0  0  0  0  0  0  0  0  0  0  0  0
   25.4080  -19.3739   -8.6794 C   0  0  0  0  0  0  0  0  0  0  0  0
   25.5639  -20.5620   -8.0239 C   0  0  0  0  0  0  0  0  0  0  0  0
   26.1233  -21.6104   -8.7150 C   0  0  0  0  0  0  0  0  0  0  0  0
   26.5109  -21.4678  -10.0174 C   0  0  0  0  0  0  0  0  0  0  0  0
   24.5773  -20.4384  -13.0841 C   0  0  0  0  0  0  0  0  0  0  0  0
   24.2517  -19.2898  -13.4712 O   0  0  0  0  0  0  0  0  0  0  0  0
   20.9463  -20.4448  -15.2650 C   0  0  0  0  0  0  0  0  0  0  0  0
   20.3373  -21.2802  -14.1621 C   0  0  1  0  0  0  0  0  0  0  0  0
   19.5924  -22.4282  -14.8573 C   0  0  0  0  0  0  0  0  0  0  0  0
   21.3640  -21.9123  -13.2834 C   0  0  0  0  0  0  0  0  0  0  0  0
   22.1815  -20.9330  -12.4847 C   0  0  2  0  0  0  0  0  0  0  0  0
   23.5877  -21.3377  -12.6071 N   0  0  0  0  0  0  0  0  0  0  0  0
   21.7761  -20.8523  -11.0781 C   0  0  0  0  0  0  0  0  0  0  0  0
   22.3376  -21.5593  -10.2058 O   0  0  0  0  0  0  0  0  0  0  0  0
   20.7662  -19.9965  -10.6758 O   0  0  0  0  0  0  0  0  0  0  0  0
  2  3  1  0
  2  1  1  6
  3  4  1  0
  4  5  2  0
  5  6  1  0
  7  6  1  0
  8  4  1  0
  8  7  2  0
  9 11  1  0
  9  2  1  0
 10  9  2  0
 12 11  1  0
 12 13  1  1
 13 14  1  0
 14 15  2  0
 14 19  1  0
 15 16  1  0
 16 17  2  0
 18 17  1  0
 19 18  2  0
 20 12  1  0
 21 20  2  0
 23 22  1  6
 23 25  1  0
 24 23  1  0
 26 25  1  6
 26 28  1  0
 26 27  1  0
 27 20  1  0
 28 30  1  0
 29 28  2  0
M  END
$$$$
