HFL.pdb
     RDKit          3D

 30 31  0  0  1  0  0  0  0  0999 V2000
   17.9178  -11.6302  -15.2827 N   0  0  0  0  0  0  0  0  0  0  0  0
   17.4241  -10.3055  -15.0771 C   0  0  1  0  0  0  0  0  0  0  0  0
   15.9472  -10.1901  -15.4535 C   0  0  0  0  0  0  0  0  0  0  0  0
   15.9179  -10.0333  -16.9378 C   0  0  0  0  0  0  0  0  0  0  0  0
   16.8685   -9.4678  -17.7651 C   0  0  0  0  0  0  0  0  0  0  0  0
   16.4743   -9.5134  -19.0579 N   0  0  0  0  0  0  0  0  0  0  0  0
   15.2710  -10.1099  -19.0429 C   0  0  0  0  0  0  0  0  0  0  0  0
   14.9221  -10.4277  -17.7845 N   0  0  0  0  0  0  0  0  0  0  0  0
   17.6516   -9.9019  -13.6736 C   0  0  0  0  0  0  0  0  0  0  0  0
   17.5323  -10.7516  -12.7593 O   0  0  0  0  0  0  0  0  0  0  0  0
   18.0014   -8.5601  -13.3809 N   0  0  0  0  0  0  0  0  0  0  0  0
   18.3795   -8.1267  -12.0250 C   0  0  1  0  0  0  0  0  0  0  0  0
   19.6375   -7.3458  -12.1826 C   0  0  0  0  0  0  0  0  0  0  0  0
   20.8588   -8.1107  -12.4107 C   0  0  0  0  0  0  0  0  0  0  0  0
   21.4455   -8.7780  -11.3510 C   0  0  0  0  0  0  0  0  0  0  0  0
   22.6139   -9.5294  -11.5207 C   0  0  0  0  0  0  0  0  0  0  0  0
   23.2120   -9.6257  -12.7448 C   0  0  0  0  0  0  0  0  0  0  0  0
   22.6309   -8.9630  -13.7997 C   0  0  0  0  0  0  0  0  0  0  0  0
   21.4900   -8.2309  -13.6283 C   0  0  0  0  0  0  0  0  0  0  0  0
   17.3189   -7.2470  -11.4909 C   0  0  0  0  0  0  0  0  0  0  0  0
   16.8294   -6.3504  -12.2200 O   0  0  0  0  0  0  0  0  0  0  0  0
   12.9338   -7.6765   -7.2569 C   0  0  0  0  0  0  0  0  0  0  0  0
   13.8282   -6.7369   -8.0331 C   0  0  1  0  0  0  0  0  0  0  0  0
   14.4090   -5.7544   -7.0068 C   0  0  0  0  0  0  0  0  0  0  0  0
   14.9906   -7.4321   -8.6587 C   0  0  0  0  0  0  0  0  0  0  0  0
   15.7830   -6.5769   -9.6106 C   0  0  2  0  0  0  0  0  0  0  0  0
   16.8561   -7.4155  -10.1593 N   0  0  0  0  0  0  0  0  0  0  0  0
   16.3260   -5.3666   -8.9863 C   0  0  0  0  0  0  0  0  0  0  0  0
   15.6932   -4.2831   -9.0272 O   0  0  0  0  0  0  0  0  0  0  0  0
   17.5475   -5.3867   -8.3371 O   0  0  0  0  0  0  0  0  0  0  0  0
  2  3  1  0
  2  1  1  1
  3  4  1  0
  4  5  2  0
  5  6  1  0
  7  6  1  0
  8  4  1  0
  8  7  2  0
  9 11  1  0
  9  2  1  0
 10  9  2  0
 12 11  1  0
 12 13  1  6
 13 14  1  0
 14 15  2  0
 14 19  1  0
 15 16  1  0
 16 17  2  0
 18 17  1  0
 19 18  2  0
 20 12  1  0
 21 20  2  0
 23 22  1  1
 23 25  1  0
 24 23  1  0
 26 25  1  1
 26 28  1  0
 26 27  1  0
 27 20  1  0
 28 30  1  0
 29 28  2  0
M  END
$$$$
