HFL.pdb
     RDKit          3D

 30 31  0  0  1  0  0  0  0  0999 V2000
   28.3887  -22.2528  -16.9446 N   0  0  0  0  0  0  0  0  0  0  0  0
   27.5201  -21.1904  -16.5476 C   0  0  1  0  0  0  0  0  0  0  0  0
   26.4599  -20.9028  -17.6104 C   0  0  0  0  0  0  0  0  0  0  0  0
   27.0646  -19.8872  -18.5222 C   0  0  0  0  0  0  0  0  0  0  0  0
   27.7467  -18.7312  -18.1958 C   0  0  0  0  0  0  0  0  0  0  0  0
   28.1418  -18.0716  -19.3083 N   0  0  0  0  0  0  0  0  0  0  0  0
   27.7062  -18.8160  -20.3379 C   0  0  0  0  0  0  0  0  0  0  0  0
   27.0602  -19.9051  -19.8874 N   0  0  0  0  0  0  0  0  0  0  0  0
   26.8989  -21.5153  -15.2464 C   0  0  0  0  0  0  0  0  0  0  0  0
   26.1804  -22.5376  -15.1429 O   0  0  0  0  0  0  0  0  0  0  0  0
   27.1242  -20.6668  -14.1339 N   0  0  0  0  0  0  0  0  0  0  0  0
   26.4886  -20.9033  -12.8265 C   0  0  1  0  0  0  0  0  0  0  0  0
   27.2459  -20.0737  -11.8489 C   0  0  0  0  0  0  0  0  0  0  0  0
   26.7320  -20.0375  -10.4840 C   0  0  0  0  0  0  0  0  0  0  0  0
   27.1144  -21.0226   -9.5920 C   0  0  0  0  0  0  0  0  0  0  0  0
   26.6530  -21.0276   -8.2708 C   0  0  0  0  0  0  0  0  0  0  0  0
   25.8066  -20.0544   -7.8217 C   0  0  0  0  0  0  0  0  0  0  0  0
   25.4247  -19.0741   -8.7065 C   0  0  0  0  0  0  0  0  0  0  0  0
   25.8784  -19.0739   -9.9954 C   0  0  0  0  0  0  0  0  0  0  0  0
   25.0874  -20.4373  -12.8847 C   0  0  0  0  0  0  0  0  0  0  0  0
   24.8351  -19.2751  -13.2856 O   0  0  0  0  0  0  0  0  0  0  0  0
   21.3280  -22.5454  -15.6000 C   0  0  0  0  0  0  0  0  0  0  0  0
   22.1485  -21.6077  -14.7440 C   0  0  1  0  0  0  0  0  0  0  0  0
   21.7668  -20.1864  -15.1803 C   0  0  0  0  0  0  0  0  0  0  0  0
   21.8144  -21.7095  -13.2935 C   0  0  0  0  0  0  0  0  0  0  0  0
   22.6454  -20.8242  -12.4042 C   0  0  2  0  0  0  0  0  0  0  0  0
   24.0319  -21.3003  -12.4888 N   0  0  0  0  0  0  0  0  0  0  0  0
   22.1799  -20.7996  -11.0143 C   0  0  0  0  0  0  0  0  0  0  0  0
   21.1713  -20.1278  -10.6861 O   0  0  0  0  0  0  0  0  0  0  0  0
   22.8384  -21.5144  -10.0297 O   0  0  0  0  0  0  0  0  0  0  0  0
  2  3  1  0
  2  1  1  6
  3  4  1  0
  4  5  2  0
  5  6  1  0
  7  6  1  0
  8  4  1  0
  8  7  2  0
  9 11  1  0
  9  2  1  0
 10  9  2  0
 12 11  1  0
 12 13  1  1
 13 14  1  0
 14 15  2  0
 14 19  1  0
 15 16  1  0
 16 17  2  0
 18 17  1  0
 19 18  2  0
 20 12  1  0
 21 20  2  0
 23 22  1  6
 23 25  1  0
 24 23  1  0
 26 25  1  6
 26 28  1  0
 26 27  1  0
 27 20  1  0
 28 30  1  0
 29 28  2  0
M  END
$$$$
