HFL.pdb
     RDKit          3D

 30 31  0  0  1  0  0  0  0  0999 V2000
   21.5963  -13.9776  -20.4427 N   0  0  0  0  0  0  0  0  0  0  0  0
   20.7659  -13.2979  -19.4996 C   0  0  1  0  0  0  0  0  0  0  0  0
   20.6320  -14.0856  -18.1967 C   0  0  0  0  0  0  0  0  0  0  0  0
   19.8393  -15.3035  -18.5386 C   0  0  0  0  0  0  0  0  0  0  0  0
   19.3199  -15.6803  -19.7618 C   0  0  0  0  0  0  0  0  0  0  0  0
   18.6589  -16.8562  -19.6659 N   0  0  0  0  0  0  0  0  0  0  0  0
   18.7633  -17.2198  -18.3771 C   0  0  0  0  0  0  0  0  0  0  0  0
   19.4654  -16.3040  -17.6881 N   0  0  0  0  0  0  0  0  0  0  0  0
   21.3002  -11.9421  -19.2526 C   0  0  0  0  0  0  0  0  0  0  0  0
   22.5407  -11.7605  -19.2353 O   0  0  0  0  0  0  0  0  0  0  0  0
   20.4028  -10.8663  -19.0388 N   0  0  0  0  0  0  0  0  0  0  0  0
   20.8687   -9.4801  -18.8632 C   0  0  1  0  0  0  0  0  0  0  0  0
   20.0382   -8.6516  -19.7802 C   0  0  0  0  0  0  0  0  0  0  0  0
   20.4030   -8.6722  -21.1926 C   0  0  0  0  0  0  0  0  0  0  0  0
   19.7035   -9.4924  -22.0589 C   0  0  0  0  0  0  0  0  0  0  0  0
   20.0121   -9.5427  -23.4230 C   0  0  0  0  0  0  0  0  0  0  0  0
   21.0190   -8.7790  -23.9411 C   0  0  0  0  0  0  0  0  0  0  0  0
   21.7160   -7.9630  -23.0820 C   0  0  0  0  0  0  0  0  0  0  0  0
   21.4103   -7.9178  -21.7510 C   0  0  0  0  0  0  0  0  0  0  0  0
   20.6209   -9.0656  -17.4666 C   0  0  0  0  0  0  0  0  0  0  0  0
   19.4662   -9.1636  -16.9847 O   0  0  0  0  0  0  0  0  0  0  0  0
   24.0670  -10.6066  -13.7328 C   0  0  0  0  0  0  0  0  0  0  0  0
   22.8564  -10.1541  -14.5171 C   0  0  1  0  0  0  0  0  0  0  0  0
   21.6362  -10.7496  -13.8010 C   0  0  0  0  0  0  0  0  0  0  0  0
   22.6774   -8.6731  -14.4984 C   0  0  0  0  0  0  0  0  0  0  0  0
   21.4798   -8.1855  -15.2685 C   0  0  2  0  0  0  0  0  0  0  0  0
   21.6841   -8.5588  -16.6738 N   0  0  0  0  0  0  0  0  0  0  0  0
   21.2527   -6.7434  -15.1333 C   0  0  0  0  0  0  0  0  0  0  0  0
   21.5854   -5.9517  -16.0491 O   0  0  0  0  0  0  0  0  0  0  0  0
   20.6670   -6.2182  -13.9953 O   0  0  0  0  0  0  0  0  0  0  0  0
  2  3  1  0
  2  1  1  6
  3  4  1  0
  4  5  2  0
  5  6  1  0
  7  6  1  0
  8  4  1  0
  8  7  2  0
  9 11  1  0
  9  2  1  0
 10  9  2  0
 12 11  1  0
 12 13  1  6
 13 14  1  0
 14 15  2  0
 14 19  1  0
 15 16  1  0
 16 17  2  0
 18 17  1  0
 19 18  2  0
 20 12  1  0
 21 20  2  0
 23 22  1  1
 23 25  1  0
 24 23  1  0
 26 25  1  1
 26 28  1  0
 26 27  1  0
 27 20  1  0
 28 30  1  0
 29 28  2  0
M  END
$$$$
