HFL.pdb
     RDKit          3D

 30 31  0  0  1  0  0  0  0  0999 V2000
   25.9058  -21.7565  -12.5260 N   0  0  0  0  0  0  0  0  0  0  0  0
   25.6987  -20.6641  -11.6290 C   0  0  1  0  0  0  0  0  0  0  0  0
   24.2333  -20.2306  -11.5982 C   0  0  0  0  0  0  0  0  0  0  0  0
   23.9672  -19.6055  -12.9274 C   0  0  0  0  0  0  0  0  0  0  0  0
   24.8064  -18.8241  -13.6976 C   0  0  0  0  0  0  0  0  0  0  0  0
   24.1979  -18.4446  -14.8441 N   0  0  0  0  0  0  0  0  0  0  0  0
   22.9714  -18.9897  -14.7943 C   0  0  0  0  0  0  0  0  0  0  0  0
   22.8154  -19.6871  -13.6560 N   0  0  0  0  0  0  0  0  0  0  0  0
   26.1766  -21.0309  -10.2794 C   0  0  0  0  0  0  0  0  0  0  0  0
   25.7440  -22.0733   -9.7329 O   0  0  0  0  0  0  0  0  0  0  0  0
   27.1171  -20.1994   -9.6218 N   0  0  0  0  0  0  0  0  0  0  0  0
   27.6038  -20.4894   -8.2622 C   0  0  1  0  0  0  0  0  0  0  0  0
   28.7609  -19.5788   -8.0405 C   0  0  0  0  0  0  0  0  0  0  0  0
   29.3403  -19.5702   -6.7016 C   0  0  0  0  0  0  0  0  0  0  0  0
   29.2456  -18.4249   -5.9322 C   0  0  0  0  0  0  0  0  0  0  0  0
   29.7804  -18.3695   -4.6401 C   0  0  0  0  0  0  0  0  0  0  0  0
   30.4150  -19.4509   -4.0987 C   0  0  0  0  0  0  0  0  0  0  0  0
   30.5107  -20.5905   -4.8616 C   0  0  0  0  0  0  0  0  0  0  0  0
   29.9867  -20.6391   -6.1226 C   0  0  0  0  0  0  0  0  0  0  0  0
   26.5347  -20.1700   -7.2933 C   0  0  0  0  0  0  0  0  0  0  0  0
   25.7778  -19.1912   -7.5031 O   0  0  0  0  0  0  0  0  0  0  0  0
   22.1816  -22.3928   -4.0369 C   0  0  0  0  0  0  0  0  0  0  0  0
   23.2952  -21.3714   -3.9943 C   0  0  1  0  0  0  0  0  0  0  0  0
   23.9618  -21.5228   -2.6200 C   0  0  0  0  0  0  0  0  0  0  0  0
   24.3560  -21.6319   -5.0105 C   0  0  0  0  0  0  0  0  0  0  0  0
   25.4297  -20.5787   -5.0671 C   0  0  2  0  0  0  0  0  0  0  0  0
   26.3649  -20.9668   -6.1305 N   0  0  0  0  0  0  0  0  0  0  0  0
   26.1282  -20.3951   -3.7913 C   0  0  0  0  0  0  0  0  0  0  0  0
   26.9037  -21.2783   -3.3501 O   0  0  0  0  0  0  0  0  0  0  0  0
   25.9514  -19.2460   -3.0414 O   0  0  0  0  0  0  0  0  0  0  0  0
  2  3  1  0
  2  1  1  6
  3  4  1  0
  4  5  2  0
  5  6  1  0
  7  6  1  0
  8  4  1  0
  8  7  2  0
  9 11  1  0
  9  2  1  0
 10  9  2  0
 12 11  1  0
 12 13  1  1
 13 14  1  0
 14 15  2  0
 14 19  1  0
 15 16  1  0
 16 17  2  0
 18 17  1  0
 19 18  2  0
 20 12  1  0
 21 20  2  0
 23 22  1  1
 23 25  1  0
 24 23  1  0
 26 25  1  1
 26 28  1  0
 26 27  1  0
 27 20  1  0
 28 30  1  0
 29 28  2  0
M  END
$$$$
