HFL.pdb
     RDKit          3D

 30 31  0  0  1  0  0  0  0  0999 V2000
   29.9287  -37.4355   -8.0657 N   0  0  0  0  0  0  0  0  0  0  0  0
   29.2563  -37.6857   -6.8303 C   0  0  1  0  0  0  0  0  0  0  0  0
   28.8784  -39.1593   -6.6831 C   0  0  0  0  0  0  0  0  0  0  0  0
   27.7653  -39.3912   -7.6504 C   0  0  0  0  0  0  0  0  0  0  0  0
   27.8285  -39.8969   -8.9342 C   0  0  0  0  0  0  0  0  0  0  0  0
   26.5983  -39.9553   -9.4928 N   0  0  0  0  0  0  0  0  0  0  0  0
   25.7586  -39.4845   -8.5562 C   0  0  0  0  0  0  0  0  0  0  0  0
   26.4382  -39.1424   -7.4482 N   0  0  0  0  0  0  0  0  0  0  0  0
   30.1006  -37.2347   -5.7041 C   0  0  0  0  0  0  0  0  0  0  0  0
   31.3088  -37.5677   -5.6656 O   0  0  0  0  0  0  0  0  0  0  0  0
   29.5326  -36.4322   -4.6834 N   0  0  0  0  0  0  0  0  0  0  0  0
   30.3446  -35.8494   -3.6016 C   0  0  1  0  0  0  0  0  0  0  0  0
   30.3974  -34.3865   -3.8742 C   0  0  0  0  0  0  0  0  0  0  0  0
   31.3426  -33.9440   -4.8936 C   0  0  0  0  0  0  0  0  0  0  0  0
   32.6992  -34.0757   -4.6594 C   0  0  0  0  0  0  0  0  0  0  0  0
   33.6446  -33.6713   -5.6087 C   0  0  0  0  0  0  0  0  0  0  0  0
   33.2527  -33.1316   -6.8005 C   0  0  0  0  0  0  0  0  0  0  0  0
   31.9047  -32.9994   -7.0356 C   0  0  0  0  0  0  0  0  0  0  0  0
   30.9859  -33.3960   -6.1053 C   0  0  0  0  0  0  0  0  0  0  0  0
   29.6626  -36.0845   -2.3119 C   0  0  0  0  0  0  0  0  0  0  0  0
   28.4370  -35.8371   -2.2027 O   0  0  0  0  0  0  0  0  0  0  0  0
   30.1935  -36.9418    3.1977 C   0  0  0  0  0  0  0  0  0  0  0  0
   30.0610  -38.0949    2.2292 C   0  0  1  0  0  0  0  0  0  0  0  0
   28.5554  -38.3453    2.0662 C   0  0  0  0  0  0  0  0  0  0  0  0
   30.5859  -37.7706    0.8708 C   0  0  0  0  0  0  0  0  0  0  0  0
   29.7551  -36.7733    0.1091 C   0  0  2  0  0  0  0  0  0  0  0  0
   30.3905  -36.5878   -1.2016 N   0  0  0  0  0  0  0  0  0  0  0  0
   29.6028  -35.4933    0.8075 C   0  0  0  0  0  0  0  0  0  0  0  0
   28.6751  -35.3191    1.6351 O   0  0  0  0  0  0  0  0  0  0  0  0
   30.4757  -34.4458    0.5733 O   0  0  0  0  0  0  0  0  0  0  0  0
  2  3  1  0
  2  1  1  6
  3  4  1  0
  4  5  2  0
  5  6  1  0
  7  6  1  0
  8  4  1  0
  8  7  2  0
  9 11  1  0
  9  2  1  0
 10  9  2  0
 12 11  1  0
 12 13  1  6
 13 14  1  0
 14 15  2  0
 14 19  1  0
 15 16  1  0
 16 17  2  0
 18 17  1  0
 19 18  2  0
 20 12  1  0
 21 20  2  0
 23 22  1  1
 23 25  1  0
 24 23  1  0
 26 25  1  1
 26 28  1  0
 26 27  1  0
 27 20  1  0
 28 30  1  0
 29 28  2  0
M  END
$$$$
