HFL.pdb
     RDKit          3D

 30 31  0  0  1  0  0  0  0  0999 V2000
   21.9419  -30.7750   -8.0214 N   0  0  0  0  0  0  0  0  0  0  0  0
   21.8226  -31.8385   -7.0750 C   0  0  1  0  0  0  0  0  0  0  0  0
   22.1075  -33.1968   -7.7153 C   0  0  0  0  0  0  0  0  0  0  0  0
   23.4988  -33.1097   -8.2493 C   0  0  0  0  0  0  0  0  0  0  0  0
   23.9770  -32.3394   -9.2913 C   0  0  0  0  0  0  0  0  0  0  0  0
   25.3022  -32.5388   -9.4726 N   0  0  0  0  0  0  0  0  0  0  0  0
   25.6582  -33.4383   -8.5408 C   0  0  0  0  0  0  0  0  0  0  0  0
   24.5935  -33.7910   -7.8003 N   0  0  0  0  0  0  0  0  0  0  0  0
   22.7218  -31.5880   -5.9290 C   0  0  0  0  0  0  0  0  0  0  0  0
   23.6153  -30.7135   -6.0244 O   0  0  0  0  0  0  0  0  0  0  0  0
   22.5615  -32.3398   -4.7384 N   0  0  0  0  0  0  0  0  0  0  0  0
   23.3423  -32.0571   -3.5220 C   0  0  1  0  0  0  0  0  0  0  0  0
   22.3452  -31.8677   -2.4323 C   0  0  0  0  0  0  0  0  0  0  0  0
   21.6897  -30.5662   -2.3634 C   0  0  0  0  0  0  0  0  0  0  0  0
   22.4511  -29.4390   -2.1140 C   0  0  0  0  0  0  0  0  0  0  0  0
   21.8694  -28.1681   -2.0443 C   0  0  0  0  0  0  0  0  0  0  0  0
   20.5252  -28.0033   -2.2214 C   0  0  0  0  0  0  0  0  0  0  0  0
   19.7661  -29.1223   -2.4692 C   0  0  0  0  0  0  0  0  0  0  0  0
   20.3393  -30.3608   -2.5363 C   0  0  0  0  0  0  0  0  0  0  0  0
   24.1895  -33.2282   -3.2145 C   0  0  0  0  0  0  0  0  0  0  0  0
   23.6996  -34.3822   -3.2728 O   0  0  0  0  0  0  0  0  0  0  0  0
   28.9999  -33.3963   -5.2953 C   0  0  0  0  0  0  0  0  0  0  0  0
   27.6626  -33.7370   -4.6781 C   0  0  1  0  0  0  0  0  0  0  0  0
   27.2426  -35.0831   -5.2845 C   0  0  0  0  0  0  0  0  0  0  0  0
   27.7442  -33.9441   -3.2029 C   0  0  0  0  0  0  0  0  0  0  0  0
   26.4163  -34.1922   -2.5392 C   0  0  2  0  0  0  0  0  0  0  0  0
   25.5512  -33.0485   -2.8549 N   0  0  0  0  0  0  0  0  0  0  0  0
   26.5214  -34.3902   -1.0904 C   0  0  0  0  0  0  0  0  0  0  0  0
   27.0340  -35.4353   -0.6201 O   0  0  0  0  0  0  0  0  0  0  0  0
   26.0594  -33.4326   -0.2052 O   0  0  0  0  0  0  0  0  0  0  0  0
  2  3  1  0
  2  1  1  6
  3  4  1  0
  4  5  2  0
  5  6  1  0
  7  6  1  0
  8  4  1  0
  8  7  2  0
  9 11  1  0
  9  2  1  0
 10  9  2  0
 12 11  1  0
 12 13  1  1
 13 14  1  0
 14 15  2  0
 14 19  1  0
 15 16  1  0
 16 17  2  0
 18 17  1  0
 19 18  2  0
 20 12  1  0
 21 20  2  0
 23 22  1  6
 23 25  1  0
 24 23  1  0
 26 25  1  1
 26 28  1  0
 26 27  1  0
 27 20  1  0
 28 30  1  0
 29 28  2  0
M  END
$$$$
