HFL.pdb
     RDKit          3D

 30 31  0  0  1  0  0  0  0  0999 V2000
   26.7911  -21.6236  -13.3835 N   0  0  0  0  0  0  0  0  0  0  0  0
   26.0339  -20.7612  -12.5327 C   0  0  1  0  0  0  0  0  0  0  0  0
   24.5544  -20.7487  -12.9164 C   0  0  0  0  0  0  0  0  0  0  0  0
   24.4440  -19.8154  -14.0762 C   0  0  0  0  0  0  0  0  0  0  0  0
   25.4194  -19.0118  -14.6337 C   0  0  0  0  0  0  0  0  0  0  0  0
   24.9278  -18.3068  -15.6778 N   0  0  0  0  0  0  0  0  0  0  0  0
   23.6382  -18.6689  -15.7769 C   0  0  0  0  0  0  0  0  0  0  0  0
   23.3311  -19.5698  -14.8280 N   0  0  0  0  0  0  0  0  0  0  0  0
   26.2177  -21.1661  -11.1232 C   0  0  0  0  0  0  0  0  0  0  0  0
   26.0566  -22.3666  -10.7992 O   0  0  0  0  0  0  0  0  0  0  0  0
   26.5734  -20.1916  -10.1576 N   0  0  0  0  0  0  0  0  0  0  0  0
   26.7099  -20.5184   -8.7279 C   0  0  1  0  0  0  0  0  0  0  0  0
   27.7875  -19.6319   -8.2082 C   0  0  0  0  0  0  0  0  0  0  0  0
   28.0470  -19.6885   -6.7736 C   0  0  0  0  0  0  0  0  0  0  0  0
   27.7145  -18.6031   -5.9838 C   0  0  0  0  0  0  0  0  0  0  0  0
   27.9385  -18.6118   -4.6024 C   0  0  0  0  0  0  0  0  0  0  0  0
   28.4955  -19.6987   -3.9909 C   0  0  0  0  0  0  0  0  0  0  0  0
   28.8271  -20.7789   -4.7739 C   0  0  0  0  0  0  0  0  0  0  0  0
   28.6061  -20.7650   -6.1222 C   0  0  0  0  0  0  0  0  0  0  0  0
   25.4399  -20.2021   -8.0417 C   0  0  0  0  0  0  0  0  0  0  0  0
   24.8519  -19.1214   -8.2894 O   0  0  0  0  0  0  0  0  0  0  0  0
   20.3566  -21.4365   -8.9184 C   0  0  0  0  0  0  0  0  0  0  0  0
   21.1749  -21.3728   -7.6489 C   0  0  1  0  0  0  0  0  0  0  0  0
   20.8974  -22.6810   -6.8955 C   0  0  0  0  0  0  0  0  0  0  0  0
   22.6433  -21.3380   -7.9103 C   0  0  0  0  0  0  0  0  0  0  0  0
   23.4801  -21.0351   -6.6965 C   0  0  2  0  0  0  0  0  0  0  0  0
   24.8877  -21.1166   -7.1065 N   0  0  0  0  0  0  0  0  0  0  0  0
   23.2068  -21.9293   -5.5673 C   0  0  0  0  0  0  0  0  0  0  0  0
   22.2606  -21.6949   -4.7763 O   0  0  0  0  0  0  0  0  0  0  0  0
   23.9829  -23.0527   -5.3442 O   0  0  0  0  0  0  0  0  0  0  0  0
  2  3  1  0
  2  1  1  6
  3  4  1  0
  4  5  2  0
  5  6  1  0
  7  6  1  0
  8  4  1  0
  8  7  2  0
  9 11  1  0
  9  2  1  0
 10  9  2  0
 12 11  1  0
 12 13  1  1
 13 14  1  0
 14 15  2  0
 14 19  1  0
 15 16  1  0
 16 17  2  0
 18 17  1  0
 19 18  2  0
 20 12  1  0
 21 20  2  0
 23 22  1  6
 23 25  1  0
 24 23  1  0
 26 25  1  6
 26 28  1  0
 26 27  1  0
 27 20  1  0
 28 30  1  0
 29 28  2  0
M  END
$$$$
