RRY.pdb
     RDKit          3D

 35 35  0  0  1  0  0  0  0  0999 V2000
   17.0090  -27.2259  -16.3204 N   0  0  0  0  0  0  0  0  0  0  0  0
   16.2813  -26.5120  -15.3126 C   0  0  0  0  0  0  0  0  0  0  0  0
   14.9970  -26.3992  -15.3818 N   0  0  0  0  0  0  0  0  0  0  0  0
   16.9453  -25.9122  -14.2153 N   0  0  0  0  0  0  0  0  0  0  0  0
   18.3916  -25.6825  -14.1740 C   0  0  0  0  0  0  0  0  0  0  0  0
   18.7907  -25.1154  -12.8361 C   0  0  0  0  0  0  0  0  0  0  0  0
   20.2347  -24.7945  -12.6881 C   0  0  0  0  0  0  0  0  0  0  0  0
   21.1112  -25.1215  -13.8579 C   0  0  2  0  0  0  0  0  0  0  0  0
   21.9742  -26.2520  -13.6464 N   0  0  0  0  0  0  0  0  0  0  0  0
   22.0211  -23.9222  -14.0569 C   0  0  0  0  0  0  0  0  0  0  0  0
   22.3028  -23.1889  -13.0759 O   0  0  0  0  0  0  0  0  0  0  0  0
   14.4498  -25.9445  -14.6435 N   0  0  0  0  0  0  0  0  0  0  0  0
   28.3735  -25.7308  -16.4327 C   0  0  0  0  0  0  0  0  0  0  0  0
   27.3370  -26.1657  -17.3498 N   0  0  0  0  0  0  0  0  0  0  0  0
   27.1532  -27.4200  -17.5484 N   0  0  0  0  0  0  0  0  0  0  0  0
   26.5401  -25.2092  -18.0153 C   0  0  0  0  0  0  0  0  0  0  0  0
   26.4868  -23.8430  -17.5918 C   0  0  0  0  0  0  0  0  0  0  0  0
   25.4983  -23.7422  -16.4230 C   0  0  0  0  0  0  0  0  0  0  0  0
   24.3943  -22.8074  -16.7842 C   0  0  2  0  0  0  0  0  0  0  0  0
   23.3484  -22.5530  -15.7471 N   0  0  0  0  0  0  0  0  0  0  0  0
   22.5416  -23.6430  -15.3410 C   0  0  0  0  0  0  0  0  0  0  0  0
   22.6330  -21.2694  -15.9240 O   0  0  0  0  0  0  0  0  0  0  0  0
   21.5438  -21.3275  -16.5726 O   0  0  0  0  0  0  0  0  0  0  0  0
   26.4065  -27.7525  -18.1710 C   0  0  0  0  0  0  0  0  0  0  0  0
   18.9755  -20.7167  -10.5399 C   0  0  0  0  0  0  0  0  0  0  0  0
   19.8190  -20.0902  -11.4508 C   0  0  0  0  0  0  0  0  0  0  0  0
   21.1846  -20.3159  -11.4715 C   0  0  0  0  0  0  0  0  0  0  0  0
   22.0307  -19.7112  -12.3573 C   0  0  0  0  0  0  0  0  0  0  0  0
   21.4868  -18.8269  -13.2802 C   0  0  1  0  0  0  0  0  0  0  0  0
   22.3985  -18.1782  -14.2255 N   0  0  0  0  0  0  0  0  0  0  0  0
   22.5046  -18.8413  -15.5595 C   0  0  0  0  0  0  0  0  0  0  0  0
   23.1840  -20.0995  -15.3818 O   0  0  0  0  0  0  0  0  0  0  0  0
   23.1803  -18.0634  -16.5998 C   0  0  0  0  0  0  0  0  0  0  0  0
   22.6940  -16.9767  -16.9919 C   0  0  0  0  0  0  0  0  0  0  0  0
   20.1412  -18.5719  -13.2983 O   0  0  0  0  0  0  0  0  0  0  0  0
  2  3  2  0
  2  1  1  0
  4  2  1  0
  5  4  1  0
  6  5  1  0
  7  8  1  0
  7  6  1  0
  8 10  1  0
  8  9  1  1
 10 11  2  0
 13 15  1  0
 13 12  1  0
 14 13  2  0
 16 15  1  0
 17 16  1  0
 17 18  1  0
 19 18  1  1
 20 10  1  0
 20 19  1  0
 21 19  1  0
 21 30  1  0
 22 21  2  0
 23 24  1  0
 24 25  2  0
 25 26  1  0
 27 28  1  0
 27 26  2  0
 29 31  1  0
 29 30  1  0
 29 28  1  6
 31 35  1  0
 32 31  2  0
 33 27  1  0
 34 33  2  0
 34 24  1  0
M  END
$$$$
