RRY.pdb
     RDKit          3D

 35 35  0  0  1  0  0  0  0  0999 V2000
   30.4770  -25.7936  -15.6218 N   0  0  0  0  0  0  0  0  0  0  0  0
   30.6972  -25.0278  -16.8134 C   0  0  0  0  0  0  0  0  0  0  0  0
   31.8777  -24.9328  -17.3275 N   0  0  0  0  0  0  0  0  0  0  0  0
   29.6319  -24.3561  -17.4604 N   0  0  0  0  0  0  0  0  0  0  0  0
   28.2194  -24.6584  -17.2159 C   0  0  0  0  0  0  0  0  0  0  0  0
   27.4630  -23.3934  -16.9020 C   0  0  0  0  0  0  0  0  0  0  0  0
   26.7521  -23.3865  -15.5964 C   0  0  0  0  0  0  0  0  0  0  0  0
   25.6669  -24.4048  -15.4255 C   0  0  2  0  0  0  0  0  0  0  0  0
   25.5277  -25.3060  -16.5373 N   0  0  0  0  0  0  0  0  0  0  0  0
   24.3643  -23.6290  -15.3401 C   0  0  0  0  0  0  0  0  0  0  0  0
   24.0343  -22.8670  -16.2834 O   0  0  0  0  0  0  0  0  0  0  0  0
   32.0530  -24.4186  -18.1971 N   0  0  0  0  0  0  0  0  0  0  0  0
   17.9591  -25.5898   -9.6799 C   0  0  0  0  0  0  0  0  0  0  0  0
   18.8966  -24.5160   -9.4104 N   0  0  0  0  0  0  0  0  0  0  0  0
   19.1123  -24.1535   -8.1985 N   0  0  0  0  0  0  0  0  0  0  0  0
   19.5633  -23.8794  -10.4795 C   0  0  0  0  0  0  0  0  0  0  0  0
   19.1954  -24.1083  -11.8436 C   0  0  0  0  0  0  0  0  0  0  0  0
   20.0473  -23.1904  -12.7298 C   0  0  0  0  0  0  0  0  0  0  0  0
   21.3893  -23.8058  -12.9383 C   0  0  2  0  0  0  0  0  0  0  0  0
   22.2915  -23.1542  -13.9362 N   0  0  0  0  0  0  0  0  0  0  0  0
   23.5371  -23.7716  -14.2030 C   0  0  0  0  0  0  0  0  0  0  0  0
   22.3276  -21.6781  -13.8330 O   0  0  0  0  0  0  0  0  0  0  0  0
   22.9891  -21.2075  -12.8577 O   0  0  0  0  0  0  0  0  0  0  0  0
   19.7917  -23.4140   -7.9812 C   0  0  0  0  0  0  0  0  0  0  0  0
   24.7647  -14.0705  -16.8198 C   0  0  0  0  0  0  0  0  0  0  0  0
   24.3798  -15.3783  -16.5454 C   0  0  0  0  0  0  0  0  0  0  0  0
   24.6195  -15.9791  -15.3216 C   0  0  0  0  0  0  0  0  0  0  0  0
   24.2500  -17.2619  -15.0314 C   0  0  0  0  0  0  0  0  0  0  0  0
   23.6019  -17.9938  -16.0182 C   0  0  1  0  0  0  0  0  0  0  0  0
   23.2109  -19.3700  -15.7036 N   0  0  0  0  0  0  0  0  0  0  0  0
   21.9471  -19.5057  -14.9194 C   0  0  0  0  0  0  0  0  0  0  0  0
   21.6489  -20.9093  -14.7893 O   0  0  0  0  0  0  0  0  0  0  0  0
   20.7837  -18.8077  -15.4703 C   0  0  0  0  0  0  0  0  0  0  0  0
   20.7538  -17.5548  -15.4981 C   0  0  0  0  0  0  0  0  0  0  0  0
   23.3428  -17.4417  -17.2447 O   0  0  0  0  0  0  0  0  0  0  0  0
  2  3  2  0
  2  1  1  0
  4  2  1  0
  5  4  1  0
  6  5  1  0
  7  8  1  0
  7  6  1  0
  8 10  1  0
  8  9  1  6
 10 11  2  0
 13 15  1  0
 13 12  1  0
 14 13  2  0
 16 15  1  0
 17 16  1  0
 17 18  1  0
 19 18  1  6
 20 10  1  0
 20 19  1  0
 21 19  1  0
 21 30  1  0
 22 21  2  0
 23 24  1  0
 24 25  2  0
 25 26  1  0
 27 28  1  0
 27 26  2  0
 29 31  1  0
 29 30  1  0
 29 28  1  6
 31 35  1  0
 32 31  2  0
 33 27  1  0
 34 33  2  0
 34 24  1  0
M  END
$$$$
