RRY.pdb
     RDKit          3D

 35 35  0  0  1  0  0  0  0  0999 V2000
   21.7288  -17.8767  -17.4789 N   0  0  0  0  0  0  0  0  0  0  0  0
   23.0243  -17.2687  -17.5614 C   0  0  0  0  0  0  0  0  0  0  0  0
   23.1658  -15.9946  -17.4082 N   0  0  0  0  0  0  0  0  0  0  0  0
   24.1829  -18.0432  -17.8114 N   0  0  0  0  0  0  0  0  0  0  0  0
   24.1902  -19.5082  -17.8136 C   0  0  0  0  0  0  0  0  0  0  0  0
   25.0530  -20.0228  -18.9368 C   0  0  0  0  0  0  0  0  0  0  0  0
   26.4456  -20.3772  -18.5558 C   0  0  0  0  0  0  0  0  0  0  0  0
   26.6812  -21.7988  -18.1468 C   0  0  2  0  0  0  0  0  0  0  0  0
   26.2120  -22.7686  -19.0990 N   0  0  0  0  0  0  0  0  0  0  0  0
   25.8712  -22.0179  -16.8812 C   0  0  0  0  0  0  0  0  0  0  0  0
   24.9134  -22.8314  -16.8920 O   0  0  0  0  0  0  0  0  0  0  0  0
   24.0736  -15.5306  -17.5169 N   0  0  0  0  0  0  0  0  0  0  0  0
   24.1431  -20.0374   -9.8817 C   0  0  0  0  0  0  0  0  0  0  0  0
   25.0975  -20.8024   -9.1016 N   0  0  0  0  0  0  0  0  0  0  0  0
   24.7711  -21.2170   -7.9320 N   0  0  0  0  0  0  0  0  0  0  0  0
   26.3746  -21.0848   -9.6328 C   0  0  0  0  0  0  0  0  0  0  0  0
   26.8279  -20.5054  -10.8606 C   0  0  0  0  0  0  0  0  0  0  0  0
   25.7887  -20.8114  -11.9469 C   0  0  0  0  0  0  0  0  0  0  0  0
   26.4834  -21.0748  -13.2397 C   0  0  1  0  0  0  0  0  0  0  0  0
   25.6282  -21.4187  -14.4164 N   0  0  0  0  0  0  0  0  0  0  0  0
   26.2020  -21.3062  -15.7057 C   0  0  0  0  0  0  0  0  0  0  0  0
   24.2337  -20.9361  -14.3016 O   0  0  0  0  0  0  0  0  0  0  0  0
   24.0374  -19.7271  -14.6334 O   0  0  0  0  0  0  0  0  0  0  0  0
   25.4504  -21.7064   -7.3362 C   0  0  0  0  0  0  0  0  0  0  0  0
   16.7027  -17.9465  -12.1653 C   0  0  0  0  0  0  0  0  0  0  0  0
   17.9694  -18.4929  -12.3408 C   0  0  0  0  0  0  0  0  0  0  0  0
   18.6770  -18.3567  -13.5227 C   0  0  0  0  0  0  0  0  0  0  0  0
   19.9218  -18.8853  -13.7160 C   0  0  0  0  0  0  0  0  0  0  0  0
   20.5000  -19.5936  -12.6702 C   0  0  2  0  0  0  0  0  0  0  0  0
   21.8333  -20.1616  -12.8835 N   0  0  0  0  0  0  0  0  0  0  0  0
   21.8742  -21.3684  -13.7625 C   0  0  0  0  0  0  0  0  0  0  0  0
   23.2413  -21.8158  -13.8461 O   0  0  0  0  0  0  0  0  0  0  0  0
   21.3362  -21.1855  -15.1120 C   0  0  0  0  0  0  0  0  0  0  0  0
   20.1838  -21.5909  -15.3927 C   0  0  0  0  0  0  0  0  0  0  0  0
   19.8382  -19.7547  -11.4819 O   0  0  0  0  0  0  0  0  0  0  0  0
  2  3  2  0
  2  1  1  0
  4  2  1  0
  5  4  1  0
  6  5  1  0
  7  8  1  0
  7  6  1  0
  8 10  1  0
  8  9  1  6
 10 11  2  0
 13 15  1  0
 13 12  1  0
 14 13  2  0
 16 15  1  0
 17 16  1  0
 17 18  1  0
 19 18  1  1
 20 10  1  0
 20 19  1  0
 21 19  1  0
 21 30  1  0
 22 21  2  0
 23 24  1  0
 24 25  2  0
 25 26  1  0
 27 28  1  0
 27 26  2  0
 29 31  1  0
 29 30  1  0
 29 28  1  6
 31 35  1  0
 32 31  2  0
 33 27  1  0
 34 33  2  0
 34 24  1  0
M  END
$$$$
