RRY.pdb
     RDKit          3D

 35 35  0  0  1  0  0  0  0  0999 V2000
   25.1575  -16.0330  -24.9325 N   0  0  0  0  0  0  0  0  0  0  0  0
   24.1149  -15.7665  -23.9855 C   0  0  0  0  0  0  0  0  0  0  0  0
   23.0709  -15.0883  -24.3276 N   0  0  0  0  0  0  0  0  0  0  0  0
   24.1972  -16.2372  -22.6527 N   0  0  0  0  0  0  0  0  0  0  0  0
   25.2734  -17.1049  -22.1677 C   0  0  0  0  0  0  0  0  0  0  0  0
   25.0800  -17.4054  -20.7037 C   0  0  0  0  0  0  0  0  0  0  0  0
   24.1658  -18.5389  -20.4041 C   0  0  0  0  0  0  0  0  0  0  0  0
   23.0541  -18.2588  -19.4401 C   0  0  2  0  0  0  0  0  0  0  0  0
   23.1075  -16.9499  -18.8472 N   0  0  0  0  0  0  0  0  0  0  0  0
   23.2180  -19.2496  -18.3010 C   0  0  0  0  0  0  0  0  0  0  0  0
   23.8598  -20.3130  -18.4927 O   0  0  0  0  0  0  0  0  0  0  0  0
   22.3456  -14.8272  -23.6515 N   0  0  0  0  0  0  0  0  0  0  0  0
   27.6347  -23.4099  -17.1243 C   0  0  0  0  0  0  0  0  0  0  0  0
   26.7539  -24.1963  -16.2816 N   0  0  0  0  0  0  0  0  0  0  0  0
   26.8091  -25.4774  -16.3299 N   0  0  0  0  0  0  0  0  0  0  0  0
   25.8451  -23.5492  -15.4166 C   0  0  0  0  0  0  0  0  0  0  0  0
   25.7339  -22.1231  -15.3663 C   0  0  0  0  0  0  0  0  0  0  0  0
   24.2688  -21.7477  -15.6236 C   0  0  0  0  0  0  0  0  0  0  0  0
   24.1028  -20.2719  -15.4912 C   0  0  2  0  0  0  0  0  0  0  0  0
   22.7644  -19.7019  -15.8348 N   0  0  0  0  0  0  0  0  0  0  0  0
   22.6487  -18.9663  -17.0387 C   0  0  0  0  0  0  0  0  0  0  0  0
   22.0434  -19.1316  -14.6747 O   0  0  0  0  0  0  0  0  0  0  0  0
   22.6081  -18.1516  -14.0993 O   0  0  0  0  0  0  0  0  0  0  0  0
   26.1977  -26.0553  -15.7400 C   0  0  0  0  0  0  0  0  0  0  0  0
   20.5879  -12.7460  -15.8200 C   0  0  0  0  0  0  0  0  0  0  0  0
   20.2816  -14.0996  -15.7319 C   0  0  0  0  0  0  0  0  0  0  0  0
   19.7756  -14.6703  -14.5767 C   0  0  0  0  0  0  0  0  0  0  0  0
   19.4682  -15.9970  -14.4689 C   0  0  0  0  0  0  0  0  0  0  0  0
   19.6764  -16.8078  -15.5775 C   0  0  2  0  0  0  0  0  0  0  0  0
   19.3488  -18.2303  -15.4558 N   0  0  0  0  0  0  0  0  0  0  0  0
   19.6636  -18.8415  -14.1299 C   0  0  0  0  0  0  0  0  0  0  0  0
   20.8163  -19.6909  -14.2904 O   0  0  0  0  0  0  0  0  0  0  0  0
   18.5769  -19.6035  -13.5116 C   0  0  0  0  0  0  0  0  0  0  0  0
   18.5122  -20.8463  -13.6617 C   0  0  0  0  0  0  0  0  0  0  0  0
   20.1752  -16.2881  -16.7425 O   0  0  0  0  0  0  0  0  0  0  0  0
  2  3  2  0
  2  1  1  0
  4  2  1  0
  5  4  1  0
  6  5  1  0
  7  8  1  0
  7  6  1  0
  8 10  1  0
  8  9  1  1
 10 11  2  0
 13 15  1  0
 13 12  1  0
 14 13  2  0
 16 15  1  0
 17 16  1  0
 17 18  1  0
 19 18  1  6
 20 10  1  0
 20 19  1  0
 21 19  1  0
 21 30  1  0
 22 21  2  0
 23 24  1  0
 24 25  2  0
 25 26  1  0
 27 28  1  0
 27 26  2  0
 29 31  1  0
 29 30  1  0
 29 28  1  1
 31 35  1  0
 32 31  2  0
 33 27  1  0
 34 33  2  0
 34 24  1  0
M  END
$$$$
