RRY.pdb
     RDKit          3D

 35 35  0  0  1  0  0  0  0  0999 V2000
   18.6202  -22.8648  -12.0587 N   0  0  0  0  0  0  0  0  0  0  0  0
   19.4379  -22.9962  -13.2287 C   0  0  0  0  0  0  0  0  0  0  0  0
   19.3782  -22.1216  -14.1766 N   0  0  0  0  0  0  0  0  0  0  0  0
   20.3322  -24.0834  -13.3798 N   0  0  0  0  0  0  0  0  0  0  0  0
   20.3549  -25.2411  -12.4823 C   0  0  0  0  0  0  0  0  0  0  0  0
   19.3575  -26.2740  -12.9396 C   0  0  0  0  0  0  0  0  0  0  0  0
   19.3502  -27.5387  -12.1582 C   0  0  0  0  0  0  0  0  0  0  0  0
   20.4231  -28.5303  -12.4890 C   0  0  2  0  0  0  0  0  0  0  0  0
   20.3039  -29.1079  -13.8004 N   0  0  0  0  0  0  0  0  0  0  0  0
   20.2644  -29.6745  -11.5034 C   0  0  0  0  0  0  0  0  0  0  0  0
   19.1973  -30.3382  -11.4916 O   0  0  0  0  0  0  0  0  0  0  0  0
   19.9706  -22.1820  -15.0113 N   0  0  0  0  0  0  0  0  0  0  0  0
   24.1604  -35.0991   -9.0315 C   0  0  0  0  0  0  0  0  0  0  0  0
   25.3341  -34.4902   -9.6283 N   0  0  0  0  0  0  0  0  0  0  0  0
   26.1165  -35.2024  -10.3544 N   0  0  0  0  0  0  0  0  0  0  0  0
   25.6065  -33.1228   -9.4073 C   0  0  0  0  0  0  0  0  0  0  0  0
   24.7241  -32.2889   -8.6495 C   0  0  0  0  0  0  0  0  0  0  0  0
   23.4685  -32.0299   -9.4922 C   0  0  0  0  0  0  0  0  0  0  0  0
   22.5636  -31.0961   -8.7626 C   0  0  2  0  0  0  0  0  0  0  0  0
   21.2679  -30.7471   -9.4212 N   0  0  0  0  0  0  0  0  0  0  0  0
   21.3166  -29.9814  -10.6109 C   0  0  0  0  0  0  0  0  0  0  0  0
   20.1984  -30.3692   -8.4703 O   0  0  0  0  0  0  0  0  0  0  0  0
   20.2747  -29.1977   -7.9885 O   0  0  0  0  0  0  0  0  0  0  0  0
   26.9515  -34.7922  -10.7907 C   0  0  0  0  0  0  0  0  0  0  0  0
   18.3641  -24.8238   -5.4088 C   0  0  0  0  0  0  0  0  0  0  0  0
   18.1407  -26.0199   -6.0821 C   0  0  0  0  0  0  0  0  0  0  0  0
   17.8505  -27.1997   -5.4189 C   0  0  0  0  0  0  0  0  0  0  0  0
   17.6279  -28.3849   -6.0607 C   0  0  0  0  0  0  0  0  0  0  0  0
   17.6980  -28.3995   -7.4479 C   0  0  2  0  0  0  0  0  0  0  0  0
   17.4622  -29.6735   -8.1314 N   0  0  0  0  0  0  0  0  0  0  0  0
   18.0226  -30.8746   -7.4431 C   0  0  0  0  0  0  0  0  0  0  0  0
   19.1943  -31.2995   -8.1661 O   0  0  0  0  0  0  0  0  0  0  0  0
   17.1031  -32.0044   -7.2949 C   0  0  0  0  0  0  0  0  0  0  0  0
   16.0870  -31.9004   -6.5682 C   0  0  0  0  0  0  0  0  0  0  0  0
   17.9821  -27.2569   -8.1478 O   0  0  0  0  0  0  0  0  0  0  0  0
  2  3  2  0
  2  1  1  0
  4  2  1  0
  5  4  1  0
  6  5  1  0
  7  8  1  0
  7  6  1  0
  8 10  1  0
  8  9  1  6
 10 11  2  0
 13 15  1  0
 13 12  1  0
 14 13  2  0
 16 15  1  0
 17 16  1  0
 17 18  1  0
 19 18  1  6
 20 10  1  0
 20 19  1  0
 21 19  1  0
 21 30  1  0
 22 21  2  0
 23 24  1  0
 24 25  2  0
 25 26  1  0
 27 28  1  0
 27 26  2  0
 29 31  1  0
 29 30  1  0
 29 28  1  1
 31 35  1  0
 32 31  2  0
 33 27  1  0
 34 33  2  0
 34 24  1  0
M  END
$$$$
