RRY.pdb
     RDKit          3D

 35 35  0  0  1  0  0  0  0  0999 V2000
   30.7811  -18.2388  -18.5918 N   0  0  0  0  0  0  0  0  0  0  0  0
   30.0826  -18.4467  -19.8262 C   0  0  0  0  0  0  0  0  0  0  0  0
   30.5526  -17.9835  -20.9359 N   0  0  0  0  0  0  0  0  0  0  0  0
   28.8623  -19.1635  -19.8663 N   0  0  0  0  0  0  0  0  0  0  0  0
   28.4665  -20.1417  -18.8500 C   0  0  0  0  0  0  0  0  0  0  0  0
   27.5401  -19.5043  -17.8468 C   0  0  0  0  0  0  0  0  0  0  0  0
   27.0236  -20.4155  -16.7918 C   0  0  0  0  0  0  0  0  0  0  0  0
   27.9890  -21.4291  -16.2584 C   0  0  2  0  0  0  0  0  0  0  0  0
   27.8687  -22.7284  -16.8624 N   0  0  0  0  0  0  0  0  0  0  0  0
   27.6494  -21.6090  -14.7893 C   0  0  0  0  0  0  0  0  0  0  0  0
   26.6013  -22.2228  -14.4666 O   0  0  0  0  0  0  0  0  0  0  0  0
   30.0471  -18.0780  -21.8229 N   0  0  0  0  0  0  0  0  0  0  0  0
   32.9665  -23.1501   -8.9941 C   0  0  0  0  0  0  0  0  0  0  0  0
   33.1955  -23.1543  -10.4266 N   0  0  0  0  0  0  0  0  0  0  0  0
   33.5911  -24.2314  -11.0010 N   0  0  0  0  0  0  0  0  0  0  0  0
   32.9820  -21.9775  -11.1766 C   0  0  0  0  0  0  0  0  0  0  0  0
   31.8628  -21.1190  -10.9341 C   0  0  0  0  0  0  0  0  0  0  0  0
   30.6617  -21.6656  -11.7166 C   0  0  0  0  0  0  0  0  0  0  0  0
   29.4932  -20.7579  -11.5324 C   0  0  2  0  0  0  0  0  0  0  0  0
   28.3022  -20.9928  -12.4045 N   0  0  0  0  0  0  0  0  0  0  0  0
   28.5140  -21.0858  -13.8011 C   0  0  0  0  0  0  0  0  0  0  0  0
   27.1042  -20.2249  -11.9974 O   0  0  0  0  0  0  0  0  0  0  0  0
   26.8325  -19.2069  -12.7046 O   0  0  0  0  0  0  0  0  0  0  0  0
   33.7403  -24.2642  -12.0172 C   0  0  0  0  0  0  0  0  0  0  0  0
   18.7827  -19.8172  -12.4511 C   0  0  0  0  0  0  0  0  0  0  0  0
   20.1479  -20.0662  -12.3601 C   0  0  0  0  0  0  0  0  0  0  0  0
   20.6545  -21.1978  -11.7447 C   0  0  0  0  0  0  0  0  0  0  0  0
   21.9912  -21.4614  -11.6444 C   0  0  0  0  0  0  0  0  0  0  0  0
   22.8804  -20.5438  -12.1893 C   0  0  2  0  0  0  0  0  0  0  0  0
   24.3127  -20.8290  -12.0760 N   0  0  0  0  0  0  0  0  0  0  0  0
   24.9542  -20.3579  -10.8122 C   0  0  0  0  0  0  0  0  0  0  0  0
   26.3624  -20.6534  -10.8872 O   0  0  0  0  0  0  0  0  0  0  0  0
   24.4023  -20.9174   -9.5769 C   0  0  0  0  0  0  0  0  0  0  0  0
   24.8111  -22.0211   -9.1457 C   0  0  0  0  0  0  0  0  0  0  0  0
   22.4261  -19.4095  -12.8081 O   0  0  0  0  0  0  0  0  0  0  0  0
  2  3  2  0
  2  1  1  0
  4  2  1  0
  5  4  1  0
  6  5  1  0
  7  8  1  0
  7  6  1  0
  8 10  1  0
  8  9  1  6
 10 11  2  0
 13 15  1  0
 13 12  1  0
 14 13  2  0
 16 15  1  0
 17 16  1  0
 17 18  1  0
 19 18  1  1
 20 10  1  0
 20 19  1  0
 21 19  1  0
 21 30  1  0
 22 21  2  0
 23 24  1  0
 24 25  2  0
 25 26  1  0
 27 28  1  0
 27 26  2  0
 29 31  1  0
 29 30  1  0
 29 28  1  1
 31 35  1  0
 32 31  2  0
 33 27  1  0
 34 33  2  0
 34 24  1  0
M  END
$$$$
