RRY.pdb
     RDKit          3D

 35 35  0  0  1  0  0  0  0  0999 V2000
   18.3904  -27.9907  -11.3696 N   0  0  0  0  0  0  0  0  0  0  0  0
   18.6850  -27.6626  -12.7336 C   0  0  0  0  0  0  0  0  0  0  0  0
   18.8736  -28.5921  -13.6095 N   0  0  0  0  0  0  0  0  0  0  0  0
   18.7770  -26.3156  -13.1601 N   0  0  0  0  0  0  0  0  0  0  0  0
   18.5000  -25.1716  -12.2880 C   0  0  0  0  0  0  0  0  0  0  0  0
   17.6972  -24.1340  -13.0295 C   0  0  0  0  0  0  0  0  0  0  0  0
   18.3541  -22.8084  -13.1754 C   0  0  0  0  0  0  0  0  0  0  0  0
   19.3210  -22.4239  -12.0980 C   0  0  2  0  0  0  0  0  0  0  0  0
   18.7056  -21.8301  -10.9420 N   0  0  0  0  0  0  0  0  0  0  0  0
   20.2229  -21.3581  -12.6953 C   0  0  0  0  0  0  0  0  0  0  0  0
   19.9626  -20.1447  -12.4975 O   0  0  0  0  0  0  0  0  0  0  0  0
   19.0427  -28.3820  -14.5987 N   0  0  0  0  0  0  0  0  0  0  0  0
   26.9947  -23.3367  -17.1845 C   0  0  0  0  0  0  0  0  0  0  0  0
   26.1691  -23.7362  -16.0606 N   0  0  0  0  0  0  0  0  0  0  0  0
   25.9422  -24.9820  -15.8533 N   0  0  0  0  0  0  0  0  0  0  0  0
   25.6229  -22.7550  -15.2051 C   0  0  0  0  0  0  0  0  0  0  0  0
   25.9062  -21.3623  -15.3740 C   0  0  0  0  0  0  0  0  0  0  0  0
   24.6429  -20.5696  -15.0144 C   0  0  0  0  0  0  0  0  0  0  0  0
   23.5996  -21.5027  -14.5005 C   0  0  2  0  0  0  0  0  0  0  0  0
   22.2742  -20.9131  -14.1399 N   0  0  0  0  0  0  0  0  0  0  0  0
   21.3441  -21.7407  -13.4661 C   0  0  0  0  0  0  0  0  0  0  0  0
   21.7006  -20.0462  -15.1936 O   0  0  0  0  0  0  0  0  0  0  0  0
   20.9064  -20.6129  -16.0049 O   0  0  0  0  0  0  0  0  0  0  0  0
   25.4455  -25.2955  -15.0101 C   0  0  0  0  0  0  0  0  0  0  0  0
   19.2009  -12.5509  -19.0813 C   0  0  0  0  0  0  0  0  0  0  0  0
   19.7924  -13.5058  -18.2614 C   0  0  0  0  0  0  0  0  0  0  0  0
   21.1646  -13.5987  -18.1041 C   0  0  0  0  0  0  0  0  0  0  0  0
   21.7659  -14.5286  -17.3042 C   0  0  0  0  0  0  0  0  0  0  0  0
   20.9538  -15.4223  -16.6176 C   0  0  2  0  0  0  0  0  0  0  0  0
   21.6033  -16.4200  -15.7641 N   0  0  0  0  0  0  0  0  0  0  0  0
   21.4882  -17.8312  -16.2393 C   0  0  0  0  0  0  0  0  0  0  0  0
   22.0580  -18.6908  -15.2330 O   0  0  0  0  0  0  0  0  0  0  0  0
   22.1106  -18.1146  -17.5340 C   0  0  0  0  0  0  0  0  0  0  0  0
   23.3048  -18.4915  -17.5916 C   0  0  0  0  0  0  0  0  0  0  0  0
   19.5907  -15.3691  -16.7417 O   0  0  0  0  0  0  0  0  0  0  0  0
  2  3  2  0
  2  1  1  0
  4  2  1  0
  5  4  1  0
  6  5  1  0
  7  8  1  0
  7  6  1  0
  8 10  1  0
  8  9  1  1
 10 11  2  0
 13 15  1  0
 13 12  1  0
 14 13  2  0
 16 15  1  0
 17 16  1  0
 17 18  1  0
 19 18  1  1
 20 10  1  0
 20 19  1  0
 21 19  1  0
 21 30  1  0
 22 21  2  0
 23 24  1  0
 24 25  2  0
 25 26  1  0
 27 28  1  0
 27 26  2  0
 29 31  1  0
 29 30  1  0
 29 28  1  6
 31 35  1  0
 32 31  2  0
 33 27  1  0
 34 33  2  0
 34 24  1  0
M  END
$$$$
