RRY.pdb
     RDKit          3D

 35 35  0  0  1  0  0  0  0  0999 V2000
   16.8782  -16.9987  -15.8705 N   0  0  0  0  0  0  0  0  0  0  0  0
   17.5649  -18.2437  -15.6886 C   0  0  0  0  0  0  0  0  0  0  0  0
   17.2193  -19.0560  -14.7465 N   0  0  0  0  0  0  0  0  0  0  0  0
   18.6376  -18.6194  -16.5330 N   0  0  0  0  0  0  0  0  0  0  0  0
   19.1487  -17.7734  -17.6144 C   0  0  0  0  0  0  0  0  0  0  0  0
   20.1550  -18.5339  -18.4389 C   0  0  0  0  0  0  0  0  0  0  0  0
   20.8556  -17.7359  -19.4793 C   0  0  0  0  0  0  0  0  0  0  0  0
   22.3517  -17.8097  -19.4778 C   0  0  2  0  0  0  0  0  0  0  0  0
   22.8856  -18.8771  -18.6758 N   0  0  0  0  0  0  0  0  0  0  0  0
   22.8414  -16.5176  -18.8481 C   0  0  0  0  0  0  0  0  0  0  0  0
   23.0335  -16.4673  -17.6072 O   0  0  0  0  0  0  0  0  0  0  0  0
   17.7115  -19.9404  -14.5823 N   0  0  0  0  0  0  0  0  0  0  0  0
   20.6865  -11.1006  -22.3926 C   0  0  0  0  0  0  0  0  0  0  0  0
   21.2484  -11.6003  -23.6332 N   0  0  0  0  0  0  0  0  0  0  0  0
   20.5083  -11.6738  -24.6788 N   0  0  0  0  0  0  0  0  0  0  0  0
   22.6012  -12.0007  -23.6817 C   0  0  0  0  0  0  0  0  0  0  0  0
   23.4354  -11.9894  -22.5187 C   0  0  0  0  0  0  0  0  0  0  0  0
   22.9135  -13.0536  -21.5448 C   0  0  0  0  0  0  0  0  0  0  0  0
   23.7878  -13.0948  -20.3377 C   0  0  1  0  0  0  0  0  0  0  0  0
   23.4273  -14.0733  -19.2667 N   0  0  0  0  0  0  0  0  0  0  0  0
   23.0763  -15.3864  -19.6624 C   0  0  0  0  0  0  0  0  0  0  0  0
   22.5963  -13.4959  -18.1866 O   0  0  0  0  0  0  0  0  0  0  0  0
   21.3806  -13.8594  -18.1691 O   0  0  0  0  0  0  0  0  0  0  0  0
   20.8909  -11.9990  -25.5752 C   0  0  0  0  0  0  0  0  0  0  0  0
   20.7111   -8.2828  -11.2991 C   0  0  0  0  0  0  0  0  0  0  0  0
   21.3476   -9.0433  -12.2740 C   0  0  0  0  0  0  0  0  0  0  0  0
   21.7313   -8.5125  -13.4935 C   0  0  0  0  0  0  0  0  0  0  0  0
   22.3573   -9.2416  -14.4644 C   0  0  0  0  0  0  0  0  0  0  0  0
   22.6184  -10.5817  -14.2085 C   0  0  2  0  0  0  0  0  0  0  0  0
   23.2864  -11.3603  -15.2541 N   0  0  0  0  0  0  0  0  0  0  0  0
   22.3735  -12.0007  -16.2476 C   0  0  0  0  0  0  0  0  0  0  0  0
   23.1827  -12.6075  -17.2738 O   0  0  0  0  0  0  0  0  0  0  0  0
   21.3874  -11.1113  -16.8645 C   0  0  0  0  0  0  0  0  0  0  0  0
   20.2099  -11.0800  -16.4359 C   0  0  0  0  0  0  0  0  0  0  0  0
   22.2574  -11.1513  -13.0163 O   0  0  0  0  0  0  0  0  0  0  0  0
  2  3  2  0
  2  1  1  0
  4  2  1  0
  5  4  1  0
  6  5  1  0
  7  8  1  0
  7  6  1  0
  8 10  1  0
  8  9  1  1
 10 11  2  0
 13 15  1  0
 13 12  1  0
 14 13  2  0
 16 15  1  0
 17 16  1  0
 17 18  1  0
 19 18  1  1
 20 10  1  0
 20 19  1  0
 21 19  1  0
 21 30  1  0
 22 21  2  0
 23 24  1  0
 24 25  2  0
 25 26  1  0
 27 28  1  0
 27 26  2  0
 29 31  1  0
 29 30  1  0
 29 28  1  6
 31 35  1  0
 32 31  2  0
 33 27  1  0
 34 33  2  0
 34 24  1  0
M  END
$$$$
