RRY.pdb
     RDKit          3D

 35 35  0  0  1  0  0  0  0  0999 V2000
   32.0901  -26.4282  -16.0073 N   0  0  0  0  0  0  0  0  0  0  0  0
   31.6812  -25.7189  -17.1840 C   0  0  0  0  0  0  0  0  0  0  0  0
   32.0241  -26.1347  -18.3572 N   0  0  0  0  0  0  0  0  0  0  0  0
   30.8920  -24.5467  -17.0962 N   0  0  0  0  0  0  0  0  0  0  0  0
   30.5138  -23.9209  -15.8266 C   0  0  0  0  0  0  0  0  0  0  0  0
   29.7444  -22.6505  -16.0813 C   0  0  0  0  0  0  0  0  0  0  0  0
   28.7538  -22.7197  -17.1876 C   0  0  0  0  0  0  0  0  0  0  0  0
   28.0569  -21.4404  -17.5364 C   0  0  2  0  0  0  0  0  0  0  0  0
   28.9455  -20.3397  -17.7938 N   0  0  0  0  0  0  0  0  0  0  0  0
   27.2411  -21.0530  -16.3156 C   0  0  0  0  0  0  0  0  0  0  0  0
   27.7179  -20.2393  -15.4850 O   0  0  0  0  0  0  0  0  0  0  0  0
   31.7784  -25.6215  -19.2101 N   0  0  0  0  0  0  0  0  0  0  0  0
   20.1579  -20.2385  -12.5412 C   0  0  0  0  0  0  0  0  0  0  0  0
   20.1064  -21.6810  -12.3958 N   0  0  0  0  0  0  0  0  0  0  0  0
   19.5931  -22.1924  -11.3368 N   0  0  0  0  0  0  0  0  0  0  0  0
   20.6193  -22.5097  -13.4171 C   0  0  0  0  0  0  0  0  0  0  0  0
   21.2555  -21.9704  -14.5803 C   0  0  0  0  0  0  0  0  0  0  0  0
   22.6558  -21.4882  -14.1800 C   0  0  0  0  0  0  0  0  0  0  0  0
   23.6114  -21.7569  -15.2926 C   0  0  2  0  0  0  0  0  0  0  0  0
   25.0394  -21.3733  -15.0736 N   0  0  0  0  0  0  0  0  0  0  0  0
   25.9560  -21.6100  -16.1262 C   0  0  0  0  0  0  0  0  0  0  0  0
   25.5403  -21.6888  -13.7171 O   0  0  0  0  0  0  0  0  0  0  0  0
   25.9774  -22.8682  -13.5489 O   0  0  0  0  0  0  0  0  0  0  0  0
   19.6456  -23.2031  -11.1592 C   0  0  0  0  0  0  0  0  0  0  0  0
   29.3854  -19.9055   -6.0254 C   0  0  0  0  0  0  0  0  0  0  0  0
   28.8103  -19.8840   -7.2914 C   0  0  0  0  0  0  0  0  0  0  0  0
   27.7861  -19.0144   -7.6245 C   0  0  0  0  0  0  0  0  0  0  0  0
   27.2075  -18.9768   -8.8614 C   0  0  0  0  0  0  0  0  0  0  0  0
   27.6751  -19.8581   -9.8280 C   0  0  2  0  0  0  0  0  0  0  0  0
   27.0490  -19.8166  -11.1517 N   0  0  0  0  0  0  0  0  0  0  0  0
   26.1140  -20.9436  -11.4455 C   0  0  0  0  0  0  0  0  0  0  0  0
   25.5032  -20.6967  -12.7269 O   0  0  0  0  0  0  0  0  0  0  0  0
   25.0719  -21.1774  -10.4439 C   0  0  0  0  0  0  0  0  0  0  0  0
   25.2919  -21.9326   -9.4680 C   0  0  0  0  0  0  0  0  0  0  0  0
   28.6868  -20.7370   -9.5451 O   0  0  0  0  0  0  0  0  0  0  0  0
  2  3  2  0
  2  1  1  0
  4  2  1  0
  5  4  1  0
  6  5  1  0
  7  8  1  0
  7  6  1  0
  8 10  1  0
  8  9  1  1
 10 11  2  0
 13 15  1  0
 13 12  1  0
 14 13  2  0
 16 15  1  0
 17 16  1  0
 17 18  1  0
 19 18  1  6
 20 10  1  0
 20 19  1  0
 21 19  1  0
 21 30  1  0
 22 21  2  0
 23 24  1  0
 24 25  2  0
 25 26  1  0
 27 28  1  0
 27 26  2  0
 29 31  1  0
 29 30  1  0
 29 28  1  1
 31 35  1  0
 32 31  2  0
 33 27  1  0
 34 33  2  0
 34 24  1  0
M  END
$$$$
