RRY.pdb
     RDKit          3D

 35 35  0  0  1  0  0  0  0  0999 V2000
   16.4657  -24.0454  -15.8642 N   0  0  0  0  0  0  0  0  0  0  0  0
   15.9912  -23.2378  -14.7790 C   0  0  0  0  0  0  0  0  0  0  0  0
   14.9670  -23.6038  -14.0833 N   0  0  0  0  0  0  0  0  0  0  0  0
   16.6286  -22.0204  -14.4380 N   0  0  0  0  0  0  0  0  0  0  0  0
   17.7456  -21.4531  -15.1976 C   0  0  0  0  0  0  0  0  0  0  0  0
   19.0448  -22.0760  -14.7562 C   0  0  0  0  0  0  0  0  0  0  0  0
   19.4205  -21.8240  -13.3401 C   0  0  0  0  0  0  0  0  0  0  0  0
   20.3466  -20.6730  -13.0931 C   0  0  2  0  0  0  0  0  0  0  0  0
   20.5269  -19.8108  -14.2296 N   0  0  0  0  0  0  0  0  0  0  0  0
   21.7078  -21.2773  -12.7966 C   0  0  0  0  0  0  0  0  0  0  0  0
   21.8624  -21.9796  -11.7659 O   0  0  0  0  0  0  0  0  0  0  0  0
   14.6054  -23.0386  -13.3080 N   0  0  0  0  0  0  0  0  0  0  0  0
   27.2725  -25.3030  -16.0841 C   0  0  0  0  0  0  0  0  0  0  0  0
   26.1846  -24.6971  -16.8285 N   0  0  0  0  0  0  0  0  0  0  0  0
   25.4013  -25.4402  -17.5218 N   0  0  0  0  0  0  0  0  0  0  0  0
   25.9956  -23.2988  -16.7850 C   0  0  0  0  0  0  0  0  0  0  0  0
   26.8964  -22.4355  -16.0837 C   0  0  0  0  0  0  0  0  0  0  0  0
   26.3097  -22.1587  -14.6935 C   0  0  0  0  0  0  0  0  0  0  0  0
   24.8712  -21.7893  -14.8252 C   0  0  1  0  0  0  0  0  0  0  0  0
   24.1288  -21.4762  -13.5662 N   0  0  0  0  0  0  0  0  0  0  0  0
   22.7854  -21.0448  -13.6812 C   0  0  0  0  0  0  0  0  0  0  0  0
   24.9395  -20.7551  -12.5595 O   0  0  0  0  0  0  0  0  0  0  0  0
   24.9264  -19.4889  -12.6421 O   0  0  0  0  0  0  0  0  0  0  0  0
   24.5899  -25.0415  -18.0103 C   0  0  0  0  0  0  0  0  0  0  0  0
   29.0870  -19.2968   -4.9756 C   0  0  0  0  0  0  0  0  0  0  0  0
   28.4811  -19.8876   -6.0791 C   0  0  0  0  0  0  0  0  0  0  0  0
   29.1353  -20.8102   -6.8771 C   0  0  0  0  0  0  0  0  0  0  0  0
   28.5589  -21.4022   -7.9650 C   0  0  0  0  0  0  0  0  0  0  0  0
   27.2511  -21.0562   -8.2804 C   0  0  2  0  0  0  0  0  0  0  0  0
   26.6386  -21.6908   -9.4499 N   0  0  0  0  0  0  0  0  0  0  0  0
   26.4737  -20.8020  -10.6388 C   0  0  0  0  0  0  0  0  0  0  0  0
   25.6537  -21.4907  -11.6029 O   0  0  0  0  0  0  0  0  0  0  0  0
   27.7163  -20.3643  -11.2777 C   0  0  0  0  0  0  0  0  0  0  0  0
   28.4293  -21.1857  -11.9008 C   0  0  0  0  0  0  0  0  0  0  0  0
   26.5632  -20.1480   -7.5200 O   0  0  0  0  0  0  0  0  0  0  0  0
  2  3  2  0
  2  1  1  0
  4  2  1  0
  5  4  1  0
  6  5  1  0
  7  8  1  0
  7  6  1  0
  8 10  1  0
  8  9  1  6
 10 11  2  0
 13 15  1  0
 13 12  1  0
 14 13  2  0
 16 15  1  0
 17 16  1  0
 17 18  1  0
 19 18  1  1
 20 10  1  0
 20 19  1  0
 21 19  1  0
 21 30  1  0
 22 21  2  0
 23 24  1  0
 24 25  2  0
 25 26  1  0
 27 28  1  0
 27 26  2  0
 29 31  1  0
 29 30  1  0
 29 28  1  6
 31 35  1  0
 32 31  2  0
 33 27  1  0
 34 33  2  0
 34 24  1  0
M  END
$$$$
