RRY.pdb
     RDKit          3D

 35 35  0  0  1  0  0  0  0  0999 V2000
   26.0325  -23.5116  -16.3409 N   0  0  0  0  0  0  0  0  0  0  0  0
   27.0661  -24.4192  -16.7443 C   0  0  0  0  0  0  0  0  0  0  0  0
   26.9412  -25.6894  -16.5497 N   0  0  0  0  0  0  0  0  0  0  0  0
   28.2497  -23.9529  -17.3660 N   0  0  0  0  0  0  0  0  0  0  0  0
   28.4625  -22.5558  -17.7523 C   0  0  0  0  0  0  0  0  0  0  0  0
   28.0813  -22.3509  -19.1957 C   0  0  0  0  0  0  0  0  0  0  0  0
   26.9598  -21.4029  -19.4274 C   0  0  0  0  0  0  0  0  0  0  0  0
   27.2834  -19.9462  -19.2964 C   0  0  2  0  0  0  0  0  0  0  0  0
   28.6236  -19.6810  -18.8479 N   0  0  0  0  0  0  0  0  0  0  0  0
   26.3588  -19.3992  -18.2231 C   0  0  0  0  0  0  0  0  0  0  0  0
   26.8145  -19.1592  -17.0767 O   0  0  0  0  0  0  0  0  0  0  0  0
   27.6899  -26.3516  -16.7786 N   0  0  0  0  0  0  0  0  0  0  0  0
   19.2506  -14.7140  -19.9823 C   0  0  0  0  0  0  0  0  0  0  0  0
   20.6728  -14.9151  -20.1865 N   0  0  0  0  0  0  0  0  0  0  0  0
   21.2587  -14.3371  -21.1709 N   0  0  0  0  0  0  0  0  0  0  0  0
   21.4001  -15.7424  -19.3036 C   0  0  0  0  0  0  0  0  0  0  0  0
   20.7481  -16.6097  -18.3702 C   0  0  0  0  0  0  0  0  0  0  0  0
   21.8242  -17.2738  -17.5015 C   0  0  0  0  0  0  0  0  0  0  0  0
   22.8710  -17.8732  -18.3779 C   0  0  1  0  0  0  0  0  0  0  0  0
   24.0021  -18.5811  -17.7042 N   0  0  0  0  0  0  0  0  0  0  0  0
   24.9977  -19.1655  -18.5235 C   0  0  0  0  0  0  0  0  0  0  0  0
   23.5874  -19.3929  -16.5381 O   0  0  0  0  0  0  0  0  0  0  0  0
   23.2765  -20.5981  -16.7851 O   0  0  0  0  0  0  0  0  0  0  0  0
   22.2613  -14.4787  -21.3460 C   0  0  0  0  0  0  0  0  0  0  0  0
   22.6179  -21.4657   -8.0091 C   0  0  0  0  0  0  0  0  0  0  0  0
   22.8924  -20.8330   -9.2166 C   0  0  0  0  0  0  0  0  0  0  0  0
   24.0595  -21.0634   -9.9245 C   0  0  0  0  0  0  0  0  0  0  0  0
   24.3487  -20.4527  -11.1117 C   0  0  0  0  0  0  0  0  0  0  0  0
   23.4211  -19.5571  -11.6284 C   0  0  1  0  0  0  0  0  0  0  0  0
   23.7374  -18.9020  -12.8998 N   0  0  0  0  0  0  0  0  0  0  0  0
   23.2167  -19.5953  -14.1160 C   0  0  0  0  0  0  0  0  0  0  0  0
   23.5625  -18.8008  -15.2672 O   0  0  0  0  0  0  0  0  0  0  0  0
   21.7775  -19.8647  -14.1222 C   0  0  0  0  0  0  0  0  0  0  0  0
   20.9772  -19.0110  -14.5716 C   0  0  0  0  0  0  0  0  0  0  0  0
   22.2520  -19.2970  -10.9638 O   0  0  0  0  0  0  0  0  0  0  0  0
  2  3  2  0
  2  1  1  0
  4  2  1  0
  5  4  1  0
  6  5  1  0
  7  8  1  0
  7  6  1  0
  8 10  1  0
  8  9  1  1
 10 11  2  0
 13 15  1  0
 13 12  1  0
 14 13  2  0
 16 15  1  0
 17 16  1  0
 17 18  1  0
 19 18  1  1
 20 10  1  0
 20 19  1  0
 21 19  1  0
 21 30  1  0
 22 21  2  0
 23 24  1  0
 24 25  2  0
 25 26  1  0
 27 28  1  0
 27 26  2  0
 29 31  1  0
 29 30  1  0
 29 28  1  1
 31 35  1  0
 32 31  2  0
 33 27  1  0
 34 33  2  0
 34 24  1  0
M  END
$$$$
