RRY.pdb
     RDKit          3D

 35 35  0  0  1  0  0  0  0  0999 V2000
   29.0900  -27.5892  -16.0594 N   0  0  0  0  0  0  0  0  0  0  0  0
   28.1476  -27.3067  -17.1019 C   0  0  0  0  0  0  0  0  0  0  0  0
   27.7233  -28.2458  -17.8797 N   0  0  0  0  0  0  0  0  0  0  0  0
   27.6549  -25.9955  -17.3091 N   0  0  0  0  0  0  0  0  0  0  0  0
   28.5189  -24.8353  -17.5403 C   0  0  0  0  0  0  0  0  0  0  0  0
   29.1725  -24.4079  -16.2515 C   0  0  0  0  0  0  0  0  0  0  0  0
   28.9159  -23.0008  -15.8460 C   0  0  0  0  0  0  0  0  0  0  0  0
   27.7055  -22.3484  -16.4401 C   0  0  2  0  0  0  0  0  0  0  0  0
   27.9860  -21.5213  -17.5823 N   0  0  0  0  0  0  0  0  0  0  0  0
   27.1514  -21.4240  -15.3704 C   0  0  0  0  0  0  0  0  0  0  0  0
   27.8755  -20.5060  -14.9096 O   0  0  0  0  0  0  0  0  0  0  0  0
   27.0057  -28.0795  -18.5929 N   0  0  0  0  0  0  0  0  0  0  0  0
   19.9665  -17.6586  -14.2859 C   0  0  0  0  0  0  0  0  0  0  0  0
   20.5881  -18.5848  -15.2134 N   0  0  0  0  0  0  0  0  0  0  0  0
   20.4509  -18.4035  -16.4762 N   0  0  0  0  0  0  0  0  0  0  0  0
   21.3375  -19.6756  -14.7221 C   0  0  0  0  0  0  0  0  0  0  0  0
   21.4386  -19.9540  -13.3218 C   0  0  0  0  0  0  0  0  0  0  0  0
   22.9261  -20.0460  -12.9580 C   0  0  0  0  0  0  0  0  0  0  0  0
   23.6861  -20.6095  -14.1105 C   0  0  1  0  0  0  0  0  0  0  0  0
   25.1414  -20.8796  -13.9019 N   0  0  0  0  0  0  0  0  0  0  0  0
   25.8293  -21.6045  -14.9046 C   0  0  0  0  0  0  0  0  0  0  0  0
   25.4867  -21.2446  -12.5097 O   0  0  0  0  0  0  0  0  0  0  0  0
   25.1237  -22.4012  -12.1345 O   0  0  0  0  0  0  0  0  0  0  0  0
   20.8483  -19.0681  -17.1517 C   0  0  0  0  0  0  0  0  0  0  0  0
   29.1122  -20.4180   -4.4989 C   0  0  0  0  0  0  0  0  0  0  0  0
   28.7375  -20.2605   -5.8288 C   0  0  0  0  0  0  0  0  0  0  0  0
   29.2887  -21.0181   -6.8478 C   0  0  0  0  0  0  0  0  0  0  0  0
   28.9351  -20.8795   -8.1600 C   0  0  0  0  0  0  0  0  0  0  0  0
   27.9741  -19.9290   -8.4805 C   0  0  1  0  0  0  0  0  0  0  0  0
   27.6009  -19.7814   -9.8892 N   0  0  0  0  0  0  0  0  0  0  0  0
   26.4624  -20.6388  -10.3358 C   0  0  0  0  0  0  0  0  0  0  0  0
   26.1730  -20.3190  -11.7106 O   0  0  0  0  0  0  0  0  0  0  0  0
   25.2383  -20.5283   -9.5400 C   0  0  0  0  0  0  0  0  0  0  0  0
   25.0654  -21.2664   -8.5417 C   0  0  0  0  0  0  0  0  0  0  0  0
   27.4004  -19.1558   -7.5062 O   0  0  0  0  0  0  0  0  0  0  0  0
  2  3  2  0
  2  1  1  0
  4  2  1  0
  5  4  1  0
  6  5  1  0
  7  8  1  0
  7  6  1  0
  8 10  1  0
  8  9  1  6
 10 11  2  0
 13 15  1  0
 13 12  1  0
 14 13  2  0
 16 15  1  0
 17 16  1  0
 17 18  1  0
 19 18  1  6
 20 10  1  0
 20 19  1  0
 21 19  1  0
 21 30  1  0
 22 21  2  0
 23 24  1  0
 24 25  2  0
 25 26  1  0
 27 28  1  0
 27 26  2  0
 29 31  1  0
 29 30  1  0
 29 28  1  1
 31 35  1  0
 32 31  2  0
 33 27  1  0
 34 33  2  0
 34 24  1  0
M  END
$$$$
