WDM.pdb
     RDKit          3D

 31 32  0  0  1  0  0  0  0  0999 V2000
    6.7316  -17.6221   23.8542 N   0  0  0  0  0  0  0  0  0  0  0  0
    7.8873  -16.7774   23.4762 C   0  0  1  0  0  0  0  0  0  0  0  0
    8.2548  -15.9468   24.6680 C   0  0  0  0  0  0  0  0  0  0  0  0
    7.2328  -15.0098   25.1519 C   0  0  0  0  0  0  0  0  0  0  0  0
    6.1868  -15.2928   26.0417 C   0  0  0  0  0  0  0  0  0  0  0  0
    5.4381  -14.2095   26.2361 N   0  0  0  0  0  0  0  0  0  0  0  0
    5.9461  -13.1917   25.5016 C   0  0  0  0  0  0  0  0  0  0  0  0
    5.5358  -11.8800   25.3774 C   0  0  0  0  0  0  0  0  0  0  0  0
    6.2353  -11.0138   24.5681 C   0  0  0  0  0  0  0  0  0  0  0  0
    7.3544  -11.4964   23.8882 C   0  0  0  0  0  0  0  0  0  0  0  0
    7.7477  -12.8003   24.0219 C   0  0  0  0  0  0  0  0  0  0  0  0
    7.0647  -13.6851   24.8241 C   0  0  0  0  0  0  0  0  0  0  0  0
    8.9995  -17.5723   22.9449 C   0  0  0  0  0  0  0  0  0  0  0  0
    9.2101  -18.7066   23.4160 O   0  0  0  0  0  0  0  0  0  0  0  0
    9.8673  -17.1117   21.9022 N   0  0  0  0  0  0  0  0  0  0  0  0
   11.2709  -17.4038   21.9511 C   0  0  1  0  0  0  0  0  0  0  0  0
   11.9505  -16.6578   20.7953 C   0  0  0  0  0  0  0  0  0  0  0  0
   11.3693  -17.1936   19.5332 C   0  0  0  0  0  0  0  0  0  0  0  0
   11.1159  -18.4133   19.3731 O   0  0  0  0  0  0  0  0  0  0  0  0
   11.9062  -16.9080   23.2073 C   0  0  0  0  0  0  0  0  0  0  0  0
   12.3107  -15.7192   23.3240 O   0  0  0  0  0  0  0  0  0  0  0  0
   11.0900  -16.3334   18.4846 O   0  0  0  0  0  0  0  0  0  0  0  0
   11.3585  -13.7888   28.6412 C   0  0  0  0  0  0  0  0  0  0  0  0
   11.3759  -15.5697   28.9705 S   0  0  0  0  0  0  0  0  0  0  0  0
   12.4405  -16.4483   27.8068 C   0  0  0  0  0  0  0  0  0  0  0  0
   11.6990  -16.7023   26.5097 C   0  0  0  0  0  0  0  0  0  0  0  0
   12.7399  -17.3057   25.5573 C   0  0  2  0  0  0  0  0  0  0  0  0
   12.0905  -17.7468   24.3400 N   0  0  0  0  0  0  0  0  0  0  0  0
   13.2800  -18.5073   26.2411 C   0  0  0  0  0  0  0  0  0  0  0  0
   14.1827  -18.3853   27.2952 O   0  0  0  0  0  0  0  0  0  0  0  0
   12.9610  -19.6856   25.9160 O   0  0  0  0  0  0  0  0  0  0  0  0
  2  1  1  1
  2  3  1  0
  4  3  1  0
  5  4  2  0
  6  5  1  0
  7  6  1  0
  7 12  2  0
  8  7  1  0
  9  8  2  0
  9 10  1  0
 10 11  2  0
 11 12  1  0
 12  4  1  0
 13  2  1  0
 14 13  2  0
 15 13  1  0
 16 15  1  0
 16 17  1  6
 17 18  1  0
 18 22  1  0
 19 18  2  0
 20 21  2  0
 20 16  1  0
 23 24  1  0
 24 25  1  0
 25 26  1  0
 27 26  1  1
 27 29  1  0
 27 28  1  0
 28 20  1  0
 29 30  1  0
 31 29  2  0
M  END
$$$$
