WDM.pdb
     RDKit          3D

 31 32  0  0  1  0  0  0  0  0999 V2000
    6.6772  -18.3270   24.0707 N   0  0  0  0  0  0  0  0  0  0  0  0
    7.6534  -17.2145   24.0328 C   0  0  1  0  0  0  0  0  0  0  0  0
    7.6220  -16.5341   25.3675 C   0  0  0  0  0  0  0  0  0  0  0  0
    6.7067  -15.3931   25.4982 C   0  0  0  0  0  0  0  0  0  0  0  0
    5.5228  -15.3469   26.2480 C   0  0  0  0  0  0  0  0  0  0  0  0
    4.9356  -14.1599   26.1140 N   0  0  0  0  0  0  0  0  0  0  0  0
    5.6886  -13.3922   25.2911 C   0  0  0  0  0  0  0  0  0  0  0  0
    5.5100  -12.0939   24.8588 C   0  0  0  0  0  0  0  0  0  0  0  0
    6.4363  -11.5134   24.0224 C   0  0  0  0  0  0  0  0  0  0  0  0
    7.5437  -12.2673   23.6316 C   0  0  0  0  0  0  0  0  0  0  0  0
    7.7057  -13.5538   24.0689 C   0  0  0  0  0  0  0  0  0  0  0  0
    6.7936  -14.1560   24.9046 C   0  0  0  0  0  0  0  0  0  0  0  0
    8.9895  -17.6682   23.6327 C   0  0  0  0  0  0  0  0  0  0  0  0
    9.2930  -18.8663   23.7916 O   0  0  0  0  0  0  0  0  0  0  0  0
    9.9765  -16.8003   23.0627 N   0  0  0  0  0  0  0  0  0  0  0  0
   11.3696  -17.1258   23.1677 C   0  0  1  0  0  0  0  0  0  0  0  0
   12.1448  -16.2015   22.2196 C   0  0  0  0  0  0  0  0  0  0  0  0
   11.7938  -16.6122   20.8319 C   0  0  0  0  0  0  0  0  0  0  0  0
   11.5235  -17.8008   20.5293 O   0  0  0  0  0  0  0  0  0  0  0  0
   11.9053  -16.8734   24.5377 C   0  0  0  0  0  0  0  0  0  0  0  0
   13.0179  -16.3095   24.7235 O   0  0  0  0  0  0  0  0  0  0  0  0
   11.7580  -15.6651   19.8222 O   0  0  0  0  0  0  0  0  0  0  0  0
   10.6550  -12.2260   28.2600 C   0  0  0  0  0  0  0  0  0  0  0  0
   10.3555  -13.9593   28.6915 S   0  0  0  0  0  0  0  0  0  0  0  0
   11.2587  -15.0793   27.6010 C   0  0  0  0  0  0  0  0  0  0  0  0
   11.0354  -16.5165   28.0271 C   0  0  0  0  0  0  0  0  0  0  0  0
   11.8108  -17.3671   27.0122 C   0  0  2  0  0  0  0  0  0  0  0  0
   11.1926  -17.2543   25.7071 N   0  0  0  0  0  0  0  0  0  0  0  0
   11.6693  -18.7757   27.4580 C   0  0  0  0  0  0  0  0  0  0  0  0
   12.3154  -19.2314   28.6050 O   0  0  0  0  0  0  0  0  0  0  0  0
   10.9706  -19.6265   26.8386 O   0  0  0  0  0  0  0  0  0  0  0  0
  2  1  1  1
  2  3  1  0
  4  3  1  0
  5  4  2  0
  6  5  1  0
  7  6  1  0
  7 12  2  0
  8  7  1  0
  9  8  2  0
  9 10  1  0
 10 11  2  0
 11 12  1  0
 12  4  1  0
 13  2  1  0
 14 13  2  0
 15 13  1  0
 16 15  1  0
 16 17  1  6
 17 18  1  0
 18 22  1  0
 19 18  2  0
 20 21  2  0
 20 16  1  0
 23 24  1  0
 24 25  1  0
 25 26  1  0
 27 26  1  1
 27 29  1  0
 27 28  1  0
 28 20  1  0
 29 30  1  0
 31 29  2  0
M  END
$$$$
