WDM.pdb
     RDKit          3D

 31 32  0  0  1  0  0  0  0  0999 V2000
    6.5691  -17.4788   22.3499 N   0  0  0  0  0  0  0  0  0  0  0  0
    7.7088  -16.6364   21.9212 C   0  0  1  0  0  0  0  0  0  0  0  0
    7.3913  -15.2185   22.2870 C   0  0  0  0  0  0  0  0  0  0  0  0
    6.8096  -15.0013   23.6179 C   0  0  0  0  0  0  0  0  0  0  0  0
    6.0790  -15.9264   24.3770 C   0  0  0  0  0  0  0  0  0  0  0  0
    5.6849  -15.3765   25.5234 N   0  0  0  0  0  0  0  0  0  0  0  0
    6.1281  -14.0979   25.5679 C   0  0  0  0  0  0  0  0  0  0  0  0
    5.9894  -13.1313   26.5430 C   0  0  0  0  0  0  0  0  0  0  0  0
    6.5520  -11.8878   26.3644 C   0  0  0  0  0  0  0  0  0  0  0  0
    7.2555  -11.6396   25.1851 C   0  0  0  0  0  0  0  0  0  0  0  0
    7.3834  -12.6090   24.2276 C   0  0  0  0  0  0  0  0  0  0  0  0
    6.8297  -13.8590   24.3828 C   0  0  0  0  0  0  0  0  0  0  0  0
    8.9831  -17.1158   22.4668 C   0  0  0  0  0  0  0  0  0  0  0  0
    8.9708  -17.8507   23.4730 O   0  0  0  0  0  0  0  0  0  0  0  0
   10.2559  -16.7821   21.9002 N   0  0  0  0  0  0  0  0  0  0  0  0
   11.4628  -17.2745   22.4991 C   0  0  1  0  0  0  0  0  0  0  0  0
   12.6324  -16.9129   21.5742 C   0  0  0  0  0  0  0  0  0  0  0  0
   12.4051  -17.6295   20.2887 C   0  0  0  0  0  0  0  0  0  0  0  0
   12.0053  -18.8192   20.2426 O   0  0  0  0  0  0  0  0  0  0  0  0
   11.7452  -16.6253   23.8131 C   0  0  0  0  0  0  0  0  0  0  0  0
   12.0884  -15.4147   23.8969 O   0  0  0  0  0  0  0  0  0  0  0  0
   12.6367  -16.9795   19.0881 O   0  0  0  0  0  0  0  0  0  0  0  0
   10.6262  -13.5828   30.4248 C   0  0  0  0  0  0  0  0  0  0  0  0
   10.4980  -13.8213   28.6340 S   0  0  0  0  0  0  0  0  0  0  0  0
   11.1259  -15.4384   28.1342 C   0  0  0  0  0  0  0  0  0  0  0  0
   11.1616  -15.5406   26.6225 C   0  0  0  0  0  0  0  0  0  0  0  0
   12.0282  -16.7699   26.3180 C   0  0  2  0  0  0  0  0  0  0  0  0
   11.6434  -17.3344   25.0408 N   0  0  0  0  0  0  0  0  0  0  0  0
   11.7112  -17.7706   27.3673 C   0  0  0  0  0  0  0  0  0  0  0  0
   10.9585  -18.9046   27.0702 O   0  0  0  0  0  0  0  0  0  0  0  0
   12.0961  -17.6571   28.5651 O   0  0  0  0  0  0  0  0  0  0  0  0
  2  1  1  1
  2  3  1  0
  4  3  1  0
  5  4  2  0
  6  5  1  0
  7  6  1  0
  7 12  2  0
  8  7  1  0
  9  8  2  0
  9 10  1  0
 10 11  2  0
 11 12  1  0
 12  4  1  0
 13  2  1  0
 14 13  2  0
 15 13  1  0
 16 15  1  0
 16 17  1  6
 17 18  1  0
 18 22  1  0
 19 18  2  0
 20 21  2  0
 20 16  1  0
 23 24  1  0
 24 25  1  0
 25 26  1  0
 27 26  1  1
 27 29  1  0
 27 28  1  0
 28 20  1  0
 29 30  1  0
 31 29  2  0
M  END
$$$$
