WDM.pdb
     RDKit          3D

 31 32  0  0  1  0  0  0  0  0999 V2000
    6.4429  -19.2321   22.8958 N   0  0  0  0  0  0  0  0  0  0  0  0
    7.1940  -17.9568   22.8560 C   0  0  1  0  0  0  0  0  0  0  0  0
    6.3666  -16.9180   23.5501 C   0  0  0  0  0  0  0  0  0  0  0  0
    6.7609  -15.5194   23.3381 C   0  0  0  0  0  0  0  0  0  0  0  0
    7.2744  -14.9602   22.1593 C   0  0  0  0  0  0  0  0  0  0  0  0
    7.5447  -13.6693   22.3384 N   0  0  0  0  0  0  0  0  0  0  0  0
    7.2285  -13.3307   23.6107 C   0  0  0  0  0  0  0  0  0  0  0  0
    7.3145  -12.1199   24.2671 C   0  0  0  0  0  0  0  0  0  0  0  0
    6.9108  -12.0180   25.5790 C   0  0  0  0  0  0  0  0  0  0  0  0
    6.4200  -13.1596   26.2141 C   0  0  0  0  0  0  0  0  0  0  0  0
    6.3418  -14.3531   25.5490 C   0  0  0  0  0  0  0  0  0  0  0  0
    6.7395  -14.4801   24.2380 C   0  0  0  0  0  0  0  0  0  0  0  0
    8.5469  -18.0976   23.4046 C   0  0  0  0  0  0  0  0  0  0  0  0
    8.6896  -18.5908   24.5401 O   0  0  0  0  0  0  0  0  0  0  0  0
    9.7270  -17.6949   22.6993 N   0  0  0  0  0  0  0  0  0  0  0  0
   11.0168  -17.8410   23.3100 C   0  0  1  0  0  0  0  0  0  0  0  0
   12.0767  -17.4130   22.2865 C   0  0  0  0  0  0  0  0  0  0  0  0
   13.4042  -17.7473   22.8726 C   0  0  0  0  0  0  0  0  0  0  0  0
   13.7052  -18.9106   23.2383 O   0  0  0  0  0  0  0  0  0  0  0  0
   11.1845  -16.9468   24.4931 C   0  0  0  0  0  0  0  0  0  0  0  0
   11.3137  -15.6983   24.3704 O   0  0  0  0  0  0  0  0  0  0  0  0
   14.3570  -16.7547   23.0295 O   0  0  0  0  0  0  0  0  0  0  0  0
    9.5340  -12.3117   28.0076 C   0  0  0  0  0  0  0  0  0  0  0  0
    9.5378  -13.7873   29.0579 S   0  0  0  0  0  0  0  0  0  0  0  0
   10.8198  -14.9549   28.5555 C   0  0  0  0  0  0  0  0  0  0  0  0
   10.3675  -15.7352   27.3376 C   0  0  0  0  0  0  0  0  0  0  0  0
   11.5504  -16.6421   26.9728 C   0  0  2  0  0  0  0  0  0  0  0  0
   11.2083  -17.4518   25.8216 N   0  0  0  0  0  0  0  0  0  0  0  0
   11.7428  -17.5564   28.1261 C   0  0  0  0  0  0  0  0  0  0  0  0
   12.1600  -17.0697   29.3629 O   0  0  0  0  0  0  0  0  0  0  0  0
   11.5442  -18.8021   28.0572 O   0  0  0  0  0  0  0  0  0  0  0  0
  2  1  1  1
  2  3  1  0
  4  3  1  0
  5  4  2  0
  6  5  1  0
  7  6  1  0
  7 12  2  0
  8  7  1  0
  9  8  2  0
  9 10  1  0
 10 11  2  0
 11 12  1  0
 12  4  1  0
 13  2  1  0
 14 13  2  0
 15 13  1  0
 16 15  1  0
 16 17  1  6
 17 18  1  0
 18 22  1  0
 19 18  2  0
 20 21  2  0
 20 16  1  0
 23 24  1  0
 24 25  1  0
 25 26  1  0
 27 26  1  1
 27 29  1  0
 27 28  1  0
 28 20  1  0
 29 30  1  0
 31 29  2  0
M  END
$$$$
