WDM.pdb
     RDKit          3D

 31 32  0  0  1  0  0  0  0  0999 V2000
    6.6697  -19.2738   22.9355 N   0  0  0  0  0  0  0  0  0  0  0  0
    7.3127  -17.9540   22.7431 C   0  0  1  0  0  0  0  0  0  0  0  0
    6.4835  -16.9334   23.4615 C   0  0  0  0  0  0  0  0  0  0  0  0
    6.8660  -15.5285   23.2704 C   0  0  0  0  0  0  0  0  0  0  0  0
    7.4197  -14.9577   22.1156 C   0  0  0  0  0  0  0  0  0  0  0  0
    7.6637  -13.6636   22.3098 N   0  0  0  0  0  0  0  0  0  0  0  0
    7.2902  -13.3343   23.5690 C   0  0  0  0  0  0  0  0  0  0  0  0
    7.3314  -12.1249   24.2321 C   0  0  0  0  0  0  0  0  0  0  0  0
    6.8724  -12.0337   25.5265 C   0  0  0  0  0  0  0  0  0  0  0  0
    6.3722  -13.1845   26.1371 C   0  0  0  0  0  0  0  0  0  0  0  0
    6.3388  -14.3765   25.4656 C   0  0  0  0  0  0  0  0  0  0  0  0
    6.7923  -14.4929   24.1719 C   0  0  0  0  0  0  0  0  0  0  0  0
    8.7214  -17.9635   23.1510 C   0  0  0  0  0  0  0  0  0  0  0  0
    9.0573  -18.6341   24.1462 O   0  0  0  0  0  0  0  0  0  0  0  0
    9.7446  -17.2362   22.4608 N   0  0  0  0  0  0  0  0  0  0  0  0
   11.1051  -17.3036   22.9104 C   0  0  1  0  0  0  0  0  0  0  0  0
   11.9671  -16.4910   21.9354 C   0  0  0  0  0  0  0  0  0  0  0  0
   12.8531  -17.4589   21.2311 C   0  0  0  0  0  0  0  0  0  0  0  0
   13.2468  -17.2769   20.0524 O   0  0  0  0  0  0  0  0  0  0  0  0
   11.2855  -16.6818   24.2551 C   0  0  0  0  0  0  0  0  0  0  0  0
   11.5610  -15.4586   24.3910 O   0  0  0  0  0  0  0  0  0  0  0  0
   13.2704  -18.6084   21.8806 O   0  0  0  0  0  0  0  0  0  0  0  0
    9.2297  -12.7488   28.4577 C   0  0  0  0  0  0  0  0  0  0  0  0
    9.1093  -14.4281   29.1253 S   0  0  0  0  0  0  0  0  0  0  0  0
   10.4625  -15.4715   28.5426 C   0  0  0  0  0  0  0  0  0  0  0  0
   10.1708  -15.9714   27.1419 C   0  0  0  0  0  0  0  0  0  0  0  0
   11.3622  -16.8651   26.7724 C   0  0  2  0  0  0  0  0  0  0  0  0
   11.1573  -17.4324   25.4554 N   0  0  0  0  0  0  0  0  0  0  0  0
   11.3613  -17.9822   27.7497 C   0  0  0  0  0  0  0  0  0  0  0  0
   11.7944  -17.7872   29.0593 O   0  0  0  0  0  0  0  0  0  0  0  0
   10.9766  -19.1499   27.4595 O   0  0  0  0  0  0  0  0  0  0  0  0
  2  1  1  1
  2  3  1  0
  4  3  1  0
  5  4  2  0
  6  5  1  0
  7  6  1  0
  7 12  2  0
  8  7  1  0
  9  8  2  0
  9 10  1  0
 10 11  2  0
 11 12  1  0
 12  4  1  0
 13  2  1  0
 14 13  2  0
 15 13  1  0
 16 15  1  0
 16 17  1  6
 17 18  1  0
 18 22  1  0
 19 18  2  0
 20 21  2  0
 20 16  1  0
 23 24  1  0
 24 25  1  0
 25 26  1  0
 27 26  1  1
 27 29  1  0
 27 28  1  0
 28 20  1  0
 29 30  1  0
 31 29  2  0
M  END
$$$$
