WDM.pdb
     RDKit          3D

 31 32  0  0  1  0  0  0  0  0999 V2000
    6.5102  -18.2538   24.1215 N   0  0  0  0  0  0  0  0  0  0  0  0
    7.5593  -17.2090   24.1107 C   0  0  1  0  0  0  0  0  0  0  0  0
    7.7335  -16.7225   25.5172 C   0  0  0  0  0  0  0  0  0  0  0  0
    7.0250  -15.4866   25.8738 C   0  0  0  0  0  0  0  0  0  0  0  0
    5.8646  -15.3778   26.6532 C   0  0  0  0  0  0  0  0  0  0  0  0
    5.4879  -14.1048   26.7482 N   0  0  0  0  0  0  0  0  0  0  0  0
    6.3621  -13.3391   26.0533 C   0  0  0  0  0  0  0  0  0  0  0  0
    6.4076  -11.9730   25.8630 C   0  0  0  0  0  0  0  0  0  0  0  0
    7.4209  -11.4155   25.1167 C   0  0  0  0  0  0  0  0  0  0  0  0
    8.3850  -12.2618   24.5673 C   0  0  0  0  0  0  0  0  0  0  0  0
    8.3251  -13.6145   24.7651 C   0  0  0  0  0  0  0  0  0  0  0  0
    7.3221  -14.1953   25.5065 C   0  0  0  0  0  0  0  0  0  0  0  0
    8.8017  -17.6832   23.4919 C   0  0  0  0  0  0  0  0  0  0  0  0
    9.0722  -18.8988   23.5354 O   0  0  0  0  0  0  0  0  0  0  0  0
    9.7322  -16.8161   22.8325 N   0  0  0  0  0  0  0  0  0  0  0  0
   11.0663  -17.2658   22.5578 C   0  0  1  0  0  0  0  0  0  0  0  0
   11.7161  -16.2621   21.5963 C   0  0  0  0  0  0  0  0  0  0  0  0
   13.0662  -16.7944   21.2623 C   0  0  0  0  0  0  0  0  0  0  0  0
   13.2626  -18.0020   20.9786 O   0  0  0  0  0  0  0  0  0  0  0  0
   11.9166  -17.2894   23.7842 C   0  0  0  0  0  0  0  0  0  0  0  0
   13.0712  -17.7967   23.7837 O   0  0  0  0  0  0  0  0  0  0  0  0
   14.1594  -15.9445   21.2584 O   0  0  0  0  0  0  0  0  0  0  0  0
    9.3631  -12.6502   28.0358 C   0  0  0  0  0  0  0  0  0  0  0  0
   11.0147  -13.3814   27.9018 S   0  0  0  0  0  0  0  0  0  0  0  0
   10.9727  -14.9558   27.0194 C   0  0  0  0  0  0  0  0  0  0  0  0
   12.3627  -15.5566   26.9565 C   0  0  0  0  0  0  0  0  0  0  0  0
   12.1876  -16.9162   26.2668 C   0  0  2  0  0  0  0  0  0  0  0  0
   11.4729  -16.7424   25.0189 N   0  0  0  0  0  0  0  0  0  0  0  0
   11.3327  -17.7303   27.1664 C   0  0  0  0  0  0  0  0  0  0  0  0
   11.8262  -18.2177   28.3746 O   0  0  0  0  0  0  0  0  0  0  0  0
   10.1338  -18.0233   26.8971 O   0  0  0  0  0  0  0  0  0  0  0  0
  2  1  1  1
  2  3  1  0
  4  3  1  0
  5  4  2  0
  6  5  1  0
  7  6  1  0
  7 12  2  0
  8  7  1  0
  9  8  2  0
  9 10  1  0
 10 11  2  0
 11 12  1  0
 12  4  1  0
 13  2  1  0
 14 13  2  0
 15 13  1  0
 16 15  1  0
 16 17  1  6
 17 18  1  0
 18 22  1  0
 19 18  2  0
 20 21  2  0
 20 16  1  0
 23 24  1  0
 24 25  1  0
 25 26  1  0
 27 26  1  1
 27 29  1  0
 27 28  1  0
 28 20  1  0
 29 30  1  0
 31 29  2  0
M  END
$$$$
