WDM.pdb
     RDKit          3D

 31 32  0  0  1  0  0  0  0  0999 V2000
    7.9624  -18.3062   21.3434 N   0  0  0  0  0  0  0  0  0  0  0  0
    8.8752  -17.2378   21.8096 C   0  0  1  0  0  0  0  0  0  0  0  0
    8.0373  -16.1560   22.4203 C   0  0  0  0  0  0  0  0  0  0  0  0
    7.3690  -15.2409   21.4863 C   0  0  0  0  0  0  0  0  0  0  0  0
    6.0003  -15.1992   21.1849 C   0  0  0  0  0  0  0  0  0  0  0  0
    5.7547  -14.2590   20.2753 N   0  0  0  0  0  0  0  0  0  0  0  0
    6.9215  -13.6557   19.9467 C   0  0  0  0  0  0  0  0  0  0  0  0
    7.1847  -12.6244   19.0684 C   0  0  0  0  0  0  0  0  0  0  0  0
    8.4726  -12.1641   18.9135 C   0  0  0  0  0  0  0  0  0  0  0  0
    9.4873  -12.7639   19.6605 C   0  0  0  0  0  0  0  0  0  0  0  0
    9.2095  -13.7861   20.5269 C   0  0  0  0  0  0  0  0  0  0  0  0
    7.9307  -14.2638   20.6987 C   0  0  0  0  0  0  0  0  0  0  0  0
    9.9159  -17.7548   22.7045 C   0  0  0  0  0  0  0  0  0  0  0  0
    9.5905  -18.5290   23.6251 O   0  0  0  0  0  0  0  0  0  0  0  0
   11.3019  -17.4152   22.5773 N   0  0  0  0  0  0  0  0  0  0  0  0
   12.1914  -17.5887   23.6892 C   0  0  1  0  0  0  0  0  0  0  0  0
   13.6125  -17.2571   23.2151 C   0  0  0  0  0  0  0  0  0  0  0  0
   14.1104  -18.4486   22.4734 C   0  0  0  0  0  0  0  0  0  0  0  0
   13.7144  -19.6133   22.7265 O   0  0  0  0  0  0  0  0  0  0  0  0
   11.8869  -16.6473   24.8065 C   0  0  0  0  0  0  0  0  0  0  0  0
   12.2631  -15.4439   24.7838 O   0  0  0  0  0  0  0  0  0  0  0  0
   15.0446  -18.2898   21.4636 O   0  0  0  0  0  0  0  0  0  0  0  0
    8.6931  -11.5168   27.7639 C   0  0  0  0  0  0  0  0  0  0  0  0
    8.0656  -13.1725   27.3827 S   0  0  0  0  0  0  0  0  0  0  0  0
    9.2611  -14.4518   27.8225 C   0  0  0  0  0  0  0  0  0  0  0  0
    9.6138  -15.2789   26.6025 C   0  0  0  0  0  0  0  0  0  0  0  0
   10.8011  -16.1512   27.0316 C   0  0  2  0  0  0  0  0  0  0  0  0
   11.1573  -17.0543   25.9566 N   0  0  0  0  0  0  0  0  0  0  0  0
   10.3215  -16.9730   28.1707 C   0  0  0  0  0  0  0  0  0  0  0  0
   10.2027  -16.4269   29.4468 O   0  0  0  0  0  0  0  0  0  0  0  0
    9.9994  -18.1890   28.0543 O   0  0  0  0  0  0  0  0  0  0  0  0
  2  1  1  1
  2  3  1  0
  4  3  1  0
  5  4  2  0
  6  5  1  0
  7  6  1  0
  7 12  2  0
  8  7  1  0
  9  8  2  0
  9 10  1  0
 10 11  2  0
 11 12  1  0
 12  4  1  0
 13  2  1  0
 14 13  2  0
 15 13  1  0
 16 15  1  0
 16 17  1  6
 17 18  1  0
 18 22  1  0
 19 18  2  0
 20 21  2  0
 20 16  1  0
 23 24  1  0
 24 25  1  0
 25 26  1  0
 27 26  1  6
 27 29  1  0
 27 28  1  0
 28 20  1  0
 29 30  1  0
 31 29  2  0
M  END
$$$$
