WDM.pdb
     RDKit          3D

 31 32  0  0  1  0  0  0  0  0999 V2000
    6.6647  -18.7640   22.6591 N   0  0  0  0  0  0  0  0  0  0  0  0
    7.4408  -17.5076   22.7665 C   0  0  1  0  0  0  0  0  0  0  0  0
    6.7123  -16.6005   23.7108 C   0  0  0  0  0  0  0  0  0  0  0  0
    7.1428  -15.1966   23.7314 C   0  0  0  0  0  0  0  0  0  0  0  0
    8.0433  -14.5805   22.8509 C   0  0  0  0  0  0  0  0  0  0  0  0
    8.2174  -13.3038   23.1846 N   0  0  0  0  0  0  0  0  0  0  0  0
    7.4579  -13.0305   24.2717 C   0  0  0  0  0  0  0  0  0  0  0  0
    7.2878  -11.8573   24.9783 C   0  0  0  0  0  0  0  0  0  0  0  0
    6.4347  -11.8217   26.0579 C   0  0  0  0  0  0  0  0  0  0  0  0
    5.7583  -12.9905   26.4095 C   0  0  0  0  0  0  0  0  0  0  0  0
    5.9385  -14.1459   25.6986 C   0  0  0  0  0  0  0  0  0  0  0  0
    6.7860  -14.2067   24.6165 C   0  0  0  0  0  0  0  0  0  0  0  0
    8.8369  -17.7537   23.1429 C   0  0  0  0  0  0  0  0  0  0  0  0
    9.0952  -18.6868   23.9274 O   0  0  0  0  0  0  0  0  0  0  0  0
    9.9327  -16.9717   22.6530 N   0  0  0  0  0  0  0  0  0  0  0  0
   11.2828  -17.3707   22.9282 C   0  0  1  0  0  0  0  0  0  0  0  0
   12.2116  -16.5623   22.0128 C   0  0  0  0  0  0  0  0  0  0  0  0
   13.5903  -17.0832   22.2264 C   0  0  0  0  0  0  0  0  0  0  0  0
   13.8975  -18.2823   22.0140 O   0  0  0  0  0  0  0  0  0  0  0  0
   11.6889  -17.0553   24.3293 C   0  0  0  0  0  0  0  0  0  0  0  0
   12.8920  -17.1153   24.7028 O   0  0  0  0  0  0  0  0  0  0  0  0
   14.5858  -16.2316   22.6752 O   0  0  0  0  0  0  0  0  0  0  0  0
   11.4327  -12.9194   28.3081 C   0  0  0  0  0  0  0  0  0  0  0  0
   10.1503  -14.1070   28.7831 S   0  0  0  0  0  0  0  0  0  0  0  0
    9.4983  -14.9875   27.3483 C   0  0  0  0  0  0  0  0  0  0  0  0
    9.6995  -16.4802   27.5156 C   0  0  0  0  0  0  0  0  0  0  0  0
   10.9833  -16.8072   26.7410 C   0  0  2  0  0  0  0  0  0  0  0  0
   10.7439  -16.6707   25.3190 N   0  0  0  0  0  0  0  0  0  0  0  0
   11.2792  -18.2359   27.0134 C   0  0  0  0  0  0  0  0  0  0  0  0
   12.0106  -18.6133   28.1374 O   0  0  0  0  0  0  0  0  0  0  0  0
   10.8946  -19.1740   26.2598 O   0  0  0  0  0  0  0  0  0  0  0  0
  2  1  1  1
  2  3  1  0
  4  3  1  0
  5  4  2  0
  6  5  1  0
  7  6  1  0
  7 12  2  0
  8  7  1  0
  9  8  2  0
  9 10  1  0
 10 11  2  0
 11 12  1  0
 12  4  1  0
 13  2  1  0
 14 13  2  0
 15 13  1  0
 16 15  1  0
 16 17  1  6
 17 18  1  0
 18 22  1  0
 19 18  2  0
 20 21  2  0
 20 16  1  0
 23 24  1  0
 24 25  1  0
 25 26  1  0
 27 26  1  1
 27 29  1  0
 27 28  1  0
 28 20  1  0
 29 30  1  0
 31 29  2  0
M  END
$$$$
