WDM.pdb
     RDKit          3D

 31 32  0  0  1  0  0  0  0  0999 V2000
    6.7816  -17.4219   24.0889 N   0  0  0  0  0  0  0  0  0  0  0  0
    7.9616  -16.5497   23.8919 C   0  0  1  0  0  0  0  0  0  0  0  0
    8.1652  -15.7655   25.1524 C   0  0  0  0  0  0  0  0  0  0  0  0
    7.1508  -14.7495   25.4612 C   0  0  0  0  0  0  0  0  0  0  0  0
    6.0186  -14.9113   26.2722 C   0  0  0  0  0  0  0  0  0  0  0  0
    5.3086  -13.7860   26.3065 N   0  0  0  0  0  0  0  0  0  0  0  0
    5.9270  -12.8575   25.5391 C   0  0  0  0  0  0  0  0  0  0  0  0
    5.5924  -11.5462   25.2690 C   0  0  0  0  0  0  0  0  0  0  0  0
    6.4008  -10.7829   24.4575 C   0  0  0  0  0  0  0  0  0  0  0  0
    7.5506  -11.3676   23.9252 C   0  0  0  0  0  0  0  0  0  0  0  0
    7.8679  -12.6696   24.2025 C   0  0  0  0  0  0  0  0  0  0  0  0
    7.0757  -13.4528   25.0101 C   0  0  0  0  0  0  0  0  0  0  0  0
    9.1437  -17.3097   23.4719 C   0  0  0  0  0  0  0  0  0  0  0  0
    9.3072  -18.4639   23.9122 O   0  0  0  0  0  0  0  0  0  0  0  0
   10.1321  -16.7926   22.5730 N   0  0  0  0  0  0  0  0  0  0  0  0
   11.4903  -17.2466   22.6566 C   0  0  1  0  0  0  0  0  0  0  0  0
   12.3131  -16.4732   21.6179 C   0  0  0  0  0  0  0  0  0  0  0  0
   11.7843  -16.8515   20.2781 C   0  0  0  0  0  0  0  0  0  0  0  0
   11.3833  -18.0124   20.0156 O   0  0  0  0  0  0  0  0  0  0  0  0
   12.1018  -16.9526   23.9860 C   0  0  0  0  0  0  0  0  0  0  0  0
   12.8707  -15.9685   24.1616 O   0  0  0  0  0  0  0  0  0  0  0  0
   11.7234  -15.9042   19.2698 O   0  0  0  0  0  0  0  0  0  0  0  0
    9.5245  -13.8112   28.6189 C   0  0  0  0  0  0  0  0  0  0  0  0
   10.9759  -14.8727   28.8366 S   0  0  0  0  0  0  0  0  0  0  0  0
   11.4634  -15.6551   27.2844 C   0  0  0  0  0  0  0  0  0  0  0  0
   11.5978  -17.1527   27.4740 C   0  0  0  0  0  0  0  0  0  0  0  0
   12.5661  -17.6165   26.3775 C   0  0  2  0  0  0  0  0  0  0  0  0
   11.8521  -17.7642   25.1259 N   0  0  0  0  0  0  0  0  0  0  0  0
   13.0421  -18.9615   26.7867 C   0  0  0  0  0  0  0  0  0  0  0  0
   13.9814  -19.1087   27.8049 O   0  0  0  0  0  0  0  0  0  0  0  0
   12.6335  -20.0289   26.2488 O   0  0  0  0  0  0  0  0  0  0  0  0
  2  1  1  1
  2  3  1  0
  4  3  1  0
  5  4  2  0
  6  5  1  0
  7  6  1  0
  7 12  2  0
  8  7  1  0
  9  8  2  0
  9 10  1  0
 10 11  2  0
 11 12  1  0
 12  4  1  0
 13  2  1  0
 14 13  2  0
 15 13  1  0
 16 15  1  0
 16 17  1  6
 17 18  1  0
 18 22  1  0
 19 18  2  0
 20 21  2  0
 20 16  1  0
 23 24  1  0
 24 25  1  0
 25 26  1  0
 27 26  1  1
 27 29  1  0
 27 28  1  0
 28 20  1  0
 29 30  1  0
 31 29  2  0
M  END
$$$$
