WDM.pdb
     RDKit          3D

 31 32  0  0  1  0  0  0  0  0999 V2000
    9.0590  -15.6965   24.9567 N   0  0  0  0  0  0  0  0  0  0  0  0
    8.1868  -16.7436   24.3779 C   0  0  1  0  0  0  0  0  0  0  0  0
    7.0626  -16.0574   23.6633 C   0  0  0  0  0  0  0  0  0  0  0  0
    7.1259  -14.5916   23.6005 C   0  0  0  0  0  0  0  0  0  0  0  0
    7.5966  -13.8156   22.5318 C   0  0  0  0  0  0  0  0  0  0  0  0
    7.5298  -12.5211   22.8346 N   0  0  0  0  0  0  0  0  0  0  0  0
    7.0245  -12.3918   24.0841 C   0  0  0  0  0  0  0  0  0  0  0  0
    6.7545  -11.2645   24.8329 C   0  0  0  0  0  0  0  0  0  0  0  0
    6.2181  -11.3885   26.0945 C   0  0  0  0  0  0  0  0  0  0  0  0
    5.9602  -12.6695   26.5843 C   0  0  0  0  0  0  0  0  0  0  0  0
    6.2343  -13.7773   25.8290 C   0  0  0  0  0  0  0  0  0  0  0  0
    6.7710  -13.6792   24.5659 C   0  0  0  0  0  0  0  0  0  0  0  0
    8.9371  -17.6810   23.5356 C   0  0  0  0  0  0  0  0  0  0  0  0
    8.3768  -18.7234   23.1453 O   0  0  0  0  0  0  0  0  0  0  0  0
   10.2942  -17.4622   23.1321 N   0  0  0  0  0  0  0  0  0  0  0  0
   11.3401  -18.3066   23.6330 C   0  0  1  0  0  0  0  0  0  0  0  0
   12.3621  -18.5131   22.5073 C   0  0  0  0  0  0  0  0  0  0  0  0
   12.5142  -17.2033   21.8152 C   0  0  0  0  0  0  0  0  0  0  0  0
   13.2762  -16.3007   22.2418 O   0  0  0  0  0  0  0  0  0  0  0  0
   12.0791  -17.6761   24.7661 C   0  0  0  0  0  0  0  0  0  0  0  0
   12.5045  -16.4905   24.7053 O   0  0  0  0  0  0  0  0  0  0  0  0
   11.7987  -16.9498   20.6570 O   0  0  0  0  0  0  0  0  0  0  0  0
    8.4880  -15.0948   28.6688 C   0  0  0  0  0  0  0  0  0  0  0  0
   10.2219  -14.5800   28.7640 S   0  0  0  0  0  0  0  0  0  0  0  0
   11.3398  -15.9933   28.6530 C   0  0  0  0  0  0  0  0  0  0  0  0
   11.3160  -16.5693   27.2513 C   0  0  0  0  0  0  0  0  0  0  0  0
   12.2929  -17.7524   27.2809 C   0  0  2  0  0  0  0  0  0  0  0  0
   12.3443  -18.3760   25.9745 N   0  0  0  0  0  0  0  0  0  0  0  0
   11.7197  -18.7395   28.2296 C   0  0  0  0  0  0  0  0  0  0  0  0
   12.1380  -18.7816   29.5577 O   0  0  0  0  0  0  0  0  0  0  0  0
   10.8384  -19.5814   27.8975 O   0  0  0  0  0  0  0  0  0  0  0  0
  2  1  1  6
  2  3  1  0
  4  3  1  0
  5  4  2  0
  6  5  1  0
  7  6  1  0
  7 12  2  0
  8  7  1  0
  9  8  2  0
  9 10  1  0
 10 11  2  0
 11 12  1  0
 12  4  1  0
 13  2  1  0
 14 13  2  0
 15 13  1  0
 16 15  1  0
 16 17  1  6
 17 18  1  0
 18 22  1  0
 19 18  2  0
 20 21  2  0
 20 16  1  0
 23 24  1  0
 24 25  1  0
 25 26  1  0
 27 26  1  6
 27 29  1  0
 27 28  1  0
 28 20  1  0
 29 30  1  0
 31 29  2  0
M  END
$$$$
