WDM.pdb
     RDKit          3D

 31 32  0  0  1  0  0  0  0  0999 V2000
    7.7401  -17.2427   20.5672 N   0  0  0  0  0  0  0  0  0  0  0  0
    8.2937  -16.3983   21.6502 C   0  0  1  0  0  0  0  0  0  0  0  0
    7.1505  -15.6750   22.2945 C   0  0  0  0  0  0  0  0  0  0  0  0
    7.4042  -14.2893   22.7093 C   0  0  0  0  0  0  0  0  0  0  0  0
    7.8121  -13.2276   21.8893 C   0  0  0  0  0  0  0  0  0  0  0  0
    7.9695  -12.1196   22.6099 N   0  0  0  0  0  0  0  0  0  0  0  0
    7.6790  -12.3965   23.9031 C   0  0  0  0  0  0  0  0  0  0  0  0
    7.6812  -11.5848   25.0192 C   0  0  0  0  0  0  0  0  0  0  0  0
    7.3273  -12.1000   26.2455 C   0  0  0  0  0  0  0  0  0  0  0  0
    6.9722  -13.4473   26.3232 C   0  0  0  0  0  0  0  0  0  0  0  0
    6.9757  -14.2388   25.2069 C   0  0  0  0  0  0  0  0  0  0  0  0
    7.3261  -13.7473   23.9705 C   0  0  0  0  0  0  0  0  0  0  0  0
    9.1072  -17.1746   22.5918 C   0  0  0  0  0  0  0  0  0  0  0  0
    8.5439  -17.7577   23.5381 O   0  0  0  0  0  0  0  0  0  0  0  0
   10.5300  -17.3010   22.4827 N   0  0  0  0  0  0  0  0  0  0  0  0
   11.2676  -18.0257   23.4770 C   0  0  1  0  0  0  0  0  0  0  0  0
   12.7305  -18.1008   23.0205 C   0  0  0  0  0  0  0  0  0  0  0  0
   13.3090  -19.3339   23.6227 C   0  0  0  0  0  0  0  0  0  0  0  0
   14.4067  -19.3342   24.2329 O   0  0  0  0  0  0  0  0  0  0  0  0
   11.2706  -17.3277   24.7962 C   0  0  0  0  0  0  0  0  0  0  0  0
   11.7187  -16.1563   24.9281 O   0  0  0  0  0  0  0  0  0  0  0  0
   12.6285  -20.5354   23.5180 O   0  0  0  0  0  0  0  0  0  0  0  0
    8.3995  -13.2603   27.6850 C   0  0  0  0  0  0  0  0  0  0  0  0
    9.4347  -14.6878   28.0987 S   0  0  0  0  0  0  0  0  0  0  0  0
    8.7230  -16.2254   27.4752 C   0  0  0  0  0  0  0  0  0  0  0  0
    9.5081  -17.4129   27.9949 C   0  0  0  0  0  0  0  0  0  0  0  0
   10.8688  -17.3416   27.2891 C   0  0  2  0  0  0  0  0  0  0  0  0
   10.7696  -17.9436   25.9753 N   0  0  0  0  0  0  0  0  0  0  0  0
   11.7983  -18.1709   28.0961 C   0  0  0  0  0  0  0  0  0  0  0  0
   12.2221  -17.7512   29.3550 O   0  0  0  0  0  0  0  0  0  0  0  0
   12.2507  -19.2816   27.6991 O   0  0  0  0  0  0  0  0  0  0  0  0
  2  1  1  6
  2  3  1  0
  4  3  1  0
  5  4  2  0
  6  5  1  0
  7  6  1  0
  7 12  2  0
  8  7  1  0
  9  8  2  0
  9 10  1  0
 10 11  2  0
 11 12  1  0
 12  4  1  0
 13  2  1  0
 14 13  2  0
 15 13  1  0
 16 15  1  0
 16 17  1  6
 17 18  1  0
 18 22  1  0
 19 18  2  0
 20 21  2  0
 20 16  1  0
 23 24  1  0
 24 25  1  0
 25 26  1  0
 27 26  1  1
 27 29  1  0
 27 28  1  0
 28 20  1  0
 29 30  1  0
 31 29  2  0
M  END
$$$$
