WDM.pdb
     RDKit          3D

 31 32  0  0  1  0  0  0  0  0999 V2000
    7.6995  -18.1670   23.0814 N   0  0  0  0  0  0  0  0  0  0  0  0
    8.6394  -17.0339   22.9237 C   0  0  1  0  0  0  0  0  0  0  0  0
    7.9476  -15.7963   23.4086 C   0  0  0  0  0  0  0  0  0  0  0  0
    7.3256  -14.9504   22.3819 C   0  0  0  0  0  0  0  0  0  0  0  0
    5.9606  -14.6597   22.2462 C   0  0  0  0  0  0  0  0  0  0  0  0
    5.7561  -13.8804   21.1866 N   0  0  0  0  0  0  0  0  0  0  0  0
    6.9475  -13.6301   20.5939 C   0  0  0  0  0  0  0  0  0  0  0  0
    7.2579  -12.8724   19.4831 C   0  0  0  0  0  0  0  0  0  0  0  0
    8.5672  -12.7527   19.0755 C   0  0  0  0  0  0  0  0  0  0  0  0
    9.5547  -13.4113   19.8094 C   0  0  0  0  0  0  0  0  0  0  0  0
    9.2300  -14.1593   20.9084 C   0  0  0  0  0  0  0  0  0  0  0  0
    7.9289  -14.2944   21.3350 C   0  0  0  0  0  0  0  0  0  0  0  0
    9.9244  -17.2890   23.5832 C   0  0  0  0  0  0  0  0  0  0  0  0
    9.9437  -17.9762   24.6225 O   0  0  0  0  0  0  0  0  0  0  0  0
   11.1730  -16.7860   23.0930 N   0  0  0  0  0  0  0  0  0  0  0  0
   12.3573  -16.8908   23.8957 C   0  0  1  0  0  0  0  0  0  0  0  0
   13.5454  -16.4105   23.0520 C   0  0  0  0  0  0  0  0  0  0  0  0
   14.7773  -16.6903   23.8406 C   0  0  0  0  0  0  0  0  0  0  0  0
   15.6004  -15.7919   24.1453 O   0  0  0  0  0  0  0  0  0  0  0  0
   12.3044  -16.0056   25.0961 C   0  0  0  0  0  0  0  0  0  0  0  0
   13.0680  -15.0099   25.2227 O   0  0  0  0  0  0  0  0  0  0  0  0
   15.0451  -17.9813   24.2638 O   0  0  0  0  0  0  0  0  0  0  0  0
    6.5506  -13.8366   26.5971 C   0  0  0  0  0  0  0  0  0  0  0  0
    8.1643  -13.4524   27.3242 S   0  0  0  0  0  0  0  0  0  0  0  0
    9.3284  -14.8159   27.1117 C   0  0  0  0  0  0  0  0  0  0  0  0
   10.6940  -14.4240   27.6393 C   0  0  0  0  0  0  0  0  0  0  0  0
   11.5642  -15.6788   27.4880 C   0  0  2  0  0  0  0  0  0  0  0  0
   11.3923  -16.2354   26.1618 N   0  0  0  0  0  0  0  0  0  0  0  0
   11.0397  -16.6670   28.4633 C   0  0  0  0  0  0  0  0  0  0  0  0
   11.1894  -16.4681   29.8340 O   0  0  0  0  0  0  0  0  0  0  0  0
   10.4397  -17.7235   28.1172 O   0  0  0  0  0  0  0  0  0  0  0  0
  2  1  1  1
  2  3  1  0
  4  3  1  0
  5  4  2  0
  6  5  1  0
  7  6  1  0
  7 12  2  0
  8  7  1  0
  9  8  2  0
  9 10  1  0
 10 11  2  0
 11 12  1  0
 12  4  1  0
 13  2  1  0
 14 13  2  0
 15 13  1  0
 16 15  1  0
 16 17  1  6
 17 18  1  0
 18 22  1  0
 19 18  2  0
 20 21  2  0
 20 16  1  0
 23 24  1  0
 24 25  1  0
 25 26  1  0
 27 26  1  6
 27 29  1  0
 27 28  1  0
 28 20  1  0
 29 30  1  0
 31 29  2  0
M  END
$$$$
