WDM.pdb
     RDKit          3D

 31 32  0  0  1  0  0  0  0  0999 V2000
    6.3796  -18.4691   23.5555 N   0  0  0  0  0  0  0  0  0  0  0  0
    7.3297  -17.3578   23.3218 C   0  0  1  0  0  0  0  0  0  0  0  0
    7.6684  -16.7593   24.6532 C   0  0  0  0  0  0  0  0  0  0  0  0
    6.8498  -15.6190   25.0845 C   0  0  0  0  0  0  0  0  0  0  0  0
    5.7839  -15.6461   25.9951 C   0  0  0  0  0  0  0  0  0  0  0  0
    5.2565  -14.4311   26.1273 N   0  0  0  0  0  0  0  0  0  0  0  0
    5.9353  -13.5728   25.3298 C   0  0  0  0  0  0  0  0  0  0  0  0
    5.7781  -12.2167   25.1284 C   0  0  0  0  0  0  0  0  0  0  0  0
    6.6152  -11.5476   24.2646 C   0  0  0  0  0  0  0  0  0  0  0  0
    7.6116  -12.2724   23.6095 C   0  0  0  0  0  0  0  0  0  0  0  0
    7.7539  -13.6171   23.8200 C   0  0  0  0  0  0  0  0  0  0  0  0
    6.9294  -14.3080   24.6779 C   0  0  0  0  0  0  0  0  0  0  0  0
    8.5019  -17.7885   22.5526 C   0  0  0  0  0  0  0  0  0  0  0  0
    8.8662  -18.9781   22.6227 O   0  0  0  0  0  0  0  0  0  0  0  0
    9.2600  -16.9072   21.7155 N   0  0  0  0  0  0  0  0  0  0  0  0
   10.6679  -17.1159   21.5373 C   0  0  1  0  0  0  0  0  0  0  0  0
   11.1475  -16.1818   20.4186 C   0  0  0  0  0  0  0  0  0  0  0  0
   10.7509  -16.8118   19.1288 C   0  0  0  0  0  0  0  0  0  0  0  0
   10.7393  -18.0567   18.9630 O   0  0  0  0  0  0  0  0  0  0  0  0
   11.4498  -16.7540   22.7560 C   0  0  0  0  0  0  0  0  0  0  0  0
   12.7098  -16.8040   22.7772 O   0  0  0  0  0  0  0  0  0  0  0  0
   10.3773  -16.0149   18.0598 O   0  0  0  0  0  0  0  0  0  0  0  0
   10.8554  -15.1409   30.3379 C   0  0  0  0  0  0  0  0  0  0  0  0
   10.4090  -14.4190   28.7379 S   0  0  0  0  0  0  0  0  0  0  0  0
   11.4370  -15.0732   27.4058 C   0  0  0  0  0  0  0  0  0  0  0  0
   10.5874  -15.3641   26.1850 C   0  0  0  0  0  0  0  0  0  0  0  0
   11.5513  -15.9617   25.1513 C   0  0  2  0  0  0  0  0  0  0  0  0
   10.8188  -16.3339   23.9584 N   0  0  0  0  0  0  0  0  0  0  0  0
   12.0892  -17.2055   25.7567 C   0  0  0  0  0  0  0  0  0  0  0  0
   13.3309  -17.2149   26.3882 O   0  0  0  0  0  0  0  0  0  0  0  0
   11.4677  -18.3052   25.7364 O   0  0  0  0  0  0  0  0  0  0  0  0
  2  1  1  1
  2  3  1  0
  4  3  1  0
  5  4  2  0
  6  5  1  0
  7  6  1  0
  7 12  2  0
  8  7  1  0
  9  8  2  0
  9 10  1  0
 10 11  2  0
 11 12  1  0
 12  4  1  0
 13  2  1  0
 14 13  2  0
 15 13  1  0
 16 15  1  0
 16 17  1  6
 17 18  1  0
 18 22  1  0
 19 18  2  0
 20 21  2  0
 20 16  1  0
 23 24  1  0
 24 25  1  0
 25 26  1  0
 27 26  1  1
 27 29  1  0
 27 28  1  0
 28 20  1  0
 29 30  1  0
 31 29  2  0
M  END
$$$$
