WDM.pdb
     RDKit          3D

 31 32  0  0  1  0  0  0  0  0999 V2000
    6.8806  -17.8259   24.7592 N   0  0  0  0  0  0  0  0  0  0  0  0
    7.7043  -16.9843   23.8617 C   0  0  1  0  0  0  0  0  0  0  0  0
    8.1777  -15.8023   24.6516 C   0  0  0  0  0  0  0  0  0  0  0  0
    7.1382  -14.9791   25.2828 C   0  0  0  0  0  0  0  0  0  0  0  0
    6.0723  -15.4318   26.0733 C   0  0  0  0  0  0  0  0  0  0  0  0
    5.3123  -14.4083   26.4562 N   0  0  0  0  0  0  0  0  0  0  0  0
    5.8319  -13.2660   25.9476 C   0  0  0  0  0  0  0  0  0  0  0  0
    5.4166  -11.9558   26.0713 C   0  0  0  0  0  0  0  0  0  0  0  0
    6.1305  -10.9474   25.4647 C   0  0  0  0  0  0  0  0  0  0  0  0
    7.2691  -11.2865   24.7325 C   0  0  0  0  0  0  0  0  0  0  0  0
    7.6671  -12.5909   24.6192 C   0  0  0  0  0  0  0  0  0  0  0  0
    6.9700  -13.6162   25.2156 C   0  0  0  0  0  0  0  0  0  0  0  0
    8.7881  -17.7471   23.2334 C   0  0  0  0  0  0  0  0  0  0  0  0
    9.1534  -18.8184   23.7547 O   0  0  0  0  0  0  0  0  0  0  0  0
    9.4578  -17.3239   22.0398 N   0  0  0  0  0  0  0  0  0  0  0  0
   10.8815  -17.4579   21.9260 C   0  0  1  0  0  0  0  0  0  0  0  0
   11.3377  -16.6459   20.7067 C   0  0  0  0  0  0  0  0  0  0  0  0
   12.5473  -17.3237   20.1634 C   0  0  0  0  0  0  0  0  0  0  0  0
   13.0925  -18.2952   20.7433 O   0  0  0  0  0  0  0  0  0  0  0  0
   11.5969  -16.8892   23.1059 C   0  0  0  0  0  0  0  0  0  0  0  0
   11.9684  -15.6845   23.1415 O   0  0  0  0  0  0  0  0  0  0  0  0
   13.1083  -16.8831   18.9764 O   0  0  0  0  0  0  0  0  0  0  0  0
   11.0820  -14.2167   29.9135 C   0  0  0  0  0  0  0  0  0  0  0  0
   10.4165  -15.0406   28.4442 S   0  0  0  0  0  0  0  0  0  0  0  0
   11.7138  -15.8796   27.5102 C   0  0  0  0  0  0  0  0  0  0  0  0
   11.1592  -16.4038   26.2009 C   0  0  0  0  0  0  0  0  0  0  0  0
   12.3379  -17.1027   25.5103 C   0  0  2  0  0  0  0  0  0  0  0  0
   11.8992  -17.6725   24.2529 N   0  0  0  0  0  0  0  0  0  0  0  0
   12.7339  -18.2233   26.3993 C   0  0  0  0  0  0  0  0  0  0  0  0
   12.3625  -19.5339   26.1072 O   0  0  0  0  0  0  0  0  0  0  0  0
   13.4158  -18.0600   27.4501 O   0  0  0  0  0  0  0  0  0  0  0  0
  2  1  1  1
  2  3  1  0
  4  3  1  0
  5  4  2  0
  6  5  1  0
  7  6  1  0
  7 12  2  0
  8  7  1  0
  9  8  2  0
  9 10  1  0
 10 11  2  0
 11 12  1  0
 12  4  1  0
 13  2  1  0
 14 13  2  0
 15 13  1  0
 16 15  1  0
 16 17  1  6
 17 18  1  0
 18 22  1  0
 19 18  2  0
 20 21  2  0
 20 16  1  0
 23 24  1  0
 24 25  1  0
 25 26  1  0
 27 26  1  1
 27 29  1  0
 27 28  1  0
 28 20  1  0
 29 30  1  0
 31 29  2  0
M  END
$$$$
