WDM.pdb
     RDKit          3D

 31 32  0  0  1  0  0  0  0  0999 V2000
    6.5214  -18.3131   25.2209 N   0  0  0  0  0  0  0  0  0  0  0  0
    7.4987  -17.3256   24.7089 C   0  0  1  0  0  0  0  0  0  0  0  0
    7.7528  -16.3281   25.7978 C   0  0  0  0  0  0  0  0  0  0  0  0
    7.1278  -15.0092   25.6349 C   0  0  0  0  0  0  0  0  0  0  0  0
    6.1147  -14.4552   26.4302 C   0  0  0  0  0  0  0  0  0  0  0  0
    5.7737  -13.2520   25.9743 N   0  0  0  0  0  0  0  0  0  0  0  0
    6.5288  -12.9685   24.8867 C   0  0  0  0  0  0  0  0  0  0  0  0
    6.5576  -11.8504   24.0784 C   0  0  0  0  0  0  0  0  0  0  0  0
    7.4388  -11.7868   23.0229 C   0  0  0  0  0  0  0  0  0  0  0  0
    8.2881  -12.8713   22.7997 C   0  0  0  0  0  0  0  0  0  0  0  0
    8.2466  -13.9730   23.6104 C   0  0  0  0  0  0  0  0  0  0  0  0
    7.3744  -14.0603   24.6709 C   0  0  0  0  0  0  0  0  0  0  0  0
    8.7154  -17.9682   24.2010 C   0  0  0  0  0  0  0  0  0  0  0  0
    9.0651  -19.0636   24.6811 O   0  0  0  0  0  0  0  0  0  0  0  0
    9.5336  -17.3996   23.1716 N   0  0  0  0  0  0  0  0  0  0  0  0
   10.9391  -17.6832   23.1290 C   0  0  1  0  0  0  0  0  0  0  0  0
   11.5364  -16.9386   21.9277 C   0  0  0  0  0  0  0  0  0  0  0  0
   12.9352  -17.4242   21.7695 C   0  0  0  0  0  0  0  0  0  0  0  0
   13.3015  -18.5610   22.1582 O   0  0  0  0  0  0  0  0  0  0  0  0
   11.6527  -17.1777   24.3385 C   0  0  0  0  0  0  0  0  0  0  0  0
   12.5920  -16.3403   24.2553 O   0  0  0  0  0  0  0  0  0  0  0  0
   13.8835  -16.6091   21.1745 O   0  0  0  0  0  0  0  0  0  0  0  0
    9.4332  -13.4317   28.5112 C   0  0  0  0  0  0  0  0  0  0  0  0
    8.9159  -14.8296   27.4823 S   0  0  0  0  0  0  0  0  0  0  0  0
    9.9843  -16.2641   27.7276 C   0  0  0  0  0  0  0  0  0  0  0  0
   11.4195  -15.9097   27.3939 C   0  0  0  0  0  0  0  0  0  0  0  0
   12.0372  -17.1980   26.8340 C   0  0  2  0  0  0  0  0  0  0  0  0
   11.3140  -17.6115   25.6490 N   0  0  0  0  0  0  0  0  0  0  0  0
   11.8353  -18.2396   27.8719 C   0  0  0  0  0  0  0  0  0  0  0  0
   12.4877  -18.1613   29.1004 O   0  0  0  0  0  0  0  0  0  0  0  0
   11.0772  -19.2367   27.7078 O   0  0  0  0  0  0  0  0  0  0  0  0
  2  1  1  1
  2  3  1  0
  4  3  1  0
  5  4  2  0
  6  5  1  0
  7  6  1  0
  7 12  2  0
  8  7  1  0
  9  8  2  0
  9 10  1  0
 10 11  2  0
 11 12  1  0
 12  4  1  0
 13  2  1  0
 14 13  2  0
 15 13  1  0
 16 15  1  0
 16 17  1  6
 17 18  1  0
 18 22  1  0
 19 18  2  0
 20 21  2  0
 20 16  1  0
 23 24  1  0
 24 25  1  0
 25 26  1  0
 27 26  1  1
 27 29  1  0
 27 28  1  0
 28 20  1  0
 29 30  1  0
 31 29  2  0
M  END
$$$$
