LGV.pdb
     RDKit          3D

 20 19  0  0  1  0  0  0  0  0999 V2000
   23.1389  -18.2465  -14.7826 C   0  0  0  0  0  0  0  0  0  0  0  0
   22.8983  -19.3643  -13.7899 C   0  0  1  0  0  0  0  0  0  0  0  0
   22.2356  -20.5193  -14.4819 C   0  0  0  0  0  0  0  0  0  0  0  0
   24.1285  -19.7154  -13.0374 C   0  0  0  0  0  0  0  0  0  0  0  0
   23.9428  -20.8134  -12.0263 C   0  0  2  0  0  0  0  0  0  0  0  0
   22.9149  -20.3899  -11.1029 N   0  0  0  0  0  0  0  0  0  0  0  0
   25.2225  -21.1174  -11.3096 C   0  0  0  0  0  0  0  0  0  0  0  0
   26.2851  -21.2888  -11.9564 O   0  0  0  0  0  0  0  0  0  0  0  0
   25.2842  -21.2220   -9.8938 N   0  0  0  0  0  0  0  0  0  0  0  0
   26.4965  -21.4121   -9.1320 C   0  0  0  0  0  0  0  0  0  0  0  0
   26.8171  -20.3718   -8.1712 C   0  0  0  0  0  0  0  0  0  0  0  0
   26.3199  -19.2292   -8.3540 O   0  0  0  0  0  0  0  0  0  0  0  0
   27.8226  -18.9184   -3.6808 C   0  0  0  0  0  0  0  0  0  0  0  0
   27.7590  -20.0503   -4.6775 C   0  0  2  0  0  0  0  0  0  0  0  0
   28.8531  -21.0411   -4.3879 C   0  0  0  0  0  0  0  0  0  0  0  0
   27.8482  -19.5211   -6.0947 C   0  0  2  0  0  0  0  0  0  0  0  0
   27.6476  -20.5700   -7.0592 N   0  0  0  0  0  0  0  0  0  0  0  0
   29.1393  -18.8183   -6.2903 C   0  0  0  0  0  0  0  0  0  0  0  0
   30.0014  -19.3730   -7.0182 O   0  0  0  0  0  0  0  0  0  0  0  0
   29.4548  -17.5994   -5.7271 O   0  0  0  0  0  0  0  0  0  0  0  0
  2  1  1  6
  3  2  1  0
  4  2  1  0
  5  4  1  0
  5  6  1  1
  7  5  1  0
  7  8  2  0
  9 10  1  0
  9  7  1  0
 10 11  1  0
 11 17  1  0
 11 12  2  0
 14 13  1  1
 14 15  1  0
 16 14  1  0
 16 17  1  6
 18 16  1  0
 18 20  1  0
 19 18  2  0
M  END
$$$$
