LGV.pdb
     RDKit          3D

 20 19  0  0  1  0  0  0  0  0999 V2000
   21.8601  -19.8752  -15.4603 C   0  0  0  0  0  0  0  0  0  0  0  0
   22.1545  -20.7606  -14.2677 C   0  0  1  0  0  0  0  0  0  0  0  0
   22.8420  -22.0130  -14.7269 C   0  0  0  0  0  0  0  0  0  0  0  0
   22.8607  -20.0253  -13.1891 C   0  0  0  0  0  0  0  0  0  0  0  0
   23.1902  -20.8622  -11.9834 C   0  0  2  0  0  0  0  0  0  0  0  0
   21.9444  -21.2202  -11.3444 N   0  0  0  0  0  0  0  0  0  0  0  0
   24.0914  -20.1276  -11.0390 C   0  0  0  0  0  0  0  0  0  0  0  0
   23.6177  -19.2825  -10.2402 O   0  0  0  0  0  0  0  0  0  0  0  0
   25.4940  -20.3538  -11.0098 N   0  0  0  0  0  0  0  0  0  0  0  0
   26.4285  -19.6380  -10.1728 C   0  0  0  0  0  0  0  0  0  0  0  0
   26.7566  -20.2617   -8.9033 C   0  0  0  0  0  0  0  0  0  0  0  0
   26.4719  -21.4795   -8.7556 O   0  0  0  0  0  0  0  0  0  0  0  0
   29.3149  -20.3119   -4.6986 C   0  0  0  0  0  0  0  0  0  0  0  0
   28.8373  -19.5210   -5.8923 C   0  0  2  0  0  0  0  0  0  0  0  0
   28.3274  -18.1802   -5.4394 C   0  0  0  0  0  0  0  0  0  0  0  0
   27.7779  -20.2907   -6.6551 C   0  0  2  0  0  0  0  0  0  0  0  0
   27.3672  -19.5834   -7.8390 N   0  0  0  0  0  0  0  0  0  0  0  0
   26.6359  -20.5982   -5.7605 C   0  0  0  0  0  0  0  0  0  0  0  0
   25.5519  -19.9966   -5.9699 O   0  0  0  0  0  0  0  0  0  0  0  0
   26.6855  -21.4986   -4.7168 O   0  0  0  0  0  0  0  0  0  0  0  0
  2  1  1  6
  3  2  1  0
  4  2  1  0
  5  4  1  0
  5  6  1  1
  7  5  1  0
  7  8  2  0
  9 10  1  0
  9  7  1  0
 10 11  1  0
 11 17  1  0
 11 12  2  0
 14 13  1  1
 14 15  1  0
 16 14  1  0
 16 17  1  6
 18 16  1  0
 18 20  1  0
 19 18  2  0
M  END
$$$$
