LGV.pdb
     RDKit          3D

 20 19  0  0  1  0  0  0  0  0999 V2000
   23.6608  -21.3422  -20.1125 C   0  0  0  0  0  0  0  0  0  0  0  0
   23.7293  -19.8703  -20.4615 C   0  0  1  0  0  0  0  0  0  0  0  0
   22.6661  -19.5407  -21.4679 C   0  0  0  0  0  0  0  0  0  0  0  0
   23.7261  -19.0104  -19.2518 C   0  0  0  0  0  0  0  0  0  0  0  0
   25.0941  -18.5929  -18.7862 C   0  0  2  0  0  0  0  0  0  0  0  0
   26.0015  -19.6846  -19.0570 N   0  0  0  0  0  0  0  0  0  0  0  0
   25.0909  -18.2401  -17.3305 C   0  0  0  0  0  0  0  0  0  0  0  0
   24.3026  -17.3663  -16.8925 O   0  0  0  0  0  0  0  0  0  0  0  0
   25.9646  -18.8691  -16.4030 N   0  0  0  0  0  0  0  0  0  0  0  0
   25.9116  -18.6953  -14.9701 C   0  0  0  0  0  0  0  0  0  0  0  0
   25.1445  -19.6844  -14.2344 C   0  0  0  0  0  0  0  0  0  0  0  0
   24.5047  -20.5437  -14.8966 O   0  0  0  0  0  0  0  0  0  0  0  0
   25.1329  -20.1578   -9.8718 C   0  0  0  0  0  0  0  0  0  0  0  0
   25.2280  -21.2385  -10.9214 C   0  0  2  0  0  0  0  0  0  0  0  0
   26.6734  -21.5167  -11.2313 C   0  0  0  0  0  0  0  0  0  0  0  0
   24.4577  -20.8451  -12.1657 C   0  0  2  0  0  0  0  0  0  0  0  0
   25.0767  -19.7317  -12.8349 N   0  0  0  0  0  0  0  0  0  0  0  0
   23.0419  -20.5741  -11.8177 C   0  0  0  0  0  0  0  0  0  0  0  0
   22.6838  -19.3726  -11.7225 O   0  0  0  0  0  0  0  0  0  0  0  0
   22.0951  -21.5516  -11.5924 O   0  0  0  0  0  0  0  0  0  0  0  0
  2  1  1  1
  3  2  1  0
  4  2  1  0
  5  4  1  0
  5  6  1  1
  7  5  1  0
  7  8  2  0
  9 10  1  0
  9  7  1  0
 10 11  1  0
 11 17  1  0
 11 12  2  0
 14 13  1  1
 14 15  1  0
 16 14  1  0
 16 17  1  1
 18 16  1  0
 18 20  1  0
 19 18  2  0
M  END
$$$$
