LGV.pdb
     RDKit          3D

 20 19  0  0  1  0  0  0  0  0999 V2000
   16.0503  -15.2374  -20.7799 C   0  0  0  0  0  0  0  0  0  0  0  0
   17.4525  -15.0879  -20.2281 C   0  0  1  0  0  0  0  0  0  0  0  0
   18.4044  -15.9183  -21.0382 C   0  0  0  0  0  0  0  0  0  0  0  0
   17.8436  -13.6638  -20.0796 C   0  0  0  0  0  0  0  0  0  0  0  0
   19.2171  -13.4568  -19.5023 C   0  0  2  0  0  0  0  0  0  0  0  0
   19.2632  -14.1344  -18.2266 N   0  0  0  0  0  0  0  0  0  0  0  0
   19.5323  -12.0001  -19.3532 C   0  0  0  0  0  0  0  0  0  0  0  0
   19.6586  -11.2724  -20.3688 O   0  0  0  0  0  0  0  0  0  0  0  0
   19.6983  -11.3938  -18.0787 N   0  0  0  0  0  0  0  0  0  0  0  0
   19.9346   -9.9860  -17.8585 C   0  0  0  0  0  0  0  0  0  0  0  0
   20.0687   -9.5696  -16.4740 C   0  0  0  0  0  0  0  0  0  0  0  0
   19.2014   -9.9697  -15.6532 O   0  0  0  0  0  0  0  0  0  0  0  0
   22.8290   -9.4036  -12.7218 C   0  0  0  0  0  0  0  0  0  0  0  0
   22.5857   -9.4791  -14.2097 C   0  0  2  0  0  0  0  0  0  0  0  0
   23.8217   -9.0418  -14.9471 C   0  0  0  0  0  0  0  0  0  0  0  0
   21.3816   -8.6448  -14.5979 C   0  0  2  0  0  0  0  0  0  0  0  0
   21.1044   -8.7487  -16.0062 N   0  0  0  0  0  0  0  0  0  0  0  0
   21.5815   -7.2399  -14.1675 C   0  0  0  0  0  0  0  0  0  0  0  0
   21.5826   -7.0022  -12.9328 O   0  0  0  0  0  0  0  0  0  0  0  0
   21.7656   -6.1802  -15.0310 O   0  0  0  0  0  0  0  0  0  0  0  0
  2  1  1  6
  3  2  1  0
  4  2  1  0
  5  4  1  0
  5  6  1  1
  7  5  1  0
  7  8  2  0
  9 10  1  0
  9  7  1  0
 10 11  1  0
 11 17  1  0
 11 12  2  0
 14 13  1  1
 14 15  1  0
 16 14  1  0
 16 17  1  6
 18 16  1  0
 18 20  1  0
 19 18  2  0
M  END
$$$$
