LGV.pdb
     RDKit          3D

 20 19  0  0  1  0  0  0  0  0999 V2000
   11.6346  -12.0164  -13.9709 C   0  0  0  0  0  0  0  0  0  0  0  0
   12.9592  -12.2971  -14.6488 C   0  0  1  0  0  0  0  0  0  0  0  0
   12.7166  -12.9387  -15.9836 C   0  0  0  0  0  0  0  0  0  0  0  0
   13.8307  -11.0963  -14.6873 C   0  0  0  0  0  0  0  0  0  0  0  0
   15.1513  -11.3124  -15.3741 C   0  0  2  0  0  0  0  0  0  0  0  0
   15.9576  -12.1537  -14.5193 N   0  0  0  0  0  0  0  0  0  0  0  0
   15.8383  -10.0118  -15.6573 C   0  0  0  0  0  0  0  0  0  0  0  0
   15.2450   -9.1084  -16.2965 O   0  0  0  0  0  0  0  0  0  0  0  0
   17.1659   -9.7528  -15.2215 N   0  0  0  0  0  0  0  0  0  0  0  0
   17.8463   -8.4858  -15.3551 C   0  0  0  0  0  0  0  0  0  0  0  0
   18.9256   -8.2381  -14.4159 C   0  0  0  0  0  0  0  0  0  0  0  0
   18.6940   -8.4235  -13.1920 O   0  0  0  0  0  0  0  0  0  0  0  0
   23.4072   -8.9449  -13.1856 C   0  0  0  0  0  0  0  0  0  0  0  0
   22.3556   -8.8210  -14.2614 C   0  0  2  0  0  0  0  0  0  0  0  0
   23.0068   -8.4448  -15.5642 C   0  0  0  0  0  0  0  0  0  0  0  0
   21.2944   -7.8167  -13.8592 C   0  0  2  0  0  0  0  0  0  0  0  0
   20.2030   -7.8039  -14.7970 N   0  0  0  0  0  0  0  0  0  0  0  0
   21.9062   -6.4763  -13.6917 C   0  0  0  0  0  0  0  0  0  0  0  0
   21.8230   -5.6722  -14.6547 O   0  0  0  0  0  0  0  0  0  0  0  0
   22.5586   -6.0557  -12.5516 O   0  0  0  0  0  0  0  0  0  0  0  0
  2  1  1  6
  3  2  1  0
  4  2  1  0
  5  4  1  0
  5  6  1  1
  7  5  1  0
  7  8  2  0
  9 10  1  0
  9  7  1  0
 10 11  1  0
 11 17  1  0
 11 12  2  0
 14 13  1  1
 14 15  1  0
 16 14  1  0
 16 17  1  6
 18 16  1  0
 18 20  1  0
 19 18  2  0
M  END
$$$$
