LGV.pdb
     RDKit          3D

 20 19  0  0  1  0  0  0  0  0999 V2000
   25.2890  -15.8166  -19.3429 C   0  0  0  0  0  0  0  0  0  0  0  0
   24.5269  -16.5788  -18.2792 C   0  0  1  0  0  0  0  0  0  0  0  0
   23.1999  -17.0170  -18.8261 C   0  0  0  0  0  0  0  0  0  0  0  0
   25.3413  -17.6666  -17.6824 C   0  0  0  0  0  0  0  0  0  0  0  0
   24.6378  -18.4461  -16.6053 C   0  0  2  0  0  0  0  0  0  0  0  0
   24.3909  -17.5454  -15.5024 N   0  0  0  0  0  0  0  0  0  0  0  0
   25.4486  -19.6273  -16.1685 C   0  0  0  0  0  0  0  0  0  0  0  0
   25.7038  -20.5538  -16.9768 O   0  0  0  0  0  0  0  0  0  0  0  0
   25.9527  -19.7448  -14.8451 N   0  0  0  0  0  0  0  0  0  0  0  0
   26.7477  -20.8484  -14.3593 C   0  0  0  0  0  0  0  0  0  0  0  0
   26.4788  -21.2796  -12.9991 C   0  0  0  0  0  0  0  0  0  0  0  0
   27.0002  -22.3580  -12.6104 O   0  0  0  0  0  0  0  0  0  0  0  0
   25.6540  -20.9905   -8.3591 C   0  0  0  0  0  0  0  0  0  0  0  0
   26.0365  -20.4005   -9.6949 C   0  0  2  0  0  0  0  0  0  0  0  0
   25.7331  -18.9272   -9.7026 C   0  0  0  0  0  0  0  0  0  0  0  0
   25.3244  -21.1214  -10.8218 C   0  0  2  0  0  0  0  0  0  0  0  0
   25.6725  -20.5647  -12.1023 N   0  0  0  0  0  0  0  0  0  0  0  0
   23.8608  -21.1084  -10.5834 C   0  0  0  0  0  0  0  0  0  0  0  0
   23.1422  -20.4753  -11.3982 O   0  0  0  0  0  0  0  0  0  0  0  0
   23.2385  -21.7437   -9.5291 O   0  0  0  0  0  0  0  0  0  0  0  0
  2  1  1  6
  3  2  1  0
  4  2  1  0
  5  4  1  0
  5  6  1  1
  7  5  1  0
  7  8  2  0
  9 10  1  0
  9  7  1  0
 10 11  1  0
 11 17  1  0
 11 12  2  0
 14 13  1  1
 14 15  1  0
 16 14  1  0
 16 17  1  6
 18 16  1  0
 18 20  1  0
 19 18  2  0
M  END
$$$$
