LGV.pdb
     RDKit          3D

 20 19  0  0  1  0  0  0  0  0999 V2000
   29.1540  -20.3987   -4.3995 C   0  0  0  0  0  0  0  0  0  0  0  0
   28.1102  -19.7284   -5.2680 C   0  0  1  0  0  0  0  0  0  0  0  0
   28.5200  -18.3119   -5.5465 C   0  0  0  0  0  0  0  0  0  0  0  0
   27.7917  -20.5307   -6.4754 C   0  0  0  0  0  0  0  0  0  0  0  0
   26.7789  -19.8970   -7.3894 C   0  0  2  0  0  0  0  0  0  0  0  0
   25.5774  -19.6669   -6.6200 N   0  0  0  0  0  0  0  0  0  0  0  0
   26.5018  -20.7623   -8.5802 C   0  0  0  0  0  0  0  0  0  0  0  0
   25.5031  -21.5235   -8.5910 O   0  0  0  0  0  0  0  0  0  0  0  0
   27.3432  -20.7566   -9.7253 N   0  0  0  0  0  0  0  0  0  0  0  0
   27.0019  -21.3359  -11.0036 C   0  0  0  0  0  0  0  0  0  0  0  0
   26.2354  -20.4923  -11.9032 C   0  0  0  0  0  0  0  0  0  0  0  0
   25.8850  -19.3561  -11.4879 O   0  0  0  0  0  0  0  0  0  0  0  0
   26.5151  -20.8525  -16.0324 C   0  0  0  0  0  0  0  0  0  0  0  0
   26.1636  -19.6030  -15.2618 C   0  0  2  0  0  0  0  0  0  0  0  0
   27.4231  -18.9217  -14.8013 C   0  0  0  0  0  0  0  0  0  0  0  0
   25.2509  -19.9315  -14.0974 C   0  0  2  0  0  0  0  0  0  0  0  0
   25.8651  -20.8742  -13.2003 N   0  0  0  0  0  0  0  0  0  0  0  0
   23.9410  -20.4090  -14.6025 C   0  0  0  0  0  0  0  0  0  0  0  0
   23.6891  -21.6368  -14.5024 O   0  0  0  0  0  0  0  0  0  0  0  0
   22.9839  -19.5962  -15.1732 O   0  0  0  0  0  0  0  0  0  0  0  0
  2  1  1  6
  3  2  1  0
  4  2  1  0
  5  4  1  0
  5  6  1  1
  7  5  1  0
  7  8  2  0
  9 10  1  0
  9  7  1  0
 10 11  1  0
 11 17  1  0
 11 12  2  0
 14 13  1  1
 14 15  1  0
 16 14  1  0
 16 17  1  1
 18 16  1  0
 18 20  1  0
 19 18  2  0
M  END
$$$$
