LGV.pdb
     RDKit          3D

 20 19  0  0  1  0  0  0  0  0999 V2000
   27.2519  -17.8859  -14.7674 C   0  0  0  0  0  0  0  0  0  0  0  0
   26.8591  -19.2139  -14.1548 C   0  0  1  0  0  0  0  0  0  0  0  0
   27.3239  -20.3341  -15.0387 C   0  0  0  0  0  0  0  0  0  0  0  0
   27.2886  -19.3226  -12.7383 C   0  0  0  0  0  0  0  0  0  0  0  0
   26.7746  -20.5451  -12.0283 C   0  0  2  0  0  0  0  0  0  0  0  0
   25.4844  -20.8698  -12.5926 N   0  0  0  0  0  0  0  0  0  0  0  0
   26.6776  -20.3177  -10.5510 C   0  0  0  0  0  0  0  0  0  0  0  0
   27.7125  -20.0960   -9.8753 O   0  0  0  0  0  0  0  0  0  0  0  0
   25.4323  -20.3433   -9.8670 N   0  0  0  0  0  0  0  0  0  0  0  0
   25.2570  -20.0656   -8.4605 C   0  0  0  0  0  0  0  0  0  0  0  0
   26.3243  -20.5121   -7.5832 C   0  0  0  0  0  0  0  0  0  0  0  0
   26.6941  -21.7127   -7.6712 O   0  0  0  0  0  0  0  0  0  0  0  0
   28.3943  -18.0338   -4.6329 C   0  0  0  0  0  0  0  0  0  0  0  0
   29.0043  -19.1684   -5.4199 C   0  0  2  0  0  0  0  0  0  0  0  0
   29.6617  -18.6274   -6.6601 C   0  0  0  0  0  0  0  0  0  0  0  0
   27.9569  -20.2111   -5.7549 C   0  0  2  0  0  0  0  0  0  0  0  0
   26.9590  -19.6833   -6.6473 N   0  0  0  0  0  0  0  0  0  0  0  0
   27.3647  -20.7502   -4.5068 C   0  0  0  0  0  0  0  0  0  0  0  0
   26.1441  -20.5323   -4.2982 O   0  0  0  0  0  0  0  0  0  0  0  0
   28.0640  -21.4729   -3.5627 O   0  0  0  0  0  0  0  0  0  0  0  0
  2  1  1  6
  3  2  1  0
  4  2  1  0
  5  4  1  0
  5  6  1  6
  7  5  1  0
  7  8  2  0
  9 10  1  0
  9  7  1  0
 10 11  1  0
 11 17  1  0
 11 12  2  0
 14 13  1  6
 14 15  1  0
 16 14  1  0
 16 17  1  6
 18 16  1  0
 18 20  1  0
 19 18  2  0
M  END
$$$$
