LGV.pdb
     RDKit          3D

 20 19  0  0  1  0  0  0  0  0999 V2000
   20.5133  -25.7822  -13.7039 C   0  0  0  0  0  0  0  0  0  0  0  0
   19.3340  -25.3489  -12.8587 C   0  0  1  0  0  0  0  0  0  0  0  0
   18.1651  -26.2520  -13.1232 C   0  0  0  0  0  0  0  0  0  0  0  0
   19.6971  -25.2079  -11.4265 C   0  0  0  0  0  0  0  0  0  0  0  0
   18.5609  -24.7767  -10.5401 C   0  0  2  0  0  0  0  0  0  0  0  0
   18.4006  -23.3490  -10.6962 N   0  0  0  0  0  0  0  0  0  0  0  0
   18.8170  -25.1395   -9.1096 C   0  0  0  0  0  0  0  0  0  0  0  0
   19.1123  -26.3198   -8.7988 O   0  0  0  0  0  0  0  0  0  0  0  0
   18.7374  -24.1793   -8.0651 N   0  0  0  0  0  0  0  0  0  0  0  0
   19.0343  -24.4433   -6.6764 C   0  0  0  0  0  0  0  0  0  0  0  0
   18.1728  -25.4036   -6.0102 C   0  0  0  0  0  0  0  0  0  0  0  0
   17.1594  -25.8159   -6.6338 O   0  0  0  0  0  0  0  0  0  0  0  0
   17.3697  -28.7315   -2.4709 C   0  0  0  0  0  0  0  0  0  0  0  0
   18.2446  -27.6240   -3.0063 C   0  0  2  0  0  0  0  0  0  0  0  0
   18.6044  -26.6802   -1.8916 C   0  0  0  0  0  0  0  0  0  0  0  0
   17.5557  -26.9017   -4.1465 C   0  0  2  0  0  0  0  0  0  0  0  0
   18.4067  -25.8910   -4.7167 N   0  0  0  0  0  0  0  0  0  0  0  0
   16.2600  -26.3485   -3.6835 C   0  0  0  0  0  0  0  0  0  0  0  0
   15.3041  -27.1507   -3.5301 O   0  0  0  0  0  0  0  0  0  0  0  0
   16.0362  -25.0150   -3.4111 O   0  0  0  0  0  0  0  0  0  0  0  0
  2  1  1  6
  3  2  1  0
  4  2  1  0
  5  4  1  0
  5  6  1  1
  7  5  1  0
  7  8  2  0
  9 10  1  0
  9  7  1  0
 10 11  1  0
 11 17  1  0
 11 12  2  0
 14 13  1  1
 14 15  1  0
 16 14  1  0
 16 17  1  1
 18 16  1  0
 18 20  1  0
 19 18  2  0
M  END
$$$$
