LGV.pdb
     RDKit          3D

 20 19  0  0  1  0  0  0  0  0999 V2000
   22.3643  -13.7172  -18.2041 C   0  0  0  0  0  0  0  0  0  0  0  0
   22.4500  -12.4540  -19.0347 C   0  0  1  0  0  0  0  0  0  0  0  0
   22.3074  -12.7961  -20.4889 C   0  0  0  0  0  0  0  0  0  0  0  0
   21.5187  -11.4047  -18.5504 C   0  0  0  0  0  0  0  0  0  0  0  0
   21.5995  -10.1083  -19.3089 C   0  0  2  0  0  0  0  0  0  0  0  0
   22.9432   -9.5971  -19.1616 N   0  0  0  0  0  0  0  0  0  0  0  0
   20.5877   -9.1217  -18.8124 C   0  0  0  0  0  0  0  0  0  0  0  0
   19.3715   -9.4310  -18.7662 O   0  0  0  0  0  0  0  0  0  0  0  0
   20.9570   -7.8190  -18.3813 N   0  0  0  0  0  0  0  0  0  0  0  0
   20.0545   -6.8574  -17.7923 C   0  0  0  0  0  0  0  0  0  0  0  0
   20.1789   -6.6587  -16.3594 C   0  0  0  0  0  0  0  0  0  0  0  0
   19.4316   -5.8019  -15.8176 O   0  0  0  0  0  0  0  0  0  0  0  0
   21.2283   -8.4326  -11.9437 C   0  0  0  0  0  0  0  0  0  0  0  0
   21.3523   -8.5600  -13.4427 C   0  0  2  0  0  0  0  0  0  0  0  0
   22.7296   -9.0508  -13.7962 C   0  0  0  0  0  0  0  0  0  0  0  0
   21.0410   -7.2404  -14.1195 C   0  0  2  0  0  0  0  0  0  0  0  0
   21.0830   -7.3638  -15.5526 N   0  0  0  0  0  0  0  0  0  0  0  0
   21.9589   -6.1884  -13.6197 C   0  0  0  0  0  0  0  0  0  0  0  0
   21.8734   -5.8669  -12.4071 O   0  0  0  0  0  0  0  0  0  0  0  0
   22.8975   -5.5416  -14.3963 O   0  0  0  0  0  0  0  0  0  0  0  0
  2  1  1  1
  3  2  1  0
  4  2  1  0
  5  4  1  0
  5  6  1  1
  7  5  1  0
  7  8  2  0
  9 10  1  0
  9  7  1  0
 10 11  1  0
 11 17  1  0
 11 12  2  0
 14 13  1  1
 14 15  1  0
 16 14  1  0
 16 17  1  6
 18 16  1  0
 18 20  1  0
 19 18  2  0
M  END
$$$$
