LGV.pdb
     RDKit          3D

 20 19  0  0  1  0  0  0  0  0999 V2000
   23.9009  -15.8011  -21.1561 C   0  0  0  0  0  0  0  0  0  0  0  0
   23.7585  -17.1728  -20.5306 C   0  0  1  0  0  0  0  0  0  0  0  0
   24.6784  -18.1386  -21.2185 C   0  0  0  0  0  0  0  0  0  0  0  0
   23.8978  -17.1286  -19.0536 C   0  0  0  0  0  0  0  0  0  0  0  0
   23.8246  -18.4741  -18.3851 C   0  0  2  0  0  0  0  0  0  0  0  0
   22.5254  -19.0371  -18.6741 N   0  0  0  0  0  0  0  0  0  0  0  0
   24.0500  -18.3626  -16.9085 C   0  0  0  0  0  0  0  0  0  0  0  0
   25.1924  -18.0955  -16.4608 O   0  0  0  0  0  0  0  0  0  0  0  0
   22.9985  -18.5515  -15.9715 N   0  0  0  0  0  0  0  0  0  0  0  0
   23.1392  -18.4382  -14.5385 C   0  0  0  0  0  0  0  0  0  0  0  0
   23.0746  -19.6807  -13.7900 C   0  0  0  0  0  0  0  0  0  0  0  0
   22.4297  -20.6378  -14.2941 O   0  0  0  0  0  0  0  0  0  0  0  0
   24.8488  -20.3653   -9.8589 C   0  0  0  0  0  0  0  0  0  0  0  0
   24.8566  -21.3538  -10.9997 C   0  0  2  0  0  0  0  0  0  0  0  0
   26.1407  -21.2241  -11.7724 C   0  0  0  0  0  0  0  0  0  0  0  0
   23.6478  -21.1517  -11.8911 C   0  0  2  0  0  0  0  0  0  0  0  0
   23.6859  -19.8692  -12.5425 N   0  0  0  0  0  0  0  0  0  0  0  0
   22.4045  -21.3459  -11.1065 C   0  0  0  0  0  0  0  0  0  0  0  0
   21.7493  -20.3212  -10.7879 O   0  0  0  0  0  0  0  0  0  0  0  0
   21.9218  -22.5739  -10.7047 O   0  0  0  0  0  0  0  0  0  0  0  0
  2  1  1  6
  3  2  1  0
  4  2  1  0
  5  4  1  0
  5  6  1  1
  7  5  1  0
  7  8  2  0
  9 10  1  0
  9  7  1  0
 10 11  1  0
 11 17  1  0
 11 12  2  0
 14 13  1  1
 14 15  1  0
 16 14  1  0
 16 17  1  1
 18 16  1  0
 18 20  1  0
 19 18  2  0
M  END
$$$$
