LGV.pdb
     RDKit          3D

 20 19  0  0  1  0  0  0  0  0999 V2000
   26.1919  -20.3380   -9.9520 C   0  0  0  0  0  0  0  0  0  0  0  0
   25.2783  -21.4724  -10.3662 C   0  0  1  0  0  0  0  0  0  0  0  0
   23.8488  -21.0788  -10.1345 C   0  0  0  0  0  0  0  0  0  0  0  0
   25.5744  -21.9531  -11.7388 C   0  0  0  0  0  0  0  0  0  0  0  0
   25.9615  -20.8667  -12.7045 C   0  0  2  0  0  0  0  0  0  0  0  0
   24.8073  -20.0182  -12.8953 N   0  0  0  0  0  0  0  0  0  0  0  0
   26.4352  -21.4370  -14.0060 C   0  0  0  0  0  0  0  0  0  0  0  0
   25.6078  -21.7692  -14.8902 O   0  0  0  0  0  0  0  0  0  0  0  0
   27.8158  -21.6216  -14.2873 N   0  0  0  0  0  0  0  0  0  0  0  0
   28.3415  -22.1825  -15.5101 C   0  0  0  0  0  0  0  0  0  0  0  0
   28.2663  -21.3344  -16.6862 C   0  0  0  0  0  0  0  0  0  0  0  0
   28.0184  -20.1117  -16.5144 O   0  0  0  0  0  0  0  0  0  0  0  0
   29.5518  -22.5791  -20.5418 C   0  0  0  0  0  0  0  0  0  0  0  0
   29.5480  -21.1442  -20.0730 C   0  0  2  0  0  0  0  0  0  0  0  0
   30.8746  -20.8138  -19.4455 C   0  0  0  0  0  0  0  0  0  0  0  0
   28.4015  -20.8980  -19.1131 C   0  0  2  0  0  0  0  0  0  0  0  0
   28.4511  -21.8023  -17.9948 N   0  0  0  0  0  0  0  0  0  0  0  0
   27.1107  -20.9737  -19.8392 C   0  0  0  0  0  0  0  0  0  0  0  0
   26.3810  -21.9760  -19.6296 O   0  0  0  0  0  0  0  0  0  0  0  0
   26.6601  -20.0190  -20.7268 O   0  0  0  0  0  0  0  0  0  0  0  0
  2  1  1  6
  3  2  1  0
  4  2  1  0
  5  4  1  0
  5  6  1  6
  7  5  1  0
  7  8  2  0
  9 10  1  0
  9  7  1  0
 10 11  1  0
 11 17  1  0
 11 12  2  0
 14 13  1  1
 14 15  1  0
 16 14  1  0
 16 17  1  1
 18 16  1  0
 18 20  1  0
 19 18  2  0
M  END
$$$$
