LGV.pdb
     RDKit          3D

 20 19  0  0  1  0  0  0  0  0999 V2000
   21.0916  -14.0220  -17.7495 C   0  0  0  0  0  0  0  0  0  0  0  0
   20.1597  -12.9555  -18.2852 C   0  0  1  0  0  0  0  0  0  0  0  0
   19.0385  -13.6011  -19.0456 C   0  0  0  0  0  0  0  0  0  0  0  0
   19.7269  -12.0107  -17.2255 C   0  0  0  0  0  0  0  0  0  0  0  0
   18.8428  -10.8962  -17.7142 C   0  0  2  0  0  0  0  0  0  0  0  0
   19.6184  -10.0906  -18.6297 N   0  0  0  0  0  0  0  0  0  0  0  0
   18.3229  -10.0731  -16.5758 C   0  0  0  0  0  0  0  0  0  0  0  0
   17.7707  -10.6278  -15.5939 O   0  0  0  0  0  0  0  0  0  0  0  0
   18.4319   -8.6563  -16.5617 N   0  0  0  0  0  0  0  0  0  0  0  0
   17.9685   -7.8032  -15.4924 C   0  0  0  0  0  0  0  0  0  0  0  0
   18.9904   -7.2823  -14.6021 C   0  0  0  0  0  0  0  0  0  0  0  0
   18.6268   -6.5030  -13.6820 O   0  0  0  0  0  0  0  0  0  0  0  0
   22.9830   -8.7969  -14.4927 C   0  0  0  0  0  0  0  0  0  0  0  0
   22.2368   -8.2417  -13.3037 C   0  0  2  0  0  0  0  0  0  0  0  0
   21.4998   -9.3520  -12.6059 C   0  0  0  0  0  0  0  0  0  0  0  0
   21.2968   -7.1330  -13.7321 C   0  0  2  0  0  0  0  0  0  0  0  0
   20.3520   -7.5971  -14.7134 N   0  0  0  0  0  0  0  0  0  0  0  0
   22.0775   -5.9673  -14.2123 C   0  0  0  0  0  0  0  0  0  0  0  0
   22.8311   -5.3897  -13.3880 O   0  0  0  0  0  0  0  0  0  0  0  0
   22.0310   -5.4770  -15.5007 O   0  0  0  0  0  0  0  0  0  0  0  0
  2  1  1  1
  3  2  1  0
  4  2  1  0
  5  4  1  0
  5  6  1  6
  7  5  1  0
  7  8  2  0
  9 10  1  0
  9  7  1  0
 10 11  1  0
 11 17  1  0
 11 12  2  0
 14 13  1  6
 14 15  1  0
 16 14  1  0
 16 17  1  6
 18 16  1  0
 18 20  1  0
 19 18  2  0
M  END
$$$$
