LGV.pdb
     RDKit          3D

 20 19  0  0  1  0  0  0  0  0999 V2000
   18.9242  -17.4804  -18.7985 C   0  0  0  0  0  0  0  0  0  0  0  0
   18.3720  -16.6138  -17.6862 C   0  0  1  0  0  0  0  0  0  0  0  0
   18.6524  -17.2568  -16.3596 C   0  0  0  0  0  0  0  0  0  0  0  0
   18.8251  -15.2051  -17.8007 C   0  0  0  0  0  0  0  0  0  0  0  0
   18.2610  -14.2869  -16.7512 C   0  0  2  0  0  0  0  0  0  0  0  0
   16.8417  -14.1631  -16.9941 N   0  0  0  0  0  0  0  0  0  0  0  0
   18.9335  -12.9488  -16.7784 C   0  0  0  0  0  0  0  0  0  0  0  0
   20.1731  -12.8594  -16.5986 O   0  0  0  0  0  0  0  0  0  0  0  0
   18.2084  -11.7478  -17.0047 N   0  0  0  0  0  0  0  0  0  0  0  0
   18.7975  -10.4322  -17.0950 C   0  0  0  0  0  0  0  0  0  0  0  0
   19.3855   -9.9103  -15.8743 C   0  0  0  0  0  0  0  0  0  0  0  0
   18.7157  -10.0045  -14.8121 O   0  0  0  0  0  0  0  0  0  0  0  0
   23.5039   -9.0227  -15.4112 C   0  0  0  0  0  0  0  0  0  0  0  0
   22.5532   -9.3650  -14.2897 C   0  0  2  0  0  0  0  0  0  0  0  0
   22.5199  -10.8559  -14.0924 C   0  0  0  0  0  0  0  0  0  0  0  0
   21.1715   -8.8099  -14.5713 C   0  0  2  0  0  0  0  0  0  0  0  0
   20.6505   -9.3084  -15.8166 N   0  0  0  0  0  0  0  0  0  0  0  0
   21.2055   -7.3279  -14.5304 C   0  0  0  0  0  0  0  0  0  0  0  0
   21.4419   -6.7797  -13.4238 O   0  0  0  0  0  0  0  0  0  0  0  0
   20.9953   -6.5143  -15.6241 O   0  0  0  0  0  0  0  0  0  0  0  0
  2  1  1  6
  3  2  1  0
  4  2  1  0
  5  4  1  0
  5  6  1  6
  7  5  1  0
  7  8  2  0
  9 10  1  0
  9  7  1  0
 10 11  1  0
 11 17  1  0
 11 12  2  0
 14 13  1  6
 14 15  1  0
 16 14  1  0
 16 17  1  6
 18 16  1  0
 18 20  1  0
 19 18  2  0
M  END
$$$$
