PFM.pdb
     RDKit          3D

 27 28  0  0  1  0  0  0  0  0999 V2000
    8.4676  -16.7517   18.8399 N   0  0  0  0  0  0  0  0  0  0  0  0
    7.6020  -16.4091   17.7552 C   0  0  0  0  0  0  0  0  0  0  0  0
    7.6666  -14.9039   17.7213 C   0  0  0  0  0  0  0  0  0  0  0  0
    9.1684  -14.6705   17.9306 C   0  0  0  0  0  0  0  0  0  0  0  0
    9.4711  -15.7423   18.9701 C   0  0  1  0  0  0  0  0  0  0  0  0
    9.4655  -15.1213   20.3251 C   0  0  0  0  0  0  0  0  0  0  0  0
   10.3088  -14.2321   20.5988 O   0  0  0  0  0  0  0  0  0  0  0  0
    8.5473  -15.4855   21.3341 N   0  0  0  0  0  0  0  0  0  0  0  0
    8.5101  -14.8484   22.6314 C   0  0  1  0  0  0  0  0  0  0  0  0
    7.0616  -14.6275   22.9481 C   0  0  0  0  0  0  0  0  0  0  0  0
    6.7716  -13.8115   24.1174 C   0  0  0  0  0  0  0  0  0  0  0  0
    6.8690  -12.4395   24.0269 C   0  0  0  0  0  0  0  0  0  0  0  0
    6.6015  -11.6184   25.1055 C   0  0  0  0  0  0  0  0  0  0  0  0
    6.2270  -12.1602   26.3100 C   0  0  0  0  0  0  0  0  0  0  0  0
    6.1205  -13.5497   26.4294 C   0  0  0  0  0  0  0  0  0  0  0  0
    6.3938  -14.3314   25.3378 C   0  0  0  0  0  0  0  0  0  0  0  0
    9.1615  -15.6713   23.6710 C   0  0  0  0  0  0  0  0  0  0  0  0
    9.4483  -16.8717   23.4299 O   0  0  0  0  0  0  0  0  0  0  0  0
   10.5989  -14.8157   30.6195 C   0  0  0  0  0  0  0  0  0  0  0  0
   12.0015  -14.7310   29.4712 S   0  0  0  0  0  0  0  0  0  0  0  0
   11.5904  -15.7575   28.0377 C   0  0  0  0  0  0  0  0  0  0  0  0
   10.8048  -15.0146   27.0032 C   0  0  0  0  0  0  0  0  0  0  0  0
   10.3670  -15.8999   25.8916 C   0  0  2  0  0  0  0  0  0  0  0  0
    9.4951  -15.1889   24.9564 N   0  0  0  0  0  0  0  0  0  0  0  0
    9.6095  -17.0504   26.4042 C   0  0  0  0  0  0  0  0  0  0  0  0
    8.3429  -16.9812   26.4415 O   0  0  0  0  0  0  0  0  0  0  0  0
   10.2163  -18.2032   26.8440 O   0  0  0  0  0  0  0  0  0  0  0  0
  1  5  1  0
  1  2  1  0
  2  3  1  0
  4  3  1  0
  5  4  1  0
  5  6  1  1
  7  6  2  0
  8  6  1  0
  9  8  1  0
 10 11  1  0
  9 10  1  1
 11 16  1  0
 11 12  2  0
 12 13  1  0
 13 14  2  0
 15 14  1  0
 16 15  2  0
 17 24  1  0
 17  9  1  0
 18 17  2  0
 20 19  1  0
 21 20  1  0
 22 21  1  0
 23 22  1  1
 23 24  1  0
 25 23  1  0
 26 25  2  0
 27 25  1  0
M  END
$$$$
