PFM.pdb
     RDKit          3D

 27 28  0  0  1  0  0  0  0  0999 V2000
    8.6279  -17.4881   19.2843 N   0  0  0  0  0  0  0  0  0  0  0  0
    7.7971  -17.2608   18.1435 C   0  0  0  0  0  0  0  0  0  0  0  0
    7.8295  -15.7627   17.9832 C   0  0  0  0  0  0  0  0  0  0  0  0
    9.3166  -15.4743   18.2262 C   0  0  0  0  0  0  0  0  0  0  0  0
    9.6029  -16.4461   19.3640 C   0  0  1  0  0  0  0  0  0  0  0  0
    9.5315  -15.7128   20.6597 C   0  0  0  0  0  0  0  0  0  0  0  0
   10.3823  -14.8246   20.9126 O   0  0  0  0  0  0  0  0  0  0  0  0
    8.5420  -15.9679   21.6341 N   0  0  0  0  0  0  0  0  0  0  0  0
    8.5079  -15.2983   22.9150 C   0  0  1  0  0  0  0  0  0  0  0  0
    7.0836  -14.8851   23.1338 C   0  0  0  0  0  0  0  0  0  0  0  0
    6.8168  -14.0830   24.3182 C   0  0  0  0  0  0  0  0  0  0  0  0
    6.2944  -14.6871   25.4416 C   0  0  0  0  0  0  0  0  0  0  0  0
    6.0257  -13.9727   26.5934 C   0  0  0  0  0  0  0  0  0  0  0  0
    6.2774  -12.6241   26.6444 C   0  0  0  0  0  0  0  0  0  0  0  0
    6.8074  -11.9860   25.5183 C   0  0  0  0  0  0  0  0  0  0  0  0
    7.0607  -12.7275   24.3944 C   0  0  0  0  0  0  0  0  0  0  0  0
    8.9816  -16.1713   24.0086 C   0  0  0  0  0  0  0  0  0  0  0  0
    8.8477  -17.4182   23.9162 O   0  0  0  0  0  0  0  0  0  0  0  0
   11.8352  -14.5561   29.6299 C   0  0  0  0  0  0  0  0  0  0  0  0
   10.9033  -13.4398   28.5442 S   0  0  0  0  0  0  0  0  0  0  0  0
   10.8492  -14.2014   26.9026 C   0  0  0  0  0  0  0  0  0  0  0  0
   11.3124  -15.6244   26.9121 C   0  0  0  0  0  0  0  0  0  0  0  0
   10.4850  -16.4871   26.0276 C   0  0  2  0  0  0  0  0  0  0  0  0
    9.5933  -15.6881   25.1870 N   0  0  0  0  0  0  0  0  0  0  0  0
    9.6410  -17.3935   26.8192 C   0  0  0  0  0  0  0  0  0  0  0  0
   10.1995  -18.2763   27.5397 O   0  0  0  0  0  0  0  0  0  0  0  0
    8.2678  -17.3237   26.8144 O   0  0  0  0  0  0  0  0  0  0  0  0
  1  5  1  0
  1  2  1  0
  2  3  1  0
  4  3  1  0
  5  4  1  0
  5  6  1  1
  7  6  2  0
  8  6  1  0
  9  8  1  0
 10 11  1  0
  9 10  1  1
 11 16  1  0
 11 12  2  0
 12 13  1  0
 13 14  2  0
 15 14  1  0
 16 15  2  0
 17 24  1  0
 17  9  1  0
 18 17  2  0
 20 19  1  0
 21 20  1  0
 22 21  1  0
 23 22  1  1
 23 24  1  0
 25 23  1  0
 26 25  2  0
 27 25  1  0
M  END
$$$$
