PFM.pdb
     RDKit          3D

 27 28  0  0  1  0  0  0  0  0999 V2000
    8.2035  -15.7554   18.7721 N   0  0  0  0  0  0  0  0  0  0  0  0
    7.2667  -15.2295   17.8292 C   0  0  0  0  0  0  0  0  0  0  0  0
    7.3075  -13.7457   18.0897 C   0  0  0  0  0  0  0  0  0  0  0  0
    8.8159  -13.5184   18.2526 C   0  0  0  0  0  0  0  0  0  0  0  0
    9.1985  -14.7650   19.0401 C   0  0  1  0  0  0  0  0  0  0  0  0
    9.2691  -14.4226   20.4891 C   0  0  0  0  0  0  0  0  0  0  0  0
   10.0797  -13.5451   20.8760 O   0  0  0  0  0  0  0  0  0  0  0  0
    8.4597  -15.0425   21.4660 N   0  0  0  0  0  0  0  0  0  0  0  0
    8.5533  -14.7354   22.8757 C   0  0  1  0  0  0  0  0  0  0  0  0
    7.1465  -14.5446   23.3572 C   0  0  0  0  0  0  0  0  0  0  0  0
    6.9824  -13.8103   24.6025 C   0  0  0  0  0  0  0  0  0  0  0  0
    7.4119  -12.5028   24.6794 C   0  0  0  0  0  0  0  0  0  0  0  0
    7.2768  -11.7595   25.8364 C   0  0  0  0  0  0  0  0  0  0  0  0
    6.7028  -12.3163   26.9521 C   0  0  0  0  0  0  0  0  0  0  0  0
    6.2583  -13.6415   26.9014 C   0  0  0  0  0  0  0  0  0  0  0  0
    6.4092  -14.3469   25.7366 C   0  0  0  0  0  0  0  0  0  0  0  0
    9.2326  -15.8076   23.6317 C   0  0  0  0  0  0  0  0  0  0  0  0
    8.6122  -16.8650   23.9118 O   0  0  0  0  0  0  0  0  0  0  0  0
   10.4779  -13.1792   28.8046 C   0  0  0  0  0  0  0  0  0  0  0  0
    9.9492  -14.8785   29.1595 S   0  0  0  0  0  0  0  0  0  0  0  0
   10.5940  -15.9334   27.8369 C   0  0  0  0  0  0  0  0  0  0  0  0
   10.2855  -15.4009   26.4729 C   0  0  0  0  0  0  0  0  0  0  0  0
   11.0144  -16.1383   25.4071 C   0  0  2  0  0  0  0  0  0  0  0  0
   10.5715  -15.7252   24.0753 N   0  0  0  0  0  0  0  0  0  0  0  0
   10.7788  -17.5851   25.5149 C   0  0  0  0  0  0  0  0  0  0  0  0
   11.7770  -18.3689   25.5171 O   0  0  0  0  0  0  0  0  0  0  0  0
    9.5193  -18.1273   25.6167 O   0  0  0  0  0  0  0  0  0  0  0  0
  1  5  1  0
  1  2  1  0
  2  3  1  0
  4  3  1  0
  5  4  1  0
  5  6  1  1
  7  6  2  0
  8  6  1  0
  9  8  1  0
 10 11  1  0
  9 10  1  1
 11 16  1  0
 11 12  2  0
 12 13  1  0
 13 14  2  0
 15 14  1  0
 16 15  2  0
 17 24  1  0
 17  9  1  0
 18 17  2  0
 20 19  1  0
 21 20  1  0
 22 21  1  0
 23 22  1  1
 23 24  1  0
 25 23  1  0
 26 25  2  0
 27 25  1  0
M  END
$$$$
