PFM.pdb
     RDKit          3D

 27 28  0  0  1  0  0  0  0  0999 V2000
    8.5468  -17.7666   19.4190 N   0  0  0  0  0  0  0  0  0  0  0  0
    7.7621  -17.5721   18.2402 C   0  0  0  0  0  0  0  0  0  0  0  0
    7.9711  -16.1143   17.9206 C   0  0  0  0  0  0  0  0  0  0  0  0
    9.4786  -15.9736   18.1678 C   0  0  0  0  0  0  0  0  0  0  0  0
    9.6358  -16.8410   19.4102 C   0  0  1  0  0  0  0  0  0  0  0  0
    9.6349  -15.9667   20.6174 C   0  0  0  0  0  0  0  0  0  0  0  0
   10.5638  -15.1372   20.7779 O   0  0  0  0  0  0  0  0  0  0  0  0
    8.6287  -16.0224   21.6064 N   0  0  0  0  0  0  0  0  0  0  0  0
    8.6229  -15.1671   22.7721 C   0  0  1  0  0  0  0  0  0  0  0  0
    7.1821  -14.9403   23.1181 C   0  0  0  0  0  0  0  0  0  0  0  0
    6.9149  -13.9933   24.1899 C   0  0  0  0  0  0  0  0  0  0  0  0
    7.2153  -12.6606   24.0066 C   0  0  0  0  0  0  0  0  0  0  0  0
    6.9785  -11.7195   24.9903 C   0  0  0  0  0  0  0  0  0  0  0  0
    6.4303  -12.0977   26.1906 C   0  0  0  0  0  0  0  0  0  0  0  0
    6.1160  -13.4440   26.4030 C   0  0  0  0  0  0  0  0  0  0  0  0
    6.3651  -14.3481   25.4041 C   0  0  0  0  0  0  0  0  0  0  0  0
    9.3526  -15.7715   23.9055 C   0  0  0  0  0  0  0  0  0  0  0  0
    9.3889  -17.0223   24.0305 O   0  0  0  0  0  0  0  0  0  0  0  0
   11.6104  -15.2544   31.3380 C   0  0  0  0  0  0  0  0  0  0  0  0
   11.2259  -14.2426   29.8813 S   0  0  0  0  0  0  0  0  0  0  0  0
   11.2702  -15.3338   28.4373 C   0  0  0  0  0  0  0  0  0  0  0  0
   10.6457  -14.7137   27.2270 C   0  0  0  0  0  0  0  0  0  0  0  0
   10.7093  -15.6114   26.0433 C   0  0  2  0  0  0  0  0  0  0  0  0
   10.0332  -15.0192   24.8889 N   0  0  0  0  0  0  0  0  0  0  0  0
   10.0503  -16.8953   26.3225 C   0  0  0  0  0  0  0  0  0  0  0  0
   10.7658  -17.8931   26.6430 O   0  0  0  0  0  0  0  0  0  0  0  0
    8.6871  -17.0611   26.2535 O   0  0  0  0  0  0  0  0  0  0  0  0
  1  5  1  0
  1  2  1  0
  2  3  1  0
  4  3  1  0
  5  4  1  0
  5  6  1  1
  7  6  2  0
  8  6  1  0
  9  8  1  0
 10 11  1  0
  9 10  1  1
 11 16  1  0
 11 12  2  0
 12 13  1  0
 13 14  2  0
 15 14  1  0
 16 15  2  0
 17 24  1  0
 17  9  1  0
 18 17  2  0
 20 19  1  0
 21 20  1  0
 22 21  1  0
 23 22  1  1
 23 24  1  0
 25 23  1  0
 26 25  2  0
 27 25  1  0
M  END
$$$$
