PFM.pdb
     RDKit          3D

 27 28  0  0  1  0  0  0  0  0999 V2000
    8.3974  -15.7336   18.8127 N   0  0  0  0  0  0  0  0  0  0  0  0
    7.5541  -15.1571   17.8129 C   0  0  0  0  0  0  0  0  0  0  0  0
    7.7038  -13.6755   18.0444 C   0  0  0  0  0  0  0  0  0  0  0  0
    9.2160  -13.5671   18.2787 C   0  0  0  0  0  0  0  0  0  0  0  0
    9.4562  -14.8207   19.1103 C   0  0  1  0  0  0  0  0  0  0  0  0
    9.4838  -14.4494   20.5535 C   0  0  0  0  0  0  0  0  0  0  0  0
   10.3544  -13.6440   20.9658 O   0  0  0  0  0  0  0  0  0  0  0  0
    8.5681  -14.9634   21.4975 N   0  0  0  0  0  0  0  0  0  0  0  0
    8.5398  -14.5378   22.8789 C   0  0  1  0  0  0  0  0  0  0  0  0
    7.1109  -14.2032   23.1849 C   0  0  0  0  0  0  0  0  0  0  0  0
    6.8674  -13.4701   24.4180 C   0  0  0  0  0  0  0  0  0  0  0  0
    6.4062  -14.1455   25.5276 C   0  0  0  0  0  0  0  0  0  0  0  0
    6.1621  -13.4983   26.7237 C   0  0  0  0  0  0  0  0  0  0  0  0
    6.3770  -12.1470   26.8345 C   0  0  0  0  0  0  0  0  0  0  0  0
    6.8448  -11.4373   25.7237 C   0  0  0  0  0  0  0  0  0  0  0  0
    7.0754  -12.1134   24.5546 C   0  0  0  0  0  0  0  0  0  0  0  0
    9.0474  -15.5835   23.7906 C   0  0  0  0  0  0  0  0  0  0  0  0
    9.0695  -16.7835   23.4154 O   0  0  0  0  0  0  0  0  0  0  0  0
   12.1236  -14.7692   29.6874 C   0  0  0  0  0  0  0  0  0  0  0  0
   10.3993  -14.2536   29.4550 S   0  0  0  0  0  0  0  0  0  0  0  0
    9.7587  -15.1409   28.0127 C   0  0  0  0  0  0  0  0  0  0  0  0
   10.8458  -15.6434   27.1156 C   0  0  0  0  0  0  0  0  0  0  0  0
   10.3055  -16.2747   25.8824 C   0  0  2  0  0  0  0  0  0  0  0  0
    9.5244  -15.3212   25.0944 N   0  0  0  0  0  0  0  0  0  0  0  0
    9.4164  -17.3972   26.2139 C   0  0  0  0  0  0  0  0  0  0  0  0
    8.1655  -17.2544   26.0542 O   0  0  0  0  0  0  0  0  0  0  0  0
    9.8836  -18.6000   26.6887 O   0  0  0  0  0  0  0  0  0  0  0  0
  1  5  1  0
  1  2  1  0
  2  3  1  0
  4  3  1  0
  5  4  1  0
  5  6  1  1
  7  6  2  0
  8  6  1  0
  9  8  1  0
 10 11  1  0
  9 10  1  1
 11 16  1  0
 11 12  2  0
 12 13  1  0
 13 14  2  0
 15 14  1  0
 16 15  2  0
 17 24  1  0
 17  9  1  0
 18 17  2  0
 20 19  1  0
 21 20  1  0
 22 21  1  0
 23 22  1  1
 23 24  1  0
 25 23  1  0
 26 25  2  0
 27 25  1  0
M  END
$$$$
