PFM.pdb
     RDKit          3D

 27 28  0  0  1  0  0  0  0  0999 V2000
    7.5640  -15.3586   19.0921 N   0  0  0  0  0  0  0  0  0  0  0  0
    6.7848  -14.5424   18.2146 C   0  0  0  0  0  0  0  0  0  0  0  0
    7.2926  -13.1509   18.4922 C   0  0  0  0  0  0  0  0  0  0  0  0
    8.8045  -13.4005   18.5668 C   0  0  0  0  0  0  0  0  0  0  0  0
    8.8277  -14.7284   19.3130 C   0  0  1  0  0  0  0  0  0  0  0  0
    9.0769  -14.4695   20.7595 C   0  0  0  0  0  0  0  0  0  0  0  0
   10.1963  -14.0321   21.1231 O   0  0  0  0  0  0  0  0  0  0  0  0
    8.1054  -14.6936   21.7594 N   0  0  0  0  0  0  0  0  0  0  0  0
    8.3307  -14.3961   23.1562 C   0  0  1  0  0  0  0  0  0  0  0  0
    7.0380  -13.8480   23.6814 C   0  0  0  0  0  0  0  0  0  0  0  0
    7.0690  -13.2925   25.0259 C   0  0  0  0  0  0  0  0  0  0  0  0
    6.5849  -14.0393   26.0785 C   0  0  0  0  0  0  0  0  0  0  0  0
    6.5941  -13.5609   27.3748 C   0  0  0  0  0  0  0  0  0  0  0  0
    7.0934  -12.3114   27.6465 C   0  0  0  0  0  0  0  0  0  0  0  0
    7.5909  -11.5324   26.5967 C   0  0  0  0  0  0  0  0  0  0  0  0
    7.5652  -12.0407   25.3246 C   0  0  0  0  0  0  0  0  0  0  0  0
    8.7484  -15.5919   23.9162 C   0  0  0  0  0  0  0  0  0  0  0  0
    8.2136  -16.7044   23.6757 O   0  0  0  0  0  0  0  0  0  0  0  0
   14.9710  -16.3583   26.7831 C   0  0  0  0  0  0  0  0  0  0  0  0
   14.5149  -17.5252   25.4703 S   0  0  0  0  0  0  0  0  0  0  0  0
   12.7254  -17.7810   25.5710 C   0  0  0  0  0  0  0  0  0  0  0  0
   11.9463  -16.5741   25.1518 C   0  0  0  0  0  0  0  0  0  0  0  0
   10.4844  -16.7541   25.3558 C   0  0  2  0  0  0  0  0  0  0  0  0
    9.7371  -15.5723   24.9254 N   0  0  0  0  0  0  0  0  0  0  0  0
   10.1756  -16.9709   26.7764 C   0  0  0  0  0  0  0  0  0  0  0  0
    9.3298  -17.8638   27.0892 O   0  0  0  0  0  0  0  0  0  0  0  0
   10.7680  -16.2472   27.7843 O   0  0  0  0  0  0  0  0  0  0  0  0
  1  5  1  0
  1  2  1  0
  2  3  1  0
  4  3  1  0
  5  4  1  0
  5  6  1  1
  7  6  2  0
  8  6  1  0
  9  8  1  0
 10 11  1  0
  9 10  1  1
 11 16  1  0
 11 12  2  0
 12 13  1  0
 13 14  2  0
 15 14  1  0
 16 15  2  0
 17 24  1  0
 17  9  1  0
 18 17  2  0
 20 19  1  0
 21 20  1  0
 22 21  1  0
 23 22  1  1
 23 24  1  0
 25 23  1  0
 26 25  2  0
 27 25  1  0
M  END
$$$$
