PFM.pdb
     RDKit          3D

 27 28  0  0  1  0  0  0  0  0999 V2000
    8.2423  -15.8683   18.8182 N   0  0  0  0  0  0  0  0  0  0  0  0
    7.3302  -15.2732   17.8924 C   0  0  0  0  0  0  0  0  0  0  0  0
    7.4712  -13.7978   18.1656 C   0  0  0  0  0  0  0  0  0  0  0  0
    8.9931  -13.6711   18.3106 C   0  0  0  0  0  0  0  0  0  0  0  0
    9.3033  -14.9476   19.0819 C   0  0  1  0  0  0  0  0  0  0  0  0
    9.4142  -14.6247   20.5328 C   0  0  0  0  0  0  0  0  0  0  0  0
   10.2944  -13.8165   20.9185 O   0  0  0  0  0  0  0  0  0  0  0  0
    8.5684  -15.1884   21.5129 N   0  0  0  0  0  0  0  0  0  0  0  0
    8.6029  -14.7937   22.9034 C   0  0  1  0  0  0  0  0  0  0  0  0
    7.1909  -14.4586   23.2788 C   0  0  0  0  0  0  0  0  0  0  0  0
    7.0136  -13.6497   24.4752 C   0  0  0  0  0  0  0  0  0  0  0  0
    6.6178  -14.2543   25.6490 C   0  0  0  0  0  0  0  0  0  0  0  0
    6.4383  -13.5334   26.8140 C   0  0  0  0  0  0  0  0  0  0  0  0
    6.6535  -12.1777   26.8277 C   0  0  0  0  0  0  0  0  0  0  0  0
    7.0555  -11.5389   25.6502 C   0  0  0  0  0  0  0  0  0  0  0  0
    7.2233  -12.2870   24.5146 C   0  0  0  0  0  0  0  0  0  0  0  0
    9.1432  -15.8622   23.7686 C   0  0  0  0  0  0  0  0  0  0  0  0
    9.1111  -17.0578   23.3803 O   0  0  0  0  0  0  0  0  0  0  0  0
   10.6179  -13.3807   28.5762 C   0  0  0  0  0  0  0  0  0  0  0  0
    9.4617  -14.7664   28.7667 S   0  0  0  0  0  0  0  0  0  0  0  0
   10.2909  -16.2523   28.1484 C   0  0  0  0  0  0  0  0  0  0  0  0
   11.1641  -15.9747   26.9652 C   0  0  0  0  0  0  0  0  0  0  0  0
   10.6135  -16.5611   25.7146 C   0  0  2  0  0  0  0  0  0  0  0  0
    9.7109  -15.6273   25.0410 N   0  0  0  0  0  0  0  0  0  0  0  0
    9.8440  -17.7802   26.0011 C   0  0  0  0  0  0  0  0  0  0  0  0
    8.5886  -17.7689   25.8156 O   0  0  0  0  0  0  0  0  0  0  0  0
   10.4285  -18.9369   26.4604 O   0  0  0  0  0  0  0  0  0  0  0  0
  1  5  1  0
  1  2  1  0
  2  3  1  0
  4  3  1  0
  5  4  1  0
  5  6  1  1
  7  6  2  0
  8  6  1  0
  9  8  1  0
 10 11  1  0
  9 10  1  1
 11 16  1  0
 11 12  2  0
 12 13  1  0
 13 14  2  0
 15 14  1  0
 16 15  2  0
 17 24  1  0
 17  9  1  0
 18 17  2  0
 20 19  1  0
 21 20  1  0
 22 21  1  0
 23 22  1  1
 23 24  1  0
 25 23  1  0
 26 25  2  0
 27 25  1  0
M  END
$$$$
