PFM.pdb
     RDKit          3D

 27 28  0  0  1  0  0  0  0  0999 V2000
    8.2008  -16.2079   18.7768 N   0  0  0  0  0  0  0  0  0  0  0  0
    7.3461  -15.6805   17.7596 C   0  0  0  0  0  0  0  0  0  0  0  0
    7.5434  -14.1911   17.8781 C   0  0  0  0  0  0  0  0  0  0  0  0
    9.0640  -14.1111   18.0645 C   0  0  0  0  0  0  0  0  0  0  0  0
    9.2924  -15.3078   18.9791 C   0  0  1  0  0  0  0  0  0  0  0  0
    9.3708  -14.8339   20.3901 C   0  0  0  0  0  0  0  0  0  0  0  0
   10.3278  -14.1008   20.7415 O   0  0  0  0  0  0  0  0  0  0  0  0
    8.4105  -15.1707   21.3689 N   0  0  0  0  0  0  0  0  0  0  0  0
    8.4321  -14.6324   22.7106 C   0  0  1  0  0  0  0  0  0  0  0  0
    7.0020  -14.3844   23.0854 C   0  0  0  0  0  0  0  0  0  0  0  0
    6.7749  -13.6214   24.3034 C   0  0  0  0  0  0  0  0  0  0  0  0
    6.2242  -14.2467   25.4014 C   0  0  0  0  0  0  0  0  0  0  0  0
    5.9910  -13.5697   26.5832 C   0  0  0  0  0  0  0  0  0  0  0  0
    6.3077  -12.2383   26.6908 C   0  0  0  0  0  0  0  0  0  0  0  0
    6.8677  -11.5794   25.5914 C   0  0  0  0  0  0  0  0  0  0  0  0
    7.0843  -12.2839   24.4365 C   0  0  0  0  0  0  0  0  0  0  0  0
    9.0795  -15.5542   23.6663 C   0  0  0  0  0  0  0  0  0  0  0  0
    9.1247  -16.7855   23.4150 O   0  0  0  0  0  0  0  0  0  0  0  0
   10.2204  -14.4290   30.0007 C   0  0  0  0  0  0  0  0  0  0  0  0
   11.6322  -15.5202   29.6699 S   0  0  0  0  0  0  0  0  0  0  0  0
   11.3589  -16.2833   28.0510 C   0  0  0  0  0  0  0  0  0  0  0  0
   10.6544  -15.3718   27.0959 C   0  0  0  0  0  0  0  0  0  0  0  0
   10.3742  -16.0346   25.7946 C   0  0  2  0  0  0  0  0  0  0  0  0
    9.6694  -15.1360   24.8802 N   0  0  0  0  0  0  0  0  0  0  0  0
    9.5247  -17.2195   25.9815 C   0  0  0  0  0  0  0  0  0  0  0  0
    8.2669  -17.0655   26.0513 O   0  0  0  0  0  0  0  0  0  0  0  0
   10.0360  -18.4919   26.0816 O   0  0  0  0  0  0  0  0  0  0  0  0
  1  5  1  0
  1  2  1  0
  2  3  1  0
  4  3  1  0
  5  4  1  0
  5  6  1  1
  7  6  2  0
  8  6  1  0
  9  8  1  0
 10 11  1  0
  9 10  1  1
 11 16  1  0
 11 12  2  0
 12 13  1  0
 13 14  2  0
 15 14  1  0
 16 15  2  0
 17 24  1  0
 17  9  1  0
 18 17  2  0
 20 19  1  0
 21 20  1  0
 22 21  1  0
 23 22  1  1
 23 24  1  0
 25 23  1  0
 26 25  2  0
 27 25  1  0
M  END
$$$$
