PFM.pdb
     RDKit          3D

 27 28  0  0  1  0  0  0  0  0999 V2000
    8.8201  -17.9769   19.1507 N   0  0  0  0  0  0  0  0  0  0  0  0
    7.9645  -17.8600   18.0116 C   0  0  0  0  0  0  0  0  0  0  0  0
    7.9595  -16.3792   17.7316 C   0  0  0  0  0  0  0  0  0  0  0  0
    9.4434  -16.0402   17.9221 C   0  0  0  0  0  0  0  0  0  0  0  0
    9.7720  -16.9110   19.1281 C   0  0  1  0  0  0  0  0  0  0  0  0
    9.7063  -16.0778   20.3623 C   0  0  0  0  0  0  0  0  0  0  0  0
   10.5792  -15.1967   20.5579 O   0  0  0  0  0  0  0  0  0  0  0  0
    8.6982  -16.2289   21.3394 N   0  0  0  0  0  0  0  0  0  0  0  0
    8.6349  -15.4205   22.5363 C   0  0  1  0  0  0  0  0  0  0  0  0
    7.1826  -15.1319   22.7705 C   0  0  0  0  0  0  0  0  0  0  0  0
    6.8672  -14.2764   23.9044 C   0  0  0  0  0  0  0  0  0  0  0  0
    7.2167  -12.9437   23.8652 C   0  0  0  0  0  0  0  0  0  0  0  0
    6.9376  -12.0872   24.9130 C   0  0  0  0  0  0  0  0  0  0  0  0
    6.2960  -12.5529   26.0337 C   0  0  0  0  0  0  0  0  0  0  0  0
    5.9302  -13.9013   26.0997 C   0  0  0  0  0  0  0  0  0  0  0  0
    6.2237  -14.7200   25.0410 C   0  0  0  0  0  0  0  0  0  0  0  0
    9.2345  -16.1060   23.6994 C   0  0  0  0  0  0  0  0  0  0  0  0
    9.3083  -17.3612   23.7161 O   0  0  0  0  0  0  0  0  0  0  0  0
   10.5407  -13.2170   29.3413 C   0  0  0  0  0  0  0  0  0  0  0  0
   11.4264  -14.7608   29.6955 S   0  0  0  0  0  0  0  0  0  0  0  0
   11.1395  -15.8813   28.3027 C   0  0  0  0  0  0  0  0  0  0  0  0
   10.5683  -15.1825   27.1091 C   0  0  0  0  0  0  0  0  0  0  0  0
   10.4074  -16.0988   25.9491 C   0  0  2  0  0  0  0  0  0  0  0  0
    9.7463  -15.4289   24.8290 N   0  0  0  0  0  0  0  0  0  0  0  0
    9.5830  -17.2612   26.3090 C   0  0  0  0  0  0  0  0  0  0  0  0
    8.3194  -17.1446   26.2895 O   0  0  0  0  0  0  0  0  0  0  0  0
   10.1240  -18.4743   26.6646 O   0  0  0  0  0  0  0  0  0  0  0  0
  1  5  1  0
  1  2  1  0
  2  3  1  0
  4  3  1  0
  5  4  1  0
  5  6  1  1
  7  6  2  0
  8  6  1  0
  9  8  1  0
 10 11  1  0
  9 10  1  1
 11 16  1  0
 11 12  2  0
 12 13  1  0
 13 14  2  0
 15 14  1  0
 16 15  2  0
 17 24  1  0
 17  9  1  0
 18 17  2  0
 20 19  1  0
 21 20  1  0
 22 21  1  0
 23 22  1  1
 23 24  1  0
 25 23  1  0
 26 25  2  0
 27 25  1  0
M  END
$$$$
