PFM.pdb
     RDKit          3D

 27 28  0  0  1  0  0  0  0  0999 V2000
    8.2886  -15.7413   18.5488 N   0  0  0  0  0  0  0  0  0  0  0  0
    7.3923  -15.1483   17.6064 C   0  0  0  0  0  0  0  0  0  0  0  0
    7.4859  -13.6765   17.9168 C   0  0  0  0  0  0  0  0  0  0  0  0
    8.9984  -13.5148   18.1154 C   0  0  0  0  0  0  0  0  0  0  0  0
    9.3161  -14.8005   18.8683 C   0  0  1  0  0  0  0  0  0  0  0  0
    9.3708  -14.5083   20.3289 C   0  0  0  0  0  0  0  0  0  0  0  0
   10.2030  -13.6723   20.7591 O   0  0  0  0  0  0  0  0  0  0  0  0
    8.5228  -15.1318   21.2701 N   0  0  0  0  0  0  0  0  0  0  0  0
    8.5235  -14.7930   22.6756 C   0  0  1  0  0  0  0  0  0  0  0  0
    7.0847  -14.7270   23.0912 C   0  0  0  0  0  0  0  0  0  0  0  0
    6.7919  -13.9569   24.2906 C   0  0  0  0  0  0  0  0  0  0  0  0
    6.3200  -14.6039   25.4124 C   0  0  0  0  0  0  0  0  0  0  0  0
    6.0297  -13.9210   26.5780 C   0  0  0  0  0  0  0  0  0  0  0  0
    6.2078  -12.5615   26.6447 C   0  0  0  0  0  0  0  0  0  0  0  0
    6.6853  -11.8800   25.5205 C   0  0  0  0  0  0  0  0  0  0  0  0
    6.9622  -12.5912   24.3827 C   0  0  0  0  0  0  0  0  0  0  0  0
    9.2647  -15.7833   23.4832 C   0  0  0  0  0  0  0  0  0  0  0  0
    9.3497  -16.9744   23.0888 O   0  0  0  0  0  0  0  0  0  0  0  0
   11.5709  -13.0639   28.2633 C   0  0  0  0  0  0  0  0  0  0  0  0
   10.9124  -14.5405   29.0874 S   0  0  0  0  0  0  0  0  0  0  0  0
   10.3388  -15.6713   27.7951 C   0  0  0  0  0  0  0  0  0  0  0  0
   11.3131  -15.7981   26.6664 C   0  0  0  0  0  0  0  0  0  0  0  0
   10.7019  -16.4350   25.4697 C   0  0  2  0  0  0  0  0  0  0  0  0
    9.9042  -15.4762   24.7051 N   0  0  0  0  0  0  0  0  0  0  0  0
    9.8065  -17.5334   25.8596 C   0  0  0  0  0  0  0  0  0  0  0  0
    8.5649  -17.2982   25.9767 O   0  0  0  0  0  0  0  0  0  0  0  0
   10.2576  -18.8096   26.1011 O   0  0  0  0  0  0  0  0  0  0  0  0
  1  5  1  0
  1  2  1  0
  2  3  1  0
  4  3  1  0
  5  4  1  0
  5  6  1  1
  7  6  2  0
  8  6  1  0
  9  8  1  0
 10 11  1  0
  9 10  1  1
 11 16  1  0
 11 12  2  0
 12 13  1  0
 13 14  2  0
 15 14  1  0
 16 15  2  0
 17 24  1  0
 17  9  1  0
 18 17  2  0
 20 19  1  0
 21 20  1  0
 22 21  1  0
 23 22  1  1
 23 24  1  0
 25 23  1  0
 26 25  2  0
 27 25  1  0
M  END
$$$$
