LWW.pdb
     RDKit          3D

 37 40  0  0  1  0  0  0  0  0999 V2000
   28.3624  -19.2384  -15.5108 C   0  0  0  0  0  0  0  0  0  0  0  0
   29.0643  -20.2847  -14.6631 C   0  0  2  0  0  0  0  0  0  0  0  0
   29.8292  -21.2487  -15.5077 C   0  0  0  0  0  0  0  0  0  0  0  0
   28.1787  -20.9104  -13.6364 C   0  0  0  0  0  0  0  0  0  0  0  0
   27.3396  -19.9387  -12.8454 C   0  0  2  0  0  0  0  0  0  0  0  0
   28.1166  -19.0648  -12.0251 N   0  0  0  0  0  0  0  0  0  0  0  0
   26.4512  -20.7673  -11.9801 C   0  0  0  0  0  0  0  0  0  0  0  0
   25.9751  -21.8620  -12.4236 O   0  0  0  0  0  0  0  0  0  0  0  0
   26.0819  -20.4190  -10.6548 N   0  0  0  0  0  0  0  0  0  0  0  0
   24.9898  -21.0948   -9.9566 C   0  0  1  0  0  0  0  0  0  0  0  0
   25.1806  -20.9605   -8.4619 C   0  0  0  0  0  0  0  0  0  0  0  0
   26.4270  -20.2654   -8.0888 C   0  0  0  0  0  0  0  0  0  0  0  0
   27.1553  -19.3574   -8.8516 C   0  0  0  0  0  0  0  0  0  0  0  0
   28.2288  -18.9990   -8.1555 N   0  0  0  0  0  0  0  0  0  0  0  0
   28.2610  -19.6232   -6.9530 C   0  0  0  0  0  0  0  0  0  0  0  0
   29.1551  -19.5590   -5.9032 C   0  0  0  0  0  0  0  0  0  0  0  0
   28.9301  -20.3027   -4.7661 C   0  0  0  0  0  0  0  0  0  0  0  0
   27.8237  -21.0987   -4.6846 C   0  0  0  0  0  0  0  0  0  0  0  0
   26.9554  -21.1407   -5.7439 C   0  0  0  0  0  0  0  0  0  0  0  0
   27.1332  -20.4135   -6.9144 C   0  0  0  0  0  0  0  0  0  0  0  0
   23.6611  -20.7432  -10.4571 C   0  0  0  0  0  0  0  0  0  0  0  0
   23.1314  -19.6255  -10.1980 O   0  0  0  0  0  0  0  0  0  0  0  0
   22.8680  -21.6170  -11.2675 N   0  0  0  0  0  0  0  0  0  0  0  0
   21.5528  -21.1817  -11.7428 C   0  0  1  0  0  0  0  0  0  0  0  0
   21.4188  -21.4589  -13.2287 C   0  0  0  0  0  0  0  0  0  0  0  0
   21.9000  -20.2849  -13.9812 C   0  0  0  0  0  0  0  0  0  0  0  0
   21.7692  -18.9554  -13.5814 C   0  0  0  0  0  0  0  0  0  0  0  0
   22.3175  -18.1727  -14.5224 N   0  0  0  0  0  0  0  0  0  0  0  0
   22.8111  -18.9171  -15.5368 C   0  0  0  0  0  0  0  0  0  0  0  0
   23.4574  -18.6005  -16.7098 C   0  0  0  0  0  0  0  0  0  0  0  0
   23.8519  -19.6088  -17.5622 C   0  0  0  0  0  0  0  0  0  0  0  0
   23.5857  -20.9075  -17.2120 C   0  0  0  0  0  0  0  0  0  0  0  0
   22.9416  -21.2503  -16.0459 C   0  0  0  0  0  0  0  0  0  0  0  0
   22.5511  -20.2393  -15.2000 C   0  0  0  0  0  0  0  0  0  0  0  0
   20.5013  -21.9005  -11.0129 C   0  0  0  0  0  0  0  0  0  0  0  0
   19.1661  -21.5594  -11.1558 O   0  0  0  0  0  0  0  0  0  0  0  0
   20.7739  -22.8467  -10.2354 O   0  0  0  0  0  0  0  0  0  0  0  0
  2  1  1  6
  2  3  1  0
  4  2  1  0
  5  4  1  0
  5  6  1  1
  7  5  1  0
  7  8  2  0
  9  7  1  0
 10 21  1  0
 10  9  1  0
 10 11  1  1
 12 20  1  0
 12 11  1  0
 13 12  2  0
 14 13  1  0
 14 15  1  0
 15 16  1  0
 15 20  2  0
 16 17  2  0
 17 18  1  0
 19 18  2  0
 20 19  1  0
 21 22  2  0
 23 24  1  0
 23 21  1  0
 24 25  1  6
 25 26  1  0
 26 34  1  0
 26 27  2  0
 27 28  1  0
 28 29  1  0
 29 30  2  0
 31 30  1  0
 32 31  2  0
 33 34  2  0
 33 32  1  0
 34 29  1  0
 35 24  1  0
 36 35  1  0
 37 35  2  0
M  END
$$$$
