LWW.pdb
     RDKit          3D

 37 40  0  0  1  0  0  0  0  0999 V2000
   25.1330  -26.5626  -16.6781 C   0  0  0  0  0  0  0  0  0  0  0  0
   24.3108  -25.3445  -17.0604 C   0  0  2  0  0  0  0  0  0  0  0  0
   24.2916  -25.1406  -18.5388 C   0  0  0  0  0  0  0  0  0  0  0  0
   24.6419  -24.1282  -16.2601 C   0  0  0  0  0  0  0  0  0  0  0  0
   24.7637  -24.3597  -14.7750 C   0  0  2  0  0  0  0  0  0  0  0  0
   23.6094  -24.9808  -14.2075 N   0  0  0  0  0  0  0  0  0  0  0  0
   24.9523  -23.0140  -14.1600 C   0  0  0  0  0  0  0  0  0  0  0  0
   25.7345  -22.1706  -14.7066 O   0  0  0  0  0  0  0  0  0  0  0  0
   24.3061  -22.5849  -12.9716 N   0  0  0  0  0  0  0  0  0  0  0  0
   24.3862  -21.2011  -12.5077 C   0  0  1  0  0  0  0  0  0  0  0  0
   22.9926  -20.6608  -12.2739 C   0  0  0  0  0  0  0  0  0  0  0  0
   22.2908  -20.2882  -13.5166 C   0  0  0  0  0  0  0  0  0  0  0  0
   22.5206  -19.1771  -14.3225 C   0  0  0  0  0  0  0  0  0  0  0  0
   21.6452  -19.2022  -15.3218 N   0  0  0  0  0  0  0  0  0  0  0  0
   20.8315  -20.2822  -15.2303 C   0  0  0  0  0  0  0  0  0  0  0  0
   19.7993  -20.7306  -16.0296 C   0  0  0  0  0  0  0  0  0  0  0  0
   19.1390  -21.8951  -15.7056 C   0  0  0  0  0  0  0  0  0  0  0  0
   19.5103  -22.5986  -14.5958 C   0  0  0  0  0  0  0  0  0  0  0  0
   20.5388  -22.1268  -13.8229 C   0  0  0  0  0  0  0  0  0  0  0  0
   21.2381  -20.9590  -14.1013 C   0  0  0  0  0  0  0  0  0  0  0  0
   25.3333  -20.9990  -11.4114 C   0  0  0  0  0  0  0  0  0  0  0  0
   24.9503  -20.9449  -10.2084 O   0  0  0  0  0  0  0  0  0  0  0  0
   26.7438  -20.8515  -11.6062 N   0  0  0  0  0  0  0  0  0  0  0  0
   27.6028  -20.4760  -10.4809 C   0  0  1  0  0  0  0  0  0  0  0  0
   27.3540  -21.4022   -9.3049 C   0  0  0  0  0  0  0  0  0  0  0  0
   27.3044  -20.6025   -8.0664 C   0  0  0  0  0  0  0  0  0  0  0  0
   26.3475  -19.6346   -7.7631 C   0  0  0  0  0  0  0  0  0  0  0  0
   26.6327  -19.1174   -6.5590 N   0  0  0  0  0  0  0  0  0  0  0  0
   27.7389  -19.6948   -6.0395 C   0  0  0  0  0  0  0  0  0  0  0  0
   28.4252  -19.5231   -4.8591 C   0  0  0  0  0  0  0  0  0  0  0  0
   29.5463  -20.2838   -4.6076 C   0  0  0  0  0  0  0  0  0  0  0  0
   29.9468  -21.1960   -5.5498 C   0  0  0  0  0  0  0  0  0  0  0  0
   29.2786  -21.3868   -6.7370 C   0  0  0  0  0  0  0  0  0  0  0  0
   28.1607  -20.6247   -6.9811 C   0  0  0  0  0  0  0  0  0  0  0  0
   29.0115  -20.5632  -10.8846 C   0  0  0  0  0  0  0  0  0  0  0  0
   30.0214  -20.0583  -10.0816 O   0  0  0  0  0  0  0  0  0  0  0  0
   29.3500  -21.0964  -11.9687 O   0  0  0  0  0  0  0  0  0  0  0  0
  2  1  1  6
  2  3  1  0
  4  2  1  0
  5  4  1  0
  5  6  1  1
  7  5  1  0
  7  8  2  0
  9  7  1  0
 10 21  1  0
 10  9  1  0
 10 11  1  1
 12 20  1  0
 12 11  1  0
 13 12  2  0
 14 13  1  0
 14 15  1  0
 15 16  1  0
 15 20  2  0
 16 17  2  0
 17 18  1  0
 19 18  2  0
 20 19  1  0
 21 22  2  0
 23 24  1  0
 23 21  1  0
 24 25  1  1
 25 26  1  0
 26 34  1  0
 26 27  2  0
 27 28  1  0
 28 29  1  0
 29 30  2  0
 31 30  1  0
 32 31  2  0
 33 34  2  0
 33 32  1  0
 34 29  1  0
 35 24  1  0
 36 35  1  0
 37 35  2  0
M  END
$$$$
