LWW.pdb
     RDKit          3D

 37 40  0  0  1  0  0  0  0  0999 V2000
   30.5109  -17.2077  -18.2569 C   0  0  0  0  0  0  0  0  0  0  0  0
   29.0188  -16.9356  -18.3314 C   0  0  2  0  0  0  0  0  0  0  0  0
   28.7363  -15.6043  -18.9443 C   0  0  0  0  0  0  0  0  0  0  0  0
   28.3002  -17.2057  -17.0506 C   0  0  0  0  0  0  0  0  0  0  0  0
   28.7332  -18.4588  -16.3323 C   0  0  2  0  0  0  0  0  0  0  0  0
   28.6846  -19.6237  -17.1575 N   0  0  0  0  0  0  0  0  0  0  0  0
   27.7924  -18.6260  -15.1871 C   0  0  0  0  0  0  0  0  0  0  0  0
   27.3829  -17.6035  -14.5479 O   0  0  0  0  0  0  0  0  0  0  0  0
   27.3008  -19.8793  -14.7380 N   0  0  0  0  0  0  0  0  0  0  0  0
   26.1855  -19.9774  -13.7981 C   0  0  1  0  0  0  0  0  0  0  0  0
   25.0400  -20.7256  -14.4436 C   0  0  0  0  0  0  0  0  0  0  0  0
   23.8124  -20.7394  -13.6260 C   0  0  0  0  0  0  0  0  0  0  0  0
   23.3208  -21.7831  -12.8477 C   0  0  0  0  0  0  0  0  0  0  0  0
   22.1728  -21.3906  -12.3059 N   0  0  0  0  0  0  0  0  0  0  0  0
   21.8637  -20.1256  -12.6815 C   0  0  0  0  0  0  0  0  0  0  0  0
   20.8000  -19.3035  -12.3682 C   0  0  0  0  0  0  0  0  0  0  0  0
   20.7442  -18.0289  -12.8868 C   0  0  0  0  0  0  0  0  0  0  0  0
   21.7419  -17.5866  -13.7075 C   0  0  0  0  0  0  0  0  0  0  0  0
   22.7840  -18.4271  -13.9995 C   0  0  0  0  0  0  0  0  0  0  0  0
   22.8907  -19.7215  -13.5061 C   0  0  0  0  0  0  0  0  0  0  0  0
   26.5734  -20.4438  -12.4671 C   0  0  0  0  0  0  0  0  0  0  0  0
   27.2138  -21.5210  -12.3047 O   0  0  0  0  0  0  0  0  0  0  0  0
   26.2684  -19.7320  -11.2632 N   0  0  0  0  0  0  0  0  0  0  0  0
   26.5520  -20.3402   -9.9613 C   0  0  1  0  0  0  0  0  0  0  0  0
   26.5682  -19.2741   -8.8816 C   0  0  0  0  0  0  0  0  0  0  0  0
   26.8481  -19.9122   -7.5814 C   0  0  0  0  0  0  0  0  0  0  0  0
   26.1567  -20.9977   -7.0446 C   0  0  0  0  0  0  0  0  0  0  0  0
   26.6885  -21.2913   -5.8489 N   0  0  0  0  0  0  0  0  0  0  0  0
   27.7068  -20.4513   -5.5583 C   0  0  0  0  0  0  0  0  0  0  0  0
   28.5574  -20.3389   -4.4823 C   0  0  0  0  0  0  0  0  0  0  0  0
   29.5231  -19.3559   -4.4789 C   0  0  0  0  0  0  0  0  0  0  0  0
   29.6071  -18.5129   -5.5571 C   0  0  0  0  0  0  0  0  0  0  0  0
   28.7694  -18.6043   -6.6444 C   0  0  0  0  0  0  0  0  0  0  0  0
   27.8085  -19.5876   -6.6413 C   0  0  0  0  0  0  0  0  0  0  0  0
   25.5230  -21.3395   -9.6487 C   0  0  0  0  0  0  0  0  0  0  0  0
   25.8539  -22.5549   -9.0717 O   0  0  0  0  0  0  0  0  0  0  0  0
   24.3105  -21.1289   -9.8925 O   0  0  0  0  0  0  0  0  0  0  0  0
  2  1  1  1
  2  3  1  0
  4  2  1  0
  5  4  1  0
  5  6  1  6
  7  5  1  0
  7  8  2  0
  9  7  1  0
 10 21  1  0
 10  9  1  0
 10 11  1  6
 12 20  1  0
 12 11  1  0
 13 12  2  0
 14 13  1  0
 14 15  1  0
 15 16  1  0
 15 20  2  0
 16 17  2  0
 17 18  1  0
 19 18  2  0
 20 19  1  0
 21 22  2  0
 23 24  1  0
 23 21  1  0
 24 25  1  1
 25 26  1  0
 26 34  1  0
 26 27  2  0
 27 28  1  0
 28 29  1  0
 29 30  2  0
 31 30  1  0
 32 31  2  0
 33 34  2  0
 33 32  1  0
 34 29  1  0
 35 24  1  0
 36 35  1  0
 37 35  2  0
M  END
$$$$
