LWW.pdb
     RDKit          3D

 37 40  0  0  1  0  0  0  0  0999 V2000
   29.0960  -16.9956  -16.9898 C   0  0  0  0  0  0  0  0  0  0  0  0
   27.6178  -16.7194  -16.7783 C   0  0  2  0  0  0  0  0  0  0  0  0
   27.2462  -15.3503  -17.2418 C   0  0  0  0  0  0  0  0  0  0  0  0
   27.1360  -17.0748  -15.4103 C   0  0  0  0  0  0  0  0  0  0  0  0
   27.7035  -18.3547  -14.8503 C   0  0  2  0  0  0  0  0  0  0  0  0
   27.7625  -19.4099  -15.8113 N   0  0  0  0  0  0  0  0  0  0  0  0
   26.7999  -18.7548  -13.7332 C   0  0  0  0  0  0  0  0  0  0  0  0
   26.2402  -17.8613  -13.0189 O   0  0  0  0  0  0  0  0  0  0  0  0
   26.5048  -20.1003  -13.3919 N   0  0  0  0  0  0  0  0  0  0  0  0
   25.5253  -20.4363  -12.3602 C   0  0  1  0  0  0  0  0  0  0  0  0
   24.4686  -21.3506  -12.9397 C   0  0  0  0  0  0  0  0  0  0  0  0
   23.4823  -20.6488  -13.7825 C   0  0  0  0  0  0  0  0  0  0  0  0
   23.5389  -20.4314  -15.1559 C   0  0  0  0  0  0  0  0  0  0  0  0
   22.4677  -19.7287  -15.5084 N   0  0  0  0  0  0  0  0  0  0  0  0
   21.6857  -19.4600  -14.4346 C   0  0  0  0  0  0  0  0  0  0  0  0
   20.4877  -18.7856  -14.3108 C   0  0  0  0  0  0  0  0  0  0  0  0
   19.8893  -18.6744  -13.0753 C   0  0  0  0  0  0  0  0  0  0  0  0
   20.4852  -19.2326  -11.9809 C   0  0  0  0  0  0  0  0  0  0  0  0
   21.6743  -19.8955  -12.1370 C   0  0  0  0  0  0  0  0  0  0  0  0
   22.3225  -20.0369  -13.3577 C   0  0  0  0  0  0  0  0  0  0  0  0
   26.1220  -20.8804  -11.1007 C   0  0  0  0  0  0  0  0  0  0  0  0
   27.1976  -21.5434  -11.0762 O   0  0  0  0  0  0  0  0  0  0  0  0
   25.5503  -20.6042   -9.8177 N   0  0  0  0  0  0  0  0  0  0  0  0
   26.2264  -21.0611   -8.6014 C   0  0  1  0  0  0  0  0  0  0  0  0
   27.0905  -19.9484   -8.0374 C   0  0  0  0  0  0  0  0  0  0  0  0
   27.5996  -20.3594   -6.7153 C   0  0  0  0  0  0  0  0  0  0  0  0
   27.3437  -21.5796   -6.0907 C   0  0  0  0  0  0  0  0  0  0  0  0
   27.9656  -21.5876   -4.9024 N   0  0  0  0  0  0  0  0  0  0  0  0
   28.6281  -20.4268   -4.7008 C   0  0  0  0  0  0  0  0  0  0  0  0
   29.4034  -19.9519   -3.6676 C   0  0  0  0  0  0  0  0  0  0  0  0
   29.9615  -18.6954   -3.7585 C   0  0  0  0  0  0  0  0  0  0  0  0
   29.7248  -17.9506   -4.8852 C   0  0  0  0  0  0  0  0  0  0  0  0
   28.9540  -18.4022   -5.9314 C   0  0  0  0  0  0  0  0  0  0  0  0
   28.4006  -19.6569   -5.8342 C   0  0  0  0  0  0  0  0  0  0  0  0
   25.2281  -21.4612   -7.6022 C   0  0  0  0  0  0  0  0  0  0  0  0
   23.8805  -21.1981   -7.7879 O   0  0  0  0  0  0  0  0  0  0  0  0
   25.5590  -22.0541   -6.5472 O   0  0  0  0  0  0  0  0  0  0  0  0
  2  1  1  1
  2  3  1  0
  4  2  1  0
  5  4  1  0
  5  6  1  6
  7  5  1  0
  7  8  2  0
  9  7  1  0
 10 21  1  0
 10  9  1  0
 10 11  1  6
 12 20  1  0
 12 11  1  0
 13 12  2  0
 14 13  1  0
 14 15  1  0
 15 16  1  0
 15 20  2  0
 16 17  2  0
 17 18  1  0
 19 18  2  0
 20 19  1  0
 21 22  2  0
 23 24  1  0
 23 21  1  0
 24 25  1  1
 25 26  1  0
 26 34  1  0
 26 27  2  0
 27 28  1  0
 28 29  1  0
 29 30  2  0
 31 30  1  0
 32 31  2  0
 33 34  2  0
 33 32  1  0
 34 29  1  0
 35 24  1  0
 36 35  1  0
 37 35  2  0
M  END
$$$$
