LWW.pdb
     RDKit          3D

 37 40  0  0  1  0  0  0  0  0999 V2000
   18.2995  -19.8093  -12.0110 C   0  0  0  0  0  0  0  0  0  0  0  0
   19.0264  -21.1406  -11.9385 C   0  0  2  0  0  0  0  0  0  0  0  0
   18.8846  -21.7676  -10.5915 C   0  0  0  0  0  0  0  0  0  0  0  0
   20.4227  -21.0854  -12.4649 C   0  0  0  0  0  0  0  0  0  0  0  0
   20.5771  -20.3629  -13.7794 C   0  0  2  0  0  0  0  0  0  0  0  0
   19.9442  -21.0374  -14.8679 N   0  0  0  0  0  0  0  0  0  0  0  0
   22.0439  -20.2796  -14.0366 C   0  0  0  0  0  0  0  0  0  0  0  0
   22.7071  -21.3398  -14.2769 O   0  0  0  0  0  0  0  0  0  0  0  0
   22.7843  -19.0689  -14.0342 N   0  0  0  0  0  0  0  0  0  0  0  0
   24.2181  -19.0422  -14.3174 C   0  0  1  0  0  0  0  0  0  0  0  0
   24.6054  -17.6830  -14.8571 C   0  0  0  0  0  0  0  0  0  0  0  0
   26.0373  -17.5702  -15.1924 C   0  0  0  0  0  0  0  0  0  0  0  0
   27.0671  -17.1064  -14.3792 C   0  0  0  0  0  0  0  0  0  0  0  0
   28.1948  -17.1370  -15.0811 N   0  0  0  0  0  0  0  0  0  0  0  0
   27.9762  -17.6020  -16.3352 C   0  0  0  0  0  0  0  0  0  0  0  0
   28.8271  -17.8213  -17.3998 C   0  0  0  0  0  0  0  0  0  0  0  0
   28.3303  -18.3290  -18.5797 C   0  0  0  0  0  0  0  0  0  0  0  0
   26.9990  -18.6127  -18.6884 C   0  0  0  0  0  0  0  0  0  0  0  0
   26.1806  -18.3837  -17.6135 C   0  0  0  0  0  0  0  0  0  0  0  0
   26.6269  -17.8722  -16.4012 C   0  0  0  0  0  0  0  0  0  0  0  0
   25.0465  -19.5454  -13.2219 C   0  0  0  0  0  0  0  0  0  0  0  0
   25.0869  -18.9620  -12.1017 O   0  0  0  0  0  0  0  0  0  0  0  0
   25.8614  -20.7179  -13.3250 N   0  0  0  0  0  0  0  0  0  0  0  0
   27.2091  -20.7254  -12.7514 C   0  0  1  0  0  0  0  0  0  0  0  0
   27.2844  -21.7264  -11.6134 C   0  0  0  0  0  0  0  0  0  0  0  0
   26.9685  -21.0384  -10.3474 C   0  0  0  0  0  0  0  0  0  0  0  0
   25.6939  -20.6645   -9.9231 C   0  0  0  0  0  0  0  0  0  0  0  0
   25.8033  -20.0574   -8.7322 N   0  0  0  0  0  0  0  0  0  0  0  0
   27.0950  -20.0068   -8.3373 C   0  0  0  0  0  0  0  0  0  0  0  0
   27.7190  -19.5027   -7.2191 C   0  0  0  0  0  0  0  0  0  0  0  0
   29.0877  -19.6078   -7.0989 C   0  0  0  0  0  0  0  0  0  0  0  0
   29.7914  -20.2164   -8.1061 C   0  0  0  0  0  0  0  0  0  0  0  0
   29.1917  -20.7283   -9.2334 C   0  0  0  0  0  0  0  0  0  0  0  0
   27.8258  -20.6204   -9.3465 C   0  0  0  0  0  0  0  0  0  0  0  0
   28.1845  -21.0861  -13.7875 C   0  0  0  0  0  0  0  0  0  0  0  0
   27.7783  -21.5919  -15.0117 O   0  0  0  0  0  0  0  0  0  0  0  0
   29.4178  -20.9497  -13.6014 O   0  0  0  0  0  0  0  0  0  0  0  0
  2  1  1  1
  2  3  1  0
  4  2  1  0
  5  4  1  0
  5  6  1  6
  7  5  1  0
  7  8  2  0
  9  7  1  0
 10 21  1  0
 10  9  1  0
 10 11  1  1
 12 20  1  0
 12 11  1  0
 13 12  2  0
 14 13  1  0
 14 15  1  0
 15 16  1  0
 15 20  2  0
 16 17  2  0
 17 18  1  0
 19 18  2  0
 20 19  1  0
 21 22  2  0
 23 24  1  0
 23 21  1  0
 24 25  1  1
 25 26  1  0
 26 34  1  0
 26 27  2  0
 27 28  1  0
 28 29  1  0
 29 30  2  0
 31 30  1  0
 32 31  2  0
 33 34  2  0
 33 32  1  0
 34 29  1  0
 35 24  1  0
 36 35  1  0
 37 35  2  0
M  END
$$$$
