YFV.pdb
     RDKit          3D

 31 32  0  0  1  0  0  0  0  0999 V2000
   22.3231  -16.2130  -19.2344 O   0  0  0  0  0  0  0  0  0  0  0  0
   22.8500  -16.9667  -18.1842 C   0  0  0  0  0  0  0  0  0  0  0  0
   24.1122  -16.7186  -17.6909 C   0  0  0  0  0  0  0  0  0  0  0  0
   24.6456  -17.4573  -16.6526 C   0  0  0  0  0  0  0  0  0  0  0  0
   23.9393  -18.4766  -16.0618 C   0  0  0  0  0  0  0  0  0  0  0  0
   24.4323  -19.3017  -14.9457 C   0  0  0  0  0  0  0  0  0  0  0  0
   25.5239  -20.2089  -15.4761 C   0  0  2  0  0  0  0  0  0  0  0  0
   25.0865  -21.1077  -16.4896 N   0  0  0  0  0  0  0  0  0  0  0  0
   26.3205  -20.8001  -14.3907 C   0  0  0  0  0  0  0  0  0  0  0  0
   25.8896  -21.8478  -13.8057 O   0  0  0  0  0  0  0  0  0  0  0  0
   22.6570  -18.7264  -16.5651 C   0  0  0  0  0  0  0  0  0  0  0  0
   22.1264  -17.9902  -17.5996 C   0  0  0  0  0  0  0  0  0  0  0  0
   27.5599  -20.3229  -13.8973 N   0  0  0  0  0  0  0  0  0  0  0  0
   28.1136  -20.8043  -12.6308 C   0  0  1  0  0  0  0  0  0  0  0  0
   29.5642  -20.3895  -12.6367 C   0  0  0  0  0  0  0  0  0  0  0  0
   30.2732  -20.7026  -11.3808 C   0  0  0  0  0  0  0  0  0  0  0  0
   30.3428  -19.8052  -10.3433 C   0  0  0  0  0  0  0  0  0  0  0  0
   31.0254  -20.1652   -9.2032 C   0  0  0  0  0  0  0  0  0  0  0  0
   31.6335  -21.3977   -9.0893 C   0  0  0  0  0  0  0  0  0  0  0  0
   31.5806  -22.3089  -10.1032 C   0  0  0  0  0  0  0  0  0  0  0  0
   30.8878  -21.9375  -11.2537 C   0  0  0  0  0  0  0  0  0  0  0  0
   27.3703  -20.2075  -11.4746 C   0  0  0  0  0  0  0  0  0  0  0  0
   27.2271  -18.9717  -11.5003 O   0  0  0  0  0  0  0  0  0  0  0  0
   23.9623  -21.1246  -10.1767 C   0  0  0  0  0  0  0  0  0  0  0  0
   24.8775  -21.3336   -9.0002 C   0  0  2  0  0  0  0  0  0  0  0  0
   24.1638  -20.7485   -7.7913 C   0  0  0  0  0  0  0  0  0  0  0  0
   26.1538  -20.5477   -9.2782 C   0  0  2  0  0  0  0  0  0  0  0  0
   26.8631  -20.9730  -10.4261 N   0  0  0  0  0  0  0  0  0  0  0  0
   27.0336  -20.3923   -8.1338 C   0  0  0  0  0  0  0  0  0  0  0  0
   27.8545  -21.3412   -7.8701 O   0  0  0  0  0  0  0  0  0  0  0  0
   27.1116  -19.3239   -7.2611 O   0  0  0  0  0  0  0  0  0  0  0  0
  2  1  1  0
  2 12  2  0
  3  2  1  0
  4  3  2  0
  4  5  1  0
  5 11  2  0
  6  5  1  0
  7  6  1  0
  7  8  1  1
  9 13  1  0
  9  7  1  0
 10  9  2  0
 11 12  1  0
 14 13  1  0
 14 15  1  1
 16 15  1  0
 17 16  2  0
 18 17  1  0
 19 20  1  0
 19 18  2  0
 20 21  2  0
 21 16  1  0
 22 14  1  0
 22 28  1  0
 23 22  2  0
 25 24  1  6
 25 27  1  0
 26 25  1  0
 27 28  1  6
 27 29  1  0
 29 31  1  0
 30 29  2  0
M  END
$$$$
