YFV.pdb
     RDKit          3D

 31 32  0  0  1  0  0  0  0  0999 V2000
   30.2229  -16.1513  -18.3988 O   0  0  0  0  0  0  0  0  0  0  0  0
   29.3014  -16.8495  -17.6165 C   0  0  0  0  0  0  0  0  0  0  0  0
   29.0660  -16.4967  -16.3057 C   0  0  0  0  0  0  0  0  0  0  0  0
   28.1573  -17.1795  -15.5206 C   0  0  0  0  0  0  0  0  0  0  0  0
   27.4439  -18.2453  -16.0126 C   0  0  0  0  0  0  0  0  0  0  0  0
   26.4515  -19.0165  -15.2447 C   0  0  0  0  0  0  0  0  0  0  0  0
   27.1952  -19.8797  -14.2457 C   0  0  2  0  0  0  0  0  0  0  0  0
   28.2575  -20.6372  -14.8148 N   0  0  0  0  0  0  0  0  0  0  0  0
   26.2753  -20.6183  -13.3681 C   0  0  0  0  0  0  0  0  0  0  0  0
   26.0075  -21.8359  -13.6354 O   0  0  0  0  0  0  0  0  0  0  0  0
   27.6852  -18.6014  -17.3448 C   0  0  0  0  0  0  0  0  0  0  0  0
   28.5907  -17.9208  -18.1263 C   0  0  0  0  0  0  0  0  0  0  0  0
   25.6241  -20.1162  -12.2143 N   0  0  0  0  0  0  0  0  0  0  0  0
   24.5366  -20.8539  -11.5698 C   0  0  1  0  0  0  0  0  0  0  0  0
   24.7687  -20.7076  -10.0861 C   0  0  0  0  0  0  0  0  0  0  0  0
   26.1954  -20.6369   -9.7156 C   0  0  0  0  0  0  0  0  0  0  0  0
   26.6737  -19.6870   -8.8464 C   0  0  0  0  0  0  0  0  0  0  0  0
   28.0182  -19.6795   -8.5505 C   0  0  0  0  0  0  0  0  0  0  0  0
   28.8812  -20.5996   -9.1076 C   0  0  0  0  0  0  0  0  0  0  0  0
   28.4345  -21.5544   -9.9736 C   0  0  0  0  0  0  0  0  0  0  0  0
   27.0726  -21.5558  -10.2680 C   0  0  0  0  0  0  0  0  0  0  0  0
   23.2089  -20.2946  -11.9818 C   0  0  0  0  0  0  0  0  0  0  0  0
   22.6712  -19.5184  -11.1714 O   0  0  0  0  0  0  0  0  0  0  0  0
   22.2957  -22.9504  -14.8088 C   0  0  0  0  0  0  0  0  0  0  0  0
   21.3591  -22.6990  -13.6577 C   0  0  2  0  0  0  0  0  0  0  0  0
   19.9877  -23.1794  -14.1068 C   0  0  0  0  0  0  0  0  0  0  0  0
   21.3289  -21.1930  -13.4233 C   0  0  2  0  0  0  0  0  0  0  0  0
   22.5984  -20.6122  -13.1938 N   0  0  0  0  0  0  0  0  0  0  0  0
   20.3537  -20.7497  -12.4433 C   0  0  0  0  0  0  0  0  0  0  0  0
   20.5215  -21.1025  -11.2222 O   0  0  0  0  0  0  0  0  0  0  0  0
   19.2318  -19.9710  -12.6534 O   0  0  0  0  0  0  0  0  0  0  0  0
  2  1  1  0
  2 12  2  0
  3  2  1  0
  4  3  2  0
  4  5  1  0
  5 11  2  0
  6  5  1  0
  7  6  1  0
  7  8  1  6
  9 13  1  0
  9  7  1  0
 10  9  2  0
 11 12  1  0
 14 13  1  0
 14 15  1  1
 16 15  1  0
 17 16  2  0
 18 17  1  0
 19 20  1  0
 19 18  2  0
 20 21  2  0
 21 16  1  0
 22 14  1  0
 22 28  1  0
 23 22  2  0
 25 24  1  6
 25 27  1  0
 26 25  1  0
 27 28  1  1
 27 29  1  0
 29 31  1  0
 30 29  2  0
M  END
$$$$
