YFV.pdb
     RDKit          3D

 31 32  0  0  1  0  0  0  0  0999 V2000
   23.2758  -13.9281  -19.9946 O   0  0  0  0  0  0  0  0  0  0  0  0
   23.5890  -14.9060  -19.0488 C   0  0  0  0  0  0  0  0  0  0  0  0
   24.7754  -14.8683  -18.3495 C   0  0  0  0  0  0  0  0  0  0  0  0
   25.0976  -15.8299  -17.4115 C   0  0  0  0  0  0  0  0  0  0  0  0
   24.2467  -16.8714  -17.1317 C   0  0  0  0  0  0  0  0  0  0  0  0
   24.5119  -17.9280  -16.1403 C   0  0  0  0  0  0  0  0  0  0  0  0
   25.6676  -18.7684  -16.6446 C   0  0  2  0  0  0  0  0  0  0  0  0
   25.3941  -19.4569  -17.8601 N   0  0  0  0  0  0  0  0  0  0  0  0
   26.2702  -19.5718  -15.5706 C   0  0  0  0  0  0  0  0  0  0  0  0
   25.7395  -20.6887  -15.2599 O   0  0  0  0  0  0  0  0  0  0  0  0
   23.0420  -16.9069  -17.8438 C   0  0  0  0  0  0  0  0  0  0  0  0
   22.7217  -15.9488  -18.7782 C   0  0  0  0  0  0  0  0  0  0  0  0
   27.4168  -19.2373  -14.8085 N   0  0  0  0  0  0  0  0  0  0  0  0
   27.7741  -19.9821  -13.6002 C   0  0  1  0  0  0  0  0  0  0  0  0
   29.1554  -19.5068  -13.2225 C   0  0  0  0  0  0  0  0  0  0  0  0
   29.6451  -20.0677  -11.9483 C   0  0  0  0  0  0  0  0  0  0  0  0
   30.2091  -21.3179  -11.8745 C   0  0  0  0  0  0  0  0  0  0  0  0
   30.6398  -21.7771  -10.6501 C   0  0  0  0  0  0  0  0  0  0  0  0
   30.5140  -21.0103   -9.5108 C   0  0  0  0  0  0  0  0  0  0  0  0
   29.9581  -19.7652   -9.5541 C   0  0  0  0  0  0  0  0  0  0  0  0
   29.5249  -19.3073  -10.7967 C   0  0  0  0  0  0  0  0  0  0  0  0
   26.7795  -19.7196  -12.5106 C   0  0  0  0  0  0  0  0  0  0  0  0
   26.4802  -18.5263  -12.3240 O   0  0  0  0  0  0  0  0  0  0  0  0
   23.4093  -20.4014  -12.1963 C   0  0  0  0  0  0  0  0  0  0  0  0
   23.8981  -21.1518  -10.9867 C   0  0  2  0  0  0  0  0  0  0  0  0
   22.9488  -20.8017   -9.8512 C   0  0  0  0  0  0  0  0  0  0  0  0
   25.2964  -20.6334  -10.6707 C   0  0  2  0  0  0  0  0  0  0  0  0
   26.2135  -20.7361  -11.7432 N   0  0  0  0  0  0  0  0  0  0  0  0
   25.8649  -21.1339   -9.4320 C   0  0  0  0  0  0  0  0  0  0  0  0
   26.5941  -22.1871   -9.4845 O   0  0  0  0  0  0  0  0  0  0  0  0
   25.7247  -20.6112   -8.1607 O   0  0  0  0  0  0  0  0  0  0  0  0
  2  1  1  0
  2 12  2  0
  3  2  1  0
  4  3  2  0
  4  5  1  0
  5 11  2  0
  6  5  1  0
  7  6  1  0
  7  8  1  6
  9 13  1  0
  9  7  1  0
 10  9  2  0
 11 12  1  0
 14 13  1  0
 14 15  1  1
 16 15  1  0
 17 16  2  0
 18 17  1  0
 19 20  1  0
 19 18  2  0
 20 21  2  0
 21 16  1  0
 22 14  1  0
 22 28  1  0
 23 22  2  0
 25 24  1  6
 25 27  1  0
 26 25  1  0
 27 28  1  6
 27 29  1  0
 29 31  1  0
 30 29  2  0
M  END
$$$$
