YFV.pdb
     RDKit          3D

 31 32  0  0  1  0  0  0  0  0999 V2000
   22.2792  -18.3062  -16.3663 O   0  0  0  0  0  0  0  0  0  0  0  0
   22.7127  -18.8120  -15.1395 C   0  0  0  0  0  0  0  0  0  0  0  0
   22.1310  -19.9299  -14.5828 C   0  0  0  0  0  0  0  0  0  0  0  0
   22.5501  -20.4402  -13.3695 C   0  0  0  0  0  0  0  0  0  0  0  0
   23.5701  -19.8547  -12.6599 C   0  0  0  0  0  0  0  0  0  0  0  0
   24.0811  -20.3432  -11.3677 C   0  0  0  0  0  0  0  0  0  0  0  0
   25.5528  -20.6636  -11.5331 C   0  0  2  0  0  0  0  0  0  0  0  0
   25.8301  -21.5766  -12.5894 N   0  0  0  0  0  0  0  0  0  0  0  0
   26.1985  -20.9540  -10.2444 C   0  0  0  0  0  0  0  0  0  0  0  0
   25.8977  -22.0294   -9.6291 O   0  0  0  0  0  0  0  0  0  0  0  0
   24.1594  -18.7190  -13.2281 C   0  0  0  0  0  0  0  0  0  0  0  0
   23.7412  -18.2110  -14.4367 C   0  0  0  0  0  0  0  0  0  0  0  0
   27.1532  -20.1466   -9.5780 N   0  0  0  0  0  0  0  0  0  0  0  0
   27.5742  -20.4369   -8.2065 C   0  0  1  0  0  0  0  0  0  0  0  0
   28.7702  -19.5530   -7.9520 C   0  0  0  0  0  0  0  0  0  0  0  0
   29.2420  -19.5858   -6.5541 C   0  0  0  0  0  0  0  0  0  0  0  0
   29.0405  -18.5334   -5.6948 C   0  0  0  0  0  0  0  0  0  0  0  0
   29.5127  -18.6335   -4.4055 C   0  0  0  0  0  0  0  0  0  0  0  0
   30.1776  -19.7603   -3.9697 C   0  0  0  0  0  0  0  0  0  0  0  0
   30.3919  -20.8208   -4.8007 C   0  0  0  0  0  0  0  0  0  0  0  0
   29.9109  -20.7122   -6.1039 C   0  0  0  0  0  0  0  0  0  0  0  0
   26.4596  -20.1529   -7.2461 C   0  0  0  0  0  0  0  0  0  0  0  0
   25.7651  -19.1521   -7.5002 O   0  0  0  0  0  0  0  0  0  0  0  0
   24.7095  -23.1478   -4.7846 C   0  0  0  0  0  0  0  0  0  0  0  0
   24.0979  -21.8306   -5.1800 C   0  0  2  0  0  0  0  0  0  0  0  0
   23.6033  -21.9981   -6.6085 C   0  0  0  0  0  0  0  0  0  0  0  0
   25.2090  -20.7878   -5.1360 C   0  0  2  0  0  0  0  0  0  0  0  0
   26.2011  -20.9491   -6.1317 N   0  0  0  0  0  0  0  0  0  0  0  0
   25.7970  -20.5808   -3.8247 C   0  0  0  0  0  0  0  0  0  0  0  0
   26.9963  -20.9898   -3.6295 O   0  0  0  0  0  0  0  0  0  0  0  0
   25.2220  -19.9807   -2.7209 O   0  0  0  0  0  0  0  0  0  0  0  0
  2  1  1  0
  2 12  2  0
  3  2  1  0
  4  3  2  0
  4  5  1  0
  5 11  2  0
  6  5  1  0
  7  6  1  0
  7  8  1  6
  9 13  1  0
  9  7  1  0
 10  9  2  0
 11 12  1  0
 14 13  1  0
 14 15  1  1
 16 15  1  0
 17 16  2  0
 18 17  1  0
 19 20  1  0
 19 18  2  0
 20 21  2  0
 21 16  1  0
 22 14  1  0
 22 28  1  0
 23 22  2  0
 25 24  1  6
 25 27  1  0
 26 25  1  0
 27 28  1  6
 27 29  1  0
 29 31  1  0
 30 29  2  0
M  END
$$$$
