YFV.pdb
     RDKit          3D

 31 32  0  0  1  0  0  0  0  0999 V2000
   27.8398  -16.3367  -17.7378 O   0  0  0  0  0  0  0  0  0  0  0  0
   27.4120  -17.1043  -16.6532 C   0  0  0  0  0  0  0  0  0  0  0  0
   26.8648  -18.3553  -16.8359 C   0  0  0  0  0  0  0  0  0  0  0  0
   26.4371  -19.1248  -15.7713 C   0  0  0  0  0  0  0  0  0  0  0  0
   26.5384  -18.6764  -14.4768 C   0  0  0  0  0  0  0  0  0  0  0  0
   26.1162  -19.4390  -13.2896 C   0  0  0  0  0  0  0  0  0  0  0  0
   27.2875  -20.2833  -12.8302 C   0  0  2  0  0  0  0  0  0  0  0  0
   27.6554  -21.3085  -13.7466 N   0  0  0  0  0  0  0  0  0  0  0  0
   27.1489  -20.6944  -11.4252 C   0  0  0  0  0  0  0  0  0  0  0  0
   26.4443  -21.7197  -11.1462 O   0  0  0  0  0  0  0  0  0  0  0  0
   27.0949  -17.4048  -14.2943 C   0  0  0  0  0  0  0  0  0  0  0  0
   27.5206  -16.6388  -15.3552 C   0  0  0  0  0  0  0  0  0  0  0  0
   27.7283  -20.0592  -10.2991 N   0  0  0  0  0  0  0  0  0  0  0  0
   27.4108  -20.4851   -8.9352 C   0  0  1  0  0  0  0  0  0  0  0  0
   28.3890  -19.7601   -8.0441 C   0  0  0  0  0  0  0  0  0  0  0  0
   28.1077  -19.9211   -6.6044 C   0  0  0  0  0  0  0  0  0  0  0  0
   27.5375  -18.9179   -5.8593 C   0  0  0  0  0  0  0  0  0  0  0  0
   27.3083  -19.1384   -4.5199 C   0  0  0  0  0  0  0  0  0  0  0  0
   27.6395  -20.3363   -3.9224 C   0  0  0  0  0  0  0  0  0  0  0  0
   28.2067  -21.3503   -4.6373 C   0  0  0  0  0  0  0  0  0  0  0  0
   28.4353  -21.1198   -5.9924 C   0  0  0  0  0  0  0  0  0  0  0  0
   25.9919  -20.1417   -8.5970 C   0  0  0  0  0  0  0  0  0  0  0  0
   25.6334  -18.9821   -8.8710 O   0  0  0  0  0  0  0  0  0  0  0  0
   23.2401  -20.5039  -10.1771 C   0  0  0  0  0  0  0  0  0  0  0  0
   22.8845  -21.3990   -9.0206 C   0  0  2  0  0  0  0  0  0  0  0  0
   21.4071  -21.1716   -8.7395 C   0  0  0  0  0  0  0  0  0  0  0  0
   23.7148  -20.9422   -7.8265 C   0  0  2  0  0  0  0  0  0  0  0  0
   25.1132  -21.0516   -8.0117 N   0  0  0  0  0  0  0  0  0  0  0  0
   23.3001  -21.4959   -6.5500 C   0  0  0  0  0  0  0  0  0  0  0  0
   23.7069  -22.6719   -6.2413 O   0  0  0  0  0  0  0  0  0  0  0  0
   22.5013  -20.9078   -5.5882 O   0  0  0  0  0  0  0  0  0  0  0  0
  2  1  1  0
  2 12  2  0
  3  2  1  0
  4  3  2  0
  4  5  1  0
  5 11  2  0
  6  5  1  0
  7  6  1  0
  7  8  1  6
  9 13  1  0
  9  7  1  0
 10  9  2  0
 11 12  1  0
 14 13  1  0
 14 15  1  1
 16 15  1  0
 17 16  2  0
 18 17  1  0
 19 20  1  0
 19 18  2  0
 20 21  2  0
 21 16  1  0
 22 14  1  0
 22 28  1  0
 23 22  2  0
 25 24  1  6
 25 27  1  0
 26 25  1  0
 27 28  1  6
 27 29  1  0
 29 31  1  0
 30 29  2  0
M  END
$$$$
