YFV.pdb
     RDKit          3D

 31 32  0  0  1  0  0  0  0  0999 V2000
   24.8643  -14.7968  -25.0214 O   0  0  0  0  0  0  0  0  0  0  0  0
   24.4233  -14.0684  -23.9152 C   0  0  0  0  0  0  0  0  0  0  0  0
   24.8570  -12.7803  -23.6899 C   0  0  0  0  0  0  0  0  0  0  0  0
   24.4288  -12.0490  -22.5990 C   0  0  0  0  0  0  0  0  0  0  0  0
   23.5474  -12.5741  -21.6856 C   0  0  0  0  0  0  0  0  0  0  0  0
   23.0360  -11.8568  -20.5052 C   0  0  0  0  0  0  0  0  0  0  0  0
   24.1146  -11.8708  -19.4409 C   0  0  2  0  0  0  0  0  0  0  0  0
   24.5395  -13.1767  -19.0662 N   0  0  0  0  0  0  0  0  0  0  0  0
   23.8053  -10.9519  -18.3355 C   0  0  0  0  0  0  0  0  0  0  0  0
   23.2702  -11.4159  -17.2753 O   0  0  0  0  0  0  0  0  0  0  0  0
   23.1084  -13.8831  -21.9173 C   0  0  0  0  0  0  0  0  0  0  0  0
   23.5355  -14.6112  -23.0041 C   0  0  0  0  0  0  0  0  0  0  0  0
   24.0401   -9.5549  -18.3086 N   0  0  0  0  0  0  0  0  0  0  0  0
   23.7968   -8.7631  -17.1019 C   0  0  1  0  0  0  0  0  0  0  0  0
   25.1344   -8.1770  -16.7228 C   0  0  0  0  0  0  0  0  0  0  0  0
   26.1528   -9.1933  -16.3946 C   0  0  0  0  0  0  0  0  0  0  0  0
   27.1613   -9.5192  -17.2684 C   0  0  0  0  0  0  0  0  0  0  0  0
   28.0736  -10.4805  -16.8954 C   0  0  0  0  0  0  0  0  0  0  0  0
   27.9903  -11.1138  -15.6732 C   0  0  0  0  0  0  0  0  0  0  0  0
   26.9999  -10.8105  -14.7855 C   0  0  0  0  0  0  0  0  0  0  0  0
   26.0806   -9.8364  -15.1698 C   0  0  0  0  0  0  0  0  0  0  0  0
   22.7799   -7.6963  -17.3726 C   0  0  0  0  0  0  0  0  0  0  0  0
   22.9030   -7.0897  -18.4521 O   0  0  0  0  0  0  0  0  0  0  0  0
   19.5832   -7.7434  -18.4050 C   0  0  0  0  0  0  0  0  0  0  0  0
   19.3651   -7.1112  -17.0567 C   0  0  2  0  0  0  0  0  0  0  0  0
   18.3097   -6.0337  -17.2528 C   0  0  0  0  0  0  0  0  0  0  0  0
   20.6854   -6.4728  -16.6405 C   0  0  2  0  0  0  0  0  0  0  0  0
   21.7525   -7.3883  -16.4826 N   0  0  0  0  0  0  0  0  0  0  0  0
   20.5920   -5.5620  -15.5138 C   0  0  0  0  0  0  0  0  0  0  0  0
   20.8607   -6.0169  -14.3457 O   0  0  0  0  0  0  0  0  0  0  0  0
   20.2430   -4.2251  -15.5287 O   0  0  0  0  0  0  0  0  0  0  0  0
  2  1  1  0
  2 12  2  0
  3  2  1  0
  4  3  2  0
  4  5  1  0
  5 11  2  0
  6  5  1  0
  7  6  1  0
  7  8  1  1
  9 13  1  0
  9  7  1  0
 10  9  2  0
 11 12  1  0
 14 13  1  0
 14 15  1  6
 16 15  1  0
 17 16  2  0
 18 17  1  0
 19 20  1  0
 19 18  2  0
 20 21  2  0
 21 16  1  0
 22 14  1  0
 22 28  1  0
 23 22  2  0
 25 24  1  6
 25 27  1  0
 26 25  1  0
 27 28  1  1
 27 29  1  0
 29 31  1  0
 30 29  2  0
M  END
$$$$
