YFV.pdb
     RDKit          3D

 31 32  0  0  1  0  0  0  0  0999 V2000
   30.1805  -16.3118  -20.2071 O   0  0  0  0  0  0  0  0  0  0  0  0
   29.2955  -17.0744  -19.4431 C   0  0  0  0  0  0  0  0  0  0  0  0
   28.5345  -18.0704  -20.0149 C   0  0  0  0  0  0  0  0  0  0  0  0
   27.6547  -18.8318  -19.2702 C   0  0  0  0  0  0  0  0  0  0  0  0
   27.4978  -18.6304  -17.9205 C   0  0  0  0  0  0  0  0  0  0  0  0
   26.5906  -19.4052  -17.0567 C   0  0  0  0  0  0  0  0  0  0  0  0
   27.4343  -20.2212  -16.0983 C   0  0  2  0  0  0  0  0  0  0  0  0
   28.2693  -21.1809  -16.7369 N   0  0  0  0  0  0  0  0  0  0  0  0
   26.6480  -20.7098  -14.9559 C   0  0  0  0  0  0  0  0  0  0  0  0
   26.1887  -21.8989  -14.9832 O   0  0  0  0  0  0  0  0  0  0  0  0
   28.2724  -17.6178  -17.3423 C   0  0  0  0  0  0  0  0  0  0  0  0
   29.1485  -16.8595  -18.0847 C   0  0  0  0  0  0  0  0  0  0  0  0
   26.3263  -19.9857  -13.7814 N   0  0  0  0  0  0  0  0  0  0  0  0
   25.5743  -20.6014  -12.6870 C   0  0  1  0  0  0  0  0  0  0  0  0
   26.1765  -20.0498  -11.4183 C   0  0  0  0  0  0  0  0  0  0  0  0
   27.5624  -20.4968  -11.1795 C   0  0  0  0  0  0  0  0  0  0  0  0
   28.5708  -20.2474  -12.0782 C   0  0  0  0  0  0  0  0  0  0  0  0
   29.8391  -20.6988  -11.7900 C   0  0  0  0  0  0  0  0  0  0  0  0
   30.1086  -21.3897  -10.6273 C   0  0  0  0  0  0  0  0  0  0  0  0
   29.1272  -21.6516   -9.7166 C   0  0  0  0  0  0  0  0  0  0  0  0
   27.8463  -21.1914  -10.0151 C   0  0  0  0  0  0  0  0  0  0  0  0
   24.1178  -20.2681  -12.8008 C   0  0  0  0  0  0  0  0  0  0  0  0
   23.8438  -19.0589  -12.9068 O   0  0  0  0  0  0  0  0  0  0  0  0
   21.3775  -23.1399  -14.1872 C   0  0  0  0  0  0  0  0  0  0  0  0
   21.1512  -21.6525  -14.2289 C   0  0  2  0  0  0  0  0  0  0  0  0
   21.9407  -21.1309  -15.4197 C   0  0  0  0  0  0  0  0  0  0  0  0
   21.7199  -21.0748  -12.9378 C   0  0  2  0  0  0  0  0  0  0  0  0
   23.1175  -21.2385  -12.7906 N   0  0  0  0  0  0  0  0  0  0  0  0
   21.0071  -21.4607  -11.7333 C   0  0  0  0  0  0  0  0  0  0  0  0
   19.8772  -20.9034  -11.4956 O   0  0  0  0  0  0  0  0  0  0  0  0
   21.3921  -22.3796  -10.7759 O   0  0  0  0  0  0  0  0  0  0  0  0
  2  1  1  0
  2 12  2  0
  3  2  1  0
  4  3  2  0
  4  5  1  0
  5 11  2  0
  6  5  1  0
  7  6  1  0
  7  8  1  6
  9 13  1  0
  9  7  1  0
 10  9  2  0
 11 12  1  0
 14 13  1  0
 14 15  1  1
 16 15  1  0
 17 16  2  0
 18 17  1  0
 19 20  1  0
 19 18  2  0
 20 21  2  0
 21 16  1  0
 22 14  1  0
 22 28  1  0
 23 22  2  0
 25 24  1  1
 25 27  1  0
 26 25  1  0
 27 28  1  1
 27 29  1  0
 29 31  1  0
 30 29  2  0
M  END
$$$$
