YFV.pdb
     RDKit          3D

 31 32  0  0  1  0  0  0  0  0999 V2000
   19.9648  -17.2932  -18.5199 O   0  0  0  0  0  0  0  0  0  0  0  0
   20.4497  -18.0313  -17.4388 C   0  0  0  0  0  0  0  0  0  0  0  0
   20.2777  -19.3966  -17.3724 C   0  0  0  0  0  0  0  0  0  0  0  0
   20.7521  -20.1386  -16.3082 C   0  0  0  0  0  0  0  0  0  0  0  0
   21.4200  -19.5472  -15.2636 C   0  0  0  0  0  0  0  0  0  0  0  0
   21.9647  -20.2684  -14.1006 C   0  0  0  0  0  0  0  0  0  0  0  0
   23.4564  -20.4375  -14.3067 C   0  0  2  0  0  0  0  0  0  0  0  0
   23.7976  -21.1977  -15.4607 N   0  0  0  0  0  0  0  0  0  0  0  0
   24.1423  -20.8132  -13.0615 C   0  0  0  0  0  0  0  0  0  0  0  0
   24.0093  -21.9999  -12.6146 O   0  0  0  0  0  0  0  0  0  0  0  0
   21.5933  -18.1599  -15.3339 C   0  0  0  0  0  0  0  0  0  0  0  0
   21.1203  -17.4213  -16.3943 C   0  0  0  0  0  0  0  0  0  0  0  0
   24.9661  -19.9782  -12.2669 N   0  0  0  0  0  0  0  0  0  0  0  0
   25.5015  -20.4332  -10.9829 C   0  0  1  0  0  0  0  0  0  0  0  0
   26.7010  -19.5598  -10.7094 C   0  0  0  0  0  0  0  0  0  0  0  0
   27.3022  -19.7815   -9.3801 C   0  0  0  0  0  0  0  0  0  0  0  0
   27.0298  -18.9598   -8.3137 C   0  0  0  0  0  0  0  0  0  0  0  0
   27.6311  -19.2259   -7.1041 C   0  0  0  0  0  0  0  0  0  0  0  0
   28.4929  -20.2913   -6.9495 C   0  0  0  0  0  0  0  0  0  0  0  0
   28.7818  -21.1241   -7.9907 C   0  0  0  0  0  0  0  0  0  0  0  0
   28.1693  -20.8487   -9.2115 C   0  0  0  0  0  0  0  0  0  0  0  0
   24.4647  -20.3047   -9.9087 C   0  0  0  0  0  0  0  0  0  0  0  0
   23.7985  -19.2537   -9.9195 O   0  0  0  0  0  0  0  0  0  0  0  0
   21.3387  -21.2740   -9.2232 C   0  0  0  0  0  0  0  0  0  0  0  0
   22.0342  -21.9995   -8.1029 C   0  0  2  0  0  0  0  0  0  0  0  0
   21.1339  -21.8716   -6.8838 C   0  0  0  0  0  0  0  0  0  0  0  0
   23.3531  -21.2779   -7.8504 C   0  0  2  0  0  0  0  0  0  0  0  0
   24.2453  -21.2907   -8.9484 N   0  0  0  0  0  0  0  0  0  0  0  0
   24.0211  -21.6466   -6.6151 C   0  0  0  0  0  0  0  0  0  0  0  0
   24.6088  -22.7848   -6.5630 O   0  0  0  0  0  0  0  0  0  0  0  0
   24.1151  -20.9125   -5.4484 O   0  0  0  0  0  0  0  0  0  0  0  0
  2  1  1  0
  2 12  2  0
  3  2  1  0
  4  3  2  0
  4  5  1  0
  5 11  2  0
  6  5  1  0
  7  6  1  0
  7  8  1  6
  9 13  1  0
  9  7  1  0
 10  9  2  0
 11 12  1  0
 14 13  1  0
 14 15  1  1
 16 15  1  0
 17 16  2  0
 18 17  1  0
 19 20  1  0
 19 18  2  0
 20 21  2  0
 21 16  1  0
 22 14  1  0
 22 28  1  0
 23 22  2  0
 25 24  1  6
 25 27  1  0
 26 25  1  0
 27 28  1  6
 27 29  1  0
 29 31  1  0
 30 29  2  0
M  END
$$$$
