YFV.pdb
     RDKit          3D

 31 32  0  0  1  0  0  0  0  0999 V2000
   19.2356  -23.1249  -13.8118 O   0  0  0  0  0  0  0  0  0  0  0  0
   20.5300  -22.7834  -13.4161 C   0  0  0  0  0  0  0  0  0  0  0  0
   20.8371  -22.5661  -12.0907 C   0  0  0  0  0  0  0  0  0  0  0  0
   22.1136  -22.2271  -11.6860 C   0  0  0  0  0  0  0  0  0  0  0  0
   23.1393  -22.0910  -12.5895 C   0  0  0  0  0  0  0  0  0  0  0  0
   24.5266  -21.7434  -12.2374 C   0  0  0  0  0  0  0  0  0  0  0  0
   24.5545  -20.2904  -11.8084 C   0  0  2  0  0  0  0  0  0  0  0  0
   24.4771  -19.3673  -12.8891 N   0  0  0  0  0  0  0  0  0  0  0  0
   25.6074  -20.0327  -10.8149 C   0  0  0  0  0  0  0  0  0  0  0  0
   26.7500  -19.6306  -11.2131 O   0  0  0  0  0  0  0  0  0  0  0  0
   22.8242  -22.3124  -13.9355 C   0  0  0  0  0  0  0  0  0  0  0  0
   21.5524  -22.6499  -14.3380 C   0  0  0  0  0  0  0  0  0  0  0  0
   25.4983  -20.1856   -9.4106 N   0  0  0  0  0  0  0  0  0  0  0  0
   26.6224  -19.8899   -8.5210 C   0  0  1  0  0  0  0  0  0  0  0  0
   26.0309  -19.7912   -7.1365 C   0  0  0  0  0  0  0  0  0  0  0  0
   27.0212  -19.4617   -6.0932 C   0  0  0  0  0  0  0  0  0  0  0  0
   27.6006  -18.2192   -6.0085 C   0  0  0  0  0  0  0  0  0  0  0  0
   28.5200  -17.9857   -5.0108 C   0  0  0  0  0  0  0  0  0  0  0  0
   28.8644  -18.9688   -4.1071 C   0  0  0  0  0  0  0  0  0  0  0  0
   28.3053  -20.2117   -4.1669 C   0  0  0  0  0  0  0  0  0  0  0  0
   27.3754  -20.4404   -5.1791 C   0  0  0  0  0  0  0  0  0  0  0  0
   27.6562  -20.9712   -8.6072 C   0  0  0  0  0  0  0  0  0  0  0  0
   27.2214  -22.1361   -8.6542 O   0  0  0  0  0  0  0  0  0  0  0  0
   30.3505  -21.7542  -11.0834 C   0  0  0  0  0  0  0  0  0  0  0  0
   31.0802  -21.4083   -9.8133 C   0  0  2  0  0  0  0  0  0  0  0  0
   32.2354  -22.3911   -9.7001 C   0  0  0  0  0  0  0  0  0  0  0  0
   30.1044  -21.6217   -8.6618 C   0  0  2  0  0  0  0  0  0  0  0  0
   29.0246  -20.7079   -8.6344 N   0  0  0  0  0  0  0  0  0  0  0  0
   30.7247  -21.7548   -7.3558 C   0  0  0  0  0  0  0  0  0  0  0  0
   31.0354  -20.6840   -6.7231 O   0  0  0  0  0  0  0  0  0  0  0  0
   31.0347  -22.9178   -6.6772 O   0  0  0  0  0  0  0  0  0  0  0  0
  2  1  1  0
  2 12  2  0
  3  2  1  0
  4  3  2  0
  4  5  1  0
  5 11  2  0
  6  5  1  0
  7  6  1  0
  7  8  1  6
  9 13  1  0
  9  7  1  0
 10  9  2  0
 11 12  1  0
 14 13  1  0
 14 15  1  1
 16 15  1  0
 17 16  2  0
 18 17  1  0
 19 20  1  0
 19 18  2  0
 20 21  2  0
 21 16  1  0
 22 14  1  0
 22 28  1  0
 23 22  2  0
 25 24  1  6
 25 27  1  0
 26 25  1  0
 27 28  1  1
 27 29  1  0
 29 31  1  0
 30 29  2  0
M  END
$$$$
