YFV.pdb
     RDKit          3D

 31 32  0  0  1  0  0  0  0  0999 V2000
   25.7686  -30.1342  -17.9004 O   0  0  0  0  0  0  0  0  0  0  0  0
   26.1428  -28.8845  -17.4036 C   0  0  0  0  0  0  0  0  0  0  0  0
   27.3990  -28.6719  -16.8793 C   0  0  0  0  0  0  0  0  0  0  0  0
   27.7816  -27.4405  -16.3840 C   0  0  0  0  0  0  0  0  0  0  0  0
   26.9243  -26.3672  -16.3918 C   0  0  0  0  0  0  0  0  0  0  0  0
   27.2594  -25.0224  -15.8933 C   0  0  0  0  0  0  0  0  0  0  0  0
   26.8589  -24.0140  -16.9511 C   0  0  2  0  0  0  0  0  0  0  0  0
   27.8899  -23.7179  -17.8868 N   0  0  0  0  0  0  0  0  0  0  0  0
   26.1651  -22.8556  -16.3689 C   0  0  0  0  0  0  0  0  0  0  0  0
   26.8540  -21.9226  -15.8394 O   0  0  0  0  0  0  0  0  0  0  0  0
   25.6486  -26.5862  -16.9252 C   0  0  0  0  0  0  0  0  0  0  0  0
   25.2680  -27.8133  -17.4182 C   0  0  0  0  0  0  0  0  0  0  0  0
   24.7646  -22.6459  -16.3240 N   0  0  0  0  0  0  0  0  0  0  0  0
   24.1911  -21.4528  -15.6995 C   0  0  1  0  0  0  0  0  0  0  0  0
   23.0117  -21.0702  -16.5592 C   0  0  0  0  0  0  0  0  0  0  0  0
   22.2414  -19.9279  -16.0306 C   0  0  0  0  0  0  0  0  0  0  0  0
   22.6177  -18.6278  -16.2648 C   0  0  0  0  0  0  0  0  0  0  0  0
   21.8523  -17.6130  -15.7359 C   0  0  0  0  0  0  0  0  0  0  0  0
   20.7280  -17.8792  -14.9830 C   0  0  0  0  0  0  0  0  0  0  0  0
   20.3303  -19.1602  -14.7343 C   0  0  0  0  0  0  0  0  0  0  0  0
   21.1097  -20.1818  -15.2732 C   0  0  0  0  0  0  0  0  0  0  0  0
   23.7780  -21.7476  -14.2896 C   0  0  0  0  0  0  0  0  0  0  0  0
   23.1950  -22.8321  -14.1098 O   0  0  0  0  0  0  0  0  0  0  0  0
   25.8533  -21.4434  -11.0359 C   0  0  0  0  0  0  0  0  0  0  0  0
   24.6658  -20.5336  -10.8703 C   0  0  2  0  0  0  0  0  0  0  0  0
   24.1488  -20.7546   -9.4571 C   0  0  0  0  0  0  0  0  0  0  0  0
   23.6147  -20.9777  -11.8812 C   0  0  2  0  0  0  0  0  0  0  0  0
   24.0230  -20.8737  -13.2319 N   0  0  0  0  0  0  0  0  0  0  0  0
   22.2952  -20.4075  -11.6768 C   0  0  0  0  0  0  0  0  0  0  0  0
   22.0811  -19.2151  -12.0964 O   0  0  0  0  0  0  0  0  0  0  0  0
   21.2002  -20.9951  -11.0728 O   0  0  0  0  0  0  0  0  0  0  0  0
  2  1  1  0
  2 12  2  0
  3  2  1  0
  4  3  2  0
  4  5  1  0
  5 11  2  0
  6  5  1  0
  7  6  1  0
  7  8  1  1
  9 13  1  0
  9  7  1  0
 10  9  2  0
 11 12  1  0
 14 13  1  0
 14 15  1  6
 16 15  1  0
 17 16  2  0
 18 17  1  0
 19 20  1  0
 19 18  2  0
 20 21  2  0
 21 16  1  0
 22 14  1  0
 22 28  1  0
 23 22  2  0
 25 24  1  6
 25 27  1  0
 26 25  1  0
 27 28  1  6
 27 29  1  0
 29 31  1  0
 30 29  2  0
M  END
$$$$
