YFV.pdb
     RDKit          3D

 31 32  0  0  1  0  0  0  0  0999 V2000
   27.0382  -17.4085  -24.9726 O   0  0  0  0  0  0  0  0  0  0  0  0
   26.6858  -18.0997  -23.8121 C   0  0  0  0  0  0  0  0  0  0  0  0
   26.9440  -19.4463  -23.6774 C   0  0  0  0  0  0  0  0  0  0  0  0
   26.6001  -20.1421  -22.5346 C   0  0  0  0  0  0  0  0  0  0  0  0
   25.9829  -19.5211  -21.4761 C   0  0  0  0  0  0  0  0  0  0  0  0
   25.5949  -20.1889  -20.2220 C   0  0  0  0  0  0  0  0  0  0  0  0
   26.7527  -20.0779  -19.2508 C   0  0  2  0  0  0  0  0  0  0  0  0
   27.8423  -20.9438  -19.5493 N   0  0  0  0  0  0  0  0  0  0  0  0
   26.2967  -20.0744  -17.8528 C   0  0  0  0  0  0  0  0  0  0  0  0
   26.5549  -21.0812  -17.1144 O   0  0  0  0  0  0  0  0  0  0  0  0
   25.7219  -18.1528  -21.6160 C   0  0  0  0  0  0  0  0  0  0  0  0
   26.0646  -17.4603  -22.7547 C   0  0  0  0  0  0  0  0  0  0  0  0
   25.5739  -19.0432  -17.2036 N   0  0  0  0  0  0  0  0  0  0  0  0
   25.1806  -19.1550  -15.7982 C   0  0  1  0  0  0  0  0  0  0  0  0
   26.3666  -18.6670  -15.0034 C   0  0  0  0  0  0  0  0  0  0  0  0
   26.7439  -17.2719  -15.3018 C   0  0  0  0  0  0  0  0  0  0  0  0
   27.4828  -16.9410  -16.4114 C   0  0  0  0  0  0  0  0  0  0  0  0
   27.8010  -15.6184  -16.6229 C   0  0  0  0  0  0  0  0  0  0  0  0
   27.3947  -14.6332  -15.7476 C   0  0  0  0  0  0  0  0  0  0  0  0
   26.6599  -14.9322  -14.6378 C   0  0  0  0  0  0  0  0  0  0  0  0
   26.3415  -16.2728  -14.4307 C   0  0  0  0  0  0  0  0  0  0  0  0
   23.9567  -18.3329  -15.5305 C   0  0  0  0  0  0  0  0  0  0  0  0
   23.8778  -17.2577  -16.1519 O   0  0  0  0  0  0  0  0  0  0  0  0
   19.5140  -17.4749  -15.3278 C   0  0  0  0  0  0  0  0  0  0  0  0
   21.0152  -17.4138  -15.4164 C   0  0  2  0  0  0  0  0  0  0  0  0
   21.3559  -17.3465  -16.8972 C   0  0  0  0  0  0  0  0  0  0  0  0
   21.5540  -18.7090  -14.8197 C   0  0  2  0  0  0  0  0  0  0  0  0
   22.9577  -18.7314  -14.6441 N   0  0  0  0  0  0  0  0  0  0  0  0
   21.0769  -19.9197  -15.4635 C   0  0  0  0  0  0  0  0  0  0  0  0
   21.9428  -20.7951  -15.8206 O   0  0  0  0  0  0  0  0  0  0  0  0
   19.7720  -20.2708  -15.7521 O   0  0  0  0  0  0  0  0  0  0  0  0
  2  1  1  0
  2 12  2  0
  3  2  1  0
  4  3  2  0
  4  5  1  0
  5 11  2  0
  6  5  1  0
  7  6  1  0
  7  8  1  1
  9 13  1  0
  9  7  1  0
 10  9  2  0
 11 12  1  0
 14 13  1  0
 14 15  1  1
 16 15  1  0
 17 16  2  0
 18 17  1  0
 19 20  1  0
 19 18  2  0
 20 21  2  0
 21 16  1  0
 22 14  1  0
 22 28  1  0
 23 22  2  0
 25 24  1  6
 25 27  1  0
 26 25  1  0
 27 28  1  6
 27 29  1  0
 29 31  1  0
 30 29  2  0
M  END
$$$$
