YFV.pdb
     RDKit          3D

 31 32  0  0  1  0  0  0  0  0999 V2000
   28.9863  -29.6415  -19.7465 O   0  0  0  0  0  0  0  0  0  0  0  0
   28.9260  -28.5829  -18.8386 C   0  0  0  0  0  0  0  0  0  0  0  0
   28.3355  -28.7351  -17.6032 C   0  0  0  0  0  0  0  0  0  0  0  0
   28.2688  -27.6957  -16.6958 C   0  0  0  0  0  0  0  0  0  0  0  0
   28.7903  -26.4581  -16.9845 C   0  0  0  0  0  0  0  0  0  0  0  0
   28.7687  -25.3044  -16.0690 C   0  0  0  0  0  0  0  0  0  0  0  0
   29.3629  -24.1147  -16.7953 C   0  0  2  0  0  0  0  0  0  0  0  0
   30.7598  -24.2284  -17.0441 N   0  0  0  0  0  0  0  0  0  0  0  0
   28.9130  -22.8396  -16.2176 C   0  0  0  0  0  0  0  0  0  0  0  0
   29.7235  -22.1631  -15.5027 O   0  0  0  0  0  0  0  0  0  0  0  0
   29.3897  -26.3064  -18.2405 C   0  0  0  0  0  0  0  0  0  0  0  0
   29.4557  -27.3423  -19.1439 C   0  0  0  0  0  0  0  0  0  0  0  0
   27.6331  -22.2505  -16.3667 N   0  0  0  0  0  0  0  0  0  0  0  0
   27.2537  -21.0502  -15.6200 C   0  0  1  0  0  0  0  0  0  0  0  0
   26.8055  -20.0502  -16.6572 C   0  0  0  0  0  0  0  0  0  0  0  0
   26.3123  -18.7838  -16.0822 C   0  0  0  0  0  0  0  0  0  0  0  0
   24.9708  -18.5227  -15.9443 C   0  0  0  0  0  0  0  0  0  0  0  0
   24.5846  -17.3172  -15.4031 C   0  0  0  0  0  0  0  0  0  0  0  0
   25.5131  -16.3791  -15.0033 C   0  0  0  0  0  0  0  0  0  0  0  0
   26.8516  -16.6110  -15.1281 C   0  0  0  0  0  0  0  0  0  0  0  0
   27.2348  -17.8334  -15.6764 C   0  0  0  0  0  0  0  0  0  0  0  0
   26.1613  -21.3649  -14.6438 C   0  0  0  0  0  0  0  0  0  0  0  0
   25.3040  -22.1792  -15.0316 O   0  0  0  0  0  0  0  0  0  0  0  0
   26.1309  -19.6906  -10.5536 C   0  0  0  0  0  0  0  0  0  0  0  0
   25.7633  -21.0965  -10.9456 C   0  0  2  0  0  0  0  0  0  0  0  0
   27.0630  -21.8855  -10.9848 C   0  0  0  0  0  0  0  0  0  0  0  0
   25.1561  -21.0296  -12.3423 C   0  0  2  0  0  0  0  0  0  0  0  0
   26.0929  -20.7912  -13.3755 N   0  0  0  0  0  0  0  0  0  0  0  0
   23.9978  -20.1623  -12.4609 C   0  0  0  0  0  0  0  0  0  0  0  0
   22.9678  -20.4295  -11.7459 O   0  0  0  0  0  0  0  0  0  0  0  0
   23.8493  -19.0487  -13.2652 O   0  0  0  0  0  0  0  0  0  0  0  0
  2  1  1  0
  2 12  2  0
  3  2  1  0
  4  3  2  0
  4  5  1  0
  5 11  2  0
  6  5  1  0
  7  6  1  0
  7  8  1  1
  9 13  1  0
  9  7  1  0
 10  9  2  0
 11 12  1  0
 14 13  1  0
 14 15  1  6
 16 15  1  0
 17 16  2  0
 18 17  1  0
 19 20  1  0
 19 18  2  0
 20 21  2  0
 21 16  1  0
 22 14  1  0
 22 28  1  0
 23 22  2  0
 25 24  1  6
 25 27  1  0
 26 25  1  0
 27 28  1  6
 27 29  1  0
 29 31  1  0
 30 29  2  0
M  END
$$$$
