YFV.pdb
     RDKit          3D

 31 32  0  0  1  0  0  0  0  0999 V2000
   21.1431  -15.1075  -23.3930 O   0  0  0  0  0  0  0  0  0  0  0  0
   20.7134  -14.1738  -22.4484 C   0  0  0  0  0  0  0  0  0  0  0  0
   19.6306  -14.4277  -21.6354 C   0  0  0  0  0  0  0  0  0  0  0  0
   19.1949  -13.5122  -20.6971 C   0  0  0  0  0  0  0  0  0  0  0  0
   19.8238  -12.3023  -20.5309 C   0  0  0  0  0  0  0  0  0  0  0  0
   19.4279  -11.2794  -19.5478 C   0  0  0  0  0  0  0  0  0  0  0  0
   20.3976  -11.3425  -18.3850 C   0  0  2  0  0  0  0  0  0  0  0  0
   20.4675  -12.6193  -17.7597 N   0  0  0  0  0  0  0  0  0  0  0  0
   20.2473  -10.1908  -17.4833 C   0  0  0  0  0  0  0  0  0  0  0  0
   19.3959  -10.2523  -16.5363 O   0  0  0  0  0  0  0  0  0  0  0  0
   20.9237  -12.0471  -21.3584 C   0  0  0  0  0  0  0  0  0  0  0  0
   21.3571  -12.9595  -22.2929 C   0  0  0  0  0  0  0  0  0  0  0  0
   20.9651   -8.9709  -17.5458 N   0  0  0  0  0  0  0  0  0  0  0  0
   20.7712   -7.9190  -16.5466 C   0  0  1  0  0  0  0  0  0  0  0  0
   22.1208   -7.7140  -15.9040 C   0  0  0  0  0  0  0  0  0  0  0  0
   22.5338   -8.8283  -15.0291 C   0  0  0  0  0  0  0  0  0  0  0  0
   22.0837   -8.9417  -13.7364 C   0  0  0  0  0  0  0  0  0  0  0  0
   22.5153  -10.0063  -12.9776 C   0  0  0  0  0  0  0  0  0  0  0  0
   23.3829  -10.9481  -13.4895 C   0  0  0  0  0  0  0  0  0  0  0  0
   23.8462  -10.8611  -14.7697 C   0  0  0  0  0  0  0  0  0  0  0  0
   23.4047   -9.7812  -15.5315 C   0  0  0  0  0  0  0  0  0  0  0  0
   20.2698   -6.6657  -17.1971 C   0  0  0  0  0  0  0  0  0  0  0  0
   20.8464   -6.3307  -18.2477 O   0  0  0  0  0  0  0  0  0  0  0  0
   17.0116   -6.0108  -18.5851 C   0  0  0  0  0  0  0  0  0  0  0  0
   17.1158   -4.9438  -17.5287 C   0  0  2  0  0  0  0  0  0  0  0  0
   16.5589   -3.6708  -18.1473 C   0  0  0  0  0  0  0  0  0  0  0  0
   18.5970   -4.7628  -17.2171 C   0  0  2  0  0  0  0  0  0  0  0  0
   19.2236   -5.9087  -16.6729 N   0  0  0  0  0  0  0  0  0  0  0  0
   18.9169   -3.5676  -16.4573 C   0  0  0  0  0  0  0  0  0  0  0  0
   18.9868   -3.6644  -15.1808 O   0  0  0  0  0  0  0  0  0  0  0  0
   19.1670   -2.2967  -16.9383 O   0  0  0  0  0  0  0  0  0  0  0  0
  2  1  1  0
  2 12  2  0
  3  2  1  0
  4  3  2  0
  4  5  1  0
  5 11  2  0
  6  5  1  0
  7  6  1  0
  7  8  1  1
  9 13  1  0
  9  7  1  0
 10  9  2  0
 11 12  1  0
 14 13  1  0
 14 15  1  6
 16 15  1  0
 17 16  2  0
 18 17  1  0
 19 20  1  0
 19 18  2  0
 20 21  2  0
 21 16  1  0
 22 14  1  0
 22 28  1  0
 23 22  2  0
 25 24  1  6
 25 27  1  0
 26 25  1  0
 27 28  1  1
 27 29  1  0
 29 31  1  0
 30 29  2  0
M  END
$$$$
