KGL.pdb
     RDKit          3D

 22 21  0  0  1  0  0  0  0  0999 V2000
   21.2227  -25.1694  -14.2449 N   0  0  0  0  0  0  0  0  0  0  0  0
   21.2673  -24.1919  -15.2937 C   0  0  1  0  0  0  0  0  0  0  0  0
   20.8407  -22.8574  -14.8222 C   0  0  0  0  0  0  0  0  0  0  0  0
   19.4967  -22.8465  -14.1952 C   0  0  0  0  0  0  0  0  0  0  0  0
   18.3588  -22.3441  -15.0298 C   0  0  0  0  0  0  0  0  0  0  0  0
   17.0950  -22.1886  -14.1784 C   0  0  0  0  0  0  0  0  0  0  0  0
   15.9810  -21.7614  -14.9979 N   0  0  0  0  0  0  0  0  0  0  0  0
   22.5840  -24.1749  -15.9892 C   0  0  0  0  0  0  0  0  0  0  0  0
   22.6910  -23.4825  -17.0280 O   0  0  0  0  0  0  0  0  0  0  0  0
   23.7114  -24.9049  -15.5260 N   0  0  0  0  0  0  0  0  0  0  0  0
   24.9410  -25.0199  -16.2622 C   0  0  0  0  0  0  0  0  0  0  0  0
   25.8231  -23.8292  -16.0893 C   0  0  0  0  0  0  0  0  0  0  0  0
   25.8321  -23.2257  -14.9854 O   0  0  0  0  0  0  0  0  0  0  0  0
   30.8090  -24.4853  -17.7627 C   0  0  0  0  0  0  0  0  0  0  0  0
   29.4971  -24.0976  -17.1732 C   0  0  1  0  0  0  0  0  0  0  0  0
   29.7022  -24.0404  -15.6513 C   0  0  0  0  0  0  0  0  0  0  0  0
   28.9394  -22.7938  -17.5867 C   0  0  0  0  0  0  0  0  0  0  0  0
   27.6004  -22.4170  -17.0628 C   0  0  2  0  0  0  0  0  0  0  0  0
   26.6102  -23.4439  -17.1971 N   0  0  0  0  0  0  0  0  0  0  0  0
   27.0783  -21.1225  -17.5749 C   0  0  0  0  0  0  0  0  0  0  0  0
   27.7543  -19.9206  -17.4368 O   0  0  0  0  0  0  0  0  0  0  0  0
   25.9590  -21.0590  -18.1771 O   0  0  0  0  0  0  0  0  0  0  0  0
  2  1  1  1
  2  3  1  0
  4  3  1  0
  5  4  1  0
  6  5  1  0
  7  6  1  0
  8  9  2  0
  8  2  1  0
 10  8  1  0
 11 12  1  0
 11 10  1  0
 12 19  1  0
 13 12  2  0
 15 14  1  6
 15 16  1  0
 17 15  1  0
 18 17  1  6
 18 20  1  0
 19 18  1  0
 20 22  2  0
 20 21  1  0
M  END
$$$$
