KGL.pdb
     RDKit          3D

 22 21  0  0  1  0  0  0  0  0999 V2000
   27.8519  -23.0586  -18.5045 N   0  0  0  0  0  0  0  0  0  0  0  0
   28.8524  -22.3799  -17.7326 C   0  0  1  0  0  0  0  0  0  0  0  0
   29.7062  -21.5155  -18.5747 C   0  0  0  0  0  0  0  0  0  0  0  0
   31.1146  -21.9719  -18.6644 C   0  0  0  0  0  0  0  0  0  0  0  0
   31.3456  -23.3958  -19.0679 C   0  0  0  0  0  0  0  0  0  0  0  0
   32.8448  -23.7084  -19.1027 C   0  0  0  0  0  0  0  0  0  0  0  0
   33.0637  -25.1118  -19.3811 N   0  0  0  0  0  0  0  0  0  0  0  0
   28.2701  -21.6670  -16.5619 C   0  0  0  0  0  0  0  0  0  0  0  0
   28.8436  -21.7894  -15.4546 O   0  0  0  0  0  0  0  0  0  0  0  0
   27.1025  -20.8625  -16.6504 N   0  0  0  0  0  0  0  0  0  0  0  0
   26.5970  -20.0727  -15.5605 C   0  0  0  0  0  0  0  0  0  0  0  0
   25.6000  -20.8131  -14.7336 C   0  0  0  0  0  0  0  0  0  0  0  0
   25.0261  -21.8218  -15.2193 O   0  0  0  0  0  0  0  0  0  0  0  0
   26.2332  -20.1838   -9.1979 C   0  0  0  0  0  0  0  0  0  0  0  0
   26.0554  -20.5739  -10.6244 C   0  0  1  0  0  0  0  0  0  0  0  0
   26.7294  -21.9450  -10.7893 C   0  0  0  0  0  0  0  0  0  0  0  0
   24.6673  -20.7097  -11.1107 C   0  0  0  0  0  0  0  0  0  0  0  0
   24.4663  -21.0244  -12.5494 C   0  0  2  0  0  0  0  0  0  0  0  0
   25.3560  -20.3272  -13.4299 N   0  0  0  0  0  0  0  0  0  0  0  0
   23.0620  -20.8935  -13.0203 C   0  0  0  0  0  0  0  0  0  0  0  0
   22.0635  -21.7991  -12.6988 O   0  0  0  0  0  0  0  0  0  0  0  0
   22.7060  -19.9200  -13.7587 O   0  0  0  0  0  0  0  0  0  0  0  0
  2  1  1  6
  2  3  1  0
  4  3  1  0
  5  4  1  0
  6  5  1  0
  7  6  1  0
  8  9  2  0
  8  2  1  0
 10  8  1  0
 11 12  1  0
 11 10  1  0
 12 19  1  0
 13 12  2  0
 15 14  1  1
 15 16  1  0
 17 15  1  0
 18 17  1  1
 18 20  1  0
 19 18  1  0
 20 22  2  0
 20 21  1  0
M  END
$$$$
