KGL.pdb
     RDKit          3D

 22 21  0  0  1  0  0  0  0  0999 V2000
   25.7098  -20.4511  -15.7540 N   0  0  0  0  0  0  0  0  0  0  0  0
   27.0766  -20.6490  -15.3663 C   0  0  1  0  0  0  0  0  0  0  0  0
   28.0171  -20.0421  -16.3319 C   0  0  0  0  0  0  0  0  0  0  0  0
   28.2525  -20.8715  -17.5388 C   0  0  0  0  0  0  0  0  0  0  0  0
   28.4085  -22.3469  -17.3326 C   0  0  0  0  0  0  0  0  0  0  0  0
   28.7997  -23.0348  -18.6441 C   0  0  0  0  0  0  0  0  0  0  0  0
   28.9610  -24.4588  -18.4412 N   0  0  0  0  0  0  0  0  0  0  0  0
   27.3274  -20.2282  -13.9599 C   0  0  0  0  0  0  0  0  0  0  0  0
   28.4144  -20.5601  -13.4322 O   0  0  0  0  0  0  0  0  0  0  0  0
   26.3928  -19.4736  -13.2014 N   0  0  0  0  0  0  0  0  0  0  0  0
   26.6460  -19.0067  -11.8653 C   0  0  0  0  0  0  0  0  0  0  0  0
   26.3659  -20.0480  -10.8343 C   0  0  0  0  0  0  0  0  0  0  0  0
   26.0287  -21.2028  -11.2023 O   0  0  0  0  0  0  0  0  0  0  0  0
   28.2261  -18.6755   -5.7649 C   0  0  0  0  0  0  0  0  0  0  0  0
   27.9591  -19.4418   -7.0141 C   0  0  1  0  0  0  0  0  0  0  0  0
   29.0786  -20.4878   -7.1323 C   0  0  0  0  0  0  0  0  0  0  0  0
   26.6749  -20.1679   -7.0895 C   0  0  0  0  0  0  0  0  0  0  0  0
   26.2003  -20.5959   -8.4315 C   0  0  2  0  0  0  0  0  0  0  0  0
   26.4990  -19.6668   -9.4806 N   0  0  0  0  0  0  0  0  0  0  0  0
   24.7687  -20.9939   -8.4827 C   0  0  0  0  0  0  0  0  0  0  0  0
   24.2544  -22.0782   -7.7897 O   0  0  0  0  0  0  0  0  0  0  0  0
   23.9311  -20.3406   -9.1836 O   0  0  0  0  0  0  0  0  0  0  0  0
  2  1  1  6
  2  3  1  0
  4  3  1  0
  5  4  1  0
  6  5  1  0
  7  6  1  0
  8  9  2  0
  8  2  1  0
 10  8  1  0
 11 12  1  0
 11 10  1  0
 12 19  1  0
 13 12  2  0
 15 14  1  1
 15 16  1  0
 17 15  1  0
 18 17  1  1
 18 20  1  0
 19 18  1  0
 20 22  2  0
 20 21  1  0
M  END
$$$$
