KGL.pdb
     RDKit          3D

 22 21  0  0  1  0  0  0  0  0999 V2000
   23.3828  -19.5123  -13.6983 N   0  0  0  0  0  0  0  0  0  0  0  0
   22.7443  -20.5719  -12.9721 C   0  0  1  0  0  0  0  0  0  0  0  0
   22.7178  -21.8318  -13.7448 C   0  0  0  0  0  0  0  0  0  0  0  0
   23.4006  -21.7419  -15.0584 C   0  0  0  0  0  0  0  0  0  0  0  0
   22.7432  -20.9055  -16.1129 C   0  0  0  0  0  0  0  0  0  0  0  0
   23.5210  -20.9913  -17.4297 C   0  0  0  0  0  0  0  0  0  0  0  0
   22.9973  -20.0438  -18.3905 N   0  0  0  0  0  0  0  0  0  0  0  0
   23.3099  -20.7347  -11.6041 C   0  0  0  0  0  0  0  0  0  0  0  0
   23.0954  -21.8138  -11.0043 O   0  0  0  0  0  0  0  0  0  0  0  0
   24.0746  -19.7257  -10.9596 N   0  0  0  0  0  0  0  0  0  0  0  0
   24.5760  -19.8441   -9.6173 C   0  0  0  0  0  0  0  0  0  0  0  0
   26.0666  -19.8168   -9.5605 C   0  0  0  0  0  0  0  0  0  0  0  0
   26.7082  -19.2827  -10.5017 O   0  0  0  0  0  0  0  0  0  0  0  0
   28.2546  -19.8469   -4.3893 C   0  0  0  0  0  0  0  0  0  0  0  0
   27.8647  -19.6187   -5.8087 C   0  0  1  0  0  0  0  0  0  0  0  0
   28.2162  -18.1573   -6.1284 C   0  0  0  0  0  0  0  0  0  0  0  0
   28.5287  -20.4590   -6.8261 C   0  0  0  0  0  0  0  0  0  0  0  0
   28.0959  -20.3050   -8.2397 C   0  0  2  0  0  0  0  0  0  0  0  0
   26.6794  -20.4037   -8.4311 N   0  0  0  0  0  0  0  0  0  0  0  0
   28.8122  -21.1810   -9.2042 C   0  0  0  0  0  0  0  0  0  0  0  0
   30.1220  -20.9647   -9.6019 O   0  0  0  0  0  0  0  0  0  0  0  0
   28.2396  -22.1932   -9.7210 O   0  0  0  0  0  0  0  0  0  0  0  0
  2  1  1  6
  2  3  1  0
  4  3  1  0
  5  4  1  0
  6  5  1  0
  7  6  1  0
  8  9  2  0
  8  2  1  0
 10  8  1  0
 11 12  1  0
 11 10  1  0
 12 19  1  0
 13 12  2  0
 15 14  1  1
 15 16  1  0
 17 15  1  0
 18 17  1  1
 18 20  1  0
 19 18  1  0
 20 22  2  0
 20 21  1  0
M  END
$$$$
