KGL.pdb
     RDKit          3D

 22 21  0  0  1  0  0  0  0  0999 V2000
   27.2011  -17.5544  -14.0883 N   0  0  0  0  0  0  0  0  0  0  0  0
   25.8141  -17.8344  -14.3237 C   0  0  1  0  0  0  0  0  0  0  0  0
   25.3364  -17.2317  -15.5862 C   0  0  0  0  0  0  0  0  0  0  0  0
   26.2432  -16.1935  -16.1335 C   0  0  0  0  0  0  0  0  0  0  0  0
   27.3220  -16.6529  -17.0656 C   0  0  0  0  0  0  0  0  0  0  0  0
   28.1884  -15.4704  -17.5100 C   0  0  0  0  0  0  0  0  0  0  0  0
   29.3361  -15.9360  -18.2590 N   0  0  0  0  0  0  0  0  0  0  0  0
   25.5089  -19.2880  -14.2155 C   0  0  0  0  0  0  0  0  0  0  0  0
   24.3661  -19.6752  -14.5536 O   0  0  0  0  0  0  0  0  0  0  0  0
   26.4523  -20.2424  -13.7492 N   0  0  0  0  0  0  0  0  0  0  0  0
   26.1052  -21.5876  -13.3788 C   0  0  0  0  0  0  0  0  0  0  0  0
   26.2145  -21.8210  -11.9093 C   0  0  0  0  0  0  0  0  0  0  0  0
   25.7448  -22.8797  -11.4181 O   0  0  0  0  0  0  0  0  0  0  0  0
   29.0430  -19.2910   -6.9483 C   0  0  0  0  0  0  0  0  0  0  0  0
   27.9080  -20.0194   -7.5807 C   0  0  1  0  0  0  0  0  0  0  0  0
   26.6224  -19.3385   -7.0857 C   0  0  0  0  0  0  0  0  0  0  0  0
   27.8580  -20.0235   -9.0570 C   0  0  0  0  0  0  0  0  0  0  0  0
   26.8331  -20.8781   -9.7117 C   0  0  2  0  0  0  0  0  0  0  0  0
   26.8514  -20.8194  -11.1432 N   0  0  0  0  0  0  0  0  0  0  0  0
   25.4499  -20.6845   -9.2020 C   0  0  0  0  0  0  0  0  0  0  0  0
   24.5709  -19.7476   -9.7218 O   0  0  0  0  0  0  0  0  0  0  0  0
   25.0007  -21.3876   -8.2411 O   0  0  0  0  0  0  0  0  0  0  0  0
  2  1  1  6
  2  3  1  0
  4  3  1  0
  5  4  1  0
  6  5  1  0
  7  6  1  0
  8  9  2  0
  8  2  1  0
 10  8  1  0
 11 12  1  0
 11 10  1  0
 12 19  1  0
 13 12  2  0
 15 14  1  6
 15 16  1  0
 17 15  1  0
 18 17  1  1
 18 20  1  0
 19 18  1  0
 20 22  2  0
 20 21  1  0
M  END
$$$$
