KGL.pdb
     RDKit          3D

 22 21  0  0  1  0  0  0  0  0999 V2000
   25.7821  -17.6572  -15.2229 N   0  0  0  0  0  0  0  0  0  0  0  0
   25.1698  -18.9489  -15.3428 C   0  0  1  0  0  0  0  0  0  0  0  0
   24.9185  -19.3110  -16.7538 C   0  0  0  0  0  0  0  0  0  0  0  0
   25.3391  -18.2694  -17.7223 C   0  0  0  0  0  0  0  0  0  0  0  0
   26.7474  -18.3373  -18.2282 C   0  0  0  0  0  0  0  0  0  0  0  0
   26.9906  -17.2589  -19.2884 C   0  0  0  0  0  0  0  0  0  0  0  0
   28.3950  -17.1936  -19.6323 N   0  0  0  0  0  0  0  0  0  0  0  0
   25.9175  -19.9960  -14.5929 C   0  0  0  0  0  0  0  0  0  0  0  0
   25.5552  -21.1878  -14.7289 O   0  0  0  0  0  0  0  0  0  0  0  0
   27.0133  -19.6999  -13.7386 N   0  0  0  0  0  0  0  0  0  0  0  0
   27.7574  -20.7014  -13.0241 C   0  0  0  0  0  0  0  0  0  0  0  0
   27.0582  -21.1579  -11.7878 C   0  0  0  0  0  0  0  0  0  0  0  0
   27.6176  -22.0016  -11.0408 O   0  0  0  0  0  0  0  0  0  0  0  0
   27.4310  -19.2712   -7.5713 C   0  0  0  0  0  0  0  0  0  0  0  0
   26.9426  -20.2224   -8.6084 C   0  0  1  0  0  0  0  0  0  0  0  0
   26.9014  -21.6080   -7.9451 C   0  0  0  0  0  0  0  0  0  0  0  0
   25.5995  -19.9673   -9.1678 C   0  0  0  0  0  0  0  0  0  0  0  0
   25.1326  -20.8448  -10.2729 C   0  0  2  0  0  0  0  0  0  0  0  0
   25.7853  -20.6044  -11.5255 N   0  0  0  0  0  0  0  0  0  0  0  0
   23.6572  -20.8779  -10.4544 C   0  0  0  0  0  0  0  0  0  0  0  0
   22.7736  -21.2296   -9.4463 O   0  0  0  0  0  0  0  0  0  0  0  0
   23.1271  -20.5781  -11.5718 O   0  0  0  0  0  0  0  0  0  0  0  0
  2  1  1  6
  2  3  1  0
  4  3  1  0
  5  4  1  0
  6  5  1  0
  7  6  1  0
  8  9  2  0
  8  2  1  0
 10  8  1  0
 11 12  1  0
 11 10  1  0
 12 19  1  0
 13 12  2  0
 15 14  1  1
 15 16  1  0
 17 15  1  0
 18 17  1  1
 18 20  1  0
 19 18  1  0
 20 22  2  0
 20 21  1  0
M  END
$$$$
