KGL.pdb
     RDKit          3D

 22 21  0  0  1  0  0  0  0  0999 V2000
   26.4640  -19.6023  -12.3656 N   0  0  0  0  0  0  0  0  0  0  0  0
   27.6158  -19.2104  -13.1255 C   0  0  1  0  0  0  0  0  0  0  0  0
   28.3094  -20.3749  -13.7156 C   0  0  0  0  0  0  0  0  0  0  0  0
   29.5470  -20.7615  -12.9953 C   0  0  0  0  0  0  0  0  0  0  0  0
   29.3983  -21.1988  -11.5704 C   0  0  0  0  0  0  0  0  0  0  0  0
   30.7714  -21.4411  -10.9361 C   0  0  0  0  0  0  0  0  0  0  0  0
   30.6351  -21.7162   -9.5217 N   0  0  0  0  0  0  0  0  0  0  0  0
   27.2965  -18.1510  -14.1222 C   0  0  0  0  0  0  0  0  0  0  0  0
   28.1771  -17.8485  -14.9608 O   0  0  0  0  0  0  0  0  0  0  0  0
   26.0463  -17.4772  -14.1592 N   0  0  0  0  0  0  0  0  0  0  0  0
   25.7461  -16.4087  -15.0731 C   0  0  0  0  0  0  0  0  0  0  0  0
   25.0295  -16.8847  -16.2920 C   0  0  0  0  0  0  0  0  0  0  0  0
   25.5690  -17.7561  -17.0216 O   0  0  0  0  0  0  0  0  0  0  0  0
   20.4825  -19.3465  -15.9129 C   0  0  0  0  0  0  0  0  0  0  0  0
   21.7608  -18.7505  -16.3922 C   0  0  1  0  0  0  0  0  0  0  0  0
   22.3776  -19.7661  -17.3667 C   0  0  0  0  0  0  0  0  0  0  0  0
   21.6688  -17.4613  -17.1073 C   0  0  0  0  0  0  0  0  0  0  0  0
   22.9323  -16.8501  -17.5965 C   0  0  2  0  0  0  0  0  0  0  0  0
   23.7637  -16.3170  -16.5584 N   0  0  0  0  0  0  0  0  0  0  0  0
   22.7553  -15.8516  -18.6838 C   0  0  0  0  0  0  0  0  0  0  0  0
   22.3111  -16.1803  -19.9547 O   0  0  0  0  0  0  0  0  0  0  0  0
   23.0113  -14.6200  -18.4911 O   0  0  0  0  0  0  0  0  0  0  0  0
  2  1  1  6
  2  3  1  0
  4  3  1  0
  5  4  1  0
  6  5  1  0
  7  6  1  0
  8  9  2  0
  8  2  1  0
 10  8  1  0
 11 12  1  0
 11 10  1  0
 12 19  1  0
 13 12  2  0
 15 14  1  6
 15 16  1  0
 17 15  1  0
 18 17  1  1
 18 20  1  0
 19 18  1  0
 20 22  2  0
 20 21  1  0
M  END
$$$$
