KGL.pdb
     RDKit          3D

 22 21  0  0  1  0  0  0  0  0999 V2000
   25.3955  -18.6204  -14.1728 N   0  0  0  0  0  0  0  0  0  0  0  0
   24.4401  -19.5617  -13.6639 C   0  0  1  0  0  0  0  0  0  0  0  0
   23.4622  -19.9672  -14.6957 C   0  0  0  0  0  0  0  0  0  0  0  0
   22.7478  -18.8285  -15.3224 C   0  0  0  0  0  0  0  0  0  0  0  0
   23.5532  -17.6029  -15.6277 C   0  0  0  0  0  0  0  0  0  0  0  0
   22.6464  -16.4746  -16.1287 C   0  0  0  0  0  0  0  0  0  0  0  0
   22.3393  -16.6561  -17.5314 N   0  0  0  0  0  0  0  0  0  0  0  0
   25.0949  -20.7172  -12.9902 C   0  0  0  0  0  0  0  0  0  0  0  0
   24.3709  -21.6738  -12.6285 O   0  0  0  0  0  0  0  0  0  0  0  0
   26.4928  -20.7767  -12.7442 N   0  0  0  0  0  0  0  0  0  0  0  0
   27.1286  -21.8478  -12.0261 C   0  0  0  0  0  0  0  0  0  0  0  0
   26.8600  -21.7901  -10.5597 C   0  0  0  0  0  0  0  0  0  0  0  0
   26.1851  -22.7054  -10.0215 O   0  0  0  0  0  0  0  0  0  0  0  0
   28.3889  -20.1106   -5.4443 C   0  0  0  0  0  0  0  0  0  0  0  0
   27.6755  -19.1872   -6.3703 C   0  0  1  0  0  0  0  0  0  0  0  0
   28.1884  -17.7728   -6.0572 C   0  0  0  0  0  0  0  0  0  0  0  0
   27.8713  -19.4111   -7.8172 C   0  0  0  0  0  0  0  0  0  0  0  0
   27.1377  -20.5395   -8.4478 C   0  0  2  0  0  0  0  0  0  0  0  0
   27.3901  -20.6895   -9.8502 N   0  0  0  0  0  0  0  0  0  0  0  0
   25.6753  -20.5527   -8.1794 C   0  0  0  0  0  0  0  0  0  0  0  0
   24.7461  -19.9237   -8.9929 O   0  0  0  0  0  0  0  0  0  0  0  0
   25.2001  -21.1564   -7.1650 O   0  0  0  0  0  0  0  0  0  0  0  0
  2  1  1  6
  2  3  1  0
  4  3  1  0
  5  4  1  0
  6  5  1  0
  7  6  1  0
  8  9  2  0
  8  2  1  0
 10  8  1  0
 11 12  1  0
 11 10  1  0
 12 19  1  0
 13 12  2  0
 15 14  1  1
 15 16  1  0
 17 15  1  0
 18 17  1  6
 18 20  1  0
 19 18  1  0
 20 22  2  0
 20 21  1  0
M  END
$$$$
