KGL.pdb
     RDKit          3D

 22 21  0  0  1  0  0  0  0  0999 V2000
   26.1137  -16.5037  -17.7679 N   0  0  0  0  0  0  0  0  0  0  0  0
   25.0984  -17.4549  -17.4186 C   0  0  1  0  0  0  0  0  0  0  0  0
   24.8686  -18.4377  -18.4987 C   0  0  0  0  0  0  0  0  0  0  0  0
   25.4421  -18.0344  -19.8057 C   0  0  0  0  0  0  0  0  0  0  0  0
   26.9146  -18.2335  -19.9949 C   0  0  0  0  0  0  0  0  0  0  0  0
   27.2129  -19.6766  -20.4130 C   0  0  0  0  0  0  0  0  0  0  0  0
   28.6346  -19.8639  -20.6094 N   0  0  0  0  0  0  0  0  0  0  0  0
   25.3538  -18.0874  -16.0948 C   0  0  0  0  0  0  0  0  0  0  0  0
   24.5503  -18.9627  -15.6969 O   0  0  0  0  0  0  0  0  0  0  0  0
   26.4606  -17.7411  -15.2742 N   0  0  0  0  0  0  0  0  0  0  0  0
   26.7789  -18.4133  -14.0437 C   0  0  0  0  0  0  0  0  0  0  0  0
   26.0123  -19.6815  -13.8715 C   0  0  0  0  0  0  0  0  0  0  0  0
   26.5401  -20.7706  -14.2152 O   0  0  0  0  0  0  0  0  0  0  0  0
   26.1400  -20.4678   -9.1003 C   0  0  0  0  0  0  0  0  0  0  0  0
   25.8658  -20.6970  -10.5464 C   0  0  1  0  0  0  0  0  0  0  0  0
   26.1171  -22.1905  -10.8070 C   0  0  0  0  0  0  0  0  0  0  0  0
   24.5003  -20.3957  -11.0223 C   0  0  0  0  0  0  0  0  0  0  0  0
   24.2074  -20.6097  -12.4637 C   0  0  2  0  0  0  0  0  0  0  0  0
   24.7148  -19.5808  -13.3221 N   0  0  0  0  0  0  0  0  0  0  0  0
   22.7784  -20.8832  -12.7700 C   0  0  0  0  0  0  0  0  0  0  0  0
   22.1564  -22.0890  -12.4879 O   0  0  0  0  0  0  0  0  0  0  0  0
   22.0449  -20.0002  -13.3195 O   0  0  0  0  0  0  0  0  0  0  0  0
  2  1  1  6
  2  3  1  0
  4  3  1  0
  5  4  1  0
  6  5  1  0
  7  6  1  0
  8  9  2  0
  8  2  1  0
 10  8  1  0
 11 12  1  0
 11 10  1  0
 12 19  1  0
 13 12  2  0
 15 14  1  1
 15 16  1  0
 17 15  1  0
 18 17  1  1
 18 20  1  0
 19 18  1  0
 20 22  2  0
 20 21  1  0
M  END
$$$$
