KGL.pdb
     RDKit          3D

 22 21  0  0  1  0  0  0  0  0999 V2000
   27.6531  -21.6708  -15.6044 N   0  0  0  0  0  0  0  0  0  0  0  0
   26.5996  -20.6974  -15.5967 C   0  0  1  0  0  0  0  0  0  0  0  0
   25.3128  -21.2741  -16.0406 C   0  0  0  0  0  0  0  0  0  0  0  0
   25.4518  -22.5662  -16.7554 C   0  0  0  0  0  0  0  0  0  0  0  0
   25.0428  -23.8025  -16.0152 C   0  0  0  0  0  0  0  0  0  0  0  0
   25.0762  -25.0207  -16.9432 C   0  0  0  0  0  0  0  0  0  0  0  0
   24.7518  -26.2257  -16.2100 N   0  0  0  0  0  0  0  0  0  0  0  0
   26.5039  -19.9844  -14.2927 C   0  0  0  0  0  0  0  0  0  0  0  0
   25.5936  -19.1348  -14.1530 O   0  0  0  0  0  0  0  0  0  0  0  0
   27.3945  -20.2272  -13.2128 N   0  0  0  0  0  0  0  0  0  0  0  0
   27.3204  -19.5406  -11.9518 C   0  0  0  0  0  0  0  0  0  0  0  0
   26.8701  -20.4312  -10.8428 C   0  0  0  0  0  0  0  0  0  0  0  0
   26.6292  -21.6419  -11.0856 O   0  0  0  0  0  0  0  0  0  0  0  0
   28.3513  -18.6963   -5.8664 C   0  0  0  0  0  0  0  0  0  0  0  0
   28.0566  -19.5133   -7.0766 C   0  0  1  0  0  0  0  0  0  0  0  0
   29.1150  -20.6265   -7.1201 C   0  0  0  0  0  0  0  0  0  0  0  0
   26.7336  -20.1677   -7.1335 C   0  0  0  0  0  0  0  0  0  0  0  0
   26.2431  -20.6214   -8.4613 C   0  0  2  0  0  0  0  0  0  0  0  0
   26.7388  -19.8498   -9.5621 N   0  0  0  0  0  0  0  0  0  0  0  0
   24.7670  -20.7722   -8.5563 C   0  0  0  0  0  0  0  0  0  0  0  0
   23.9973  -20.1393   -9.5194 O   0  0  0  0  0  0  0  0  0  0  0  0
   24.1287  -21.5068   -7.7363 O   0  0  0  0  0  0  0  0  0  0  0  0
  2  1  1  1
  2  3  1  0
  4  3  1  0
  5  4  1  0
  6  5  1  0
  7  6  1  0
  8  9  2  0
  8  2  1  0
 10  8  1  0
 11 12  1  0
 11 10  1  0
 12 19  1  0
 13 12  2  0
 15 14  1  1
 15 16  1  0
 17 15  1  0
 18 17  1  1
 18 20  1  0
 19 18  1  0
 20 22  2  0
 20 21  1  0
M  END
$$$$
