KGL.pdb
     RDKit          3D

 22 21  0  0  1  0  0  0  0  0999 V2000
   24.3959  -22.1674  -12.5819 N   0  0  0  0  0  0  0  0  0  0  0  0
   25.1254  -21.2933  -13.4544 C   0  0  1  0  0  0  0  0  0  0  0  0
   24.3095  -20.1386  -13.8861 C   0  0  0  0  0  0  0  0  0  0  0  0
   22.8932  -20.2118  -13.4520 C   0  0  0  0  0  0  0  0  0  0  0  0
   21.8488  -19.8808  -14.4734 C   0  0  0  0  0  0  0  0  0  0  0  0
   20.4540  -19.8944  -13.8403 C   0  0  0  0  0  0  0  0  0  0  0  0
   19.4549  -19.4893  -14.8061 N   0  0  0  0  0  0  0  0  0  0  0  0
   26.4422  -20.8993  -12.8812 C   0  0  0  0  0  0  0  0  0  0  0  0
   27.1892  -20.1687  -13.5728 O   0  0  0  0  0  0  0  0  0  0  0  0
   26.8798  -21.3146  -11.5950 N   0  0  0  0  0  0  0  0  0  0  0  0
   28.1667  -20.9814  -11.0473 C   0  0  0  0  0  0  0  0  0  0  0  0
   28.2662  -21.2951   -9.5922 C   0  0  0  0  0  0  0  0  0  0  0  0
   28.5853  -22.4583   -9.2343 O   0  0  0  0  0  0  0  0  0  0  0  0
   29.5042  -20.7661   -4.3118 C   0  0  0  0  0  0  0  0  0  0  0  0
   28.5234  -19.8408   -4.9449 C   0  0  1  0  0  0  0  0  0  0  0  0
   28.7267  -18.4693   -4.2824 C   0  0  0  0  0  0  0  0  0  0  0  0
   28.6405  -19.6413   -6.4038 C   0  0  0  0  0  0  0  0  0  0  0  0
   27.8292  -20.5176   -7.2889 C   0  0  2  0  0  0  0  0  0  0  0  0
   27.9908  -20.2466   -8.6865 N   0  0  0  0  0  0  0  0  0  0  0  0
   26.3862  -20.5853   -6.9369 C   0  0  0  0  0  0  0  0  0  0  0  0
   25.8804  -21.4222   -5.9548 O   0  0  0  0  0  0  0  0  0  0  0  0
   25.5299  -19.8603   -7.5374 O   0  0  0  0  0  0  0  0  0  0  0  0
  2  1  1  1
  2  3  1  0
  4  3  1  0
  5  4  1  0
  6  5  1  0
  7  6  1  0
  8  9  2  0
  8  2  1  0
 10  8  1  0
 11 12  1  0
 11 10  1  0
 12 19  1  0
 13 12  2  0
 15 14  1  1
 15 16  1  0
 17 15  1  0
 18 17  1  1
 18 20  1  0
 19 18  1  0
 20 22  2  0
 20 21  1  0
M  END
$$$$
