KGL.pdb
     RDKit          3D

 22 21  0  0  1  0  0  0  0  0999 V2000
   25.2597  -22.3792  -12.5967 N   0  0  0  0  0  0  0  0  0  0  0  0
   25.2523  -20.9927  -12.9641 C   0  0  1  0  0  0  0  0  0  0  0  0
   23.9528  -20.5807  -13.5361 C   0  0  0  0  0  0  0  0  0  0  0  0
   23.0602  -21.7168  -13.8712 C   0  0  0  0  0  0  0  0  0  0  0  0
   22.2888  -21.6233  -15.1518 C   0  0  0  0  0  0  0  0  0  0  0  0
   20.8045  -21.9127  -14.9078 C   0  0  0  0  0  0  0  0  0  0  0  0
   20.5571  -23.3388  -14.9219 N   0  0  0  0  0  0  0  0  0  0  0  0
   25.7076  -20.1148  -11.8507 C   0  0  0  0  0  0  0  0  0  0  0  0
   25.7690  -18.8813  -12.0625 O   0  0  0  0  0  0  0  0  0  0  0  0
   26.0712  -20.6155  -10.5719 N   0  0  0  0  0  0  0  0  0  0  0  0
   26.5351  -19.7834   -9.4950 C   0  0  0  0  0  0  0  0  0  0  0  0
   26.6640  -20.5314   -8.2107 C   0  0  0  0  0  0  0  0  0  0  0  0
   26.3106  -21.7380   -8.1636 O   0  0  0  0  0  0  0  0  0  0  0  0
   30.3089  -18.4732   -4.3901 C   0  0  0  0  0  0  0  0  0  0  0  0
   29.5206  -19.3389   -5.3109 C   0  0  1  0  0  0  0  0  0  0  0  0
   30.3314  -20.6311   -5.4963 C   0  0  0  0  0  0  0  0  0  0  0  0
   28.1695  -19.7331   -4.8624 C   0  0  0  0  0  0  0  0  0  0  0  0
   27.3070  -20.4649   -5.8267 C   0  0  2  0  0  0  0  0  0  0  0  0
   27.1854  -19.8260   -7.1034 N   0  0  0  0  0  0  0  0  0  0  0  0
   25.9658  -20.8326   -5.3006 C   0  0  0  0  0  0  0  0  0  0  0  0
   25.7785  -21.6513   -4.1982 O   0  0  0  0  0  0  0  0  0  0  0  0
   24.9037  -20.4018   -5.8537 O   0  0  0  0  0  0  0  0  0  0  0  0
  2  1  1  1
  2  3  1  0
  4  3  1  0
  5  4  1  0
  6  5  1  0
  7  6  1  0
  8  9  2  0
  8  2  1  0
 10  8  1  0
 11 12  1  0
 11 10  1  0
 12 19  1  0
 13 12  2  0
 15 14  1  1
 15 16  1  0
 17 15  1  0
 18 17  1  1
 18 20  1  0
 19 18  1  0
 20 22  2  0
 20 21  1  0
M  END
$$$$
