KGL.pdb
     RDKit          3D

 22 21  0  0  1  0  0  0  0  0999 V2000
   22.4531  -20.5321  -15.7682 N   0  0  0  0  0  0  0  0  0  0  0  0
   22.0320  -19.4047  -14.9876 C   0  0  1  0  0  0  0  0  0  0  0  0
   21.5693  -19.8074  -13.6425 C   0  0  0  0  0  0  0  0  0  0  0  0
   20.8748  -21.1176  -13.6168 C   0  0  0  0  0  0  0  0  0  0  0  0
   19.4076  -21.1178  -13.9187 C   0  0  0  0  0  0  0  0  0  0  0  0
   18.8150  -22.5142  -13.7064 C   0  0  0  0  0  0  0  0  0  0  0  0
   17.3768  -22.4844  -13.8663 N   0  0  0  0  0  0  0  0  0  0  0  0
   23.0607  -18.3284  -14.9560 C   0  0  0  0  0  0  0  0  0  0  0  0
   23.0369  -17.5207  -13.9982 O   0  0  0  0  0  0  0  0  0  0  0  0
   24.0571  -18.1830  -15.9582 N   0  0  0  0  0  0  0  0  0  0  0  0
   25.3208  -17.5347  -15.7344 C   0  0  0  0  0  0  0  0  0  0  0  0
   26.4026  -18.4996  -15.3818 C   0  0  0  0  0  0  0  0  0  0  0  0
   27.5988  -18.2010  -15.6323 O   0  0  0  0  0  0  0  0  0  0  0  0
   26.6309  -20.9995  -10.6348 C   0  0  0  0  0  0  0  0  0  0  0  0
   26.8050  -20.3910  -11.9832 C   0  0  1  0  0  0  0  0  0  0  0  0
   28.1408  -19.6319  -11.9504 C   0  0  0  0  0  0  0  0  0  0  0  0
   26.8594  -21.3186  -13.1315 C   0  0  0  0  0  0  0  0  0  0  0  0
   26.9802  -20.7298  -14.4909 C   0  0  2  0  0  0  0  0  0  0  0  0
   26.0107  -19.7141  -14.7759 N   0  0  0  0  0  0  0  0  0  0  0  0
   27.0279  -21.7259  -15.5937 C   0  0  0  0  0  0  0  0  0  0  0  0
   28.2049  -22.2885  -16.0615 O   0  0  0  0  0  0  0  0  0  0  0  0
   25.9633  -22.1151  -16.1723 O   0  0  0  0  0  0  0  0  0  0  0  0
  2  1  1  1
  2  3  1  0
  4  3  1  0
  5  4  1  0
  6  5  1  0
  7  6  1  0
  8  9  2  0
  8  2  1  0
 10  8  1  0
 11 12  1  0
 11 10  1  0
 12 19  1  0
 13 12  2  0
 15 14  1  1
 15 16  1  0
 17 15  1  0
 18 17  1  1
 18 20  1  0
 19 18  1  0
 20 22  2  0
 20 21  1  0
M  END
$$$$
