KPR.pdb
     RDKit          3D

 28 28  0  0  1  0  0  0  0  0999 V2000
   10.1088  -15.8641   15.8188 N   0  0  0  0  0  0  0  0  0  0  0  0
    9.0589  -15.6353   16.7685 C   0  0  1  0  0  0  0  0  0  0  0  0
    8.1054  -16.8236   16.8354 C   0  0  0  0  0  0  0  0  0  0  0  0
    8.8137  -17.9964   17.4245 C   0  0  0  0  0  0  0  0  0  0  0  0
    7.8749  -19.1735   17.4747 C   0  0  0  0  0  0  0  0  0  0  0  0
    8.5639  -20.4018   17.9836 C   0  0  0  0  0  0  0  0  0  0  0  0
    7.6253  -21.5201   18.1286 N   0  0  0  0  0  0  0  0  0  0  0  0
    9.4872  -15.2408   18.1079 C   0  0  0  0  0  0  0  0  0  0  0  0
   10.6081  -15.7186   18.4987 O   0  0  0  0  0  0  0  0  0  0  0  0
    8.7966  -14.3924   19.0080 N   0  0  0  0  0  0  0  0  0  0  0  0
    7.5127  -13.7602   18.7937 C   0  0  0  0  0  0  0  0  0  0  0  0
    7.0864  -13.3754   20.1906 C   0  0  0  0  0  0  0  0  0  0  0  0
    8.4117  -12.8754   20.7615 C   0  0  0  0  0  0  0  0  0  0  0  0
    9.3121  -14.0154   20.3265 C   0  0  1  0  0  0  0  0  0  0  0  0
    9.2913  -15.1560   21.2598 C   0  0  0  0  0  0  0  0  0  0  0  0
    8.7151  -16.2292   20.8947 O   0  0  0  0  0  0  0  0  0  0  0  0
   17.2416  -15.8032   21.1523 N   0  0  0  0  0  0  0  0  0  0  0  0
   16.4851  -16.0552   22.3279 C   0  0  0  0  0  0  0  0  0  0  0  0
   16.6754  -15.3508   23.3725 N   0  0  0  0  0  0  0  0  0  0  0  0
   15.5021  -17.0843   22.3892 N   0  0  0  0  0  0  0  0  0  0  0  0
   14.2368  -16.9906   21.7056 C   0  0  0  0  0  0  0  0  0  0  0  0
   13.0641  -17.0881   22.6461 C   0  0  0  0  0  0  0  0  0  0  0  0
   12.0008  -16.1333   22.2281 C   0  0  0  0  0  0  0  0  0  0  0  0
   10.7311  -16.2069   23.0595 C   0  0  2  0  0  0  0  0  0  0  0  0
    9.8670  -15.1544   22.5440 N   0  0  0  0  0  0  0  0  0  0  0  0
   11.0404  -15.8932   24.4654 C   0  0  0  0  0  0  0  0  0  0  0  0
   11.2268  -16.7619   25.3590 O   0  0  0  0  0  0  0  0  0  0  0  0
   11.1415  -14.5701   24.8724 O   0  0  0  0  0  0  0  0  0  0  0  0
  2  1  1  6
  3  4  1  0
  3  2  1  0
  4  5  1  0
  5  6  1  0
  7  6  1  0
  8  2  1  0
  9  8  2  0
 10  8  1  0
 11 10  1  0
 12 13  1  0
 12 11  1  0
 13 14  1  0
 14 10  1  0
 14 15  1  1
 15 16  2  0
 17 18  1  0
 18 19  2  0
 18 20  1  0
 20 21  1  0
 21 22  1  0
 22 23  1  0
 24 23  1  6
 25 15  1  0
 25 24  1  0
 26 24  1  0
 26 28  1  0
 27 26  2  0
M  END
$$$$
