KPR.pdb
     RDKit          3D

 28 28  0  0  1  0  0  0  0  0999 V2000
    9.5186  -18.0812   18.6880 N   0  0  0  0  0  0  0  0  0  0  0  0
    8.4796  -17.2325   19.1947 C   0  0  1  0  0  0  0  0  0  0  0  0
    7.2647  -18.0454   19.6295 C   0  0  0  0  0  0  0  0  0  0  0  0
    6.7736  -18.8584   18.4797 C   0  0  0  0  0  0  0  0  0  0  0  0
    5.5791  -19.6672   18.9138 C   0  0  0  0  0  0  0  0  0  0  0  0
    5.0679  -20.5291   17.8011 C   0  0  0  0  0  0  0  0  0  0  0  0
    3.9834  -21.4051   18.2582 N   0  0  0  0  0  0  0  0  0  0  0  0
    8.8770  -16.2967   20.2432 C   0  0  0  0  0  0  0  0  0  0  0  0
    9.7966  -16.7032   21.0348 O   0  0  0  0  0  0  0  0  0  0  0  0
    8.3546  -14.9996   20.4703 N   0  0  0  0  0  0  0  0  0  0  0  0
    7.4045  -14.2888   19.6422 C   0  0  0  0  0  0  0  0  0  0  0  0
    6.8906  -13.2094   20.5651 C   0  0  0  0  0  0  0  0  0  0  0  0
    8.1857  -12.7917   21.2582 C   0  0  0  0  0  0  0  0  0  0  0  0
    8.7271  -14.1627   21.6137 C   0  0  1  0  0  0  0  0  0  0  0  0
    8.1743  -14.6932   22.8729 C   0  0  0  0  0  0  0  0  0  0  0  0
    6.9206  -14.6095   23.0686 O   0  0  0  0  0  0  0  0  0  0  0  0
    6.8126  -21.9792   22.9513 N   0  0  0  0  0  0  0  0  0  0  0  0
    5.7900  -21.0073   22.7852 C   0  0  0  0  0  0  0  0  0  0  0  0
    4.6376  -21.3581   22.3700 N   0  0  0  0  0  0  0  0  0  0  0  0
    6.0036  -19.6279   23.0692 N   0  0  0  0  0  0  0  0  0  0  0  0
    7.2766  -19.1140   23.5084 C   0  0  0  0  0  0  0  0  0  0  0  0
    7.2339  -17.6361   23.7968 C   0  0  0  0  0  0  0  0  0  0  0  0
    8.1858  -17.3080   24.8937 C   0  0  0  0  0  0  0  0  0  0  0  0
    8.3768  -15.8197   25.1326 C   0  0  2  0  0  0  0  0  0  0  0  0
    8.9335  -15.2950   23.8936 N   0  0  0  0  0  0  0  0  0  0  0  0
    9.3702  -15.6126   26.2007 C   0  0  0  0  0  0  0  0  0  0  0  0
    9.1378  -15.7903   27.4264 O   0  0  0  0  0  0  0  0  0  0  0  0
   10.6545  -15.1958   25.8791 O   0  0  0  0  0  0  0  0  0  0  0  0
  2  1  1  1
  3  4  1  0
  3  2  1  0
  4  5  1  0
  5  6  1  0
  7  6  1  0
  8  2  1  0
  9  8  2  0
 10  8  1  0
 11 10  1  0
 12 13  1  0
 12 11  1  0
 13 14  1  0
 14 10  1  0
 14 15  1  1
 15 16  2  0
 17 18  1  0
 18 19  2  0
 18 20  1  0
 20 21  1  0
 21 22  1  0
 22 23  1  0
 24 23  1  6
 25 15  1  0
 25 24  1  0
 26 24  1  0
 26 28  1  0
 27 26  2  0
M  END
$$$$
