KPR.pdb
     RDKit          3D

 28 28  0  0  1  0  0  0  0  0999 V2000
    5.8142  -19.0384   20.6966 N   0  0  0  0  0  0  0  0  0  0  0  0
    6.2497  -18.5259   21.9632 C   0  0  1  0  0  0  0  0  0  0  0  0
    6.6615  -19.6535   22.9039 C   0  0  0  0  0  0  0  0  0  0  0  0
    5.5412  -20.6297   23.0294 C   0  0  0  0  0  0  0  0  0  0  0  0
    5.9488  -21.7409   23.9614 C   0  0  0  0  0  0  0  0  0  0  0  0
    4.8736  -22.7761   24.0822 C   0  0  0  0  0  0  0  0  0  0  0  0
    5.2861  -23.8753   24.9622 N   0  0  0  0  0  0  0  0  0  0  0  0
    7.2819  -17.4939   21.9112 C   0  0  0  0  0  0  0  0  0  0  0  0
    8.1963  -17.6630   21.0322 O   0  0  0  0  0  0  0  0  0  0  0  0
    7.3726  -16.3377   22.7249 N   0  0  0  0  0  0  0  0  0  0  0  0
    6.4104  -15.8907   23.7089 C   0  0  0  0  0  0  0  0  0  0  0  0
    7.2067  -14.9166   24.5443 C   0  0  0  0  0  0  0  0  0  0  0  0
    7.9970  -14.1930   23.4561 C   0  0  0  0  0  0  0  0  0  0  0  0
    8.4914  -15.3934   22.6725 C   0  0  1  0  0  0  0  0  0  0  0  0
    9.7208  -15.9825   23.2332 C   0  0  0  0  0  0  0  0  0  0  0  0
    9.6186  -16.7708   24.2257 O   0  0  0  0  0  0  0  0  0  0  0  0
   17.2701  -16.0954   19.1445 N   0  0  0  0  0  0  0  0  0  0  0  0
   16.5636  -15.0262   19.7574 C   0  0  0  0  0  0  0  0  0  0  0  0
   16.5244  -13.8828   19.1966 N   0  0  0  0  0  0  0  0  0  0  0  0
   15.8830  -15.1823   20.9990 N   0  0  0  0  0  0  0  0  0  0  0  0
   15.5714  -16.4744   21.5562 C   0  0  0  0  0  0  0  0  0  0  0  0
   14.7034  -16.3795   22.7837 C   0  0  0  0  0  0  0  0  0  0  0  0
   13.3628  -15.8474   22.4142 C   0  0  0  0  0  0  0  0  0  0  0  0
   12.2146  -16.4264   23.2237 C   0  0  2  0  0  0  0  0  0  0  0  0
   11.0206  -15.7395   22.7517 N   0  0  0  0  0  0  0  0  0  0  0  0
   12.3960  -16.0958   24.6479 C   0  0  0  0  0  0  0  0  0  0  0  0
   12.0076  -15.0213   25.1792 O   0  0  0  0  0  0  0  0  0  0  0  0
   13.0297  -16.9975   25.4917 O   0  0  0  0  0  0  0  0  0  0  0  0
  2  1  1  6
  3  4  1  0
  3  2  1  0
  4  5  1  0
  5  6  1  0
  7  6  1  0
  8  2  1  0
  9  8  2  0
 10  8  1  0
 11 10  1  0
 12 13  1  0
 12 11  1  0
 13 14  1  0
 14 10  1  0
 14 15  1  1
 15 16  2  0
 17 18  1  0
 18 19  2  0
 18 20  1  0
 20 21  1  0
 21 22  1  0
 22 23  1  0
 24 23  1  6
 25 15  1  0
 25 24  1  0
 26 24  1  0
 26 28  1  0
 27 26  2  0
M  END
$$$$
