KPR.pdb
     RDKit          3D

 28 28  0  0  1  0  0  0  0  0999 V2000
   10.7975  -15.4861   16.0691 N   0  0  0  0  0  0  0  0  0  0  0  0
    9.6328  -15.6907   16.8804 C   0  0  1  0  0  0  0  0  0  0  0  0
    9.1728  -17.1439   16.8308 C   0  0  0  0  0  0  0  0  0  0  0  0
    7.7925  -17.2091   16.2702 C   0  0  0  0  0  0  0  0  0  0  0  0
    7.3338  -18.6437   16.2373 C   0  0  0  0  0  0  0  0  0  0  0  0
    5.9882  -18.7736   15.5933 C   0  0  0  0  0  0  0  0  0  0  0  0
    5.4561  -20.1333   15.7360 N   0  0  0  0  0  0  0  0  0  0  0  0
    9.7301  -15.2266   18.2617 C   0  0  0  0  0  0  0  0  0  0  0  0
   10.7089  -15.6947   18.9401 O   0  0  0  0  0  0  0  0  0  0  0  0
    8.8615  -14.3211   18.9196 N   0  0  0  0  0  0  0  0  0  0  0  0
    7.6986  -13.6692   18.3570 C   0  0  0  0  0  0  0  0  0  0  0  0
    6.9417  -13.2099   19.5805 C   0  0  0  0  0  0  0  0  0  0  0  0
    8.0925  -12.7156   20.4543 C   0  0  0  0  0  0  0  0  0  0  0  0
    9.0341  -13.8956   20.3108 C   0  0  1  0  0  0  0  0  0  0  0  0
    8.7346  -14.9908   21.2507 C   0  0  0  0  0  0  0  0  0  0  0  0
    7.8495  -15.8444   20.9266 O   0  0  0  0  0  0  0  0  0  0  0  0
   11.8200  -16.6651   29.4637 N   0  0  0  0  0  0  0  0  0  0  0  0
   10.9674  -17.7364   29.0855 C   0  0  0  0  0  0  0  0  0  0  0  0
   10.5142  -18.5341   29.9696 N   0  0  0  0  0  0  0  0  0  0  0  0
   10.5903  -17.9612   27.7303 N   0  0  0  0  0  0  0  0  0  0  0  0
   10.5217  -16.8999   26.7576 C   0  0  0  0  0  0  0  0  0  0  0  0
   10.2060  -17.4049   25.3738 C   0  0  0  0  0  0  0  0  0  0  0  0
   10.2314  -16.2740   24.4057 C   0  0  0  0  0  0  0  0  0  0  0  0
    9.0967  -16.2893   23.3953 C   0  0  2  0  0  0  0  0  0  0  0  0
    9.3589  -15.1721   22.4989 N   0  0  0  0  0  0  0  0  0  0  0  0
    7.8186  -16.0312   24.0813 C   0  0  0  0  0  0  0  0  0  0  0  0
    7.3197  -14.8849   24.2388 O   0  0  0  0  0  0  0  0  0  0  0  0
    7.0870  -17.0900   24.6013 O   0  0  0  0  0  0  0  0  0  0  0  0
  2  1  1  1
  3  4  1  0
  3  2  1  0
  4  5  1  0
  5  6  1  0
  7  6  1  0
  8  2  1  0
  9  8  2  0
 10  8  1  0
 11 10  1  0
 12 13  1  0
 12 11  1  0
 13 14  1  0
 14 10  1  0
 14 15  1  1
 15 16  2  0
 17 18  1  0
 18 19  2  0
 18 20  1  0
 20 21  1  0
 21 22  1  0
 22 23  1  0
 24 23  1  1
 25 15  1  0
 25 24  1  0
 26 24  1  0
 26 28  1  0
 27 26  2  0
M  END
$$$$
