KPR.pdb
     RDKit          3D

 28 28  0  0  1  0  0  0  0  0999 V2000
    8.8051  -15.9218   15.5558 N   0  0  0  0  0  0  0  0  0  0  0  0
    8.0820  -15.8094   16.7891 C   0  0  1  0  0  0  0  0  0  0  0  0
    7.5195  -17.1582   17.2251 C   0  0  0  0  0  0  0  0  0  0  0  0
    8.6418  -18.0699   17.5903 C   0  0  0  0  0  0  0  0  0  0  0  0
    8.0824  -19.3488   18.1569 C   0  0  0  0  0  0  0  0  0  0  0  0
    9.1733  -20.2908   18.5629 C   0  0  0  0  0  0  0  0  0  0  0  0
    8.6307  -21.4890   19.2130 N   0  0  0  0  0  0  0  0  0  0  0  0
    8.7966  -15.1678   17.8895 C   0  0  0  0  0  0  0  0  0  0  0  0
   10.0674  -15.3176   17.8923 O   0  0  0  0  0  0  0  0  0  0  0  0
    8.2328  -14.4049   18.9418 N   0  0  0  0  0  0  0  0  0  0  0  0
    6.8400  -14.0485   19.1063 C   0  0  0  0  0  0  0  0  0  0  0  0
    6.7606  -13.6524   20.5616 C   0  0  0  0  0  0  0  0  0  0  0  0
    8.0618  -12.8670   20.7109 C   0  0  0  0  0  0  0  0  0  0  0  0
    9.0143  -13.8411   20.0452 C   0  0  1  0  0  0  0  0  0  0  0  0
    9.4951  -14.8936   20.9583 C   0  0  0  0  0  0  0  0  0  0  0  0
    8.7490  -15.9013   21.1700 O   0  0  0  0  0  0  0  0  0  0  0  0
   18.0001  -18.3827   24.5301 N   0  0  0  0  0  0  0  0  0  0  0  0
   17.2187  -17.3382   23.9677 C   0  0  0  0  0  0  0  0  0  0  0  0
   17.7878  -16.3136   23.4681 N   0  0  0  0  0  0  0  0  0  0  0  0
   15.7954  -17.3894   23.9388 N   0  0  0  0  0  0  0  0  0  0  0  0
   14.9972  -16.4046   23.2530 C   0  0  0  0  0  0  0  0  0  0  0  0
   13.5353  -16.7667   23.2217 C   0  0  0  0  0  0  0  0  0  0  0  0
   12.7753  -15.7335   22.4656 C   0  0  0  0  0  0  0  0  0  0  0  0
   11.2811  -15.9951   22.3772 C   0  0  2  0  0  0  0  0  0  0  0  0
   10.7337  -14.8741   21.6263 N   0  0  0  0  0  0  0  0  0  0  0  0
   10.6925  -15.9683   23.7276 C   0  0  0  0  0  0  0  0  0  0  0  0
   10.7022  -16.9459   24.5225 O   0  0  0  0  0  0  0  0  0  0  0  0
   10.0791  -14.8128   24.1916 O   0  0  0  0  0  0  0  0  0  0  0  0
  2  1  1  6
  3  4  1  0
  3  2  1  0
  4  5  1  0
  5  6  1  0
  7  6  1  0
  8  2  1  0
  9  8  2  0
 10  8  1  0
 11 10  1  0
 12 13  1  0
 12 11  1  0
 13 14  1  0
 14 10  1  0
 14 15  1  1
 15 16  2  0
 17 18  1  0
 18 19  2  0
 18 20  1  0
 20 21  1  0
 21 22  1  0
 22 23  1  0
 24 23  1  1
 25 15  1  0
 25 24  1  0
 26 24  1  0
 26 28  1  0
 27 26  2  0
M  END
$$$$
