KPR.pdb
     RDKit          3D

 28 28  0  0  1  0  0  0  0  0999 V2000
    8.7214  -18.0052   17.7447 N   0  0  0  0  0  0  0  0  0  0  0  0
    7.9390  -17.1078   18.5440 C   0  0  1  0  0  0  0  0  0  0  0  0
    7.0141  -17.8705   19.4867 C   0  0  0  0  0  0  0  0  0  0  0  0
    7.7730  -18.9746   20.1417 C   0  0  0  0  0  0  0  0  0  0  0  0
    6.8548  -19.7336   21.0638 C   0  0  0  0  0  0  0  0  0  0  0  0
    7.5516  -20.9012   21.6910 C   0  0  0  0  0  0  0  0  0  0  0  0
    6.6763  -21.6009   22.6379 N   0  0  0  0  0  0  0  0  0  0  0  0
    8.6873  -16.0852   19.2701 C   0  0  0  0  0  0  0  0  0  0  0  0
    9.8722  -16.4095   19.6282 O   0  0  0  0  0  0  0  0  0  0  0  0
    8.2406  -14.7855   19.6139 N   0  0  0  0  0  0  0  0  0  0  0  0
    6.9521  -14.2014   19.3099 C   0  0  0  0  0  0  0  0  0  0  0  0
    6.8721  -13.0375   20.2691 C   0  0  0  0  0  0  0  0  0  0  0  0
    8.3019  -12.5070   20.1877 C   0  0  0  0  0  0  0  0  0  0  0  0
    9.0573  -13.8125   20.3438 C   0  0  1  0  0  0  0  0  0  0  0  0
    9.2394  -14.2095   21.7515 C   0  0  0  0  0  0  0  0  0  0  0  0
   10.1239  -13.6111   22.4418 O   0  0  0  0  0  0  0  0  0  0  0  0
    8.4814  -20.1145   26.8101 N   0  0  0  0  0  0  0  0  0  0  0  0
    7.1002  -19.9109   27.0719 C   0  0  0  0  0  0  0  0  0  0  0  0
    6.5690  -20.4072   28.1184 N   0  0  0  0  0  0  0  0  0  0  0  0
    6.2664  -19.1595   26.1948 N   0  0  0  0  0  0  0  0  0  0  0  0
    6.7383  -18.6288   24.9406 C   0  0  0  0  0  0  0  0  0  0  0  0
    7.7036  -17.4869   25.1237 C   0  0  0  0  0  0  0  0  0  0  0  0
    7.4122  -16.4154   24.1318 C   0  0  0  0  0  0  0  0  0  0  0  0
    8.5905  -15.5050   23.8293 C   0  0  2  0  0  0  0  0  0  0  0  0
    8.5017  -15.2140   22.4053 N   0  0  0  0  0  0  0  0  0  0  0  0
    9.8509  -16.2300   24.0672 C   0  0  0  0  0  0  0  0  0  0  0  0
   10.4505  -16.9110   23.1929 O   0  0  0  0  0  0  0  0  0  0  0  0
   10.4481  -16.1858   25.3194 O   0  0  0  0  0  0  0  0  0  0  0  0
  2  1  1  1
  3  4  1  0
  3  2  1  0
  4  5  1  0
  5  6  1  0
  7  6  1  0
  8  2  1  0
  9  8  2  0
 10  8  1  0
 11 10  1  0
 12 13  1  0
 12 11  1  0
 13 14  1  0
 14 10  1  0
 14 15  1  1
 15 16  2  0
 17 18  1  0
 18 19  2  0
 18 20  1  0
 20 21  1  0
 21 22  1  0
 22 23  1  0
 24 23  1  6
 25 15  1  0
 25 24  1  0
 26 24  1  0
 26 28  1  0
 27 26  2  0
M  END
$$$$
