KPR.pdb
     RDKit          3D

 28 28  0  0  1  0  0  0  0  0999 V2000
    8.6583  -14.8020   14.6302 N   0  0  0  0  0  0  0  0  0  0  0  0
    8.0304  -15.0202   15.9009 C   0  0  1  0  0  0  0  0  0  0  0  0
    7.6425  -16.4840   16.0819 C   0  0  0  0  0  0  0  0  0  0  0  0
    8.8730  -17.3264   16.0915 C   0  0  0  0  0  0  0  0  0  0  0  0
    8.4869  -18.7730   16.2583 C   0  0  0  0  0  0  0  0  0  0  0  0
    9.6889  -19.6659   16.2421 C   0  0  0  0  0  0  0  0  0  0  0  0
    9.3095  -21.0760   16.3837 N   0  0  0  0  0  0  0  0  0  0  0  0
    8.7647  -14.5328   17.0655 C   0  0  0  0  0  0  0  0  0  0  0  0
   10.0404  -14.5476   16.9673 O   0  0  0  0  0  0  0  0  0  0  0  0
    8.2149  -14.0503   18.2788 N   0  0  0  0  0  0  0  0  0  0  0  0
    6.8117  -13.9569   18.6198 C   0  0  0  0  0  0  0  0  0  0  0  0
    6.8364  -13.8170   20.1234 C   0  0  0  0  0  0  0  0  0  0  0  0
    8.0167  -12.8639   20.2980 C   0  0  0  0  0  0  0  0  0  0  0  0
    9.0224  -13.5504   19.3943 C   0  0  1  0  0  0  0  0  0  0  0  0
    9.7502  -14.6426   20.0651 C   0  0  0  0  0  0  0  0  0  0  0  0
    9.3335  -15.8341   19.9117 O   0  0  0  0  0  0  0  0  0  0  0  0
   15.9040  -16.5006   17.4233 N   0  0  0  0  0  0  0  0  0  0  0  0
   16.9372  -15.7919   18.0927 C   0  0  0  0  0  0  0  0  0  0  0  0
   18.1498  -16.1626   17.9678 N   0  0  0  0  0  0  0  0  0  0  0  0
   16.6686  -14.6604   18.9153 N   0  0  0  0  0  0  0  0  0  0  0  0
   15.3425  -14.1221   19.0857 C   0  0  0  0  0  0  0  0  0  0  0  0
   14.4408  -15.0445   19.8638 C   0  0  0  0  0  0  0  0  0  0  0  0
   13.0965  -14.4237   20.0196 C   0  0  0  0  0  0  0  0  0  0  0  0
   12.0959  -15.2791   20.7784 C   0  0  2  0  0  0  0  0  0  0  0  0
   10.8882  -14.4715   20.8752 N   0  0  0  0  0  0  0  0  0  0  0  0
   12.5893  -15.5246   22.1447 C   0  0  0  0  0  0  0  0  0  0  0  0
   13.4764  -16.3712   22.4345 O   0  0  0  0  0  0  0  0  0  0  0  0
   12.0702  -14.7989   23.2080 O   0  0  0  0  0  0  0  0  0  0  0  0
  2  1  1  6
  3  4  1  0
  3  2  1  0
  4  5  1  0
  5  6  1  0
  7  6  1  0
  8  2  1  0
  9  8  2  0
 10  8  1  0
 11 10  1  0
 12 13  1  0
 12 11  1  0
 13 14  1  0
 14 10  1  0
 14 15  1  1
 15 16  2  0
 17 18  1  0
 18 19  2  0
 18 20  1  0
 20 21  1  0
 21 22  1  0
 22 23  1  0
 24 23  1  6
 25 15  1  0
 25 24  1  0
 26 24  1  0
 26 28  1  0
 27 26  2  0
M  END
$$$$
