KPR.pdb
     RDKit          3D

 28 28  0  0  1  0  0  0  0  0999 V2000
    9.9696  -16.6198   16.4142 N   0  0  0  0  0  0  0  0  0  0  0  0
    8.8640  -16.0140   17.0979 C   0  0  1  0  0  0  0  0  0  0  0  0
    7.6691  -16.9593   17.1629 C   0  0  0  0  0  0  0  0  0  0  0  0
    8.1217  -18.3005   17.6323 C   0  0  0  0  0  0  0  0  0  0  0  0
    6.9309  -19.2152   17.7544 C   0  0  0  0  0  0  0  0  0  0  0  0
    7.3327  -20.5761   18.2327 C   0  0  0  0  0  0  0  0  0  0  0  0
    6.1764  -21.4746   18.3219 N   0  0  0  0  0  0  0  0  0  0  0  0
    9.1576  -15.4611   18.4174 C   0  0  0  0  0  0  0  0  0  0  0  0
   10.1393  -15.9953   19.0405 O   0  0  0  0  0  0  0  0  0  0  0  0
    8.4745  -14.4054   19.0701 N   0  0  0  0  0  0  0  0  0  0  0  0
    7.3492  -13.6525   18.5596 C   0  0  0  0  0  0  0  0  0  0  0  0
    6.7784  -13.0108   19.8019 C   0  0  0  0  0  0  0  0  0  0  0  0
    8.0614  -12.6057   20.5243 C   0  0  0  0  0  0  0  0  0  0  0  0
    8.8342  -13.9044   20.3990 C   0  0  1  0  0  0  0  0  0  0  0  0
    8.4988  -14.8797   21.4520 C   0  0  0  0  0  0  0  0  0  0  0  0
    7.3841  -15.4878   21.3838 O   0  0  0  0  0  0  0  0  0  0  0  0
   13.8115  -19.6303   26.7079 N   0  0  0  0  0  0  0  0  0  0  0  0
   12.5314  -19.7287   27.3157 C   0  0  0  0  0  0  0  0  0  0  0  0
   12.3416  -20.5450   28.2755 N   0  0  0  0  0  0  0  0  0  0  0  0
   11.4276  -18.9363   26.8878 N   0  0  0  0  0  0  0  0  0  0  0  0
   11.4979  -18.0600   25.7457 C   0  0  0  0  0  0  0  0  0  0  0  0
   10.1696  -17.4281   25.4206 C   0  0  0  0  0  0  0  0  0  0  0  0
   10.3046  -16.5585   24.2196 C   0  0  0  0  0  0  0  0  0  0  0  0
    8.9836  -16.1622   23.5819 C   0  0  2  0  0  0  0  0  0  0  0  0
    9.3257  -15.1986   22.5452 N   0  0  0  0  0  0  0  0  0  0  0  0
    8.1384  -15.4788   24.5765 C   0  0  0  0  0  0  0  0  0  0  0  0
    8.0724  -14.2274   24.7077 O   0  0  0  0  0  0  0  0  0  0  0  0
    7.3500  -16.2239   25.4426 O   0  0  0  0  0  0  0  0  0  0  0  0
  2  1  1  1
  3  4  1  0
  3  2  1  0
  4  5  1  0
  5  6  1  0
  7  6  1  0
  8  2  1  0
  9  8  2  0
 10  8  1  0
 11 10  1  0
 12 13  1  0
 12 11  1  0
 13 14  1  0
 14 10  1  0
 14 15  1  1
 15 16  2  0
 17 18  1  0
 18 19  2  0
 18 20  1  0
 20 21  1  0
 21 22  1  0
 22 23  1  0
 24 23  1  1
 25 15  1  0
 25 24  1  0
 26 24  1  0
 26 28  1  0
 27 26  2  0
M  END
$$$$
