KPR.pdb
     RDKit          3D

 28 28  0  0  1  0  0  0  0  0999 V2000
    7.9961  -15.9394   15.9872 N   0  0  0  0  0  0  0  0  0  0  0  0
    8.1275  -16.6099   17.2481 C   0  0  1  0  0  0  0  0  0  0  0  0
    8.6717  -18.0232   17.0686 C   0  0  0  0  0  0  0  0  0  0  0  0
    8.8386  -18.3103   15.6147 C   0  0  0  0  0  0  0  0  0  0  0  0
    8.1340  -19.5980   15.2757 C   0  0  0  0  0  0  0  0  0  0  0  0
    8.3375  -19.9717   13.8400 C   0  0  0  0  0  0  0  0  0  0  0  0
    7.6022  -21.1939   13.4962 N   0  0  0  0  0  0  0  0  0  0  0  0
    8.8798  -15.8933   18.2745 C   0  0  0  0  0  0  0  0  0  0  0  0
    9.9042  -16.5010   18.7420 O   0  0  0  0  0  0  0  0  0  0  0  0
    8.5946  -14.6085   18.7989 N   0  0  0  0  0  0  0  0  0  0  0  0
    7.5827  -13.6852   18.3326 C   0  0  0  0  0  0  0  0  0  0  0  0
    7.4341  -12.7299   19.4929 C   0  0  0  0  0  0  0  0  0  0  0  0
    8.8950  -12.5551   19.9022 C   0  0  0  0  0  0  0  0  0  0  0  0
    9.3202  -14.0104   19.9224 C   0  0  1  0  0  0  0  0  0  0  0  0
    9.0011  -14.6877   21.1921 C   0  0  0  0  0  0  0  0  0  0  0  0
    7.7792  -14.8756   21.4898 O   0  0  0  0  0  0  0  0  0  0  0  0
    5.0573  -21.0157   23.0635 N   0  0  0  0  0  0  0  0  0  0  0  0
    6.4408  -21.1112   23.3712 C   0  0  0  0  0  0  0  0  0  0  0  0
    7.0621  -22.2078   23.1839 N   0  0  0  0  0  0  0  0  0  0  0  0
    7.1781  -20.0092   23.8918 N   0  0  0  0  0  0  0  0  0  0  0  0
    8.4121  -19.5534   23.3029 C   0  0  0  0  0  0  0  0  0  0  0  0
    8.8940  -18.2583   23.9027 C   0  0  0  0  0  0  0  0  0  0  0  0
    9.1729  -17.2739   22.8210 C   0  0  0  0  0  0  0  0  0  0  0  0
    9.6347  -15.9136   23.3162 C   0  0  2  0  0  0  0  0  0  0  0  0
    9.9546  -15.1513   22.1175 N   0  0  0  0  0  0  0  0  0  0  0  0
   10.8718  -16.0659   24.1017 C   0  0  0  0  0  0  0  0  0  0  0  0
   12.0314  -15.9310   23.6274 O   0  0  0  0  0  0  0  0  0  0  0  0
   10.7993  -16.3773   25.4524 O   0  0  0  0  0  0  0  0  0  0  0  0
  2  1  1  6
  3  4  1  0
  3  2  1  0
  4  5  1  0
  5  6  1  0
  7  6  1  0
  8  2  1  0
  9  8  2  0
 10  8  1  0
 11 10  1  0
 12 13  1  0
 12 11  1  0
 13 14  1  0
 14 10  1  0
 14 15  1  1
 15 16  2  0
 17 18  1  0
 18 19  2  0
 18 20  1  0
 20 21  1  0
 21 22  1  0
 22 23  1  0
 24 23  1  6
 25 15  1  0
 25 24  1  0
 26 24  1  0
 26 28  1  0
 27 26  2  0
M  END
$$$$
