KPR.pdb
     RDKit          3D

 28 28  0  0  1  0  0  0  0  0999 V2000
    6.3857  -19.4187   25.7173 N   0  0  0  0  0  0  0  0  0  0  0  0
    7.0868  -18.1733   25.8360 C   0  0  1  0  0  0  0  0  0  0  0  0
    8.4915  -18.3806   26.3924 C   0  0  0  0  0  0  0  0  0  0  0  0
    8.4018  -18.8657   27.7997 C   0  0  0  0  0  0  0  0  0  0  0  0
    9.7870  -18.9623   28.3842 C   0  0  0  0  0  0  0  0  0  0  0  0
    9.7459  -19.3639   29.8261 C   0  0  0  0  0  0  0  0  0  0  0  0
   11.0935  -19.6098   30.3514 N   0  0  0  0  0  0  0  0  0  0  0  0
    7.1249  -17.3473   24.6321 C   0  0  0  0  0  0  0  0  0  0  0  0
    6.9543  -17.9661   23.5251 O   0  0  0  0  0  0  0  0  0  0  0  0
    7.3284  -15.9469   24.5657 N   0  0  0  0  0  0  0  0  0  0  0  0
    7.2796  -15.0091   25.6666 C   0  0  0  0  0  0  0  0  0  0  0  0
    7.9911  -13.7976   25.1125 C   0  0  0  0  0  0  0  0  0  0  0  0
    7.4305  -13.7673   23.6922 C   0  0  0  0  0  0  0  0  0  0  0  0
    7.6173  -15.2262   23.3233 C   0  0  1  0  0  0  0  0  0  0  0  0
    8.9723  -15.5276   22.8277 C   0  0  0  0  0  0  0  0  0  0  0  0
    9.9097  -15.6751   23.6742 O   0  0  0  0  0  0  0  0  0  0  0  0
    7.5869  -14.8617   15.5236 N   0  0  0  0  0  0  0  0  0  0  0  0
    8.5733  -13.8860   15.8286 C   0  0  0  0  0  0  0  0  0  0  0  0
    8.4205  -12.6816   15.4419 N   0  0  0  0  0  0  0  0  0  0  0  0
    9.7510  -14.2046   16.5638 N   0  0  0  0  0  0  0  0  0  0  0  0
    9.8874  -15.4236   17.3207 C   0  0  0  0  0  0  0  0  0  0  0  0
   10.1813  -15.1694   18.7761 C   0  0  0  0  0  0  0  0  0  0  0  0
   10.3474  -16.4647   19.4913 C   0  0  0  0  0  0  0  0  0  0  0  0
   10.5246  -16.3316   20.9946 C   0  0  2  0  0  0  0  0  0  0  0  0
    9.3193  -15.6678   21.4711 N   0  0  0  0  0  0  0  0  0  0  0  0
   11.6714  -15.4528   21.2826 C   0  0  0  0  0  0  0  0  0  0  0  0
   11.5670  -14.2564   21.6640 O   0  0  0  0  0  0  0  0  0  0  0  0
   12.9651  -15.9344   21.1372 O   0  0  0  0  0  0  0  0  0  0  0  0
  2  1  1  6
  3  4  1  0
  3  2  1  0
  4  5  1  0
  5  6  1  0
  7  6  1  0
  8  2  1  0
  9  8  2  0
 10  8  1  0
 11 10  1  0
 12 13  1  0
 12 11  1  0
 13 14  1  0
 14 10  1  0
 14 15  1  1
 15 16  2  0
 17 18  1  0
 18 19  2  0
 18 20  1  0
 20 21  1  0
 21 22  1  0
 22 23  1  0
 24 23  1  6
 25 15  1  0
 25 24  1  0
 26 24  1  0
 26 28  1  0
 27 26  2  0
M  END
$$$$
