KPR.pdb
     RDKit          3D

 28 28  0  0  1  0  0  0  0  0999 V2000
    8.3976  -16.2793   15.4898 N   0  0  0  0  0  0  0  0  0  0  0  0
    7.7829  -15.8892   16.7253 C   0  0  1  0  0  0  0  0  0  0  0  0
    7.0445  -17.0582   17.3688 C   0  0  0  0  0  0  0  0  0  0  0  0
    7.9657  -18.2255   17.4826 C   0  0  0  0  0  0  0  0  0  0  0  0
    7.2991  -19.3116   18.2860 C   0  0  0  0  0  0  0  0  0  0  0  0
    7.4438  -20.6479   17.6261 C   0  0  0  0  0  0  0  0  0  0  0  0
    8.1767  -21.5894   18.4799 N   0  0  0  0  0  0  0  0  0  0  0  0
    8.6595  -15.2361   17.6938 C   0  0  0  0  0  0  0  0  0  0  0  0
    9.9129  -15.4433   17.5406 O   0  0  0  0  0  0  0  0  0  0  0  0
    8.2683  -14.4057   18.7730 N   0  0  0  0  0  0  0  0  0  0  0  0
    6.9183  -14.0316   19.1357 C   0  0  0  0  0  0  0  0  0  0  0  0
    7.0712  -13.5450   20.5572 C   0  0  0  0  0  0  0  0  0  0  0  0
    8.3761  -12.7594   20.4469 C   0  0  0  0  0  0  0  0  0  0  0  0
    9.2140  -13.7788   19.6997 C   0  0  1  0  0  0  0  0  0  0  0  0
    9.8392  -14.7750   20.5880 C   0  0  0  0  0  0  0  0  0  0  0  0
    9.1591  -15.7925   20.9333 O   0  0  0  0  0  0  0  0  0  0  0  0
   16.2090  -16.7898   25.2738 N   0  0  0  0  0  0  0  0  0  0  0  0
   17.0691  -16.7567   24.1438 C   0  0  0  0  0  0  0  0  0  0  0  0
   18.3234  -16.5970   24.3008 N   0  0  0  0  0  0  0  0  0  0  0  0
   16.5774  -16.8974   22.8142 N   0  0  0  0  0  0  0  0  0  0  0  0
   15.6520  -15.9621   22.2260 C   0  0  0  0  0  0  0  0  0  0  0  0
   14.2168  -16.3892   22.3909 C   0  0  0  0  0  0  0  0  0  0  0  0
   13.3194  -15.4195   21.7045 C   0  0  0  0  0  0  0  0  0  0  0  0
   11.8448  -15.7811   21.7635 C   0  0  2  0  0  0  0  0  0  0  0  0
   11.1497  -14.6908   21.0939 N   0  0  0  0  0  0  0  0  0  0  0  0
   11.3976  -15.8112   23.1669 C   0  0  0  0  0  0  0  0  0  0  0  0
   11.6176  -16.7665   23.9586 O   0  0  0  0  0  0  0  0  0  0  0  0
   10.6862  -14.7398   23.6890 O   0  0  0  0  0  0  0  0  0  0  0  0
  2  1  1  6
  3  4  1  0
  3  2  1  0
  4  5  1  0
  5  6  1  0
  7  6  1  0
  8  2  1  0
  9  8  2  0
 10  8  1  0
 11 10  1  0
 12 13  1  0
 12 11  1  0
 13 14  1  0
 14 10  1  0
 14 15  1  1
 15 16  2  0
 17 18  1  0
 18 19  2  0
 18 20  1  0
 20 21  1  0
 21 22  1  0
 22 23  1  0
 24 23  1  1
 25 15  1  0
 25 24  1  0
 26 24  1  0
 26 28  1  0
 27 26  2  0
M  END
$$$$
