KPR.pdb
     RDKit          3D

 28 28  0  0  1  0  0  0  0  0999 V2000
    9.4740  -16.4102   15.9035 N   0  0  0  0  0  0  0  0  0  0  0  0
    8.4861  -15.8869   16.8018 C   0  0  1  0  0  0  0  0  0  0  0  0
    7.3099  -16.8462   16.9498 C   0  0  0  0  0  0  0  0  0  0  0  0
    7.8090  -18.1792   17.3947 C   0  0  0  0  0  0  0  0  0  0  0  0
    6.6371  -19.0836   17.6744 C   0  0  0  0  0  0  0  0  0  0  0  0
    7.0848  -20.4161   18.1905 C   0  0  0  0  0  0  0  0  0  0  0  0
    6.2864  -20.8374   19.3470 N   0  0  0  0  0  0  0  0  0  0  0  0
    8.9765  -15.4651   18.1112 C   0  0  0  0  0  0  0  0  0  0  0  0
    9.9978  -16.0959   18.5544 O   0  0  0  0  0  0  0  0  0  0  0  0
    8.4433  -14.4402   18.9312 N   0  0  0  0  0  0  0  0  0  0  0  0
    7.3405  -13.5590   18.6129 C   0  0  0  0  0  0  0  0  0  0  0  0
    6.9390  -13.0161   19.9639 C   0  0  0  0  0  0  0  0  0  0  0  0
    8.3111  -12.7829   20.5925 C   0  0  0  0  0  0  0  0  0  0  0  0
    8.9619  -14.1119   20.2614 C   0  0  1  0  0  0  0  0  0  0  0  0
    8.6463  -15.1688   21.2391 C   0  0  0  0  0  0  0  0  0  0  0  0
    7.7642  -16.0331   20.9357 O   0  0  0  0  0  0  0  0  0  0  0  0
   13.1570  -20.8363   19.3825 N   0  0  0  0  0  0  0  0  0  0  0  0
   13.7309  -20.7103   20.6758 C   0  0  0  0  0  0  0  0  0  0  0  0
   14.7552  -21.4001   20.9894 N   0  0  0  0  0  0  0  0  0  0  0  0
   13.1977  -19.8265   21.6576 N   0  0  0  0  0  0  0  0  0  0  0  0
   12.4802  -18.6251   21.3125 C   0  0  0  0  0  0  0  0  0  0  0  0
   11.9065  -17.9289   22.5189 C   0  0  0  0  0  0  0  0  0  0  0  0
   11.0400  -16.7985   22.0849 C   0  0  0  0  0  0  0  0  0  0  0  0
    9.8568  -16.5297   22.9995 C   0  0  2  0  0  0  0  0  0  0  0  0
    9.2519  -15.3020   22.5025 N   0  0  0  0  0  0  0  0  0  0  0  0
   10.3365  -16.2777   24.3696 C   0  0  0  0  0  0  0  0  0  0  0  0
   11.0961  -15.3243   24.6884 O   0  0  0  0  0  0  0  0  0  0  0  0
    9.9507  -17.1201   25.4031 O   0  0  0  0  0  0  0  0  0  0  0  0
  2  1  1  1
  3  4  1  0
  3  2  1  0
  4  5  1  0
  5  6  1  0
  7  6  1  0
  8  2  1  0
  9  8  2  0
 10  8  1  0
 11 10  1  0
 12 13  1  0
 12 11  1  0
 13 14  1  0
 14 10  1  0
 14 15  1  1
 15 16  2  0
 17 18  1  0
 18 19  2  0
 18 20  1  0
 20 21  1  0
 21 22  1  0
 22 23  1  0
 24 23  1  6
 25 15  1  0
 25 24  1  0
 26 24  1  0
 26 28  1  0
 27 26  2  0
M  END
$$$$
