KPR.pdb
     RDKit          3D

 28 28  0  0  1  0  0  0  0  0999 V2000
    9.7586  -15.9190   15.5506 N   0  0  0  0  0  0  0  0  0  0  0  0
    8.7708  -15.3553   16.4242 C   0  0  1  0  0  0  0  0  0  0  0  0
    7.5287  -16.2372   16.4964 C   0  0  0  0  0  0  0  0  0  0  0  0
    7.8466  -17.4819   17.2538 C   0  0  0  0  0  0  0  0  0  0  0  0
    7.9269  -18.6424   16.2966 C   0  0  0  0  0  0  0  0  0  0  0  0
    8.2087  -19.9259   17.0147 C   0  0  0  0  0  0  0  0  0  0  0  0
    8.4731  -21.0189   16.0725 N   0  0  0  0  0  0  0  0  0  0  0  0
    9.2329  -15.0034   17.7642 C   0  0  0  0  0  0  0  0  0  0  0  0
   10.3155  -15.5679   18.1474 O   0  0  0  0  0  0  0  0  0  0  0  0
    8.6124  -14.1106   18.6724 N   0  0  0  0  0  0  0  0  0  0  0  0
    7.3841  -13.3745   18.4642 C   0  0  0  0  0  0  0  0  0  0  0  0
    6.9891  -12.9700   19.8647 C   0  0  0  0  0  0  0  0  0  0  0  0
    8.3500  -12.5845   20.4406 C   0  0  0  0  0  0  0  0  0  0  0  0
    9.1556  -13.7893   19.9946 C   0  0  1  0  0  0  0  0  0  0  0  0
    9.0418  -14.9334   20.9168 C   0  0  0  0  0  0  0  0  0  0  0  0
    7.9993  -15.6593   20.8583 O   0  0  0  0  0  0  0  0  0  0  0  0
   11.5984  -21.8183   20.0096 N   0  0  0  0  0  0  0  0  0  0  0  0
   12.7790  -21.0380   20.1318 C   0  0  0  0  0  0  0  0  0  0  0  0
   13.9123  -21.6088   20.2475 N   0  0  0  0  0  0  0  0  0  0  0  0
   12.7483  -19.6138   20.1309 N   0  0  0  0  0  0  0  0  0  0  0  0
   11.5173  -18.8641   20.1286 C   0  0  0  0  0  0  0  0  0  0  0  0
   11.4947  -17.7887   21.1832 C   0  0  0  0  0  0  0  0  0  0  0  0
   10.1203  -17.6568   21.7405 C   0  0  0  0  0  0  0  0  0  0  0  0
    9.9426  -16.4915   22.6993 C   0  0  2  0  0  0  0  0  0  0  0  0
   10.0092  -15.2943   21.8731 N   0  0  0  0  0  0  0  0  0  0  0  0
   11.0700  -16.4530   23.6469 C   0  0  0  0  0  0  0  0  0  0  0  0
   11.9858  -15.5880   23.6212 O   0  0  0  0  0  0  0  0  0  0  0  0
   11.1664  -17.4118   24.6460 O   0  0  0  0  0  0  0  0  0  0  0  0
  2  1  1  1
  3  4  1  0
  3  2  1  0
  4  5  1  0
  5  6  1  0
  7  6  1  0
  8  2  1  0
  9  8  2  0
 10  8  1  0
 11 10  1  0
 12 13  1  0
 12 11  1  0
 13 14  1  0
 14 10  1  0
 14 15  1  1
 15 16  2  0
 17 18  1  0
 18 19  2  0
 18 20  1  0
 20 21  1  0
 21 22  1  0
 22 23  1  0
 24 23  1  6
 25 15  1  0
 25 24  1  0
 26 24  1  0
 26 28  1  0
 27 26  2  0
M  END
$$$$
