VPI.pdb
     RDKit          3D

 23 23  0  0  1  0  0  0  0  0999 V2000
   10.7599  -19.0997   22.2285 C   0  0  0  0  0  0  0  0  0  0  0  0
   10.0127  -18.8066   20.9405 C   0  0  2  0  0  0  0  0  0  0  0  0
   10.3978  -19.8835   19.9332 C   0  0  0  0  0  0  0  0  0  0  0  0
   10.5429  -17.4764   20.3957 C   0  0  2  0  0  0  0  0  0  0  0  0
   11.9885  -17.6450   20.3694 N   0  0  0  0  0  0  0  0  0  0  0  0
   10.1523  -16.3342   21.2607 C   0  0  0  0  0  0  0  0  0  0  0  0
   11.0004  -15.8646   22.0567 O   0  0  0  0  0  0  0  0  0  0  0  0
    8.8617  -15.7490   21.2257 N   0  0  0  0  0  0  0  0  0  0  0  0
    7.8729  -16.1084   20.2038 C   0  0  0  0  0  0  0  0  0  0  0  0
    7.1901  -14.7575   19.9784 C   0  0  0  0  0  0  0  0  0  0  0  0
    6.9598  -14.3540   21.4395 C   0  0  0  0  0  0  0  0  0  0  0  0
    8.2409  -14.7667   22.0819 C   0  0  1  0  0  0  0  0  0  0  0  0
    8.1421  -15.1798   23.4845 C   0  0  0  0  0  0  0  0  0  0  0  0
    8.1781  -16.4431   23.7240 O   0  0  0  0  0  0  0  0  0  0  0  0
    5.8128  -11.8731   27.4866 C   0  0  0  0  0  0  0  0  0  0  0  0
    6.1962  -12.8361   26.3642 C   0  0  0  0  0  0  0  0  0  0  0  0
    7.5008  -13.4667   26.7574 C   0  0  2  0  0  0  0  0  0  0  0  0
    8.6578  -12.5072   26.6350 C   0  0  0  0  0  0  0  0  0  0  0  0
    7.8236  -14.7044   25.9570 C   0  0  2  0  0  0  0  0  0  0  0  0
    8.0125  -14.3194   24.5699 N   0  0  0  0  0  0  0  0  0  0  0  0
    6.8491  -15.7927   26.0998 C   0  0  0  0  0  0  0  0  0  0  0  0
    5.9255  -15.9700   25.0309 O   0  0  0  0  0  0  0  0  0  0  0  0
    6.7457  -16.5783   27.0616 O   0  0  0  0  0  0  0  0  0  0  0  0
  2  1  1  1
  2  3  1  0
  4  2  1  0
  4  5  1  1
  6  4  1  0
  6  8  1  0
  7  6  2  0
  8 12  1  0
  9  8  1  0
 10  9  1  0
 10 11  1  0
 12 11  1  0
 13 20  1  0
 12 13  1  1
 14 13  2  0
 16 15  1  0
 17 16  1  0
 17 18  1  6
 19 17  1  0
 19 20  1  6
 21 22  1  0
 21 19  1  0
 23 21  2  0
M  END
$$$$
