VPI.pdb
     RDKit          3D

 23 23  0  0  1  0  0  0  0  0999 V2000
    7.2737  -13.0376   18.8310 C   0  0  0  0  0  0  0  0  0  0  0  0
    7.3882  -13.4203   20.2951 C   0  0  2  0  0  0  0  0  0  0  0  0
    8.6539  -12.7694   20.8402 C   0  0  0  0  0  0  0  0  0  0  0  0
    7.6040  -14.9358   20.3570 C   0  0  2  0  0  0  0  0  0  0  0  0
    6.4274  -15.4971   19.7093 N   0  0  0  0  0  0  0  0  0  0  0  0
    7.7255  -15.4162   21.7568 C   0  0  0  0  0  0  0  0  0  0  0  0
    6.8199  -15.1240   22.5741 O   0  0  0  0  0  0  0  0  0  0  0  0
    8.8207  -16.1931   22.2112 N   0  0  0  0  0  0  0  0  0  0  0  0
    9.8505  -16.6951   21.2952 C   0  0  0  0  0  0  0  0  0  0  0  0
   10.1576  -18.0545   21.9272 C   0  0  0  0  0  0  0  0  0  0  0  0
   10.3020  -17.6165   23.3894 C   0  0  0  0  0  0  0  0  0  0  0  0
    9.1823  -16.6421   23.5344 C   0  0  1  0  0  0  0  0  0  0  0  0
    9.4093  -15.5537   24.4891 C   0  0  0  0  0  0  0  0  0  0  0  0
   10.2005  -14.6094   24.1191 O   0  0  0  0  0  0  0  0  0  0  0  0
    6.0557  -12.4442   26.5485 C   0  0  0  0  0  0  0  0  0  0  0  0
    7.2979  -13.1517   26.0098 C   0  0  0  0  0  0  0  0  0  0  0  0
    8.0247  -13.7194   27.1946 C   0  0  2  0  0  0  0  0  0  0  0  0
    8.4699  -12.6478   28.1577 C   0  0  0  0  0  0  0  0  0  0  0  0
    9.2293  -14.5424   26.8098 C   0  0  2  0  0  0  0  0  0  0  0  0
    8.8410  -15.4620   25.7555 N   0  0  0  0  0  0  0  0  0  0  0  0
    9.8790  -15.2314   27.9312 C   0  0  0  0  0  0  0  0  0  0  0  0
   10.9164  -14.5245   28.6030 O   0  0  0  0  0  0  0  0  0  0  0  0
    9.6170  -16.3731   28.3563 O   0  0  0  0  0  0  0  0  0  0  0  0
  2  1  1  6
  2  3  1  0
  4  2  1  0
  4  5  1  1
  6  4  1  0
  6  8  1  0
  7  6  2  0
  8 12  1  0
  9  8  1  0
 10  9  1  0
 10 11  1  0
 12 11  1  0
 13 20  1  0
 12 13  1  1
 14 13  2  0
 16 15  1  0
 17 16  1  0
 17 18  1  1
 19 17  1  0
 19 20  1  6
 21 22  1  0
 21 19  1  0
 23 21  2  0
M  END
$$$$
