VPI.pdb
     RDKit          3D

 23 23  0  0  1  0  0  0  0  0999 V2000
   10.7028  -13.5168   18.0345 C   0  0  0  0  0  0  0  0  0  0  0  0
   10.0845  -13.6088   19.4174 C   0  0  2  0  0  0  0  0  0  0  0  0
   10.7481  -14.7762   20.1383 C   0  0  0  0  0  0  0  0  0  0  0  0
    8.6086  -13.9778   19.2358 C   0  0  2  0  0  0  0  0  0  0  0  0
    8.0262  -12.8255   18.5636 N   0  0  0  0  0  0  0  0  0  0  0  0
    7.9421  -14.2319   20.5383 C   0  0  0  0  0  0  0  0  0  0  0  0
    7.6249  -13.2513   21.2534 O   0  0  0  0  0  0  0  0  0  0  0  0
    7.6464  -15.5356   21.0096 N   0  0  0  0  0  0  0  0  0  0  0  0
    7.9357  -16.7337   20.2146 C   0  0  0  0  0  0  0  0  0  0  0  0
    6.7426  -17.6177   20.5842 C   0  0  0  0  0  0  0  0  0  0  0  0
    6.7730  -17.4438   22.1073 C   0  0  0  0  0  0  0  0  0  0  0  0
    7.0590  -15.9869   22.2485 C   0  0  1  0  0  0  0  0  0  0  0  0
    7.8202  -15.6034   23.4406 C   0  0  0  0  0  0  0  0  0  0  0  0
    9.1009  -15.7008   23.3707 O   0  0  0  0  0  0  0  0  0  0  0  0
    5.7024  -12.2018   27.4537 C   0  0  0  0  0  0  0  0  0  0  0  0
    6.0390  -13.5430   26.8042 C   0  0  0  0  0  0  0  0  0  0  0  0
    7.4600  -13.4524   26.3279 C   0  0  2  0  0  0  0  0  0  0  0  0
    7.6311  -12.4265   25.2359 C   0  0  0  0  0  0  0  0  0  0  0  0
    8.0016  -14.7700   25.8308 C   0  0  2  0  0  0  0  0  0  0  0  0
    7.2708  -15.1459   24.6339 N   0  0  0  0  0  0  0  0  0  0  0  0
    8.0080  -15.8423   26.8330 C   0  0  0  0  0  0  0  0  0  0  0  0
    8.9405  -15.7150   27.9014 O   0  0  0  0  0  0  0  0  0  0  0  0
    7.2815  -16.8546   26.8451 O   0  0  0  0  0  0  0  0  0  0  0  0
  2  1  1  6
  2  3  1  0
  4  2  1  0
  4  5  1  1
  6  4  1  0
  6  8  1  0
  7  6  2  0
  8 12  1  0
  9  8  1  0
 10  9  1  0
 10 11  1  0
 12 11  1  0
 13 20  1  0
 12 13  1  1
 14 13  2  0
 16 15  1  0
 17 16  1  0
 17 18  1  6
 19 17  1  0
 19 20  1  6
 21 22  1  0
 21 19  1  0
 23 21  2  0
M  END
$$$$
