VPI.pdb
     RDKit          3D

 23 23  0  0  1  0  0  0  0  0999 V2000
    8.0878  -19.2174   22.1250 C   0  0  0  0  0  0  0  0  0  0  0  0
    7.6487  -18.4557   20.8880 C   0  0  2  0  0  0  0  0  0  0  0  0
    7.3816  -19.4797   19.7912 C   0  0  0  0  0  0  0  0  0  0  0  0
    8.8380  -17.6075   20.4260 C   0  0  2  0  0  0  0  0  0  0  0  0
    9.9613  -18.5333   20.4132 N   0  0  0  0  0  0  0  0  0  0  0  0
    9.0915  -16.4701   21.3464 C   0  0  0  0  0  0  0  0  0  0  0  0
    9.9698  -16.5975   22.2330 O   0  0  0  0  0  0  0  0  0  0  0  0
    8.3849  -15.2438   21.2667 N   0  0  0  0  0  0  0  0  0  0  0  0
    7.5063  -14.9253   20.1363 C   0  0  0  0  0  0  0  0  0  0  0  0
    7.7543  -13.4218   19.9957 C   0  0  0  0  0  0  0  0  0  0  0  0
    7.6151  -13.0131   21.4669 C   0  0  0  0  0  0  0  0  0  0  0  0
    8.3365  -14.1156   22.1657 C   0  0  1  0  0  0  0  0  0  0  0  0
    7.8438  -14.4454   23.5059 C   0  0  0  0  0  0  0  0  0  0  0  0
    6.9339  -15.3512   23.5858 O   0  0  0  0  0  0  0  0  0  0  0  0
    9.5023  -14.0175   29.3598 C   0  0  0  0  0  0  0  0  0  0  0  0
    8.2963  -14.1868   28.4374 C   0  0  0  0  0  0  0  0  0  0  0  0
    8.7961  -14.0219   27.0313 C   0  0  2  0  0  0  0  0  0  0  0  0
    9.5924  -12.7535   26.8542 C   0  0  0  0  0  0  0  0  0  0  0  0
    7.6896  -14.0351   26.0056 C   0  0  2  0  0  0  0  0  0  0  0  0
    8.2790  -13.8599   24.6903 N   0  0  0  0  0  0  0  0  0  0  0  0
    6.6122  -13.0715   26.2603 C   0  0  0  0  0  0  0  0  0  0  0  0
    5.5947  -13.4741   27.1712 O   0  0  0  0  0  0  0  0  0  0  0  0
    6.4950  -11.9361   25.7602 O   0  0  0  0  0  0  0  0  0  0  0  0
  2  1  1  1
  2  3  1  0
  4  2  1  0
  4  5  1  1
  6  4  1  0
  6  8  1  0
  7  6  2  0
  8 12  1  0
  9  8  1  0
 10  9  1  0
 10 11  1  0
 12 11  1  0
 13 20  1  0
 12 13  1  1
 14 13  2  0
 16 15  1  0
 17 16  1  0
 17 18  1  1
 19 17  1  0
 19 20  1  6
 21 22  1  0
 21 19  1  0
 23 21  2  0
M  END
$$$$
