VPI.pdb
     RDKit          3D

 23 23  0  0  1  0  0  0  0  0999 V2000
    6.2759  -20.7113   23.4768 C   0  0  0  0  0  0  0  0  0  0  0  0
    7.1455  -19.4794   23.6478 C   0  0  2  0  0  0  0  0  0  0  0  0
    6.3889  -18.5064   24.5443 C   0  0  0  0  0  0  0  0  0  0  0  0
    7.2720  -18.8135   22.2738 C   0  0  2  0  0  0  0  0  0  0  0  0
    7.8012  -19.8593   21.4106 N   0  0  0  0  0  0  0  0  0  0  0  0
    8.1817  -17.6404   22.3141 C   0  0  0  0  0  0  0  0  0  0  0  0
    9.3910  -17.8259   22.5910 O   0  0  0  0  0  0  0  0  0  0  0  0
    7.7438  -16.3181   22.0514 N   0  0  0  0  0  0  0  0  0  0  0  0
    6.3745  -16.0251   21.6150 C   0  0  0  0  0  0  0  0  0  0  0  0
    6.6239  -14.8641   20.6498 C   0  0  0  0  0  0  0  0  0  0  0  0
    7.5568  -14.0170   21.5232 C   0  0  0  0  0  0  0  0  0  0  0  0
    8.4357  -15.0542   22.1365 C   0  0  1  0  0  0  0  0  0  0  0  0
    8.9421  -14.7438   23.4762 C   0  0  0  0  0  0  0  0  0  0  0  0
    9.8922  -13.8803   23.5547 O   0  0  0  0  0  0  0  0  0  0  0  0
    5.9480  -12.3108   25.9992 C   0  0  0  0  0  0  0  0  0  0  0  0
    7.1595  -13.0367   25.4168 C   0  0  0  0  0  0  0  0  0  0  0  0
    7.6648  -13.9661   26.4822 C   0  0  2  0  0  0  0  0  0  0  0  0
    8.1324  -13.2257   27.7099 C   0  0  0  0  0  0  0  0  0  0  0  0
    8.7877  -14.8547   26.0070 C   0  0  2  0  0  0  0  0  0  0  0  0
    8.4799  -15.3060   24.6618 N   0  0  0  0  0  0  0  0  0  0  0  0
    9.1014  -15.9721   26.9055 C   0  0  0  0  0  0  0  0  0  0  0  0
    8.7923  -17.2795   26.4342 O   0  0  0  0  0  0  0  0  0  0  0  0
    9.6103  -15.8947   28.0404 O   0  0  0  0  0  0  0  0  0  0  0  0
  2  1  1  6
  2  3  1  0
  4  2  1  0
  4  5  1  6
  6  4  1  0
  6  8  1  0
  7  6  2  0
  8 12  1  0
  9  8  1  0
 10  9  1  0
 10 11  1  0
 12 11  1  0
 13 20  1  0
 12 13  1  1
 14 13  2  0
 16 15  1  0
 17 16  1  0
 17 18  1  1
 19 17  1  0
 19 20  1  6
 21 22  1  0
 21 19  1  0
 23 21  2  0
M  END
$$$$
