VPI.pdb
     RDKit          3D

 23 23  0  0  1  0  0  0  0  0999 V2000
   11.1864  -18.9554   22.3993 C   0  0  0  0  0  0  0  0  0  0  0  0
   10.3561  -18.8582   21.1327 C   0  0  2  0  0  0  0  0  0  0  0  0
   10.8327  -19.9552   20.1882 C   0  0  0  0  0  0  0  0  0  0  0  0
   10.6912  -17.5198   20.4668 C   0  0  2  0  0  0  0  0  0  0  0  0
   12.1452  -17.5018   20.3988 N   0  0  0  0  0  0  0  0  0  0  0  0
   10.1774  -16.3707   21.2547 C   0  0  0  0  0  0  0  0  0  0  0  0
   10.9591  -15.7811   22.0388 O   0  0  0  0  0  0  0  0  0  0  0  0
    8.8407  -15.9087   21.1590 N   0  0  0  0  0  0  0  0  0  0  0  0
    7.9087  -16.4291   20.1531 C   0  0  0  0  0  0  0  0  0  0  0  0
    7.1129  -15.1653   19.8192 C   0  0  0  0  0  0  0  0  0  0  0  0
    6.8180  -14.6796   21.2432 C   0  0  0  0  0  0  0  0  0  0  0  0
    8.1176  -14.9272   21.9318 C   0  0  1  0  0  0  0  0  0  0  0  0
    8.0276  -15.2449   23.3596 C   0  0  0  0  0  0  0  0  0  0  0  0
    8.1967  -16.4753   23.6947 O   0  0  0  0  0  0  0  0  0  0  0  0
    5.7171  -11.7715   27.3245 C   0  0  0  0  0  0  0  0  0  0  0  0
    6.0840  -12.7153   26.1806 C   0  0  0  0  0  0  0  0  0  0  0  0
    7.4106  -13.3266   26.5281 C   0  0  2  0  0  0  0  0  0  0  0  0
    8.5588  -12.3850   26.2649 C   0  0  0  0  0  0  0  0  0  0  0  0
    7.6768  -14.6173   25.7935 C   0  0  2  0  0  0  0  0  0  0  0  0
    7.7749  -14.3274   24.3742 N   0  0  0  0  0  0  0  0  0  0  0  0
    6.7112  -15.6868   26.0728 C   0  0  0  0  0  0  0  0  0  0  0  0
    6.9002  -16.4220   27.2773 O   0  0  0  0  0  0  0  0  0  0  0  0
    5.7423  -16.0192   25.3632 O   0  0  0  0  0  0  0  0  0  0  0  0
  2  1  1  1
  2  3  1  0
  4  2  1  0
  4  5  1  1
  6  4  1  0
  6  8  1  0
  7  6  2  0
  8 12  1  0
  9  8  1  0
 10  9  1  0
 10 11  1  0
 12 11  1  0
 13 20  1  0
 12 13  1  1
 14 13  2  0
 16 15  1  0
 17 16  1  0
 17 18  1  6
 19 17  1  0
 19 20  1  6
 21 22  1  0
 21 19  1  0
 23 21  2  0
M  END
$$$$
