VPI.pdb
     RDKit          3D

 23 23  0  0  1  0  0  0  0  0999 V2000
    8.0948  -19.4545   24.3271 C   0  0  0  0  0  0  0  0  0  0  0  0
    6.8988  -19.0840   23.4695 C   0  0  2  0  0  0  0  0  0  0  0  0
    6.0968  -20.3575   23.2287 C   0  0  0  0  0  0  0  0  0  0  0  0
    7.4344  -18.6302   22.1077 C   0  0  2  0  0  0  0  0  0  0  0  0
    8.2435  -19.7483   21.6447 N   0  0  0  0  0  0  0  0  0  0  0  0
    8.2465  -17.3922   22.2222 C   0  0  0  0  0  0  0  0  0  0  0  0
    9.4693  -17.4965   22.4821 O   0  0  0  0  0  0  0  0  0  0  0  0
    7.7008  -16.0955   22.0490 N   0  0  0  0  0  0  0  0  0  0  0  0
    6.2861  -15.8848   21.7240 C   0  0  0  0  0  0  0  0  0  0  0  0
    6.3833  -14.6727   20.7949 C   0  0  0  0  0  0  0  0  0  0  0  0
    7.3179  -13.7952   21.6359 C   0  0  0  0  0  0  0  0  0  0  0  0
    8.3087  -14.7895   22.1396 C   0  0  1  0  0  0  0  0  0  0  0  0
    8.8901  -14.4953   23.4522 C   0  0  0  0  0  0  0  0  0  0  0  0
    9.5786  -13.4137   23.5556 O   0  0  0  0  0  0  0  0  0  0  0  0
    6.9817  -11.6005   25.7071 C   0  0  0  0  0  0  0  0  0  0  0  0
    8.0188  -12.6333   25.2694 C   0  0  0  0  0  0  0  0  0  0  0  0
    7.9573  -13.7599   26.2599 C   0  0  2  0  0  0  0  0  0  0  0  0
    8.1839  -13.2886   27.6744 C   0  0  0  0  0  0  0  0  0  0  0  0
    8.9438  -14.8623   25.9629 C   0  0  2  0  0  0  0  0  0  0  0  0
    8.7576  -15.2884   24.5874 N   0  0  0  0  0  0  0  0  0  0  0  0
    8.8969  -15.9901   26.9011 C   0  0  0  0  0  0  0  0  0  0  0  0
    9.9928  -16.1213   27.8004 O   0  0  0  0  0  0  0  0  0  0  0  0
    7.9962  -16.8465   26.9915 O   0  0  0  0  0  0  0  0  0  0  0  0
  2  1  1  1
  2  3  1  0
  4  2  1  0
  4  5  1  1
  6  4  1  0
  6  8  1  0
  7  6  2  0
  8 12  1  0
  9  8  1  0
 10  9  1  0
 10 11  1  0
 12 11  1  0
 13 20  1  0
 12 13  1  1
 14 13  2  0
 16 15  1  0
 17 16  1  0
 17 18  1  1
 19 17  1  0
 19 20  1  6
 21 22  1  0
 21 19  1  0
 23 21  2  0
M  END
$$$$
