VPI.pdb
     RDKit          3D

 23 23  0  0  1  0  0  0  0  0999 V2000
   11.8627  -19.6276   20.6362 C   0  0  0  0  0  0  0  0  0  0  0  0
   11.3071  -18.4942   21.4787 C   0  0  2  0  0  0  0  0  0  0  0  0
   10.0468  -19.0090   22.1638 C   0  0  0  0  0  0  0  0  0  0  0  0
   10.8707  -17.3818   20.5199 C   0  0  2  0  0  0  0  0  0  0  0  0
   12.0975  -16.9803   19.8469 N   0  0  0  0  0  0  0  0  0  0  0  0
   10.2594  -16.2398   21.2460 C   0  0  0  0  0  0  0  0  0  0  0  0
   11.0023  -15.4918   21.9258 O   0  0  0  0  0  0  0  0  0  0  0  0
    8.8712  -15.9558   21.2038 N   0  0  0  0  0  0  0  0  0  0  0  0
    7.9713  -16.6169   20.2529 C   0  0  0  0  0  0  0  0  0  0  0  0
    7.0048  -15.4747   19.9320 C   0  0  0  0  0  0  0  0  0  0  0  0
    6.7122  -14.9950   21.3585 C   0  0  0  0  0  0  0  0  0  0  0  0
    8.0618  -15.0561   21.9903 C   0  0  1  0  0  0  0  0  0  0  0  0
    8.0763  -15.3465   23.4266 C   0  0  0  0  0  0  0  0  0  0  0  0
    8.3869  -16.5448   23.7759 O   0  0  0  0  0  0  0  0  0  0  0  0
    5.6957  -11.8261   27.2749 C   0  0  0  0  0  0  0  0  0  0  0  0
    5.9768  -12.9867   26.3221 C   0  0  0  0  0  0  0  0  0  0  0  0
    7.3859  -13.4342   26.5837 C   0  0  2  0  0  0  0  0  0  0  0  0
    8.3974  -12.3782   26.2148 C   0  0  0  0  0  0  0  0  0  0  0  0
    7.7448  -14.7089   25.8607 C   0  0  2  0  0  0  0  0  0  0  0  0
    7.7821  -14.4348   24.4354 N   0  0  0  0  0  0  0  0  0  0  0  0
    6.8829  -15.8531   26.1802 C   0  0  0  0  0  0  0  0  0  0  0  0
    7.1810  -16.5655   27.3763 O   0  0  0  0  0  0  0  0  0  0  0  0
    5.9162  -16.2669   25.5114 O   0  0  0  0  0  0  0  0  0  0  0  0
  2  1  1  6
  2  3  1  0
  4  2  1  0
  4  5  1  1
  6  4  1  0
  6  8  1  0
  7  6  2  0
  8 12  1  0
  9  8  1  0
 10  9  1  0
 10 11  1  0
 12 11  1  0
 13 20  1  0
 12 13  1  1
 14 13  2  0
 16 15  1  0
 17 16  1  0
 17 18  1  6
 19 17  1  0
 19 20  1  6
 21 22  1  0
 21 19  1  0
 23 21  2  0
M  END
$$$$
