VPI.pdb
     RDKit          3D

 23 23  0  0  1  0  0  0  0  0999 V2000
    6.4014  -20.5239   23.4777 C   0  0  0  0  0  0  0  0  0  0  0  0
    7.2394  -19.2684   23.6342 C   0  0  2  0  0  0  0  0  0  0  0  0
    6.3805  -18.2314   24.3481 C   0  0  0  0  0  0  0  0  0  0  0  0
    7.5181  -18.7255   22.2289 C   0  0  2  0  0  0  0  0  0  0  0  0
    8.2014  -19.8153   21.5473 N   0  0  0  0  0  0  0  0  0  0  0  0
    8.3634  -17.5051   22.2696 C   0  0  0  0  0  0  0  0  0  0  0  0
    9.5741  -17.6216   22.5764 O   0  0  0  0  0  0  0  0  0  0  0  0
    7.8623  -16.2122   21.9751 N   0  0  0  0  0  0  0  0  0  0  0  0
    6.4565  -15.9850   21.6239 C   0  0  0  0  0  0  0  0  0  0  0  0
    6.5973  -14.8672   20.5883 C   0  0  0  0  0  0  0  0  0  0  0  0
    7.5587  -13.9480   21.3508 C   0  0  0  0  0  0  0  0  0  0  0  0
    8.5139  -14.9245   21.9493 C   0  0  1  0  0  0  0  0  0  0  0  0
    9.1013  -14.5308   23.2329 C   0  0  0  0  0  0  0  0  0  0  0  0
    9.9885  -13.5998   23.2069 O   0  0  0  0  0  0  0  0  0  0  0  0
    6.5326  -11.6620   27.0415 C   0  0  0  0  0  0  0  0  0  0  0  0
    7.7939  -12.5240   27.0421 C   0  0  0  0  0  0  0  0  0  0  0  0
    7.7384  -13.3789   25.8091 C   0  0  2  0  0  0  0  0  0  0  0  0
    6.4160  -14.0897   25.6670 C   0  0  0  0  0  0  0  0  0  0  0  0
    8.8396  -14.4089   25.7543 C   0  0  2  0  0  0  0  0  0  0  0  0
    8.7777  -15.0811   24.4689 N   0  0  0  0  0  0  0  0  0  0  0  0
    8.8413  -15.3581   26.8739 C   0  0  0  0  0  0  0  0  0  0  0  0
    8.4686  -16.6997   26.5769 O   0  0  0  0  0  0  0  0  0  0  0  0
    9.1346  -15.1106   28.0595 O   0  0  0  0  0  0  0  0  0  0  0  0
  2  1  1  6
  2  3  1  0
  4  2  1  0
  4  5  1  6
  6  4  1  0
  6  8  1  0
  7  6  2  0
  8 12  1  0
  9  8  1  0
 10  9  1  0
 10 11  1  0
 12 11  1  0
 13 20  1  0
 12 13  1  1
 14 13  2  0
 16 15  1  0
 17 16  1  0
 17 18  1  1
 19 17  1  0
 19 20  1  6
 21 22  1  0
 21 19  1  0
 23 21  2  0
M  END
$$$$
