VPI.pdb
     RDKit          3D

 23 23  0  0  1  0  0  0  0  0999 V2000
    7.3955  -12.7840   20.5651 C   0  0  0  0  0  0  0  0  0  0  0  0
    8.3165  -13.4813   19.5809 C   0  0  2  0  0  0  0  0  0  0  0  0
    7.9853  -12.9520   18.1907 C   0  0  0  0  0  0  0  0  0  0  0  0
    7.9537  -14.9698   19.5894 C   0  0  2  0  0  0  0  0  0  0  0  0
    6.6603  -15.0322   18.9242 N   0  0  0  0  0  0  0  0  0  0  0  0
    7.8719  -15.5069   20.9715 C   0  0  0  0  0  0  0  0  0  0  0  0
    6.8595  -15.2395   21.6622 O   0  0  0  0  0  0  0  0  0  0  0  0
    8.8882  -16.3113   21.5455 N   0  0  0  0  0  0  0  0  0  0  0  0
   10.0018  -16.8406   20.7512 C   0  0  0  0  0  0  0  0  0  0  0  0
   10.2003  -18.2069   21.4113 C   0  0  0  0  0  0  0  0  0  0  0  0
   10.1893  -17.7713   22.8813 C   0  0  0  0  0  0  0  0  0  0  0  0
    9.0858  -16.7682   22.9003 C   0  0  1  0  0  0  0  0  0  0  0  0
    9.2311  -15.6850   23.8767 C   0  0  0  0  0  0  0  0  0  0  0  0
   10.1074  -14.7799   23.6170 O   0  0  0  0  0  0  0  0  0  0  0  0
    6.3780  -11.5387   26.6866 C   0  0  0  0  0  0  0  0  0  0  0  0
    7.6029  -12.4207   26.9222 C   0  0  0  0  0  0  0  0  0  0  0  0
    7.5389  -13.5336   25.9164 C   0  0  2  0  0  0  0  0  0  0  0  0
    6.2318  -14.2834   25.9779 C   0  0  0  0  0  0  0  0  0  0  0  0
    8.6641  -14.5280   26.0631 C   0  0  2  0  0  0  0  0  0  0  0  0
    8.5015  -15.5595   25.0544 N   0  0  0  0  0  0  0  0  0  0  0  0
    8.8063  -15.0917   27.4109 C   0  0  0  0  0  0  0  0  0  0  0  0
    8.3819  -16.4389   27.5899 O   0  0  0  0  0  0  0  0  0  0  0  0
    9.2598  -14.5120   28.4165 O   0  0  0  0  0  0  0  0  0  0  0  0
  2  1  1  1
  2  3  1  0
  4  2  1  0
  4  5  1  1
  6  4  1  0
  6  8  1  0
  7  6  2  0
  8 12  1  0
  9  8  1  0
 10  9  1  0
 10 11  1  0
 12 11  1  0
 13 20  1  0
 12 13  1  1
 14 13  2  0
 16 15  1  0
 17 16  1  0
 17 18  1  1
 19 17  1  0
 19 20  1  6
 21 22  1  0
 21 19  1  0
 23 21  2  0
M  END
$$$$
