VPI.pdb
     RDKit          3D

 23 23  0  0  1  0  0  0  0  0999 V2000
   10.9059  -19.0030   22.2276 C   0  0  0  0  0  0  0  0  0  0  0  0
   10.0503  -18.8977   20.9787 C   0  0  2  0  0  0  0  0  0  0  0  0
   10.4836  -20.0111   20.0323 C   0  0  0  0  0  0  0  0  0  0  0  0
   10.3980  -17.5712   20.2955 C   0  0  2  0  0  0  0  0  0  0  0  0
   11.8451  -17.6101   20.1420 N   0  0  0  0  0  0  0  0  0  0  0  0
    9.9770  -16.4056   21.1135 C   0  0  0  0  0  0  0  0  0  0  0  0
   10.8327  -15.8323   21.8295 O   0  0  0  0  0  0  0  0  0  0  0  0
    8.6490  -15.9099   21.1200 N   0  0  0  0  0  0  0  0  0  0  0  0
    7.6359  -16.3892   20.1738 C   0  0  0  0  0  0  0  0  0  0  0  0
    6.8508  -15.1008   19.9180 C   0  0  0  0  0  0  0  0  0  0  0  0
    6.6688  -14.6345   21.3672 C   0  0  0  0  0  0  0  0  0  0  0  0
    8.0068  -14.9257   21.9581 C   0  0  1  0  0  0  0  0  0  0  0  0
    8.0092  -15.2674   23.3832 C   0  0  0  0  0  0  0  0  0  0  0  0
    8.0966  -16.5152   23.6833 O   0  0  0  0  0  0  0  0  0  0  0  0
    5.8688  -11.6693   27.1754 C   0  0  0  0  0  0  0  0  0  0  0  0
    6.1623  -12.7938   26.1838 C   0  0  0  0  0  0  0  0  0  0  0  0
    7.4742  -13.4011   26.5889 C   0  0  2  0  0  0  0  0  0  0  0  0
    8.6254  -12.4436   26.4099 C   0  0  0  0  0  0  0  0  0  0  0  0
    7.7929  -14.6721   25.8408 C   0  0  2  0  0  0  0  0  0  0  0  0
    7.9245  -14.3552   24.4300 N   0  0  0  0  0  0  0  0  0  0  0  0
    6.8461  -15.7692   26.0739 C   0  0  0  0  0  0  0  0  0  0  0  0
    7.1115  -16.6192   27.1848 O   0  0  0  0  0  0  0  0  0  0  0  0
    5.8330  -16.0347   25.3986 O   0  0  0  0  0  0  0  0  0  0  0  0
  2  1  1  1
  2  3  1  0
  4  2  1  0
  4  5  1  1
  6  4  1  0
  6  8  1  0
  7  6  2  0
  8 12  1  0
  9  8  1  0
 10  9  1  0
 10 11  1  0
 12 11  1  0
 13 20  1  0
 12 13  1  1
 14 13  2  0
 16 15  1  0
 17 16  1  0
 17 18  1  6
 19 17  1  0
 19 20  1  6
 21 22  1  0
 21 19  1  0
 23 21  2  0
M  END
$$$$
