VPI.pdb
     RDKit          3D

 23 23  0  0  1  0  0  0  0  0999 V2000
    5.4347  -18.1297   23.3216 C   0  0  0  0  0  0  0  0  0  0  0  0
    4.9098  -17.3511   22.1294 C   0  0  2  0  0  0  0  0  0  0  0  0
    3.7263  -18.1260   21.5623 C   0  0  0  0  0  0  0  0  0  0  0  0
    6.0044  -17.3614   21.0575 C   0  0  2  0  0  0  0  0  0  0  0  0
    6.3007  -18.7721   20.8544 N   0  0  0  0  0  0  0  0  0  0  0  0
    7.2119  -16.6182   21.4988 C   0  0  0  0  0  0  0  0  0  0  0  0
    8.0488  -17.2067   22.2247 O   0  0  0  0  0  0  0  0  0  0  0  0
    7.4622  -15.2714   21.1345 N   0  0  0  0  0  0  0  0  0  0  0  0
    6.5629  -14.5264   20.2471 C   0  0  0  0  0  0  0  0  0  0  0  0
    7.5690  -13.6774   19.4670 C   0  0  0  0  0  0  0  0  0  0  0  0
    8.4107  -13.1587   20.6389 C   0  0  0  0  0  0  0  0  0  0  0  0
    8.5327  -14.3732   21.4959 C   0  0  1  0  0  0  0  0  0  0  0  0
    8.6376  -14.1242   22.9362 C   0  0  0  0  0  0  0  0  0  0  0  0
    8.6488  -12.8952   23.3160 O   0  0  0  0  0  0  0  0  0  0  0  0
    5.7235  -13.2991   26.4483 C   0  0  0  0  0  0  0  0  0  0  0  0
    6.5826  -14.3088   25.6891 C   0  0  0  0  0  0  0  0  0  0  0  0
    8.0115  -13.8799   25.8580 C   0  0  2  0  0  0  0  0  0  0  0  0
    8.2905  -12.5532   25.1976 C   0  0  0  0  0  0  0  0  0  0  0  0
    8.9983  -14.8910   25.3285 C   0  0  2  0  0  0  0  0  0  0  0  0
    8.7260  -15.1052   23.9185 N   0  0  0  0  0  0  0  0  0  0  0  0
    9.0410  -16.1511   26.0799 C   0  0  0  0  0  0  0  0  0  0  0  0
    9.5354  -16.0853   27.4134 O   0  0  0  0  0  0  0  0  0  0  0  0
    8.6897  -17.2744   25.6706 O   0  0  0  0  0  0  0  0  0  0  0  0
  2  1  1  1
  2  3  1  0
  4  2  1  0
  4  5  1  1
  6  4  1  0
  6  8  1  0
  7  6  2  0
  8 12  1  0
  9  8  1  0
 10  9  1  0
 10 11  1  0
 12 11  1  0
 13 20  1  0
 12 13  1  1
 14 13  2  0
 16 15  1  0
 17 16  1  0
 17 18  1  6
 19 17  1  0
 19 20  1  6
 21 22  1  0
 21 19  1  0
 23 21  2  0
M  END
$$$$
