VPI.pdb
     RDKit          3D

 23 23  0  0  1  0  0  0  0  0999 V2000
   11.1006  -19.0103   21.2019 C   0  0  0  0  0  0  0  0  0  0  0  0
    9.8333  -18.7420   20.4112 C   0  0  2  0  0  0  0  0  0  0  0  0
    9.8162  -19.7086   19.2330 C   0  0  0  0  0  0  0  0  0  0  0  0
    9.9475  -17.3299   19.8279 C   0  0  2  0  0  0  0  0  0  0  0  0
   11.2375  -17.3187   19.1535 N   0  0  0  0  0  0  0  0  0  0  0  0
    9.8879  -16.2917   20.8879 C   0  0  0  0  0  0  0  0  0  0  0  0
   10.9608  -15.7847   21.2947 O   0  0  0  0  0  0  0  0  0  0  0  0
    8.6702  -15.8460   21.4606 N   0  0  0  0  0  0  0  0  0  0  0  0
    7.3683  -16.1699   20.8679 C   0  0  0  0  0  0  0  0  0  0  0  0
    6.5951  -14.8805   21.1532 C   0  0  0  0  0  0  0  0  0  0  0  0
    6.9605  -14.6991   22.6311 C   0  0  0  0  0  0  0  0  0  0  0  0
    8.4086  -15.0556   22.6396 C   0  0  1  0  0  0  0  0  0  0  0  0
    8.9056  -15.6576   23.8799 C   0  0  0  0  0  0  0  0  0  0  0  0
    9.1035  -16.9286   23.8724 O   0  0  0  0  0  0  0  0  0  0  0  0
   10.4822  -13.6797   29.5262 C   0  0  0  0  0  0  0  0  0  0  0  0
   10.4393  -14.8937   28.5996 C   0  0  0  0  0  0  0  0  0  0  0  0
    9.8965  -14.4183   27.2829 C   0  0  2  0  0  0  0  0  0  0  0  0
    8.5844  -13.6910   27.4361 C   0  0  0  0  0  0  0  0  0  0  0  0
    9.7076  -15.5337   26.2845 C   0  0  2  0  0  0  0  0  0  0  0  0
    9.1778  -14.9679   25.0569 N   0  0  0  0  0  0  0  0  0  0  0  0
    8.8949  -16.6549   26.7711 C   0  0  0  0  0  0  0  0  0  0  0  0
    7.5384  -16.6970   26.3409 O   0  0  0  0  0  0  0  0  0  0  0  0
    9.2696  -17.5747   27.5238 O   0  0  0  0  0  0  0  0  0  0  0  0
  2  1  1  1
  2  3  1  0
  4  2  1  0
  4  5  1  1
  6  4  1  0
  6  8  1  0
  7  6  2  0
  8 12  1  0
  9  8  1  0
 10  9  1  0
 10 11  1  0
 12 11  1  0
 13 20  1  0
 12 13  1  1
 14 13  2  0
 16 15  1  0
 17 16  1  0
 17 18  1  1
 19 17  1  0
 19 20  1  6
 21 22  1  0
 21 19  1  0
 23 21  2  0
M  END
$$$$
