VPI.pdb
     RDKit          3D

 23 23  0  0  1  0  0  0  0  0999 V2000
    7.0590  -19.1773   23.9021 C   0  0  0  0  0  0  0  0  0  0  0  0
    6.1515  -18.7129   22.7779 C   0  0  2  0  0  0  0  0  0  0  0  0
    5.2237  -19.8712   22.4310 C   0  0  0  0  0  0  0  0  0  0  0  0
    7.0334  -18.4648   21.5499 C   0  0  2  0  0  0  0  0  0  0  0  0
    7.6941  -19.7402   21.3135 N   0  0  0  0  0  0  0  0  0  0  0  0
    8.0237  -17.3855   21.7943 C   0  0  0  0  0  0  0  0  0  0  0  0
    9.1582  -17.6970   22.2296 O   0  0  0  0  0  0  0  0  0  0  0  0
    7.7441  -16.0165   21.5557 N   0  0  0  0  0  0  0  0  0  0  0  0
    6.4414  -15.5652   21.0549 C   0  0  0  0  0  0  0  0  0  0  0  0
    6.8684  -14.4092   20.1476 C   0  0  0  0  0  0  0  0  0  0  0  0
    7.8323  -13.6938   21.1015 C   0  0  0  0  0  0  0  0  0  0  0  0
    8.5592  -14.8373   21.7247 C   0  0  1  0  0  0  0  0  0  0  0  0
    9.0155  -14.6235   23.1008 C   0  0  0  0  0  0  0  0  0  0  0  0
   10.2743  -14.4228   23.2730 O   0  0  0  0  0  0  0  0  0  0  0  0
    6.6252  -11.3430   27.3953 C   0  0  0  0  0  0  0  0  0  0  0  0
    7.7065  -12.4093   27.2288 C   0  0  0  0  0  0  0  0  0  0  0  0
    7.4270  -13.1154   25.9336 C   0  0  2  0  0  0  0  0  0  0  0  0
    6.1298  -13.8835   25.9713 C   0  0  0  0  0  0  0  0  0  0  0  0
    8.5286  -14.0632   25.5277 C   0  0  2  0  0  0  0  0  0  0  0  0
    8.2003  -14.6210   24.2281 N   0  0  0  0  0  0  0  0  0  0  0  0
    8.8290  -15.1061   26.5159 C   0  0  0  0  0  0  0  0  0  0  0  0
    8.4912  -16.4425   26.1597 O   0  0  0  0  0  0  0  0  0  0  0  0
    9.3490  -14.9425   27.6365 O   0  0  0  0  0  0  0  0  0  0  0  0
  2  1  1  1
  2  3  1  0
  4  2  1  0
  4  5  1  1
  6  4  1  0
  6  8  1  0
  7  6  2  0
  8 12  1  0
  9  8  1  0
 10  9  1  0
 10 11  1  0
 12 11  1  0
 13 20  1  0
 12 13  1  1
 14 13  2  0
 16 15  1  0
 17 16  1  0
 17 18  1  1
 19 17  1  0
 19 20  1  6
 21 22  1  0
 21 19  1  0
 23 21  2  0
M  END
$$$$
