VPI.pdb
     RDKit          3D

 23 23  0  0  1  0  0  0  0  0999 V2000
    7.2616  -12.7621   21.3413 C   0  0  0  0  0  0  0  0  0  0  0  0
    8.1193  -13.5187   20.3438 C   0  0  2  0  0  0  0  0  0  0  0  0
    7.6950  -13.0769   18.9482 C   0  0  0  0  0  0  0  0  0  0  0  0
    7.7647  -15.0040   20.4684 C   0  0  2  0  0  0  0  0  0  0  0  0
    6.3898  -15.0899   19.9978 N   0  0  0  0  0  0  0  0  0  0  0  0
    7.8822  -15.4807   21.8698 C   0  0  0  0  0  0  0  0  0  0  0  0
    7.0223  -15.1114   22.7052 O   0  0  0  0  0  0  0  0  0  0  0  0
    8.9238  -16.3374   22.3062 N   0  0  0  0  0  0  0  0  0  0  0  0
    9.9160  -16.8897   21.3778 C   0  0  0  0  0  0  0  0  0  0  0  0
   10.1328  -18.2783   21.9833 C   0  0  0  0  0  0  0  0  0  0  0  0
   10.3089  -17.8785   23.4530 C   0  0  0  0  0  0  0  0  0  0  0  0
    9.2571  -16.8344   23.6197 C   0  0  1  0  0  0  0  0  0  0  0  0
    9.5582  -15.7817   24.5937 C   0  0  0  0  0  0  0  0  0  0  0  0
   10.3848  -14.8671   24.2267 O   0  0  0  0  0  0  0  0  0  0  0  0
    6.4502  -12.5111   26.6588 C   0  0  0  0  0  0  0  0  0  0  0  0
    7.6565  -13.2841   26.1287 C   0  0  0  0  0  0  0  0  0  0  0  0
    8.3368  -13.8995   27.3174 C   0  0  2  0  0  0  0  0  0  0  0  0
    8.8615  -12.8600   28.2756 C   0  0  0  0  0  0  0  0  0  0  0  0
    9.4754  -14.8141   26.9384 C   0  0  2  0  0  0  0  0  0  0  0  0
    9.0246  -15.6944   25.8755 N   0  0  0  0  0  0  0  0  0  0  0  0
   10.0577  -15.5583   28.0615 C   0  0  0  0  0  0  0  0  0  0  0  0
   11.0601  -14.8911   28.8212 O   0  0  0  0  0  0  0  0  0  0  0  0
    9.7659  -16.7159   28.4189 O   0  0  0  0  0  0  0  0  0  0  0  0
  2  1  1  1
  2  3  1  0
  4  2  1  0
  4  5  1  1
  6  4  1  0
  6  8  1  0
  7  6  2  0
  8 12  1  0
  9  8  1  0
 10  9  1  0
 10 11  1  0
 12 11  1  0
 13 20  1  0
 12 13  1  1
 14 13  2  0
 16 15  1  0
 17 16  1  0
 17 18  1  1
 19 17  1  0
 19 20  1  6
 21 22  1  0
 21 19  1  0
 23 21  2  0
M  END
$$$$
