CVS.pdb
     RDKit          3D

 20 19  0  0  1  0  0  0  0  0999 V2000
   25.1502  -21.9251  -11.6917 N   0  0  0  0  0  0  0  0  0  0  0  0
   25.0393  -22.0447  -13.1231 C   0  0  1  0  0  0  0  0  0  0  0  0
   23.7749  -22.8304  -13.4865 C   0  0  0  0  0  0  0  0  0  0  0  0
   24.0727  -24.6004  -13.3135 S   0  0  0  0  0  0  0  0  0  0  0  0
   25.0191  -20.7088  -13.7928 C   0  0  0  0  0  0  0  0  0  0  0  0
   24.4897  -19.7086  -13.2709 O   0  0  0  0  0  0  0  0  0  0  0  0
   28.0120  -18.7776  -15.3539 C   0  0  0  0  0  0  0  0  0  0  0  0
   26.9638  -19.0103  -16.4208 C   0  0  2  0  0  0  0  0  0  0  0  0
   26.7592  -17.6915  -17.1566 C   0  0  0  0  0  0  0  0  0  0  0  0
   25.6336  -19.4153  -15.8794 C   0  0  2  0  0  0  0  0  0  0  0  0
   25.6315  -20.5945  -15.0722 N   0  0  0  0  0  0  0  0  0  0  0  0
   24.5433  -19.4363  -16.9065 C   0  0  0  0  0  0  0  0  0  0  0  0
   24.5900  -20.1660  -17.9173 O   0  0  0  0  0  0  0  0  0  0  0  0
   20.3397  -20.6199  -17.0640 O   0  0  0  0  0  0  0  0  0  0  0  0
   21.5809  -20.2505  -16.5443 C   0  0  0  0  0  0  0  0  0  0  0  0
   22.0744  -18.9903  -17.2106 C   0  0  2  0  0  0  0  0  0  0  0  0
   23.3937  -18.6096  -16.7640 N   0  0  0  0  0  0  0  0  0  0  0  0
   21.0748  -17.9266  -16.9516 C   0  0  0  0  0  0  0  0  0  0  0  0
   19.8354  -17.9052  -17.5673 O   0  0  0  0  0  0  0  0  0  0  0  0
   21.3683  -17.0183  -16.1464 O   0  0  0  0  0  0  0  0  0  0  0  0
  2  1  1  1
  2  3  1  0
  3  4  1  0
  5  2  1  0
  6  5  2  0
  8  7  1  1
  8 10  1  0
  9  8  1  0
 10 11  1  6
 10 12  1  0
 11  5  1  0
 12 13  2  0
 15 14  1  0
 16 15  1  1
 17 12  1  0
 17 16  1  0
 18 19  1  0
 18 16  1  0
 20 18  2  0
M  END
$$$$
