CVS.pdb
     RDKit          3D

 20 19  0  0  1  0  0  0  0  0999 V2000
   15.7057  -11.3387  -16.6257 N   0  0  0  0  0  0  0  0  0  0  0  0
   16.3974  -10.7205  -15.5234 C   0  0  1  0  0  0  0  0  0  0  0  0
   17.3165  -11.7408  -14.8434 C   0  0  0  0  0  0  0  0  0  0  0  0
   16.3382  -12.9250  -13.8989 S   0  0  0  0  0  0  0  0  0  0  0  0
   17.1910   -9.5321  -15.9612 C   0  0  0  0  0  0  0  0  0  0  0  0
   17.7989   -9.4994  -17.0486 O   0  0  0  0  0  0  0  0  0  0  0  0
   16.1282   -6.1598  -16.9617 C   0  0  0  0  0  0  0  0  0  0  0  0
   16.8939   -6.0288  -15.6626 C   0  0  2  0  0  0  0  0  0  0  0  0
   17.7255   -4.7547  -15.7481 C   0  0  0  0  0  0  0  0  0  0  0  0
   17.8448   -7.1505  -15.4087 C   0  0  2  0  0  0  0  0  0  0  0  0
   17.2426   -8.4070  -15.0915 N   0  0  0  0  0  0  0  0  0  0  0  0
   18.9512   -6.8030  -14.4604 C   0  0  0  0  0  0  0  0  0  0  0  0
   18.7375   -6.4538  -13.2820 O   0  0  0  0  0  0  0  0  0  0  0  0
   22.9829   -7.0023  -15.7614 O   0  0  0  0  0  0  0  0  0  0  0  0
   22.6876   -7.2759  -14.4252 C   0  0  0  0  0  0  0  0  0  0  0  0
   21.4260   -6.5609  -14.0098 C   0  0  2  0  0  0  0  0  0  0  0  0
   20.3107   -6.8596  -14.8770 N   0  0  0  0  0  0  0  0  0  0  0  0
   21.7255   -5.1095  -13.9744 C   0  0  0  0  0  0  0  0  0  0  0  0
   22.5441   -4.5424  -13.0131 O   0  0  0  0  0  0  0  0  0  0  0  0
   21.2169   -4.3760  -14.8479 O   0  0  0  0  0  0  0  0  0  0  0  0
  2  1  1  6
  2  3  1  0
  3  4  1  0
  5  2  1  0
  6  5  2  0
  8  7  1  6
  8 10  1  0
  9  8  1  0
 10 11  1  1
 10 12  1  0
 11  5  1  0
 12 13  2  0
 15 14  1  0
 16 15  1  6
 17 12  1  0
 17 16  1  0
 18 19  1  0
 18 16  1  0
 20 18  2  0
M  END
$$$$
