CVS.pdb
     RDKit          3D

 20 19  0  0  1  0  0  0  0  0999 V2000
   23.7783  -12.3493  -18.5772 N   0  0  0  0  0  0  0  0  0  0  0  0
   23.7301  -11.5391  -17.3869 C   0  0  1  0  0  0  0  0  0  0  0  0
   25.1484  -11.2984  -16.8594 C   0  0  0  0  0  0  0  0  0  0  0  0
   25.8960  -12.8595  -16.3538 S   0  0  0  0  0  0  0  0  0  0  0  0
   23.0487  -10.2316  -17.6315 C   0  0  0  0  0  0  0  0  0  0  0  0
   23.1791   -9.6003  -18.6980 O   0  0  0  0  0  0  0  0  0  0  0  0
   19.4334   -9.4415  -17.9393 C   0  0  0  0  0  0  0  0  0  0  0  0
   19.9510   -8.7453  -16.6989 C   0  0  2  0  0  0  0  0  0  0  0  0
   19.2979   -7.3697  -16.6402 C   0  0  0  0  0  0  0  0  0  0  0  0
   21.4268   -8.5244  -16.7044 C   0  0  2  0  0  0  0  0  0  0  0  0
   22.2255   -9.7045  -16.5973 N   0  0  0  0  0  0  0  0  0  0  0  0
   21.8815   -7.4515  -15.7629 C   0  0  0  0  0  0  0  0  0  0  0  0
   21.8869   -7.6059  -14.5249 O   0  0  0  0  0  0  0  0  0  0  0  0
   23.8043   -2.9639  -15.3357 O   0  0  0  0  0  0  0  0  0  0  0  0
   23.2726   -3.9279  -16.1931 C   0  0  0  0  0  0  0  0  0  0  0  0
   22.7854   -5.1188  -15.4058 C   0  0  2  0  0  0  0  0  0  0  0  0
   22.3318   -6.1946  -16.2553 N   0  0  0  0  0  0  0  0  0  0  0  0
   21.7160   -4.6454  -14.4947 C   0  0  0  0  0  0  0  0  0  0  0  0
   21.9465   -4.3680  -13.1584 O   0  0  0  0  0  0  0  0  0  0  0  0
   20.5658   -4.4932  -14.9566 O   0  0  0  0  0  0  0  0  0  0  0  0
  2  1  1  6
  2  3  1  0
  3  4  1  0
  5  2  1  0
  6  5  2  0
  8  7  1  6
  8 10  1  0
  9  8  1  0
 10 11  1  1
 10 12  1  0
 11  5  1  0
 12 13  2  0
 15 14  1  0
 16 15  1  6
 17 12  1  0
 17 16  1  0
 18 19  1  0
 18 16  1  0
 20 18  2  0
M  END
$$$$
