CVS.pdb
     RDKit          3D

 20 19  0  0  1  0  0  0  0  0999 V2000
   17.4093  -12.1917  -16.5942 N   0  0  0  0  0  0  0  0  0  0  0  0
   18.1930  -11.0974  -17.1077 C   0  0  1  0  0  0  0  0  0  0  0  0
   17.2697   -9.9944  -17.6358 C   0  0  0  0  0  0  0  0  0  0  0  0
   16.4129  -10.5591  -19.1185 S   0  0  0  0  0  0  0  0  0  0  0  0
   19.1136  -10.5384  -16.0715 C   0  0  0  0  0  0  0  0  0  0  0  0
   18.7579  -10.3565  -14.8910 O   0  0  0  0  0  0  0  0  0  0  0  0
   22.4871  -11.8799  -14.9121 C   0  0  0  0  0  0  0  0  0  0  0  0
   22.6979  -10.5042  -15.5071 C   0  0  2  0  0  0  0  0  0  0  0  0
   23.6524   -9.7501  -14.5891 C   0  0  0  0  0  0  0  0  0  0  0  0
   21.4505   -9.6902  -15.5979 C   0  0  2  0  0  0  0  0  0  0  0  0
   20.4403  -10.2080  -16.4659 N   0  0  0  0  0  0  0  0  0  0  0  0
   21.6959   -8.2308  -15.8301 C   0  0  0  0  0  0  0  0  0  0  0  0
   22.0318   -7.7774  -16.9428 O   0  0  0  0  0  0  0  0  0  0  0  0
   19.4455   -5.4572  -14.4932 O   0  0  0  0  0  0  0  0  0  0  0  0
   20.4972   -5.1543  -15.3590 C   0  0  0  0  0  0  0  0  0  0  0  0
   21.7533   -5.8704  -14.9292 C   0  0  2  0  0  0  0  0  0  0  0  0
   21.5523   -7.2915  -14.7708 N   0  0  0  0  0  0  0  0  0  0  0  0
   22.2231   -5.2353  -13.6747 C   0  0  0  0  0  0  0  0  0  0  0  0
   22.6410   -3.9170  -13.6199 O   0  0  0  0  0  0  0  0  0  0  0  0
   22.2400   -5.9213  -12.6312 O   0  0  0  0  0  0  0  0  0  0  0  0
  2  1  1  1
  2  3  1  0
  3  4  1  0
  5  2  1  0
  6  5  2  0
  8  7  1  1
  8 10  1  0
  9  8  1  0
 10 11  1  6
 10 12  1  0
 11  5  1  0
 12 13  2  0
 15 14  1  0
 16 15  1  1
 17 12  1  0
 17 16  1  0
 18 19  1  0
 18 16  1  0
 20 18  2  0
M  END
$$$$
