CVS.pdb
     RDKit          3D

 20 19  0  0  1  0  0  0  0  0999 V2000
   16.8573  -11.6741  -16.0041 N   0  0  0  0  0  0  0  0  0  0  0  0
   17.6606  -10.6161  -16.5617 C   0  0  1  0  0  0  0  0  0  0  0  0
   16.7573   -9.5122  -17.1217 C   0  0  0  0  0  0  0  0  0  0  0  0
   15.9539  -10.0754  -18.6346 S   0  0  0  0  0  0  0  0  0  0  0  0
   18.6014  -10.0414  -15.5525 C   0  0  0  0  0  0  0  0  0  0  0  0
   18.2907   -9.9025  -14.3537 O   0  0  0  0  0  0  0  0  0  0  0  0
   22.0523  -11.2373  -14.5407 C   0  0  0  0  0  0  0  0  0  0  0  0
   22.1928   -9.8428  -15.1123 C   0  0  2  0  0  0  0  0  0  0  0  0
   23.1322   -9.0660  -14.1978 C   0  0  0  0  0  0  0  0  0  0  0  0
   20.9104   -9.0814  -15.1637 C   0  0  2  0  0  0  0  0  0  0  0  0
   19.8941   -9.6444  -15.9956 N   0  0  0  0  0  0  0  0  0  0  0  0
   21.0874   -7.6142  -15.4087 C   0  0  0  0  0  0  0  0  0  0  0  0
   21.5709   -7.1661  -16.4679 O   0  0  0  0  0  0  0  0  0  0  0  0
   18.4552   -4.8726  -14.5017 O   0  0  0  0  0  0  0  0  0  0  0  0
   19.6780   -4.4801  -13.9558 C   0  0  0  0  0  0  0  0  0  0  0  0
   20.8100   -5.2328  -14.6095 C   0  0  2  0  0  0  0  0  0  0  0  0
   20.7034   -6.6609  -14.4243 N   0  0  0  0  0  0  0  0  0  0  0  0
   22.0788   -4.6975  -14.0606 C   0  0  0  0  0  0  0  0  0  0  0  0
   22.6550   -3.5278  -14.5250 O   0  0  0  0  0  0  0  0  0  0  0  0
   22.6443   -5.3305  -13.1446 O   0  0  0  0  0  0  0  0  0  0  0  0
  2  1  1  1
  2  3  1  0
  3  4  1  0
  5  2  1  0
  6  5  2  0
  8  7  1  1
  8 10  1  0
  9  8  1  0
 10 11  1  6
 10 12  1  0
 11  5  1  0
 12 13  2  0
 15 14  1  0
 16 15  1  1
 17 12  1  0
 17 16  1  0
 18 19  1  0
 18 16  1  0
 20 18  2  0
M  END
$$$$
