CVS.pdb
     RDKit          3D

 20 19  0  0  1  0  0  0  0  0999 V2000
   16.9976  -11.7838  -17.4806 N   0  0  0  0  0  0  0  0  0  0  0  0
   17.1273  -10.9930  -16.2834 C   0  0  1  0  0  0  0  0  0  0  0  0
   17.9902  -11.7344  -15.2569 C   0  0  0  0  0  0  0  0  0  0  0  0
   17.1416  -13.2213  -14.6907 S   0  0  0  0  0  0  0  0  0  0  0  0
   17.7147   -9.6481  -16.5663 C   0  0  0  0  0  0  0  0  0  0  0  0
   18.5186   -9.4537  -17.4985 O   0  0  0  0  0  0  0  0  0  0  0  0
   16.2287   -6.4311  -17.7746 C   0  0  0  0  0  0  0  0  0  0  0  0
   16.6548   -6.2638  -16.3318 C   0  0  2  0  0  0  0  0  0  0  0  0
   17.2123   -4.8536  -16.1800 C   0  0  0  0  0  0  0  0  0  0  0  0
   17.7342   -7.2040  -15.9103 C   0  0  2  0  0  0  0  0  0  0  0  0
   17.3301   -8.5628  -15.7302 N   0  0  0  0  0  0  0  0  0  0  0  0
   18.5558   -6.7057  -14.7610 C   0  0  0  0  0  0  0  0  0  0  0  0
   18.1042   -6.6246  -13.6010 O   0  0  0  0  0  0  0  0  0  0  0  0
   22.5580   -7.3763  -14.6219 O   0  0  0  0  0  0  0  0  0  0  0  0
   21.7490   -7.0694  -13.5271 C   0  0  0  0  0  0  0  0  0  0  0  0
   20.7987   -5.9506  -13.8744 C   0  0  2  0  0  0  0  0  0  0  0  0
   19.9059   -6.2994  -14.9544 N   0  0  0  0  0  0  0  0  0  0  0  0
   21.6140   -4.7548  -14.1954 C   0  0  0  0  0  0  0  0  0  0  0  0
   22.3135   -4.0509  -13.2306 O   0  0  0  0  0  0  0  0  0  0  0  0
   21.6676   -4.3732  -15.3833 O   0  0  0  0  0  0  0  0  0  0  0  0
  2  1  1  6
  2  3  1  0
  3  4  1  0
  5  2  1  0
  6  5  2  0
  8  7  1  6
  8 10  1  0
  9  8  1  0
 10 11  1  1
 10 12  1  0
 11  5  1  0
 12 13  2  0
 15 14  1  0
 16 15  1  6
 17 12  1  0
 17 16  1  0
 18 19  1  0
 18 16  1  0
 20 18  2  0
M  END
$$$$
