CVS.pdb
     RDKit          3D

 20 19  0  0  1  0  0  0  0  0999 V2000
   17.6383  -11.1951  -17.9913 N   0  0  0  0  0  0  0  0  0  0  0  0
   18.8257  -10.4362  -18.2909 C   0  0  1  0  0  0  0  0  0  0  0  0
   18.4804   -9.2694  -19.2222 C   0  0  0  0  0  0  0  0  0  0  0  0
   17.7981   -9.8920  -20.7708 S   0  0  0  0  0  0  0  0  0  0  0  0
   19.4840   -9.9216  -17.0517 C   0  0  0  0  0  0  0  0  0  0  0  0
   18.8361   -9.4371  -16.1038 O   0  0  0  0  0  0  0  0  0  0  0  0
   22.1974  -11.9891  -15.0288 C   0  0  0  0  0  0  0  0  0  0  0  0
   22.7373  -10.6376  -15.4448 C   0  0  2  0  0  0  0  0  0  0  0  0
   23.4798  -10.0537  -14.2489 C   0  0  0  0  0  0  0  0  0  0  0  0
   21.6779   -9.6554  -15.8187 C   0  0  2  0  0  0  0  0  0  0  0  0
   20.9027   -9.9959  -16.9698 N   0  0  0  0  0  0  0  0  0  0  0  0
   22.1570   -8.2368  -15.8640 C   0  0  0  0  0  0  0  0  0  0  0  0
   22.9756   -7.8337  -16.7148 O   0  0  0  0  0  0  0  0  0  0  0  0
   19.9270   -5.1177  -15.2605 O   0  0  0  0  0  0  0  0  0  0  0  0
   21.2552   -4.9809  -15.6659 C   0  0  0  0  0  0  0  0  0  0  0  0
   22.1430   -5.9106  -14.8765 C   0  0  2  0  0  0  0  0  0  0  0  0
   21.6872   -7.2800  -14.9211 N   0  0  0  0  0  0  0  0  0  0  0  0
   22.2086   -5.3948  -13.4882 C   0  0  0  0  0  0  0  0  0  0  0  0
   22.7524   -4.1602  -13.1786 O   0  0  0  0  0  0  0  0  0  0  0  0
   21.7543   -6.1059  -12.5677 O   0  0  0  0  0  0  0  0  0  0  0  0
  2  1  1  1
  2  3  1  0
  3  4  1  0
  5  2  1  0
  6  5  2  0
  8  7  1  1
  8 10  1  0
  9  8  1  0
 10 11  1  6
 10 12  1  0
 11  5  1  0
 12 13  2  0
 15 14  1  0
 16 15  1  6
 17 12  1  0
 17 16  1  0
 18 19  1  0
 18 16  1  0
 20 18  2  0
M  END
$$$$
