CVS.pdb
     RDKit          3D

 20 19  0  0  1  0  0  0  0  0999 V2000
   13.5448  -13.1585  -11.9403 N   0  0  0  0  0  0  0  0  0  0  0  0
   14.9348  -12.8172  -11.7755 C   0  0  1  0  0  0  0  0  0  0  0  0
   15.8091  -13.7704  -12.5972 C   0  0  0  0  0  0  0  0  0  0  0  0
   15.8861  -15.3856  -11.7992 S   0  0  0  0  0  0  0  0  0  0  0  0
   15.2109  -11.4029  -12.1722 C   0  0  0  0  0  0  0  0  0  0  0  0
   14.6775  -10.8722  -13.1656 O   0  0  0  0  0  0  0  0  0  0  0  0
   16.1106   -8.5770   -9.1163 C   0  0  0  0  0  0  0  0  0  0  0  0
   15.6883   -8.3610  -10.5537 C   0  0  2  0  0  0  0  0  0  0  0  0
   14.2006   -8.6779  -10.6461 C   0  0  0  0  0  0  0  0  0  0  0  0
   16.3829   -9.2551  -11.5258 C   0  0  2  0  0  0  0  0  0  0  0  0
   16.1183  -10.6512  -11.3745 N   0  0  0  0  0  0  0  0  0  0  0  0
   17.8474   -8.9734  -11.6673 C   0  0  0  0  0  0  0  0  0  0  0  0
   18.7230   -9.7524  -11.2397 O   0  0  0  0  0  0  0  0  0  0  0  0
   21.5994   -8.4614  -13.7624 O   0  0  0  0  0  0  0  0  0  0  0  0
   20.2464   -8.6847  -13.5038 C   0  0  0  0  0  0  0  0  0  0  0  0
   19.6760   -7.5551  -12.6828 C   0  0  2  0  0  0  0  0  0  0  0  0
   18.3012   -7.7855  -12.3061 N   0  0  0  0  0  0  0  0  0  0  0  0
   19.8323   -6.3078  -13.4686 C   0  0  0  0  0  0  0  0  0  0  0  0
   20.9948   -5.5569  -13.4483 O   0  0  0  0  0  0  0  0  0  0  0  0
   18.8750   -5.9255  -14.1736 O   0  0  0  0  0  0  0  0  0  0  0  0
  2  1  1  6
  2  3  1  0
  3  4  1  0
  5  2  1  0
  6  5  2  0
  8  7  1  1
  8 10  1  0
  9  8  1  0
 10 11  1  1
 10 12  1  0
 11  5  1  0
 12 13  2  0
 15 14  1  0
 16 15  1  6
 17 12  1  0
 17 16  1  0
 18 19  1  0
 18 16  1  0
 20 18  2  0
M  END
$$$$
