CVS.pdb
     RDKit          3D

 20 19  0  0  1  0  0  0  0  0999 V2000
   18.3955  -12.9772  -16.4698 N   0  0  0  0  0  0  0  0  0  0  0  0
   18.0293  -11.6341  -16.0989 C   0  0  1  0  0  0  0  0  0  0  0  0
   17.7265  -11.5693  -14.5982 C   0  0  0  0  0  0  0  0  0  0  0  0
   16.2695  -12.5605  -14.2155 S   0  0  0  0  0  0  0  0  0  0  0  0
   19.0995  -10.6501  -16.4456 C   0  0  0  0  0  0  0  0  0  0  0  0
   20.3005  -10.9721  -16.5289 O   0  0  0  0  0  0  0  0  0  0  0  0
   19.7918   -8.7577  -19.5563 C   0  0  0  0  0  0  0  0  0  0  0  0
   19.3979   -7.7585  -18.4897 C   0  0  2  0  0  0  0  0  0  0  0  0
   20.2929   -6.5362  -18.6549 C   0  0  0  0  0  0  0  0  0  0  0  0
   19.5962   -8.2556  -17.0967 C   0  0  2  0  0  0  0  0  0  0  0  0
   18.7137   -9.3016  -16.6858 N   0  0  0  0  0  0  0  0  0  0  0  0
   19.6900   -7.1658  -16.0731 C   0  0  0  0  0  0  0  0  0  0  0  0
   18.7059   -6.4766  -15.7373 O   0  0  0  0  0  0  0  0  0  0  0  0
   22.5482   -4.8498  -12.8369 O   0  0  0  0  0  0  0  0  0  0  0  0
   22.4313   -5.8874  -13.7627 C   0  0  0  0  0  0  0  0  0  0  0  0
   21.0941   -5.8221  -14.4577 C   0  0  2  0  0  0  0  0  0  0  0  0
   20.9276   -6.8719  -15.4350 N   0  0  0  0  0  0  0  0  0  0  0  0
   20.9717   -4.4759  -15.0663 C   0  0  0  0  0  0  0  0  0  0  0  0
   20.2082   -3.4702  -14.4994 O   0  0  0  0  0  0  0  0  0  0  0  0
   21.5832   -4.2468  -16.1308 O   0  0  0  0  0  0  0  0  0  0  0  0
  2  1  1  1
  2  3  1  0
  3  4  1  0
  5  2  1  0
  6  5  2  0
  8  7  1  6
  8 10  1  0
  9  8  1  0
 10 11  1  1
 10 12  1  0
 11  5  1  0
 12 13  2  0
 15 14  1  0
 16 15  1  6
 17 12  1  0
 17 16  1  0
 18 19  1  0
 18 16  1  0
 20 18  2  0
M  END
$$$$
