CVS.pdb
     RDKit          3D

 20 19  0  0  1  0  0  0  0  0999 V2000
   23.8891  -13.6895  -16.9019 N   0  0  0  0  0  0  0  0  0  0  0  0
   24.2114  -12.4551  -16.2325 C   0  0  1  0  0  0  0  0  0  0  0  0
   25.6251  -12.0051  -16.6157 C   0  0  0  0  0  0  0  0  0  0  0  0
   26.8432  -13.1660  -15.9675 S   0  0  0  0  0  0  0  0  0  0  0  0
   23.2287  -11.3756  -16.5532 C   0  0  0  0  0  0  0  0  0  0  0  0
   22.7485  -11.2276  -17.6937 O   0  0  0  0  0  0  0  0  0  0  0  0
   19.8337  -10.9451  -16.1235 C   0  0  0  0  0  0  0  0  0  0  0  0
   20.4560   -9.9213  -15.1985 C   0  0  2  0  0  0  0  0  0  0  0  0
   19.5751   -8.6782  -15.2330 C   0  0  0  0  0  0  0  0  0  0  0  0
   21.8254   -9.4932  -15.6088 C   0  0  2  0  0  0  0  0  0  0  0  0
   22.8394  -10.4949  -15.5055 N   0  0  0  0  0  0  0  0  0  0  0  0
   22.2586   -8.1920  -15.0061 C   0  0  0  0  0  0  0  0  0  0  0  0
   22.5341   -8.0742  -13.7950 O   0  0  0  0  0  0  0  0  0  0  0  0
   23.4246   -3.5095  -15.8449 O   0  0  0  0  0  0  0  0  0  0  0  0
   22.9055   -4.6925  -16.3724 C   0  0  0  0  0  0  0  0  0  0  0  0
   22.7623   -5.7316  -15.2883 C   0  0  2  0  0  0  0  0  0  0  0  0
   22.3734   -7.0217  -15.8076 N   0  0  0  0  0  0  0  0  0  0  0  0
   21.7846   -5.2157  -14.3006 C   0  0  0  0  0  0  0  0  0  0  0  0
   22.1709   -4.5601  -13.1445 O   0  0  0  0  0  0  0  0  0  0  0  0
   20.5676   -5.3822  -14.5261 O   0  0  0  0  0  0  0  0  0  0  0  0
  2  1  1  6
  2  3  1  0
  3  4  1  0
  5  2  1  0
  6  5  2  0
  8  7  1  6
  8 10  1  0
  9  8  1  0
 10 11  1  1
 10 12  1  0
 11  5  1  0
 12 13  2  0
 15 14  1  0
 16 15  1  6
 17 12  1  0
 17 16  1  0
 18 19  1  0
 18 16  1  0
 20 18  2  0
M  END
$$$$
