CVS.pdb
     RDKit          3D

 20 19  0  0  1  0  0  0  0  0999 V2000
   17.1215  -15.1425  -16.6069 N   0  0  0  0  0  0  0  0  0  0  0  0
   17.1223  -14.0211  -15.7026 C   0  0  1  0  0  0  0  0  0  0  0  0
   18.0286  -14.3163  -14.5028 C   0  0  0  0  0  0  0  0  0  0  0  0
   17.3829  -15.7155  -13.5664 S   0  0  0  0  0  0  0  0  0  0  0  0
   17.5640  -12.7628  -16.3774 C   0  0  0  0  0  0  0  0  0  0  0  0
   18.4124  -12.7577  -17.2903 O   0  0  0  0  0  0  0  0  0  0  0  0
   15.7351  -10.2299  -18.4923 C   0  0  0  0  0  0  0  0  0  0  0  0
   16.1381   -9.5743  -17.1889 C   0  0  2  0  0  0  0  0  0  0  0  0
   16.5964   -8.1573  -17.5119 C   0  0  0  0  0  0  0  0  0  0  0  0
   17.2763  -10.2516  -16.5013 C   0  0  2  0  0  0  0  0  0  0  0  0
   16.9837  -11.5364  -15.9484 N   0  0  0  0  0  0  0  0  0  0  0  0
   18.0040   -9.3746  -15.5290 C   0  0  0  0  0  0  0  0  0  0  0  0
   17.5167   -9.0478  -14.4280 O   0  0  0  0  0  0  0  0  0  0  0  0
   22.3000   -7.4958  -14.2283 O   0  0  0  0  0  0  0  0  0  0  0  0
   21.5758   -8.3105  -15.0995 C   0  0  0  0  0  0  0  0  0  0  0  0
   20.0948   -8.0988  -14.9066 C   0  0  2  0  0  0  0  0  0  0  0  0
   19.3011   -8.8733  -15.8314 N   0  0  0  0  0  0  0  0  0  0  0  0
   19.8305   -6.6456  -15.0337 C   0  0  0  0  0  0  0  0  0  0  0  0
   19.7618   -5.8037  -13.9373 O   0  0  0  0  0  0  0  0  0  0  0  0
   19.6645   -6.1692  -16.1761 O   0  0  0  0  0  0  0  0  0  0  0  0
  2  1  1  6
  2  3  1  0
  3  4  1  0
  5  2  1  0
  6  5  2  0
  8  7  1  6
  8 10  1  0
  9  8  1  0
 10 11  1  1
 10 12  1  0
 11  5  1  0
 12 13  2  0
 15 14  1  0
 16 15  1  6
 17 12  1  0
 17 16  1  0
 18 19  1  0
 18 16  1  0
 20 18  2  0
M  END
$$$$
