ESA.pdb
     RDKit          3D

 21 20  0  0  1  0  0  0  0  0999 V2000
   19.7949  -10.5216  -17.7986 N   0  0  0  0  0  0  0  0  0  0  0  0
   18.5176  -10.0626  -17.2266 C   0  0  1  0  0  0  0  0  0  0  0  0
   17.6795  -11.2564  -16.9110 C   0  0  0  0  0  0  0  0  0  0  0  0
   18.3005  -12.2350  -15.9741 C   0  0  0  0  0  0  0  0  0  0  0  0
   17.4336  -13.3723  -15.6897 C   0  0  0  0  0  0  0  0  0  0  0  0
   17.4734  -14.4459  -16.3206 O   0  0  0  0  0  0  0  0  0  0  0  0
   18.7592   -9.1832  -16.0804 C   0  0  0  0  0  0  0  0  0  0  0  0
   17.8159   -8.7060  -15.4256 O   0  0  0  0  0  0  0  0  0  0  0  0
   16.4945  -13.2636  -14.6458 O   0  0  0  0  0  0  0  0  0  0  0  0
   22.4719   -8.8908  -14.0907 O   0  0  0  0  0  0  0  0  0  0  0  0
   21.2524   -8.5729  -13.5051 C   0  0  0  0  0  0  0  0  0  0  0  0
   20.2958   -7.9559  -14.5133 C   0  0  2  0  0  0  0  0  0  0  0  0
   20.0868   -8.8210  -15.6459 N   0  0  0  0  0  0  0  0  0  0  0  0
   20.7696   -6.6024  -14.9317 C   0  0  0  0  0  0  0  0  0  0  0  0
   21.5227   -6.4211  -15.9241 O   0  0  0  0  0  0  0  0  0  0  0  0
   19.8536   -3.0632  -13.9745 C   0  0  0  0  0  0  0  0  0  0  0  0
   20.7651   -4.1056  -14.5451 C   0  0  2  0  0  0  0  0  0  0  0  0
   20.3711   -5.4505  -14.1991 N   0  0  0  0  0  0  0  0  0  0  0  0
   22.1510   -3.7965  -14.1390 C   0  0  0  0  0  0  0  0  0  0  0  0
   22.6568   -4.5044  -13.2310 O   0  0  0  0  0  0  0  0  0  0  0  0
   22.9115   -2.7829  -14.6976 O   0  0  0  0  0  0  0  0  0  0  0  0
  2  1  1  1
  2  3  1  0
  3  4  1  0
  4  5  1  0
  5  6  2  0
  5  9  1  0
  7 13  1  0
  7  2  1  0
  8  7  2  0
 12 11  1  1
 11 10  1  0
 12 14  1  0
 12 13  1  0
 14 18  1  0
 15 14  2  0
 17 16  1  1
 18 17  1  0
 19 17  1  0
 19 21  1  0
 20 19  2  0
M  END
$$$$
