ESA.pdb
     RDKit          3D

 21 20  0  0  1  0  0  0  0  0999 V2000
   18.4590  -10.3116  -19.4562 N   0  0  0  0  0  0  0  0  0  0  0  0
   19.8231  -10.0327  -18.9760 C   0  0  1  0  0  0  0  0  0  0  0  0
   20.6202   -9.4679  -20.1042 C   0  0  0  0  0  0  0  0  0  0  0  0
   21.1913  -10.4759  -21.0416 C   0  0  0  0  0  0  0  0  0  0  0  0
   22.0226   -9.8755  -22.0781 C   0  0  0  0  0  0  0  0  0  0  0  0
   21.7193   -9.8645  -23.2864 O   0  0  0  0  0  0  0  0  0  0  0  0
   19.7802   -9.1766  -17.7882 C   0  0  0  0  0  0  0  0  0  0  0  0
   18.9242   -8.2824  -17.6702 O   0  0  0  0  0  0  0  0  0  0  0  0
   23.2387   -9.2710  -21.7052 O   0  0  0  0  0  0  0  0  0  0  0  0
   20.4024  -10.2058  -13.8847 O   0  0  0  0  0  0  0  0  0  0  0  0
   21.2120   -9.1570  -14.3033 C   0  0  0  0  0  0  0  0  0  0  0  0
   20.6398   -8.4699  -15.5332 C   0  0  2  0  0  0  0  0  0  0  0  0
   20.7147   -9.3150  -16.6972 N   0  0  0  0  0  0  0  0  0  0  0  0
   21.3078   -7.1535  -15.7621 C   0  0  0  0  0  0  0  0  0  0  0  0
   22.3395   -7.0277  -16.4725 O   0  0  0  0  0  0  0  0  0  0  0  0
   20.3120   -3.5704  -15.3021 C   0  0  0  0  0  0  0  0  0  0  0  0
   21.3393   -4.6584  -15.3663 C   0  0  2  0  0  0  0  0  0  0  0  0
   20.7809   -5.9744  -15.1667 N   0  0  0  0  0  0  0  0  0  0  0  0
   22.4192   -4.3473  -14.4081 C   0  0  0  0  0  0  0  0  0  0  0  0
   22.4649   -5.0267  -13.3509 O   0  0  0  0  0  0  0  0  0  0  0  0
   23.3702   -3.3610  -14.6099 O   0  0  0  0  0  0  0  0  0  0  0  0
  2  1  1  6
  2  3  1  0
  3  4  1  0
  4  5  1  0
  5  6  2  0
  5  9  1  0
  7 13  1  0
  7  2  1  0
  8  7  2  0
 12 11  1  1
 11 10  1  0
 12 14  1  0
 12 13  1  0
 14 18  1  0
 15 14  2  0
 17 16  1  1
 18 17  1  0
 19 17  1  0
 19 21  1  0
 20 19  2  0
M  END
$$$$
