ESA.pdb
     RDKit          3D

 21 20  0  0  1  0  0  0  0  0999 V2000
   19.2490   -9.9632  -17.3325 N   0  0  0  0  0  0  0  0  0  0  0  0
   20.2265   -8.8754  -17.5067 C   0  0  1  0  0  0  0  0  0  0  0  0
   20.1554   -8.3910  -18.9165 C   0  0  0  0  0  0  0  0  0  0  0  0
   20.9245   -9.2011  -19.9029 C   0  0  0  0  0  0  0  0  0  0  0  0
   21.8014   -8.3895  -20.7384 C   0  0  0  0  0  0  0  0  0  0  0  0
   21.9194   -7.1548  -20.6204 O   0  0  0  0  0  0  0  0  0  0  0  0
   20.0093   -7.8295  -16.5045 C   0  0  0  0  0  0  0  0  0  0  0  0
   18.8655   -7.5483  -16.1057 O   0  0  0  0  0  0  0  0  0  0  0  0
   22.5627   -9.0249  -21.7384 O   0  0  0  0  0  0  0  0  0  0  0  0
   21.2761   -7.1872  -12.8964 O   0  0  0  0  0  0  0  0  0  0  0  0
   21.7361   -6.1804  -13.7364 C   0  0  0  0  0  0  0  0  0  0  0  0
   20.8482   -6.0298  -14.9616 C   0  0  2  0  0  0  0  0  0  0  0  0
   21.0925   -7.0714  -15.9261 N   0  0  0  0  0  0  0  0  0  0  0  0
   21.0040   -4.6715  -15.5636 C   0  0  0  0  0  0  0  0  0  0  0  0
   21.9841   -4.3560  -16.2881 O   0  0  0  0  0  0  0  0  0  0  0  0
   18.8114   -1.5626  -15.6556 C   0  0  0  0  0  0  0  0  0  0  0  0
   20.0378   -2.3696  -15.9517 C   0  0  2  0  0  0  0  0  0  0  0  0
   20.0215   -3.6710  -15.3273 N   0  0  0  0  0  0  0  0  0  0  0  0
   21.2275   -1.5762  -15.5823 C   0  0  0  0  0  0  0  0  0  0  0  0
   21.7039   -1.7537  -14.4321 O   0  0  0  0  0  0  0  0  0  0  0  0
   21.8369   -0.6607  -16.4238 O   0  0  0  0  0  0  0  0  0  0  0  0
  2  1  1  6
  2  3  1  0
  3  4  1  0
  4  5  1  0
  5  6  2  0
  5  9  1  0
  7 13  1  0
  7  2  1  0
  8  7  2  0
 12 11  1  1
 11 10  1  0
 12 14  1  0
 12 13  1  0
 14 18  1  0
 15 14  2  0
 17 16  1  1
 18 17  1  0
 19 17  1  0
 19 21  1  0
 20 19  2  0
M  END
$$$$
