ESA.pdb
     RDKit          3D

 21 20  0  0  1  0  0  0  0  0999 V2000
   18.0772  -11.4222  -15.4355 N   0  0  0  0  0  0  0  0  0  0  0  0
   18.5014  -10.2630  -16.2390 C   0  0  1  0  0  0  0  0  0  0  0  0
   17.5316  -10.0772  -17.3580 C   0  0  0  0  0  0  0  0  0  0  0  0
   17.5406  -11.1545  -18.3877 C   0  0  0  0  0  0  0  0  0  0  0  0
   18.6338  -11.0139  -19.3422 C   0  0  0  0  0  0  0  0  0  0  0  0
   19.5096  -10.1312  -19.2641 O   0  0  0  0  0  0  0  0  0  0  0  0
   18.6618   -9.0830  -15.3861 C   0  0  0  0  0  0  0  0  0  0  0  0
   17.8337   -8.8134  -14.4985 O   0  0  0  0  0  0  0  0  0  0  0  0
   18.7153  -11.9204  -20.4169 O   0  0  0  0  0  0  0  0  0  0  0  0
   22.2944   -7.3115  -14.5481 O   0  0  0  0  0  0  0  0  0  0  0  0
   21.1473   -7.1166  -13.7884 C   0  0  0  0  0  0  0  0  0  0  0  0
   19.9091   -7.0217  -14.6659 C   0  0  2  0  0  0  0  0  0  0  0  0
   19.7739   -8.1731  -15.5207 N   0  0  0  0  0  0  0  0  0  0  0  0
   19.9124   -5.7495  -15.4489 C   0  0  0  0  0  0  0  0  0  0  0  0
   20.4777   -5.6403  -16.5685 O   0  0  0  0  0  0  0  0  0  0  0  0
   18.1503   -2.4130  -15.0936 C   0  0  0  0  0  0  0  0  0  0  0  0
   19.2070   -3.3301  -15.6279 C   0  0  2  0  0  0  0  0  0  0  0  0
   19.2586   -4.5956  -14.9355 N   0  0  0  0  0  0  0  0  0  0  0  0
   20.5020   -2.6202  -15.6130 C   0  0  0  0  0  0  0  0  0  0  0  0
   21.3028   -2.9019  -14.6852 O   0  0  0  0  0  0  0  0  0  0  0  0
   20.8751   -1.6746  -16.5534 O   0  0  0  0  0  0  0  0  0  0  0  0
  2  1  1  1
  2  3  1  0
  3  4  1  0
  4  5  1  0
  5  6  2  0
  5  9  1  0
  7 13  1  0
  7  2  1  0
  8  7  2  0
 12 11  1  6
 11 10  1  0
 12 14  1  0
 12 13  1  0
 14 18  1  0
 15 14  2  0
 17 16  1  1
 18 17  1  0
 19 17  1  0
 19 21  1  0
 20 19  2  0
M  END
$$$$
