ESA.pdb
     RDKit          3D

 21 20  0  0  1  0  0  0  0  0999 V2000
   32.2669  -26.3459  -15.6194 N   0  0  0  0  0  0  0  0  0  0  0  0
   30.9067  -26.7176  -16.0448 C   0  0  1  0  0  0  0  0  0  0  0  0
   30.5346  -25.8908  -17.2302 C   0  0  0  0  0  0  0  0  0  0  0  0
   30.3568  -24.4368  -16.9561 C   0  0  0  0  0  0  0  0  0  0  0  0
   29.0594  -24.1282  -16.3667 C   0  0  0  0  0  0  0  0  0  0  0  0
   28.1831  -24.9840  -16.1390 O   0  0  0  0  0  0  0  0  0  0  0  0
   30.8210  -28.1618  -16.2739 C   0  0  0  0  0  0  0  0  0  0  0  0
   31.7464  -28.7814  -16.8270 O   0  0  0  0  0  0  0  0  0  0  0  0
   28.7685  -22.7916  -16.0316 O   0  0  0  0  0  0  0  0  0  0  0  0
   27.2763  -30.3850  -15.6479 O   0  0  0  0  0  0  0  0  0  0  0  0
   28.4742  -31.0031  -15.3105 C   0  0  0  0  0  0  0  0  0  0  0  0
   29.6494  -30.3747  -16.0429 C   0  0  2  0  0  0  0  0  0  0  0  0
   29.6747  -28.9440  -15.8781 N   0  0  0  0  0  0  0  0  0  0  0  0
   29.6433  -30.7650  -17.4848 C   0  0  0  0  0  0  0  0  0  0  0  0
   29.2125  -30.0076  -18.3935 O   0  0  0  0  0  0  0  0  0  0  0  0
   30.9458  -31.6233  -20.1589 C   0  0  0  0  0  0  0  0  0  0  0  0
   30.1492  -32.5041  -19.2463 C   0  0  2  0  0  0  0  0  0  0  0  0
   30.1380  -32.0383  -17.8801 N   0  0  0  0  0  0  0  0  0  0  0  0
   30.6468  -33.8890  -19.3712 C   0  0  0  0  0  0  0  0  0  0  0  0
   31.1257  -34.4244  -18.3391 O   0  0  0  0  0  0  0  0  0  0  0  0
   30.6140  -34.6180  -20.5481 O   0  0  0  0  0  0  0  0  0  0  0  0
  2  1  1  6
  2  3  1  0
  3  4  1  0
  4  5  1  0
  5  6  2  0
  5  9  1  0
  7 13  1  0
  7  2  1  0
  8  7  2  0
 12 11  1  6
 11 10  1  0
 12 14  1  0
 12 13  1  0
 14 18  1  0
 15 14  2  0
 17 16  1  6
 18 17  1  0
 19 17  1  0
 19 21  1  0
 20 19  2  0
M  END
$$$$
