ESA.pdb
     RDKit          3D

 21 20  0  0  1  0  0  0  0  0999 V2000
   16.7223   -9.3067  -10.4836 N   0  0  0  0  0  0  0  0  0  0  0  0
   17.1605   -9.2740  -11.8893 C   0  0  1  0  0  0  0  0  0  0  0  0
   16.0228   -8.8042  -12.7332 C   0  0  0  0  0  0  0  0  0  0  0  0
   14.9209   -9.7910  -12.9149 C   0  0  0  0  0  0  0  0  0  0  0  0
   15.3064  -10.9191  -13.7543 C   0  0  0  0  0  0  0  0  0  0  0  0
   15.4639  -10.8402  -14.9877 O   0  0  0  0  0  0  0  0  0  0  0  0
   18.3767   -8.4691  -12.0255 C   0  0  0  0  0  0  0  0  0  0  0  0
   18.5049   -7.3899  -11.4212 O   0  0  0  0  0  0  0  0  0  0  0  0
   15.5153  -12.1734  -13.1490 O   0  0  0  0  0  0  0  0  0  0  0  0
   21.6180   -9.6792  -14.4795 O   0  0  0  0  0  0  0  0  0  0  0  0
   21.8815   -8.8875  -13.3683 C   0  0  0  0  0  0  0  0  0  0  0  0
   20.6684   -8.0589  -12.9760 C   0  0  2  0  0  0  0  0  0  0  0  0
   19.4854   -8.8720  -12.8569 N   0  0  0  0  0  0  0  0  0  0  0  0
   20.4684   -6.9289  -13.9324 C   0  0  0  0  0  0  0  0  0  0  0  0
   19.6342   -6.9734  -14.8743 O   0  0  0  0  0  0  0  0  0  0  0  0
   21.4697   -3.3052  -13.9922 C   0  0  0  0  0  0  0  0  0  0  0  0
   21.0869   -4.5899  -14.6601 C   0  0  2  0  0  0  0  0  0  0  0  0
   21.2367   -5.7396  -13.8003 N   0  0  0  0  0  0  0  0  0  0  0  0
   21.8515   -4.7163  -15.9174 C   0  0  0  0  0  0  0  0  0  0  0  0
   22.8643   -5.4615  -15.9033 O   0  0  0  0  0  0  0  0  0  0  0  0
   21.5163   -4.0666  -17.0936 O   0  0  0  0  0  0  0  0  0  0  0  0
  2  1  1  1
  2  3  1  0
  3  4  1  0
  4  5  1  0
  5  6  2  0
  5  9  1  0
  7 13  1  0
  7  2  1  0
  8  7  2  0
 12 11  1  6
 11 10  1  0
 12 14  1  0
 12 13  1  0
 14 18  1  0
 15 14  2  0
 17 16  1  1
 18 17  1  0
 19 17  1  0
 19 21  1  0
 20 19  2  0
M  END
$$$$
