ESA.pdb
     RDKit          3D

 21 20  0  0  1  0  0  0  0  0999 V2000
   17.4661  -11.2074  -15.7778 N   0  0  0  0  0  0  0  0  0  0  0  0
   18.6147  -10.4789  -16.3429 C   0  0  1  0  0  0  0  0  0  0  0  0
   18.3312  -10.1797  -17.7773 C   0  0  0  0  0  0  0  0  0  0  0  0
   18.8316  -11.1957  -18.7459 C   0  0  0  0  0  0  0  0  0  0  0  0
   20.2294  -10.9911  -19.1067 C   0  0  0  0  0  0  0  0  0  0  0  0
   21.1835  -11.5095  -18.4959 O   0  0  0  0  0  0  0  0  0  0  0  0
   18.9153   -9.2951  -15.5344 C   0  0  0  0  0  0  0  0  0  0  0  0
   18.0070   -8.5675  -15.0965 O   0  0  0  0  0  0  0  0  0  0  0  0
   20.5309  -10.1631  -20.2054 O   0  0  0  0  0  0  0  0  0  0  0  0
   21.9373   -6.7445  -12.7483 O   0  0  0  0  0  0  0  0  0  0  0  0
   21.6936   -7.8974  -13.4848 C   0  0  0  0  0  0  0  0  0  0  0  0
   20.5342   -7.7058  -14.4498 C   0  0  2  0  0  0  0  0  0  0  0  0
   20.2640   -8.9049  -15.2006 N   0  0  0  0  0  0  0  0  0  0  0  0
   20.7802   -6.5362  -15.3460 C   0  0  0  0  0  0  0  0  0  0  0  0
   21.4470   -6.6222  -16.4104 O   0  0  0  0  0  0  0  0  0  0  0  0
   19.6242   -2.9266  -15.4387 C   0  0  0  0  0  0  0  0  0  0  0  0
   20.5770   -4.0464  -15.7239 C   0  0  2  0  0  0  0  0  0  0  0  0
   20.2528   -5.2588  -15.0107 N   0  0  0  0  0  0  0  0  0  0  0  0
   21.9518   -3.5786  -15.4551 C   0  0  0  0  0  0  0  0  0  0  0  0
   22.4369   -3.8353  -14.3237 O   0  0  0  0  0  0  0  0  0  0  0  0
   22.7234   -2.8824  -16.3704 O   0  0  0  0  0  0  0  0  0  0  0  0
  2  1  1  1
  2  3  1  0
  3  4  1  0
  4  5  1  0
  5  6  2  0
  5  9  1  0
  7 13  1  0
  7  2  1  0
  8  7  2  0
 12 11  1  6
 11 10  1  0
 12 14  1  0
 12 13  1  0
 14 18  1  0
 15 14  2  0
 17 16  1  1
 18 17  1  0
 19 17  1  0
 19 21  1  0
 20 19  2  0
M  END
$$$$
