ESA.pdb
     RDKit          3D

 21 20  0  0  1  0  0  0  0  0999 V2000
   17.6061  -11.8948  -16.5618 N   0  0  0  0  0  0  0  0  0  0  0  0
   16.9563  -10.6376  -16.1540 C   0  0  1  0  0  0  0  0  0  0  0  0
   16.3276  -10.8375  -14.8153 C   0  0  0  0  0  0  0  0  0  0  0  0
   15.3038  -11.9185  -14.7528 C   0  0  0  0  0  0  0  0  0  0  0  0
   15.5906  -12.9085  -13.7215 C   0  0  0  0  0  0  0  0  0  0  0  0
   15.9346  -14.0808  -13.9659 O   0  0  0  0  0  0  0  0  0  0  0  0
   17.9130   -9.5296  -16.2045 C   0  0  0  0  0  0  0  0  0  0  0  0
   19.1385   -9.7386  -16.2316 O   0  0  0  0  0  0  0  0  0  0  0  0
   15.4760  -12.5308  -12.3696 O   0  0  0  0  0  0  0  0  0  0  0  0
   17.1513   -5.7971  -17.8730 O   0  0  0  0  0  0  0  0  0  0  0  0
   17.7950   -5.7508  -16.6424 C   0  0  0  0  0  0  0  0  0  0  0  0
   18.4606   -7.0777  -16.3130 C   0  0  2  0  0  0  0  0  0  0  0  0
   17.4996   -8.1471  -16.2258 N   0  0  0  0  0  0  0  0  0  0  0  0
   19.2765   -6.9648  -15.0668 C   0  0  0  0  0  0  0  0  0  0  0  0
   18.7659   -6.9668  -13.9160 O   0  0  0  0  0  0  0  0  0  0  0  0
   22.8890   -7.4517  -14.2421 C   0  0  0  0  0  0  0  0  0  0  0  0
   21.5603   -6.8053  -13.9982 C   0  0  2  0  0  0  0  0  0  0  0  0
   20.6914   -6.8489  -15.1500 N   0  0  0  0  0  0  0  0  0  0  0  0
   21.7853   -5.4307  -13.5071 C   0  0  0  0  0  0  0  0  0  0  0  0
   22.4546   -5.2987  -12.4506 O   0  0  0  0  0  0  0  0  0  0  0  0
   21.3050   -4.2963  -14.1397 O   0  0  0  0  0  0  0  0  0  0  0  0
  2  1  1  1
  2  3  1  0
  3  4  1  0
  4  5  1  0
  5  6  2  0
  5  9  1  0
  7 13  1  0
  7  2  1  0
  8  7  2  0
 12 11  1  1
 11 10  1  0
 12 14  1  0
 12 13  1  0
 14 18  1  0
 15 14  2  0
 17 16  1  6
 18 17  1  0
 19 17  1  0
 19 21  1  0
 20 19  2  0
M  END
$$$$
