ESA.pdb
     RDKit          3D

 21 20  0  0  1  0  0  0  0  0999 V2000
   19.3751  -11.9104  -16.5900 N   0  0  0  0  0  0  0  0  0  0  0  0
   18.6254  -10.6512  -16.7371 C   0  0  1  0  0  0  0  0  0  0  0  0
   17.1770  -10.9738  -16.8960 C   0  0  0  0  0  0  0  0  0  0  0  0
   16.8266  -11.7109  -18.1430 C   0  0  0  0  0  0  0  0  0  0  0  0
   15.4053  -12.0229  -18.2336 C   0  0  0  0  0  0  0  0  0  0  0  0
   14.6338  -11.4964  -19.0582 O   0  0  0  0  0  0  0  0  0  0  0  0
   18.9171   -9.7508  -15.6193 C   0  0  0  0  0  0  0  0  0  0  0  0
   18.1274   -9.6317  -14.6661 O   0  0  0  0  0  0  0  0  0  0  0  0
   14.8620  -12.9708  -17.3450 O   0  0  0  0  0  0  0  0  0  0  0  0
   22.6267   -9.1810  -14.2282 O   0  0  0  0  0  0  0  0  0  0  0  0
   21.4735   -8.8802  -13.5136 C   0  0  0  0  0  0  0  0  0  0  0  0
   20.4453   -8.1790  -14.3874 C   0  0  2  0  0  0  0  0  0  0  0  0
   20.1210   -8.9575  -15.5551 N   0  0  0  0  0  0  0  0  0  0  0  0
   20.9081   -6.8057  -14.7497 C   0  0  0  0  0  0  0  0  0  0  0  0
   21.6734   -6.5796  -15.7234 O   0  0  0  0  0  0  0  0  0  0  0  0
   20.0205   -3.3014  -13.6407 C   0  0  0  0  0  0  0  0  0  0  0  0
   20.9362   -4.3356  -14.2194 C   0  0  2  0  0  0  0  0  0  0  0  0
   20.4842   -5.6859  -13.9824 N   0  0  0  0  0  0  0  0  0  0  0  0
   22.3024   -4.0958  -13.7120 C   0  0  0  0  0  0  0  0  0  0  0  0
   22.8592   -3.0181  -14.0436 O   0  0  0  0  0  0  0  0  0  0  0  0
   22.9921   -4.9825  -12.9021 O   0  0  0  0  0  0  0  0  0  0  0  0
  2  1  1  1
  2  3  1  0
  3  4  1  0
  4  5  1  0
  5  6  2  0
  5  9  1  0
  7 13  1  0
  7  2  1  0
  8  7  2  0
 12 11  1  6
 11 10  1  0
 12 14  1  0
 12 13  1  0
 14 18  1  0
 15 14  2  0
 17 16  1  1
 18 17  1  0
 19 17  1  0
 19 21  1  0
 20 19  2  0
M  END
$$$$
