ESA.pdb
     RDKit          3D

 21 20  0  0  1  0  0  0  0  0999 V2000
   18.4946  -13.2717  -16.0441 N   0  0  0  0  0  0  0  0  0  0  0  0
   18.2957  -11.8289  -16.2629 C   0  0  1  0  0  0  0  0  0  0  0  0
   17.0937  -11.3908  -15.4944 C   0  0  0  0  0  0  0  0  0  0  0  0
   15.7973  -11.9427  -15.9800 C   0  0  0  0  0  0  0  0  0  0  0  0
   14.6633  -11.5168  -15.1685 C   0  0  0  0  0  0  0  0  0  0  0  0
   14.1575  -10.3800  -15.2309 O   0  0  0  0  0  0  0  0  0  0  0  0
   19.5167  -11.0901  -15.9331 C   0  0  0  0  0  0  0  0  0  0  0  0
   20.2161  -11.4072  -14.9550 O   0  0  0  0  0  0  0  0  0  0  0  0
   14.0992  -12.4327  -14.2595 O   0  0  0  0  0  0  0  0  0  0  0  0
   22.7152  -10.2366  -17.8351 O   0  0  0  0  0  0  0  0  0  0  0  0
   22.1064   -9.0360  -17.4903 C   0  0  0  0  0  0  0  0  0  0  0  0
   21.1452   -9.2146  -16.3257 C   0  0  2  0  0  0  0  0  0  0  0  0
   19.9775   -9.9651  -16.7106 N   0  0  0  0  0  0  0  0  0  0  0  0
   20.7817   -7.8926  -15.7327 C   0  0  0  0  0  0  0  0  0  0  0  0
   19.8350   -7.1872  -16.1698 O   0  0  0  0  0  0  0  0  0  0  0  0
   21.9512   -5.9656  -12.6722 C   0  0  0  0  0  0  0  0  0  0  0  0
   21.1872   -6.1520  -13.9469 C   0  0  2  0  0  0  0  0  0  0  0  0
   21.5166   -7.3816  -14.6276 N   0  0  0  0  0  0  0  0  0  0  0  0
   21.3856   -4.9605  -14.7966 C   0  0  0  0  0  0  0  0  0  0  0  0
   22.1609   -5.0767  -15.7799 O   0  0  0  0  0  0  0  0  0  0  0  0
   20.7717   -3.7399  -14.5706 O   0  0  0  0  0  0  0  0  0  0  0  0
  2  1  1  1
  2  3  1  0
  3  4  1  0
  4  5  1  0
  5  6  2  0
  5  9  1  0
  7 13  1  0
  7  2  1  0
  8  7  2  0
 12 11  1  6
 11 10  1  0
 12 14  1  0
 12 13  1  0
 14 18  1  0
 15 14  2  0
 17 16  1  1
 18 17  1  0
 19 17  1  0
 19 21  1  0
 20 19  2  0
M  END
$$$$
