ESA.pdb
     RDKit          3D

 21 20  0  0  1  0  0  0  0  0999 V2000
   26.3119  -18.4502  -16.5107 N   0  0  0  0  0  0  0  0  0  0  0  0
   25.4641  -18.6258  -15.3192 C   0  0  1  0  0  0  0  0  0  0  0  0
   26.3206  -18.5103  -14.1026 C   0  0  0  0  0  0  0  0  0  0  0  0
   27.3880  -19.5431  -13.9806 C   0  0  0  0  0  0  0  0  0  0  0  0
   26.8578  -20.8724  -13.7015 C   0  0  0  0  0  0  0  0  0  0  0  0
   26.5298  -21.6851  -14.5871 O   0  0  0  0  0  0  0  0  0  0  0  0
   24.3410  -17.6859  -15.3498 C   0  0  0  0  0  0  0  0  0  0  0  0
   23.5239  -17.6293  -14.4142 O   0  0  0  0  0  0  0  0  0  0  0  0
   26.7033  -21.2719  -12.3599 O   0  0  0  0  0  0  0  0  0  0  0  0
   23.7387  -15.0173  -18.5813 O   0  0  0  0  0  0  0  0  0  0  0  0
   23.2229  -14.6779  -17.3364 C   0  0  0  0  0  0  0  0  0  0  0  0
   22.9675  -15.9119  -16.4854 C   0  0  2  0  0  0  0  0  0  0  0  0
   24.1159  -16.7807  -16.4509 N   0  0  0  0  0  0  0  0  0  0  0  0
   21.7441  -16.6314  -16.9515 C   0  0  0  0  0  0  0  0  0  0  0  0
   21.7872  -17.5938  -17.7619 O   0  0  0  0  0  0  0  0  0  0  0  0
   18.6326  -17.7949  -15.9871 C   0  0  0  0  0  0  0  0  0  0  0  0
   19.2239  -16.8105  -16.9484 C   0  0  2  0  0  0  0  0  0  0  0  0
   20.4623  -16.2367  -16.4785 N   0  0  0  0  0  0  0  0  0  0  0  0
   18.2068  -15.7875  -17.2645 C   0  0  0  0  0  0  0  0  0  0  0  0
   18.2963  -14.6830  -16.6699 O   0  0  0  0  0  0  0  0  0  0  0  0
   17.1748  -15.9780  -18.1681 O   0  0  0  0  0  0  0  0  0  0  0  0
  2  1  1  6
  2  3  1  0
  3  4  1  0
  4  5  1  0
  5  6  2  0
  5  9  1  0
  7 13  1  0
  7  2  1  0
  8  7  2  0
 12 11  1  6
 11 10  1  0
 12 14  1  0
 12 13  1  0
 14 18  1  0
 15 14  2  0
 17 16  1  1
 18 17  1  0
 19 17  1  0
 19 21  1  0
 20 19  2  0
M  END
$$$$
