ESA.pdb
     RDKit          3D

 21 20  0  0  1  0  0  0  0  0999 V2000
   16.9001  -11.6678  -10.9558 N   0  0  0  0  0  0  0  0  0  0  0  0
   15.9186  -10.5934  -11.1828 C   0  0  1  0  0  0  0  0  0  0  0  0
   14.5831  -11.0584  -10.7058 C   0  0  0  0  0  0  0  0  0  0  0  0
   14.1736  -12.4073  -11.1892 C   0  0  0  0  0  0  0  0  0  0  0  0
   12.8675  -12.8149  -10.6855 C   0  0  0  0  0  0  0  0  0  0  0  0
   12.3461  -13.9193  -10.9319 O   0  0  0  0  0  0  0  0  0  0  0  0
   16.3737   -9.3476  -10.5613 C   0  0  0  0  0  0  0  0  0  0  0  0
   16.9702   -9.3534   -9.4702 O   0  0  0  0  0  0  0  0  0  0  0  0
   12.1450  -11.9189   -9.8739 O   0  0  0  0  0  0  0  0  0  0  0  0
   18.3731   -6.3194  -11.9631 O   0  0  0  0  0  0  0  0  0  0  0  0
   17.1728   -5.8416  -11.4511 C   0  0  0  0  0  0  0  0  0  0  0  0
   16.5405   -6.8394  -10.4937 C   0  0  2  0  0  0  0  0  0  0  0  0
   16.1614   -8.0550  -11.1670 N   0  0  0  0  0  0  0  0  0  0  0  0
   15.3856   -6.2228   -9.7744 C   0  0  0  0  0  0  0  0  0  0  0  0
   14.2257   -6.1768  -10.2617 O   0  0  0  0  0  0  0  0  0  0  0  0
   14.7922   -5.0335   -6.2423 C   0  0  0  0  0  0  0  0  0  0  0  0
   14.5091   -5.0545   -7.7128 C   0  0  2  0  0  0  0  0  0  0  0  0
   15.5713   -5.6555   -8.4836 N   0  0  0  0  0  0  0  0  0  0  0  0
   14.1930   -3.6809   -8.1540 C   0  0  0  0  0  0  0  0  0  0  0  0
   15.0440   -3.0961   -8.8718 O   0  0  0  0  0  0  0  0  0  0  0  0
   13.0257   -3.0131   -7.8235 O   0  0  0  0  0  0  0  0  0  0  0  0
  2  1  1  1
  2  3  1  0
  3  4  1  0
  4  5  1  0
  5  6  2  0
  5  9  1  0
  7 13  1  0
  7  2  1  0
  8  7  2  0
 12 11  1  6
 11 10  1  0
 12 14  1  0
 12 13  1  0
 14 18  1  0
 15 14  2  0
 17 16  1  1
 18 17  1  0
 19 17  1  0
 19 21  1  0
 20 19  2  0
M  END
$$$$
