ESA.pdb
     RDKit          3D

 21 20  0  0  1  0  0  0  0  0999 V2000
   16.6981  -11.7516  -17.0311 N   0  0  0  0  0  0  0  0  0  0  0  0
   18.0577  -11.2883  -16.7057 C   0  0  1  0  0  0  0  0  0  0  0  0
   18.9397  -11.5308  -17.8849 C   0  0  0  0  0  0  0  0  0  0  0  0
   19.1286  -12.9635  -18.2489 C   0  0  0  0  0  0  0  0  0  0  0  0
   20.0618  -13.1467  -19.3541 C   0  0  0  0  0  0  0  0  0  0  0  0
   19.7191  -13.1638  -20.5518 O   0  0  0  0  0  0  0  0  0  0  0  0
   18.0277   -9.8933  -16.2597 C   0  0  0  0  0  0  0  0  0  0  0  0
   17.3319   -9.0455  -16.8455 O   0  0  0  0  0  0  0  0  0  0  0  0
   21.4298  -13.3146  -19.0646 O   0  0  0  0  0  0  0  0  0  0  0  0
   18.9694   -8.7767  -12.3982 O   0  0  0  0  0  0  0  0  0  0  0  0
   18.2114   -7.9735  -13.2416 C   0  0  0  0  0  0  0  0  0  0  0  0
   18.7019   -8.0580  -14.6785 C   0  0  2  0  0  0  0  0  0  0  0  0
   18.7923   -9.4229  -15.1298 N   0  0  0  0  0  0  0  0  0  0  0  0
   20.0002   -7.3363  -14.8371 C   0  0  0  0  0  0  0  0  0  0  0  0
   21.1156   -7.9122  -14.7417 O   0  0  0  0  0  0  0  0  0  0  0  0
   20.9670   -3.7827  -15.7767 C   0  0  0  0  0  0  0  0  0  0  0  0
   21.2172   -5.1600  -15.2442 C   0  0  2  0  0  0  0  0  0  0  0  0
   20.0104   -5.9402  -15.1077 N   0  0  0  0  0  0  0  0  0  0  0  0
   21.9690   -5.0488  -13.9779 C   0  0  0  0  0  0  0  0  0  0  0  0
   21.3603   -5.3459  -12.9184 O   0  0  0  0  0  0  0  0  0  0  0  0
   23.2899   -4.6406  -13.8973 O   0  0  0  0  0  0  0  0  0  0  0  0
  2  1  1  6
  2  3  1  0
  3  4  1  0
  4  5  1  0
  5  6  2  0
  5  9  1  0
  7 13  1  0
  7  2  1  0
  8  7  2  0
 12 11  1  1
 11 10  1  0
 12 14  1  0
 12 13  1  0
 14 18  1  0
 15 14  2  0
 17 16  1  1
 18 17  1  0
 19 17  1  0
 19 21  1  0
 20 19  2  0
M  END
$$$$
