ESA.pdb
     RDKit          3D

 21 20  0  0  1  0  0  0  0  0999 V2000
   19.4811  -12.8380  -17.4256 N   0  0  0  0  0  0  0  0  0  0  0  0
   20.5688  -12.0694  -16.7969 C   0  0  1  0  0  0  0  0  0  0  0  0
   21.8339  -12.3346  -17.5431 C   0  0  0  0  0  0  0  0  0  0  0  0
   21.6771  -13.1406  -18.7867 C   0  0  0  0  0  0  0  0  0  0  0  0
   22.4125  -12.5845  -19.9161 C   0  0  0  0  0  0  0  0  0  0  0  0
   23.6363  -12.7422  -20.0885 O   0  0  0  0  0  0  0  0  0  0  0  0
   20.2101  -10.6516  -16.7155 C   0  0  0  0  0  0  0  0  0  0  0  0
   19.7382  -10.0500  -17.6962 O   0  0  0  0  0  0  0  0  0  0  0  0
   21.7117  -11.8246  -20.8726 O   0  0  0  0  0  0  0  0  0  0  0  0
   18.2505   -6.9832  -14.7474 O   0  0  0  0  0  0  0  0  0  0  0  0
   18.6132   -8.3224  -14.8241 C   0  0  0  0  0  0  0  0  0  0  0  0
   19.9894   -8.4906  -15.4487 C   0  0  2  0  0  0  0  0  0  0  0  0
   20.3793   -9.8758  -15.5104 N   0  0  0  0  0  0  0  0  0  0  0  0
   21.0022   -7.6630  -14.7269 C   0  0  0  0  0  0  0  0  0  0  0  0
   21.5467   -8.0353  -13.6545 O   0  0  0  0  0  0  0  0  0  0  0  0
   22.6707   -4.3118  -15.4067 C   0  0  0  0  0  0  0  0  0  0  0  0
   22.2925   -5.4964  -14.5720 C   0  0  2  0  0  0  0  0  0  0  0  0
   21.3887   -6.3971  -15.2469 N   0  0  0  0  0  0  0  0  0  0  0  0
   21.7585   -5.0156  -13.2817 C   0  0  0  0  0  0  0  0  0  0  0  0
   20.5098   -5.0298  -13.1337 O   0  0  0  0  0  0  0  0  0  0  0  0
   22.5493   -4.5567  -12.2416 O   0  0  0  0  0  0  0  0  0  0  0  0
  2  1  1  6
  2  3  1  0
  3  4  1  0
  4  5  1  0
  5  6  2  0
  5  9  1  0
  7 13  1  0
  7  2  1  0
  8  7  2  0
 12 11  1  1
 11 10  1  0
 12 14  1  0
 12 13  1  0
 14 18  1  0
 15 14  2  0
 17 16  1  6
 18 17  1  0
 19 17  1  0
 19 21  1  0
 20 19  2  0
M  END
$$$$
