ESA.pdb
     RDKit          3D

 21 20  0  0  1  0  0  0  0  0999 V2000
   11.4126  -10.4222   -8.7507 N   0  0  0  0  0  0  0  0  0  0  0  0
   12.5005  -10.2052   -9.7196 C   0  0  1  0  0  0  0  0  0  0  0  0
   11.9021   -9.8128  -11.0293 C   0  0  0  0  0  0  0  0  0  0  0  0
   11.3747  -10.9417  -11.8468 C   0  0  0  0  0  0  0  0  0  0  0  0
   12.4322  -11.7459  -12.4473 C   0  0  0  0  0  0  0  0  0  0  0  0
   12.6246  -11.8279  -13.6756 O   0  0  0  0  0  0  0  0  0  0  0  0
   13.4677   -9.2397   -9.1922 C   0  0  0  0  0  0  0  0  0  0  0  0
   13.1537   -8.4403   -8.2930 O   0  0  0  0  0  0  0  0  0  0  0  0
   13.2909  -12.4754  -11.6025 O   0  0  0  0  0  0  0  0  0  0  0  0
   17.2708   -8.3855  -11.0086 O   0  0  0  0  0  0  0  0  0  0  0  0
   17.1701   -8.4500   -9.6241 C   0  0  0  0  0  0  0  0  0  0  0  0
   15.7482   -8.1809   -9.1572 C   0  0  2  0  0  0  0  0  0  0  0  0
   14.8248   -9.1571   -9.6759 N   0  0  0  0  0  0  0  0  0  0  0  0
   15.3328   -6.7884   -9.5036 C   0  0  0  0  0  0  0  0  0  0  0  0
   14.7464   -6.5004  -10.5798 O   0  0  0  0  0  0  0  0  0  0  0  0
   15.3574   -3.4813   -7.6303 C   0  0  0  0  0  0  0  0  0  0  0  0
   15.1867   -4.3568   -8.8334 C   0  0  2  0  0  0  0  0  0  0  0  0
   15.5961   -5.7214   -8.6011 N   0  0  0  0  0  0  0  0  0  0  0  0
   15.8918   -3.7375   -9.9738 C   0  0  0  0  0  0  0  0  0  0  0  0
   16.8401   -4.3857  -10.4856 O   0  0  0  0  0  0  0  0  0  0  0  0
   15.5680   -2.4987  -10.5012 O   0  0  0  0  0  0  0  0  0  0  0  0
  2  1  1  1
  2  3  1  0
  3  4  1  0
  4  5  1  0
  5  6  2  0
  5  9  1  0
  7 13  1  0
  7  2  1  0
  8  7  2  0
 12 11  1  6
 11 10  1  0
 12 14  1  0
 12 13  1  0
 14 18  1  0
 15 14  2  0
 17 16  1  1
 18 17  1  0
 19 17  1  0
 19 21  1  0
 20 19  2  0
M  END
$$$$
