QHS.pdb
     RDKit          3D

 26 26  0  0  1  0  0  0  0  0999 V2000
    8.3985  -13.3797   16.0709 N   0  0  0  0  0  0  0  0  0  0  0  0
    8.4779  -14.6904   15.5005 C   0  0  0  0  0  0  0  0  0  0  0  0
    7.9528  -14.8939   14.3853 O   0  0  0  0  0  0  0  0  0  0  0  0
    9.1708  -15.7327   16.2395 C   0  0  0  0  0  0  0  0  0  0  0  0
    9.7547  -15.3467   17.5569 C   0  0  0  0  0  0  0  0  0  0  0  0
   10.3716  -16.4553   18.3360 C   0  0  2  0  0  0  0  0  0  0  0  0
    9.7455  -17.7131   18.0842 N   0  0  0  0  0  0  0  0  0  0  0  0
   10.5151  -16.1195   19.7806 C   0  0  0  0  0  0  0  0  0  0  0  0
   11.1001  -15.0299   20.0794 O   0  0  0  0  0  0  0  0  0  0  0  0
   10.0461  -16.9344   20.8081 N   0  0  0  0  0  0  0  0  0  0  0  0
   10.0627  -16.5346   22.2216 C   0  0  1  0  0  0  0  0  0  0  0  0
    8.6859  -16.3385   22.7340 C   0  0  0  0  0  0  0  0  0  0  0  0
    7.9916  -15.1339   22.2955 C   0  0  0  0  0  0  0  0  0  0  0  0
    8.4797  -14.1521   21.4678 C   0  0  0  0  0  0  0  0  0  0  0  0
    7.5440  -13.1991   21.2987 N   0  0  0  0  0  0  0  0  0  0  0  0
    6.4798  -13.5956   22.0231 C   0  0  0  0  0  0  0  0  0  0  0  0
    6.7474  -14.7688   22.6291 N   0  0  0  0  0  0  0  0  0  0  0  0
   10.6783  -17.6935   22.9732 C   0  0  0  0  0  0  0  0  0  0  0  0
   10.6203  -18.8499   22.4698 O   0  0  0  0  0  0  0  0  0  0  0  0
   12.8248  -19.2326   27.1091 O   0  0  0  0  0  0  0  0  0  0  0  0
   12.4891  -18.1915   26.2669 C   0  0  0  0  0  0  0  0  0  0  0  0
   11.6544  -18.6438   25.0917 C   0  0  2  0  0  0  0  0  0  0  0  0
   11.3161  -17.5408   24.2143 N   0  0  0  0  0  0  0  0  0  0  0  0
   10.4340  -19.3722   25.5039 C   0  0  0  0  0  0  0  0  0  0  0  0
   10.4902  -20.7277   25.8311 O   0  0  0  0  0  0  0  0  0  0  0  0
    9.3281  -18.8120   25.5732 O   0  0  0  0  0  0  0  0  0  0  0  0
  2  3  2  0
  2  1  1  0
  4  2  1  0
  5  6  1  0
  5  4  1  0
  6  7  1  1
  8  6  1  0
  8  9  2  0
 10  8  1  0
 11 10  1  0
 12 13  1  0
 11 12  1  1
 13 14  2  0
 14 15  1  0
 16 15  1  0
 17 13  1  0
 17 16  2  0
 18 11  1  0
 19 18  2  0
 21 20  1  0
 22 23  1  0
 22 21  1  1
 23 18  1  0
 24 22  1  0
 25 24  1  0
 26 24  2  0
M  END
$$$$
