QHS.pdb
     RDKit          3D

 26 26  0  0  1  0  0  0  0  0999 V2000
   15.2403  -13.0396   17.3759 N   0  0  0  0  0  0  0  0  0  0  0  0
   15.5351  -14.3917   17.0089 C   0  0  0  0  0  0  0  0  0  0  0  0
   16.3071  -14.5998   16.0491 O   0  0  0  0  0  0  0  0  0  0  0  0
   14.9278  -15.4702   17.7710 C   0  0  0  0  0  0  0  0  0  0  0  0
   14.0242  -15.0753   18.8904 C   0  0  0  0  0  0  0  0  0  0  0  0
   13.3547  -16.1983   19.6026 C   0  0  2  0  0  0  0  0  0  0  0  0
   12.6807  -17.0854   18.7103 N   0  0  0  0  0  0  0  0  0  0  0  0
   12.5220  -15.7271   20.7448 C   0  0  0  0  0  0  0  0  0  0  0  0
   13.0708  -14.9632   21.6016 O   0  0  0  0  0  0  0  0  0  0  0  0
   11.1862  -16.0813   20.9180 N   0  0  0  0  0  0  0  0  0  0  0  0
   10.4051  -15.7129   22.1064 C   0  0  1  0  0  0  0  0  0  0  0  0
    8.9849  -15.4752   21.7556 C   0  0  0  0  0  0  0  0  0  0  0  0
    8.7143  -14.3739   20.8395 C   0  0  0  0  0  0  0  0  0  0  0  0
    9.6179  -13.4601   20.3539 C   0  0  0  0  0  0  0  0  0  0  0  0
    8.9884  -12.5941   19.5376 N   0  0  0  0  0  0  0  0  0  0  0  0
    7.6968  -12.9762   19.5215 C   0  0  0  0  0  0  0  0  0  0  0  0
    7.5266  -14.0555   20.3098 N   0  0  0  0  0  0  0  0  0  0  0  0
   10.4627  -16.9104   23.0282 C   0  0  0  0  0  0  0  0  0  0  0  0
   10.1009  -18.0380   22.5904 O   0  0  0  0  0  0  0  0  0  0  0  0
   13.2277  -17.3695   26.0420 O   0  0  0  0  0  0  0  0  0  0  0  0
   12.4853  -18.3603   25.4313 C   0  0  0  0  0  0  0  0  0  0  0  0
   11.0394  -17.9660   25.2411 C   0  0  2  0  0  0  0  0  0  0  0  0
   10.9034  -16.8246   24.3582 N   0  0  0  0  0  0  0  0  0  0  0  0
   10.3413  -17.7174   26.5221 C   0  0  0  0  0  0  0  0  0  0  0  0
    9.7153  -16.4942   26.7660 O   0  0  0  0  0  0  0  0  0  0  0  0
   10.2869  -18.5767   27.4166 O   0  0  0  0  0  0  0  0  0  0  0  0
  2  3  2  0
  2  1  1  0
  4  2  1  0
  5  6  1  0
  5  4  1  0
  6  7  1  6
  8  6  1  0
  8  9  2  0
 10  8  1  0
 11 10  1  0
 12 13  1  0
 11 12  1  6
 13 14  2  0
 14 15  1  0
 16 15  1  0
 17 13  1  0
 17 16  2  0
 18 11  1  0
 19 18  2  0
 21 20  1  0
 22 23  1  0
 22 21  1  1
 23 18  1  0
 24 22  1  0
 25 24  1  0
 26 24  2  0
M  END
$$$$
