QHS.pdb
     RDKit          3D

 26 26  0  0  1  0  0  0  0  0999 V2000
   15.1540  -19.2935   16.2295 N   0  0  0  0  0  0  0  0  0  0  0  0
   14.8099  -18.9758   14.8766 C   0  0  0  0  0  0  0  0  0  0  0  0
   15.2737  -19.6820   13.9563 O   0  0  0  0  0  0  0  0  0  0  0  0
   13.9301  -17.8461   14.6268 C   0  0  0  0  0  0  0  0  0  0  0  0
   12.5815  -18.1559   14.0692 C   0  0  0  0  0  0  0  0  0  0  0  0
   11.7607  -16.9764   13.6799 C   0  0  2  0  0  0  0  0  0  0  0  0
   12.2176  -16.3686   12.4719 N   0  0  0  0  0  0  0  0  0  0  0  0
   11.5661  -16.0251   14.8101 C   0  0  0  0  0  0  0  0  0  0  0  0
   12.3930  -15.0648   14.9241 O   0  0  0  0  0  0  0  0  0  0  0  0
   10.5344  -16.1376   15.7388 N   0  0  0  0  0  0  0  0  0  0  0  0
   10.3357  -15.1838   16.8383 C   0  0  1  0  0  0  0  0  0  0  0  0
    8.9365  -15.2194   17.3257 C   0  0  0  0  0  0  0  0  0  0  0  0
    8.5982  -14.3015   18.4066 C   0  0  0  0  0  0  0  0  0  0  0  0
    9.4463  -13.4349   19.0525 C   0  0  0  0  0  0  0  0  0  0  0  0
    8.7653  -12.7571   19.9954 N   0  0  0  0  0  0  0  0  0  0  0  0
    7.4974  -13.2074   19.9289 C   0  0  0  0  0  0  0  0  0  0  0  0
    7.3921  -14.1442   18.9663 N   0  0  0  0  0  0  0  0  0  0  0  0
   11.2321  -15.6535   17.9619 C   0  0  0  0  0  0  0  0  0  0  0  0
   11.3959  -16.8931   18.1372 O   0  0  0  0  0  0  0  0  0  0  0  0
   14.7337  -14.0053   19.0597 O   0  0  0  0  0  0  0  0  0  0  0  0
   13.8781  -14.1571   20.1324 C   0  0  0  0  0  0  0  0  0  0  0  0
   12.8033  -15.1869   19.8744 C   0  0  2  0  0  0  0  0  0  0  0  0
   11.8954  -14.7674   18.8253 N   0  0  0  0  0  0  0  0  0  0  0  0
   12.0520  -15.5480   21.0972 C   0  0  0  0  0  0  0  0  0  0  0  0
   12.7006  -16.1370   22.1834 O   0  0  0  0  0  0  0  0  0  0  0  0
   10.8319  -15.3432   21.2014 O   0  0  0  0  0  0  0  0  0  0  0  0
  2  3  2  0
  2  1  1  0
  4  2  1  0
  5  6  1  0
  5  4  1  0
  6  7  1  6
  8  6  1  0
  8  9  2  0
 10  8  1  0
 11 10  1  0
 12 13  1  0
 11 12  1  1
 13 14  2  0
 14 15  1  0
 16 15  1  0
 17 13  1  0
 17 16  2  0
 18 11  1  0
 19 18  2  0
 21 20  1  0
 22 23  1  0
 22 21  1  1
 23 18  1  0
 24 22  1  0
 25 24  1  0
 26 24  2  0
M  END
$$$$
