QHS.pdb
     RDKit          3D

 26 26  0  0  1  0  0  0  0  0999 V2000
   10.0211  -14.2992   11.6553 N   0  0  0  0  0  0  0  0  0  0  0  0
    9.1872  -15.3344   12.1870 C   0  0  0  0  0  0  0  0  0  0  0  0
    8.0907  -15.5664   11.6351 O   0  0  0  0  0  0  0  0  0  0  0  0
    9.6513  -16.0787   13.3460 C   0  0  0  0  0  0  0  0  0  0  0  0
   10.9525  -15.6541   13.9396 C   0  0  0  0  0  0  0  0  0  0  0  0
   11.3585  -16.3729   15.1786 C   0  0  2  0  0  0  0  0  0  0  0  0
   10.5355  -17.5082   15.4452 N   0  0  0  0  0  0  0  0  0  0  0  0
   11.5271  -15.4514   16.3373 C   0  0  0  0  0  0  0  0  0  0  0  0
   12.3203  -14.4662   16.1992 O   0  0  0  0  0  0  0  0  0  0  0  0
   10.8662  -15.6171   17.5519 N   0  0  0  0  0  0  0  0  0  0  0  0
   11.1426  -14.7925   18.7359 C   0  0  1  0  0  0  0  0  0  0  0  0
    9.9911  -14.8002   19.6689 C   0  0  0  0  0  0  0  0  0  0  0  0
    8.8679  -13.9360   19.3267 C   0  0  0  0  0  0  0  0  0  0  0  0
    8.8115  -13.0166   18.3074 C   0  0  0  0  0  0  0  0  0  0  0  0
    7.6093  -12.4108   18.3133 N   0  0  0  0  0  0  0  0  0  0  0  0
    6.9262  -12.9584   19.3371 C   0  0  0  0  0  0  0  0  0  0  0  0
    7.6863  -13.8840   19.9542 N   0  0  0  0  0  0  0  0  0  0  0  0
   12.3121  -15.4490   19.4347 C   0  0  0  0  0  0  0  0  0  0  0  0
   12.3644  -16.7093   19.4883 O   0  0  0  0  0  0  0  0  0  0  0  0
   16.0159  -13.8997   19.4851 O   0  0  0  0  0  0  0  0  0  0  0  0
   15.6747  -14.3790   20.7339 C   0  0  0  0  0  0  0  0  0  0  0  0
   14.4915  -15.3174   20.6903 C   0  0  2  0  0  0  0  0  0  0  0  0
   13.3499  -14.7153   20.0307 N   0  0  0  0  0  0  0  0  0  0  0  0
   14.1114  -15.8208   22.0291 C   0  0  0  0  0  0  0  0  0  0  0  0
   15.0136  -16.5618   22.7936 O   0  0  0  0  0  0  0  0  0  0  0  0
   12.9899  -15.6056   22.5162 O   0  0  0  0  0  0  0  0  0  0  0  0
  2  3  2  0
  2  1  1  0
  4  2  1  0
  5  6  1  0
  5  4  1  0
  6  7  1  1
  8  6  1  0
  8  9  2  0
 10  8  1  0
 11 10  1  0
 12 13  1  0
 11 12  1  1
 13 14  2  0
 14 15  1  0
 16 15  1  0
 17 13  1  0
 17 16  2  0
 18 11  1  0
 19 18  2  0
 21 20  1  0
 22 23  1  0
 22 21  1  1
 23 18  1  0
 24 22  1  0
 25 24  1  0
 26 24  2  0
M  END
$$$$
