QHS.pdb
     RDKit          3D

 26 26  0  0  1  0  0  0  0  0999 V2000
   11.1823  -20.6479   19.0029 N   0  0  0  0  0  0  0  0  0  0  0  0
   10.7578  -19.4590   18.3276 C   0  0  0  0  0  0  0  0  0  0  0  0
   11.6213  -18.7249   17.8021 O   0  0  0  0  0  0  0  0  0  0  0  0
    9.3374  -19.1548   18.2758 C   0  0  0  0  0  0  0  0  0  0  0  0
    8.4212  -20.1070   18.9682 C   0  0  0  0  0  0  0  0  0  0  0  0
    6.9721  -19.7733   18.8940 C   0  0  2  0  0  0  0  0  0  0  0  0
    6.6223  -19.1309   17.6683 N   0  0  0  0  0  0  0  0  0  0  0  0
    6.4911  -19.0683   20.1154 C   0  0  0  0  0  0  0  0  0  0  0  0
    6.3442  -17.8062   20.0509 O   0  0  0  0  0  0  0  0  0  0  0  0
    6.2000  -19.7186   21.3121 N   0  0  0  0  0  0  0  0  0  0  0  0
    5.6773  -19.0248   22.4969 C   0  0  1  0  0  0  0  0  0  0  0  0
    4.4461  -19.6813   22.9965 C   0  0  0  0  0  0  0  0  0  0  0  0
    3.2417  -19.5071   22.1936 C   0  0  0  0  0  0  0  0  0  0  0  0
    3.1223  -18.7967   21.0239 C   0  0  0  0  0  0  0  0  0  0  0  0
    1.8522  -18.8656   20.5827 N   0  0  0  0  0  0  0  0  0  0  0  0
    1.1906  -19.6192   21.4821 C   0  0  0  0  0  0  0  0  0  0  0  0
    2.0300  -20.0102   22.4607 N   0  0  0  0  0  0  0  0  0  0  0  0
    6.7426  -19.1619   23.5615 C   0  0  0  0  0  0  0  0  0  0  0  0
    7.4937  -20.1767   23.5490 O   0  0  0  0  0  0  0  0  0  0  0  0
    8.9575  -17.1693   27.4585 O   0  0  0  0  0  0  0  0  0  0  0  0
    8.1251  -17.0329   26.3657 C   0  0  0  0  0  0  0  0  0  0  0  0
    7.9086  -18.3381   25.6365 C   0  0  2  0  0  0  0  0  0  0  0  0
    6.9358  -18.2051   24.5703 N   0  0  0  0  0  0  0  0  0  0  0  0
    7.5352  -19.4453   26.5446 C   0  0  0  0  0  0  0  0  0  0  0  0
    8.5146  -20.1629   27.2326 O   0  0  0  0  0  0  0  0  0  0  0  0
    6.3516  -19.7734   26.7263 O   0  0  0  0  0  0  0  0  0  0  0  0
  2  3  2  0
  2  1  1  0
  4  2  1  0
  5  6  1  0
  5  4  1  0
  6  7  1  6
  8  6  1  0
  8  9  2  0
 10  8  1  0
 11 10  1  0
 12 13  1  0
 11 12  1  1
 13 14  2  0
 14 15  1  0
 16 15  1  0
 17 13  1  0
 17 16  2  0
 18 11  1  0
 19 18  2  0
 21 20  1  0
 22 23  1  0
 22 21  1  1
 23 18  1  0
 24 22  1  0
 25 24  1  0
 26 24  2  0
M  END
$$$$
