QHS.pdb
     RDKit          3D

 26 26  0  0  1  0  0  0  0  0999 V2000
    7.7764  -14.8626   14.6900 N   0  0  0  0  0  0  0  0  0  0  0  0
    7.2677  -16.1615   14.3677 C   0  0  0  0  0  0  0  0  0  0  0  0
    6.8854  -16.3850   13.1996 O   0  0  0  0  0  0  0  0  0  0  0  0
    7.2204  -17.1716   15.4119 C   0  0  0  0  0  0  0  0  0  0  0  0
    7.5270  -16.7177   16.7995 C   0  0  0  0  0  0  0  0  0  0  0  0
    8.5140  -17.5476   17.5437 C   0  0  2  0  0  0  0  0  0  0  0  0
    9.0752  -18.5825   16.7367 N   0  0  0  0  0  0  0  0  0  0  0  0
    7.9858  -18.0120   18.8574 C   0  0  0  0  0  0  0  0  0  0  0  0
    7.3939  -17.1585   19.5921 O   0  0  0  0  0  0  0  0  0  0  0  0
    8.1102  -19.3215   19.3148 N   0  0  0  0  0  0  0  0  0  0  0  0
    7.7265  -19.7389   20.6700 C   0  0  1  0  0  0  0  0  0  0  0  0
    7.3695  -21.1771   20.7015 C   0  0  0  0  0  0  0  0  0  0  0  0
    7.0299  -21.7369   22.0041 C   0  0  0  0  0  0  0  0  0  0  0  0
    7.7716  -22.6282   22.7408 C   0  0  0  0  0  0  0  0  0  0  0  0
    7.1254  -22.9128   23.8870 N   0  0  0  0  0  0  0  0  0  0  0  0
    5.9855  -22.1956   23.8547 C   0  0  0  0  0  0  0  0  0  0  0  0
    5.9240  -21.4810   22.7142 N   0  0  0  0  0  0  0  0  0  0  0  0
    8.9571  -19.5460   21.5275 C   0  0  0  0  0  0  0  0  0  0  0  0
   10.0945  -19.7618   21.0236 O   0  0  0  0  0  0  0  0  0  0  0  0
    9.6889  -16.5899   23.9361 O   0  0  0  0  0  0  0  0  0  0  0  0
    9.9037  -17.7633   24.6308 C   0  0  0  0  0  0  0  0  0  0  0  0
   10.0527  -18.9576   23.7177 C   0  0  2  0  0  0  0  0  0  0  0  0
    8.8919  -19.1349   22.8680 N   0  0  0  0  0  0  0  0  0  0  0  0
   10.3528  -20.2060   24.4536 C   0  0  0  0  0  0  0  0  0  0  0  0
   11.5721  -20.3685   25.1126 O   0  0  0  0  0  0  0  0  0  0  0  0
    9.5413  -21.1439   24.5116 O   0  0  0  0  0  0  0  0  0  0  0  0
  2  3  2  0
  2  1  1  0
  4  2  1  0
  5  6  1  0
  5  4  1  0
  6  7  1  6
  8  6  1  0
  8  9  2  0
 10  8  1  0
 11 10  1  0
 12 13  1  0
 11 12  1  6
 13 14  2  0
 14 15  1  0
 16 15  1  0
 17 13  1  0
 17 16  2  0
 18 11  1  0
 19 18  2  0
 21 20  1  0
 22 23  1  0
 22 21  1  1
 23 18  1  0
 24 22  1  0
 25 24  1  0
 26 24  2  0
M  END
$$$$
