QHS.pdb
     RDKit          3D

 26 26  0  0  1  0  0  0  0  0999 V2000
   15.3710  -13.2694   17.6368 N   0  0  0  0  0  0  0  0  0  0  0  0
   14.5544  -14.1658   16.8757 C   0  0  0  0  0  0  0  0  0  0  0  0
   14.4785  -14.0072   15.6389 O   0  0  0  0  0  0  0  0  0  0  0  0
   13.8488  -15.2291   17.5717 C   0  0  0  0  0  0  0  0  0  0  0  0
   14.1071  -15.3604   19.0351 C   0  0  0  0  0  0  0  0  0  0  0  0
   13.2781  -16.3727   19.7456 C   0  0  2  0  0  0  0  0  0  0  0  0
   12.6336  -17.2768   18.8487 N   0  0  0  0  0  0  0  0  0  0  0  0
   12.3694  -15.7539   20.7515 C   0  0  0  0  0  0  0  0  0  0  0  0
   12.8586  -14.8721   21.5273 O   0  0  0  0  0  0  0  0  0  0  0  0
   11.0251  -16.0933   20.8824 N   0  0  0  0  0  0  0  0  0  0  0  0
   10.1317  -15.4705   21.8683 C   0  0  1  0  0  0  0  0  0  0  0  0
    8.7516  -15.3602   21.3393 C   0  0  0  0  0  0  0  0  0  0  0  0
    8.5462  -14.4227   20.2418 C   0  0  0  0  0  0  0  0  0  0  0  0
    9.4799  -13.5828   19.6850 C   0  0  0  0  0  0  0  0  0  0  0  0
    8.9101  -12.8677   18.6969 N   0  0  0  0  0  0  0  0  0  0  0  0
    7.6251  -13.2686   18.6464 C   0  0  0  0  0  0  0  0  0  0  0  0
    7.4005  -14.2118   19.5819 N   0  0  0  0  0  0  0  0  0  0  0  0
   10.1022  -16.4098   23.0531 C   0  0  0  0  0  0  0  0  0  0  0  0
   10.4279  -17.6180   22.8849 O   0  0  0  0  0  0  0  0  0  0  0  0
   10.5673  -15.2454   26.9215 O   0  0  0  0  0  0  0  0  0  0  0  0
    9.5288  -16.1439   26.7805 C   0  0  0  0  0  0  0  0  0  0  0  0
    9.5862  -16.8940   25.4704 C   0  0  2  0  0  0  0  0  0  0  0  0
    9.7265  -15.9965   24.3409 N   0  0  0  0  0  0  0  0  0  0  0  0
    8.4286  -17.7953   25.2763 C   0  0  0  0  0  0  0  0  0  0  0  0
    8.1574  -18.8130   26.1919 O   0  0  0  0  0  0  0  0  0  0  0  0
    7.6649  -17.6815   24.3041 O   0  0  0  0  0  0  0  0  0  0  0  0
  2  3  2  0
  2  1  1  0
  4  2  1  0
  5  6  1  0
  5  4  1  0
  6  7  1  6
  8  6  1  0
  8  9  2  0
 10  8  1  0
 11 10  1  0
 12 13  1  0
 11 12  1  6
 13 14  2  0
 14 15  1  0
 16 15  1  0
 17 13  1  0
 17 16  2  0
 18 11  1  0
 19 18  2  0
 21 20  1  0
 22 23  1  0
 22 21  1  1
 23 18  1  0
 24 22  1  0
 25 24  1  0
 26 24  2  0
M  END
$$$$
