QHS.pdb
     RDKit          3D

 26 26  0  0  1  0  0  0  0  0999 V2000
    7.5398  -12.4953   20.1680 N   0  0  0  0  0  0  0  0  0  0  0  0
    7.3193  -13.0043   18.8482 C   0  0  0  0  0  0  0  0  0  0  0  0
    6.8063  -12.2532   17.9918 O   0  0  0  0  0  0  0  0  0  0  0  0
    7.7055  -14.3745   18.5547 C   0  0  0  0  0  0  0  0  0  0  0  0
    8.2889  -15.1630   19.6787 C   0  0  0  0  0  0  0  0  0  0  0  0
    8.7960  -16.5159   19.3192 C   0  0  2  0  0  0  0  0  0  0  0  0
    7.8141  -17.3064   18.6498 N   0  0  0  0  0  0  0  0  0  0  0  0
    9.4524  -17.1978   20.4700 C   0  0  0  0  0  0  0  0  0  0  0  0
    8.8535  -18.1939   20.9874 O   0  0  0  0  0  0  0  0  0  0  0  0
   10.6764  -16.7990   21.0016 N   0  0  0  0  0  0  0  0  0  0  0  0
   11.3259  -17.4860   22.1261 C   0  0  1  0  0  0  0  0  0  0  0  0
   12.8005  -17.3626   22.0433 C   0  0  0  0  0  0  0  0  0  0  0  0
   13.4748  -18.2259   21.0813 C   0  0  0  0  0  0  0  0  0  0  0  0
   13.1848  -19.5395   20.8025 C   0  0  0  0  0  0  0  0  0  0  0  0
   14.0298  -19.9971   19.8596 N   0  0  0  0  0  0  0  0  0  0  0  0
   14.8398  -18.9636   19.5586 C   0  0  0  0  0  0  0  0  0  0  0  0
   14.5062  -17.8875   20.2974 N   0  0  0  0  0  0  0  0  0  0  0  0
   10.8678  -16.7642   23.3735 C   0  0  0  0  0  0  0  0  0  0  0  0
   11.0319  -15.5149   23.4532 O   0  0  0  0  0  0  0  0  0  0  0  0
    8.0542  -18.3328   26.0969 O   0  0  0  0  0  0  0  0  0  0  0  0
    8.3546  -16.9955   25.9320 C   0  0  0  0  0  0  0  0  0  0  0  0
    9.8229  -16.7607   25.6652 C   0  0  2  0  0  0  0  0  0  0  0  0
   10.2639  -17.4250   24.4548 N   0  0  0  0  0  0  0  0  0  0  0  0
   10.6802  -17.1436   26.8092 C   0  0  0  0  0  0  0  0  0  0  0  0
   10.5780  -16.4760   28.0303 O   0  0  0  0  0  0  0  0  0  0  0  0
   11.5122  -18.0615   26.7265 O   0  0  0  0  0  0  0  0  0  0  0  0
  2  3  2  0
  2  1  1  0
  4  2  1  0
  5  6  1  0
  5  4  1  0
  6  7  1  1
  8  6  1  0
  8  9  2  0
 10  8  1  0
 11 10  1  0
 12 13  1  0
 11 12  1  6
 13 14  2  0
 14 15  1  0
 16 15  1  0
 17 13  1  0
 17 16  2  0
 18 11  1  0
 19 18  2  0
 21 20  1  0
 22 23  1  0
 22 21  1  1
 23 18  1  0
 24 22  1  0
 25 24  1  0
 26 24  2  0
M  END
$$$$
