QHS.pdb
     RDKit          3D

 26 26  0  0  1  0  0  0  0  0999 V2000
   16.7606  -13.8656   16.2701 N   0  0  0  0  0  0  0  0  0  0  0  0
   15.8450  -14.4208   15.3198 C   0  0  0  0  0  0  0  0  0  0  0  0
   16.2548  -14.6748   14.1673 O   0  0  0  0  0  0  0  0  0  0  0  0
   14.4748  -14.6716   15.7347 C   0  0  0  0  0  0  0  0  0  0  0  0
   14.1231  -14.3164   17.1403 C   0  0  0  0  0  0  0  0  0  0  0  0
   13.6047  -15.4348   17.9753 C   0  0  2  0  0  0  0  0  0  0  0  0
   12.9135  -16.4166   17.2036 N   0  0  0  0  0  0  0  0  0  0  0  0
   12.8528  -14.9494   19.1666 C   0  0  0  0  0  0  0  0  0  0  0  0
   13.3403  -13.9693   19.8150 O   0  0  0  0  0  0  0  0  0  0  0  0
   11.6555  -15.5134   19.6003 N   0  0  0  0  0  0  0  0  0  0  0  0
   11.0057  -15.1449   20.8652 C   0  0  1  0  0  0  0  0  0  0  0  0
    9.5300  -15.2051   20.7413 C   0  0  0  0  0  0  0  0  0  0  0  0
    8.8987  -14.1602   19.9445 C   0  0  0  0  0  0  0  0  0  0  0  0
    9.5134  -13.0791   19.3608 C   0  0  0  0  0  0  0  0  0  0  0  0
    8.5974  -12.3367   18.7111 N   0  0  0  0  0  0  0  0  0  0  0  0
    7.4187  -12.9622   18.8955 C   0  0  0  0  0  0  0  0  0  0  0  0
    7.5974  -14.0688   19.6431 N   0  0  0  0  0  0  0  0  0  0  0  0
   11.4315  -16.1915   21.8704 C   0  0  0  0  0  0  0  0  0  0  0  0
   10.8838  -17.3286   21.8396 O   0  0  0  0  0  0  0  0  0  0  0  0
   13.0553  -19.1959   22.5229 O   0  0  0  0  0  0  0  0  0  0  0  0
   13.7342  -17.9939   22.5084 C   0  0  0  0  0  0  0  0  0  0  0  0
   13.1739  -17.0007   23.4992 C   0  0  2  0  0  0  0  0  0  0  0  0
   12.4151  -15.9542   22.8434 N   0  0  0  0  0  0  0  0  0  0  0  0
   14.2149  -16.4165   24.3740 C   0  0  0  0  0  0  0  0  0  0  0  0
   14.6239  -17.0773   25.5331 O   0  0  0  0  0  0  0  0  0  0  0  0
   14.7566  -15.3303   24.1129 O   0  0  0  0  0  0  0  0  0  0  0  0
  2  3  2  0
  2  1  1  0
  4  2  1  0
  5  6  1  0
  5  4  1  0
  6  7  1  6
  8  6  1  0
  8  9  2  0
 10  8  1  0
 11 10  1  0
 12 13  1  0
 11 12  1  6
 13 14  2  0
 14 15  1  0
 16 15  1  0
 17 13  1  0
 17 16  2  0
 18 11  1  0
 19 18  2  0
 21 20  1  0
 22 23  1  0
 22 21  1  6
 23 18  1  0
 24 22  1  0
 25 24  1  0
 26 24  2  0
M  END
$$$$
