QHS.pdb
     RDKit          3D

 26 26  0  0  1  0  0  0  0  0999 V2000
   16.6203  -12.9865   17.8201 N   0  0  0  0  0  0  0  0  0  0  0  0
   16.2630  -13.6982   16.6304 C   0  0  0  0  0  0  0  0  0  0  0  0
   17.1606  -13.9911   15.8122 O   0  0  0  0  0  0  0  0  0  0  0  0
   14.8697  -14.0566   16.4229 C   0  0  0  0  0  0  0  0  0  0  0  0
   13.9561  -13.9045   17.5924 C   0  0  0  0  0  0  0  0  0  0  0  0
   13.4838  -15.1750   18.2084 C   0  0  2  0  0  0  0  0  0  0  0  0
   12.8077  -16.0159   17.2740 N   0  0  0  0  0  0  0  0  0  0  0  0
   12.7386  -14.9450   19.4780 C   0  0  0  0  0  0  0  0  0  0  0  0
   13.2323  -14.1216   20.3129 O   0  0  0  0  0  0  0  0  0  0  0  0
   11.5413  -15.5836   19.7914 N   0  0  0  0  0  0  0  0  0  0  0  0
   10.7979  -15.3322   21.0333 C   0  0  1  0  0  0  0  0  0  0  0  0
    9.3373  -15.3123   20.7830 C   0  0  0  0  0  0  0  0  0  0  0  0
    8.8478  -14.3004   19.8547 C   0  0  0  0  0  0  0  0  0  0  0  0
    8.5841  -12.9810   20.1321 C   0  0  0  0  0  0  0  0  0  0  0  0
    8.1437  -12.3658   19.0185 N   0  0  0  0  0  0  0  0  0  0  0  0
    8.1368  -13.3081   18.0558 C   0  0  0  0  0  0  0  0  0  0  0  0
    8.5633  -14.4828   18.5591 N   0  0  0  0  0  0  0  0  0  0  0  0
   11.0987  -16.5036   21.9412 C   0  0  0  0  0  0  0  0  0  0  0  0
   11.0085  -17.6752   21.4792 O   0  0  0  0  0  0  0  0  0  0  0  0
   13.8210  -16.3553   24.9290 O   0  0  0  0  0  0  0  0  0  0  0  0
   13.3078  -17.5266   24.4089 C   0  0  0  0  0  0  0  0  0  0  0  0
   11.8194  -17.4471   24.1625 C   0  0  2  0  0  0  0  0  0  0  0  0
   11.4763  -16.3465   23.2840 N   0  0  0  0  0  0  0  0  0  0  0  0
   11.0354  -17.3748   25.4156 C   0  0  0  0  0  0  0  0  0  0  0  0
   11.1819  -18.3487   26.4042 O   0  0  0  0  0  0  0  0  0  0  0  0
   10.2282  -16.4566   25.6317 O   0  0  0  0  0  0  0  0  0  0  0  0
  2  3  2  0
  2  1  1  0
  4  2  1  0
  5  6  1  0
  5  4  1  0
  6  7  1  6
  8  6  1  0
  8  9  2  0
 10  8  1  0
 11 10  1  0
 12 13  1  0
 11 12  1  6
 13 14  2  0
 14 15  1  0
 16 15  1  0
 17 13  1  0
 17 16  2  0
 18 11  1  0
 19 18  2  0
 21 20  1  0
 22 23  1  0
 22 21  1  1
 23 18  1  0
 24 22  1  0
 25 24  1  0
 26 24  2  0
M  END
$$$$
