QHS.pdb
     RDKit          3D

 26 26  0  0  1  0  0  0  0  0999 V2000
   10.0620  -14.0183    9.8951 N   0  0  0  0  0  0  0  0  0  0  0  0
   11.2147  -14.1741   10.7297 C   0  0  0  0  0  0  0  0  0  0  0  0
   11.9915  -13.2057   10.8693 O   0  0  0  0  0  0  0  0  0  0  0  0
   11.4338  -15.4522   11.3862 C   0  0  0  0  0  0  0  0  0  0  0  0
   10.2874  -16.0169   12.1559 C   0  0  0  0  0  0  0  0  0  0  0  0
   10.6475  -16.7452   13.4035 C   0  0  2  0  0  0  0  0  0  0  0  0
    9.8481  -17.9104   13.6051 N   0  0  0  0  0  0  0  0  0  0  0  0
   10.7221  -15.8402   14.5849 C   0  0  0  0  0  0  0  0  0  0  0  0
   11.7272  -15.0651   14.6739 O   0  0  0  0  0  0  0  0  0  0  0  0
    9.7551  -15.8048   15.5865 N   0  0  0  0  0  0  0  0  0  0  0  0
    9.8221  -14.8922   16.7358 C   0  0  1  0  0  0  0  0  0  0  0  0
    8.5009  -14.7731   17.3969 C   0  0  0  0  0  0  0  0  0  0  0  0
    8.4342  -13.9128   18.5720 C   0  0  0  0  0  0  0  0  0  0  0  0
    9.4649  -13.2014   19.1366 C   0  0  0  0  0  0  0  0  0  0  0  0
    9.0125  -12.5295   20.2120 N   0  0  0  0  0  0  0  0  0  0  0  0
    7.7025  -12.8283   20.3082 C   0  0  0  0  0  0  0  0  0  0  0  0
    7.3479  -13.6670   19.3152 N   0  0  0  0  0  0  0  0  0  0  0  0
   10.7778  -15.5317   17.7180 C   0  0  0  0  0  0  0  0  0  0  0  0
   10.7359  -16.7821   17.8875 O   0  0  0  0  0  0  0  0  0  0  0  0
   13.8420  -13.3066   19.7758 O   0  0  0  0  0  0  0  0  0  0  0  0
   14.0160  -14.5832   19.2801 C   0  0  0  0  0  0  0  0  0  0  0  0
   12.7378  -15.3885   19.2933 C   0  0  2  0  0  0  0  0  0  0  0  0
   11.7165  -14.7927   18.4550 N   0  0  0  0  0  0  0  0  0  0  0  0
   12.2194  -15.6159   20.6607 C   0  0  0  0  0  0  0  0  0  0  0  0
   12.9347  -16.3923   21.5733 O   0  0  0  0  0  0  0  0  0  0  0  0
   11.1423  -15.1306   21.0425 O   0  0  0  0  0  0  0  0  0  0  0  0
  2  3  2  0
  2  1  1  0
  4  2  1  0
  5  6  1  0
  5  4  1  0
  6  7  1  1
  8  6  1  0
  8  9  2  0
 10  8  1  0
 11 10  1  0
 12 13  1  0
 11 12  1  1
 13 14  2  0
 14 15  1  0
 16 15  1  0
 17 13  1  0
 17 16  2  0
 18 11  1  0
 19 18  2  0
 21 20  1  0
 22 23  1  0
 22 21  1  1
 23 18  1  0
 24 22  1  0
 25 24  1  0
 26 24  2  0
M  END
$$$$
