QHS.pdb
     RDKit          3D

 26 26  0  0  1  0  0  0  0  0999 V2000
   15.2933  -17.4002   15.5045 N   0  0  0  0  0  0  0  0  0  0  0  0
   14.3908  -18.1099   14.6492 C   0  0  0  0  0  0  0  0  0  0  0  0
   14.7979  -18.4957   13.5329 O   0  0  0  0  0  0  0  0  0  0  0  0
   13.0366  -18.3580   15.1154 C   0  0  0  0  0  0  0  0  0  0  0  0
   12.7063  -17.8966   16.4951 C   0  0  0  0  0  0  0  0  0  0  0  0
   11.3145  -17.4062   16.6927 C   0  0  2  0  0  0  0  0  0  0  0  0
   10.7780  -16.7992   15.5175 N   0  0  0  0  0  0  0  0  0  0  0  0
   11.1750  -16.5832   17.9269 C   0  0  0  0  0  0  0  0  0  0  0  0
   12.1036  -15.7555   18.1942 O   0  0  0  0  0  0  0  0  0  0  0  0
   10.0888  -16.6777   18.7935 N   0  0  0  0  0  0  0  0  0  0  0  0
    9.9127  -15.8014   19.9593 C   0  0  1  0  0  0  0  0  0  0  0  0
    8.4973  -15.3855   20.1019 C   0  0  0  0  0  0  0  0  0  0  0  0
    7.9855  -14.4579   19.1004 C   0  0  0  0  0  0  0  0  0  0  0  0
    7.9915  -13.0855   19.1634 C   0  0  0  0  0  0  0  0  0  0  0  0
    7.4274  -12.5810   18.0501 N   0  0  0  0  0  0  0  0  0  0  0  0
    7.0744  -13.6443   17.3021 C   0  0  0  0  0  0  0  0  0  0  0  0
    7.4114  -14.7845   17.9357 N   0  0  0  0  0  0  0  0  0  0  0  0
   10.2757  -16.6380   21.1656 C   0  0  0  0  0  0  0  0  0  0  0  0
    9.9057  -17.8444   21.2079 O   0  0  0  0  0  0  0  0  0  0  0  0
   12.4900  -16.8086   25.5445 O   0  0  0  0  0  0  0  0  0  0  0  0
   12.2318  -16.1223   24.3748 C   0  0  0  0  0  0  0  0  0  0  0  0
   11.3389  -16.8970   23.4342 C   0  0  2  0  0  0  0  0  0  0  0  0
   11.0107  -16.1306   22.2485 N   0  0  0  0  0  0  0  0  0  0  0  0
   10.1076  -17.3899   24.0908 C   0  0  0  0  0  0  0  0  0  0  0  0
   10.1093  -18.5955   24.7936 O   0  0  0  0  0  0  0  0  0  0  0  0
    9.0403  -16.7575   24.0417 O   0  0  0  0  0  0  0  0  0  0  0  0
  2  3  2  0
  2  1  1  0
  4  2  1  0
  5  6  1  0
  5  4  1  0
  6  7  1  6
  8  6  1  0
  8  9  2  0
 10  8  1  0
 11 10  1  0
 12 13  1  0
 11 12  1  1
 13 14  2  0
 14 15  1  0
 16 15  1  0
 17 13  1  0
 17 16  2  0
 18 11  1  0
 19 18  2  0
 21 20  1  0
 22 23  1  0
 22 21  1  1
 23 18  1  0
 24 22  1  0
 25 24  1  0
 26 24  2  0
M  END
$$$$
