EKS.pdb
     RDKit          3D

 25 24  0  0  1  0  0  0  0  0999 V2000
   27.5454  -25.0237  -17.3611 N   0  0  0  0  0  0  0  0  0  0  0  0
   27.4847  -23.6882  -16.8623 C   0  0  1  0  0  0  0  0  0  0  0  0
   27.6551  -22.6201  -17.8985 C   0  0  0  0  0  0  0  0  0  0  0  0
   26.6497  -22.6430  -19.0106 C   0  0  0  0  0  0  0  0  0  0  0  0
   25.6112  -21.6107  -18.8695 C   0  0  0  0  0  0  0  0  0  0  0  0
   24.3826  -21.9232  -18.9447 O   0  0  0  0  0  0  0  0  0  0  0  0
   26.3038  -23.4186  -15.9765 C   0  0  0  0  0  0  0  0  0  0  0  0
   25.3458  -24.2410  -15.9693 O   0  0  0  0  0  0  0  0  0  0  0  0
   25.8958  -20.2721  -18.6489 O   0  0  0  0  0  0  0  0  0  0  0  0
   26.2190  -22.2772  -15.1475 N   0  0  0  0  0  0  0  0  0  0  0  0
   25.2259  -21.9658  -14.1809 C   0  0  1  0  0  0  0  0  0  0  0  0
   25.6835  -21.1909  -12.9614 C   0  0  0  0  0  0  0  0  0  0  0  0
   24.7738  -21.4032  -11.7785 C   0  0  0  0  0  0  0  0  0  0  0  0
   25.1395  -20.5802  -10.5773 C   0  0  0  0  0  0  0  0  0  0  0  0
   24.1759  -20.8259   -9.4474 C   0  0  0  0  0  0  0  0  0  0  0  0
   24.6357  -20.0370   -8.2976 N   0  0  0  0  0  0  0  0  0  0  0  0
   23.9146  -21.5609  -14.6950 C   0  0  0  0  0  0  0  0  0  0  0  0
   23.8405  -20.5152  -15.3848 O   0  0  0  0  0  0  0  0  0  0  0  0
   20.5044  -23.5806  -13.5684 O   0  0  0  0  0  0  0  0  0  0  0  0
   20.4319  -23.0477  -14.8327 C   0  0  0  0  0  0  0  0  0  0  0  0
   21.4161  -21.9010  -14.9426 C   0  0  2  0  0  0  0  0  0  0  0  0
   22.7280  -22.2838  -14.4568 N   0  0  0  0  0  0  0  0  0  0  0  0
   20.9369  -20.7169  -14.1843 C   0  0  0  0  0  0  0  0  0  0  0  0
   21.5974  -20.2682  -13.2228 O   0  0  0  0  0  0  0  0  0  0  0  0
   19.7559  -20.0984  -14.5335 O   0  0  0  0  0  0  0  0  0  0  0  0
  2  7  1  0
  2  1  1  6
  3  2  1  0
  4  3  1  0
  5  4  1  0
  6  5  2  0
  7  8  2  0
  9  5  1  0
 10 11  1  0
 10  7  1  0
 11 12  1  6
 13 12  1  0
 13 14  1  0
 14 15  1  0
 15 16  1  0
 17 18  2  0
 17 11  1  0
 19 20  1  0
 21 20  1  1
 21 22  1  0
 21 23  1  0
 22 17  1  0
 23 25  1  0
 24 23  2  0
M  END
$$$$
