EKS.pdb
     RDKit          3D

 25 24  0  0  1  0  0  0  0  0999 V2000
   16.1399  -19.9693    1.3891 N   0  0  0  0  0  0  0  0  0  0  0  0
   15.7252  -19.7348    2.7341 C   0  0  1  0  0  0  0  0  0  0  0  0
   14.9029  -20.8303    3.3402 C   0  0  0  0  0  0  0  0  0  0  0  0
   14.0016  -21.5549    2.3859 C   0  0  0  0  0  0  0  0  0  0  0  0
   13.2517  -22.6498    3.0207 C   0  0  0  0  0  0  0  0  0  0  0  0
   12.3820  -22.3986    3.9114 O   0  0  0  0  0  0  0  0  0  0  0  0
   16.8324  -19.3008    3.6493 C   0  0  0  0  0  0  0  0  0  0  0  0
   17.9479  -19.8881    3.5792 O   0  0  0  0  0  0  0  0  0  0  0  0
   13.4365  -23.9848    2.6967 O   0  0  0  0  0  0  0  0  0  0  0  0
   16.6770  -18.2584    4.5909 N   0  0  0  0  0  0  0  0  0  0  0  0
   17.6302  -17.7673    5.5224 C   0  0  1  0  0  0  0  0  0  0  0  0
   17.4719  -16.3252    5.9607 C   0  0  0  0  0  0  0  0  0  0  0  0
   18.0163  -15.3579    4.9410 C   0  0  0  0  0  0  0  0  0  0  0  0
   17.7528  -13.9172    5.2711 C   0  0  0  0  0  0  0  0  0  0  0  0
   18.3793  -13.0106    4.2459 C   0  0  0  0  0  0  0  0  0  0  0  0
   18.0142  -11.6321    4.5959 N   0  0  0  0  0  0  0  0  0  0  0  0
   18.0311  -18.6824    6.5946 C   0  0  0  0  0  0  0  0  0  0  0  0
   17.2118  -19.5547    6.9727 O   0  0  0  0  0  0  0  0  0  0  0  0
   20.5382  -21.7330    8.6690 O   0  0  0  0  0  0  0  0  0  0  0  0
   20.0945  -20.9084    7.6636 C   0  0  0  0  0  0  0  0  0  0  0  0
   19.7328  -19.5606    8.2537 C   0  0  2  0  0  0  0  0  0  0  0  0
   19.2905  -18.6370    7.2266 N   0  0  0  0  0  0  0  0  0  0  0  0
   20.8878  -18.9727    8.9796 C   0  0  0  0  0  0  0  0  0  0  0  0
   21.3962  -17.8962    8.5992 O   0  0  0  0  0  0  0  0  0  0  0  0
   21.4129  -19.6093   10.0833 O   0  0  0  0  0  0  0  0  0  0  0  0
  2  7  1  0
  2  1  1  6
  3  2  1  0
  4  3  1  0
  5  4  1  0
  6  5  2  0
  7  8  2  0
  9  5  1  0
 10 11  1  0
 10  7  1  0
 11 12  1  1
 13 12  1  0
 13 14  1  0
 14 15  1  0
 15 16  1  0
 17 18  2  0
 17 11  1  0
 19 20  1  0
 21 20  1  6
 21 22  1  0
 21 23  1  0
 22 17  1  0
 23 25  1  0
 24 23  2  0
M  END
$$$$
