EKS.pdb
     RDKit          3D

 25 24  0  0  1  0  0  0  0  0999 V2000
   22.2118  -12.1840  -15.9738 N   0  0  0  0  0  0  0  0  0  0  0  0
   22.1405  -11.3168  -17.1048 C   0  0  1  0  0  0  0  0  0  0  0  0
   21.6580  -11.9646  -18.3662 C   0  0  0  0  0  0  0  0  0  0  0  0
   20.5483  -12.9574  -18.1902 C   0  0  0  0  0  0  0  0  0  0  0  0
   20.0351  -13.4797  -19.4661 C   0  0  0  0  0  0  0  0  0  0  0  0
   20.6152  -13.1881  -20.5576 O   0  0  0  0  0  0  0  0  0  0  0  0
   21.4306  -10.0217  -16.8394 C   0  0  0  0  0  0  0  0  0  0  0  0
   21.5129   -9.0945  -17.6925 O   0  0  0  0  0  0  0  0  0  0  0  0
   18.9222  -14.3010  -19.5581 O   0  0  0  0  0  0  0  0  0  0  0  0
   20.6716   -9.7958  -15.6689 N   0  0  0  0  0  0  0  0  0  0  0  0
   19.9647   -8.6223  -15.2937 C   0  0  1  0  0  0  0  0  0  0  0  0
   18.5165   -8.8025  -14.8848 C   0  0  0  0  0  0  0  0  0  0  0  0
   17.6584   -9.2816  -16.0275 C   0  0  0  0  0  0  0  0  0  0  0  0
   16.1968   -9.3647  -15.6946 C   0  0  0  0  0  0  0  0  0  0  0  0
   15.3970   -9.7823  -16.8993 C   0  0  0  0  0  0  0  0  0  0  0  0
   14.0203  -10.0259  -16.4505 N   0  0  0  0  0  0  0  0  0  0  0  0
   20.7004   -7.6425  -14.4896 C   0  0  0  0  0  0  0  0  0  0  0  0
   21.6017   -8.0569  -13.7208 O   0  0  0  0  0  0  0  0  0  0  0  0
   23.5009   -4.3480  -15.0627 O   0  0  0  0  0  0  0  0  0  0  0  0
   22.6019   -5.3622  -15.2884 C   0  0  0  0  0  0  0  0  0  0  0  0
   21.4517   -5.2293  -14.3112 C   0  0  2  0  0  0  0  0  0  0  0  0
   20.4509   -6.2556  -14.5323 N   0  0  0  0  0  0  0  0  0  0  0  0
   20.8162   -3.8910  -14.4196 C   0  0  0  0  0  0  0  0  0  0  0  0
   21.0518   -3.0050  -13.5702 O   0  0  0  0  0  0  0  0  0  0  0  0
   19.9576   -3.6109  -15.4605 O   0  0  0  0  0  0  0  0  0  0  0  0
  2  7  1  0
  2  1  1  1
  3  2  1  0
  4  3  1  0
  5  4  1  0
  6  5  2  0
  7  8  2  0
  9  5  1  0
 10 11  1  0
 10  7  1  0
 11 12  1  1
 13 12  1  0
 13 14  1  0
 14 15  1  0
 15 16  1  0
 17 18  2  0
 17 11  1  0
 19 20  1  0
 21 20  1  6
 21 22  1  0
 21 23  1  0
 22 17  1  0
 23 25  1  0
 24 23  2  0
M  END
$$$$
