EKS.pdb
     RDKit          3D

 25 24  0  0  1  0  0  0  0  0999 V2000
   28.4739  -21.8933  -16.5092 N   0  0  0  0  0  0  0  0  0  0  0  0
   28.0958  -20.8717  -15.5876 C   0  0  1  0  0  0  0  0  0  0  0  0
   28.1671  -19.4769  -16.1288 C   0  0  0  0  0  0  0  0  0  0  0  0
   27.2724  -19.1997  -17.2996 C   0  0  0  0  0  0  0  0  0  0  0  0
   27.8326  -18.2077  -18.2303 C   0  0  0  0  0  0  0  0  0  0  0  0
   29.0831  -18.1683  -18.4486 O   0  0  0  0  0  0  0  0  0  0  0  0
   26.7936  -21.1296  -14.8880 C   0  0  0  0  0  0  0  0  0  0  0  0
   25.8620  -21.6987  -15.5224 O   0  0  0  0  0  0  0  0  0  0  0  0
   27.0572  -17.2821  -18.9112 O   0  0  0  0  0  0  0  0  0  0  0  0
   26.5657  -20.7594  -13.5432 N   0  0  0  0  0  0  0  0  0  0  0  0
   25.3942  -20.9569  -12.7646 C   0  0  1  0  0  0  0  0  0  0  0  0
   25.5359  -20.7791  -11.2662 C   0  0  0  0  0  0  0  0  0  0  0  0
   24.2818  -21.1685  -10.5263 C   0  0  0  0  0  0  0  0  0  0  0  0
   24.3600  -20.9484   -9.0432 C   0  0  0  0  0  0  0  0  0  0  0  0
   23.0957  -21.4068   -8.3673 C   0  0  0  0  0  0  0  0  0  0  0  0
   23.2343  -21.1203   -6.9339 N   0  0  0  0  0  0  0  0  0  0  0  0
   24.1428  -20.4320  -13.3180 C   0  0  0  0  0  0  0  0  0  0  0  0
   24.0512  -19.1969  -13.5209 O   0  0  0  0  0  0  0  0  0  0  0  0
   22.3559  -21.4056  -16.3886 O   0  0  0  0  0  0  0  0  0  0  0  0
   21.3879  -21.5485  -15.4240 C   0  0  0  0  0  0  0  0  0  0  0  0
   21.7890  -20.7513  -14.1997 C   0  0  2  0  0  0  0  0  0  0  0  0
   23.0327  -21.2406  -13.6361 N   0  0  0  0  0  0  0  0  0  0  0  0
   20.7260  -20.8011  -13.1632 C   0  0  0  0  0  0  0  0  0  0  0  0
   20.9755  -21.2334  -12.0173 O   0  0  0  0  0  0  0  0  0  0  0  0
   19.4498  -20.3702  -13.4543 O   0  0  0  0  0  0  0  0  0  0  0  0
  2  7  1  0
  2  1  1  6
  3  2  1  0
  4  3  1  0
  5  4  1  0
  6  5  2  0
  7  8  2  0
  9  5  1  0
 10 11  1  0
 10  7  1  0
 11 12  1  1
 13 12  1  0
 13 14  1  0
 14 15  1  0
 15 16  1  0
 17 18  2  0
 17 11  1  0
 19 20  1  0
 21 20  1  6
 21 22  1  0
 21 23  1  0
 22 17  1  0
 23 25  1  0
 24 23  2  0
M  END
$$$$
