EKS.pdb
     RDKit          3D

 25 24  0  0  1  0  0  0  0  0999 V2000
   22.1409  -15.3038  -17.0976 N   0  0  0  0  0  0  0  0  0  0  0  0
   22.7522  -14.1100  -16.6105 C   0  0  1  0  0  0  0  0  0  0  0  0
   24.1975  -13.9501  -16.9700 C   0  0  0  0  0  0  0  0  0  0  0  0
   25.1694  -14.4855  -15.9616 C   0  0  0  0  0  0  0  0  0  0  0  0
   26.5717  -14.2108  -16.3110 C   0  0  0  0  0  0  0  0  0  0  0  0
   27.2543  -13.3896  -15.6236 O   0  0  0  0  0  0  0  0  0  0  0  0
   21.9687  -12.8618  -16.8931 C   0  0  0  0  0  0  0  0  0  0  0  0
   22.0146  -12.3614  -18.0514 O   0  0  0  0  0  0  0  0  0  0  0  0
   27.2209  -14.8132  -17.3774 O   0  0  0  0  0  0  0  0  0  0  0  0
   21.1793  -12.2202  -15.9121 N   0  0  0  0  0  0  0  0  0  0  0  0
   20.3998  -11.0404  -16.0460 C   0  0  1  0  0  0  0  0  0  0  0  0
   18.9201  -11.1651  -15.7429 C   0  0  0  0  0  0  0  0  0  0  0  0
   18.1650   -9.9014  -16.0663 C   0  0  0  0  0  0  0  0  0  0  0  0
   16.6976   -9.9763  -15.7576 C   0  0  0  0  0  0  0  0  0  0  0  0
   16.0116   -8.6823  -16.1043 C   0  0  0  0  0  0  0  0  0  0  0  0
   14.5685   -8.8884  -15.9281 N   0  0  0  0  0  0  0  0  0  0  0  0
   21.0090   -9.7946  -15.5720 C   0  0  0  0  0  0  0  0  0  0  0  0
   21.3833   -9.7302  -14.3759 O   0  0  0  0  0  0  0  0  0  0  0  0
   22.6216   -6.6009  -17.9807 O   0  0  0  0  0  0  0  0  0  0  0  0
   21.6796   -6.3429  -17.0145 C   0  0  0  0  0  0  0  0  0  0  0  0
   21.7709   -7.4062  -15.9391 C   0  0  2  0  0  0  0  0  0  0  0  0
   21.1987   -8.6609  -16.3883 N   0  0  0  0  0  0  0  0  0  0  0  0
   21.0807   -6.9667  -14.6992 C   0  0  0  0  0  0  0  0  0  0  0  0
   21.7377   -6.6503  -13.6842 O   0  0  0  0  0  0  0  0  0  0  0  0
   19.7048   -6.9027  -14.6544 O   0  0  0  0  0  0  0  0  0  0  0  0
  2  7  1  0
  2  1  1  6
  3  2  1  0
  4  3  1  0
  5  4  1  0
  6  5  2  0
  7  8  2  0
  9  5  1  0
 10 11  1  0
 10  7  1  0
 11 12  1  1
 13 12  1  0
 13 14  1  0
 14 15  1  0
 15 16  1  0
 17 18  2  0
 17 11  1  0
 19 20  1  0
 21 20  1  6
 21 22  1  0
 21 23  1  0
 22 17  1  0
 23 25  1  0
 24 23  2  0
M  END
$$$$
