EKS.pdb
     RDKit          3D

 25 24  0  0  1  0  0  0  0  0999 V2000
   14.4500  -11.6709  -12.1994 N   0  0  0  0  0  0  0  0  0  0  0  0
   15.5561  -10.8080  -11.9387 C   0  0  1  0  0  0  0  0  0  0  0  0
   16.5801  -10.7489  -13.0302 C   0  0  0  0  0  0  0  0  0  0  0  0
   17.1177  -12.0762  -13.4742 C   0  0  0  0  0  0  0  0  0  0  0  0
   18.1903  -11.9579  -14.4740 C   0  0  0  0  0  0  0  0  0  0  0  0
   18.8840  -12.9728  -14.7927 O   0  0  0  0  0  0  0  0  0  0  0  0
   15.1658   -9.4373  -11.4690 C   0  0  0  0  0  0  0  0  0  0  0  0
   14.4626   -8.7103  -12.2247 O   0  0  0  0  0  0  0  0  0  0  0  0
   18.5025  -10.7697  -15.1161 O   0  0  0  0  0  0  0  0  0  0  0  0
   15.5554   -8.9242  -10.2111 N   0  0  0  0  0  0  0  0  0  0  0  0
   15.2609   -7.6520   -9.6523 C   0  0  1  0  0  0  0  0  0  0  0  0
   14.6231   -7.6444   -8.2776 C   0  0  0  0  0  0  0  0  0  0  0  0
   14.1437   -6.2716   -7.8808 C   0  0  0  0  0  0  0  0  0  0  0  0
   13.3301   -6.2550   -6.6190 C   0  0  0  0  0  0  0  0  0  0  0  0
   12.7790   -4.8792   -6.3564 C   0  0  0  0  0  0  0  0  0  0  0  0
   11.9610   -4.9579   -5.1396 N   0  0  0  0  0  0  0  0  0  0  0  0
   16.2578   -6.5980   -9.8599 C   0  0  0  0  0  0  0  0  0  0  0  0
   17.4263   -6.7909   -9.4445 O   0  0  0  0  0  0  0  0  0  0  0  0
   18.5084   -3.5333  -12.3512 O   0  0  0  0  0  0  0  0  0  0  0  0
   17.5996   -4.5408  -12.1347 C   0  0  0  0  0  0  0  0  0  0  0  0
   16.9555   -4.3418  -10.7779 C   0  0  2  0  0  0  0  0  0  0  0  0
   15.9758   -5.3754  -10.5027 N   0  0  0  0  0  0  0  0  0  0  0  0
   16.3031   -3.0100  -10.6911 C   0  0  0  0  0  0  0  0  0  0  0  0
   15.1090   -2.8641  -11.0298 O   0  0  0  0  0  0  0  0  0  0  0  0
   17.0092   -1.9180  -10.2350 O   0  0  0  0  0  0  0  0  0  0  0  0
  2  7  1  0
  2  1  1  6
  3  2  1  0
  4  3  1  0
  5  4  1  0
  6  5  2  0
  7  8  2  0
  9  5  1  0
 10 11  1  0
 10  7  1  0
 11 12  1  1
 13 12  1  0
 13 14  1  0
 14 15  1  0
 15 16  1  0
 17 18  2  0
 17 11  1  0
 19 20  1  0
 21 20  1  6
 21 22  1  0
 21 23  1  0
 22 17  1  0
 23 25  1  0
 24 23  2  0
M  END
$$$$
