EKS.pdb
     RDKit          3D

 25 24  0  0  1  0  0  0  0  0999 V2000
   19.5422  -10.2259  -19.1775 N   0  0  0  0  0  0  0  0  0  0  0  0
   19.9677  -10.2548  -17.8158 C   0  0  1  0  0  0  0  0  0  0  0  0
   21.3297  -10.8370  -17.5935 C   0  0  0  0  0  0  0  0  0  0  0  0
   22.2863  -10.6791  -18.7372 C   0  0  0  0  0  0  0  0  0  0  0  0
   23.5379  -11.4289  -18.5490 C   0  0  0  0  0  0  0  0  0  0  0  0
   23.5282  -12.6988  -18.5348 O   0  0  0  0  0  0  0  0  0  0  0  0
   19.7970   -8.9507  -17.0932 C   0  0  0  0  0  0  0  0  0  0  0  0
   20.4359   -7.9400  -17.4986 O   0  0  0  0  0  0  0  0  0  0  0  0
   24.7714  -10.8186  -18.3832 O   0  0  0  0  0  0  0  0  0  0  0  0
   18.9479   -8.8071  -15.9726 N   0  0  0  0  0  0  0  0  0  0  0  0
   18.6867   -7.6354  -15.2134 C   0  0  1  0  0  0  0  0  0  0  0  0
   17.3321   -7.5501  -14.5392 C   0  0  0  0  0  0  0  0  0  0  0  0
   16.2097   -7.9391  -15.4669 C   0  0  0  0  0  0  0  0  0  0  0  0
   14.8445   -7.8022  -14.8573 C   0  0  0  0  0  0  0  0  0  0  0  0
   13.7731   -8.0712  -15.8797 C   0  0  0  0  0  0  0  0  0  0  0  0
   12.4760   -7.8845  -15.2172 N   0  0  0  0  0  0  0  0  0  0  0  0
   19.7948   -7.1158  -14.4072 C   0  0  0  0  0  0  0  0  0  0  0  0
   20.5186   -7.9338  -13.7892 O   0  0  0  0  0  0  0  0  0  0  0  0
   22.6675   -5.1664  -15.5554 O   0  0  0  0  0  0  0  0  0  0  0  0
   22.5423   -5.7350  -14.3109 C   0  0  0  0  0  0  0  0  0  0  0  0
   21.2832   -5.2095  -13.6520 C   0  0  2  0  0  0  0  0  0  0  0  0
   20.0937   -5.7433  -14.2874 N   0  0  0  0  0  0  0  0  0  0  0  0
   21.2413   -3.7253  -13.6974 C   0  0  0  0  0  0  0  0  0  0  0  0
   20.3814   -3.1346  -14.3856 O   0  0  0  0  0  0  0  0  0  0  0  0
   22.1524   -2.9813  -12.9794 O   0  0  0  0  0  0  0  0  0  0  0  0
  2  7  1  0
  2  1  1  6
  3  2  1  0
  4  3  1  0
  5  4  1  0
  6  5  2  0
  7  8  2  0
  9  5  1  0
 10 11  1  0
 10  7  1  0
 11 12  1  1
 13 12  1  0
 13 14  1  0
 14 15  1  0
 15 16  1  0
 17 18  2  0
 17 11  1  0
 19 20  1  0
 21 20  1  6
 21 22  1  0
 21 23  1  0
 22 17  1  0
 23 25  1  0
 24 23  2  0
M  END
$$$$
