EKS.pdb
     RDKit          3D

 25 24  0  0  1  0  0  0  0  0999 V2000
   21.1362  -12.2975  -17.4891 N   0  0  0  0  0  0  0  0  0  0  0  0
   21.9850  -11.1745  -17.2552 C   0  0  1  0  0  0  0  0  0  0  0  0
   22.9291  -10.8545  -18.3731 C   0  0  0  0  0  0  0  0  0  0  0  0
   23.6302  -12.0354  -18.9747 C   0  0  0  0  0  0  0  0  0  0  0  0
   24.6351  -11.6577  -19.9805 C   0  0  0  0  0  0  0  0  0  0  0  0
   24.4621  -11.9562  -21.2027 O   0  0  0  0  0  0  0  0  0  0  0  0
   21.2627   -9.9513  -16.7716 C   0  0  0  0  0  0  0  0  0  0  0  0
   21.4994   -8.8428  -17.3277 O   0  0  0  0  0  0  0  0  0  0  0  0
   25.7983  -10.9701  -19.6711 O   0  0  0  0  0  0  0  0  0  0  0  0
   20.3254   -9.9890  -15.7145 N   0  0  0  0  0  0  0  0  0  0  0  0
   19.5899   -8.9107  -15.1543 C   0  0  1  0  0  0  0  0  0  0  0  0
   18.3526   -9.2731  -14.3576 C   0  0  0  0  0  0  0  0  0  0  0  0
   17.3871  -10.1106  -15.1564 C   0  0  0  0  0  0  0  0  0  0  0  0
   16.1494  -10.4966  -14.3993 C   0  0  0  0  0  0  0  0  0  0  0  0
   15.2617  -11.3759  -15.2385 C   0  0  0  0  0  0  0  0  0  0  0  0
   14.1022  -11.7434  -14.4161 N   0  0  0  0  0  0  0  0  0  0  0  0
   20.3715   -7.8092  -14.5856 C   0  0  0  0  0  0  0  0  0  0  0  0
   21.4046   -8.0865  -13.9293 O   0  0  0  0  0  0  0  0  0  0  0  0
   23.0479   -4.4289  -14.7429 O   0  0  0  0  0  0  0  0  0  0  0  0
   22.2373   -5.4718  -15.1210 C   0  0  0  0  0  0  0  0  0  0  0  0
   20.9000   -5.3366  -14.4218 C   0  0  2  0  0  0  0  0  0  0  0  0
   20.0259   -6.4507  -14.7358 N   0  0  0  0  0  0  0  0  0  0  0  0
   20.2309   -4.0650  -14.7990 C   0  0  0  0  0  0  0  0  0  0  0  0
   19.3616   -4.0463  -15.6967 O   0  0  0  0  0  0  0  0  0  0  0  0
   20.5623   -2.8890  -14.1615 O   0  0  0  0  0  0  0  0  0  0  0  0
  2  7  1  0
  2  1  1  6
  3  2  1  0
  4  3  1  0
  5  4  1  0
  6  5  2  0
  7  8  2  0
  9  5  1  0
 10 11  1  0
 10  7  1  0
 11 12  1  1
 13 12  1  0
 13 14  1  0
 14 15  1  0
 15 16  1  0
 17 18  2  0
 17 11  1  0
 19 20  1  0
 21 20  1  6
 21 22  1  0
 21 23  1  0
 22 17  1  0
 23 25  1  0
 24 23  2  0
M  END
$$$$
