EKS.pdb
     RDKit          3D

 25 24  0  0  1  0  0  0  0  0999 V2000
   22.3035  -12.5107  -17.8622 N   0  0  0  0  0  0  0  0  0  0  0  0
   22.7477  -11.7862  -16.7159 C   0  0  1  0  0  0  0  0  0  0  0  0
   24.2333  -11.7532  -16.5279 C   0  0  0  0  0  0  0  0  0  0  0  0
   24.9124  -13.0893  -16.5714 C   0  0  0  0  0  0  0  0  0  0  0  0
   26.3790  -12.9921  -16.5100 C   0  0  0  0  0  0  0  0  0  0  0  0
   27.0884  -14.0431  -16.4379 O   0  0  0  0  0  0  0  0  0  0  0  0
   22.1409  -10.4203  -16.5819 C   0  0  0  0  0  0  0  0  0  0  0  0
   22.4487   -9.5305  -17.4230 O   0  0  0  0  0  0  0  0  0  0  0  0
   27.0619  -11.7859  -16.5295 O   0  0  0  0  0  0  0  0  0  0  0  0
   21.2363  -10.0874  -15.5484 N   0  0  0  0  0  0  0  0  0  0  0  0
   20.5697   -8.8525  -15.3289 C   0  0  1  0  0  0  0  0  0  0  0  0
   19.1948   -8.9252  -14.6957 C   0  0  0  0  0  0  0  0  0  0  0  0
   18.2058   -9.6570  -15.5664 C   0  0  0  0  0  0  0  0  0  0  0  0
   16.8234   -9.7289  -14.9850 C   0  0  0  0  0  0  0  0  0  0  0  0
   15.9149  -10.5443  -15.8654 C   0  0  0  0  0  0  0  0  0  0  0  0
   14.6439  -10.7130  -15.1497 N   0  0  0  0  0  0  0  0  0  0  0  0
   21.3940   -7.7379  -14.8534 C   0  0  0  0  0  0  0  0  0  0  0  0
   22.1436   -7.9286  -13.8652 O   0  0  0  0  0  0  0  0  0  0  0  0
   22.9791   -3.1910  -15.5981 O   0  0  0  0  0  0  0  0  0  0  0  0
   22.1311   -4.1925  -16.0053 C   0  0  0  0  0  0  0  0  0  0  0  0
   22.2570   -5.3640  -15.0529 C   0  0  2  0  0  0  0  0  0  0  0  0
   21.3913   -6.4591  -15.4468 N   0  0  0  0  0  0  0  0  0  0  0  0
   21.9303   -4.9543  -13.6628 C   0  0  0  0  0  0  0  0  0  0  0  0
   20.7428   -4.9111  -13.2755 O   0  0  0  0  0  0  0  0  0  0  0  0
   22.9355   -4.6166  -12.7827 O   0  0  0  0  0  0  0  0  0  0  0  0
  2  7  1  0
  2  1  1  6
  3  2  1  0
  4  3  1  0
  5  4  1  0
  6  5  2  0
  7  8  2  0
  9  5  1  0
 10 11  1  0
 10  7  1  0
 11 12  1  1
 13 12  1  0
 13 14  1  0
 14 15  1  0
 15 16  1  0
 17 18  2  0
 17 11  1  0
 19 20  1  0
 21 20  1  6
 21 22  1  0
 21 23  1  0
 22 17  1  0
 23 25  1  0
 24 23  2  0
M  END
$$$$
