EKS.pdb
     RDKit          3D

 25 24  0  0  1  0  0  0  0  0999 V2000
   16.0271  -10.2283  -14.0263 N   0  0  0  0  0  0  0  0  0  0  0  0
   16.8115   -9.6351  -12.9924 C   0  0  1  0  0  0  0  0  0  0  0  0
   18.1346   -9.0923  -13.4378 C   0  0  0  0  0  0  0  0  0  0  0  0
   19.0291  -10.0775  -14.1286 C   0  0  0  0  0  0  0  0  0  0  0  0
   20.2791   -9.4758  -14.6180 C   0  0  0  0  0  0  0  0  0  0  0  0
   21.1128   -8.9761  -13.8006 O   0  0  0  0  0  0  0  0  0  0  0  0
   16.0629   -8.6473  -12.1463 C   0  0  0  0  0  0  0  0  0  0  0  0
   15.4362   -7.7092  -12.7133 O   0  0  0  0  0  0  0  0  0  0  0  0
   20.6202   -9.4192  -15.9604 O   0  0  0  0  0  0  0  0  0  0  0  0
   16.0312   -8.7235  -10.7355 N   0  0  0  0  0  0  0  0  0  0  0  0
   15.3931   -7.8420   -9.8226 C   0  0  1  0  0  0  0  0  0  0  0  0
   14.5255   -8.4792   -8.7559 C   0  0  0  0  0  0  0  0  0  0  0  0
   13.1951   -8.9321   -9.3006 C   0  0  0  0  0  0  0  0  0  0  0  0
   12.3845   -9.7384   -8.3275 C   0  0  0  0  0  0  0  0  0  0  0  0
   11.0881  -10.1821   -8.9503 C   0  0  0  0  0  0  0  0  0  0  0  0
   10.3226  -10.8895   -7.9161 N   0  0  0  0  0  0  0  0  0  0  0  0
   16.1821   -6.6992   -9.3543 C   0  0  0  0  0  0  0  0  0  0  0  0
   17.3761   -6.8944   -9.0207 O   0  0  0  0  0  0  0  0  0  0  0  0
   18.0727   -2.8943  -10.3600 O   0  0  0  0  0  0  0  0  0  0  0  0
   17.4429   -4.1154  -10.3718 C   0  0  0  0  0  0  0  0  0  0  0  0
   16.4850   -4.1884   -9.2002 C   0  0  2  0  0  0  0  0  0  0  0  0
   15.6723   -5.3884   -9.2578 N   0  0  0  0  0  0  0  0  0  0  0  0
   15.5997   -2.9960   -9.1644 C   0  0  0  0  0  0  0  0  0  0  0  0
   16.0367   -1.8916   -8.7755 O   0  0  0  0  0  0  0  0  0  0  0  0
   14.2835   -3.0947   -9.5606 O   0  0  0  0  0  0  0  0  0  0  0  0
  2  7  1  0
  2  1  1  6
  3  2  1  0
  4  3  1  0
  5  4  1  0
  6  5  2  0
  7  8  2  0
  9  5  1  0
 10 11  1  0
 10  7  1  0
 11 12  1  1
 13 12  1  0
 13 14  1  0
 14 15  1  0
 15 16  1  0
 17 18  2  0
 17 11  1  0
 19 20  1  0
 21 20  1  6
 21 22  1  0
 21 23  1  0
 22 17  1  0
 23 25  1  0
 24 23  2  0
M  END
$$$$
