EKS.pdb
     RDKit          3D

 25 24  0  0  1  0  0  0  0  0999 V2000
   21.8292  -11.8800  -20.5214 N   0  0  0  0  0  0  0  0  0  0  0  0
   21.9112  -10.8295  -19.5591 C   0  0  1  0  0  0  0  0  0  0  0  0
   22.7370   -9.6528  -19.9796 C   0  0  0  0  0  0  0  0  0  0  0  0
   22.1112   -8.7722  -21.0193 C   0  0  0  0  0  0  0  0  0  0  0  0
   22.9560   -7.6253  -21.3869 C   0  0  0  0  0  0  0  0  0  0  0  0
   22.5603   -6.4397  -21.1615 O   0  0  0  0  0  0  0  0  0  0  0  0
   20.5843  -10.4053  -19.0013 C   0  0  0  0  0  0  0  0  0  0  0  0
   19.7349   -9.8838  -19.7763 O   0  0  0  0  0  0  0  0  0  0  0  0
   24.2010   -7.7586  -21.9815 O   0  0  0  0  0  0  0  0  0  0  0  0
   20.2453  -10.5652  -17.6386 N   0  0  0  0  0  0  0  0  0  0  0  0
   19.0259  -10.2300  -16.9919 C   0  0  1  0  0  0  0  0  0  0  0  0
   18.3632  -11.3252  -16.1807 C   0  0  0  0  0  0  0  0  0  0  0  0
   16.9694  -10.9483  -15.7482 C   0  0  0  0  0  0  0  0  0  0  0  0
   16.2614  -12.0256  -14.9787 C   0  0  0  0  0  0  0  0  0  0  0  0
   14.8302  -11.6418  -14.7150 C   0  0  0  0  0  0  0  0  0  0  0  0
   14.1476  -12.8277  -14.1824 N   0  0  0  0  0  0  0  0  0  0  0  0
   18.9511   -8.8993  -16.3824 C   0  0  0  0  0  0  0  0  0  0  0  0
   19.8130   -8.5855  -15.5259 O   0  0  0  0  0  0  0  0  0  0  0  0
   17.0475   -4.4365  -16.4988 O   0  0  0  0  0  0  0  0  0  0  0  0
   17.0105   -5.7126  -17.0067 C   0  0  0  0  0  0  0  0  0  0  0  0
   17.8965   -6.6061  -16.1627 C   0  0  2  0  0  0  0  0  0  0  0  0
   17.9612   -7.9492  -16.7063 N   0  0  0  0  0  0  0  0  0  0  0  0
   17.4076   -6.6656  -14.7612 C   0  0  0  0  0  0  0  0  0  0  0  0
   16.6930   -7.6164  -14.3773 O   0  0  0  0  0  0  0  0  0  0  0  0
   17.7374   -5.6706  -13.8666 O   0  0  0  0  0  0  0  0  0  0  0  0
  2  7  1  0
  2  1  1  6
  3  2  1  0
  4  3  1  0
  5  4  1  0
  6  5  2  0
  7  8  2  0
  9  5  1  0
 10 11  1  0
 10  7  1  0
 11 12  1  1
 13 12  1  0
 13 14  1  0
 14 15  1  0
 15 16  1  0
 17 18  2  0
 17 11  1  0
 19 20  1  0
 21 20  1  6
 21 22  1  0
 21 23  1  0
 22 17  1  0
 23 25  1  0
 24 23  2  0
M  END
$$$$
