EKS.pdb
     RDKit          3D

 25 24  0  0  1  0  0  0  0  0999 V2000
   23.0485  -35.0841   -7.6406 N   0  0  0  0  0  0  0  0  0  0  0  0
   22.9798  -34.3797   -6.4016 C   0  0  1  0  0  0  0  0  0  0  0  0
   21.6331  -34.3875   -5.7460 C   0  0  0  0  0  0  0  0  0  0  0  0
   20.5703  -33.6080   -6.4608 C   0  0  0  0  0  0  0  0  0  0  0  0
   19.8147  -32.7136   -5.5702 C   0  0  0  0  0  0  0  0  0  0  0  0
   20.0321  -32.7219   -4.3190 O   0  0  0  0  0  0  0  0  0  0  0  0
   24.0702  -34.7353   -5.4339 C   0  0  0  0  0  0  0  0  0  0  0  0
   24.2263  -35.9450   -5.1078 O   0  0  0  0  0  0  0  0  0  0  0  0
   18.8489  -31.8287   -6.0237 O   0  0  0  0  0  0  0  0  0  0  0  0
   24.9323  -33.7681   -4.8696 N   0  0  0  0  0  0  0  0  0  0  0  0
   25.9666  -33.9634   -3.9158 C   0  0  1  0  0  0  0  0  0  0  0  0
   27.0785  -32.9338   -3.8982 C   0  0  0  0  0  0  0  0  0  0  0  0
   28.1911  -33.2821   -4.8535 C   0  0  0  0  0  0  0  0  0  0  0  0
   28.9556  -34.5159   -4.4695 C   0  0  0  0  0  0  0  0  0  0  0  0
   30.1817  -34.6739   -5.3281 C   0  0  0  0  0  0  0  0  0  0  0  0
   30.7750  -35.9792   -5.0119 N   0  0  0  0  0  0  0  0  0  0  0  0
   25.5551  -34.4286   -2.5883 C   0  0  0  0  0  0  0  0  0  0  0  0
   24.8823  -33.6536   -1.8660 O   0  0  0  0  0  0  0  0  0  0  0  0
   25.0291  -38.0864    0.5315 O   0  0  0  0  0  0  0  0  0  0  0  0
   25.5273  -37.6881   -0.6855 C   0  0  0  0  0  0  0  0  0  0  0  0
   25.5154  -36.1745   -0.7527 C   0  0  2  0  0  0  0  0  0  0  0  0
   25.8742  -35.7028   -2.0764 N   0  0  0  0  0  0  0  0  0  0  0  0
   26.4479  -35.5924    0.2465 C   0  0  0  0  0  0  0  0  0  0  0  0
   26.3081  -35.8369    1.4642 O   0  0  0  0  0  0  0  0  0  0  0  0
   27.4801  -34.7743   -0.1592 O   0  0  0  0  0  0  0  0  0  0  0  0
  2  7  1  0
  2  1  1  6
  3  2  1  0
  4  3  1  0
  5  4  1  0
  6  5  2  0
  7  8  2  0
  9  5  1  0
 10 11  1  0
 10  7  1  0
 11 12  1  1
 13 12  1  0
 13 14  1  0
 14 15  1  0
 15 16  1  0
 17 18  2  0
 17 11  1  0
 19 20  1  0
 21 20  1  6
 21 22  1  0
 21 23  1  0
 22 17  1  0
 23 25  1  0
 24 23  2  0
M  END
$$$$
