EKS.pdb
     RDKit          3D

 25 24  0  0  1  0  0  0  0  0999 V2000
   20.1206  -27.0257  -11.9736 N   0  0  0  0  0  0  0  0  0  0  0  0
   19.7142  -25.8501  -11.2743 C   0  0  1  0  0  0  0  0  0  0  0  0
   19.2056  -24.7428  -12.1454 C   0  0  0  0  0  0  0  0  0  0  0  0
   20.1951  -24.2018  -13.1336 C   0  0  0  0  0  0  0  0  0  0  0  0
   19.7186  -22.9925  -13.8225 C   0  0  0  0  0  0  0  0  0  0  0  0
   20.0248  -22.7844  -15.0373 O   0  0  0  0  0  0  0  0  0  0  0  0
   18.7952  -26.1127  -10.1175 C   0  0  0  0  0  0  0  0  0  0  0  0
   17.9154  -27.0114  -10.2286 O   0  0  0  0  0  0  0  0  0  0  0  0
   18.9267  -22.0326  -13.2117 O   0  0  0  0  0  0  0  0  0  0  0  0
   18.8736  -25.3920   -8.9043 N   0  0  0  0  0  0  0  0  0  0  0  0
   17.9984  -25.4551   -7.7873 C   0  0  1  0  0  0  0  0  0  0  0  0
   18.5435  -24.9486   -6.4671 C   0  0  0  0  0  0  0  0  0  0  0  0
   17.5702  -25.1522   -5.3344 C   0  0  0  0  0  0  0  0  0  0  0  0
   17.9992  -26.1992   -4.3475 C   0  0  0  0  0  0  0  0  0  0  0  0
   16.9310  -26.4275   -3.3121 C   0  0  0  0  0  0  0  0  0  0  0  0
   17.4754  -27.3591   -2.3162 N   0  0  0  0  0  0  0  0  0  0  0  0
   16.5958  -25.1085   -8.0329 C   0  0  0  0  0  0  0  0  0  0  0  0
   16.3349  -23.9782   -8.5116 O   0  0  0  0  0  0  0  0  0  0  0  0
   11.9207  -26.4730   -7.8772 O   0  0  0  0  0  0  0  0  0  0  0  0
   13.2242  -26.8173   -7.6128 C   0  0  0  0  0  0  0  0  0  0  0  0
   14.1199  -25.6352   -7.9225 C   0  0  2  0  0  0  0  0  0  0  0  0
   15.5199  -25.9778   -7.7603 N   0  0  0  0  0  0  0  0  0  0  0  0
   13.7921  -24.4789   -7.0493 C   0  0  0  0  0  0  0  0  0  0  0  0
   14.2812  -24.3897   -5.9027 O   0  0  0  0  0  0  0  0  0  0  0  0
   12.9430  -23.4892   -7.4952 O   0  0  0  0  0  0  0  0  0  0  0  0
  2  7  1  0
  2  1  1  6
  3  2  1  0
  4  3  1  0
  5  4  1  0
  6  5  2  0
  7  8  2  0
  9  5  1  0
 10 11  1  0
 10  7  1  0
 11 12  1  1
 13 12  1  0
 13 14  1  0
 14 15  1  0
 15 16  1  0
 17 18  2  0
 17 11  1  0
 19 20  1  0
 21 20  1  1
 21 22  1  0
 21 23  1  0
 22 17  1  0
 23 25  1  0
 24 23  2  0
M  END
$$$$
