EKS.pdb
     RDKit          3D

 25 24  0  0  1  0  0  0  0  0999 V2000
   21.9095  -11.7932  -18.9601 N   0  0  0  0  0  0  0  0  0  0  0  0
   22.7365  -10.7165  -18.5211 C   0  0  1  0  0  0  0  0  0  0  0  0
   23.6782  -10.1825  -19.5563 C   0  0  0  0  0  0  0  0  0  0  0  0
   23.8194  -11.0267  -20.7874 C   0  0  0  0  0  0  0  0  0  0  0  0
   24.7197  -10.4368  -21.7901 C   0  0  0  0  0  0  0  0  0  0  0  0
   24.2704  -10.0779  -22.9224 O   0  0  0  0  0  0  0  0  0  0  0  0
   21.9900   -9.6142  -17.8286 C   0  0  0  0  0  0  0  0  0  0  0  0
   21.5613   -8.6436  -18.5130 O   0  0  0  0  0  0  0  0  0  0  0  0
   26.0738  -10.2371  -21.5711 O   0  0  0  0  0  0  0  0  0  0  0  0
   21.7471   -9.6172  -16.4364 N   0  0  0  0  0  0  0  0  0  0  0  0
   20.9990   -8.6812  -15.6736 C   0  0  1  0  0  0  0  0  0  0  0  0
   20.0681   -9.2506  -14.6219 C   0  0  0  0  0  0  0  0  0  0  0  0
   19.0307  -10.1677  -15.2173 C   0  0  0  0  0  0  0  0  0  0  0  0
   17.6550   -9.5695  -15.2761 C   0  0  0  0  0  0  0  0  0  0  0  0
   16.6811  -10.5292  -15.9053 C   0  0  0  0  0  0  0  0  0  0  0  0
   16.0343  -11.2754  -14.8187 N   0  0  0  0  0  0  0  0  0  0  0  0
   21.6998   -7.4619  -15.2614 C   0  0  0  0  0  0  0  0  0  0  0  0
   22.6611   -7.5670  -14.4614 O   0  0  0  0  0  0  0  0  0  0  0  0
   22.1817   -2.6334  -15.6784 O   0  0  0  0  0  0  0  0  0  0  0  0
   21.5028   -3.7569  -16.0839 C   0  0  0  0  0  0  0  0  0  0  0  0
   21.9866   -4.9445  -15.2771 C   0  0  2  0  0  0  0  0  0  0  0  0
   21.3528   -6.1732  -15.7156 N   0  0  0  0  0  0  0  0  0  0  0  0
   21.7225   -4.7444  -13.8290 C   0  0  0  0  0  0  0  0  0  0  0  0
   20.7522   -5.3059  -13.2765 O   0  0  0  0  0  0  0  0  0  0  0  0
   22.5465   -3.9354  -13.0769 O   0  0  0  0  0  0  0  0  0  0  0  0
  2  7  1  0
  2  1  1  6
  3  2  1  0
  4  3  1  0
  5  4  1  0
  6  5  2  0
  7  8  2  0
  9  5  1  0
 10 11  1  0
 10  7  1  0
 11 12  1  1
 13 12  1  0
 13 14  1  0
 14 15  1  0
 15 16  1  0
 17 18  2  0
 17 11  1  0
 19 20  1  0
 21 20  1  6
 21 22  1  0
 21 23  1  0
 22 17  1  0
 23 25  1  0
 24 23  2  0
M  END
$$$$
