EKS.pdb
     RDKit          3D

 25 24  0  0  1  0  0  0  0  0999 V2000
   19.4231  -12.6428  -16.0381 N   0  0  0  0  0  0  0  0  0  0  0  0
   19.2457  -11.2824  -16.4305 C   0  0  1  0  0  0  0  0  0  0  0  0
   17.8362  -10.7821  -16.3502 C   0  0  0  0  0  0  0  0  0  0  0  0
   16.7928  -11.7268  -16.8667 C   0  0  0  0  0  0  0  0  0  0  0  0
   16.1658  -12.5289  -15.8048 C   0  0  0  0  0  0  0  0  0  0  0  0
   15.4338  -11.9724  -14.9289 O   0  0  0  0  0  0  0  0  0  0  0  0
   20.2104  -10.3292  -15.7882 C   0  0  0  0  0  0  0  0  0  0  0  0
   19.9591   -9.8945  -14.6297 O   0  0  0  0  0  0  0  0  0  0  0  0
   16.3250  -13.9016  -15.6955 O   0  0  0  0  0  0  0  0  0  0  0  0
   21.3927   -9.8955  -16.4295 N   0  0  0  0  0  0  0  0  0  0  0  0
   22.4073   -9.0433  -15.9176 C   0  0  1  0  0  0  0  0  0  0  0  0
   23.8388   -9.4174  -16.2457 C   0  0  0  0  0  0  0  0  0  0  0  0
   24.1612  -10.8353  -15.8490 C   0  0  0  0  0  0  0  0  0  0  0  0
   25.5532  -11.2647  -16.2122 C   0  0  0  0  0  0  0  0  0  0  0  0
   25.7545  -12.7277  -15.9213 C   0  0  0  0  0  0  0  0  0  0  0  0
   27.0937  -13.0915  -16.4010 N   0  0  0  0  0  0  0  0  0  0  0  0
   22.1364   -7.6036  -15.9579 C   0  0  0  0  0  0  0  0  0  0  0  0
   22.0493   -7.0434  -17.0775 O   0  0  0  0  0  0  0  0  0  0  0  0
   19.4364   -5.8569  -14.1238 O   0  0  0  0  0  0  0  0  0  0  0  0
   20.1627   -5.1773  -15.0716 C   0  0  0  0  0  0  0  0  0  0  0  0
   21.6394   -5.3979  -14.8144 C   0  0  2  0  0  0  0  0  0  0  0  0
   21.9675   -6.8107  -14.8045 N   0  0  0  0  0  0  0  0  0  0  0  0
   22.0492   -4.7887  -13.5230 C   0  0  0  0  0  0  0  0  0  0  0  0
   22.4752   -5.5031  -12.5902 O   0  0  0  0  0  0  0  0  0  0  0  0
   21.9639   -3.4256  -13.3388 O   0  0  0  0  0  0  0  0  0  0  0  0
  2  7  1  0
  2  1  1  1
  3  2  1  0
  4  3  1  0
  5  4  1  0
  6  5  2  0
  7  8  2  0
  9  5  1  0
 10 11  1  0
 10  7  1  0
 11 12  1  6
 13 12  1  0
 13 14  1  0
 14 15  1  0
 15 16  1  0
 17 18  2  0
 17 11  1  0
 19 20  1  0
 21 20  1  1
 21 22  1  0
 21 23  1  0
 22 17  1  0
 23 25  1  0
 24 23  2  0
M  END
$$$$
