EKS.pdb
     RDKit          3D

 25 24  0  0  1  0  0  0  0  0999 V2000
   17.8124  -10.3487  -14.9458 N   0  0  0  0  0  0  0  0  0  0  0  0
   18.3034   -9.7981  -13.7243 C   0  0  1  0  0  0  0  0  0  0  0  0
   19.7379   -9.3685  -13.7583 C   0  0  0  0  0  0  0  0  0  0  0  0
   20.0345   -8.2031  -14.6538 C   0  0  0  0  0  0  0  0  0  0  0  0
   21.4695   -7.8898  -14.7351 C   0  0  0  0  0  0  0  0  0  0  0  0
   21.8792   -6.7050  -14.5323 O   0  0  0  0  0  0  0  0  0  0  0  0
   17.4208   -8.7389  -13.1319 C   0  0  0  0  0  0  0  0  0  0  0  0
   17.0448   -7.7794  -13.8613 O   0  0  0  0  0  0  0  0  0  0  0  0
   22.4386   -8.8374  -15.0258 O   0  0  0  0  0  0  0  0  0  0  0  0
   16.9924   -8.7707  -11.7855 N   0  0  0  0  0  0  0  0  0  0  0  0
   16.1831   -7.8266  -11.0990 C   0  0  1  0  0  0  0  0  0  0  0  0
   15.5424   -8.2924   -9.8070 C   0  0  0  0  0  0  0  0  0  0  0  0
   14.4595   -7.3543   -9.3388 C   0  0  0  0  0  0  0  0  0  0  0  0
   13.7635   -7.8081   -8.0883 C   0  0  0  0  0  0  0  0  0  0  0  0
   12.5804   -6.9283   -7.7857 C   0  0  0  0  0  0  0  0  0  0  0  0
   12.0001   -7.3916   -6.5190 N   0  0  0  0  0  0  0  0  0  0  0  0
   16.6721   -6.4454  -11.0654 C   0  0  0  0  0  0  0  0  0  0  0  0
   17.8161   -6.2281  -10.5974 O   0  0  0  0  0  0  0  0  0  0  0  0
   17.4084   -2.4158  -13.0972 O   0  0  0  0  0  0  0  0  0  0  0  0
   16.9746   -3.7179  -13.0325 C   0  0  0  0  0  0  0  0  0  0  0  0
   16.4342   -3.9901  -11.6434 C   0  0  2  0  0  0  0  0  0  0  0  0
   15.9259   -5.3438  -11.5315 N   0  0  0  0  0  0  0  0  0  0  0  0
   15.3555   -3.0293  -11.2968 C   0  0  0  0  0  0  0  0  0  0  0  0
   15.6334   -1.8982  -10.8436 O   0  0  0  0  0  0  0  0  0  0  0  0
   14.0331   -3.3755  -11.4716 O   0  0  0  0  0  0  0  0  0  0  0  0
  2  7  1  0
  2  1  1  6
  3  2  1  0
  4  3  1  0
  5  4  1  0
  6  5  2  0
  7  8  2  0
  9  5  1  0
 10 11  1  0
 10  7  1  0
 11 12  1  1
 13 12  1  0
 13 14  1  0
 14 15  1  0
 15 16  1  0
 17 18  2  0
 17 11  1  0
 19 20  1  0
 21 20  1  6
 21 22  1  0
 21 23  1  0
 22 17  1  0
 23 25  1  0
 24 23  2  0
M  END
$$$$
