EKS.pdb
     RDKit          3D

 25 24  0  0  1  0  0  0  0  0999 V2000
   18.2755  -11.2989  -14.8903 N   0  0  0  0  0  0  0  0  0  0  0  0
   18.6532  -10.5475  -16.0430 C   0  0  1  0  0  0  0  0  0  0  0  0
   17.5174   -9.8977  -16.7718 C   0  0  0  0  0  0  0  0  0  0  0  0
   16.3709  -10.8043  -17.1060 C   0  0  0  0  0  0  0  0  0  0  0  0
   15.2949  -10.1243  -17.8435 C   0  0  0  0  0  0  0  0  0  0  0  0
   14.1066  -10.5702  -17.7992 O   0  0  0  0  0  0  0  0  0  0  0  0
   19.7817   -9.5875  -15.8053 C   0  0  0  0  0  0  0  0  0  0  0  0
   19.8768   -9.0238  -14.6795 O   0  0  0  0  0  0  0  0  0  0  0  0
   15.4998   -8.9864  -18.6083 O   0  0  0  0  0  0  0  0  0  0  0  0
   20.7458   -9.2864  -16.7938 N   0  0  0  0  0  0  0  0  0  0  0  0
   21.8520   -8.4002  -16.7005 C   0  0  1  0  0  0  0  0  0  0  0  0
   23.0720   -8.7460  -17.5304 C   0  0  0  0  0  0  0  0  0  0  0  0
   24.2269   -7.8164  -17.2583 C   0  0  0  0  0  0  0  0  0  0  0  0
   25.4307   -8.0780  -18.1165 C   0  0  0  0  0  0  0  0  0  0  0  0
   26.5287   -7.0948  -17.8112 C   0  0  0  0  0  0  0  0  0  0  0  0
   26.0749   -5.7738  -18.2638 N   0  0  0  0  0  0  0  0  0  0  0  0
   21.5429   -6.9685  -16.6510 C   0  0  0  0  0  0  0  0  0  0  0  0
   21.0115   -6.4372  -17.6562 O   0  0  0  0  0  0  0  0  0  0  0  0
   21.2068   -2.9187  -13.9844 O   0  0  0  0  0  0  0  0  0  0  0  0
   21.5740   -4.2422  -14.0191 C   0  0  0  0  0  0  0  0  0  0  0  0
   21.4970   -4.7389  -15.4484 C   0  0  2  0  0  0  0  0  0  0  0  0
   21.8102   -6.1525  -15.5329 N   0  0  0  0  0  0  0  0  0  0  0  0
   22.4231   -3.9766  -16.3249 C   0  0  0  0  0  0  0  0  0  0  0  0
   23.6521   -4.2022  -16.2995 O   0  0  0  0  0  0  0  0  0  0  0  0
   21.9361   -3.0099  -17.1777 O   0  0  0  0  0  0  0  0  0  0  0  0
  2  7  1  0
  2  1  1  1
  3  2  1  0
  4  3  1  0
  5  4  1  0
  6  5  2  0
  7  8  2  0
  9  5  1  0
 10 11  1  0
 10  7  1  0
 11 12  1  6
 13 12  1  0
 13 14  1  0
 14 15  1  0
 15 16  1  0
 17 18  2  0
 17 11  1  0
 19 20  1  0
 21 20  1  1
 21 22  1  0
 21 23  1  0
 22 17  1  0
 23 25  1  0
 24 23  2  0
M  END
$$$$
