EPN.pdb
     RDKit          3D

 25 25  0  0  1  0  0  0  0  0999 V2000
   12.5518  -13.3927   17.2088 N   0  0  0  0  0  0  0  0  0  0  0  0
   11.4292  -14.2495   17.5633 C   0  0  1  0  0  0  0  0  0  0  0  0
   11.6812  -15.6553   17.0890 C   0  0  0  0  0  0  0  0  0  0  0  0
   10.6608  -16.6600   17.4885 C   0  0  0  0  0  0  0  0  0  0  0  0
   10.9209  -18.0441   17.0965 C   0  0  0  0  0  0  0  0  0  0  0  0
   11.8605  -18.6795   17.6404 O   0  0  0  0  0  0  0  0  0  0  0  0
   11.1410  -14.1770   19.0151 C   0  0  0  0  0  0  0  0  0  0  0  0
   12.0883  -14.2225   19.8752 O   0  0  0  0  0  0  0  0  0  0  0  0
   10.1857  -18.7395   16.1357 O   0  0  0  0  0  0  0  0  0  0  0  0
    9.8286  -14.0551   19.5347 N   0  0  0  0  0  0  0  0  0  0  0  0
    8.6354  -13.9786   18.7168 C   0  0  0  0  0  0  0  0  0  0  0  0
    7.7778  -13.0285   19.5679 C   0  0  0  0  0  0  0  0  0  0  0  0
    7.9561  -13.6586   20.9304 C   0  0  0  0  0  0  0  0  0  0  0  0
    9.4303  -13.9699   20.9239 C   0  0  1  0  0  0  0  0  0  0  0  0
    9.6461  -15.2761   21.6254 C   0  0  0  0  0  0  0  0  0  0  0  0
    9.2767  -16.3627   21.1175 O   0  0  0  0  0  0  0  0  0  0  0  0
   12.8091  -16.6196   21.9356 N   0  0  0  0  0  0  0  0  0  0  0  0
   12.9989  -16.4745   23.3367 C   0  0  0  0  0  0  0  0  0  0  0  0
   14.1773  -16.4193   23.7692 O   0  0  0  0  0  0  0  0  0  0  0  0
   11.8958  -16.3858   24.3002 C   0  0  0  0  0  0  0  0  0  0  0  0
   10.5326  -16.4990   23.6511 C   0  0  2  0  0  0  0  0  0  0  0  0
   10.2804  -15.2986   22.8927 N   0  0  0  0  0  0  0  0  0  0  0  0
    9.5457  -16.5777   24.7524 C   0  0  0  0  0  0  0  0  0  0  0  0
    9.3812  -17.6158   25.4505 O   0  0  0  0  0  0  0  0  0  0  0  0
    8.7673  -15.4764   25.0373 O   0  0  0  0  0  0  0  0  0  0  0  0
  2  7  1  0
  2  1  1  1
  3  4  1  0
  3  2  1  0
  5  4  1  0
  6  5  2  0
  7  8  2  0
  9  5  1  0
 10  7  1  0
 10 14  1  0
 11 10  1  0
 12 11  1  0
 12 13  1  0
 13 14  1  0
 14 15  1  1
 15 16  2  0
 17 18  1  0
 18 20  1  0
 19 18  2  0
 21 20  1  1
 21 23  1  0
 22 21  1  0
 22 15  1  0
 23 24  2  0
 23 25  1  0
M  END
$$$$
