EPN.pdb
     RDKit          3D

 25 25  0  0  1  0  0  0  0  0999 V2000
   10.1910  -15.4472   15.0334 N   0  0  0  0  0  0  0  0  0  0  0  0
    9.0674  -15.2089   15.9281 C   0  0  1  0  0  0  0  0  0  0  0  0
    8.1058  -16.3651   15.8704 C   0  0  0  0  0  0  0  0  0  0  0  0
    8.5836  -17.6287   16.4911 C   0  0  0  0  0  0  0  0  0  0  0  0
    7.6008  -18.7031   16.6210 C   0  0  0  0  0  0  0  0  0  0  0  0
    7.9285  -19.7835   17.1754 O   0  0  0  0  0  0  0  0  0  0  0  0
    9.5339  -14.9191   17.3044 C   0  0  0  0  0  0  0  0  0  0  0  0
   10.6814  -15.3203   17.7064 O   0  0  0  0  0  0  0  0  0  0  0  0
    6.2847  -18.6228   16.1640 O   0  0  0  0  0  0  0  0  0  0  0  0
    8.7590  -14.1955   18.2442 N   0  0  0  0  0  0  0  0  0  0  0  0
    7.4532  -13.6361   17.9605 C   0  0  0  0  0  0  0  0  0  0  0  0
    7.5084  -12.3593   18.8146 C   0  0  0  0  0  0  0  0  0  0  0  0
    8.0356  -12.9300   20.1114 C   0  0  0  0  0  0  0  0  0  0  0  0
    9.1034  -13.8682   19.6116 C   0  0  1  0  0  0  0  0  0  0  0  0
    9.1044  -15.0939   20.4732 C   0  0  0  0  0  0  0  0  0  0  0  0
    8.4505  -16.1179   20.1584 O   0  0  0  0  0  0  0  0  0  0  0  0
   11.9731  -18.3532   23.5031 N   0  0  0  0  0  0  0  0  0  0  0  0
   12.6187  -17.4047   22.6644 C   0  0  0  0  0  0  0  0  0  0  0  0
   13.8480  -17.5497   22.4481 O   0  0  0  0  0  0  0  0  0  0  0  0
   11.9283  -16.2703   22.0404 C   0  0  0  0  0  0  0  0  0  0  0  0
   10.4297  -16.2989   22.2554 C   0  0  2  0  0  0  0  0  0  0  0  0
    9.8565  -15.1100   21.6744 N   0  0  0  0  0  0  0  0  0  0  0  0
   10.2125  -16.2607   23.7197 C   0  0  0  0  0  0  0  0  0  0  0  0
   10.4795  -17.2345   24.4765 O   0  0  0  0  0  0  0  0  0  0  0  0
    9.6969  -15.1182   24.2931 O   0  0  0  0  0  0  0  0  0  0  0  0
  2  7  1  0
  2  1  1  6
  3  4  1  0
  3  2  1  0
  5  4  1  0
  6  5  2  0
  7  8  2  0
  9  5  1  0
 10  7  1  0
 10 14  1  0
 11 10  1  0
 12 11  1  0
 12 13  1  0
 13 14  1  0
 14 15  1  1
 15 16  2  0
 17 18  1  0
 18 20  1  0
 19 18  2  0
 21 20  1  1
 21 23  1  0
 22 21  1  0
 22 15  1  0
 23 24  2  0
 23 25  1  0
M  END
$$$$
