EPN.pdb
     RDKit          3D

 25 25  0  0  1  0  0  0  0  0999 V2000
    9.4772  -15.2074   14.5223 N   0  0  0  0  0  0  0  0  0  0  0  0
    8.6088  -15.2206   15.6909 C   0  0  1  0  0  0  0  0  0  0  0  0
    7.9376  -16.5612   15.8216 C   0  0  0  0  0  0  0  0  0  0  0  0
    8.8516  -17.7268   15.9490 C   0  0  0  0  0  0  0  0  0  0  0  0
    8.2211  -19.0296   16.1552 C   0  0  0  0  0  0  0  0  0  0  0  0
    6.9771  -19.1491   16.0128 O   0  0  0  0  0  0  0  0  0  0  0  0
    9.3522  -14.8300   16.9119 C   0  0  0  0  0  0  0  0  0  0  0  0
   10.6182  -15.0031   16.9929 O   0  0  0  0  0  0  0  0  0  0  0  0
    8.9122  -20.1891   16.5090 O   0  0  0  0  0  0  0  0  0  0  0  0
    8.7254  -14.2523   18.0435 N   0  0  0  0  0  0  0  0  0  0  0  0
    7.3067  -13.9728   18.1315 C   0  0  0  0  0  0  0  0  0  0  0  0
    7.3301  -12.6894   18.9770 C   0  0  0  0  0  0  0  0  0  0  0  0
    8.2846  -13.1099   20.0713 C   0  0  0  0  0  0  0  0  0  0  0  0
    9.3470  -13.8279   19.2801 C   0  0  1  0  0  0  0  0  0  0  0  0
    9.8206  -15.0063   20.0750 C   0  0  0  0  0  0  0  0  0  0  0  0
    9.2971  -16.1394   19.9441 O   0  0  0  0  0  0  0  0  0  0  0  0
   14.0154  -17.7721   22.6296 N   0  0  0  0  0  0  0  0  0  0  0  0
   13.4676  -16.5411   23.0821 C   0  0  0  0  0  0  0  0  0  0  0  0
   13.5199  -16.2896   24.3120 O   0  0  0  0  0  0  0  0  0  0  0  0
   12.8474  -15.5530   22.1923 C   0  0  0  0  0  0  0  0  0  0  0  0
   11.4375  -15.9260   21.7851 C   0  0  2  0  0  0  0  0  0  0  0  0
   10.8831  -14.8508   21.0001 N   0  0  0  0  0  0  0  0  0  0  0  0
   10.6552  -16.0490   23.0364 C   0  0  0  0  0  0  0  0  0  0  0  0
   10.6023  -17.1160   23.7080 O   0  0  0  0  0  0  0  0  0  0  0  0
    9.9501  -14.9584   23.4982 O   0  0  0  0  0  0  0  0  0  0  0  0
  2  7  1  0
  2  1  1  6
  3  4  1  0
  3  2  1  0
  5  4  1  0
  6  5  2  0
  7  8  2  0
  9  5  1  0
 10  7  1  0
 10 14  1  0
 11 10  1  0
 12 11  1  0
 12 13  1  0
 13 14  1  0
 14 15  1  1
 15 16  2  0
 17 18  1  0
 18 20  1  0
 19 18  2  0
 21 20  1  1
 21 23  1  0
 22 21  1  0
 22 15  1  0
 23 24  2  0
 23 25  1  0
M  END
$$$$
