EPN.pdb
     RDKit          3D

 25 25  0  0  1  0  0  0  0  0999 V2000
   10.4147  -15.3800   15.3254 N   0  0  0  0  0  0  0  0  0  0  0  0
    9.2383  -15.1886   16.1617 C   0  0  1  0  0  0  0  0  0  0  0  0
    8.2496  -16.2984   15.9258 C   0  0  0  0  0  0  0  0  0  0  0  0
    8.7373  -17.6686   16.2340 C   0  0  0  0  0  0  0  0  0  0  0  0
    7.7475  -18.7425   16.1685 C   0  0  0  0  0  0  0  0  0  0  0  0
    7.9200  -19.7009   15.3724 O   0  0  0  0  0  0  0  0  0  0  0  0
    9.6151  -15.0499   17.5881 C   0  0  0  0  0  0  0  0  0  0  0  0
   10.7178  -15.5317   18.0254 O   0  0  0  0  0  0  0  0  0  0  0  0
    6.5887  -18.7907   16.9444 O   0  0  0  0  0  0  0  0  0  0  0  0
    8.7990  -14.3899   18.5398 N   0  0  0  0  0  0  0  0  0  0  0  0
    7.5091  -13.8046   18.2363 C   0  0  0  0  0  0  0  0  0  0  0  0
    7.5276  -12.5914   19.1800 C   0  0  0  0  0  0  0  0  0  0  0  0
    7.9925  -13.2549   20.4562 C   0  0  0  0  0  0  0  0  0  0  0  0
    9.0802  -14.1615   19.9413 C   0  0  1  0  0  0  0  0  0  0  0  0
    9.0383  -15.4449   20.7134 C   0  0  0  0  0  0  0  0  0  0  0  0
    8.4685  -16.4663   20.2581 O   0  0  0  0  0  0  0  0  0  0  0  0
   12.1386  -19.2955   22.0079 N   0  0  0  0  0  0  0  0  0  0  0  0
   12.4907  -17.9263   22.1541 C   0  0  0  0  0  0  0  0  0  0  0  0
   13.5817  -17.6550   22.7153 O   0  0  0  0  0  0  0  0  0  0  0  0
   11.6509  -16.8179   21.6860 C   0  0  0  0  0  0  0  0  0  0  0  0
   10.3678  -16.6729   22.4767 C   0  0  2  0  0  0  0  0  0  0  0  0
    9.6518  -15.5200   21.9889 N   0  0  0  0  0  0  0  0  0  0  0  0
   10.7636  -16.4231   23.8817 C   0  0  0  0  0  0  0  0  0  0  0  0
   11.0981  -15.2827   24.3056 O   0  0  0  0  0  0  0  0  0  0  0  0
   10.7710  -17.4731   24.7746 O   0  0  0  0  0  0  0  0  0  0  0  0
  2  7  1  0
  2  1  1  6
  3  4  1  0
  3  2  1  0
  5  4  1  0
  6  5  2  0
  7  8  2  0
  9  5  1  0
 10  7  1  0
 10 14  1  0
 11 10  1  0
 12 11  1  0
 12 13  1  0
 13 14  1  0
 14 15  1  1
 15 16  2  0
 17 18  1  0
 18 20  1  0
 19 18  2  0
 21 20  1  6
 21 23  1  0
 22 21  1  0
 22 15  1  0
 23 24  2  0
 23 25  1  0
M  END
$$$$
