EPN.pdb
     RDKit          3D

 25 25  0  0  1  0  0  0  0  0999 V2000
    9.7719  -15.3603   15.2170 N   0  0  0  0  0  0  0  0  0  0  0  0
    8.7497  -15.2160   16.2436 C   0  0  1  0  0  0  0  0  0  0  0  0
    7.8465  -16.4198   16.2474 C   0  0  0  0  0  0  0  0  0  0  0  0
    8.5317  -17.7358   16.3414 C   0  0  0  0  0  0  0  0  0  0  0  0
    7.7276  -18.8556   16.8279 C   0  0  0  0  0  0  0  0  0  0  0  0
    8.2594  -19.9857   16.9776 O   0  0  0  0  0  0  0  0  0  0  0  0
    9.3584  -14.9517   17.5686 C   0  0  0  0  0  0  0  0  0  0  0  0
   10.5292  -15.3860   17.8512 O   0  0  0  0  0  0  0  0  0  0  0  0
    6.3728  -18.7678   17.1503 O   0  0  0  0  0  0  0  0  0  0  0  0
    8.7002  -14.2177   18.5862 N   0  0  0  0  0  0  0  0  0  0  0  0
    7.4118  -13.5766   18.4206 C   0  0  0  0  0  0  0  0  0  0  0  0
    7.6059  -12.3344   19.3048 C   0  0  0  0  0  0  0  0  0  0  0  0
    8.1950  -12.9771   20.5398 C   0  0  0  0  0  0  0  0  0  0  0  0
    9.1653  -13.9564   19.9319 C   0  0  1  0  0  0  0  0  0  0  0  0
    9.1595  -15.2085   20.7546 C   0  0  0  0  0  0  0  0  0  0  0  0
    8.2578  -16.0724   20.6286 O   0  0  0  0  0  0  0  0  0  0  0  0
   12.7335  -15.5349   21.7713 N   0  0  0  0  0  0  0  0  0  0  0  0
   12.5182  -16.9377   21.8480 C   0  0  0  0  0  0  0  0  0  0  0  0
   13.4882  -17.6972   21.6008 O   0  0  0  0  0  0  0  0  0  0  0  0
   11.2285  -17.5428   22.1992 C   0  0  0  0  0  0  0  0  0  0  0  0
   10.1991  -16.5254   22.6440 C   0  0  2  0  0  0  0  0  0  0  0  0
   10.1900  -15.4343   21.7012 N   0  0  0  0  0  0  0  0  0  0  0  0
   10.6531  -16.0115   23.9565 C   0  0  0  0  0  0  0  0  0  0  0  0
   11.1035  -14.8435   24.1151 O   0  0  0  0  0  0  0  0  0  0  0  0
   10.5859  -16.8343   25.0603 O   0  0  0  0  0  0  0  0  0  0  0  0
  2  7  1  0
  2  1  1  6
  3  4  1  0
  3  2  1  0
  5  4  1  0
  6  5  2  0
  7  8  2  0
  9  5  1  0
 10  7  1  0
 10 14  1  0
 11 10  1  0
 12 11  1  0
 12 13  1  0
 13 14  1  0
 14 15  1  1
 15 16  2  0
 17 18  1  0
 18 20  1  0
 19 18  2  0
 21 20  1  6
 21 23  1  0
 22 21  1  0
 22 15  1  0
 23 24  2  0
 23 25  1  0
M  END
$$$$
