EPN.pdb
     RDKit          3D

 25 25  0  0  1  0  0  0  0  0999 V2000
    9.6833  -15.3148   14.7273 N   0  0  0  0  0  0  0  0  0  0  0  0
    8.6944  -15.1612   15.7848 C   0  0  1  0  0  0  0  0  0  0  0  0
    7.7961  -16.3677   15.8324 C   0  0  0  0  0  0  0  0  0  0  0  0
    8.4869  -17.6772   15.9673 C   0  0  0  0  0  0  0  0  0  0  0  0
    7.6310  -18.8578   16.0705 C   0  0  0  0  0  0  0  0  0  0  0  0
    6.4477  -18.8083   15.6467 O   0  0  0  0  0  0  0  0  0  0  0  0
    9.3448  -14.8788   17.0860 C   0  0  0  0  0  0  0  0  0  0  0  0
   10.5598  -15.2211   17.3002 O   0  0  0  0  0  0  0  0  0  0  0  0
    8.0354  -20.0753   16.6196 O   0  0  0  0  0  0  0  0  0  0  0  0
    8.6804  -14.2263   18.1537 N   0  0  0  0  0  0  0  0  0  0  0  0
    7.3113  -13.7571   18.0923 C   0  0  0  0  0  0  0  0  0  0  0  0
    7.4136  -12.4925   18.9599 C   0  0  0  0  0  0  0  0  0  0  0  0
    8.1764  -13.0434   20.1432 C   0  0  0  0  0  0  0  0  0  0  0  0
    9.2132  -13.8956   19.4585 C   0  0  1  0  0  0  0  0  0  0  0  0
    9.4334  -15.1308   20.2773 C   0  0  0  0  0  0  0  0  0  0  0  0
    8.7048  -16.1442   20.1454 O   0  0  0  0  0  0  0  0  0  0  0  0
   13.2733  -18.5692   22.6281 N   0  0  0  0  0  0  0  0  0  0  0  0
   12.8040  -17.3418   23.1696 C   0  0  0  0  0  0  0  0  0  0  0  0
   12.7968  -17.2136   24.4196 O   0  0  0  0  0  0  0  0  0  0  0  0
   12.3300  -16.2213   22.3494 C   0  0  0  0  0  0  0  0  0  0  0  0
   10.8720  -16.3477   21.9609 C   0  0  2  0  0  0  0  0  0  0  0  0
   10.4851  -15.1683   21.2269 N   0  0  0  0  0  0  0  0  0  0  0  0
   10.1007  -16.3916   23.2243 C   0  0  0  0  0  0  0  0  0  0  0  0
    9.6154  -15.3603   23.7657 O   0  0  0  0  0  0  0  0  0  0  0  0
    9.8969  -17.6050   23.8455 O   0  0  0  0  0  0  0  0  0  0  0  0
  2  7  1  0
  2  1  1  6
  3  4  1  0
  3  2  1  0
  5  4  1  0
  6  5  2  0
  7  8  2  0
  9  5  1  0
 10  7  1  0
 10 14  1  0
 11 10  1  0
 12 11  1  0
 12 13  1  0
 13 14  1  0
 14 15  1  1
 15 16  2  0
 17 18  1  0
 18 20  1  0
 19 18  2  0
 21 20  1  1
 21 23  1  0
 22 21  1  0
 22 15  1  0
 23 24  2  0
 23 25  1  0
M  END
$$$$
