EPN.pdb
     RDKit          3D

 25 25  0  0  1  0  0  0  0  0999 V2000
    9.2648  -15.1156   14.5706 N   0  0  0  0  0  0  0  0  0  0  0  0
    8.4644  -15.0757   15.7862 C   0  0  1  0  0  0  0  0  0  0  0  0
    7.7913  -16.4036   16.0062 C   0  0  0  0  0  0  0  0  0  0  0  0
    8.7037  -17.5639   16.1844 C   0  0  0  0  0  0  0  0  0  0  0  0
    8.0761  -18.8403   16.5220 C   0  0  0  0  0  0  0  0  0  0  0  0
    7.2393  -19.3508   15.7338 O   0  0  0  0  0  0  0  0  0  0  0  0
    9.2792  -14.6464   16.9471 C   0  0  0  0  0  0  0  0  0  0  0  0
   10.5471  -14.8241   16.9606 O   0  0  0  0  0  0  0  0  0  0  0  0
    8.3402  -19.5613   17.6872 O   0  0  0  0  0  0  0  0  0  0  0  0
    8.7217  -14.0251   18.0919 N   0  0  0  0  0  0  0  0  0  0  0  0
    7.3314  -13.6349   18.2078 C   0  0  0  0  0  0  0  0  0  0  0  0
    7.4722  -12.3604   19.0554 C   0  0  0  0  0  0  0  0  0  0  0  0
    8.4113  -12.8588   20.1301 C   0  0  0  0  0  0  0  0  0  0  0  0
    9.3984  -13.6555   19.3171 C   0  0  1  0  0  0  0  0  0  0  0  0
    9.7926  -14.8704   20.1002 C   0  0  0  0  0  0  0  0  0  0  0  0
    9.1210  -15.9295   20.0508 O   0  0  0  0  0  0  0  0  0  0  0  0
   14.5096  -14.7907   20.3903 N   0  0  0  0  0  0  0  0  0  0  0  0
   13.6556  -15.8422   20.8208 C   0  0  0  0  0  0  0  0  0  0  0  0
   13.5918  -16.8773   20.1114 O   0  0  0  0  0  0  0  0  0  0  0  0
   12.8485  -15.7827   22.0447 C   0  0  0  0  0  0  0  0  0  0  0  0
   11.3634  -15.9154   21.7811 C   0  0  2  0  0  0  0  0  0  0  0  0
   10.9481  -14.8356   20.9203 N   0  0  0  0  0  0  0  0  0  0  0  0
   10.6870  -15.7628   23.0897 C   0  0  0  0  0  0  0  0  0  0  0  0
   10.0046  -14.7455   23.3923 O   0  0  0  0  0  0  0  0  0  0  0  0
   10.8000  -16.7680   24.0259 O   0  0  0  0  0  0  0  0  0  0  0  0
  2  7  1  0
  2  1  1  6
  3  4  1  0
  3  2  1  0
  5  4  1  0
  6  5  2  0
  7  8  2  0
  9  5  1  0
 10  7  1  0
 10 14  1  0
 11 10  1  0
 12 11  1  0
 12 13  1  0
 13 14  1  0
 14 15  1  1
 15 16  2  0
 17 18  1  0
 18 20  1  0
 19 18  2  0
 21 20  1  1
 21 23  1  0
 22 21  1  0
 22 15  1  0
 23 24  2  0
 23 25  1  0
M  END
$$$$
