EPN.pdb
     RDKit          3D

 25 25  0  0  1  0  0  0  0  0999 V2000
    9.7448  -14.5262   15.9372 N   0  0  0  0  0  0  0  0  0  0  0  0
    8.7706  -14.9694   16.9242 C   0  0  1  0  0  0  0  0  0  0  0  0
    8.2978  -16.3601   16.5962 C   0  0  0  0  0  0  0  0  0  0  0  0
    9.0884  -17.4655   17.1988 C   0  0  0  0  0  0  0  0  0  0  0  0
    8.5696  -18.8184   17.0050 C   0  0  0  0  0  0  0  0  0  0  0  0
    9.1657  -19.7950   17.5276 O   0  0  0  0  0  0  0  0  0  0  0  0
    9.3148  -14.8579   18.2980 C   0  0  0  0  0  0  0  0  0  0  0  0
   10.5558  -15.0694   18.5312 O   0  0  0  0  0  0  0  0  0  0  0  0
    7.4281  -19.1227   16.2622 O   0  0  0  0  0  0  0  0  0  0  0  0
    8.5163  -14.5173   19.4176 N   0  0  0  0  0  0  0  0  0  0  0  0
    7.0801  -14.3356   19.3652 C   0  0  0  0  0  0  0  0  0  0  0  0
    6.9054  -13.2160   20.4039 C   0  0  0  0  0  0  0  0  0  0  0  0
    7.7528  -13.7638   21.5296 C   0  0  0  0  0  0  0  0  0  0  0  0
    8.9529  -14.2766   20.7766 C   0  0  1  0  0  0  0  0  0  0  0  0
    9.4172  -15.5454   21.4241 C   0  0  0  0  0  0  0  0  0  0  0  0
    8.9730  -16.6642   21.0688 O   0  0  0  0  0  0  0  0  0  0  0  0
   13.9796  -17.4968   21.5721 N   0  0  0  0  0  0  0  0  0  0  0  0
   13.1828  -16.4109   22.0262 C   0  0  0  0  0  0  0  0  0  0  0  0
   13.1180  -15.3851   21.3035 O   0  0  0  0  0  0  0  0  0  0  0  0
   12.4352  -16.4251   23.2886 C   0  0  0  0  0  0  0  0  0  0  0  0
   10.9517  -16.6579   23.0952 C   0  0  2  0  0  0  0  0  0  0  0  0
   10.3795  -15.4946   22.4635 N   0  0  0  0  0  0  0  0  0  0  0  0
   10.3661  -16.7964   24.4483 C   0  0  0  0  0  0  0  0  0  0  0  0
   10.3989  -17.8760   25.1006 O   0  0  0  0  0  0  0  0  0  0  0  0
    9.7562  -15.7065   25.0315 O   0  0  0  0  0  0  0  0  0  0  0  0
  2  7  1  0
  2  1  1  6
  3  4  1  0
  3  2  1  0
  5  4  1  0
  6  5  2  0
  7  8  2  0
  9  5  1  0
 10  7  1  0
 10 14  1  0
 11 10  1  0
 12 11  1  0
 12 13  1  0
 13 14  1  0
 14 15  1  1
 15 16  2  0
 17 18  1  0
 18 20  1  0
 19 18  2  0
 21 20  1  1
 21 23  1  0
 22 21  1  0
 22 15  1  0
 23 24  2  0
 23 25  1  0
M  END
$$$$
