EPN.pdb
     RDKit          3D

 25 25  0  0  1  0  0  0  0  0999 V2000
    8.4165  -14.0745   19.2097 N   0  0  0  0  0  0  0  0  0  0  0  0
    7.6541  -14.5604   20.3509 C   0  0  1  0  0  0  0  0  0  0  0  0
    6.9723  -15.8564   20.0037 C   0  0  0  0  0  0  0  0  0  0  0  0
    7.8583  -16.9253   19.4721 C   0  0  0  0  0  0  0  0  0  0  0  0
    7.2245  -18.2084   19.1737 C   0  0  0  0  0  0  0  0  0  0  0  0
    5.9780  -18.3296   19.2908 O   0  0  0  0  0  0  0  0  0  0  0  0
    8.5089  -14.6672   21.5567 C   0  0  0  0  0  0  0  0  0  0  0  0
    9.7442  -14.9893   21.4588 O   0  0  0  0  0  0  0  0  0  0  0  0
    7.9148  -19.3467   18.7554 O   0  0  0  0  0  0  0  0  0  0  0  0
    8.0267  -14.4252   22.8667 N   0  0  0  0  0  0  0  0  0  0  0  0
    6.6795  -13.9856   23.1676 C   0  0  0  0  0  0  0  0  0  0  0  0
    6.9479  -13.0873   24.3856 C   0  0  0  0  0  0  0  0  0  0  0  0
    7.8529  -13.9930   25.1892 C   0  0  0  0  0  0  0  0  0  0  0  0
    8.7516  -14.5463   24.1139 C   0  0  1  0  0  0  0  0  0  0  0  0
    9.0446  -15.9817   24.4274 C   0  0  0  0  0  0  0  0  0  0  0  0
    8.2179  -16.8911   24.1726 O   0  0  0  0  0  0  0  0  0  0  0  0
   13.5471  -19.3312   26.6794 N   0  0  0  0  0  0  0  0  0  0  0  0
   12.6000  -19.1838   25.6298 C   0  0  0  0  0  0  0  0  0  0  0  0
   12.1606  -20.2258   25.0821 O   0  0  0  0  0  0  0  0  0  0  0  0
   12.1107  -17.8847   25.1548 C   0  0  0  0  0  0  0  0  0  0  0  0
   10.6352  -17.6745   25.4220 C   0  0  2  0  0  0  0  0  0  0  0  0
   10.2800  -16.3341   25.0262 N   0  0  0  0  0  0  0  0  0  0  0  0
   10.4493  -17.7994   26.8859 C   0  0  0  0  0  0  0  0  0  0  0  0
   10.4310  -16.8035   27.6605 O   0  0  0  0  0  0  0  0  0  0  0  0
   10.2880  -19.0518   27.4384 O   0  0  0  0  0  0  0  0  0  0  0  0
  2  7  1  0
  2  1  1  6
  3  4  1  0
  3  2  1  0
  5  4  1  0
  6  5  2  0
  7  8  2  0
  9  5  1  0
 10  7  1  0
 10 14  1  0
 11 10  1  0
 12 11  1  0
 12 13  1  0
 13 14  1  0
 14 15  1  1
 15 16  2  0
 17 18  1  0
 18 20  1  0
 19 18  2  0
 21 20  1  1
 21 23  1  0
 22 21  1  0
 22 15  1  0
 23 24  2  0
 23 25  1  0
M  END
$$$$
