EPN.pdb
     RDKit          3D

 25 25  0  0  1  0  0  0  0  0999 V2000
    8.1044  -14.6887   21.2048 N   0  0  0  0  0  0  0  0  0  0  0  0
    7.2701  -14.5785   22.3930 C   0  0  1  0  0  0  0  0  0  0  0  0
    6.3833  -15.7881   22.5166 C   0  0  0  0  0  0  0  0  0  0  0  0
    7.0881  -17.0850   22.6945 C   0  0  0  0  0  0  0  0  0  0  0  0
    6.2461  -18.2580   22.9234 C   0  0  0  0  0  0  0  0  0  0  0  0
    4.9990  -18.1655   22.7886 O   0  0  0  0  0  0  0  0  0  0  0  0
    8.0935  -14.3450   23.6028 C   0  0  0  0  0  0  0  0  0  0  0  0
    9.3230  -14.7004   23.6383 O   0  0  0  0  0  0  0  0  0  0  0  0
    6.7318  -19.5133   23.2917 O   0  0  0  0  0  0  0  0  0  0  0  0
    7.5862  -13.7272   24.7724 N   0  0  0  0  0  0  0  0  0  0  0  0
    6.2286  -13.2408   24.9100 C   0  0  0  0  0  0  0  0  0  0  0  0
    6.4647  -12.0120   25.8028 C   0  0  0  0  0  0  0  0  0  0  0  0
    7.3676  -12.6169   26.8535 C   0  0  0  0  0  0  0  0  0  0  0  0
    8.2914  -13.4533   26.0066 C   0  0  1  0  0  0  0  0  0  0  0  0
    8.5976  -14.7218   26.7428 C   0  0  0  0  0  0  0  0  0  0  0  0
    7.8038  -15.6939   26.7337 O   0  0  0  0  0  0  0  0  0  0  0  0
   11.4069  -18.8827   28.3124 N   0  0  0  0  0  0  0  0  0  0  0  0
   12.1236  -17.6583   28.2273 C   0  0  0  0  0  0  0  0  0  0  0  0
   13.2778  -17.6155   28.7221 O   0  0  0  0  0  0  0  0  0  0  0  0
   11.5889  -16.4472   27.5946 C   0  0  0  0  0  0  0  0  0  0  0  0
   10.2366  -16.0416   28.1416 C   0  0  2  0  0  0  0  0  0  0  0  0
    9.8081  -14.8391   27.4708 N   0  0  0  0  0  0  0  0  0  0  0  0
   10.4360  -15.7360   29.5769 C   0  0  0  0  0  0  0  0  0  0  0  0
   10.4823  -14.5574   30.0252 O   0  0  0  0  0  0  0  0  0  0  0  0
   10.5785  -16.7746   30.4717 O   0  0  0  0  0  0  0  0  0  0  0  0
  2  7  1  0
  2  1  1  6
  3  4  1  0
  3  2  1  0
  5  4  1  0
  6  5  2  0
  7  8  2  0
  9  5  1  0
 10  7  1  0
 10 14  1  0
 11 10  1  0
 12 11  1  0
 12 13  1  0
 13 14  1  0
 14 15  1  1
 15 16  2  0
 17 18  1  0
 18 20  1  0
 19 18  2  0
 21 20  1  6
 21 23  1  0
 22 21  1  0
 22 15  1  0
 23 24  2  0
 23 25  1  0
M  END
$$$$
