EPN.pdb
     RDKit          3D

 25 25  0  0  1  0  0  0  0  0999 V2000
    8.2246  -14.2180   21.0839 N   0  0  0  0  0  0  0  0  0  0  0  0
    7.4343  -14.4579   22.2830 C   0  0  1  0  0  0  0  0  0  0  0  0
    6.8706  -15.8532   22.2606 C   0  0  0  0  0  0  0  0  0  0  0  0
    6.6012  -16.4149   20.9107 C   0  0  0  0  0  0  0  0  0  0  0  0
    6.2184  -17.8247   20.8562 C   0  0  0  0  0  0  0  0  0  0  0  0
    5.2531  -18.2353   21.5502 O   0  0  0  0  0  0  0  0  0  0  0  0
    8.2226  -14.1774   23.5061 C   0  0  0  0  0  0  0  0  0  0  0  0
    9.4729  -14.4481   23.5572 O   0  0  0  0  0  0  0  0  0  0  0  0
    6.8596  -18.7826   20.0697 O   0  0  0  0  0  0  0  0  0  0  0  0
    7.6576  -13.6044   24.6721 N   0  0  0  0  0  0  0  0  0  0  0  0
    6.2960  -13.1178   24.7596 C   0  0  0  0  0  0  0  0  0  0  0  0
    6.4892  -11.9266   25.7117 C   0  0  0  0  0  0  0  0  0  0  0  0
    7.3357  -12.5769   26.7821 C   0  0  0  0  0  0  0  0  0  0  0  0
    8.2995  -13.3831   25.9506 C   0  0  1  0  0  0  0  0  0  0  0  0
    8.5646  -14.6812   26.6501 C   0  0  0  0  0  0  0  0  0  0  0  0
    7.8057  -15.6706   26.5073 O   0  0  0  0  0  0  0  0  0  0  0  0
   11.8036  -18.8188   27.3586 N   0  0  0  0  0  0  0  0  0  0  0  0
   12.2493  -17.5115   27.6937 C   0  0  0  0  0  0  0  0  0  0  0  0
   13.2792  -17.4044   28.4056 O   0  0  0  0  0  0  0  0  0  0  0  0
   11.5732  -16.2859   27.2538 C   0  0  0  0  0  0  0  0  0  0  0  0
   10.2397  -16.0679   27.9370 C   0  0  2  0  0  0  0  0  0  0  0  0
    9.6948  -14.8076   27.4961 N   0  0  0  0  0  0  0  0  0  0  0  0
   10.5185  -15.9797   29.3887 C   0  0  0  0  0  0  0  0  0  0  0  0
   10.6365  -14.8805   29.9970 O   0  0  0  0  0  0  0  0  0  0  0  0
   10.6571  -17.1409   30.1182 O   0  0  0  0  0  0  0  0  0  0  0  0
  2  7  1  0
  2  1  1  6
  3  4  1  0
  3  2  1  0
  5  4  1  0
  6  5  2  0
  7  8  2  0
  9  5  1  0
 10  7  1  0
 10 14  1  0
 11 10  1  0
 12 11  1  0
 12 13  1  0
 13 14  1  0
 14 15  1  1
 15 16  2  0
 17 18  1  0
 18 20  1  0
 19 18  2  0
 21 20  1  6
 21 23  1  0
 22 21  1  0
 22 15  1  0
 23 24  2  0
 23 25  1  0
M  END
$$$$
