EPN.pdb
     RDKit          3D

 25 25  0  0  1  0  0  0  0  0999 V2000
    9.2485  -17.0879   16.4222 N   0  0  0  0  0  0  0  0  0  0  0  0
    8.2695  -16.5173   17.3365 C   0  0  1  0  0  0  0  0  0  0  0  0
    7.2030  -17.5314   17.6514 C   0  0  0  0  0  0  0  0  0  0  0  0
    6.6028  -18.2173   16.4768 C   0  0  0  0  0  0  0  0  0  0  0  0
    6.0466  -19.5483   16.7136 C   0  0  0  0  0  0  0  0  0  0  0  0
    5.5554  -20.1977   15.7550 O   0  0  0  0  0  0  0  0  0  0  0  0
    8.9252  -15.9786   18.5513 C   0  0  0  0  0  0  0  0  0  0  0  0
   10.0509  -16.4411   18.9492 O   0  0  0  0  0  0  0  0  0  0  0  0
    6.0165  -20.1765   17.9594 O   0  0  0  0  0  0  0  0  0  0  0  0
    8.3628  -14.9403   19.3341 N   0  0  0  0  0  0  0  0  0  0  0  0
    7.1347  -14.2474   19.0020 C   0  0  0  0  0  0  0  0  0  0  0  0
    7.4641  -12.8382   19.5202 C   0  0  0  0  0  0  0  0  0  0  0  0
    8.0226  -13.1802   20.8826 C   0  0  0  0  0  0  0  0  0  0  0  0
    8.8836  -14.3740   20.5604 C   0  0  1  0  0  0  0  0  0  0  0  0
    8.7837  -15.3541   21.6891 C   0  0  0  0  0  0  0  0  0  0  0  0
    7.7044  -15.9342   21.9611 O   0  0  0  0  0  0  0  0  0  0  0  0
   12.1449  -17.7324   20.9280 N   0  0  0  0  0  0  0  0  0  0  0  0
   11.9026  -17.6720   22.3272 C   0  0  0  0  0  0  0  0  0  0  0  0
   12.8706  -17.4033   23.0819 O   0  0  0  0  0  0  0  0  0  0  0  0
   10.5871  -17.9055   22.9338 C   0  0  0  0  0  0  0  0  0  0  0  0
    9.9685  -16.6482   23.5075 C   0  0  2  0  0  0  0  0  0  0  0  0
    9.9270  -15.6411   22.4762 N   0  0  0  0  0  0  0  0  0  0  0  0
   10.8744  -16.1849   24.5835 C   0  0  0  0  0  0  0  0  0  0  0  0
   11.0236  -16.8110   25.6689 O   0  0  0  0  0  0  0  0  0  0  0  0
   11.5912  -15.0213   24.4041 O   0  0  0  0  0  0  0  0  0  0  0  0
  2  7  1  0
  2  1  1  6
  3  4  1  0
  3  2  1  0
  5  4  1  0
  6  5  2  0
  7  8  2  0
  9  5  1  0
 10  7  1  0
 10 14  1  0
 11 10  1  0
 12 11  1  0
 12 13  1  0
 13 14  1  0
 14 15  1  1
 15 16  2  0
 17 18  1  0
 18 20  1  0
 19 18  2  0
 21 20  1  6
 21 23  1  0
 22 21  1  0
 22 15  1  0
 23 24  2  0
 23 25  1  0
M  END
$$$$
