EPN.pdb
     RDKit          3D

 25 25  0  0  1  0  0  0  0  0999 V2000
    8.3221  -13.8526   20.4472 N   0  0  0  0  0  0  0  0  0  0  0  0
    7.5330  -14.3961   21.5435 C   0  0  1  0  0  0  0  0  0  0  0  0
    7.1105  -15.8056   21.2277 C   0  0  0  0  0  0  0  0  0  0  0  0
    8.2102  -16.8030   21.1497 C   0  0  0  0  0  0  0  0  0  0  0  0
    7.8117  -18.2018   21.0022 C   0  0  0  0  0  0  0  0  0  0  0  0
    8.6904  -19.1017   20.9894 O   0  0  0  0  0  0  0  0  0  0  0  0
    8.2626  -14.2905   22.8290 C   0  0  0  0  0  0  0  0  0  0  0  0
    9.5405  -14.3603   22.8659 O   0  0  0  0  0  0  0  0  0  0  0  0
    6.4909  -18.6323   20.8703 O   0  0  0  0  0  0  0  0  0  0  0  0
    7.6091  -14.1092   24.0729 N   0  0  0  0  0  0  0  0  0  0  0  0
    6.1702  -14.0724   24.2363 C   0  0  0  0  0  0  0  0  0  0  0  0
    6.0480  -13.0487   25.3764 C   0  0  0  0  0  0  0  0  0  0  0  0
    7.0980  -13.5810   26.3248 C   0  0  0  0  0  0  0  0  0  0  0  0
    8.2165  -13.9167   25.3728 C   0  0  1  0  0  0  0  0  0  0  0  0
    8.8851  -15.1718   25.8442 C   0  0  0  0  0  0  0  0  0  0  0  0
    8.6535  -16.2812   25.3049 O   0  0  0  0  0  0  0  0  0  0  0  0
   10.2657  -13.8301   30.0814 N   0  0  0  0  0  0  0  0  0  0  0  0
   11.0475  -14.4578   29.0740 C   0  0  0  0  0  0  0  0  0  0  0  0
   11.7820  -13.7306   28.3595 O   0  0  0  0  0  0  0  0  0  0  0  0
   11.0422  -15.9040   28.8259 C   0  0  0  0  0  0  0  0  0  0  0  0
   10.4793  -16.2694   27.4686 C   0  0  2  0  0  0  0  0  0  0  0  0
    9.8020  -15.1188   26.9238 N   0  0  0  0  0  0  0  0  0  0  0  0
    9.4816  -17.3391   27.6994 C   0  0  0  0  0  0  0  0  0  0  0  0
    8.2405  -17.1582   27.5610 O   0  0  0  0  0  0  0  0  0  0  0  0
    9.9142  -18.5906   28.0822 O   0  0  0  0  0  0  0  0  0  0  0  0
  2  7  1  0
  2  1  1  6
  3  4  1  0
  3  2  1  0
  5  4  1  0
  6  5  2  0
  7  8  2  0
  9  5  1  0
 10  7  1  0
 10 14  1  0
 11 10  1  0
 12 11  1  0
 12 13  1  0
 13 14  1  0
 14 15  1  1
 15 16  2  0
 17 18  1  0
 18 20  1  0
 19 18  2  0
 21 20  1  1
 21 23  1  0
 22 21  1  0
 22 15  1  0
 23 24  2  0
 23 25  1  0
M  END
$$$$
