LIE.pdb
     RDKit          3D

 26 25  0  0  1  0  0  0  0  0999 V2000
    6.4571  -13.4195   19.8461 C   0  0  0  0  0  0  0  0  0  0  0  0
    7.8820  -13.6538   19.4221 C   0  0  1  0  0  0  0  0  0  0  0  0
    8.3756  -12.5161   18.5284 C   0  0  0  0  0  0  0  0  0  0  0  0
    8.8111  -13.7645   20.5737 C   0  0  0  0  0  0  0  0  0  0  0  0
    8.4983  -14.9350   21.4475 C   0  0  2  0  0  0  0  0  0  0  0  0
    7.0137  -15.1092   21.4407 N   0  0  0  0  0  0  0  0  0  0  0  0
    8.8621  -14.7729   22.8687 C   0  0  0  0  0  0  0  0  0  0  0  0
   10.0938  -14.5739   23.1451 O   0  0  0  0  0  0  0  0  0  0  0  0
    5.8390  -11.9328   26.1247 C   0  0  0  0  0  0  0  0  0  0  0  0
    7.0005  -12.5746   25.3964 C   0  0  0  0  0  0  0  0  0  0  0  0
    7.4602  -13.8167   26.1068 C   0  0  2  0  0  0  0  0  0  0  0  0
    8.0299  -13.5052   27.4737 C   0  0  0  0  0  0  0  0  0  0  0  0
    8.4731  -14.6102   25.3545 C   0  0  2  0  0  0  0  0  0  0  0  0
    7.9899  -14.8106   23.9767 N   0  0  0  0  0  0  0  0  0  0  0  0
    8.7834  -15.9255   25.9826 C   0  0  0  0  0  0  0  0  0  0  0  0
    7.8967  -16.7792   26.2521 O   0  0  0  0  0  0  0  0  0  0  0  0
   10.1183  -16.2857   26.3136 N   0  0  0  0  0  0  0  0  0  0  0  0
   10.4235  -17.5653   26.9663 C   0  0  1  0  0  0  0  0  0  0  0  0
   11.6611  -18.0994   26.2838 C   0  0  0  0  0  0  0  0  0  0  0  0
   11.5224  -18.3032   24.8168 C   0  0  0  0  0  0  0  0  0  0  0  0
   12.8089  -18.8353   24.2917 C   0  0  0  0  0  0  0  0  0  0  0  0
   13.7143  -19.1187   25.1127 O   0  0  0  0  0  0  0  0  0  0  0  0
   10.6733  -17.2750   28.3909 C   0  0  0  0  0  0  0  0  0  0  0  0
   10.6983  -15.9774   28.8576 O   0  0  0  0  0  0  0  0  0  0  0  0
   13.0002  -19.0113   22.9471 O   0  0  0  0  0  0  0  0  0  0  0  0
   10.8712  -18.1865   29.2274 O   0  0  0  0  0  0  0  0  0  0  0  0
  2  3  1  6
  2  1  1  0
  4  2  1  0
  4  5  1  0
  5  7  1  0
  5  6  1  1
  7  8  2  0
 10  9  1  0
 11 10  1  0
 11 12  1  1
 13 11  1  0
 13 14  1  6
 14  7  1  0
 15 16  2  0
 15 13  1  0
 17 15  1  0
 18 23  1  0
 18 17  1  0
 18 19  1  6
 20 19  1  0
 20 21  1  0
 21 25  1  0
 22 21  2  0
 23 24  1  0
 26 23  2  0
M  END
$$$$
