LIE.pdb
     RDKit          3D

 26 25  0  0  1  0  0  0  0  0999 V2000
    7.1249  -12.2376   27.9916 C   0  0  0  0  0  0  0  0  0  0  0  0
    6.3297  -13.2906   27.2680 C   0  0  1  0  0  0  0  0  0  0  0  0
    5.5604  -12.6796   26.0969 C   0  0  0  0  0  0  0  0  0  0  0  0
    7.1794  -14.3836   26.7343 C   0  0  0  0  0  0  0  0  0  0  0  0
    6.4667  -15.2145   25.7177 C   0  0  2  0  0  0  0  0  0  0  0  0
    6.2590  -16.5676   26.3179 N   0  0  0  0  0  0  0  0  0  0  0  0
    7.2143  -15.4563   24.4683 C   0  0  0  0  0  0  0  0  0  0  0  0
    7.9928  -16.4690   24.4311 O   0  0  0  0  0  0  0  0  0  0  0  0
    8.0869  -13.2353   18.7081 C   0  0  0  0  0  0  0  0  0  0  0  0
    8.4371  -14.2768   19.7493 C   0  0  0  0  0  0  0  0  0  0  0  0
    7.6688  -14.0459   21.0203 C   0  0  2  0  0  0  0  0  0  0  0  0
    7.8912  -12.6526   21.5671 C   0  0  0  0  0  0  0  0  0  0  0  0
    7.9755  -15.0217   22.1043 C   0  0  2  0  0  0  0  0  0  0  0  0
    7.1651  -14.6850   23.2882 N   0  0  0  0  0  0  0  0  0  0  0  0
    9.4193  -15.0680   22.4708 C   0  0  0  0  0  0  0  0  0  0  0  0
    9.9842  -14.1585   23.1351 O   0  0  0  0  0  0  0  0  0  0  0  0
   10.2423  -16.1598   22.0813 N   0  0  0  0  0  0  0  0  0  0  0  0
   11.6308  -16.2722   22.5460 C   0  0  1  0  0  0  0  0  0  0  0  0
   11.7282  -17.6007   23.2589 C   0  0  0  0  0  0  0  0  0  0  0  0
   13.1030  -17.9782   23.6838 C   0  0  0  0  0  0  0  0  0  0  0  0
   13.0440  -19.3145   24.3358 C   0  0  0  0  0  0  0  0  0  0  0  0
   12.0291  -20.0262   24.1417 O   0  0  0  0  0  0  0  0  0  0  0  0
   12.4916  -16.2359   21.3485 C   0  0  0  0  0  0  0  0  0  0  0  0
   13.8280  -15.9084   21.4441 O   0  0  0  0  0  0  0  0  0  0  0  0
   14.0706  -19.7563   25.1272 O   0  0  0  0  0  0  0  0  0  0  0  0
   12.0483  -16.4984   20.2065 O   0  0  0  0  0  0  0  0  0  0  0  0
  2  3  1  6
  2  1  1  0
  4  2  1  0
  4  5  1  0
  5  7  1  0
  5  6  1  1
  7  8  2  0
 10  9  1  0
 11 10  1  0
 11 12  1  1
 13 11  1  0
 13 14  1  1
 14  7  1  0
 15 16  2  0
 15 13  1  0
 17 15  1  0
 18 23  1  0
 18 17  1  0
 18 19  1  6
 20 19  1  0
 20 21  1  0
 21 25  1  0
 22 21  2  0
 23 24  1  0
 26 23  2  0
M  END
$$$$
