LIE.pdb
     RDKit          3D

 26 25  0  0  1  0  0  0  0  0999 V2000
   10.0327  -13.7810   28.3107 C   0  0  0  0  0  0  0  0  0  0  0  0
    8.6999  -14.0628   27.6710 C   0  0  1  0  0  0  0  0  0  0  0  0
    8.0572  -12.7711   27.1657 C   0  0  0  0  0  0  0  0  0  0  0  0
    8.8016  -14.9997   26.5250 C   0  0  0  0  0  0  0  0  0  0  0  0
    7.5203  -15.1114   25.7650 C   0  0  2  0  0  0  0  0  0  0  0  0
    6.6559  -16.0885   26.4947 N   0  0  0  0  0  0  0  0  0  0  0  0
    7.6462  -15.6524   24.3976 C   0  0  0  0  0  0  0  0  0  0  0  0
    7.4376  -16.9025   24.2343 O   0  0  0  0  0  0  0  0  0  0  0  0
    8.3263  -12.4470   19.7193 C   0  0  0  0  0  0  0  0  0  0  0  0
    8.7084  -13.4269   20.8081 C   0  0  0  0  0  0  0  0  0  0  0  0
    7.7450  -14.5794   20.8564 C   0  0  2  0  0  0  0  0  0  0  0  0
    6.3192  -14.1133   21.0556 C   0  0  0  0  0  0  0  0  0  0  0  0
    8.0525  -15.5877   21.9101 C   0  0  2  0  0  0  0  0  0  0  0  0
    7.9740  -14.9341   23.2286 N   0  0  0  0  0  0  0  0  0  0  0  0
    9.3833  -16.2367   21.7409 C   0  0  0  0  0  0  0  0  0  0  0  0
    9.6578  -16.9868   20.7663 O   0  0  0  0  0  0  0  0  0  0  0  0
   10.4247  -16.0370   22.6878 N   0  0  0  0  0  0  0  0  0  0  0  0
   11.7059  -16.7454   22.5734 C   0  0  1  0  0  0  0  0  0  0  0  0
   12.7359  -15.6958   22.2265 C   0  0  0  0  0  0  0  0  0  0  0  0
   14.0813  -16.2336   21.8893 C   0  0  0  0  0  0  0  0  0  0  0  0
   15.0058  -15.0877   21.6737 C   0  0  0  0  0  0  0  0  0  0  0  0
   15.5293  -14.9512   20.5417 O   0  0  0  0  0  0  0  0  0  0  0  0
   11.9793  -17.3590   23.8868 C   0  0  0  0  0  0  0  0  0  0  0  0
   12.8135  -18.4515   24.0005 O   0  0  0  0  0  0  0  0  0  0  0  0
   15.2784  -14.2048   22.6844 O   0  0  0  0  0  0  0  0  0  0  0  0
   11.4698  -16.9173   24.9426 O   0  0  0  0  0  0  0  0  0  0  0  0
  2  3  1  6
  2  1  1  0
  4  2  1  0
  4  5  1  0
  5  7  1  0
  5  6  1  1
  7  8  2  0
 10  9  1  0
 11 10  1  0
 11 12  1  1
 13 11  1  0
 13 14  1  1
 14  7  1  0
 15 16  2  0
 15 13  1  0
 17 15  1  0
 18 23  1  0
 18 17  1  0
 18 19  1  1
 20 19  1  0
 20 21  1  0
 21 25  1  0
 22 21  2  0
 23 24  1  0
 26 23  2  0
M  END
$$$$
