LIE.pdb
     RDKit          3D

 26 25  0  0  1  0  0  0  0  0999 V2000
    6.2599  -21.9287   24.2346 C   0  0  0  0  0  0  0  0  0  0  0  0
    5.7060  -20.5859   23.8411 C   0  0  1  0  0  0  0  0  0  0  0  0
    4.3953  -20.3038   24.5754 C   0  0  0  0  0  0  0  0  0  0  0  0
    6.6416  -19.4723   24.1348 C   0  0  0  0  0  0  0  0  0  0  0  0
    6.0517  -18.1356   23.8234 C   0  0  2  0  0  0  0  0  0  0  0  0
    5.8221  -18.0853   22.3472 N   0  0  0  0  0  0  0  0  0  0  0  0
    6.9220  -16.9808   24.1189 C   0  0  0  0  0  0  0  0  0  0  0  0
    7.8881  -16.7471   23.3157 O   0  0  0  0  0  0  0  0  0  0  0  0
    5.4307  -12.4683   26.8787 C   0  0  0  0  0  0  0  0  0  0  0  0
    6.1840  -13.2383   25.8152 C   0  0  0  0  0  0  0  0  0  0  0  0
    7.2806  -14.0653   26.4254 C   0  0  2  0  0  0  0  0  0  0  0  0
    8.4187  -13.2058   26.9313 C   0  0  0  0  0  0  0  0  0  0  0  0
    7.8506  -15.0938   25.5096 C   0  0  2  0  0  0  0  0  0  0  0  0
    6.8061  -16.0878   25.2048 N   0  0  0  0  0  0  0  0  0  0  0  0
    9.0577  -15.7741   26.0582 C   0  0  0  0  0  0  0  0  0  0  0  0
    9.0002  -16.6181   26.9920 O   0  0  0  0  0  0  0  0  0  0  0  0
   10.3545  -15.4981   25.5449 N   0  0  0  0  0  0  0  0  0  0  0  0
   11.5162  -16.3093   25.9309 C   0  0  1  0  0  0  0  0  0  0  0  0
   12.6593  -15.8465   25.0580 C   0  0  0  0  0  0  0  0  0  0  0  0
   13.9764  -16.4561   25.3849 C   0  0  0  0  0  0  0  0  0  0  0  0
   14.9075  -16.2000   24.2528 C   0  0  0  0  0  0  0  0  0  0  0  0
   15.0426  -17.0919   23.3809 O   0  0  0  0  0  0  0  0  0  0  0  0
   11.7789  -16.0369   27.3567 C   0  0  0  0  0  0  0  0  0  0  0  0
   12.4962  -16.9263   28.1292 O   0  0  0  0  0  0  0  0  0  0  0  0
   15.5993  -15.0213   24.1647 O   0  0  0  0  0  0  0  0  0  0  0  0
   11.3653  -14.9966   27.9190 O   0  0  0  0  0  0  0  0  0  0  0  0
  2  3  1  1
  2  1  1  0
  4  2  1  0
  4  5  1  0
  5  7  1  0
  5  6  1  6
  7  8  2  0
 10  9  1  0
 11 10  1  0
 11 12  1  6
 13 11  1  0
 13 14  1  1
 14  7  1  0
 15 16  2  0
 15 13  1  0
 17 15  1  0
 18 23  1  0
 18 17  1  0
 18 19  1  6
 20 19  1  0
 20 21  1  0
 21 25  1  0
 22 21  2  0
 23 24  1  0
 26 23  2  0
M  END
$$$$
