LIE.pdb
     RDKit          3D

 26 25  0  0  1  0  0  0  0  0999 V2000
    7.9326  -19.6860   19.8709 C   0  0  0  0  0  0  0  0  0  0  0  0
    7.6215  -18.2152   19.9401 C   0  0  1  0  0  0  0  0  0  0  0  0
    6.1160  -17.9739   19.8312 C   0  0  0  0  0  0  0  0  0  0  0  0
    8.0935  -17.5888   21.1997 C   0  0  0  0  0  0  0  0  0  0  0  0
    7.9093  -16.1064   21.2026 C   0  0  2  0  0  0  0  0  0  0  0  0
    8.7428  -15.5539   20.0915 N   0  0  0  0  0  0  0  0  0  0  0  0
    8.3812  -15.4172   22.4194 C   0  0  0  0  0  0  0  0  0  0  0  0
    9.6431  -15.2898   22.5756 O   0  0  0  0  0  0  0  0  0  0  0  0
    6.6665  -11.6216   26.9868 C   0  0  0  0  0  0  0  0  0  0  0  0
    7.7150  -12.5704   26.4467 C   0  0  0  0  0  0  0  0  0  0  0  0
    7.2107  -13.2919   25.2285 C   0  0  2  0  0  0  0  0  0  0  0  0
    5.9124  -14.0195   25.5025 C   0  0  0  0  0  0  0  0  0  0  0  0
    8.1771  -14.2717   24.6562 C   0  0  2  0  0  0  0  0  0  0  0  0
    7.5843  -14.8710   23.4473 N   0  0  0  0  0  0  0  0  0  0  0  0
    8.5749  -15.3421   25.6137 C   0  0  0  0  0  0  0  0  0  0  0  0
    7.8331  -16.3232   25.8872 O   0  0  0  0  0  0  0  0  0  0  0  0
    9.8326  -15.3065   26.2756 N   0  0  0  0  0  0  0  0  0  0  0  0
   10.3504  -16.4785   26.9932 C   0  0  1  0  0  0  0  0  0  0  0  0
   11.4950  -17.0077   26.1609 C   0  0  0  0  0  0  0  0  0  0  0  0
   12.8014  -16.3395   26.4054 C   0  0  0  0  0  0  0  0  0  0  0  0
   13.7073  -16.6456   25.2653 C   0  0  0  0  0  0  0  0  0  0  0  0
   13.3019  -17.4363   24.3796 O   0  0  0  0  0  0  0  0  0  0  0  0
   10.8126  -16.0079   28.3127 C   0  0  0  0  0  0  0  0  0  0  0  0
   11.2498  -16.8982   29.2711 O   0  0  0  0  0  0  0  0  0  0  0  0
   14.9515  -16.0791   25.1846 O   0  0  0  0  0  0  0  0  0  0  0  0
   10.8268  -14.7920   28.6140 O   0  0  0  0  0  0  0  0  0  0  0  0
  2  3  1  1
  2  1  1  0
  4  2  1  0
  4  5  1  0
  5  7  1  0
  5  6  1  6
  7  8  2  0
 10  9  1  0
 11 10  1  0
 11 12  1  1
 13 11  1  0
 13 14  1  6
 14  7  1  0
 15 16  2  0
 15 13  1  0
 17 15  1  0
 18 23  1  0
 18 17  1  0
 18 19  1  6
 20 19  1  0
 20 21  1  0
 21 25  1  0
 22 21  2  0
 23 24  1  0
 26 23  2  0
M  END
$$$$
