LIE.pdb
     RDKit          3D

 26 25  0  0  1  0  0  0  0  0999 V2000
    7.0210  -17.3257   18.6666 C   0  0  0  0  0  0  0  0  0  0  0  0
    6.3614  -17.4141   20.0165 C   0  0  1  0  0  0  0  0  0  0  0  0
    6.0271  -18.8650   20.3625 C   0  0  0  0  0  0  0  0  0  0  0  0
    7.2102  -16.8700   21.1051 C   0  0  0  0  0  0  0  0  0  0  0  0
    6.8893  -15.4453   21.4197 C   0  0  2  0  0  0  0  0  0  0  0  0
    7.3073  -14.6261   20.2414 N   0  0  0  0  0  0  0  0  0  0  0  0
    7.6222  -14.8750   22.5668 C   0  0  0  0  0  0  0  0  0  0  0  0
    8.8353  -14.5209   22.3770 O   0  0  0  0  0  0  0  0  0  0  0  0
    5.4282  -11.7749   26.3806 C   0  0  0  0  0  0  0  0  0  0  0  0
    6.5133  -12.2578   25.4421 C   0  0  0  0  0  0  0  0  0  0  0  0
    7.1736  -13.4977   25.9764 C   0  0  2  0  0  0  0  0  0  0  0  0
    8.0469  -13.1981   27.1753 C   0  0  0  0  0  0  0  0  0  0  0  0
    8.0000  -14.2288   24.9745 C   0  0  2  0  0  0  0  0  0  0  0  0
    7.1274  -14.6699   23.8718 N   0  0  0  0  0  0  0  0  0  0  0  0
    8.7305  -15.3958   25.5449 C   0  0  0  0  0  0  0  0  0  0  0  0
    8.1451  -16.3557   26.1138 O   0  0  0  0  0  0  0  0  0  0  0  0
   10.1477  -15.4830   25.4730 N   0  0  0  0  0  0  0  0  0  0  0  0
   10.8564  -16.7124   25.8507 C   0  0  1  0  0  0  0  0  0  0  0  0
   12.2454  -16.5914   25.2684 C   0  0  0  0  0  0  0  0  0  0  0  0
   13.1698  -17.6988   25.6320 C   0  0  0  0  0  0  0  0  0  0  0  0
   14.3108  -17.6922   24.6769 C   0  0  0  0  0  0  0  0  0  0  0  0
   14.7726  -16.5849   24.3102 O   0  0  0  0  0  0  0  0  0  0  0  0
   10.8893  -16.7568   27.3248 C   0  0  0  0  0  0  0  0  0  0  0  0
   10.7496  -15.6067   28.0733 O   0  0  0  0  0  0  0  0  0  0  0  0
   14.8433  -18.8644   24.2101 O   0  0  0  0  0  0  0  0  0  0  0  0
   11.0440  -17.8306   27.9515 O   0  0  0  0  0  0  0  0  0  0  0  0
  2  3  1  1
  2  1  1  0
  4  2  1  0
  4  5  1  0
  5  7  1  0
  5  6  1  6
  7  8  2  0
 10  9  1  0
 11 10  1  0
 11 12  1  1
 13 11  1  0
 13 14  1  6
 14  7  1  0
 15 16  2  0
 15 13  1  0
 17 15  1  0
 18 23  1  0
 18 17  1  0
 18 19  1  6
 20 19  1  0
 20 21  1  0
 21 25  1  0
 22 21  2  0
 23 24  1  0
 26 23  2  0
M  END
$$$$
