LIE.pdb
     RDKit          3D

 26 25  0  0  1  0  0  0  0  0999 V2000
    7.4977  -12.0862   18.6912 C   0  0  0  0  0  0  0  0  0  0  0  0
    7.5022  -13.4370   19.3547 C   0  0  1  0  0  0  0  0  0  0  0  0
    7.9865  -14.5153   18.3854 C   0  0  0  0  0  0  0  0  0  0  0  0
    8.3709  -13.4815   20.5567 C   0  0  0  0  0  0  0  0  0  0  0  0
    8.2199  -14.7556   21.3218 C   0  0  2  0  0  0  0  0  0  0  0  0
    6.7663  -15.1040   21.3205 N   0  0  0  0  0  0  0  0  0  0  0  0
    8.5985  -14.6815   22.7464 C   0  0  0  0  0  0  0  0  0  0  0  0
    9.8240  -14.4460   23.0215 O   0  0  0  0  0  0  0  0  0  0  0  0
    5.9833  -11.8049   26.2010 C   0  0  0  0  0  0  0  0  0  0  0  0
    7.0515  -12.5470   25.4266 C   0  0  0  0  0  0  0  0  0  0  0  0
    7.3161  -13.8962   26.0336 C   0  0  2  0  0  0  0  0  0  0  0  0
    7.8642  -13.7831   27.4396 C   0  0  0  0  0  0  0  0  0  0  0  0
    8.2476  -14.7491   25.2423 C   0  0  2  0  0  0  0  0  0  0  0  0
    7.7466  -14.8412   23.8594 N   0  0  0  0  0  0  0  0  0  0  0  0
    8.4306  -16.1146   25.8106 C   0  0  0  0  0  0  0  0  0  0  0  0
    7.4741  -16.9173   25.9794 O   0  0  0  0  0  0  0  0  0  0  0  0
    9.7158  -16.5846   26.1959 N   0  0  0  0  0  0  0  0  0  0  0  0
    9.9041  -17.9402   26.7284 C   0  0  1  0  0  0  0  0  0  0  0  0
   10.8192  -18.6487   25.7571 C   0  0  0  0  0  0  0  0  0  0  0  0
   12.1777  -18.0543   25.6373 C   0  0  0  0  0  0  0  0  0  0  0  0
   12.7341  -18.4162   24.3056 C   0  0  0  0  0  0  0  0  0  0  0  0
   12.5338  -19.5768   23.8732 O   0  0  0  0  0  0  0  0  0  0  0  0
   10.5293  -17.7995   28.0572 C   0  0  0  0  0  0  0  0  0  0  0  0
   10.9229  -16.5650   28.5298 O   0  0  0  0  0  0  0  0  0  0  0  0
   13.4463  -17.5062   23.5706 O   0  0  0  0  0  0  0  0  0  0  0  0
   10.7266  -18.7861   28.8036 O   0  0  0  0  0  0  0  0  0  0  0  0
  2  3  1  6
  2  1  1  0
  4  2  1  0
  4  5  1  0
  5  7  1  0
  5  6  1  1
  7  8  2  0
 10  9  1  0
 11 10  1  0
 11 12  1  1
 13 11  1  0
 13 14  1  6
 14  7  1  0
 15 16  2  0
 15 13  1  0
 17 15  1  0
 18 23  1  0
 18 17  1  0
 18 19  1  6
 20 19  1  0
 20 21  1  0
 21 25  1  0
 22 21  2  0
 23 24  1  0
 26 23  2  0
M  END
$$$$
