LIE.pdb
     RDKit          3D

 26 25  0  0  1  0  0  0  0  0999 V2000
    7.5691  -12.0587   18.7583 C   0  0  0  0  0  0  0  0  0  0  0  0
    8.1648  -13.1956   19.5440 C   0  0  1  0  0  0  0  0  0  0  0  0
    9.0289  -12.6687   20.6896 C   0  0  0  0  0  0  0  0  0  0  0  0
    7.1348  -14.0916   20.1252 C   0  0  0  0  0  0  0  0  0  0  0  0
    7.7318  -15.1981   20.9319 C   0  0  2  0  0  0  0  0  0  0  0  0
    6.6264  -16.1452   21.2718 N   0  0  0  0  0  0  0  0  0  0  0  0
    8.3047  -14.7908   22.2297 C   0  0  0  0  0  0  0  0  0  0  0  0
    9.5461  -14.4891   22.2599 O   0  0  0  0  0  0  0  0  0  0  0  0
    7.3499  -11.8448   27.4189 C   0  0  0  0  0  0  0  0  0  0  0  0
    8.2091  -12.8797   26.7245 C   0  0  0  0  0  0  0  0  0  0  0  0
    7.5118  -13.4320   25.5130 C   0  0  2  0  0  0  0  0  0  0  0  0
    6.2137  -14.1200   25.8755 C   0  0  0  0  0  0  0  0  0  0  0  0
    8.3345  -14.3875   24.7184 C   0  0  2  0  0  0  0  0  0  0  0  0
    7.6261  -14.6921   23.4624 N   0  0  0  0  0  0  0  0  0  0  0  0
    8.6477  -15.6497   25.4463 C   0  0  0  0  0  0  0  0  0  0  0  0
    7.7879  -16.5457   25.6599 O   0  0  0  0  0  0  0  0  0  0  0  0
    9.9546  -15.9072   25.9431 N   0  0  0  0  0  0  0  0  0  0  0  0
   10.3365  -17.2385   26.4314 C   0  0  1  0  0  0  0  0  0  0  0  0
   11.5948  -17.6141   25.6841 C   0  0  0  0  0  0  0  0  0  0  0  0
   12.2325  -18.8791   26.1382 C   0  0  0  0  0  0  0  0  0  0  0  0
   13.3927  -19.1660   25.2519 C   0  0  0  0  0  0  0  0  0  0  0  0
   14.2534  -18.2677   25.0899 O   0  0  0  0  0  0  0  0  0  0  0  0
   10.5842  -17.1127   27.8802 C   0  0  0  0  0  0  0  0  0  0  0  0
   10.7477  -18.2299   28.6723 O   0  0  0  0  0  0  0  0  0  0  0  0
   13.5181  -20.3791   24.6288 O   0  0  0  0  0  0  0  0  0  0  0  0
   10.6555  -15.9968   28.4451 O   0  0  0  0  0  0  0  0  0  0  0  0
  2  3  1  1
  2  1  1  0
  4  2  1  0
  4  5  1  0
  5  7  1  0
  5  6  1  1
  7  8  2  0
 10  9  1  0
 11 10  1  0
 11 12  1  1
 13 11  1  0
 13 14  1  6
 14  7  1  0
 15 16  2  0
 15 13  1  0
 17 15  1  0
 18 23  1  0
 18 17  1  0
 18 19  1  6
 20 19  1  0
 20 21  1  0
 21 25  1  0
 22 21  2  0
 23 24  1  0
 26 23  2  0
M  END
$$$$
