LIE.pdb
     RDKit          3D

 26 25  0  0  1  0  0  0  0  0999 V2000
    5.6447  -17.1929   21.0725 C   0  0  0  0  0  0  0  0  0  0  0  0
    7.1157  -16.8851   20.9925 C   0  0  1  0  0  0  0  0  0  0  0  0
    7.8938  -18.0905   20.4651 C   0  0  0  0  0  0  0  0  0  0  0  0
    7.4116  -15.7299   20.1095 C   0  0  0  0  0  0  0  0  0  0  0  0
    7.1271  -14.4205   20.7700 C   0  0  2  0  0  0  0  0  0  0  0  0
    7.6749  -13.3487   19.8836 N   0  0  0  0  0  0  0  0  0  0  0  0
    7.7873  -14.2184   22.0744 C   0  0  0  0  0  0  0  0  0  0  0  0
    9.0601  -14.1048   22.0821 O   0  0  0  0  0  0  0  0  0  0  0  0
    5.6941  -11.3707   26.1911 C   0  0  0  0  0  0  0  0  0  0  0  0
    6.7046  -11.9328   25.2142 C   0  0  0  0  0  0  0  0  0  0  0  0
    7.1144  -13.3247   25.6059 C   0  0  2  0  0  0  0  0  0  0  0  0
    7.8744  -13.3403   26.9144 C   0  0  0  0  0  0  0  0  0  0  0  0
    7.9404  -14.0278   24.5839 C   0  0  2  0  0  0  0  0  0  0  0  0
    7.1628  -14.1323   23.3363 N   0  0  0  0  0  0  0  0  0  0  0  0
    8.3960  -15.3795   25.0157 C   0  0  0  0  0  0  0  0  0  0  0  0
    7.5977  -16.3246   25.2549 O   0  0  0  0  0  0  0  0  0  0  0  0
    9.7774  -15.6719   25.1812 N   0  0  0  0  0  0  0  0  0  0  0  0
   10.2361  -17.0275   25.5103 C   0  0  1  0  0  0  0  0  0  0  0  0
   11.5477  -17.2143   24.7840 C   0  0  0  0  0  0  0  0  0  0  0  0
   12.2878  -18.4527   25.1471 C   0  0  0  0  0  0  0  0  0  0  0  0
   13.5430  -18.5018   24.3496 C   0  0  0  0  0  0  0  0  0  0  0  0
   13.7799  -17.5599   23.5554 O   0  0  0  0  0  0  0  0  0  0  0  0
   10.4153  -17.0797   26.9737 C   0  0  0  0  0  0  0  0  0  0  0  0
   10.5441  -18.2854   27.6309 O   0  0  0  0  0  0  0  0  0  0  0  0
   14.4173  -19.5480   24.4789 O   0  0  0  0  0  0  0  0  0  0  0  0
   10.4574  -16.0410   27.6728 O   0  0  0  0  0  0  0  0  0  0  0  0
  2  3  1  6
  2  1  1  0
  4  2  1  0
  4  5  1  0
  5  7  1  0
  5  6  1  6
  7  8  2  0
 10  9  1  0
 11 10  1  0
 11 12  1  1
 13 11  1  0
 13 14  1  6
 14  7  1  0
 15 16  2  0
 15 13  1  0
 17 15  1  0
 18 23  1  0
 18 17  1  0
 18 19  1  6
 20 19  1  0
 20 21  1  0
 21 25  1  0
 22 21  2  0
 23 24  1  0
 26 23  2  0
M  END
$$$$
