LIE.pdb
     RDKit          3D

 26 25  0  0  1  0  0  0  0  0999 V2000
    7.0615  -19.7987   20.2851 C   0  0  0  0  0  0  0  0  0  0  0  0
    7.1483  -18.2970   20.2378 C   0  0  1  0  0  0  0  0  0  0  0  0
    5.7900  -17.6861   19.8936 C   0  0  0  0  0  0  0  0  0  0  0  0
    7.6000  -17.7089   21.5230 C   0  0  0  0  0  0  0  0  0  0  0  0
    7.5317  -16.2166   21.5218 C   0  0  2  0  0  0  0  0  0  0  0  0
    8.2904  -15.7391   20.3256 N   0  0  0  0  0  0  0  0  0  0  0  0
    8.1742  -15.5575   22.6756 C   0  0  0  0  0  0  0  0  0  0  0  0
    9.4510  -15.5092   22.6939 O   0  0  0  0  0  0  0  0  0  0  0  0
    7.2313  -11.6155   27.3335 C   0  0  0  0  0  0  0  0  0  0  0  0
    8.1527  -12.6272   26.6861 C   0  0  0  0  0  0  0  0  0  0  0  0
    7.4472  -13.3707   25.5868 C   0  0  2  0  0  0  0  0  0  0  0  0
    6.1827  -14.0391   26.0809 C   0  0  0  0  0  0  0  0  0  0  0  0
    8.2842  -14.4051   24.9154 C   0  0  2  0  0  0  0  0  0  0  0  0
    7.5285  -14.9619   23.7793 N   0  0  0  0  0  0  0  0  0  0  0  0
    8.7172  -15.5020   25.8266 C   0  0  0  0  0  0  0  0  0  0  0  0
    7.9166  -16.3522   26.2997 O   0  0  0  0  0  0  0  0  0  0  0  0
   10.0783  -15.6437   26.2122 N   0  0  0  0  0  0  0  0  0  0  0  0
   10.5310  -16.7946   27.0039 C   0  0  1  0  0  0  0  0  0  0  0  0
   11.8048  -17.2779   26.3508 C   0  0  0  0  0  0  0  0  0  0  0  0
   11.6098  -17.9815   25.0546 C   0  0  0  0  0  0  0  0  0  0  0  0
   12.9416  -18.4058   24.5444 C   0  0  0  0  0  0  0  0  0  0  0  0
   13.0778  -19.5892   24.1504 O   0  0  0  0  0  0  0  0  0  0  0  0
   10.7765  -16.3067   28.3743 C   0  0  0  0  0  0  0  0  0  0  0  0
   10.6801  -14.9648   28.6784 O   0  0  0  0  0  0  0  0  0  0  0  0
   13.9918  -17.5276   24.5056 O   0  0  0  0  0  0  0  0  0  0  0  0
   11.0797  -17.0836   29.3092 O   0  0  0  0  0  0  0  0  0  0  0  0
  2  3  1  1
  2  1  1  0
  4  2  1  0
  4  5  1  0
  5  7  1  0
  5  6  1  6
  7  8  2  0
 10  9  1  0
 11 10  1  0
 11 12  1  1
 13 11  1  0
 13 14  1  6
 14  7  1  0
 15 16  2  0
 15 13  1  0
 17 15  1  0
 18 23  1  0
 18 17  1  0
 18 19  1  6
 20 19  1  0
 20 21  1  0
 21 25  1  0
 22 21  2  0
 23 24  1  0
 26 23  2  0
M  END
$$$$
