LIE.pdb
     RDKit          3D

 26 25  0  0  1  0  0  0  0  0999 V2000
    9.8862  -17.9189   27.0992 C   0  0  0  0  0  0  0  0  0  0  0  0
    9.1155  -18.6297   28.1788 C   0  0  1  0  0  0  0  0  0  0  0  0
    8.7439  -17.6646   29.3045 C   0  0  0  0  0  0  0  0  0  0  0  0
    7.8635  -19.2475   27.6765 C   0  0  0  0  0  0  0  0  0  0  0  0
    6.8595  -18.2294   27.2441 C   0  0  2  0  0  0  0  0  0  0  0  0
    5.6762  -18.9718   26.7121 N   0  0  0  0  0  0  0  0  0  0  0  0
    7.2921  -17.3497   26.1408 C   0  0  0  0  0  0  0  0  0  0  0  0
    7.5946  -17.9010   25.0283 O   0  0  0  0  0  0  0  0  0  0  0  0
    7.4058  -11.6145   26.3648 C   0  0  0  0  0  0  0  0  0  0  0  0
    7.9494  -13.0259   26.3024 C   0  0  0  0  0  0  0  0  0  0  0  0
    7.3746  -13.7722   25.1312 C   0  0  2  0  0  0  0  0  0  0  0  0
    5.8623  -13.8051   25.1722 C   0  0  0  0  0  0  0  0  0  0  0  0
    7.8636  -15.1741   25.0018 C   0  0  2  0  0  0  0  0  0  0  0  0
    7.4097  -15.9443   26.1734 N   0  0  0  0  0  0  0  0  0  0  0  0
    9.3441  -15.2767   24.8661 C   0  0  0  0  0  0  0  0  0  0  0  0
   10.1367  -14.9897   25.8027 O   0  0  0  0  0  0  0  0  0  0  0  0
    9.9431  -15.7110   23.6521 N   0  0  0  0  0  0  0  0  0  0  0  0
   11.3765  -16.0214   23.5771 C   0  0  1  0  0  0  0  0  0  0  0  0
   11.4723  -17.5179   23.3918 C   0  0  0  0  0  0  0  0  0  0  0  0
   11.1693  -17.9938   22.0153 C   0  0  0  0  0  0  0  0  0  0  0  0
   11.3765  -19.4666   21.9703 C   0  0  0  0  0  0  0  0  0  0  0  0
   12.5529  -19.9002   21.9222 O   0  0  0  0  0  0  0  0  0  0  0  0
   11.9153  -15.2959   22.4111 C   0  0  0  0  0  0  0  0  0  0  0  0
   13.2744  -15.1328   22.2422 O   0  0  0  0  0  0  0  0  0  0  0  0
   10.3110  -20.3269   21.9810 O   0  0  0  0  0  0  0  0  0  0  0  0
   11.1677  -14.8028   21.5350 O   0  0  0  0  0  0  0  0  0  0  0  0
  2  3  1  1
  2  1  1  0
  4  2  1  0
  4  5  1  0
  5  7  1  0
  5  6  1  6
  7  8  2  0
 10  9  1  0
 11 10  1  0
 11 12  1  1
 13 11  1  0
 13 14  1  1
 14  7  1  0
 15 16  2  0
 15 13  1  0
 17 15  1  0
 18 23  1  0
 18 17  1  0
 18 19  1  6
 20 19  1  0
 20 21  1  0
 21 25  1  0
 22 21  2  0
 23 24  1  0
 26 23  2  0
M  END
$$$$
