LIE.pdb
     RDKit          3D

 26 25  0  0  1  0  0  0  0  0999 V2000
    7.1867  -12.1398   19.2202 C   0  0  0  0  0  0  0  0  0  0  0  0
    7.3789  -13.5355   19.7492 C   0  0  1  0  0  0  0  0  0  0  0  0
    7.7702  -14.4928   18.6235 C   0  0  0  0  0  0  0  0  0  0  0  0
    8.4270  -13.6115   20.7967 C   0  0  0  0  0  0  0  0  0  0  0  0
    8.4695  -14.9472   21.4644 C   0  0  2  0  0  0  0  0  0  0  0  0
    7.0607  -15.3237   21.7927 N   0  0  0  0  0  0  0  0  0  0  0  0
    9.1895  -14.9830   22.7522 C   0  0  0  0  0  0  0  0  0  0  0  0
   10.4508  -14.7790   22.7308 O   0  0  0  0  0  0  0  0  0  0  0  0
    9.3394  -12.9351   28.2009 C   0  0  0  0  0  0  0  0  0  0  0  0
    9.5367  -14.3036   27.5846 C   0  0  0  0  0  0  0  0  0  0  0  0
    8.7653  -14.4315   26.3011 C   0  0  2  0  0  0  0  0  0  0  0  0
    7.4004  -15.0459   26.5237 C   0  0  0  0  0  0  0  0  0  0  0  0
    9.4614  -15.2229   25.2473 C   0  0  2  0  0  0  0  0  0  0  0  0
    8.6344  -15.2185   24.0275 N   0  0  0  0  0  0  0  0  0  0  0  0
    9.7594  -16.6246   25.6566 C   0  0  0  0  0  0  0  0  0  0  0  0
    8.8875  -17.5342   25.6607 O   0  0  0  0  0  0  0  0  0  0  0  0
   11.0645  -17.0087   26.0691 N   0  0  0  0  0  0  0  0  0  0  0  0
   11.3921  -18.4112   26.3556 C   0  0  1  0  0  0  0  0  0  0  0  0
   12.7475  -18.6602   25.7362 C   0  0  0  0  0  0  0  0  0  0  0  0
   13.3503  -19.9785   26.0704 C   0  0  0  0  0  0  0  0  0  0  0  0
   14.6782  -20.0711   25.4054 C   0  0  0  0  0  0  0  0  0  0  0  0
   15.6122  -20.6406   26.0197 O   0  0  0  0  0  0  0  0  0  0  0  0
   11.4329  -18.5543   27.8233 C   0  0  0  0  0  0  0  0  0  0  0  0
   11.3829  -19.7981   28.4173 O   0  0  0  0  0  0  0  0  0  0  0  0
   14.8761  -19.5483   24.1552 O   0  0  0  0  0  0  0  0  0  0  0  0
   11.5138  -17.5616   28.5832 O   0  0  0  0  0  0  0  0  0  0  0  0
  2  3  1  6
  2  1  1  0
  4  2  1  0
  4  5  1  0
  5  7  1  0
  5  6  1  1
  7  8  2  0
 10  9  1  0
 11 10  1  0
 11 12  1  1
 13 11  1  0
 13 14  1  6
 14  7  1  0
 15 16  2  0
 15 13  1  0
 17 15  1  0
 18 23  1  0
 18 17  1  0
 18 19  1  6
 20 19  1  0
 20 21  1  0
 21 25  1  0
 22 21  2  0
 23 24  1  0
 26 23  2  0
M  END
$$$$
