LIE.pdb
     RDKit          3D

 26 25  0  0  1  0  0  0  0  0999 V2000
    6.6627  -21.8578   24.1373 C   0  0  0  0  0  0  0  0  0  0  0  0
    6.3477  -20.6197   23.3418 C   0  0  1  0  0  0  0  0  0  0  0  0
    4.8438  -20.5024   23.0942 C   0  0  0  0  0  0  0  0  0  0  0  0
    6.7968  -19.3765   24.0159 C   0  0  0  0  0  0  0  0  0  0  0  0
    6.5623  -18.1596   23.1817 C   0  0  2  0  0  0  0  0  0  0  0  0
    7.0561  -18.4645   21.8042 N   0  0  0  0  0  0  0  0  0  0  0  0
    7.3073  -16.9568   23.6021 C   0  0  0  0  0  0  0  0  0  0  0  0
    8.4679  -16.7739   23.0995 O   0  0  0  0  0  0  0  0  0  0  0  0
    6.8148  -11.3962   26.2521 C   0  0  0  0  0  0  0  0  0  0  0  0
    7.7293  -12.5206   25.8151 C   0  0  0  0  0  0  0  0  0  0  0  0
    6.9356  -13.7133   25.3606 C   0  0  2  0  0  0  0  0  0  0  0  0
    5.9566  -14.1741   26.4184 C   0  0  0  0  0  0  0  0  0  0  0  0
    7.7677  -14.8833   24.9606 C   0  0  2  0  0  0  0  0  0  0  0  0
    6.8763  -15.9668   24.5098 N   0  0  0  0  0  0  0  0  0  0  0  0
    8.6608  -15.3762   26.0470 C   0  0  0  0  0  0  0  0  0  0  0  0
    8.2488  -16.0971   26.9947 O   0  0  0  0  0  0  0  0  0  0  0  0
   10.0446  -15.0506   26.0661 N   0  0  0  0  0  0  0  0  0  0  0  0
   10.9690  -15.7036   27.0018 C   0  0  1  0  0  0  0  0  0  0  0  0
   12.3574  -15.4615   26.4570 C   0  0  0  0  0  0  0  0  0  0  0  0
   12.6907  -16.2440   25.2364 C   0  0  0  0  0  0  0  0  0  0  0  0
   14.0585  -15.8626   24.7917 C   0  0  0  0  0  0  0  0  0  0  0  0
   14.8631  -16.7777   24.4928 O   0  0  0  0  0  0  0  0  0  0  0  0
   10.7825  -15.0579   28.3150 C   0  0  0  0  0  0  0  0  0  0  0  0
   11.1166  -15.7124   29.4821 O   0  0  0  0  0  0  0  0  0  0  0  0
   14.4299  -14.5470   24.7106 O   0  0  0  0  0  0  0  0  0  0  0  0
   10.3174  -13.8996   28.4229 O   0  0  0  0  0  0  0  0  0  0  0  0
  2  3  1  1
  2  1  1  0
  4  2  1  0
  4  5  1  0
  5  7  1  0
  5  6  1  6
  7  8  2  0
 10  9  1  0
 11 10  1  0
 11 12  1  1
 13 11  1  0
 13 14  1  1
 14  7  1  0
 15 16  2  0
 15 13  1  0
 17 15  1  0
 18 23  1  0
 18 17  1  0
 18 19  1  6
 20 19  1  0
 20 21  1  0
 21 25  1  0
 22 21  2  0
 23 24  1  0
 26 23  2  0
M  END
$$$$
