CLE.pdb
     RDKit          3D

 24 23  0  0  1  0  0  0  0  0999 V2000
   15.2221  -11.9877  -12.0279 N   0  0  0  0  0  0  0  0  0  0  0  0
   16.2305  -11.0101  -11.7320 C   0  0  1  0  0  0  0  0  0  0  0  0
   17.1874  -10.8410  -12.8859 C   0  0  0  0  0  0  0  0  0  0  0  0
   18.3983  -12.1917  -12.8148 S   0  0  0  0  0  0  0  0  0  0  0  0
   15.5950   -9.7171  -11.3850 C   0  0  0  0  0  0  0  0  0  0  0  0
   14.7537   -9.2217  -12.1841 O   0  0  0  0  0  0  0  0  0  0  0  0
   15.0223   -6.2884   -6.3094 C   0  0  0  0  0  0  0  0  0  0  0  0
   14.7683   -6.3071   -7.8250 C   0  0  2  0  0  0  0  0  0  0  0  0
   13.2878   -6.2470   -8.0079 C   0  0  0  0  0  0  0  0  0  0  0  0
   15.4299   -7.5437   -8.3336 C   0  0  0  0  0  0  0  0  0  0  0  0
   15.2918   -7.8046   -9.7928 C   0  0  2  0  0  0  0  0  0  0  0  0
   15.9146   -9.0470  -10.1935 N   0  0  0  0  0  0  0  0  0  0  0  0
   16.0223   -6.7013  -10.5182 C   0  0  0  0  0  0  0  0  0  0  0  0
   17.2581   -6.8799  -10.7626 O   0  0  0  0  0  0  0  0  0  0  0  0
   15.3822   -5.5166  -10.9163 N   0  0  0  0  0  0  0  0  0  0  0  0
   16.0887   -4.5589  -11.8236 C   0  0  1  0  0  0  0  0  0  0  0  0
   16.4716   -5.3122  -13.0288 C   0  0  0  0  0  0  0  0  0  0  0  0
   17.0803   -4.5206  -14.1294 C   0  0  0  0  0  0  0  0  0  0  0  0
   17.3526   -5.2183  -15.3893 C   0  0  0  0  0  0  0  0  0  0  0  0
   16.7570   -6.2815  -15.6674 O   0  0  0  0  0  0  0  0  0  0  0  0
   15.3046   -3.3529  -11.9754 C   0  0  0  0  0  0  0  0  0  0  0  0
   14.0642   -3.2782  -11.9110 O   0  0  0  0  0  0  0  0  0  0  0  0
   18.2658   -4.7053  -16.2838 O   0  0  0  0  0  0  0  0  0  0  0  0
   15.9849   -2.1340  -12.2203 O   0  0  0  0  0  0  0  0  0  0  0  0
  2  3  1  0
  2  1  1  6
  4  3  1  0
  5  2  1  0
  5  6  2  0
  8  7  1  1
  8 10  1  0
  8  9  1  0
 11 10  1  1
 11 13  1  0
 12 11  1  0
 12  5  1  0
 13 14  2  0
 13 15  1  0
 15 16  1  0
 16 21  1  0
 16 17  1  6
 18 17  1  0
 19 18  1  0
 20 19  2  0
 21 22  2  0
 21 24  1  0
 23 19  1  0
M  END
$$$$
