CLE.pdb
     RDKit          3D

 24 23  0  0  1  0  0  0  0  0999 V2000
   16.2974  -20.0952    1.7620 N   0  0  0  0  0  0  0  0  0  0  0  0
   15.5887  -19.1612    2.5899 C   0  0  1  0  0  0  0  0  0  0  0  0
   14.6430  -19.8671    3.5297 C   0  0  0  0  0  0  0  0  0  0  0  0
   13.4407  -20.7893    2.5298 S   0  0  0  0  0  0  0  0  0  0  0  0
   16.5503  -18.3244    3.3457 C   0  0  0  0  0  0  0  0  0  0  0  0
   17.6025  -18.8610    3.7891 O   0  0  0  0  0  0  0  0  0  0  0  0
   17.5109  -12.3011    4.1555 C   0  0  0  0  0  0  0  0  0  0  0  0
   17.8605  -13.6895    4.7143 C   0  0  2  0  0  0  0  0  0  0  0  0
   19.3369  -13.8492    4.5606 C   0  0  0  0  0  0  0  0  0  0  0  0
   17.0251  -14.6591    3.9478 C   0  0  0  0  0  0  0  0  0  0  0  0
   17.2285  -16.0971    4.2752 C   0  0  2  0  0  0  0  0  0  0  0  0
   16.3064  -16.9602    3.5704 N   0  0  0  0  0  0  0  0  0  0  0  0
   16.9418  -16.2683    5.7468 C   0  0  0  0  0  0  0  0  0  0  0  0
   15.7237  -16.3813    6.0964 O   0  0  0  0  0  0  0  0  0  0  0  0
   17.9644  -16.3040    6.7086 N   0  0  0  0  0  0  0  0  0  0  0  0
   17.6193  -16.4798    8.1541 C   0  0  1  0  0  0  0  0  0  0  0  0
   18.5513  -17.4801    8.6994 C   0  0  0  0  0  0  0  0  0  0  0  0
   18.4126  -17.7825   10.1478 C   0  0  0  0  0  0  0  0  0  0  0  0
   19.3905  -18.6996   10.7404 C   0  0  0  0  0  0  0  0  0  0  0  0
   20.2953  -19.2019   10.0394 O   0  0  0  0  0  0  0  0  0  0  0  0
   17.5262  -15.1890    8.7999 C   0  0  0  0  0  0  0  0  0  0  0  0
   16.7529  -14.8939    9.7291 O   0  0  0  0  0  0  0  0  0  0  0  0
   19.3249  -19.0137   12.0799 O   0  0  0  0  0  0  0  0  0  0  0  0
   18.3806  -14.1499    8.3539 O   0  0  0  0  0  0  0  0  0  0  0  0
  2  3  1  0
  2  1  1  1
  4  3  1  0
  5  2  1  0
  5  6  2  0
  8  7  1  6
  8 10  1  0
  8  9  1  0
 11 10  1  6
 11 13  1  0
 12 11  1  0
 12  5  1  0
 13 14  2  0
 13 15  1  0
 15 16  1  0
 16 21  1  0
 16 17  1  1
 18 17  1  0
 19 18  1  0
 20 19  2  0
 21 22  2  0
 21 24  1  0
 23 19  1  0
M  END
$$$$
