CLE.pdb
     RDKit          3D

 24 23  0  0  1  0  0  0  0  0999 V2000
   29.8560  -21.4030  -19.2327 N   0  0  0  0  0  0  0  0  0  0  0  0
   29.6300  -21.8896  -17.9015 C   0  0  1  0  0  0  0  0  0  0  0  0
   28.2062  -21.6517  -17.4636 C   0  0  0  0  0  0  0  0  0  0  0  0
   28.0428  -19.9020  -17.0078 S   0  0  0  0  0  0  0  0  0  0  0  0
   29.9673  -23.3306  -17.8256 C   0  0  0  0  0  0  0  0  0  0  0  0
   29.6117  -24.0867  -18.7710 O   0  0  0  0  0  0  0  0  0  0  0  0
   33.9904  -25.9477  -14.3232 C   0  0  0  0  0  0  0  0  0  0  0  0
   33.2906  -25.9320  -15.6914 C   0  0  2  0  0  0  0  0  0  0  0  0
   34.0759  -25.0051  -16.5591 C   0  0  0  0  0  0  0  0  0  0  0  0
   31.8811  -25.5232  -15.4232 C   0  0  0  0  0  0  0  0  0  0  0  0
   31.0418  -25.2494  -16.6220 C   0  0  2  0  0  0  0  0  0  0  0  0
   30.6684  -23.8561  -16.7287 N   0  0  0  0  0  0  0  0  0  0  0  0
   29.7600  -26.0292  -16.4614 C   0  0  0  0  0  0  0  0  0  0  0  0
   28.8483  -25.5142  -15.7385 O   0  0  0  0  0  0  0  0  0  0  0  0
   29.5611  -27.2757  -17.0767 N   0  0  0  0  0  0  0  0  0  0  0  0
   28.2383  -27.9641  -16.9507 C   0  0  1  0  0  0  0  0  0  0  0  0
   27.4339  -27.5651  -18.1170 C   0  0  0  0  0  0  0  0  0  0  0  0
   26.1324  -28.2629  -18.2840 C   0  0  0  0  0  0  0  0  0  0  0  0
   25.2971  -27.8661  -19.4211 C   0  0  0  0  0  0  0  0  0  0  0  0
   25.2520  -26.6724  -19.7894 O   0  0  0  0  0  0  0  0  0  0  0  0
   28.4376  -29.3729  -16.6907 C   0  0  0  0  0  0  0  0  0  0  0  0
   29.4512  -30.0314  -16.9863 O   0  0  0  0  0  0  0  0  0  0  0  0
   24.5556  -28.8077  -20.1000 O   0  0  0  0  0  0  0  0  0  0  0  0
   27.4018  -30.0911  -16.0427 O   0  0  0  0  0  0  0  0  0  0  0  0
  2  3  1  0
  2  1  1  6
  4  3  1  0
  5  2  1  0
  5  6  2  0
  8  7  1  1
  8 10  1  0
  8  9  1  0
 11 10  1  1
 11 13  1  0
 12 11  1  0
 12  5  1  0
 13 14  2  0
 13 15  1  0
 15 16  1  0
 16 21  1  0
 16 17  1  6
 18 17  1  0
 19 18  1  0
 20 19  2  0
 21 22  2  0
 21 24  1  0
 23 19  1  0
M  END
$$$$
