CLE.pdb
     RDKit          3D

 24 23  0  0  1  0  0  0  0  0999 V2000
   18.4117  -12.4675  -17.6507 N   0  0  0  0  0  0  0  0  0  0  0  0
   19.0871  -11.2536  -18.0118 C   0  0  1  0  0  0  0  0  0  0  0  0
   18.1101  -10.1888  -18.4446 C   0  0  0  0  0  0  0  0  0  0  0  0
   17.4175  -10.6799  -20.0493 S   0  0  0  0  0  0  0  0  0  0  0  0
   19.9120  -10.7770  -16.8766 C   0  0  0  0  0  0  0  0  0  0  0  0
   19.3701  -10.6527  -15.7440 O   0  0  0  0  0  0  0  0  0  0  0  0
   23.4205  -12.2710  -14.5084 C   0  0  0  0  0  0  0  0  0  0  0  0
   23.7717  -11.9449  -15.9688 C   0  0  2  0  0  0  0  0  0  0  0  0
   25.1806  -12.3929  -16.1765 C   0  0  0  0  0  0  0  0  0  0  0  0
   23.5317  -10.4812  -16.1282 C   0  0  0  0  0  0  0  0  0  0  0  0
   22.1231  -10.0290  -15.9621 C   0  0  2  0  0  0  0  0  0  0  0  0
   21.2707  -10.4667  -17.0455 N   0  0  0  0  0  0  0  0  0  0  0  0
   22.1276   -8.5204  -15.9982 C   0  0  0  0  0  0  0  0  0  0  0  0
   22.4470   -7.9623  -17.0961 O   0  0  0  0  0  0  0  0  0  0  0  0
   21.7959   -7.7446  -14.8757 N   0  0  0  0  0  0  0  0  0  0  0  0
   21.7836   -6.2519  -14.9813 C   0  0  1  0  0  0  0  0  0  0  0  0
   20.4945   -5.8746  -15.5830 C   0  0  0  0  0  0  0  0  0  0  0  0
   20.2436   -4.4174  -15.7327 C   0  0  0  0  0  0  0  0  0  0  0  0
   18.9925   -4.0129  -16.3804 C   0  0  0  0  0  0  0  0  0  0  0  0
   18.9831   -3.6652  -17.5810 O   0  0  0  0  0  0  0  0  0  0  0  0
   22.1598   -5.6643  -13.7143 C   0  0  0  0  0  0  0  0  0  0  0  0
   22.1135   -6.2303  -12.6070 O   0  0  0  0  0  0  0  0  0  0  0  0
   17.8111   -4.0168  -15.6722 O   0  0  0  0  0  0  0  0  0  0  0  0
   22.6259   -4.3259  -13.7048 O   0  0  0  0  0  0  0  0  0  0  0  0
  2  3  1  0
  2  1  1  1
  4  3  1  0
  5  2  1  0
  5  6  2  0
  8  7  1  1
  8 10  1  0
  8  9  1  0
 11 10  1  6
 11 13  1  0
 12 11  1  0
 12  5  1  0
 13 14  2  0
 13 15  1  0
 15 16  1  0
 16 21  1  0
 16 17  1  1
 18 17  1  0
 19 18  1  0
 20 19  2  0
 21 22  2  0
 21 24  1  0
 23 19  1  0
M  END
$$$$
