CLE.pdb
     RDKit          3D

 24 23  0  0  1  0  0  0  0  0999 V2000
   20.2884  -11.7332  -18.7663 N   0  0  0  0  0  0  0  0  0  0  0  0
   20.5891  -10.3300  -18.7875 C   0  0  1  0  0  0  0  0  0  0  0  0
   19.8876   -9.6347  -19.9277 C   0  0  0  0  0  0  0  0  0  0  0  0
   20.4625   -7.9133  -19.9756 S   0  0  0  0  0  0  0  0  0  0  0  0
   20.2190   -9.7139  -17.4915 C   0  0  0  0  0  0  0  0  0  0  0  0
   19.0398   -9.8583  -17.0667 O   0  0  0  0  0  0  0  0  0  0  0  0
   20.9881   -9.9936  -12.9408 C   0  0  0  0  0  0  0  0  0  0  0  0
   22.1981   -9.7677  -13.8611 C   0  0  2  0  0  0  0  0  0  0  0  0
   23.4121   -9.8667  -12.9978 C   0  0  0  0  0  0  0  0  0  0  0  0
   21.9753   -8.4423  -14.5086 C   0  0  0  0  0  0  0  0  0  0  0  0
   20.8408   -8.3681  -15.4698 C   0  0  2  0  0  0  0  0  0  0  0  0
   21.1531   -8.9815  -16.7418 N   0  0  0  0  0  0  0  0  0  0  0  0
   20.5803   -6.9078  -15.7465 C   0  0  0  0  0  0  0  0  0  0  0  0
   21.3339   -6.3291  -16.5927 O   0  0  0  0  0  0  0  0  0  0  0  0
   19.5522   -6.1972  -15.1062 N   0  0  0  0  0  0  0  0  0  0  0  0
   19.1664   -4.8393  -15.6028 C   0  0  1  0  0  0  0  0  0  0  0  0
   19.0593   -4.9323  -17.0679 C   0  0  0  0  0  0  0  0  0  0  0  0
   18.6174   -3.7001  -17.7713 C   0  0  0  0  0  0  0  0  0  0  0  0
   18.4984   -3.7642  -19.2308 C   0  0  0  0  0  0  0  0  0  0  0  0
   17.4973   -4.2901  -19.7634 O   0  0  0  0  0  0  0  0  0  0  0  0
   18.0348   -4.3420  -14.8516 C   0  0  0  0  0  0  0  0  0  0  0  0
   17.1800   -5.0395  -14.2760 O   0  0  0  0  0  0  0  0  0  0  0  0
   19.4886   -3.2398  -20.0318 O   0  0  0  0  0  0  0  0  0  0  0  0
   17.8606   -2.9395  -14.7461 O   0  0  0  0  0  0  0  0  0  0  0  0
  2  3  1  0
  2  1  1  1
  4  3  1  0
  5  2  1  0
  5  6  2  0
  8  7  1  1
  8 10  1  0
  8  9  1  0
 11 10  1  1
 11 13  1  0
 12 11  1  0
 12  5  1  0
 13 14  2  0
 13 15  1  0
 15 16  1  0
 16 21  1  0
 16 17  1  6
 18 17  1  0
 19 18  1  0
 20 19  2  0
 21 22  2  0
 21 24  1  0
 23 19  1  0
M  END
$$$$
