CLE.pdb
     RDKit          3D

 24 23  0  0  1  0  0  0  0  0999 V2000
   16.4842  -13.0401  -17.0535 N   0  0  0  0  0  0  0  0  0  0  0  0
   17.4291  -12.1544  -17.6721 C   0  0  1  0  0  0  0  0  0  0  0  0
   16.7542  -11.2300  -18.6549 C   0  0  0  0  0  0  0  0  0  0  0  0
   16.3373  -12.1923  -20.1368 S   0  0  0  0  0  0  0  0  0  0  0  0
   18.1501  -11.3795  -16.6348 C   0  0  0  0  0  0  0  0  0  0  0  0
   17.4988  -10.9304  -15.6520 O   0  0  0  0  0  0  0  0  0  0  0  0
   23.9052  -10.6132  -14.7235 C   0  0  0  0  0  0  0  0  0  0  0  0
   22.5167   -9.9544  -14.7108 C   0  0  2  0  0  0  0  0  0  0  0  0
   22.1054   -9.8592  -13.2787 C   0  0  0  0  0  0  0  0  0  0  0  0
   21.6516  -10.8109  -15.5731 C   0  0  0  0  0  0  0  0  0  0  0  0
   20.2617  -10.3240  -15.7912 C   0  0  2  0  0  0  0  0  0  0  0  0
   19.5305  -11.1431  -16.7326 N   0  0  0  0  0  0  0  0  0  0  0  0
   20.3579   -8.9468  -16.4003 C   0  0  0  0  0  0  0  0  0  0  0  0
   20.8819   -8.8533  -17.5560 O   0  0  0  0  0  0  0  0  0  0  0  0
   19.8937   -7.8007  -15.7347 N   0  0  0  0  0  0  0  0  0  0  0  0
   19.9500   -6.4705  -16.4179 C   0  0  1  0  0  0  0  0  0  0  0  0
   18.5593   -6.0438  -16.6421 C   0  0  0  0  0  0  0  0  0  0  0  0
   17.7385   -5.8215  -15.4233 C   0  0  0  0  0  0  0  0  0  0  0  0
   16.3564   -5.3727  -15.6153 C   0  0  0  0  0  0  0  0  0  0  0  0
   15.5742   -5.2934  -14.6435 O   0  0  0  0  0  0  0  0  0  0  0  0
   20.8438   -5.5859  -15.7031 C   0  0  0  0  0  0  0  0  0  0  0  0
   21.1543   -4.4312  -16.0474 O   0  0  0  0  0  0  0  0  0  0  0  0
   15.9063   -5.0282  -16.8707 O   0  0  0  0  0  0  0  0  0  0  0  0
   21.4319   -6.0511  -14.5005 O   0  0  0  0  0  0  0  0  0  0  0  0
  2  3  1  0
  2  1  1  1
  4  3  1  0
  5  2  1  0
  5  6  2  0
  8  7  1  1
  8 10  1  0
  8  9  1  0
 11 10  1  6
 11 13  1  0
 12 11  1  0
 12  5  1  0
 13 14  2  0
 13 15  1  0
 15 16  1  0
 16 21  1  0
 16 17  1  1
 18 17  1  0
 19 18  1  0
 20 19  2  0
 21 22  2  0
 21 24  1  0
 23 19  1  0
M  END
$$$$
