CLE.pdb
     RDKit          3D

 24 23  0  0  1  0  0  0  0  0999 V2000
   24.3884  -25.9574  -17.1320 N   0  0  0  0  0  0  0  0  0  0  0  0
   23.6284  -24.9500  -17.8158 C   0  0  1  0  0  0  0  0  0  0  0  0
   22.3401  -25.5111  -18.3643 C   0  0  0  0  0  0  0  0  0  0  0  0
   22.7577  -26.7646  -19.6094 S   0  0  0  0  0  0  0  0  0  0  0  0
   23.3582  -23.8140  -16.9034 C   0  0  0  0  0  0  0  0  0  0  0  0
   23.2706  -24.0390  -15.6650 O   0  0  0  0  0  0  0  0  0  0  0  0
   21.7312  -18.6662  -16.3033 C   0  0  0  0  0  0  0  0  0  0  0  0
   23.2541  -18.8733  -16.2922 C   0  0  2  0  0  0  0  0  0  0  0  0
   23.8568  -17.6193  -16.8336 C   0  0  0  0  0  0  0  0  0  0  0  0
   23.5032  -20.1058  -17.0951 C   0  0  0  0  0  0  0  0  0  0  0  0
   22.9390  -21.3685  -16.5442 C   0  0  2  0  0  0  0  0  0  0  0  0
   23.2009  -22.5084  -17.3950 N   0  0  0  0  0  0  0  0  0  0  0  0
   21.4398  -21.2053  -16.4897 C   0  0  0  0  0  0  0  0  0  0  0  0
   20.8174  -21.1424  -17.5977 O   0  0  0  0  0  0  0  0  0  0  0  0
   20.7402  -21.1237  -15.2749 N   0  0  0  0  0  0  0  0  0  0  0  0
   19.2490  -20.9987  -15.2830 C   0  0  1  0  0  0  0  0  0  0  0  0
   18.7216  -22.0965  -14.4566 C   0  0  0  0  0  0  0  0  0  0  0  0
   17.2418  -22.1812  -14.3479 C   0  0  0  0  0  0  0  0  0  0  0  0
   16.6878  -23.2683  -13.5357 C   0  0  0  0  0  0  0  0  0  0  0  0
   17.4448  -24.0513  -12.9222 O   0  0  0  0  0  0  0  0  0  0  0  0
   18.8657  -19.6408  -14.9648 C   0  0  0  0  0  0  0  0  0  0  0  0
   19.4895  -18.8640  -14.2192 O   0  0  0  0  0  0  0  0  0  0  0  0
   15.3242  -23.4352  -13.4362 O   0  0  0  0  0  0  0  0  0  0  0  0
   17.6780  -19.1240  -15.5403 O   0  0  0  0  0  0  0  0  0  0  0  0
  2  3  1  0
  2  1  1  1
  4  3  1  0
  5  2  1  0
  5  6  2  0
  8  7  1  6
  8 10  1  0
  8  9  1  0
 11 10  1  6
 11 13  1  0
 12 11  1  0
 12  5  1  0
 13 14  2  0
 13 15  1  0
 15 16  1  0
 16 21  1  0
 16 17  1  1
 18 17  1  0
 19 18  1  0
 20 19  2  0
 21 22  2  0
 21 24  1  0
 23 19  1  0
M  END
$$$$
