CLE.pdb
     RDKit          3D

 24 23  0  0  1  0  0  0  0  0999 V2000
   18.4324  -12.2282  -18.7773 N   0  0  0  0  0  0  0  0  0  0  0  0
   19.1878  -11.0199  -18.9492 C   0  0  1  0  0  0  0  0  0  0  0  0
   18.3093   -9.8833  -19.4098 C   0  0  0  0  0  0  0  0  0  0  0  0
   17.8378  -10.2001  -21.1341 S   0  0  0  0  0  0  0  0  0  0  0  0
   19.8766  -10.6700  -17.6847 C   0  0  0  0  0  0  0  0  0  0  0  0
   19.2260  -10.7244  -16.6051 O   0  0  0  0  0  0  0  0  0  0  0  0
   25.5728  -10.6369  -15.5628 C   0  0  0  0  0  0  0  0  0  0  0  0
   24.1872  -10.0208  -15.3124 C   0  0  2  0  0  0  0  0  0  0  0  0
   23.7409  -10.5100  -13.9744 C   0  0  0  0  0  0  0  0  0  0  0  0
   23.3403  -10.4407  -16.4665 C   0  0  0  0  0  0  0  0  0  0  0  0
   21.9407   -9.9332  -16.4674 C   0  0  2  0  0  0  0  0  0  0  0  0
   21.2264  -10.2839  -17.6752 N   0  0  0  0  0  0  0  0  0  0  0  0
   22.0085   -8.4262  -16.4276 C   0  0  0  0  0  0  0  0  0  0  0  0
   22.4915   -7.8351  -17.4456 O   0  0  0  0  0  0  0  0  0  0  0  0
   21.5619   -7.6866  -15.3206 N   0  0  0  0  0  0  0  0  0  0  0  0
   21.6920   -6.1958  -15.3214 C   0  0  1  0  0  0  0  0  0  0  0  0
   20.3776   -5.6503  -15.6971 C   0  0  0  0  0  0  0  0  0  0  0  0
   20.2565   -4.1692  -15.6867 C   0  0  0  0  0  0  0  0  0  0  0  0
   18.9626   -3.5970  -16.0697 C   0  0  0  0  0  0  0  0  0  0  0  0
   18.0081   -4.3404  -16.3842 O   0  0  0  0  0  0  0  0  0  0  0  0
   22.3036   -5.7530  -14.0877 C   0  0  0  0  0  0  0  0  0  0  0  0
   22.9144   -4.6817  -13.9215 O   0  0  0  0  0  0  0  0  0  0  0  0
   18.7836   -2.2313  -16.0820 O   0  0  0  0  0  0  0  0  0  0  0  0
   22.2137   -6.5954  -12.9515 O   0  0  0  0  0  0  0  0  0  0  0  0
  2  3  1  0
  2  1  1  1
  4  3  1  0
  5  2  1  0
  5  6  2  0
  8  7  1  6
  8 10  1  0
  8  9  1  0
 11 10  1  6
 11 13  1  0
 12 11  1  0
 12  5  1  0
 13 14  2  0
 13 15  1  0
 15 16  1  0
 16 21  1  0
 16 17  1  1
 18 17  1  0
 19 18  1  0
 20 19  2  0
 21 22  2  0
 21 24  1  0
 23 19  1  0
M  END
$$$$
