CLE.pdb
     RDKit          3D

 24 23  0  0  1  0  0  0  0  0999 V2000
   27.6479  -22.1550  -16.2751 N   0  0  0  0  0  0  0  0  0  0  0  0
   27.2614  -20.9776  -15.5509 C   0  0  1  0  0  0  0  0  0  0  0  0
   26.9671  -19.8299  -16.4846 C   0  0  0  0  0  0  0  0  0  0  0  0
   28.4491  -19.5276  -17.4887 S   0  0  0  0  0  0  0  0  0  0  0  0
   26.0867  -21.2721  -14.6968 C   0  0  0  0  0  0  0  0  0  0  0  0
   25.3009  -22.1959  -15.0447 O   0  0  0  0  0  0  0  0  0  0  0  0
   25.9157  -22.1790  -10.2757 C   0  0  0  0  0  0  0  0  0  0  0  0
   26.1253  -20.6825  -10.5565 C   0  0  2  0  0  0  0  0  0  0  0  0
   26.3591  -20.0313   -9.2336 C   0  0  0  0  0  0  0  0  0  0  0  0
   24.9068  -20.2312  -11.2895 C   0  0  0  0  0  0  0  0  0  0  0  0
   24.7158  -20.8018  -12.6512 C   0  0  2  0  0  0  0  0  0  0  0  0
   25.8422  -20.5446  -13.5212 N   0  0  0  0  0  0  0  0  0  0  0  0
   23.5264  -20.1070  -13.2674 C   0  0  0  0  0  0  0  0  0  0  0  0
   23.7547  -19.0804  -13.9836 O   0  0  0  0  0  0  0  0  0  0  0  0
   22.2116  -20.5591  -13.0705 N   0  0  0  0  0  0  0  0  0  0  0  0
   21.2235  -20.4823  -14.1917 C   0  0  1  0  0  0  0  0  0  0  0  0
   21.8430  -21.1365  -15.3555 C   0  0  0  0  0  0  0  0  0  0  0  0
   21.0166  -21.1967  -16.5892 C   0  0  0  0  0  0  0  0  0  0  0  0
   20.6329  -22.5241  -17.0782 C   0  0  0  0  0  0  0  0  0  0  0  0
   19.4707  -22.9516  -16.9077 O   0  0  0  0  0  0  0  0  0  0  0  0
   19.9285  -20.9427  -13.7409 C   0  0  0  0  0  0  0  0  0  0  0  0
   18.8354  -20.4065  -13.9977 O   0  0  0  0  0  0  0  0  0  0  0  0
   21.5499  -23.3134  -17.7365 O   0  0  0  0  0  0  0  0  0  0  0  0
   19.8713  -22.1059  -12.9332 O   0  0  0  0  0  0  0  0  0  0  0  0
  2  3  1  0
  2  1  1  6
  4  3  1  0
  5  2  1  0
  5  6  2  0
  8  7  1  1
  8 10  1  0
  8  9  1  0
 11 10  1  1
 11 13  1  0
 12 11  1  0
 12  5  1  0
 13 14  2  0
 13 15  1  0
 15 16  1  0
 16 21  1  0
 16 17  1  6
 18 17  1  0
 19 18  1  0
 20 19  2  0
 21 22  2  0
 21 24  1  0
 23 19  1  0
M  END
$$$$
