CLE.pdb
     RDKit          3D

 24 23  0  0  1  0  0  0  0  0999 V2000
   28.1427  -20.6788  -15.6834 N   0  0  0  0  0  0  0  0  0  0  0  0
   27.5158  -19.7977  -14.7397 C   0  0  1  0  0  0  0  0  0  0  0  0
   26.9900  -18.5547  -15.4137 C   0  0  0  0  0  0  0  0  0  0  0  0
   28.4120  -17.5650  -15.9563 S   0  0  0  0  0  0  0  0  0  0  0  0
   26.4265  -20.5089  -14.0300 C   0  0  0  0  0  0  0  0  0  0  0  0
   25.8830  -21.4994  -14.5916 O   0  0  0  0  0  0  0  0  0  0  0  0
   26.5193  -22.1775   -9.8711 C   0  0  0  0  0  0  0  0  0  0  0  0
   26.2878  -20.6582   -9.8662 C   0  0  2  0  0  0  0  0  0  0  0  0
   26.3318  -20.2269   -8.4376 C   0  0  0  0  0  0  0  0  0  0  0  0
   24.9870  -20.4422  -10.5638 C   0  0  0  0  0  0  0  0  0  0  0  0
   24.9607  -20.7777  -12.0140 C   0  0  2  0  0  0  0  0  0  0  0  0
   25.9989  -20.0984  -12.7574 N   0  0  0  0  0  0  0  0  0  0  0  0
   23.6439  -20.2886  -12.5652 C   0  0  0  0  0  0  0  0  0  0  0  0
   23.5893  -19.0823  -12.9663 O   0  0  0  0  0  0  0  0  0  0  0  0
   22.5116  -21.1156  -12.6411 N   0  0  0  0  0  0  0  0  0  0  0  0
   21.5240  -20.9238  -13.7490 C   0  0  1  0  0  0  0  0  0  0  0  0
   22.2747  -21.0064  -15.0123 C   0  0  0  0  0  0  0  0  0  0  0  0
   21.4727  -20.8955  -16.2586 C   0  0  0  0  0  0  0  0  0  0  0  0
   21.7600  -19.7645  -17.1454 C   0  0  0  0  0  0  0  0  0  0  0  0
   20.8384  -19.0186  -17.5415 O   0  0  0  0  0  0  0  0  0  0  0  0
   20.3882  -21.7981  -13.5547 C   0  0  0  0  0  0  0  0  0  0  0  0
   19.2085  -21.4349  -13.3973 O   0  0  0  0  0  0  0  0  0  0  0  0
   23.0521  -19.5086  -17.5480 O   0  0  0  0  0  0  0  0  0  0  0  0
   20.6111  -23.1976  -13.5380 O   0  0  0  0  0  0  0  0  0  0  0  0
  2  3  1  0
  2  1  1  6
  4  3  1  0
  5  2  1  0
  5  6  2  0
  8  7  1  1
  8 10  1  0
  8  9  1  0
 11 10  1  1
 11 13  1  0
 12 11  1  0
 12  5  1  0
 13 14  2  0
 13 15  1  0
 15 16  1  0
 16 21  1  0
 16 17  1  6
 18 17  1  0
 19 18  1  0
 20 19  2  0
 21 22  2  0
 21 24  1  0
 23 19  1  0
M  END
$$$$
