CLE.pdb
     RDKit          3D

 24 23  0  0  1  0  0  0  0  0999 V2000
   28.8763  -34.4541   -5.8034 N   0  0  0  0  0  0  0  0  0  0  0  0
   28.9403  -34.0717   -4.4214 C   0  0  1  0  0  0  0  0  0  0  0  0
   27.6480  -34.3778   -3.7060 C   0  0  0  0  0  0  0  0  0  0  0  0
   27.7202  -33.6116   -2.0618 S   0  0  0  0  0  0  0  0  0  0  0  0
   30.0786  -34.7525   -3.7605 C   0  0  0  0  0  0  0  0  0  0  0  0
   30.3309  -35.9495   -4.0694 O   0  0  0  0  0  0  0  0  0  0  0  0
   34.4752  -33.8761   -3.6466 C   0  0  0  0  0  0  0  0  0  0  0  0
   33.6711  -32.8733   -2.8040 C   0  0  2  0  0  0  0  0  0  0  0  0
   34.6406  -31.8390   -2.3359 C   0  0  0  0  0  0  0  0  0  0  0  0
   33.0177  -33.6759   -1.7295 C   0  0  0  0  0  0  0  0  0  0  0  0
   32.0266  -34.6897   -2.1837 C   0  0  2  0  0  0  0  0  0  0  0  0
   30.8682  -34.0893   -2.8077 N   0  0  0  0  0  0  0  0  0  0  0  0
   31.5297  -35.4142   -0.9567 C   0  0  0  0  0  0  0  0  0  0  0  0
   30.3432  -35.1654   -0.5706 O   0  0  0  0  0  0  0  0  0  0  0  0
   32.3292  -36.3304   -0.2544 N   0  0  0  0  0  0  0  0  0  0  0  0
   31.7416  -37.1157    0.8759 C   0  0  1  0  0  0  0  0  0  0  0  0
   30.4440  -37.6320    0.4111 C   0  0  0  0  0  0  0  0  0  0  0  0
   29.2399  -37.0718    1.0782 C   0  0  0  0  0  0  0  0  0  0  0  0
   28.3799  -38.0063    1.8098 C   0  0  0  0  0  0  0  0  0  0  0  0
   28.6464  -39.2274    1.8348 O   0  0  0  0  0  0  0  0  0  0  0  0
   32.7197  -38.0496    1.3891 C   0  0  0  0  0  0  0  0  0  0  0  0
   33.8400  -38.2745    0.8964 O   0  0  0  0  0  0  0  0  0  0  0  0
   27.2696  -37.5466    2.4830 O   0  0  0  0  0  0  0  0  0  0  0  0
   32.3988  -38.7871    2.5560 O   0  0  0  0  0  0  0  0  0  0  0  0
  2  3  1  0
  2  1  1  6
  4  3  1  0
  5  2  1  0
  5  6  2  0
  8  7  1  6
  8 10  1  0
  8  9  1  0
 11 10  1  1
 11 13  1  0
 12 11  1  0
 12  5  1  0
 13 14  2  0
 13 15  1  0
 15 16  1  0
 16 21  1  0
 16 17  1  6
 18 17  1  0
 19 18  1  0
 20 19  2  0
 21 22  2  0
 21 24  1  0
 23 19  1  0
M  END
$$$$
