CLE.pdb
     RDKit          3D

 24 23  0  0  1  0  0  0  0  0999 V2000
   28.4930  -20.6338  -15.6317 N   0  0  0  0  0  0  0  0  0  0  0  0
   27.6613  -19.7488  -14.8668 C   0  0  1  0  0  0  0  0  0  0  0  0
   27.0611  -18.6710  -15.7350 C   0  0  0  0  0  0  0  0  0  0  0  0
   28.3599  -18.0532  -16.8430 S   0  0  0  0  0  0  0  0  0  0  0  0
   26.5985  -20.5205  -14.1805 C   0  0  0  0  0  0  0  0  0  0  0  0
   26.1894  -21.5907  -14.7090 O   0  0  0  0  0  0  0  0  0  0  0  0
   26.3819  -21.9890   -9.8647 C   0  0  0  0  0  0  0  0  0  0  0  0
   26.1083  -20.4813   -9.9839 C   0  0  2  0  0  0  0  0  0  0  0  0
   25.9757  -19.9627   -8.5903 C   0  0  0  0  0  0  0  0  0  0  0  0
   24.8905  -20.3547  -10.8363 C   0  0  0  0  0  0  0  0  0  0  0  0
   25.0305  -20.8116  -12.2462 C   0  0  2  0  0  0  0  0  0  0  0  0
   26.0497  -20.0799  -12.9657 N   0  0  0  0  0  0  0  0  0  0  0  0
   23.7222  -20.5285  -12.9429 C   0  0  0  0  0  0  0  0  0  0  0  0
   23.5033  -19.3310  -13.3128 O   0  0  0  0  0  0  0  0  0  0  0  0
   22.7703  -21.5327  -13.1830 N   0  0  0  0  0  0  0  0  0  0  0  0
   21.5448  -21.2191  -13.9826 C   0  0  1  0  0  0  0  0  0  0  0  0
   21.5145  -22.1643  -15.1104 C   0  0  0  0  0  0  0  0  0  0  0  0
   20.3610  -22.0384  -16.0390 C   0  0  0  0  0  0  0  0  0  0  0  0
   20.3111  -22.9585  -17.1789 C   0  0  0  0  0  0  0  0  0  0  0  0
   21.2192  -23.7991  -17.3561 O   0  0  0  0  0  0  0  0  0  0  0  0
   20.3938  -21.1378  -13.1104 C   0  0  0  0  0  0  0  0  0  0  0  0
   20.2861  -21.6786  -11.9949 O   0  0  0  0  0  0  0  0  0  0  0  0
   19.2580  -22.9093  -18.0653 O   0  0  0  0  0  0  0  0  0  0  0  0
   19.2753  -20.3811  -13.5406 O   0  0  0  0  0  0  0  0  0  0  0  0
  2  3  1  0
  2  1  1  6
  4  3  1  0
  5  2  1  0
  5  6  2  0
  8  7  1  1
  8 10  1  0
  8  9  1  0
 11 10  1  1
 11 13  1  0
 12 11  1  0
 12  5  1  0
 13 14  2  0
 13 15  1  0
 15 16  1  0
 16 21  1  0
 16 17  1  6
 18 17  1  0
 19 18  1  0
 20 19  2  0
 21 22  2  0
 21 24  1  0
 23 19  1  0
M  END
$$$$
