CLE.pdb
     RDKit          3D

 24 23  0  0  1  0  0  0  0  0999 V2000
   15.4745   -9.9040  -15.5683 N   0  0  0  0  0  0  0  0  0  0  0  0
   16.6357   -9.6182  -16.3620 C   0  0  1  0  0  0  0  0  0  0  0  0
   16.3712   -8.5010  -17.3406 C   0  0  0  0  0  0  0  0  0  0  0  0
   15.1638   -9.0951  -18.5593 S   0  0  0  0  0  0  0  0  0  0  0  0
   17.7800   -9.2833  -15.4819 C   0  0  0  0  0  0  0  0  0  0  0  0
   17.5531   -8.6863  -14.3938 O   0  0  0  0  0  0  0  0  0  0  0  0
   23.5402  -11.1830  -14.7366 C   0  0  0  0  0  0  0  0  0  0  0  0
   22.5819  -10.0306  -14.3965 C   0  0  2  0  0  0  0  0  0  0  0  0
   22.5035   -9.9696  -12.9069 C   0  0  0  0  0  0  0  0  0  0  0  0
   21.3022  -10.3452  -15.0959 C   0  0  0  0  0  0  0  0  0  0  0  0
   20.2443   -9.3004  -15.0221 C   0  0  2  0  0  0  0  0  0  0  0  0
   19.0952   -9.6185  -15.8407 N   0  0  0  0  0  0  0  0  0  0  0  0
   20.8312   -8.0259  -15.5775 C   0  0  0  0  0  0  0  0  0  0  0  0
   20.9384   -7.9335  -16.8419 O   0  0  0  0  0  0  0  0  0  0  0  0
   21.2487   -6.9718  -14.7490 N   0  0  0  0  0  0  0  0  0  0  0  0
   21.7731   -5.7099  -15.3592 C   0  0  1  0  0  0  0  0  0  0  0  0
   20.6757   -5.1258  -16.1472 C   0  0  0  0  0  0  0  0  0  0  0  0
   19.5519   -4.5406  -15.3706 C   0  0  0  0  0  0  0  0  0  0  0  0
   18.5215   -3.8159  -16.1199 C   0  0  0  0  0  0  0  0  0  0  0  0
   18.6816   -3.5588  -17.3327 O   0  0  0  0  0  0  0  0  0  0  0  0
   22.4112   -4.8994  -14.3453 C   0  0  0  0  0  0  0  0  0  0  0  0
   23.0635   -3.8594  -14.5487 O   0  0  0  0  0  0  0  0  0  0  0  0
   17.3615   -3.4146  -15.4949 O   0  0  0  0  0  0  0  0  0  0  0  0
   22.2991   -5.3033  -12.9914 O   0  0  0  0  0  0  0  0  0  0  0  0
  2  3  1  0
  2  1  1  1
  4  3  1  0
  5  2  1  0
  5  6  2  0
  8  7  1  1
  8 10  1  0
  8  9  1  0
 11 10  1  6
 11 13  1  0
 12 11  1  0
 12  5  1  0
 13 14  2  0
 13 15  1  0
 15 16  1  0
 16 21  1  0
 16 17  1  1
 18 17  1  0
 19 18  1  0
 20 19  2  0
 21 22  2  0
 21 24  1  0
 23 19  1  0
M  END
$$$$
