CLE.pdb
     RDKit          3D

 24 23  0  0  1  0  0  0  0  0999 V2000
   19.9171  -12.7097  -17.7365 N   0  0  0  0  0  0  0  0  0  0  0  0
   20.5101  -11.4792  -18.1772 C   0  0  1  0  0  0  0  0  0  0  0  0
   19.5145  -10.6252  -18.9224 C   0  0  0  0  0  0  0  0  0  0  0  0
   19.0790  -11.4829  -20.4620 S   0  0  0  0  0  0  0  0  0  0  0  0
   21.0676  -10.7429  -17.0183 C   0  0  0  0  0  0  0  0  0  0  0  0
   20.4023  -10.7058  -15.9470 O   0  0  0  0  0  0  0  0  0  0  0  0
   24.6446  -11.2742  -14.4531 C   0  0  0  0  0  0  0  0  0  0  0  0
   25.0005  -10.7994  -15.8708 C   0  0  2  0  0  0  0  0  0  0  0  0
   26.4887  -10.8539  -15.9754 C   0  0  0  0  0  0  0  0  0  0  0  0
   24.3949   -9.4432  -16.0101 C   0  0  0  0  0  0  0  0  0  0  0  0
   22.9073   -9.3874  -15.9873 C   0  0  2  0  0  0  0  0  0  0  0  0
   22.3106  -10.0952  -17.0985 N   0  0  0  0  0  0  0  0  0  0  0  0
   22.5091   -7.9392  -16.1334 C   0  0  0  0  0  0  0  0  0  0  0  0
   22.6522   -7.4058  -17.2797 O   0  0  0  0  0  0  0  0  0  0  0  0
   21.9991   -7.1919  -15.0595 N   0  0  0  0  0  0  0  0  0  0  0  0
   21.6015   -5.7647  -15.2697 C   0  0  1  0  0  0  0  0  0  0  0  0
   20.1555   -5.7579  -15.5444 C   0  0  0  0  0  0  0  0  0  0  0  0
   19.5220   -4.4207  -15.6831 C   0  0  0  0  0  0  0  0  0  0  0  0
   18.2780   -4.3420  -16.4542 C   0  0  0  0  0  0  0  0  0  0  0  0
   18.1612   -4.9594  -17.5348 O   0  0  0  0  0  0  0  0  0  0  0  0
   22.1097   -4.9466  -14.1905 C   0  0  0  0  0  0  0  0  0  0  0  0
   22.4984   -5.3612  -13.0836 O   0  0  0  0  0  0  0  0  0  0  0  0
   17.2211   -3.5893  -15.9922 O   0  0  0  0  0  0  0  0  0  0  0  0
   22.1817   -3.5446  -14.3850 O   0  0  0  0  0  0  0  0  0  0  0  0
  2  3  1  0
  2  1  1  1
  4  3  1  0
  5  2  1  0
  5  6  2  0
  8  7  1  1
  8 10  1  0
  8  9  1  0
 11 10  1  6
 11 13  1  0
 12 11  1  0
 12  5  1  0
 13 14  2  0
 13 15  1  0
 15 16  1  0
 16 21  1  0
 16 17  1  1
 18 17  1  0
 19 18  1  0
 20 19  2  0
 21 22  2  0
 21 24  1  0
 23 19  1  0
M  END
$$$$
