LSK.pdb
     RDKit          3D

 24 23  0  0  1  0  0  0  0  0999 V2000
   19.9784  -11.7491  -20.1221 C   0  0  0  0  0  0  0  0  0  0  0  0
   18.9674  -12.3716  -19.1865 C   0  0  2  0  0  0  0  0  0  0  0  0
   17.6864  -12.6203  -19.9134 C   0  0  0  0  0  0  0  0  0  0  0  0
   18.7848  -11.5367  -17.9454 C   0  0  0  0  0  0  0  0  0  0  0  0
   20.1370  -11.3028  -17.3116 C   0  0  2  0  0  0  0  0  0  0  0  0
   20.5472  -12.4858  -16.5769 N   0  0  0  0  0  0  0  0  0  0  0  0
   20.0857  -10.1511  -16.3538 C   0  0  0  0  0  0  0  0  0  0  0  0
   19.4402  -10.2128  -15.2732 O   0  0  0  0  0  0  0  0  0  0  0  0
   22.9236   -7.1407  -16.5239 O   0  0  0  0  0  0  0  0  0  0  0  0
   22.2299   -7.5177  -15.3744 C   0  0  0  0  0  0  0  0  0  0  0  0
   20.7652   -7.8105  -15.6950 C   0  0  2  0  0  0  0  0  0  0  0  0
   20.7639   -8.9296  -16.6175 N   0  0  0  0  0  0  0  0  0  0  0  0
   20.0615   -6.6386  -16.2111 C   0  0  0  0  0  0  0  0  0  0  0  0
   20.1152   -6.3775  -17.4357 O   0  0  0  0  0  0  0  0  0  0  0  0
   19.3184   -5.7864  -15.3672 N   0  0  0  0  0  0  0  0  0  0  0  0
   18.5906   -4.6695  -15.9738 C   0  0  1  0  0  0  0  0  0  0  0  0
   17.1592   -4.8439  -15.5500 C   0  0  0  0  0  0  0  0  0  0  0  0
   16.3108   -3.7300  -16.0720 C   0  0  0  0  0  0  0  0  0  0  0  0
   14.8807   -3.8416  -15.5715 C   0  0  0  0  0  0  0  0  0  0  0  0
   14.0950   -2.7438  -16.2989 C   0  0  0  0  0  0  0  0  0  0  0  0
   12.6872   -2.9191  -15.9818 N   0  0  0  0  0  0  0  0  0  0  0  0
   19.2333   -3.4436  -15.4974 C   0  0  0  0  0  0  0  0  0  0  0  0
   19.1857   -2.2813  -16.2414 O   0  0  0  0  0  0  0  0  0  0  0  0
   19.8511   -3.3833  -14.4070 O   0  0  0  0  0  0  0  0  0  0  0  0
  2  1  1  6
  2  4  1  0
  3  2  1  0
  5  4  1  0
  5  6  1  1
  7  5  1  0
  7  8  2  0
 10  9  1  0
 11 10  1  6
 11 12  1  0
 12  7  1  0
 13 14  2  0
 13 11  1  0
 15 13  1  0
 16 15  1  0
 16 17  1  1
 17 18  1  0
 19 18  1  0
 20 21  1  0
 20 19  1  0
 22 16  1  0
 23 22  1  0
 24 22  2  0
M  END
$$$$
