LSK.pdb
     RDKit          3D

 24 23  0  0  1  0  0  0  0  0999 V2000
   16.2366  -12.4470  -14.5364 C   0  0  0  0  0  0  0  0  0  0  0  0
   17.6818  -12.4861  -14.0950 C   0  0  2  0  0  0  0  0  0  0  0  0
   18.0930  -13.8960  -13.8221 C   0  0  0  0  0  0  0  0  0  0  0  0
   17.9204  -11.5685  -12.9237 C   0  0  0  0  0  0  0  0  0  0  0  0
   17.4773  -10.1729  -13.2992 C   0  0  2  0  0  0  0  0  0  0  0  0
   18.3780   -9.6222  -14.2956 N   0  0  0  0  0  0  0  0  0  0  0  0
   17.4916   -9.2686  -12.1041 C   0  0  0  0  0  0  0  0  0  0  0  0
   16.8161   -9.5214  -11.0706 O   0  0  0  0  0  0  0  0  0  0  0  0
   19.1872   -5.4380  -12.3649 O   0  0  0  0  0  0  0  0  0  0  0  0
   19.4132   -6.1768  -11.2039 C   0  0  0  0  0  0  0  0  0  0  0  0
   18.2710   -7.1602  -10.9546 C   0  0  2  0  0  0  0  0  0  0  0  0
   18.2694   -8.0787  -12.0770 N   0  0  0  0  0  0  0  0  0  0  0  0
   16.9883   -6.4883  -10.7590 C   0  0  0  0  0  0  0  0  0  0  0  0
   16.1997   -6.3723  -11.7262 O   0  0  0  0  0  0  0  0  0  0  0  0
   16.6079   -5.9627   -9.5062 N   0  0  0  0  0  0  0  0  0  0  0  0
   15.3324   -5.2494   -9.4099 C   0  0  1  0  0  0  0  0  0  0  0  0
   14.7675   -5.6141   -8.0657 C   0  0  0  0  0  0  0  0  0  0  0  0
   13.5058   -4.8598   -7.7970 C   0  0  0  0  0  0  0  0  0  0  0  0
   12.8870   -5.2697   -6.4714 C   0  0  0  0  0  0  0  0  0  0  0  0
   11.6199   -4.4195   -6.3195 C   0  0  0  0  0  0  0  0  0  0  0  0
   10.9859   -4.7856   -5.0636 N   0  0  0  0  0  0  0  0  0  0  0  0
   15.6332   -3.8283   -9.5912 C   0  0  0  0  0  0  0  0  0  0  0  0
   14.6754   -2.9545  -10.0665 O   0  0  0  0  0  0  0  0  0  0  0  0
   16.7571   -3.3359   -9.3295 O   0  0  0  0  0  0  0  0  0  0  0  0
  2  1  1  1
  2  4  1  0
  3  2  1  0
  5  4  1  0
  5  6  1  6
  7  5  1  0
  7  8  2  0
 10  9  1  0
 11 10  1  6
 11 12  1  0
 12  7  1  0
 13 14  2  0
 13 11  1  0
 15 13  1  0
 16 15  1  0
 16 17  1  1
 17 18  1  0
 19 18  1  0
 20 21  1  0
 20 19  1  0
 22 16  1  0
 23 22  1  0
 24 22  2  0
M  END
$$$$
