LSK.pdb
     RDKit          3D

 24 23  0  0  1  0  0  0  0  0999 V2000
   28.9554  -18.2881  -15.7476 C   0  0  0  0  0  0  0  0  0  0  0  0
   27.8480  -18.8295  -16.6225 C   0  0  2  0  0  0  0  0  0  0  0  0
   27.3334  -17.7508  -17.5186 C   0  0  0  0  0  0  0  0  0  0  0  0
   26.7640  -19.4726  -15.7966 C   0  0  0  0  0  0  0  0  0  0  0  0
   27.3775  -20.5672  -14.9537 C   0  0  2  0  0  0  0  0  0  0  0  0
   27.8901  -21.6200  -15.8117 N   0  0  0  0  0  0  0  0  0  0  0  0
   26.3578  -21.1675  -14.0338 C   0  0  0  0  0  0  0  0  0  0  0  0
   25.5113  -22.0093  -14.4377 O   0  0  0  0  0  0  0  0  0  0  0  0
   24.4881  -20.8534   -9.5170 O   0  0  0  0  0  0  0  0  0  0  0  0
   25.5783  -20.7754  -10.3831 C   0  0  0  0  0  0  0  0  0  0  0  0
   25.1698  -21.1521  -11.8061 C   0  0  2  0  0  0  0  0  0  0  0  0
   26.2949  -20.8166  -12.6574 N   0  0  0  0  0  0  0  0  0  0  0  0
   23.9243  -20.5089  -12.2184 C   0  0  0  0  0  0  0  0  0  0  0  0
   23.9201  -19.2821  -12.4752 O   0  0  0  0  0  0  0  0  0  0  0  0
   22.7183  -21.2314  -12.3370 N   0  0  0  0  0  0  0  0  0  0  0  0
   21.5241  -20.5199  -12.7981 C   0  0  1  0  0  0  0  0  0  0  0  0
   21.1363  -21.1798  -14.0916 C   0  0  0  0  0  0  0  0  0  0  0  0
   19.8980  -20.5606  -14.6538 C   0  0  0  0  0  0  0  0  0  0  0  0
   19.4223  -21.3002  -15.8927 C   0  0  0  0  0  0  0  0  0  0  0  0
   18.2049  -20.5209  -16.4048 C   0  0  0  0  0  0  0  0  0  0  0  0
   17.6867  -21.2193  -17.5696 N   0  0  0  0  0  0  0  0  0  0  0  0
   20.5333  -20.6271  -11.7259 C   0  0  0  0  0  0  0  0  0  0  0  0
   19.5066  -19.7106  -11.6132 O   0  0  0  0  0  0  0  0  0  0  0  0
   20.5625  -21.5407  -10.8665 O   0  0  0  0  0  0  0  0  0  0  0  0
  2  1  1  1
  2  4  1  0
  3  2  1  0
  5  4  1  0
  5  6  1  6
  7  5  1  0
  7  8  2  0
 10  9  1  0
 11 10  1  1
 11 12  1  0
 12  7  1  0
 13 14  2  0
 13 11  1  0
 15 13  1  0
 16 15  1  0
 16 17  1  6
 17 18  1  0
 19 18  1  0
 20 21  1  0
 20 19  1  0
 22 16  1  0
 23 22  1  0
 24 22  2  0
M  END
$$$$
