LSK.pdb
     RDKit          3D

 24 23  0  0  1  0  0  0  0  0999 V2000
   16.2752  -16.4921    2.9949 C   0  0  0  0  0  0  0  0  0  0  0  0
   17.1865  -15.5340    2.2625 C   0  0  2  0  0  0  0  0  0  0  0  0
   17.5904  -16.1191    0.9487 C   0  0  0  0  0  0  0  0  0  0  0  0
   18.3644  -15.1399    3.1158 C   0  0  0  0  0  0  0  0  0  0  0  0
   17.8558  -14.4468    4.3591 C   0  0  2  0  0  0  0  0  0  0  0  0
   17.1761  -13.2172    3.9937 N   0  0  0  0  0  0  0  0  0  0  0  0
   18.9878  -14.1008    5.2784 C   0  0  0  0  0  0  0  0  0  0  0  0
   19.7943  -14.9736    5.6982 O   0  0  0  0  0  0  0  0  0  0  0  0
   21.4427  -10.4237    7.3565 O   0  0  0  0  0  0  0  0  0  0  0  0
   20.3403  -10.8762    6.6321 C   0  0  0  0  0  0  0  0  0  0  0  0
   20.2860  -12.4029    6.6223 C   0  0  2  0  0  0  0  0  0  0  0  0
   19.2085  -12.7685    5.7232 N   0  0  0  0  0  0  0  0  0  0  0  0
   20.1329  -12.9649    7.9624 C   0  0  0  0  0  0  0  0  0  0  0  0
   19.0020  -12.9703    8.5027 O   0  0  0  0  0  0  0  0  0  0  0  0
   21.2266  -13.5051    8.6713 N   0  0  0  0  0  0  0  0  0  0  0  0
   20.9773  -14.0991    9.9866 C   0  0  1  0  0  0  0  0  0  0  0  0
   21.6407  -15.4473    9.9520 C   0  0  0  0  0  0  0  0  0  0  0  0
   20.6436  -16.5233    9.6674 C   0  0  0  0  0  0  0  0  0  0  0  0
   21.2867  -17.8992    9.7075 C   0  0  0  0  0  0  0  0  0  0  0  0
   20.2022  -18.8824    9.2508 C   0  0  0  0  0  0  0  0  0  0  0  0
   20.7731  -20.2190    9.2775 N   0  0  0  0  0  0  0  0  0  0  0  0
   21.5193  -13.1666   10.9762 C   0  0  0  0  0  0  0  0  0  0  0  0
   21.2007  -13.2866   12.3145 O   0  0  0  0  0  0  0  0  0  0  0  0
   22.2888  -12.2247   10.6681 O   0  0  0  0  0  0  0  0  0  0  0  0
  2  1  1  1
  2  4  1  0
  3  2  1  0
  5  4  1  0
  5  6  1  6
  7  5  1  0
  7  8  2  0
 10  9  1  0
 11 10  1  1
 11 12  1  0
 12  7  1  0
 13 14  2  0
 13 11  1  0
 15 13  1  0
 16 15  1  0
 16 17  1  6
 17 18  1  0
 19 18  1  0
 20 21  1  0
 20 19  1  0
 22 16  1  0
 23 22  1  0
 24 22  2  0
M  END
$$$$
