LSK.pdb
     RDKit          3D

 24 23  0  0  1  0  0  0  0  0999 V2000
   12.9430  -10.9464  -11.9519 C   0  0  0  0  0  0  0  0  0  0  0  0
   13.3957  -11.5651  -10.6491 C   0  0  2  0  0  0  0  0  0  0  0  0
   12.2085  -11.9686   -9.8372 C   0  0  0  0  0  0  0  0  0  0  0  0
   14.3310  -10.6478   -9.9044 C   0  0  0  0  0  0  0  0  0  0  0  0
   15.5194  -10.3417  -10.7870 C   0  0  2  0  0  0  0  0  0  0  0  0
   16.3513  -11.5240  -10.9194 N   0  0  0  0  0  0  0  0  0  0  0  0
   16.3541   -9.2454  -10.1972 C   0  0  0  0  0  0  0  0  0  0  0  0
   16.6486   -9.2193   -8.9721 O   0  0  0  0  0  0  0  0  0  0  0  0
   18.0804   -6.3542  -12.6705 O   0  0  0  0  0  0  0  0  0  0  0  0
   18.6012   -6.6058  -11.4016 C   0  0  0  0  0  0  0  0  0  0  0  0
   17.4930   -7.0040  -10.4285 C   0  0  2  0  0  0  0  0  0  0  0  0
   16.8559   -8.1787  -10.9921 N   0  0  0  0  0  0  0  0  0  0  0  0
   16.5584   -5.9113  -10.1689 C   0  0  0  0  0  0  0  0  0  0  0  0
   15.5308   -5.7979  -10.8776 O   0  0  0  0  0  0  0  0  0  0  0  0
   16.7788   -4.9736   -9.1380 N   0  0  0  0  0  0  0  0  0  0  0  0
   15.8877   -3.8146   -9.0503 C   0  0  1  0  0  0  0  0  0  0  0  0
   14.8211   -4.2004   -8.0642 C   0  0  0  0  0  0  0  0  0  0  0  0
   13.9707   -3.0229   -7.7132 C   0  0  0  0  0  0  0  0  0  0  0  0
   12.9632   -3.3703   -6.6304 C   0  0  0  0  0  0  0  0  0  0  0  0
   12.1166   -2.1083   -6.4249 C   0  0  0  0  0  0  0  0  0  0  0  0
   12.8639   -1.2059   -5.5644 N   0  0  0  0  0  0  0  0  0  0  0  0
   16.7187   -2.6774   -8.6515 C   0  0  0  0  0  0  0  0  0  0  0  0
   18.0148   -2.8638   -8.2130 O   0  0  0  0  0  0  0  0  0  0  0  0
   16.3061   -1.4930   -8.6857 O   0  0  0  0  0  0  0  0  0  0  0  0
  2  1  1  6
  2  4  1  0
  3  2  1  0
  5  4  1  0
  5  6  1  1
  7  5  1  0
  7  8  2  0
 10  9  1  0
 11 10  1  6
 11 12  1  0
 12  7  1  0
 13 14  2  0
 13 11  1  0
 15 13  1  0
 16 15  1  0
 16 17  1  1
 17 18  1  0
 19 18  1  0
 20 21  1  0
 20 19  1  0
 22 16  1  0
 23 22  1  0
 24 22  2  0
M  END
$$$$
