LSK.pdb
     RDKit          3D

 24 23  0  0  1  0  0  0  0  0999 V2000
   26.2423  -19.9531   -6.7928 C   0  0  0  0  0  0  0  0  0  0  0  0
   27.5497  -20.0061   -7.5496 C   0  0  2  0  0  0  0  0  0  0  0  0
   28.5741  -19.1692   -6.8557 C   0  0  0  0  0  0  0  0  0  0  0  0
   27.3606  -19.6230   -8.9947 C   0  0  0  0  0  0  0  0  0  0  0  0
   26.2854  -20.4997   -9.5950 C   0  0  2  0  0  0  0  0  0  0  0  0
   26.7498  -21.8736   -9.6591 N   0  0  0  0  0  0  0  0  0  0  0  0
   25.9479  -20.0540  -10.9856 C   0  0  0  0  0  0  0  0  0  0  0  0
   25.2650  -19.0178  -11.2047 O   0  0  0  0  0  0  0  0  0  0  0  0
   26.6471  -22.5777  -14.2245 O   0  0  0  0  0  0  0  0  0  0  0  0
   26.9697  -21.2318  -14.3955 C   0  0  0  0  0  0  0  0  0  0  0  0
   26.1156  -20.3487  -13.4875 C   0  0  2  0  0  0  0  0  0  0  0  0
   26.3824  -20.7795  -12.1287 N   0  0  0  0  0  0  0  0  0  0  0  0
   24.6977  -20.3941  -13.8376 C   0  0  0  0  0  0  0  0  0  0  0  0
   23.9336  -21.1674  -13.2140 O   0  0  0  0  0  0  0  0  0  0  0  0
   24.1590  -19.5886  -14.8630 N   0  0  0  0  0  0  0  0  0  0  0  0
   22.7220  -19.6749  -15.1323 C   0  0  1  0  0  0  0  0  0  0  0  0
   22.3804  -18.4284  -15.8996 C   0  0  0  0  0  0  0  0  0  0  0  0
   20.9377  -18.4221  -16.2884 C   0  0  0  0  0  0  0  0  0  0  0  0
   20.5849  -17.1795  -17.0883 C   0  0  0  0  0  0  0  0  0  0  0  0
   19.0796  -17.2727  -17.3656 C   0  0  0  0  0  0  0  0  0  0  0  0
   18.6915  -16.0914  -18.1186 N   0  0  0  0  0  0  0  0  0  0  0  0
   22.5069  -20.9279  -15.8578 C   0  0  0  0  0  0  0  0  0  0  0  0
   21.3264  -21.6320  -15.7251 O   0  0  0  0  0  0  0  0  0  0  0  0
   23.3677  -21.4216  -16.6256 O   0  0  0  0  0  0  0  0  0  0  0  0
  2  1  1  1
  2  4  1  0
  3  2  1  0
  5  4  1  0
  5  6  1  6
  7  5  1  0
  7  8  2  0
 10  9  1  0
 11 10  1  6
 11 12  1  0
 12  7  1  0
 13 14  2  0
 13 11  1  0
 15 13  1  0
 16 15  1  0
 16 17  1  6
 17 18  1  0
 19 18  1  0
 20 21  1  0
 20 19  1  0
 22 16  1  0
 23 22  1  0
 24 22  2  0
M  END
$$$$
