LSK.pdb
     RDKit          3D

 24 23  0  0  1  0  0  0  0  0999 V2000
   17.5708   -9.3967  -16.3920 C   0  0  0  0  0  0  0  0  0  0  0  0
   17.7344  -10.2441  -15.1511 C   0  0  2  0  0  0  0  0  0  0  0  0
   17.2587  -11.6348  -15.4176 C   0  0  0  0  0  0  0  0  0  0  0  0
   17.0573   -9.6103  -13.9634 C   0  0  0  0  0  0  0  0  0  0  0  0
   17.5874   -8.2051  -13.7921 C   0  0  2  0  0  0  0  0  0  0  0  0
   19.0020   -8.2489  -13.4693 N   0  0  0  0  0  0  0  0  0  0  0  0
   16.8747   -7.4976  -12.6795 C   0  0  0  0  0  0  0  0  0  0  0  0
   15.6173   -7.4266  -12.6340 O   0  0  0  0  0  0  0  0  0  0  0  0
   17.4051   -5.4407   -8.2859 O   0  0  0  0  0  0  0  0  0  0  0  0
   17.9498   -6.0843   -9.3967 C   0  0  0  0  0  0  0  0  0  0  0  0
   16.9240   -6.1832  -10.5245 C   0  0  2  0  0  0  0  0  0  0  0  0
   17.5833   -6.8703  -11.6183 N   0  0  0  0  0  0  0  0  0  0  0  0
   16.3853   -4.8794  -10.9053 C   0  0  0  0  0  0  0  0  0  0  0  0
   16.9856   -4.1917  -11.7641 O   0  0  0  0  0  0  0  0  0  0  0  0
   15.2022   -4.3677  -10.3318 N   0  0  0  0  0  0  0  0  0  0  0  0
   14.6786   -3.0963  -10.8363 C   0  0  1  0  0  0  0  0  0  0  0  0
   13.5627   -3.4639  -11.7737 C   0  0  0  0  0  0  0  0  0  0  0  0
   12.9357   -2.2404  -12.3592 C   0  0  0  0  0  0  0  0  0  0  0  0
   11.8403   -2.5990  -13.3491 C   0  0  0  0  0  0  0  0  0  0  0  0
   11.3576   -1.2689  -13.9403 C   0  0  0  0  0  0  0  0  0  0  0  0
   10.2800   -1.5604  -14.8715 N   0  0  0  0  0  0  0  0  0  0  0  0
   14.2734   -2.3168   -9.6655 C   0  0  0  0  0  0  0  0  0  0  0  0
   14.0034   -0.9666   -9.7698 O   0  0  0  0  0  0  0  0  0  0  0  0
   14.1516   -2.8236   -8.5242 O   0  0  0  0  0  0  0  0  0  0  0  0
  2  1  1  6
  2  4  1  0
  3  2  1  0
  5  4  1  0
  5  6  1  1
  7  5  1  0
  7  8  2  0
 10  9  1  0
 11 10  1  1
 11 12  1  0
 12  7  1  0
 13 14  2  0
 13 11  1  0
 15 13  1  0
 16 15  1  0
 16 17  1  6
 17 18  1  0
 19 18  1  0
 20 21  1  0
 20 19  1  0
 22 16  1  0
 23 22  1  0
 24 22  2  0
M  END
$$$$
