LSK.pdb
     RDKit          3D

 24 23  0  0  1  0  0  0  0  0999 V2000
   24.0515  -18.4166  -15.7363 C   0  0  0  0  0  0  0  0  0  0  0  0
   23.0839  -19.4399  -16.2854 C   0  0  2  0  0  0  0  0  0  0  0  0
   22.9568  -19.2782  -17.7650 C   0  0  0  0  0  0  0  0  0  0  0  0
   21.7578  -19.3758  -15.5725 C   0  0  0  0  0  0  0  0  0  0  0  0
   21.9577  -19.7889  -14.1323 C   0  0  2  0  0  0  0  0  0  0  0  0
   22.8647  -20.9205  -14.0665 N   0  0  0  0  0  0  0  0  0  0  0  0
   20.6570  -20.1943  -13.5077 C   0  0  0  0  0  0  0  0  0  0  0  0
   19.6030  -19.5229  -13.6707 O   0  0  0  0  0  0  0  0  0  0  0  0
   17.1746  -22.6575  -13.0401 O   0  0  0  0  0  0  0  0  0  0  0  0
   18.4125  -22.1396  -13.4199 C   0  0  0  0  0  0  0  0  0  0  0  0
   19.2815  -21.8561  -12.1959 C   0  0  2  0  0  0  0  0  0  0  0  0
   20.5475  -21.3587  -12.6990 N   0  0  0  0  0  0  0  0  0  0  0  0
   19.4254  -23.0245  -11.3304 C   0  0  0  0  0  0  0  0  0  0  0  0
   20.2681  -23.9059  -11.6202 O   0  0  0  0  0  0  0  0  0  0  0  0
   18.6395  -23.1919  -10.1707 N   0  0  0  0  0  0  0  0  0  0  0  0
   18.8332  -24.4018   -9.3684 C   0  0  1  0  0  0  0  0  0  0  0  0
   18.1451  -24.1316   -8.0597 C   0  0  0  0  0  0  0  0  0  0  0  0
   18.2700  -25.3040   -7.1416 C   0  0  0  0  0  0  0  0  0  0  0  0
   17.5244  -25.0692   -5.8389 C   0  0  0  0  0  0  0  0  0  0  0  0
   17.5484  -26.4097   -5.0946 C   0  0  0  0  0  0  0  0  0  0  0  0
   16.8944  -26.2179   -3.8105 N   0  0  0  0  0  0  0  0  0  0  0  0
   18.2767  -25.5115  -10.1440 C   0  0  0  0  0  0  0  0  0  0  0  0
   18.8561  -26.7645  -10.1077 O   0  0  0  0  0  0  0  0  0  0  0  0
   17.2616  -25.3870  -10.8708 O   0  0  0  0  0  0  0  0  0  0  0  0
  2  1  1  1
  2  4  1  0
  3  2  1  0
  5  4  1  0
  5  6  1  6
  7  5  1  0
  7  8  2  0
 10  9  1  0
 11 10  1  6
 11 12  1  0
 12  7  1  0
 13 14  2  0
 13 11  1  0
 15 13  1  0
 16 15  1  0
 16 17  1  1
 17 18  1  0
 19 18  1  0
 20 21  1  0
 20 19  1  0
 22 16  1  0
 23 22  1  0
 24 22  2  0
M  END
$$$$
