LSK.pdb
     RDKit          3D

 24 23  0  0  1  0  0  0  0  0999 V2000
   27.4625  -21.8439  -15.5819 C   0  0  0  0  0  0  0  0  0  0  0  0
   26.8270  -20.5133  -15.9142 C   0  0  2  0  0  0  0  0  0  0  0  0
   27.8865  -19.4831  -16.1320 C   0  0  0  0  0  0  0  0  0  0  0  0
   25.8235  -20.1097  -14.8649 C   0  0  0  0  0  0  0  0  0  0  0  0
   24.7985  -21.2113  -14.7210 C   0  0  2  0  0  0  0  0  0  0  0  0
   24.1050  -21.4058  -15.9814 N   0  0  0  0  0  0  0  0  0  0  0  0
   23.7822  -20.8617  -13.6764 C   0  0  0  0  0  0  0  0  0  0  0  0
   24.1165  -20.5372  -12.5053 O   0  0  0  0  0  0  0  0  0  0  0  0
   20.0381  -19.8757  -14.8186 O   0  0  0  0  0  0  0  0  0  0  0  0
   20.4743  -19.5164  -13.5437 C   0  0  0  0  0  0  0  0  0  0  0  0
   21.3775  -20.5980  -12.9536 C   0  0  2  0  0  0  0  0  0  0  0  0
   22.3881  -20.8788  -13.9552 N   0  0  0  0  0  0  0  0  0  0  0  0
   20.6315  -21.7844  -12.5404 C   0  0  0  0  0  0  0  0  0  0  0  0
   20.5536  -22.7647  -13.3175 O   0  0  0  0  0  0  0  0  0  0  0  0
   19.9919  -21.8606  -11.2852 N   0  0  0  0  0  0  0  0  0  0  0  0
   19.2228  -23.0663  -10.9689 C   0  0  1  0  0  0  0  0  0  0  0  0
   19.2788  -23.1988   -9.4728 C   0  0  0  0  0  0  0  0  0  0  0  0
   18.5258  -24.4065   -9.0176 C   0  0  0  0  0  0  0  0  0  0  0  0
   18.5072  -24.5090   -7.5019 C   0  0  0  0  0  0  0  0  0  0  0  0
   17.6691  -25.7511   -7.1759 C   0  0  0  0  0  0  0  0  0  0  0  0
   17.6894  -25.9362   -5.7342 N   0  0  0  0  0  0  0  0  0  0  0  0
   17.8833  -22.8654  -11.5239 C   0  0  0  0  0  0  0  0  0  0  0  0
   17.1377  -23.9327  -11.9842 O   0  0  0  0  0  0  0  0  0  0  0  0
   17.3493  -21.7333  -11.6100 O   0  0  0  0  0  0  0  0  0  0  0  0
  2  1  1  1
  2  4  1  0
  3  2  1  0
  5  4  1  0
  5  6  1  6
  7  5  1  0
  7  8  2  0
 10  9  1  0
 11 10  1  6
 11 12  1  0
 12  7  1  0
 13 14  2  0
 13 11  1  0
 15 13  1  0
 16 15  1  0
 16 17  1  1
 17 18  1  0
 19 18  1  0
 20 21  1  0
 20 19  1  0
 22 16  1  0
 23 22  1  0
 24 22  2  0
M  END
$$$$
