LSK.pdb
     RDKit          3D

 24 23  0  0  1  0  0  0  0  0999 V2000
   24.9760  -22.5459   -8.3530 C   0  0  0  0  0  0  0  0  0  0  0  0
   25.4922  -21.1253   -8.3324 C   0  0  2  0  0  0  0  0  0  0  0  0
   24.7901  -20.3436   -7.2707 C   0  0  0  0  0  0  0  0  0  0  0  0
   25.3910  -20.4874   -9.6939 C   0  0  0  0  0  0  0  0  0  0  0  0
   26.1851  -21.3134  -10.6798 C   0  0  2  0  0  0  0  0  0  0  0  0
   27.6033  -21.1886  -10.3963 N   0  0  0  0  0  0  0  0  0  0  0  0
   25.9451  -20.8457  -12.0834 C   0  0  0  0  0  0  0  0  0  0  0  0
   26.4659  -19.7889  -12.5307 O   0  0  0  0  0  0  0  0  0  0  0  0
   23.7667  -23.2032  -14.8650 O   0  0  0  0  0  0  0  0  0  0  0  0
   24.7664  -22.3003  -15.2256 C   0  0  0  0  0  0  0  0  0  0  0  0
   24.7604  -21.0849  -14.3001 C   0  0  2  0  0  0  0  0  0  0  0  0
   25.1164  -21.5726  -12.9816 N   0  0  0  0  0  0  0  0  0  0  0  0
   23.4860  -20.3705  -14.3247 C   0  0  0  0  0  0  0  0  0  0  0  0
   22.6101  -20.6435  -13.4709 O   0  0  0  0  0  0  0  0  0  0  0  0
   23.2097  -19.3761  -15.2867 N   0  0  0  0  0  0  0  0  0  0  0  0
   21.8968  -18.7277  -15.2587 C   0  0  1  0  0  0  0  0  0  0  0  0
   22.0754  -17.4249  -15.9867 C   0  0  0  0  0  0  0  0  0  0  0  0
   20.8184  -16.6179  -15.9483 C   0  0  0  0  0  0  0  0  0  0  0  0
   20.9588  -15.3355  -16.7510 C   0  0  0  0  0  0  0  0  0  0  0  0
   19.6447  -14.5706  -16.5523 C   0  0  0  0  0  0  0  0  0  0  0  0
   19.7891  -13.2669  -17.1791 N   0  0  0  0  0  0  0  0  0  0  0  0
   20.9559  -19.6612  -15.8801 C   0  0  0  0  0  0  0  0  0  0  0  0
   19.7168  -19.8994  -15.3192 O   0  0  0  0  0  0  0  0  0  0  0  0
   21.2193  -20.2843  -16.9367 O   0  0  0  0  0  0  0  0  0  0  0  0
  2  1  1  6
  2  4  1  0
  3  2  1  0
  5  4  1  0
  5  6  1  1
  7  5  1  0
  7  8  2  0
 10  9  1  0
 11 10  1  6
 11 12  1  0
 12  7  1  0
 13 14  2  0
 13 11  1  0
 15 13  1  0
 16 15  1  0
 16 17  1  6
 17 18  1  0
 19 18  1  0
 20 21  1  0
 20 19  1  0
 22 16  1  0
 23 22  1  0
 24 22  2  0
M  END
$$$$
