CCI.pdb
     RDKit          3D

 21 20  0  0  1  0  0  0  0  0999 V2000
   22.1067  -18.7707  -15.8634 N   0  0  0  0  0  0  0  0  0  0  0  0
   22.2821  -17.8786  -17.0015 C   0  0  1  0  0  0  0  0  0  0  0  0
   21.0595  -17.9805  -17.8867 C   0  0  0  0  0  0  0  0  0  0  0  0
   20.9134  -19.6610  -18.5421 S   0  0  0  0  0  0  0  0  0  0  0  0
   22.2934  -16.4839  -16.4467 C   0  0  0  0  0  0  0  0  0  0  0  0
   21.4349  -16.0715  -15.6309 O   0  0  0  0  0  0  0  0  0  0  0  0
   23.3022  -15.5732  -16.8418 N   0  0  0  0  0  0  0  0  0  0  0  0
   23.3629  -14.2387  -16.3376 C   0  0  1  0  0  0  0  0  0  0  0  0
   24.8043  -13.7257  -16.3115 C   0  0  0  0  0  0  0  0  0  0  0  0
   25.6820  -14.6453  -15.0403 S   0  0  0  0  0  0  0  0  0  0  0  0
   22.5795  -13.2644  -17.1284 C   0  0  0  0  0  0  0  0  0  0  0  0
   22.7232  -13.1634  -18.3741 O   0  0  0  0  0  0  0  0  0  0  0  0
   17.5202  -13.1825  -17.7165 C   0  0  0  0  0  0  0  0  0  0  0  0
   18.9954  -12.8972  -18.0491 C   0  0  0  0  0  0  0  0  0  0  0  0
   19.4090  -11.7047  -17.2362 C   0  0  2  0  0  0  0  0  0  0  0  0
   18.5279  -10.5456  -17.6113 C   0  0  0  0  0  0  0  0  0  0  0  0
   20.8952  -11.3984  -17.3609 C   0  0  2  0  0  0  0  0  0  0  0  0
   21.6107  -12.3754  -16.5462 N   0  0  0  0  0  0  0  0  0  0  0  0
   21.1167  -10.0205  -16.8800 C   0  0  0  0  0  0  0  0  0  0  0  0
   20.9051   -8.9774  -17.5107 O   0  0  0  0  0  0  0  0  0  0  0  0
   21.6194   -9.8678  -15.5714 O   0  0  0  0  0  0  0  0  0  0  0  0
  2  3  1  0
  2  1  1  1
  4  3  1  0
  5  2  1  0
  5  6  2  0
  7  5  1  0
  8  7  1  0
  8 11  1  0
  8  9  1  6
 10  9  1  0
 11 12  2  0
 13 14  1  0
 14 15  1  0
 15 16  1  6
 17 15  1  0
 18 11  1  0
 17 18  1  1
 19 17  1  0
 20 19  2  0
 21 19  1  0
M  END
$$$$
