CCI.pdb
     RDKit          3D

 21 20  0  0  1  0  0  0  0  0999 V2000
   16.6891  -13.5775  -19.0784 N   0  0  0  0  0  0  0  0  0  0  0  0
   16.3537  -12.8022  -17.8916 C   0  0  1  0  0  0  0  0  0  0  0  0
   16.7067  -13.6180  -16.6674 C   0  0  0  0  0  0  0  0  0  0  0  0
   15.5219  -14.9714  -16.4679 S   0  0  0  0  0  0  0  0  0  0  0  0
   17.2696  -11.6130  -17.8918 C   0  0  0  0  0  0  0  0  0  0  0  0
   18.4475  -11.6640  -18.3191 O   0  0  0  0  0  0  0  0  0  0  0  0
   16.8135  -10.3685  -17.3954 N   0  0  0  0  0  0  0  0  0  0  0  0
   17.6319   -9.1984  -17.4064 C   0  0  1  0  0  0  0  0  0  0  0  0
   16.7786   -7.9313  -17.4936 C   0  0  0  0  0  0  0  0  0  0  0  0
   16.1808   -7.7979  -19.1838 S   0  0  0  0  0  0  0  0  0  0  0  0
   18.4853   -9.0542  -16.2067 C   0  0  0  0  0  0  0  0  0  0  0  0
   18.0180   -9.1987  -15.0476 O   0  0  0  0  0  0  0  0  0  0  0  0
   23.6071  -10.8587  -14.0028 C   0  0  0  0  0  0  0  0  0  0  0  0
   22.6461   -9.6626  -13.8836 C   0  0  0  0  0  0  0  0  0  0  0  0
   21.7703   -9.6762  -15.1029 C   0  0  2  0  0  0  0  0  0  0  0  0
   22.6488   -9.5854  -16.3197 C   0  0  0  0  0  0  0  0  0  0  0  0
   20.6883   -8.6061  -15.0582 C   0  0  2  0  0  0  0  0  0  0  0  0
   19.8882   -8.7452  -16.2710 N   0  0  0  0  0  0  0  0  0  0  0  0
   21.3537   -7.2901  -14.9917 C   0  0  0  0  0  0  0  0  0  0  0  0
   21.8965   -6.7886  -13.9996 O   0  0  0  0  0  0  0  0  0  0  0  0
   21.3785   -6.5203  -16.1729 O   0  0  0  0  0  0  0  0  0  0  0  0
  2  3  1  0
  2  1  1  6
  4  3  1  0
  5  2  1  0
  5  6  2  0
  7  5  1  0
  8  7  1  0
  8 11  1  0
  8  9  1  1
 10  9  1  0
 11 12  2  0
 13 14  1  0
 14 15  1  0
 15 16  1  6
 17 15  1  0
 18 11  1  0
 17 18  1  6
 19 17  1  0
 20 19  2  0
 21 19  1  0
M  END
$$$$
