CCI.pdb
     RDKit          3D

 21 20  0  0  1  0  0  0  0  0999 V2000
   17.9133   -8.6740  -17.3768 N   0  0  0  0  0  0  0  0  0  0  0  0
   18.6412   -7.5117  -16.8859 C   0  0  1  0  0  0  0  0  0  0  0  0
   17.8310   -6.2712  -17.1915 C   0  0  0  0  0  0  0  0  0  0  0  0
   17.9805   -5.8562  -18.9466 S   0  0  0  0  0  0  0  0  0  0  0  0
   18.6808   -7.6392  -15.3908 C   0  0  0  0  0  0  0  0  0  0  0  0
   17.7167   -8.0820  -14.7221 O   0  0  0  0  0  0  0  0  0  0  0  0
   19.8404   -7.2516  -14.6779 N   0  0  0  0  0  0  0  0  0  0  0  0
   19.9275   -7.3479  -13.2559 C   0  0  1  0  0  0  0  0  0  0  0  0
   21.3817   -7.4941  -12.8027 C   0  0  0  0  0  0  0  0  0  0  0  0
   21.9270   -9.1446  -13.2611 S   0  0  0  0  0  0  0  0  0  0  0  0
   19.3759   -6.1755  -12.5422 C   0  0  0  0  0  0  0  0  0  0  0  0
   19.7962   -5.0116  -12.7689 O   0  0  0  0  0  0  0  0  0  0  0  0
   14.7450   -3.0403  -11.7832 C   0  0  0  0  0  0  0  0  0  0  0  0
   15.9328   -3.4549  -10.8970 C   0  0  0  0  0  0  0  0  0  0  0  0
   16.5247   -4.6946  -11.5028 C   0  0  2  0  0  0  0  0  0  0  0  0
   15.4895   -5.7842  -11.4613 C   0  0  0  0  0  0  0  0  0  0  0  0
   17.8442   -5.0902  -10.8543 C   0  0  2  0  0  0  0  0  0  0  0  0
   18.3356   -6.2729  -11.5542 N   0  0  0  0  0  0  0  0  0  0  0  0
   17.5836   -5.3692   -9.4284 C   0  0  0  0  0  0  0  0  0  0  0  0
   17.2240   -4.5522   -8.5719 O   0  0  0  0  0  0  0  0  0  0  0  0
   17.7591   -6.6977   -8.9893 O   0  0  0  0  0  0  0  0  0  0  0  0
  2  3  1  0
  2  1  1  6
  4  3  1  0
  5  2  1  0
  5  6  2  0
  7  5  1  0
  8  7  1  0
  8 11  1  0
  8  9  1  6
 10  9  1  0
 11 12  2  0
 13 14  1  0
 14 15  1  0
 15 16  1  1
 17 15  1  0
 18 11  1  0
 17 18  1  6
 19 17  1  0
 20 19  2  0
 21 19  1  0
M  END
$$$$
