CCI.pdb
     RDKit          3D

 21 20  0  0  1  0  0  0  0  0999 V2000
   15.7882  -12.6571  -12.1664 N   0  0  0  0  0  0  0  0  0  0  0  0
   15.5124  -11.5567  -13.0801 C   0  0  1  0  0  0  0  0  0  0  0  0
   14.0143  -11.3628  -13.1626 C   0  0  0  0  0  0  0  0  0  0  0  0
   13.3102  -12.5173  -14.3653 S   0  0  0  0  0  0  0  0  0  0  0  0
   16.0686  -10.3217  -12.4332 C   0  0  0  0  0  0  0  0  0  0  0  0
   16.2255  -10.2173  -11.1934 O   0  0  0  0  0  0  0  0  0  0  0  0
   16.4404   -9.2121  -13.2293 N   0  0  0  0  0  0  0  0  0  0  0  0
   16.9040   -7.9876  -12.6594 C   0  0  1  0  0  0  0  0  0  0  0  0
   17.4849   -7.0661  -13.7341 C   0  0  0  0  0  0  0  0  0  0  0  0
   18.1012   -5.5935  -12.9073 S   0  0  0  0  0  0  0  0  0  0  0  0
   15.8518   -7.2164  -11.9620 C   0  0  0  0  0  0  0  0  0  0  0  0
   14.7232   -7.0252  -12.4839 O   0  0  0  0  0  0  0  0  0  0  0  0
   12.8435   -6.6814   -7.0189 C   0  0  0  0  0  0  0  0  0  0  0  0
   13.4620   -5.7372   -8.0650 C   0  0  0  0  0  0  0  0  0  0  0  0
   14.5004   -6.5239   -8.8113 C   0  0  2  0  0  0  0  0  0  0  0  0
   15.5970   -6.8933   -7.8512 C   0  0  0  0  0  0  0  0  0  0  0  0
   15.0031   -5.7998  -10.0526 C   0  0  2  0  0  0  0  0  0  0  0  0
   16.0332   -6.6378  -10.6580 N   0  0  0  0  0  0  0  0  0  0  0  0
   15.5427   -4.4930   -9.6285 C   0  0  0  0  0  0  0  0  0  0  0  0
   14.8931   -3.5336   -9.1946 O   0  0  0  0  0  0  0  0  0  0  0  0
   16.9378   -4.3105   -9.7235 O   0  0  0  0  0  0  0  0  0  0  0  0
  2  3  1  0
  2  1  1  1
  4  3  1  0
  5  2  1  0
  5  6  2  0
  7  5  1  0
  8  7  1  0
  8 11  1  0
  8  9  1  6
 10  9  1  0
 11 12  2  0
 13 14  1  0
 14 15  1  0
 15 16  1  1
 17 15  1  0
 18 11  1  0
 17 18  1  1
 19 17  1  0
 20 19  2  0
 21 19  1  0
M  END
$$$$
