CCI.pdb
     RDKit          3D

 21 20  0  0  1  0  0  0  0  0999 V2000
   22.5341  -13.5269  -17.9562 N   0  0  0  0  0  0  0  0  0  0  0  0
   22.8434  -12.7450  -16.7667 C   0  0  1  0  0  0  0  0  0  0  0  0
   24.3180  -12.4070  -16.7821 C   0  0  0  0  0  0  0  0  0  0  0  0
   25.2733  -13.7931  -16.1178 S   0  0  0  0  0  0  0  0  0  0  0  0
   22.1054  -11.4460  -16.9119 C   0  0  0  0  0  0  0  0  0  0  0  0
   21.8057  -10.9572  -18.0272 O   0  0  0  0  0  0  0  0  0  0  0  0
   21.7183  -10.7195  -15.7606 N   0  0  0  0  0  0  0  0  0  0  0  0
   20.9503   -9.5183  -15.8410 C   0  0  1  0  0  0  0  0  0  0  0  0
   19.5291   -9.7383  -15.3183 C   0  0  0  0  0  0  0  0  0  0  0  0
   18.6734   -8.1594  -15.3992 S   0  0  0  0  0  0  0  0  0  0  0  0
   21.5180   -8.3927  -15.0672 C   0  0  0  0  0  0  0  0  0  0  0  0
   21.8845   -8.5363  -13.8724 O   0  0  0  0  0  0  0  0  0  0  0  0
   23.8644   -4.0452  -17.7422 C   0  0  0  0  0  0  0  0  0  0  0  0
   22.7306   -4.7237  -16.9533 C   0  0  0  0  0  0  0  0  0  0  0  0
   23.3486   -5.3355  -15.7294 C   0  0  2  0  0  0  0  0  0  0  0  0
   24.4561   -6.2542  -16.1653 C   0  0  0  0  0  0  0  0  0  0  0  0
   22.3219   -6.0113  -14.8309 C   0  0  2  0  0  0  0  0  0  0  0  0
   21.6930   -7.0728  -15.6106 N   0  0  0  0  0  0  0  0  0  0  0  0
   21.3429   -4.9892  -14.4116 C   0  0  0  0  0  0  0  0  0  0  0  0
   20.1701   -4.8923  -14.7936 O   0  0  0  0  0  0  0  0  0  0  0  0
   21.7788   -4.0223  -13.4824 O   0  0  0  0  0  0  0  0  0  0  0  0
  2  3  1  0
  2  1  1  6
  4  3  1  0
  5  2  1  0
  5  6  2  0
  7  5  1  0
  8  7  1  0
  8 11  1  0
  8  9  1  1
 10  9  1  0
 11 12  2  0
 13 14  1  0
 14 15  1  0
 15 16  1  6
 17 15  1  0
 18 11  1  0
 17 18  1  6
 19 17  1  0
 20 19  2  0
 21 19  1  0
M  END
$$$$
