CCI.pdb
     RDKit          3D

 21 20  0  0  1  0  0  0  0  0999 V2000
   25.4000  -16.3546  -16.8177 N   0  0  0  0  0  0  0  0  0  0  0  0
   25.5313  -15.0717  -16.1404 C   0  0  1  0  0  0  0  0  0  0  0  0
   26.9490  -14.5749  -16.3199 C   0  0  0  0  0  0  0  0  0  0  0  0
   27.1325  -12.9478  -15.5492 S   0  0  0  0  0  0  0  0  0  0  0  0
   24.6450  -14.1117  -16.8794 C   0  0  0  0  0  0  0  0  0  0  0  0
   24.3791  -14.2352  -18.0986 O   0  0  0  0  0  0  0  0  0  0  0  0
   24.0709  -13.0115  -16.1989 N   0  0  0  0  0  0  0  0  0  0  0  0
   23.1156  -12.1486  -16.8169 C   0  0  1  0  0  0  0  0  0  0  0  0
   21.7218  -12.7800  -16.8144 C   0  0  0  0  0  0  0  0  0  0  0  0
   21.7329  -14.1184  -18.0146 S   0  0  0  0  0  0  0  0  0  0  0  0
   22.9861  -10.8305  -16.1580 C   0  0  0  0  0  0  0  0  0  0  0  0
   22.8252  -10.7314  -14.9142 O   0  0  0  0  0  0  0  0  0  0  0  0
   26.6194   -7.4649  -17.5849 C   0  0  0  0  0  0  0  0  0  0  0  0
   25.5875   -8.3098  -16.8169 C   0  0  0  0  0  0  0  0  0  0  0  0
   24.2978   -7.5412  -16.8186 C   0  0  2  0  0  0  0  0  0  0  0  0
   24.5446   -6.1983  -16.1891 C   0  0  0  0  0  0  0  0  0  0  0  0
   23.1564   -8.3118  -16.1695 C   0  0  2  0  0  0  0  0  0  0  0  0
   23.0345   -9.5843  -16.8738 N   0  0  0  0  0  0  0  0  0  0  0  0
   21.9306   -7.4991  -16.2953 C   0  0  0  0  0  0  0  0  0  0  0  0
   21.2095   -7.4041  -17.2960 O   0  0  0  0  0  0  0  0  0  0  0  0
   21.5336   -6.7530  -15.1665 O   0  0  0  0  0  0  0  0  0  0  0  0
  2  3  1  0
  2  1  1  6
  4  3  1  0
  5  2  1  0
  5  6  2  0
  7  5  1  0
  8  7  1  0
  8 11  1  0
  8  9  1  1
 10  9  1  0
 11 12  2  0
 13 14  1  0
 14 15  1  0
 15 16  1  1
 17 15  1  0
 18 11  1  0
 17 18  1  6
 19 17  1  0
 20 19  2  0
 21 19  1  0
M  END
$$$$
