CCI.pdb
     RDKit          3D

 21 20  0  0  1  0  0  0  0  0999 V2000
   14.9375  -10.9643  -14.8244 N   0  0  0  0  0  0  0  0  0  0  0  0
   15.2763  -11.7073  -13.6181 C   0  0  1  0  0  0  0  0  0  0  0  0
   16.2147  -12.8331  -13.9932 C   0  0  0  0  0  0  0  0  0  0  0  0
   17.7001  -12.1597  -14.7776 S   0  0  0  0  0  0  0  0  0  0  0  0
   16.0612  -10.7674  -12.7501 C   0  0  0  0  0  0  0  0  0  0  0  0
   16.5075  -11.0958  -11.6251 O   0  0  0  0  0  0  0  0  0  0  0  0
   16.3247   -9.4490  -13.1924 N   0  0  0  0  0  0  0  0  0  0  0  0
   17.0730   -8.5186  -12.4091 C   0  0  1  0  0  0  0  0  0  0  0  0
   18.0740   -7.7507  -13.2750 C   0  0  0  0  0  0  0  0  0  0  0  0
   18.9248   -6.5803  -12.2081 S   0  0  0  0  0  0  0  0  0  0  0  0
   16.2393   -7.5065  -11.7246 C   0  0  0  0  0  0  0  0  0  0  0  0
   15.5271   -6.6962  -12.3717 O   0  0  0  0  0  0  0  0  0  0  0  0
   12.1029   -6.7233   -7.7730 C   0  0  0  0  0  0  0  0  0  0  0  0
   13.3382   -5.9559   -8.2764 C   0  0  0  0  0  0  0  0  0  0  0  0
   14.2481   -6.9594   -8.9241 C   0  0  2  0  0  0  0  0  0  0  0  0
   14.6901   -7.9444   -7.8777 C   0  0  0  0  0  0  0  0  0  0  0  0
   15.4061   -6.3062   -9.6659 C   0  0  2  0  0  0  0  0  0  0  0  0
   16.1780   -7.3737  -10.2940 N   0  0  0  0  0  0  0  0  0  0  0  0
   16.2115   -5.5574   -8.6812 C   0  0  0  0  0  0  0  0  0  0  0  0
   17.3047   -5.8978   -8.2126 O   0  0  0  0  0  0  0  0  0  0  0  0
   15.6908   -4.3296   -8.2231 O   0  0  0  0  0  0  0  0  0  0  0  0
  2  3  1  0
  2  1  1  6
  4  3  1  0
  5  2  1  0
  5  6  2  0
  7  5  1  0
  8  7  1  0
  8 11  1  0
  8  9  1  6
 10  9  1  0
 11 12  2  0
 13 14  1  0
 14 15  1  0
 15 16  1  1
 17 15  1  0
 18 11  1  0
 17 18  1  1
 19 17  1  0
 20 19  2  0
 21 19  1  0
M  END
$$$$
