CCI.pdb
     RDKit          3D

 21 20  0  0  1  0  0  0  0  0999 V2000
   14.9616  -14.1403  -17.5800 N   0  0  0  0  0  0  0  0  0  0  0  0
   16.3509  -14.1972  -17.1458 C   0  0  1  0  0  0  0  0  0  0  0  0
   17.0594  -15.2746  -17.9370 C   0  0  0  0  0  0  0  0  0  0  0  0
   18.7533  -15.4693  -17.3307 S   0  0  0  0  0  0  0  0  0  0  0  0
   16.9727  -12.8918  -17.5489 C   0  0  0  0  0  0  0  0  0  0  0  0
   16.9766  -12.4794  -18.7331 O   0  0  0  0  0  0  0  0  0  0  0  0
   17.5879  -12.0703  -16.5743 N   0  0  0  0  0  0  0  0  0  0  0  0
   18.1057  -10.7766  -16.8862 C   0  0  1  0  0  0  0  0  0  0  0  0
   16.9934   -9.8388  -17.3603 C   0  0  0  0  0  0  0  0  0  0  0  0
   15.8209   -9.6649  -16.0086 S   0  0  0  0  0  0  0  0  0  0  0  0
   18.7687  -10.1070  -15.7460 C   0  0  0  0  0  0  0  0  0  0  0  0
   18.4008  -10.3113  -14.5605 O   0  0  0  0  0  0  0  0  0  0  0  0
   23.4573  -11.1824  -14.7419 C   0  0  0  0  0  0  0  0  0  0  0  0
   21.9871  -10.7324  -14.6769 C   0  0  0  0  0  0  0  0  0  0  0  0
   21.9796   -9.2334  -14.7607 C   0  0  2  0  0  0  0  0  0  0  0  0
   22.8620   -8.6925  -13.6700 C   0  0  0  0  0  0  0  0  0  0  0  0
   20.5721   -8.6533  -14.7421 C   0  0  2  0  0  0  0  0  0  0  0  0
   19.8651   -9.1894  -15.9009 N   0  0  0  0  0  0  0  0  0  0  0  0
   20.6862   -7.1829  -14.8050 C   0  0  0  0  0  0  0  0  0  0  0  0
   20.9867   -6.4270  -13.8729 O   0  0  0  0  0  0  0  0  0  0  0  0
   20.4290   -6.5694  -16.0483 O   0  0  0  0  0  0  0  0  0  0  0  0
  2  3  1  0
  2  1  1  6
  4  3  1  0
  5  2  1  0
  5  6  2  0
  7  5  1  0
  8  7  1  0
  8 11  1  0
  8  9  1  1
 10  9  1  0
 11 12  2  0
 13 14  1  0
 14 15  1  0
 15 16  1  1
 17 15  1  0
 18 11  1  0
 17 18  1  6
 19 17  1  0
 20 19  2  0
 21 19  1  0
M  END
$$$$
