CCI.pdb
     RDKit          3D

 21 20  0  0  1  0  0  0  0  0999 V2000
   28.2925  -20.1284  -17.3269 N   0  0  0  0  0  0  0  0  0  0  0  0
   27.2085  -20.9329  -16.7797 C   0  0  1  0  0  0  0  0  0  0  0  0
   27.6431  -21.4778  -15.4369 C   0  0  0  0  0  0  0  0  0  0  0  0
   28.5312  -23.0381  -15.6648 S   0  0  0  0  0  0  0  0  0  0  0  0
   26.0749  -19.9866  -16.5107 C   0  0  0  0  0  0  0  0  0  0  0  0
   26.1600  -18.7517  -16.7116 O   0  0  0  0  0  0  0  0  0  0  0  0
   24.8463  -20.4785  -16.0089 N   0  0  0  0  0  0  0  0  0  0  0  0
   23.6874  -19.6527  -15.8899 C   0  0  1  0  0  0  0  0  0  0  0  0
   23.2462  -19.1240  -17.2563 C   0  0  0  0  0  0  0  0  0  0  0  0
   21.7134  -18.2163  -17.0151 S   0  0  0  0  0  0  0  0  0  0  0  0
   22.5182  -20.3441  -15.3041 C   0  0  0  0  0  0  0  0  0  0  0  0
   22.0178  -21.3625  -15.8473 O   0  0  0  0  0  0  0  0  0  0  0  0
   21.1139  -19.1774   -9.9244 C   0  0  0  0  0  0  0  0  0  0  0  0
   20.8467  -19.2006  -11.4398 C   0  0  0  0  0  0  0  0  0  0  0  0
   21.1196  -20.5982  -11.9153 C   0  0  2  0  0  0  0  0  0  0  0  0
   22.5015  -20.9897  -11.4705 C   0  0  0  0  0  0  0  0  0  0  0  0
   20.8987  -20.7605  -13.4129 C   0  0  2  0  0  0  0  0  0  0  0  0
   21.8760  -19.9150  -14.0911 N   0  0  0  0  0  0  0  0  0  0  0  0
   19.5149  -20.3450  -13.7153 C   0  0  0  0  0  0  0  0  0  0  0  0
   19.1692  -19.3355  -14.3413 O   0  0  0  0  0  0  0  0  0  0  0  0
   18.4760  -21.1761  -13.2479 O   0  0  0  0  0  0  0  0  0  0  0  0
  2  3  1  0
  2  1  1  1
  4  3  1  0
  5  2  1  0
  5  6  2  0
  7  5  1  0
  8  7  1  0
  8 11  1  0
  8  9  1  6
 10  9  1  0
 11 12  2  0
 13 14  1  0
 14 15  1  0
 15 16  1  6
 17 15  1  0
 18 11  1  0
 17 18  1  6
 19 17  1  0
 20 19  2  0
 21 19  1  0
M  END
$$$$
