CCI.pdb
     RDKit          3D

 21 20  0  0  1  0  0  0  0  0999 V2000
   15.9167  -13.1572  -14.3113 N   0  0  0  0  0  0  0  0  0  0  0  0
   15.5977  -11.7364  -14.3488 C   0  0  1  0  0  0  0  0  0  0  0  0
   14.0945  -11.5781  -14.2833 C   0  0  0  0  0  0  0  0  0  0  0  0
   13.3742  -11.8656  -15.9184 S   0  0  0  0  0  0  0  0  0  0  0  0
   16.1454  -11.1474  -13.0815 C   0  0  0  0  0  0  0  0  0  0  0  0
   16.1227  -11.7561  -11.9854 O   0  0  0  0  0  0  0  0  0  0  0  0
   16.7176   -9.8529  -13.0923 N   0  0  0  0  0  0  0  0  0  0  0  0
   17.1728   -9.2119  -11.9003 C   0  0  1  0  0  0  0  0  0  0  0  0
   18.5592   -8.5965  -12.1020 C   0  0  0  0  0  0  0  0  0  0  0  0
   18.4702   -7.5252  -13.5429 S   0  0  0  0  0  0  0  0  0  0  0  0
   16.2885   -8.1225  -11.4320 C   0  0  0  0  0  0  0  0  0  0  0  0
   15.6581   -7.3948  -12.2418 O   0  0  0  0  0  0  0  0  0  0  0  0
   12.3508   -8.4165   -8.0823 C   0  0  0  0  0  0  0  0  0  0  0  0
   13.2830   -7.9716   -9.2231 C   0  0  0  0  0  0  0  0  0  0  0  0
   14.3027   -7.0460   -8.6251 C   0  0  2  0  0  0  0  0  0  0  0  0
   13.5803   -5.8904   -7.9900 C   0  0  0  0  0  0  0  0  0  0  0  0
   15.3635   -6.6167   -9.6292 C   0  0  2  0  0  0  0  0  0  0  0  0
   16.0834   -7.8174  -10.0418 N   0  0  0  0  0  0  0  0  0  0  0  0
   16.2554   -5.6485   -8.9613 C   0  0  0  0  0  0  0  0  0  0  0  0
   17.2686   -5.9133   -8.3027 O   0  0  0  0  0  0  0  0  0  0  0  0
   15.9278   -4.2821   -9.0808 O   0  0  0  0  0  0  0  0  0  0  0  0
  2  3  1  0
  2  1  1  1
  4  3  1  0
  5  2  1  0
  5  6  2  0
  7  5  1  0
  8  7  1  0
  8 11  1  0
  8  9  1  6
 10  9  1  0
 11 12  2  0
 13 14  1  0
 14 15  1  0
 15 16  1  6
 17 15  1  0
 18 11  1  0
 17 18  1  1
 19 17  1  0
 20 19  2  0
 21 19  1  0
M  END
$$$$
