CCI.pdb
     RDKit          3D

 21 20  0  0  1  0  0  0  0  0999 V2000
   16.7447  -11.4779  -10.7311 N   0  0  0  0  0  0  0  0  0  0  0  0
   15.7829  -10.3861  -10.8019 C   0  0  1  0  0  0  0  0  0  0  0  0
   14.5284  -10.8004  -10.0649 C   0  0  0  0  0  0  0  0  0  0  0  0
   13.8053  -12.2597  -10.8541 S   0  0  0  0  0  0  0  0  0  0  0  0
   16.3788   -9.2479  -10.0258 C   0  0  0  0  0  0  0  0  0  0  0  0
   17.5421   -9.2809   -9.5587 O   0  0  0  0  0  0  0  0  0  0  0  0
   15.6207   -8.0751   -9.7951 N   0  0  0  0  0  0  0  0  0  0  0  0
   16.2331   -6.8053   -9.5680 C   0  0  1  0  0  0  0  0  0  0  0  0
   17.1982   -6.4497  -10.7009 C   0  0  0  0  0  0  0  0  0  0  0  0
   17.8209   -4.7940  -10.3804 S   0  0  0  0  0  0  0  0  0  0  0  0
   15.2702   -5.6872   -9.4636 C   0  0  0  0  0  0  0  0  0  0  0  0
   14.5363   -5.3604  -10.4317 O   0  0  0  0  0  0  0  0  0  0  0  0
   11.6965   -5.2311   -5.6787 C   0  0  0  0  0  0  0  0  0  0  0  0
   12.4104   -5.1317   -7.0384 C   0  0  0  0  0  0  0  0  0  0  0  0
   13.3217   -3.9403   -6.9730 C   0  0  2  0  0  0  0  0  0  0  0  0
   12.4941   -2.7264   -6.6538 C   0  0  0  0  0  0  0  0  0  0  0  0
   14.1679   -3.7812   -8.2287 C   0  0  2  0  0  0  0  0  0  0  0  0
   15.1004   -4.9031   -8.2701 N   0  0  0  0  0  0  0  0  0  0  0  0
   14.8741   -2.4880   -8.1394 C   0  0  0  0  0  0  0  0  0  0  0  0
   15.9813   -2.2875   -7.6252 O   0  0  0  0  0  0  0  0  0  0  0  0
   14.2299   -1.3626   -8.6934 O   0  0  0  0  0  0  0  0  0  0  0  0
  2  3  1  0
  2  1  1  1
  4  3  1  0
  5  2  1  0
  5  6  2  0
  7  5  1  0
  8  7  1  0
  8 11  1  0
  8  9  1  6
 10  9  1  0
 11 12  2  0
 13 14  1  0
 14 15  1  0
 15 16  1  6
 17 15  1  0
 18 11  1  0
 17 18  1  1
 19 17  1  0
 20 19  2  0
 21 19  1  0
M  END
$$$$
