GFT.pdb
     RDKit          3D

 23 23  0  0  1  0  0  0  0  0999 V2000
   10.0426  -16.7612   19.1267 N   0  0  0  0  0  0  0  0  0  0  0  0
    8.7742  -16.5751   19.7998 C   0  0  0  0  0  0  0  0  0  0  0  0
    9.0391  -15.9460   21.1197 C   0  0  0  0  0  0  0  0  0  0  0  0
   10.2284  -15.8831   21.5644 O   0  0  0  0  0  0  0  0  0  0  0  0
    8.0093  -15.4109   21.9048 N   0  0  0  0  0  0  0  0  0  0  0  0
    8.2539  -14.8173   23.2289 C   0  0  1  0  0  0  0  0  0  0  0  0
    7.0268  -14.0186   23.5503 C   0  0  0  0  0  0  0  0  0  0  0  0
    7.0182  -13.4208   24.8932 C   0  0  0  0  0  0  0  0  0  0  0  0
    7.8710  -12.3350   25.1115 C   0  0  0  0  0  0  0  0  0  0  0  0
    7.9367  -11.7014   26.3341 C   0  0  0  0  0  0  0  0  0  0  0  0
    7.1478  -12.1473   27.3568 C   0  0  0  0  0  0  0  0  0  0  0  0
    6.3078  -13.2155   27.1442 C   0  0  0  0  0  0  0  0  0  0  0  0
    6.2405  -13.8516   25.9199 C   0  0  0  0  0  0  0  0  0  0  0  0
    8.5080  -15.8899   24.2048 C   0  0  0  0  0  0  0  0  0  0  0  0
    7.7186  -16.8436   24.2845 O   0  0  0  0  0  0  0  0  0  0  0  0
   11.7933  -18.6865   26.3200 C   0  0  0  0  0  0  0  0  0  0  0  0
   11.4329  -17.4765   25.4609 C   0  0  1  0  0  0  0  0  0  0  0  0
   11.4396  -17.9269   24.1409 O   0  0  0  0  0  0  0  0  0  0  0  0
   10.0693  -16.9489   25.8543 C   0  0  2  0  0  0  0  0  0  0  0  0
    9.6406  -15.8495   25.0543 N   0  0  0  0  0  0  0  0  0  0  0  0
    9.9864  -16.6786   27.3109 C   0  0  0  0  0  0  0  0  0  0  0  0
    9.9216  -17.6063   28.1701 O   0  0  0  0  0  0  0  0  0  0  0  0
    9.9756  -15.3839   27.8081 O   0  0  0  0  0  0  0  0  0  0  0  0
  2  1  1  0
  2  3  1  0
  3  5  1  0
  3  4  2  0
  5  6  1  0
  6  7  1  1
  6 14  1  0
  8  9  2  0
  8  7  1  0
 10  9  1  0
 11 10  2  0
 12 11  1  0
 12 13  2  0
 13  8  1  0
 14 20  1  0
 15 14  2  0
 17 16  1  1
 17 18  1  0
 19 21  1  0
 19 17  1  0
 19 20  1  6
 21 23  1  0
 22 21  2  0
M  END
$$$$
