GFT.pdb
     RDKit          3D

 23 23  0  0  1  0  0  0  0  0999 V2000
    9.3692  -16.5203   18.6342 N   0  0  0  0  0  0  0  0  0  0  0  0
    8.1774  -16.4598   19.4544 C   0  0  0  0  0  0  0  0  0  0  0  0
    8.5490  -15.8709   20.7672 C   0  0  0  0  0  0  0  0  0  0  0  0
    9.7742  -15.7085   21.0648 O   0  0  0  0  0  0  0  0  0  0  0  0
    7.5826  -15.4817   21.7041 N   0  0  0  0  0  0  0  0  0  0  0  0
    7.9375  -14.8939   23.0056 C   0  0  1  0  0  0  0  0  0  0  0  0
    6.7382  -14.1050   23.4370 C   0  0  0  0  0  0  0  0  0  0  0  0
    6.8547  -13.4890   24.7667 C   0  0  0  0  0  0  0  0  0  0  0  0
    7.6261  -12.3275   24.8640 C   0  0  0  0  0  0  0  0  0  0  0  0
    7.7967  -11.6711   26.0642 C   0  0  0  0  0  0  0  0  0  0  0  0
    7.1959  -12.1699   27.1857 C   0  0  0  0  0  0  0  0  0  0  0  0
    6.4364  -13.3128   27.0921 C   0  0  0  0  0  0  0  0  0  0  0  0
    6.2643  -13.9719   25.8904 C   0  0  0  0  0  0  0  0  0  0  0  0
    8.2817  -15.9703   23.9493 C   0  0  0  0  0  0  0  0  0  0  0  0
    7.5052  -16.9267   24.0953 O   0  0  0  0  0  0  0  0  0  0  0  0
   10.8505  -18.1595   23.5081 C   0  0  0  0  0  0  0  0  0  0  0  0
   11.1406  -17.7264   24.9435 C   0  0  1  0  0  0  0  0  0  0  0  0
   12.2546  -16.8899   24.8747 O   0  0  0  0  0  0  0  0  0  0  0  0
    9.9428  -16.9998   25.5179 C   0  0  2  0  0  0  0  0  0  0  0  0
    9.4863  -15.9304   24.6931 N   0  0  0  0  0  0  0  0  0  0  0  0
   10.1727  -16.5938   26.9265 C   0  0  0  0  0  0  0  0  0  0  0  0
   10.1332  -15.3843   27.2986 O   0  0  0  0  0  0  0  0  0  0  0  0
   10.4449  -17.5282   27.9146 O   0  0  0  0  0  0  0  0  0  0  0  0
  2  1  1  0
  2  3  1  0
  3  5  1  0
  3  4  2  0
  5  6  1  0
  6  7  1  1
  6 14  1  0
  8  9  2  0
  8  7  1  0
 10  9  1  0
 11 10  2  0
 12 11  1  0
 12 13  2  0
 13  8  1  0
 14 20  1  0
 15 14  2  0
 17 16  1  6
 17 18  1  0
 19 21  1  0
 19 17  1  0
 19 20  1  6
 21 23  1  0
 22 21  2  0
M  END
$$$$
