GFT.pdb
     RDKit          3D

 23 23  0  0  1  0  0  0  0  0999 V2000
    6.8096  -17.7844   19.3441 N   0  0  0  0  0  0  0  0  0  0  0  0
    6.2856  -17.9563   20.6829 C   0  0  0  0  0  0  0  0  0  0  0  0
    6.9926  -17.0071   21.5815 C   0  0  0  0  0  0  0  0  0  0  0  0
    8.0272  -16.3948   21.1686 O   0  0  0  0  0  0  0  0  0  0  0  0
    6.5532  -16.7583   22.8885 N   0  0  0  0  0  0  0  0  0  0  0  0
    7.2559  -15.8361   23.7947 C   0  0  1  0  0  0  0  0  0  0  0  0
    6.2037  -15.2794   24.7057 C   0  0  0  0  0  0  0  0  0  0  0  0
    6.6900  -14.2768   25.6645 C   0  0  0  0  0  0  0  0  0  0  0  0
    6.4164  -12.9366   25.3769 C   0  0  0  0  0  0  0  0  0  0  0  0
    6.8261  -11.9194   26.2124 C   0  0  0  0  0  0  0  0  0  0  0  0
    7.5167  -12.2310   27.3496 C   0  0  0  0  0  0  0  0  0  0  0  0
    7.7869  -13.5492   27.6345 C   0  0  0  0  0  0  0  0  0  0  0  0
    7.3773  -14.5698   26.7986 C   0  0  0  0  0  0  0  0  0  0  0  0
    8.3068  -16.5701   24.5188 C   0  0  0  0  0  0  0  0  0  0  0  0
    8.0257  -17.6347   25.0905 O   0  0  0  0  0  0  0  0  0  0  0  0
   13.1413  -17.4809   24.6892 C   0  0  0  0  0  0  0  0  0  0  0  0
   12.0240  -16.5368   24.2501 C   0  0  1  0  0  0  0  0  0  0  0  0
   11.8679  -16.7379   22.8788 O   0  0  0  0  0  0  0  0  0  0  0  0
   10.7490  -16.8577   25.0010 C   0  0  2  0  0  0  0  0  0  0  0  0
    9.6342  -16.0793   24.5726 N   0  0  0  0  0  0  0  0  0  0  0  0
   10.9555  -16.8230   26.4700 C   0  0  0  0  0  0  0  0  0  0  0  0
   10.8024  -15.7670   27.1516 O   0  0  0  0  0  0  0  0  0  0  0  0
   11.3300  -17.9566   27.1759 O   0  0  0  0  0  0  0  0  0  0  0  0
  2  1  1  0
  2  3  1  0
  3  5  1  0
  3  4  2  0
  5  6  1  0
  6  7  1  1
  6 14  1  0
  8  9  2  0
  8  7  1  0
 10  9  1  0
 11 10  2  0
 12 11  1  0
 12 13  2  0
 13  8  1  0
 14 20  1  0
 15 14  2  0
 17 16  1  1
 17 18  1  0
 19 21  1  0
 19 17  1  0
 19 20  1  1
 21 23  1  0
 22 21  2  0
M  END
$$$$
