GFT.pdb
     RDKit          3D

 23 23  0  0  1  0  0  0  0  0999 V2000
    4.8541  -19.7779   24.4464 N   0  0  0  0  0  0  0  0  0  0  0  0
    5.7275  -19.0369   25.3323 C   0  0  0  0  0  0  0  0  0  0  0  0
    6.2332  -17.8493   24.5961 C   0  0  0  0  0  0  0  0  0  0  0  0
    5.7812  -17.5815   23.4385 O   0  0  0  0  0  0  0  0  0  0  0  0
    7.2057  -16.9999   25.1401 N   0  0  0  0  0  0  0  0  0  0  0  0
    7.7226  -15.8273   24.4168 C   0  0  1  0  0  0  0  0  0  0  0  0
    8.3705  -14.9614   25.4548 C   0  0  0  0  0  0  0  0  0  0  0  0
    7.5242  -13.8703   25.9590 C   0  0  0  0  0  0  0  0  0  0  0  0
    7.1426  -13.9302   27.3023 C   0  0  0  0  0  0  0  0  0  0  0  0
    6.3523  -12.9559   27.8738 C   0  0  0  0  0  0  0  0  0  0  0  0
    5.9323  -11.9062   27.1063 C   0  0  0  0  0  0  0  0  0  0  0  0
    6.3066  -11.8453   25.7842 C   0  0  0  0  0  0  0  0  0  0  0  0
    7.0985  -12.8205   25.2099 C   0  0  0  0  0  0  0  0  0  0  0  0
    8.6645  -16.2721   23.3764 C   0  0  0  0  0  0  0  0  0  0  0  0
    9.4558  -17.1953   23.6225 O   0  0  0  0  0  0  0  0  0  0  0  0
    7.3696  -15.7324   19.6250 C   0  0  0  0  0  0  0  0  0  0  0  0
    8.8953  -15.6723   19.6533 C   0  0  1  0  0  0  0  0  0  0  0  0
    9.2307  -14.3332   19.4542 O   0  0  0  0  0  0  0  0  0  0  0  0
    9.4094  -16.1751   20.9857 C   0  0  2  0  0  0  0  0  0  0  0  0
    8.6808  -15.6619   22.0984 N   0  0  0  0  0  0  0  0  0  0  0  0
   10.8761  -15.9888   21.1120 C   0  0  0  0  0  0  0  0  0  0  0  0
   11.3961  -15.3189   22.0521 O   0  0  0  0  0  0  0  0  0  0  0  0
   11.7584  -16.5447   20.1976 O   0  0  0  0  0  0  0  0  0  0  0  0
  2  1  1  0
  2  3  1  0
  3  5  1  0
  3  4  2  0
  5  6  1  0
  6  7  1  1
  6 14  1  0
  8  9  2  0
  8  7  1  0
 10  9  1  0
 11 10  2  0
 12 11  1  0
 12 13  2  0
 13  8  1  0
 14 20  1  0
 15 14  2  0
 17 16  1  1
 17 18  1  0
 19 21  1  0
 19 17  1  0
 19 20  1  1
 21 23  1  0
 22 21  2  0
M  END
$$$$
