GFT.pdb
     RDKit          3D

 23 23  0  0  1  0  0  0  0  0999 V2000
    5.7421  -16.7503   20.2705 N   0  0  0  0  0  0  0  0  0  0  0  0
    5.4724  -17.1172   21.6449 C   0  0  0  0  0  0  0  0  0  0  0  0
    6.5382  -16.5301   22.4979 C   0  0  0  0  0  0  0  0  0  0  0  0
    7.5622  -16.0032   21.9596 O   0  0  0  0  0  0  0  0  0  0  0  0
    6.4543  -16.5360   23.8965 N   0  0  0  0  0  0  0  0  0  0  0  0
    7.5072  -15.9666   24.7524 C   0  0  1  0  0  0  0  0  0  0  0  0
    6.8091  -15.4736   25.9838 C   0  0  0  0  0  0  0  0  0  0  0  0
    6.7528  -14.0103   26.1129 C   0  0  0  0  0  0  0  0  0  0  0  0
    7.9478  -13.3091   25.9280 C   0  0  0  0  0  0  0  0  0  0  0  0
    8.0026  -11.9351   26.0250 C   0  0  0  0  0  0  0  0  0  0  0  0
    6.8591  -11.2429   26.3090 C   0  0  0  0  0  0  0  0  0  0  0  0
    5.6821  -11.9309   26.4913 C   0  0  0  0  0  0  0  0  0  0  0  0
    5.6253  -13.3076   26.3945 C   0  0  0  0  0  0  0  0  0  0  0  0
    8.5127  -17.0021   25.0428 C   0  0  0  0  0  0  0  0  0  0  0  0
    8.1443  -18.1153   25.4479 O   0  0  0  0  0  0  0  0  0  0  0  0
   12.9846  -18.7605   24.0479 C   0  0  0  0  0  0  0  0  0  0  0  0
   12.0081  -17.5907   23.9475 C   0  0  1  0  0  0  0  0  0  0  0  0
   11.5013  -17.6238   22.6485 O   0  0  0  0  0  0  0  0  0  0  0  0
   10.9042  -17.7474   24.9719 C   0  0  2  0  0  0  0  0  0  0  0  0
    9.8945  -16.7464   24.8666 N   0  0  0  0  0  0  0  0  0  0  0  0
   11.4479  -17.8863   26.3455 C   0  0  0  0  0  0  0  0  0  0  0  0
   11.7002  -16.8858   27.0793 O   0  0  0  0  0  0  0  0  0  0  0  0
   11.7090  -19.1310   26.8989 O   0  0  0  0  0  0  0  0  0  0  0  0
  2  1  1  0
  2  3  1  0
  3  5  1  0
  3  4  2  0
  5  6  1  0
  6  7  1  1
  6 14  1  0
  8  9  2  0
  8  7  1  0
 10  9  1  0
 11 10  2  0
 12 11  1  0
 12 13  2  0
 13  8  1  0
 14 20  1  0
 15 14  2  0
 17 16  1  6
 17 18  1  0
 19 21  1  0
 19 17  1  0
 19 20  1  1
 21 23  1  0
 22 21  2  0
M  END
$$$$
