GFT.pdb
     RDKit          3D

 23 23  0  0  1  0  0  0  0  0999 V2000
    4.5437  -19.7050   22.0846 N   0  0  0  0  0  0  0  0  0  0  0  0
    5.0148  -19.5591   23.4460 C   0  0  0  0  0  0  0  0  0  0  0  0
    5.7954  -18.2976   23.5324 C   0  0  0  0  0  0  0  0  0  0  0  0
    6.1046  -17.6698   22.4712 O   0  0  0  0  0  0  0  0  0  0  0  0
    6.2100  -17.7663   24.7608 N   0  0  0  0  0  0  0  0  0  0  0  0
    7.0522  -16.5634   24.8560 C   0  0  1  0  0  0  0  0  0  0  0  0
    6.7141  -15.9325   26.1730 C   0  0  0  0  0  0  0  0  0  0  0  0
    7.0720  -14.5109   26.2823 C   0  0  0  0  0  0  0  0  0  0  0  0
    8.0962  -14.1797   27.1740 C   0  0  0  0  0  0  0  0  0  0  0  0
    8.5094  -12.8762   27.3490 C   0  0  0  0  0  0  0  0  0  0  0  0
    7.9014  -11.8845   26.6319 C   0  0  0  0  0  0  0  0  0  0  0  0
    6.8934  -12.2082   25.7538 C   0  0  0  0  0  0  0  0  0  0  0  0
    6.4781  -13.5137   25.5772 C   0  0  0  0  0  0  0  0  0  0  0  0
    8.4690  -16.9509   24.7562 C   0  0  0  0  0  0  0  0  0  0  0  0
    8.8976  -17.8851   25.4508 O   0  0  0  0  0  0  0  0  0  0  0  0
   10.0341  -17.4421   21.3727 C   0  0  0  0  0  0  0  0  0  0  0  0
   11.0772  -16.6739   22.1814 C   0  0  1  0  0  0  0  0  0  0  0  0
   11.0900  -15.3798   21.6611 O   0  0  0  0  0  0  0  0  0  0  0  0
   10.6990  -16.6727   23.6475 C   0  0  2  0  0  0  0  0  0  0  0  0
    9.3503  -16.2730   23.8789 N   0  0  0  0  0  0  0  0  0  0  0  0
   11.6805  -15.9179   24.4653 C   0  0  0  0  0  0  0  0  0  0  0  0
   12.4562  -16.4861   25.2890 O   0  0  0  0  0  0  0  0  0  0  0  0
   11.7978  -14.5395   24.3668 O   0  0  0  0  0  0  0  0  0  0  0  0
  2  1  1  0
  2  3  1  0
  3  5  1  0
  3  4  2  0
  5  6  1  0
  6  7  1  1
  6 14  1  0
  8  9  2  0
  8  7  1  0
 10  9  1  0
 11 10  2  0
 12 11  1  0
 12 13  2  0
 13  8  1  0
 14 20  1  0
 15 14  2  0
 17 16  1  6
 17 18  1  0
 19 21  1  0
 19 17  1  0
 19 20  1  6
 21 23  1  0
 22 21  2  0
M  END
$$$$
