GFT.pdb
     RDKit          3D

 23 23  0  0  1  0  0  0  0  0999 V2000
    7.1299  -14.4360   19.5819 N   0  0  0  0  0  0  0  0  0  0  0  0
    6.5228  -14.9155   20.8059 C   0  0  0  0  0  0  0  0  0  0  0  0
    7.5456  -14.8584   21.8825 C   0  0  0  0  0  0  0  0  0  0  0  0
    8.7215  -14.4540   21.6185 O   0  0  0  0  0  0  0  0  0  0  0  0
    7.2564  -15.2402   23.1992 N   0  0  0  0  0  0  0  0  0  0  0  0
    8.2684  -15.2180   24.2672 C   0  0  1  0  0  0  0  0  0  0  0  0
    7.5041  -15.0893   25.5502 C   0  0  0  0  0  0  0  0  0  0  0  0
    7.1262  -13.7134   25.9040 C   0  0  0  0  0  0  0  0  0  0  0  0
    5.9994  -13.5520   26.7151 C   0  0  0  0  0  0  0  0  0  0  0  0
    5.5625  -12.3044   27.1062 C   0  0  0  0  0  0  0  0  0  0  0  0
    6.2494  -11.1990   26.6895 C   0  0  0  0  0  0  0  0  0  0  0  0
    7.3585  -11.3555   25.8913 C   0  0  0  0  0  0  0  0  0  0  0  0
    7.7978  -12.6049   25.4985 C   0  0  0  0  0  0  0  0  0  0  0  0
    9.0721  -16.4498   24.2033 C   0  0  0  0  0  0  0  0  0  0  0  0
    8.5567  -17.4945   23.7766 O   0  0  0  0  0  0  0  0  0  0  0  0
   10.0996  -17.5804   22.0685 C   0  0  0  0  0  0  0  0  0  0  0  0
   11.4902  -17.5531   22.6990 C   0  0  1  0  0  0  0  0  0  0  0  0
   12.1370  -16.4436   22.1549 O   0  0  0  0  0  0  0  0  0  0  0  0
   11.3750  -17.4382   24.2043 C   0  0  2  0  0  0  0  0  0  0  0  0
   10.4252  -16.4603   24.6216 N   0  0  0  0  0  0  0  0  0  0  0  0
   12.7035  -17.2722   24.8439 C   0  0  0  0  0  0  0  0  0  0  0  0
   13.0436  -16.2045   25.4335 O   0  0  0  0  0  0  0  0  0  0  0  0
   13.6476  -18.2881   24.8274 O   0  0  0  0  0  0  0  0  0  0  0  0
  2  1  1  0
  2  3  1  0
  3  5  1  0
  3  4  2  0
  5  6  1  0
  6  7  1  1
  6 14  1  0
  8  9  2  0
  8  7  1  0
 10  9  1  0
 11 10  2  0
 12 11  1  0
 12 13  2  0
 13  8  1  0
 14 20  1  0
 15 14  2  0
 17 16  1  6
 17 18  1  0
 19 21  1  0
 19 17  1  0
 19 20  1  6
 21 23  1  0
 22 21  2  0
M  END
$$$$
