GFT.pdb
     RDKit          3D

 23 23  0  0  1  0  0  0  0  0999 V2000
    4.8945  -19.6201   21.5438 N   0  0  0  0  0  0  0  0  0  0  0  0
    5.1706  -19.4969   22.9599 C   0  0  0  0  0  0  0  0  0  0  0  0
    5.9539  -18.2519   23.1716 C   0  0  0  0  0  0  0  0  0  0  0  0
    6.4804  -17.6580   22.1786 O   0  0  0  0  0  0  0  0  0  0  0  0
    6.1363  -17.6998   24.4464 N   0  0  0  0  0  0  0  0  0  0  0  0
    6.9635  -16.5050   24.6775 C   0  0  1  0  0  0  0  0  0  0  0  0
    6.4162  -15.8642   25.9172 C   0  0  0  0  0  0  0  0  0  0  0  0
    6.9052  -14.5012   26.1705 C   0  0  0  0  0  0  0  0  0  0  0  0
    7.9346  -14.3583   27.1052 C   0  0  0  0  0  0  0  0  0  0  0  0
    8.4658  -13.1240   27.4131 C   0  0  0  0  0  0  0  0  0  0  0  0
    7.9724  -12.0136   26.7879 C   0  0  0  0  0  0  0  0  0  0  0  0
    6.9595  -12.1519   25.8677 C   0  0  0  0  0  0  0  0  0  0  0  0
    6.4260  -13.3879   25.5579 C   0  0  0  0  0  0  0  0  0  0  0  0
    8.3727  -16.9071   24.8179 C   0  0  0  0  0  0  0  0  0  0  0  0
    8.6724  -17.8213   25.6011 O   0  0  0  0  0  0  0  0  0  0  0  0
   10.5400  -17.1050   21.5850 C   0  0  0  0  0  0  0  0  0  0  0  0
   11.4062  -16.5043   22.6901 C   0  0  1  0  0  0  0  0  0  0  0  0
   11.5275  -15.1479   22.3887 O   0  0  0  0  0  0  0  0  0  0  0  0
   10.7457  -16.7109   24.0367 C   0  0  2  0  0  0  0  0  0  0  0  0
    9.3918  -16.2659   24.0721 N   0  0  0  0  0  0  0  0  0  0  0  0
   11.5703  -16.1608   25.1409 C   0  0  0  0  0  0  0  0  0  0  0  0
   11.1396  -15.2687   25.9293 O   0  0  0  0  0  0  0  0  0  0  0  0
   12.8661  -16.6009   25.3661 O   0  0  0  0  0  0  0  0  0  0  0  0
  2  1  1  0
  2  3  1  0
  3  5  1  0
  3  4  2  0
  5  6  1  0
  6  7  1  1
  6 14  1  0
  8  9  2  0
  8  7  1  0
 10  9  1  0
 11 10  2  0
 12 11  1  0
 12 13  2  0
 13  8  1  0
 14 20  1  0
 15 14  2  0
 17 16  1  6
 17 18  1  0
 19 21  1  0
 19 17  1  0
 19 20  1  6
 21 23  1  0
 22 21  2  0
M  END
$$$$
