GFT.pdb
     RDKit          3D

 23 23  0  0  1  0  0  0  0  0999 V2000
    4.4055  -19.9614   22.6247 N   0  0  0  0  0  0  0  0  0  0  0  0
    5.4522  -19.9213   23.6244 C   0  0  0  0  0  0  0  0  0  0  0  0
    6.0334  -18.5537   23.6307 C   0  0  0  0  0  0  0  0  0  0  0  0
    6.2615  -17.9570   22.5316 O   0  0  0  0  0  0  0  0  0  0  0  0
    6.3442  -17.8869   24.8232 N   0  0  0  0  0  0  0  0  0  0  0  0
    7.0282  -16.5842   24.8433 C   0  0  1  0  0  0  0  0  0  0  0  0
    6.6270  -15.9332   26.1325 C   0  0  0  0  0  0  0  0  0  0  0  0
    7.0280  -14.5246   26.2595 C   0  0  0  0  0  0  0  0  0  0  0  0
    6.0921  -13.5599   25.8759 C   0  0  0  0  0  0  0  0  0  0  0  0
    6.3680  -12.2117   25.9583 C   0  0  0  0  0  0  0  0  0  0  0  0
    7.5873  -11.8104   26.4268 C   0  0  0  0  0  0  0  0  0  0  0  0
    8.5097  -12.7580   26.8049 C   0  0  0  0  0  0  0  0  0  0  0  0
    8.2351  -14.1093   26.7231 C   0  0  0  0  0  0  0  0  0  0  0  0
    8.4816  -16.7949   24.7389 C   0  0  0  0  0  0  0  0  0  0  0  0
    9.0165  -17.7016   25.3952 O   0  0  0  0  0  0  0  0  0  0  0  0
   12.4860  -16.0625   21.9031 C   0  0  0  0  0  0  0  0  0  0  0  0
   11.0600  -15.6375   22.2465 C   0  0  1  0  0  0  0  0  0  0  0  0
   10.2661  -16.0591   21.1800 O   0  0  0  0  0  0  0  0  0  0  0  0
   10.6245  -16.2841   23.5445 C   0  0  2  0  0  0  0  0  0  0  0  0
    9.2785  -15.9777   23.9004 N   0  0  0  0  0  0  0  0  0  0  0  0
   11.5921  -16.0214   24.6384 C   0  0  0  0  0  0  0  0  0  0  0  0
   11.5182  -14.9959   25.3772 O   0  0  0  0  0  0  0  0  0  0  0  0
   12.6353  -16.8947   24.9082 O   0  0  0  0  0  0  0  0  0  0  0  0
  2  1  1  0
  2  3  1  0
  3  5  1  0
  3  4  2  0
  5  6  1  0
  6  7  1  1
  6 14  1  0
  8  9  2  0
  8  7  1  0
 10  9  1  0
 11 10  2  0
 12 11  1  0
 12 13  2  0
 13  8  1  0
 14 20  1  0
 15 14  2  0
 17 16  1  6
 17 18  1  0
 19 21  1  0
 19 17  1  0
 19 20  1  1
 21 23  1  0
 22 21  2  0
M  END
$$$$
