GFT.pdb
     RDKit          3D

 23 23  0  0  1  0  0  0  0  0999 V2000
    7.1075  -17.8583   19.2604 N   0  0  0  0  0  0  0  0  0  0  0  0
    6.4368  -17.8972   20.5430 C   0  0  0  0  0  0  0  0  0  0  0  0
    7.1367  -16.9597   21.4593 C   0  0  0  0  0  0  0  0  0  0  0  0
    8.2883  -16.5166   21.1539 O   0  0  0  0  0  0  0  0  0  0  0  0
    6.5644  -16.5397   22.6673 N   0  0  0  0  0  0  0  0  0  0  0  0
    7.2559  -15.6285   23.5930 C   0  0  1  0  0  0  0  0  0  0  0  0
    6.1818  -15.0167   24.4409 C   0  0  0  0  0  0  0  0  0  0  0  0
    6.6611  -14.0350   25.4245 C   0  0  0  0  0  0  0  0  0  0  0  0
    7.2388  -12.8643   24.9250 C   0  0  0  0  0  0  0  0  0  0  0  0
    7.7172  -11.8795   25.7626 C   0  0  0  0  0  0  0  0  0  0  0  0
    7.6235  -12.0539   27.1147 C   0  0  0  0  0  0  0  0  0  0  0  0
    7.0553  -13.2051   27.6084 C   0  0  0  0  0  0  0  0  0  0  0  0
    6.5753  -14.1929   26.7706 C   0  0  0  0  0  0  0  0  0  0  0  0
    8.2406  -16.3885   24.3806 C   0  0  0  0  0  0  0  0  0  0  0  0
    7.8964  -17.4429   24.9363 O   0  0  0  0  0  0  0  0  0  0  0  0
   13.0278  -17.4320   24.8581 C   0  0  0  0  0  0  0  0  0  0  0  0
   11.9610  -16.4790   24.3233 C   0  0  1  0  0  0  0  0  0  0  0  0
   11.8736  -16.7297   22.9540 O   0  0  0  0  0  0  0  0  0  0  0  0
   10.6394  -16.7394   25.0148 C   0  0  2  0  0  0  0  0  0  0  0  0
    9.5753  -15.9339   24.5136 N   0  0  0  0  0  0  0  0  0  0  0  0
   10.7729  -16.6780   26.4914 C   0  0  0  0  0  0  0  0  0  0  0  0
   10.7181  -15.5875   27.1324 O   0  0  0  0  0  0  0  0  0  0  0  0
   10.9661  -17.8231   27.2496 O   0  0  0  0  0  0  0  0  0  0  0  0
  2  1  1  0
  2  3  1  0
  3  5  1  0
  3  4  2  0
  5  6  1  0
  6  7  1  1
  6 14  1  0
  8  9  2  0
  8  7  1  0
 10  9  1  0
 11 10  2  0
 12 11  1  0
 12 13  2  0
 13  8  1  0
 14 20  1  0
 15 14  2  0
 17 16  1  1
 17 18  1  0
 19 21  1  0
 19 17  1  0
 19 20  1  6
 21 23  1  0
 22 21  2  0
M  END
$$$$
