GFT.pdb
     RDKit          3D

 23 23  0  0  1  0  0  0  0  0999 V2000
    7.9610  -12.9140   19.5184 N   0  0  0  0  0  0  0  0  0  0  0  0
    7.0809  -13.6242   20.4226 C   0  0  0  0  0  0  0  0  0  0  0  0
    7.8823  -14.0725   21.5909 C   0  0  0  0  0  0  0  0  0  0  0  0
    9.1435  -13.9130   21.5931 O   0  0  0  0  0  0  0  0  0  0  0  0
    7.2890  -14.6744   22.7085 N   0  0  0  0  0  0  0  0  0  0  0  0
    8.0599  -15.0506   23.9041 C   0  0  1  0  0  0  0  0  0  0  0  0
    7.0981  -14.9702   25.0510 C   0  0  0  0  0  0  0  0  0  0  0  0
    6.9762  -13.6365   25.6572 C   0  0  0  0  0  0  0  0  0  0  0  0
    5.6975  -13.2306   26.0493 C   0  0  0  0  0  0  0  0  0  0  0  0
    5.4755  -12.0001   26.6298 C   0  0  0  0  0  0  0  0  0  0  0  0
    6.5332  -11.1574   26.8260 C   0  0  0  0  0  0  0  0  0  0  0  0
    7.7925  -11.5548   26.4409 C   0  0  0  0  0  0  0  0  0  0  0  0
    8.0168  -12.7875   25.8592 C   0  0  0  0  0  0  0  0  0  0  0  0
    8.6167  -16.4011   23.7204 C   0  0  0  0  0  0  0  0  0  0  0  0
    8.1387  -17.1464   22.8514 O   0  0  0  0  0  0  0  0  0  0  0  0
   10.1207  -17.2791   21.7861 C   0  0  0  0  0  0  0  0  0  0  0  0
   11.1726  -17.7606   22.7831 C   0  0  1  0  0  0  0  0  0  0  0  0
   12.1613  -16.7771   22.8033 O   0  0  0  0  0  0  0  0  0  0  0  0
   10.5476  -17.9394   24.1505 C   0  0  2  0  0  0  0  0  0  0  0  0
    9.6900  -16.8624   24.5209 N   0  0  0  0  0  0  0  0  0  0  0  0
   11.5672  -18.2552   25.1813 C   0  0  0  0  0  0  0  0  0  0  0  0
   11.8228  -17.4737   26.1440 O   0  0  0  0  0  0  0  0  0  0  0  0
   12.2976  -19.4335   25.1407 O   0  0  0  0  0  0  0  0  0  0  0  0
  2  1  1  0
  2  3  1  0
  3  5  1  0
  3  4  2  0
  5  6  1  0
  6  7  1  1
  6 14  1  0
  8  9  2  0
  8  7  1  0
 10  9  1  0
 11 10  2  0
 12 11  1  0
 12 13  2  0
 13  8  1  0
 14 20  1  0
 15 14  2  0
 17 16  1  6
 17 18  1  0
 19 21  1  0
 19 17  1  0
 19 20  1  1
 21 23  1  0
 22 21  2  0
M  END
$$$$
