GFT.pdb
     RDKit          3D

 23 23  0  0  1  0  0  0  0  0999 V2000
    4.7397  -19.7894   22.1844 N   0  0  0  0  0  0  0  0  0  0  0  0
    5.1162  -19.5509   23.5620 C   0  0  0  0  0  0  0  0  0  0  0  0
    5.9163  -18.2997   23.6127 C   0  0  0  0  0  0  0  0  0  0  0  0
    6.2032  -17.6870   22.5365 O   0  0  0  0  0  0  0  0  0  0  0  0
    6.3735  -17.7618   24.8231 N   0  0  0  0  0  0  0  0  0  0  0  0
    7.1434  -16.5095   24.8889 C   0  0  1  0  0  0  0  0  0  0  0  0
    6.7970  -15.8872   26.2079 C   0  0  0  0  0  0  0  0  0  0  0  0
    7.0188  -14.4357   26.2786 C   0  0  0  0  0  0  0  0  0  0  0  0
    8.2952  -14.0048   26.6512 C   0  0  0  0  0  0  0  0  0  0  0  0
    8.6076  -12.6654   26.7451 C   0  0  0  0  0  0  0  0  0  0  0  0
    7.6441  -11.7373   26.4667 C   0  0  0  0  0  0  0  0  0  0  0  0
    6.3874  -12.1591   26.0998 C   0  0  0  0  0  0  0  0  0  0  0  0
    6.0726  -13.5007   26.0052 C   0  0  0  0  0  0  0  0  0  0  0  0
    8.5785  -16.8119   24.7603 C   0  0  0  0  0  0  0  0  0  0  0  0
    9.0722  -17.7304   25.4323 O   0  0  0  0  0  0  0  0  0  0  0  0
   10.0672  -16.9045   21.2248 C   0  0  0  0  0  0  0  0  0  0  0  0
   11.1015  -16.2174   22.1138 C   0  0  1  0  0  0  0  0  0  0  0  0
   11.0660  -14.8660   21.7706 O   0  0  0  0  0  0  0  0  0  0  0  0
   10.7503  -16.4231   23.5722 C   0  0  2  0  0  0  0  0  0  0  0  0
    9.4040  -16.0699   23.8807 N   0  0  0  0  0  0  0  0  0  0  0  0
   11.7427  -15.7818   24.4699 C   0  0  0  0  0  0  0  0  0  0  0  0
   11.4261  -14.8702   25.2894 O   0  0  0  0  0  0  0  0  0  0  0  0
   13.0790  -16.1530   24.4553 O   0  0  0  0  0  0  0  0  0  0  0  0
  2  1  1  0
  2  3  1  0
  3  5  1  0
  3  4  2  0
  5  6  1  0
  6  7  1  1
  6 14  1  0
  8  9  2  0
  8  7  1  0
 10  9  1  0
 11 10  2  0
 12 11  1  0
 12 13  2  0
 13  8  1  0
 14 20  1  0
 15 14  2  0
 17 16  1  6
 17 18  1  0
 19 21  1  0
 19 17  1  0
 19 20  1  6
 21 23  1  0
 22 21  2  0
M  END
$$$$
