GFT.pdb
     RDKit          3D

 23 23  0  0  1  0  0  0  0  0999 V2000
    5.2533  -19.1096   23.0690 N   0  0  0  0  0  0  0  0  0  0  0  0
    5.6062  -18.6508   24.3962 C   0  0  0  0  0  0  0  0  0  0  0  0
    6.7116  -17.6662   24.2664 C   0  0  0  0  0  0  0  0  0  0  0  0
    7.2439  -17.4572   23.1310 O   0  0  0  0  0  0  0  0  0  0  0  0
    7.1965  -16.9481   25.3675 N   0  0  0  0  0  0  0  0  0  0  0  0
    8.3383  -16.0253   25.2666 C   0  0  1  0  0  0  0  0  0  0  0  0
    8.1844  -15.0609   26.4038 C   0  0  0  0  0  0  0  0  0  0  0  0
    7.4487  -13.8325   26.0713 C   0  0  0  0  0  0  0  0  0  0  0  0
    6.6281  -13.2936   27.0663 C   0  0  0  0  0  0  0  0  0  0  0  0
    5.8979  -12.1432   26.8571 C   0  0  0  0  0  0  0  0  0  0  0  0
    5.9795  -11.5154   25.6461 C   0  0  0  0  0  0  0  0  0  0  0  0
    6.7864  -12.0439   24.6656 C   0  0  0  0  0  0  0  0  0  0  0  0
    7.5188  -13.1965   24.8734 C   0  0  0  0  0  0  0  0  0  0  0  0
    9.5929  -16.7925   25.3352 C   0  0  0  0  0  0  0  0  0  0  0  0
    9.5967  -17.9114   25.8710 O   0  0  0  0  0  0  0  0  0  0  0  0
   10.9125  -15.8444   21.8668 C   0  0  0  0  0  0  0  0  0  0  0  0
   11.0984  -17.1995   22.5460 C   0  0  1  0  0  0  0  0  0  0  0  0
   11.9795  -17.9170   21.7373 O   0  0  0  0  0  0  0  0  0  0  0  0
   11.6621  -17.0087   23.9382 C   0  0  2  0  0  0  0  0  0  0  0  0
   10.7960  -16.2724   24.7985 N   0  0  0  0  0  0  0  0  0  0  0  0
   13.0439  -16.4693   23.9000 C   0  0  0  0  0  0  0  0  0  0  0  0
   13.3121  -15.2695   24.2025 O   0  0  0  0  0  0  0  0  0  0  0  0
   14.1204  -17.2605   23.5275 O   0  0  0  0  0  0  0  0  0  0  0  0
  2  1  1  0
  2  3  1  0
  3  5  1  0
  3  4  2  0
  5  6  1  0
  6  7  1  1
  6 14  1  0
  8  9  2  0
  8  7  1  0
 10  9  1  0
 11 10  2  0
 12 11  1  0
 12 13  2  0
 13  8  1  0
 14 20  1  0
 15 14  2  0
 17 16  1  6
 17 18  1  0
 19 21  1  0
 19 17  1  0
 19 20  1  1
 21 23  1  0
 22 21  2  0
M  END
$$$$
