GFT.pdb
     RDKit          3D

 23 23  0  0  1  0  0  0  0  0999 V2000
    6.3936  -14.8819   20.0758 N   0  0  0  0  0  0  0  0  0  0  0  0
    6.0386  -15.3868   21.3856 C   0  0  0  0  0  0  0  0  0  0  0  0
    7.1714  -15.1154   22.3083 C   0  0  0  0  0  0  0  0  0  0  0  0
    8.2005  -14.5010   21.8847 O   0  0  0  0  0  0  0  0  0  0  0  0
    7.1462  -15.5187   23.6499 N   0  0  0  0  0  0  0  0  0  0  0  0
    8.2839  -15.3064   24.5588 C   0  0  1  0  0  0  0  0  0  0  0  0
    7.6881  -15.1300   25.9229 C   0  0  0  0  0  0  0  0  0  0  0  0
    7.2459  -13.7615   26.2271 C   0  0  0  0  0  0  0  0  0  0  0  0
    8.2312  -12.7713   26.2784 C   0  0  0  0  0  0  0  0  0  0  0  0
    7.9215  -11.4564   26.5531 C   0  0  0  0  0  0  0  0  0  0  0  0
    6.6182  -11.1143   26.7806 C   0  0  0  0  0  0  0  0  0  0  0  0
    5.6470  -12.0870   26.7305 C   0  0  0  0  0  0  0  0  0  0  0  0
    5.9555  -13.4050   26.4554 C   0  0  0  0  0  0  0  0  0  0  0  0
    9.1939  -16.4610   24.4789 C   0  0  0  0  0  0  0  0  0  0  0  0
    8.8139  -17.5684   24.8892 O   0  0  0  0  0  0  0  0  0  0  0  0
   10.6573  -17.7810   21.4387 C   0  0  0  0  0  0  0  0  0  0  0  0
   11.8651  -17.6097   22.3574 C   0  0  1  0  0  0  0  0  0  0  0  0
   12.5490  -16.4885   21.8878 O   0  0  0  0  0  0  0  0  0  0  0  0
   11.4058  -17.4141   23.7868 C   0  0  2  0  0  0  0  0  0  0  0  0
   10.4969  -16.3265   23.9405 N   0  0  0  0  0  0  0  0  0  0  0  0
   12.5523  -17.3543   24.7268 C   0  0  0  0  0  0  0  0  0  0  0  0
   13.3384  -18.3316   24.9006 O   0  0  0  0  0  0  0  0  0  0  0  0
   12.8223  -16.2141   25.4688 O   0  0  0  0  0  0  0  0  0  0  0  0
  2  1  1  0
  2  3  1  0
  3  5  1  0
  3  4  2  0
  5  6  1  0
  6  7  1  1
  6 14  1  0
  8  9  2  0
  8  7  1  0
 10  9  1  0
 11 10  2  0
 12 11  1  0
 12 13  2  0
 13  8  1  0
 14 20  1  0
 15 14  2  0
 17 16  1  6
 17 18  1  0
 19 21  1  0
 19 17  1  0
 19 20  1  6
 21 23  1  0
 22 21  2  0
M  END
$$$$
