NVK.pdb
     RDKit          3D

 25 24  0  0  1  0  0  0  0  0999 V2000
    6.3987  -19.0329   20.4833 N   0  0  0  0  0  0  0  0  0  0  0  0
    6.6101  -19.4030   21.8164 C   0  0  0  0  0  0  0  0  0  0  0  0
    6.5998  -20.6564   22.0642 O   0  0  0  0  0  0  0  0  0  0  0  0
    6.8428  -18.5191   22.9513 C   0  0  0  0  0  0  0  0  0  0  0  0
    6.7022  -17.0522   22.7072 C   0  0  2  0  0  0  0  0  0  0  0  0
    7.0500  -16.7666   21.3392 N   0  0  0  0  0  0  0  0  0  0  0  0
    7.6153  -16.2602   23.5861 C   0  0  0  0  0  0  0  0  0  0  0  0
    8.8233  -16.5958   23.5875 O   0  0  0  0  0  0  0  0  0  0  0  0
    6.2011  -12.6484   25.8784 C   0  0  0  0  0  0  0  0  0  0  0  0
    7.4460  -12.9528   25.0946 C   0  0  2  0  0  0  0  0  0  0  0  0
    7.2748  -12.3004   23.7413 C   0  0  0  0  0  0  0  0  0  0  0  0
    7.9822  -14.3010   25.1315 C   0  0  2  0  0  0  0  0  0  0  0  0
    7.1166  -15.1795   24.3761 N   0  0  0  0  0  0  0  0  0  0  0  0
    8.3634  -14.9460   26.3843 C   0  0  0  0  0  0  0  0  0  0  0  0
    7.4977  -15.6555   26.9628 O   0  0  0  0  0  0  0  0  0  0  0  0
    9.6233  -14.8517   27.0171 N   0  0  0  0  0  0  0  0  0  0  0  0
    9.8241  -15.5807   28.2814 C   0  0  1  0  0  0  0  0  0  0  0  0
   10.9033  -16.5962   28.1184 C   0  0  0  0  0  0  0  0  0  0  0  0
   11.2075  -17.2963   29.4025 C   0  0  0  0  0  0  0  0  0  0  0  0
   12.3698  -18.2433   29.2060 C   0  0  0  0  0  0  0  0  0  0  0  0
   12.5708  -19.0754   30.4805 C   0  0  0  0  0  0  0  0  0  0  0  0
   13.5464  -20.1030   30.1916 N   0  0  0  0  0  0  0  0  0  0  0  0
   10.1163  -14.5517   29.3123 C   0  0  0  0  0  0  0  0  0  0  0  0
   10.1173  -14.9085   30.6365 O   0  0  0  0  0  0  0  0  0  0  0  0
   10.3623  -13.3504   28.9947 O   0  0  0  0  0  0  0  0  0  0  0  0
  1  2  1  0
  2  3  2  0
  2  4  1  0
  4  5  1  0
  5  7  1  0
  5  6  1  6
  7  8  2  0
 10 12  1  0
 10  9  1  6
 10 11  1  0
 13  7  1  0
 12 13  1  1
 14 12  1  0
 14 15  2  0
 16 14  1  0
 17 23  1  0
 17 16  1  0
 17 18  1  6
 19 18  1  0
 20 19  1  0
 21 20  1  0
 21 22  1  0
 23 24  1  0
 25 23  2  0
M  END
$$$$
