NVK.pdb
     RDKit          3D

 25 24  0  0  1  0  0  0  0  0999 V2000
   13.5609  -18.3254   17.3120 N   0  0  0  0  0  0  0  0  0  0  0  0
   12.2795  -17.7716   17.2111 C   0  0  0  0  0  0  0  0  0  0  0  0
   11.5845  -18.1332   16.2020 O   0  0  0  0  0  0  0  0  0  0  0  0
   11.6498  -16.8315   18.1295 C   0  0  0  0  0  0  0  0  0  0  0  0
   10.4905  -17.3355   18.9252 C   0  0  2  0  0  0  0  0  0  0  0  0
    9.3110  -17.3232   18.0990 N   0  0  0  0  0  0  0  0  0  0  0  0
   10.2248  -16.4707   20.1148 C   0  0  0  0  0  0  0  0  0  0  0  0
   11.1551  -16.3617   20.9481 O   0  0  0  0  0  0  0  0  0  0  0  0
    6.2829  -14.3081   20.8311 C   0  0  0  0  0  0  0  0  0  0  0  0
    7.7279  -13.9419   21.0178 C   0  0  2  0  0  0  0  0  0  0  0  0
    8.1059  -13.0638   19.8464 C   0  0  0  0  0  0  0  0  0  0  0  0
    8.6645  -14.9765   21.4164 C   0  0  2  0  0  0  0  0  0  0  0  0
    8.9680  -15.8108   20.2746 N   0  0  0  0  0  0  0  0  0  0  0  0
    8.4357  -15.8145   22.5895 C   0  0  0  0  0  0  0  0  0  0  0  0
    7.8009  -16.8902   22.4239 O   0  0  0  0  0  0  0  0  0  0  0  0
    8.8632  -15.5338   23.9067 N   0  0  0  0  0  0  0  0  0  0  0  0
    8.5220  -16.4951   24.9696 C   0  0  1  0  0  0  0  0  0  0  0  0
    9.5972  -16.5161   26.0022 C   0  0  0  0  0  0  0  0  0  0  0  0
    9.3031  -17.4944   27.0922 C   0  0  0  0  0  0  0  0  0  0  0  0
   10.4645  -17.5475   28.0590 C   0  0  0  0  0  0  0  0  0  0  0  0
   10.1529  -18.5540   29.1756 C   0  0  0  0  0  0  0  0  0  0  0  0
   11.2967  -18.6067   30.0589 N   0  0  0  0  0  0  0  0  0  0  0  0
    7.1937  -16.0828   25.4918 C   0  0  0  0  0  0  0  0  0  0  0  0
    6.3756  -17.0229   26.0645 O   0  0  0  0  0  0  0  0  0  0  0  0
    6.7989  -14.8816   25.4171 O   0  0  0  0  0  0  0  0  0  0  0  0
  1  2  1  0
  2  3  2  0
  2  4  1  0
  4  5  1  0
  5  7  1  0
  5  6  1  6
  7  8  2  0
 10 12  1  0
 10  9  1  6
 10 11  1  0
 13  7  1  0
 12 13  1  6
 14 12  1  0
 14 15  2  0
 16 14  1  0
 17 23  1  0
 17 16  1  0
 17 18  1  1
 19 18  1  0
 20 19  1  0
 21 20  1  0
 21 22  1  0
 23 24  1  0
 25 23  2  0
M  END
$$$$
