NVK.pdb
     RDKit          3D

 25 24  0  0  1  0  0  0  0  0999 V2000
    5.9263  -17.7398   20.3223 N   0  0  0  0  0  0  0  0  0  0  0  0
    7.2976  -17.4977   20.4622 C   0  0  0  0  0  0  0  0  0  0  0  0
    8.0336  -17.8208   19.4690 O   0  0  0  0  0  0  0  0  0  0  0  0
    7.9782  -16.9165   21.6122 C   0  0  0  0  0  0  0  0  0  0  0  0
    7.9495  -15.4281   21.7351 C   0  0  2  0  0  0  0  0  0  0  0  0
    8.7572  -14.8533   20.6905 N   0  0  0  0  0  0  0  0  0  0  0  0
    8.5070  -14.9754   23.0458 C   0  0  0  0  0  0  0  0  0  0  0  0
    9.7344  -15.1565   23.2259 O   0  0  0  0  0  0  0  0  0  0  0  0
    7.6364  -12.2562   27.1511 C   0  0  0  0  0  0  0  0  0  0  0  0
    7.2688  -12.9280   25.8587 C   0  0  2  0  0  0  0  0  0  0  0  0
    5.7975  -13.2644   25.9498 C   0  0  0  0  0  0  0  0  0  0  0  0
    8.1604  -13.9377   25.3183 C   0  0  2  0  0  0  0  0  0  0  0  0
    7.6667  -14.3694   24.0292 N   0  0  0  0  0  0  0  0  0  0  0  0
    8.5745  -15.0993   26.0991 C   0  0  0  0  0  0  0  0  0  0  0  0
    7.8325  -16.1172   26.0702 O   0  0  0  0  0  0  0  0  0  0  0  0
    9.7404  -15.1943   26.8918 N   0  0  0  0  0  0  0  0  0  0  0  0
   10.0554  -16.4915   27.5149 C   0  0  1  0  0  0  0  0  0  0  0  0
   11.2508  -17.0950   26.8595 C   0  0  0  0  0  0  0  0  0  0  0  0
   11.6512  -18.3803   27.5070 C   0  0  0  0  0  0  0  0  0  0  0  0
   12.9228  -18.8979   26.8735 C   0  0  0  0  0  0  0  0  0  0  0  0
   13.2847  -20.2557   27.4919 C   0  0  0  0  0  0  0  0  0  0  0  0
   14.5350  -20.6905   26.9099 N   0  0  0  0  0  0  0  0  0  0  0  0
   10.2351  -16.2230   28.9650 C   0  0  0  0  0  0  0  0  0  0  0  0
   10.1203  -14.9378   29.4297 O   0  0  0  0  0  0  0  0  0  0  0  0
   10.4948  -17.1557   29.7818 O   0  0  0  0  0  0  0  0  0  0  0  0
  1  2  1  0
  2  3  2  0
  2  4  1  0
  4  5  1  0
  5  7  1  0
  5  6  1  6
  7  8  2  0
 10 12  1  0
 10  9  1  1
 10 11  1  0
 13  7  1  0
 12 13  1  6
 14 12  1  0
 14 15  2  0
 16 14  1  0
 17 23  1  0
 17 16  1  0
 17 18  1  6
 19 18  1  0
 20 19  1  0
 21 20  1  0
 21 22  1  0
 23 24  1  0
 25 23  2  0
M  END
$$$$
