NVK.pdb
     RDKit          3D

 25 24  0  0  1  0  0  0  0  0999 V2000
    7.1246  -16.3869   19.3935 N   0  0  0  0  0  0  0  0  0  0  0  0
    6.9617  -16.9829   20.6494 C   0  0  0  0  0  0  0  0  0  0  0  0
    6.6005  -18.2084   20.6517 O   0  0  0  0  0  0  0  0  0  0  0  0
    7.1605  -16.3625   21.9528 C   0  0  0  0  0  0  0  0  0  0  0  0
    7.3223  -14.8778   21.9787 C   0  0  2  0  0  0  0  0  0  0  0  0
    8.1098  -14.4697   20.8441 N   0  0  0  0  0  0  0  0  0  0  0  0
    8.0312  -14.4251   23.2141 C   0  0  0  0  0  0  0  0  0  0  0  0
    9.2837  -14.4754   23.1925 O   0  0  0  0  0  0  0  0  0  0  0  0
    5.8141  -12.7544   26.7308 C   0  0  0  0  0  0  0  0  0  0  0  0
    7.1447  -12.4093   26.1247 C   0  0  2  0  0  0  0  0  0  0  0  0
    6.9322  -11.1612   25.2980 C   0  0  0  0  0  0  0  0  0  0  0  0
    7.9463  -13.4731   25.5481 C   0  0  2  0  0  0  0  0  0  0  0  0
    7.2997  -13.9619   24.3503 N   0  0  0  0  0  0  0  0  0  0  0  0
    8.4205  -14.6005   26.3448 C   0  0  0  0  0  0  0  0  0  0  0  0
    7.7059  -15.6379   26.3721 O   0  0  0  0  0  0  0  0  0  0  0  0
    9.6171  -14.6421   27.0952 N   0  0  0  0  0  0  0  0  0  0  0  0
    9.9885  -15.9113   27.7444 C   0  0  1  0  0  0  0  0  0  0  0  0
   10.9791  -16.6429   26.9043 C   0  0  0  0  0  0  0  0  0  0  0  0
   11.3597  -17.9552   27.5080 C   0  0  0  0  0  0  0  0  0  0  0  0
   12.3689  -18.6519   26.6233 C   0  0  0  0  0  0  0  0  0  0  0  0
   12.7595  -19.9955   27.2552 C   0  0  0  0  0  0  0  0  0  0  0  0
   13.6583  -20.6704   26.3454 N   0  0  0  0  0  0  0  0  0  0  0  0
   10.4919  -15.5548   29.0959 C   0  0  0  0  0  0  0  0  0  0  0  0
   10.8246  -16.5541   29.9743 O   0  0  0  0  0  0  0  0  0  0  0  0
   10.6181  -14.3469   29.4559 O   0  0  0  0  0  0  0  0  0  0  0  0
  1  2  1  0
  2  3  2  0
  2  4  1  0
  4  5  1  0
  5  7  1  0
  5  6  1  6
  7  8  2  0
 10 12  1  0
 10  9  1  6
 10 11  1  0
 13  7  1  0
 12 13  1  6
 14 12  1  0
 14 15  2  0
 16 14  1  0
 17 23  1  0
 17 16  1  0
 17 18  1  6
 19 18  1  0
 20 19  1  0
 21 20  1  0
 21 22  1  0
 23 24  1  0
 25 23  2  0
M  END
$$$$
