NVK.pdb
     RDKit          3D

 25 24  0  0  1  0  0  0  0  0999 V2000
    5.1840  -19.1701   17.0478 N   0  0  0  0  0  0  0  0  0  0  0  0
    6.5445  -18.9838   16.7773 C   0  0  0  0  0  0  0  0  0  0  0  0
    6.9498  -19.3632   15.6266 O   0  0  0  0  0  0  0  0  0  0  0  0
    7.5482  -18.4036   17.6601 C   0  0  0  0  0  0  0  0  0  0  0  0
    8.0585  -17.0454   17.3053 C   0  0  2  0  0  0  0  0  0  0  0  0
    8.9847  -17.1616   16.2085 N   0  0  0  0  0  0  0  0  0  0  0  0
    8.7828  -16.4153   18.4507 C   0  0  0  0  0  0  0  0  0  0  0  0
    9.9986  -16.6976   18.5691 O   0  0  0  0  0  0  0  0  0  0  0  0
    6.7757  -13.7179   21.5005 C   0  0  0  0  0  0  0  0  0  0  0  0
    8.0715  -13.6304   20.7453 C   0  0  2  0  0  0  0  0  0  0  0  0
    7.8521  -12.6398   19.6242 C   0  0  0  0  0  0  0  0  0  0  0  0
    8.7823  -14.8568   20.4337 C   0  0  2  0  0  0  0  0  0  0  0  0
    8.1055  -15.5389   19.3527 N   0  0  0  0  0  0  0  0  0  0  0  0
    9.1503  -15.8196   21.4673 C   0  0  0  0  0  0  0  0  0  0  0  0
    8.3155  -16.7198   21.7507 O   0  0  0  0  0  0  0  0  0  0  0  0
   10.3658  -15.8407   22.1877 N   0  0  0  0  0  0  0  0  0  0  0  0
   10.5961  -16.9468   23.1331 C   0  0  1  0  0  0  0  0  0  0  0  0
   11.7413  -17.7820   22.6712 C   0  0  0  0  0  0  0  0  0  0  0  0
   12.1081  -18.8271   23.6737 C   0  0  0  0  0  0  0  0  0  0  0  0
   13.2437  -19.6713   23.1405 C   0  0  0  0  0  0  0  0  0  0  0  0
   13.5597  -20.7917   24.1413 C   0  0  0  0  0  0  0  0  0  0  0  0
   14.7083  -21.5184   23.6475 N   0  0  0  0  0  0  0  0  0  0  0  0
   10.8064  -16.3193   24.4632 C   0  0  0  0  0  0  0  0  0  0  0  0
   10.7531  -17.0992   25.5900 O   0  0  0  0  0  0  0  0  0  0  0  0
   11.0314  -15.0782   24.5794 O   0  0  0  0  0  0  0  0  0  0  0  0
  1  2  1  0
  2  3  2  0
  2  4  1  0
  4  5  1  0
  5  7  1  0
  5  6  1  6
  7  8  2  0
 10 12  1  0
 10  9  1  6
 10 11  1  0
 13  7  1  0
 12 13  1  6
 14 12  1  0
 14 15  2  0
 16 14  1  0
 17 23  1  0
 17 16  1  0
 17 18  1  6
 19 18  1  0
 20 19  1  0
 21 20  1  0
 21 22  1  0
 23 24  1  0
 25 23  2  0
M  END
$$$$
