NVK.pdb
     RDKit          3D

 25 24  0  0  1  0  0  0  0  0999 V2000
    8.3353  -11.8815   19.2814 N   0  0  0  0  0  0  0  0  0  0  0  0
    9.1166  -13.0177   19.0422 C   0  0  0  0  0  0  0  0  0  0  0  0
   10.1665  -13.1439   19.7592 O   0  0  0  0  0  0  0  0  0  0  0  0
    8.8647  -14.0729   18.0691 C   0  0  0  0  0  0  0  0  0  0  0  0
    9.1615  -15.4731   18.4963 C   0  0  2  0  0  0  0  0  0  0  0  0
    8.9299  -16.3630   17.3879 N   0  0  0  0  0  0  0  0  0  0  0  0
    8.2754  -15.9027   19.6205 C   0  0  0  0  0  0  0  0  0  0  0  0
    7.1146  -16.2633   19.3136 O   0  0  0  0  0  0  0  0  0  0  0  0
    8.6442  -18.8712   21.6329 C   0  0  0  0  0  0  0  0  0  0  0  0
    7.5867  -17.8084   21.7286 C   0  0  2  0  0  0  0  0  0  0  0  0
    6.6745  -17.9981   20.5377 C   0  0  0  0  0  0  0  0  0  0  0  0
    7.9862  -16.4541   22.0646 C   0  0  2  0  0  0  0  0  0  0  0  0
    8.7472  -15.8955   20.9689 N   0  0  0  0  0  0  0  0  0  0  0  0
    8.6401  -16.1337   23.3297 C   0  0  0  0  0  0  0  0  0  0  0  0
    9.8965  -16.0394   23.3302 O   0  0  0  0  0  0  0  0  0  0  0  0
    7.9932  -15.9153   24.5669 N   0  0  0  0  0  0  0  0  0  0  0  0
    8.7842  -15.3577   25.6776 C   0  0  1  0  0  0  0  0  0  0  0  0
    7.8970  -14.5979   26.6041 C   0  0  0  0  0  0  0  0  0  0  0  0
    7.4741  -13.2890   26.0214 C   0  0  0  0  0  0  0  0  0  0  0  0
    6.4896  -12.6110   26.9474 C   0  0  0  0  0  0  0  0  0  0  0  0
    6.1312  -11.2277   26.3864 C   0  0  0  0  0  0  0  0  0  0  0  0
    5.1875  -10.6111   27.2921 N   0  0  0  0  0  0  0  0  0  0  0  0
    9.4751  -16.5086   26.3142 C   0  0  0  0  0  0  0  0  0  0  0  0
   10.5736  -16.2802   27.1029 O   0  0  0  0  0  0  0  0  0  0  0  0
    9.0730  -17.6973   26.1421 O   0  0  0  0  0  0  0  0  0  0  0  0
  1  2  1  0
  2  3  2  0
  2  4  1  0
  4  5  1  0
  5  7  1  0
  5  6  1  6
  7  8  2  0
 10 12  1  0
 10  9  1  6
 10 11  1  0
 13  7  1  0
 12 13  1  6
 14 12  1  0
 14 15  2  0
 16 14  1  0
 17 23  1  0
 17 16  1  0
 17 18  1  1
 19 18  1  0
 20 19  1  0
 21 20  1  0
 21 22  1  0
 23 24  1  0
 25 23  2  0
M  END
$$$$
