NVK.pdb
     RDKit          3D

 25 24  0  0  1  0  0  0  0  0999 V2000
    6.5472  -19.8038   16.3138 N   0  0  0  0  0  0  0  0  0  0  0  0
    7.4905  -20.0110   17.3267 C   0  0  0  0  0  0  0  0  0  0  0  0
    7.6607  -21.2201   17.7028 O   0  0  0  0  0  0  0  0  0  0  0  0
    8.3009  -19.0026   17.9974 C   0  0  0  0  0  0  0  0  0  0  0  0
    8.0972  -17.5828   17.5805 C   0  0  2  0  0  0  0  0  0  0  0  0
    8.7191  -17.3743   16.2984 N   0  0  0  0  0  0  0  0  0  0  0  0
    8.7197  -16.6318   18.5509 C   0  0  0  0  0  0  0  0  0  0  0  0
    9.9599  -16.4717   18.4624 O   0  0  0  0  0  0  0  0  0  0  0  0
    7.0261  -13.1034   19.7230 C   0  0  0  0  0  0  0  0  0  0  0  0
    7.5068  -14.0168   20.8145 C   0  0  2  0  0  0  0  0  0  0  0  0
    7.7697  -13.1459   22.0223 C   0  0  0  0  0  0  0  0  0  0  0  0
    8.4877  -15.0363   20.4904 C   0  0  2  0  0  0  0  0  0  0  0  0
    7.9237  -15.9501   19.5216 N   0  0  0  0  0  0  0  0  0  0  0  0
    9.1886  -15.7899   21.5256 C   0  0  0  0  0  0  0  0  0  0  0  0
    8.6610  -16.8617   21.9260 O   0  0  0  0  0  0  0  0  0  0  0  0
   10.4155  -15.4305   22.1276 N   0  0  0  0  0  0  0  0  0  0  0  0
   11.0820  -16.4180   22.9940 C   0  0  1  0  0  0  0  0  0  0  0  0
   12.5590  -16.3482   22.8040 C   0  0  0  0  0  0  0  0  0  0  0  0
   13.2811  -17.3017   23.6991 C   0  0  0  0  0  0  0  0  0  0  0  0
   14.7740  -17.1307   23.5307 C   0  0  0  0  0  0  0  0  0  0  0  0
   15.5072  -18.1146   24.4534 C   0  0  0  0  0  0  0  0  0  0  0  0
   16.9217  -18.0234   24.1667 N   0  0  0  0  0  0  0  0  0  0  0  0
   10.6385  -16.1206   24.3804 C   0  0  0  0  0  0  0  0  0  0  0  0
   10.0563  -14.9094   24.6543 O   0  0  0  0  0  0  0  0  0  0  0  0
   10.7889  -16.9609   25.3161 O   0  0  0  0  0  0  0  0  0  0  0  0
  1  2  1  0
  2  3  2  0
  2  4  1  0
  4  5  1  0
  5  7  1  0
  5  6  1  6
  7  8  2  0
 10 12  1  0
 10  9  1  6
 10 11  1  0
 13  7  1  0
 12 13  1  6
 14 12  1  0
 14 15  2  0
 16 14  1  0
 17 23  1  0
 17 16  1  0
 17 18  1  1
 19 18  1  0
 20 19  1  0
 21 20  1  0
 21 22  1  0
 23 24  1  0
 25 23  2  0
M  END
$$$$
