NVK.pdb
     RDKit          3D

 25 24  0  0  1  0  0  0  0  0999 V2000
    6.9621  -18.6349   20.2057 N   0  0  0  0  0  0  0  0  0  0  0  0
    6.4934  -17.8113   21.2357 C   0  0  0  0  0  0  0  0  0  0  0  0
    5.2246  -17.7190   21.3537 O   0  0  0  0  0  0  0  0  0  0  0  0
    7.2908  -17.0503   22.1889 C   0  0  0  0  0  0  0  0  0  0  0  0
    7.1329  -15.5651   22.1707 C   0  0  2  0  0  0  0  0  0  0  0  0
    7.5803  -15.0591   20.8987 N   0  0  0  0  0  0  0  0  0  0  0  0
    7.9535  -14.9134   23.2364 C   0  0  0  0  0  0  0  0  0  0  0  0
    9.1934  -14.8879   23.0527 O   0  0  0  0  0  0  0  0  0  0  0  0
    6.0949  -12.6950   26.6394 C   0  0  0  0  0  0  0  0  0  0  0  0
    7.3984  -12.5394   25.9088 C   0  0  2  0  0  0  0  0  0  0  0  0
    7.2032  -11.4207   24.9104 C   0  0  0  0  0  0  0  0  0  0  0  0
    8.0939  -13.7316   25.4601 C   0  0  2  0  0  0  0  0  0  0  0  0
    7.3363  -14.3542   24.3969 N   0  0  0  0  0  0  0  0  0  0  0  0
    8.5579  -14.7524   26.3947 C   0  0  0  0  0  0  0  0  0  0  0  0
    7.7338  -15.6368   26.7498 O   0  0  0  0  0  0  0  0  0  0  0  0
    9.8562  -14.8464   26.9445 N   0  0  0  0  0  0  0  0  0  0  0  0
   10.1742  -16.0143   27.7842 C   0  0  1  0  0  0  0  0  0  0  0  0
   11.3551  -16.7351   27.2287 C   0  0  0  0  0  0  0  0  0  0  0  0
   11.7845  -17.8623   28.1100 C   0  0  0  0  0  0  0  0  0  0  0  0
   12.9710  -18.5693   27.4947 C   0  0  0  0  0  0  0  0  0  0  0  0
   13.3447  -19.7833   28.3570 C   0  0  0  0  0  0  0  0  0  0  0  0
   14.5049  -20.4103   27.7637 N   0  0  0  0  0  0  0  0  0  0  0  0
   10.3794  -15.4931   29.1601 C   0  0  0  0  0  0  0  0  0  0  0  0
   10.5558  -16.3769   30.1940 O   0  0  0  0  0  0  0  0  0  0  0  0
   10.3925  -14.2495   29.3998 O   0  0  0  0  0  0  0  0  0  0  0  0
  1  2  1  0
  2  3  2  0
  2  4  1  0
  4  5  1  0
  5  7  1  0
  5  6  1  6
  7  8  2  0
 10 12  1  0
 10  9  1  6
 10 11  1  0
 13  7  1  0
 12 13  1  6
 14 12  1  0
 14 15  2  0
 16 14  1  0
 17 23  1  0
 17 16  1  0
 17 18  1  6
 19 18  1  0
 20 19  1  0
 21 20  1  0
 21 22  1  0
 23 24  1  0
 25 23  2  0
M  END
$$$$
