NVK.pdb
     RDKit          3D

 25 24  0  0  1  0  0  0  0  0999 V2000
    8.8834  -20.2266   17.6540 N   0  0  0  0  0  0  0  0  0  0  0  0
    8.4946  -19.9675   18.9733 C   0  0  0  0  0  0  0  0  0  0  0  0
    8.0070  -20.9533   19.6235 O   0  0  0  0  0  0  0  0  0  0  0  0
    8.5864  -18.7007   19.6876 C   0  0  0  0  0  0  0  0  0  0  0  0
    9.0349  -17.5116   18.9028 C   0  0  2  0  0  0  0  0  0  0  0  0
   10.1982  -17.8672   18.1319 N   0  0  0  0  0  0  0  0  0  0  0  0
    9.4090  -16.3740   19.7969 C   0  0  0  0  0  0  0  0  0  0  0  0
   10.6075  -16.3168   20.1604 O   0  0  0  0  0  0  0  0  0  0  0  0
    6.4171  -13.3037   21.1795 C   0  0  0  0  0  0  0  0  0  0  0  0
    7.8539  -13.1888   20.7560 C   0  0  2  0  0  0  0  0  0  0  0  0
    7.8464  -12.6428   19.3460 C   0  0  0  0  0  0  0  0  0  0  0  0
    8.7587  -14.2847   21.0512 C   0  0  2  0  0  0  0  0  0  0  0  0
    8.4351  -15.4117   20.2045 N   0  0  0  0  0  0  0  0  0  0  0  0
    8.9914  -14.7471   22.4160 C   0  0  0  0  0  0  0  0  0  0  0  0
    9.4670  -13.9207   23.2395 O   0  0  0  0  0  0  0  0  0  0  0  0
    8.7307  -16.0457   22.9086 N   0  0  0  0  0  0  0  0  0  0  0  0
    8.8996  -16.2902   24.3515 C   0  0  1  0  0  0  0  0  0  0  0  0
    8.1553  -17.5187   24.7508 C   0  0  0  0  0  0  0  0  0  0  0  0
    8.4040  -17.8809   26.1786 C   0  0  0  0  0  0  0  0  0  0  0  0
    7.8092  -19.2396   26.4728 C   0  0  0  0  0  0  0  0  0  0  0  0
    8.1055  -19.6212   27.9300 C   0  0  0  0  0  0  0  0  0  0  0  0
    7.3283  -20.7984   28.2484 N   0  0  0  0  0  0  0  0  0  0  0  0
   10.3637  -16.3687   24.5909 C   0  0  0  0  0  0  0  0  0  0  0  0
   10.8770  -15.9023   25.7741 O   0  0  0  0  0  0  0  0  0  0  0  0
   11.1491  -16.8551   23.7244 O   0  0  0  0  0  0  0  0  0  0  0  0
  1  2  1  0
  2  3  2  0
  2  4  1  0
  4  5  1  0
  5  7  1  0
  5  6  1  1
  7  8  2  0
 10 12  1  0
 10  9  1  6
 10 11  1  0
 13  7  1  0
 12 13  1  6
 14 12  1  0
 14 15  2  0
 16 14  1  0
 17 23  1  0
 17 16  1  0
 17 18  1  6
 19 18  1  0
 20 19  1  0
 21 20  1  0
 21 22  1  0
 23 24  1  0
 25 23  2  0
M  END
$$$$
