NVK.pdb
     RDKit          3D

 25 24  0  0  1  0  0  0  0  0999 V2000
    9.5593  -17.1431   18.4783 N   0  0  0  0  0  0  0  0  0  0  0  0
    9.0883  -17.4739   19.7540 C   0  0  0  0  0  0  0  0  0  0  0  0
    8.3108  -18.4852   19.8257 O   0  0  0  0  0  0  0  0  0  0  0  0
    9.3878  -16.7955   21.0084 C   0  0  0  0  0  0  0  0  0  0  0  0
    8.2245  -16.3790   21.8478 C   0  0  2  0  0  0  0  0  0  0  0  0
    7.2942  -15.6425   21.0316 N   0  0  0  0  0  0  0  0  0  0  0  0
    8.6496  -15.4906   22.9718 C   0  0  0  0  0  0  0  0  0  0  0  0
    9.8785  -15.2645   23.0742 O   0  0  0  0  0  0  0  0  0  0  0  0
    6.8743  -12.0763   23.9708 C   0  0  0  0  0  0  0  0  0  0  0  0
    7.0770  -13.0250   25.1179 C   0  0  2  0  0  0  0  0  0  0  0  0
    7.1216  -12.1825   26.3727 C   0  0  0  0  0  0  0  0  0  0  0  0
    8.0579  -14.0861   24.9814 C   0  0  2  0  0  0  0  0  0  0  0  0
    7.6884  -14.9375   23.8722 N   0  0  0  0  0  0  0  0  0  0  0  0
    8.4683  -14.9082   26.1155 C   0  0  0  0  0  0  0  0  0  0  0  0
    7.7001  -15.8428   26.4677 O   0  0  0  0  0  0  0  0  0  0  0  0
    9.6573  -14.7567   26.8639 N   0  0  0  0  0  0  0  0  0  0  0  0
    9.9258  -15.7181   27.9473 C   0  0  1  0  0  0  0  0  0  0  0  0
   11.0635  -16.6052   27.5714 C   0  0  0  0  0  0  0  0  0  0  0  0
   11.4015  -17.5692   28.6613 C   0  0  0  0  0  0  0  0  0  0  0  0
   12.5934  -18.4054   28.2533 C   0  0  0  0  0  0  0  0  0  0  0  0
   12.8527  -19.4786   29.3201 C   0  0  0  0  0  0  0  0  0  0  0  0
   13.9370  -20.3150   28.8553 N   0  0  0  0  0  0  0  0  0  0  0  0
   10.1713  -14.9092   29.1690 C   0  0  0  0  0  0  0  0  0  0  0  0
   10.3243  -15.5435   30.3753 O   0  0  0  0  0  0  0  0  0  0  0  0
   10.2398  -13.6453   29.1211 O   0  0  0  0  0  0  0  0  0  0  0  0
  1  2  1  0
  2  3  2  0
  2  4  1  0
  4  5  1  0
  5  7  1  0
  5  6  1  6
  7  8  2  0
 10 12  1  0
 10  9  1  6
 10 11  1  0
 13  7  1  0
 12 13  1  6
 14 12  1  0
 14 15  2  0
 16 14  1  0
 17 23  1  0
 17 16  1  0
 17 18  1  6
 19 18  1  0
 20 19  1  0
 21 20  1  0
 21 22  1  0
 23 24  1  0
 25 23  2  0
M  END
$$$$
