NVK.pdb
     RDKit          3D

 25 24  0  0  1  0  0  0  0  0999 V2000
    9.2513  -16.6562   18.4411 N   0  0  0  0  0  0  0  0  0  0  0  0
    8.5259  -16.5010   19.6279 C   0  0  0  0  0  0  0  0  0  0  0  0
    7.3704  -17.0451   19.6602 O   0  0  0  0  0  0  0  0  0  0  0  0
    8.9426  -15.7910   20.8303 C   0  0  0  0  0  0  0  0  0  0  0  0
    8.0408  -15.8821   22.0175 C   0  0  2  0  0  0  0  0  0  0  0  0
    6.7403  -15.3762   21.6614 N   0  0  0  0  0  0  0  0  0  0  0  0
    8.5529  -15.0644   23.1589 C   0  0  0  0  0  0  0  0  0  0  0  0
    9.7938  -14.8950   23.2155 O   0  0  0  0  0  0  0  0  0  0  0  0
    5.8228  -13.0115   26.0512 C   0  0  0  0  0  0  0  0  0  0  0  0
    7.2212  -12.7119   25.5913 C   0  0  2  0  0  0  0  0  0  0  0  0
    7.1101  -11.6152   24.5564 C   0  0  0  0  0  0  0  0  0  0  0  0
    8.1156  -13.8195   25.3084 C   0  0  2  0  0  0  0  0  0  0  0  0
    7.6567  -14.5129   24.1250 N   0  0  0  0  0  0  0  0  0  0  0  0
    8.4894  -14.7905   26.3321 C   0  0  0  0  0  0  0  0  0  0  0  0
    7.7114  -15.7622   26.5272 O   0  0  0  0  0  0  0  0  0  0  0  0
    9.6526  -14.7466   27.1332 N   0  0  0  0  0  0  0  0  0  0  0  0
    9.9138  -15.8741   28.0446 C   0  0  1  0  0  0  0  0  0  0  0  0
   10.9900  -16.7418   27.4866 C   0  0  0  0  0  0  0  0  0  0  0  0
   11.3059  -17.8881   28.3910 C   0  0  0  0  0  0  0  0  0  0  0  0
   12.4087  -18.7278   27.7866 C   0  0  0  0  0  0  0  0  0  0  0  0
   12.7083  -19.9171   28.7100 C   0  0  0  0  0  0  0  0  0  0  0  0
   13.6763  -20.7624   28.0467 N   0  0  0  0  0  0  0  0  0  0  0  0
   10.2466  -15.2744   29.3625 C   0  0  0  0  0  0  0  0  0  0  0  0
   10.2439  -13.9098   29.4997 O   0  0  0  0  0  0  0  0  0  0  0  0
   10.5356  -15.9965   30.3622 O   0  0  0  0  0  0  0  0  0  0  0  0
  1  2  1  0
  2  3  2  0
  2  4  1  0
  4  5  1  0
  5  7  1  0
  5  6  1  6
  7  8  2  0
 10 12  1  0
 10  9  1  6
 10 11  1  0
 13  7  1  0
 12 13  1  6
 14 12  1  0
 14 15  2  0
 16 14  1  0
 17 23  1  0
 17 16  1  0
 17 18  1  6
 19 18  1  0
 20 19  1  0
 21 20  1  0
 21 22  1  0
 23 24  1  0
 25 23  2  0
M  END
$$$$
