NVK.pdb
     RDKit          3D

 25 24  0  0  1  0  0  0  0  0999 V2000
   10.1899  -19.9937   17.7448 N   0  0  0  0  0  0  0  0  0  0  0  0
   10.9013  -19.7200   18.9186 C   0  0  0  0  0  0  0  0  0  0  0  0
   11.8170  -20.5537   19.2329 O   0  0  0  0  0  0  0  0  0  0  0  0
   10.7156  -18.5899   19.8196 C   0  0  0  0  0  0  0  0  0  0  0  0
   10.4758  -17.2557   19.1922 C   0  0  2  0  0  0  0  0  0  0  0  0
   11.6377  -16.8779   18.4298 N   0  0  0  0  0  0  0  0  0  0  0  0
   10.2419  -16.1992   20.2231 C   0  0  0  0  0  0  0  0  0  0  0  0
   11.2585  -15.7338   20.7902 O   0  0  0  0  0  0  0  0  0  0  0  0
    6.1488  -14.4877   21.1534 C   0  0  0  0  0  0  0  0  0  0  0  0
    7.5413  -13.9257   21.1082 C   0  0  2  0  0  0  0  0  0  0  0  0
    7.6774  -13.2149   19.7807 C   0  0  0  0  0  0  0  0  0  0  0  0
    8.6457  -14.7607   21.5438 C   0  0  2  0  0  0  0  0  0  0  0  0
    8.9191  -15.7565   20.5312 N   0  0  0  0  0  0  0  0  0  0  0  0
    8.6684  -15.3839   22.8635 C   0  0  0  0  0  0  0  0  0  0  0  0
    8.4938  -16.6303   22.9239 O   0  0  0  0  0  0  0  0  0  0  0  0
    8.8707  -14.7177   24.0932 N   0  0  0  0  0  0  0  0  0  0  0  0
    8.9795  -15.5311   25.3166 C   0  0  1  0  0  0  0  0  0  0  0  0
    9.6170  -14.7344   26.4034 C   0  0  0  0  0  0  0  0  0  0  0  0
    9.7380  -15.5173   27.6700 C   0  0  0  0  0  0  0  0  0  0  0  0
   10.3199  -14.6433   28.7580 C   0  0  0  0  0  0  0  0  0  0  0  0
   10.3754  -15.4345   30.0726 C   0  0  0  0  0  0  0  0  0  0  0  0
   11.0312  -14.6082   31.0617 N   0  0  0  0  0  0  0  0  0  0  0  0
    7.6025  -15.9895   25.6343 C   0  0  0  0  0  0  0  0  0  0  0  0
    7.4236  -17.1986   26.2564 O   0  0  0  0  0  0  0  0  0  0  0  0
    6.5892  -15.2885   25.3407 O   0  0  0  0  0  0  0  0  0  0  0  0
  1  2  1  0
  2  3  2  0
  2  4  1  0
  4  5  1  0
  5  7  1  0
  5  6  1  1
  7  8  2  0
 10 12  1  0
 10  9  1  6
 10 11  1  0
 13  7  1  0
 12 13  1  6
 14 12  1  0
 14 15  2  0
 16 14  1  0
 17 23  1  0
 17 16  1  0
 17 18  1  1
 19 18  1  0
 20 19  1  0
 21 20  1  0
 21 22  1  0
 23 24  1  0
 25 23  2  0
M  END
$$$$
