NVK.pdb
     RDKit          3D

 25 24  0  0  1  0  0  0  0  0999 V2000
   12.0137  -16.8505   14.5170 N   0  0  0  0  0  0  0  0  0  0  0  0
   12.0444  -17.3495   15.8243 C   0  0  0  0  0  0  0  0  0  0  0  0
   12.3439  -18.5850   15.9516 O   0  0  0  0  0  0  0  0  0  0  0  0
   11.7756  -16.6168   17.0549 C   0  0  0  0  0  0  0  0  0  0  0  0
   10.6556  -17.1147   17.9087 C   0  0  2  0  0  0  0  0  0  0  0  0
    9.4458  -17.1457   17.1281 N   0  0  0  0  0  0  0  0  0  0  0  0
   10.4203  -16.2187   19.0815 C   0  0  0  0  0  0  0  0  0  0  0  0
   11.3918  -16.0378   19.8531 O   0  0  0  0  0  0  0  0  0  0  0  0
    8.1236  -12.7825   19.0832 C   0  0  0  0  0  0  0  0  0  0  0  0
    7.8218  -13.8327   20.1142 C   0  0  2  0  0  0  0  0  0  0  0  0
    7.1132  -13.1312   21.2509 C   0  0  0  0  0  0  0  0  0  0  0  0
    8.8537  -14.7954   20.4531 C   0  0  2  0  0  0  0  0  0  0  0  0
    9.1459  -15.6094   19.2939 N   0  0  0  0  0  0  0  0  0  0  0  0
    8.7589  -15.6439   21.6371 C   0  0  0  0  0  0  0  0  0  0  0  0
    8.1517  -16.7418   21.5217 O   0  0  0  0  0  0  0  0  0  0  0  0
    9.2893  -15.3505   22.9136 N   0  0  0  0  0  0  0  0  0  0  0  0
    9.0732  -16.3237   23.9982 C   0  0  1  0  0  0  0  0  0  0  0  0
   10.3707  -16.6507   24.6556 C   0  0  0  0  0  0  0  0  0  0  0  0
   10.1885  -17.5646   25.8232 C   0  0  0  0  0  0  0  0  0  0  0  0
   11.5177  -17.7921   26.5071 C   0  0  0  0  0  0  0  0  0  0  0  0
   11.3382  -18.8052   27.6465 C   0  0  0  0  0  0  0  0  0  0  0  0
   12.6338  -19.0340   28.2467 N   0  0  0  0  0  0  0  0  0  0  0  0
    8.0728  -15.7131   24.9110 C   0  0  0  0  0  0  0  0  0  0  0  0
    7.3633  -16.5179   25.7653 O   0  0  0  0  0  0  0  0  0  0  0  0
    7.8588  -14.4647   24.9157 O   0  0  0  0  0  0  0  0  0  0  0  0
  1  2  1  0
  2  3  2  0
  2  4  1  0
  4  5  1  0
  5  7  1  0
  5  6  1  6
  7  8  2  0
 10 12  1  0
 10  9  1  6
 10 11  1  0
 13  7  1  0
 12 13  1  6
 14 12  1  0
 14 15  2  0
 16 14  1  0
 17 23  1  0
 17 16  1  0
 17 18  1  1
 19 18  1  0
 20 19  1  0
 21 20  1  0
 21 22  1  0
 23 24  1  0
 25 23  2  0
M  END
$$$$
