NVK.pdb
     RDKit          3D

 25 24  0  0  1  0  0  0  0  0999 V2000
    7.1173  -20.8036   17.0201 N   0  0  0  0  0  0  0  0  0  0  0  0
    6.7674  -19.5362   17.4996 C   0  0  0  0  0  0  0  0  0  0  0  0
    5.6538  -19.0633   17.0890 O   0  0  0  0  0  0  0  0  0  0  0  0
    7.5298  -18.6981   18.4160 C   0  0  0  0  0  0  0  0  0  0  0  0
    8.0594  -17.4105   17.8749 C   0  0  2  0  0  0  0  0  0  0  0  0
    9.0087  -17.6937   16.8295 N   0  0  0  0  0  0  0  0  0  0  0  0
    8.7635  -16.6206   18.9303 C   0  0  0  0  0  0  0  0  0  0  0  0
    9.9748  -16.8858   19.1152 O   0  0  0  0  0  0  0  0  0  0  0  0
    6.6956  -13.5219   21.5316 C   0  0  0  0  0  0  0  0  0  0  0  0
    8.0407  -13.5755   20.8647 C   0  0  2  0  0  0  0  0  0  0  0  0
    7.9473  -12.7037   19.6329 C   0  0  0  0  0  0  0  0  0  0  0  0
    8.7049  -14.8595   20.7348 C   0  0  2  0  0  0  0  0  0  0  0  0
    8.0728  -15.6188   19.6785 N   0  0  0  0  0  0  0  0  0  0  0  0
    8.9438  -15.7249   21.8858 C   0  0  0  0  0  0  0  0  0  0  0  0
    8.0366  -16.5401   22.2018 O   0  0  0  0  0  0  0  0  0  0  0  0
   10.1073  -15.7379   22.6876 N   0  0  0  0  0  0  0  0  0  0  0  0
   10.2024  -16.7425   23.7609 C   0  0  1  0  0  0  0  0  0  0  0  0
   11.2606  -17.7401   23.4331 C   0  0  0  0  0  0  0  0  0  0  0  0
   11.5046  -18.6849   24.5642 C   0  0  0  0  0  0  0  0  0  0  0  0
   12.5689  -19.6857   24.1744 C   0  0  0  0  0  0  0  0  0  0  0  0
   12.8257  -20.6406   25.3487 C   0  0  0  0  0  0  0  0  0  0  0  0
   13.8649  -21.5645   24.9518 N   0  0  0  0  0  0  0  0  0  0  0  0
   10.4544  -15.9876   25.0153 C   0  0  0  0  0  0  0  0  0  0  0  0
   10.2244  -16.5953   26.2231 O   0  0  0  0  0  0  0  0  0  0  0  0
   10.8749  -14.7930   24.9936 O   0  0  0  0  0  0  0  0  0  0  0  0
  1  2  1  0
  2  3  2  0
  2  4  1  0
  4  5  1  0
  5  7  1  0
  5  6  1  6
  7  8  2  0
 10 12  1  0
 10  9  1  6
 10 11  1  0
 13  7  1  0
 12 13  1  6
 14 12  1  0
 14 15  2  0
 16 14  1  0
 17 23  1  0
 17 16  1  0
 17 18  1  6
 19 18  1  0
 20 19  1  0
 21 20  1  0
 21 22  1  0
 23 24  1  0
 25 23  2  0
M  END
$$$$
