NVK.pdb
     RDKit          3D

 25 24  0  0  1  0  0  0  0  0999 V2000
   10.8605  -20.0185   16.3824 N   0  0  0  0  0  0  0  0  0  0  0  0
   11.2768  -18.7862   16.8990 C   0  0  0  0  0  0  0  0  0  0  0  0
   11.6196  -17.9008   16.0442 O   0  0  0  0  0  0  0  0  0  0  0  0
   11.3602  -18.4004   18.3018 C   0  0  0  0  0  0  0  0  0  0  0  0
   10.0714  -18.1369   19.0095 C   0  0  2  0  0  0  0  0  0  0  0  0
    9.1101  -17.6297   18.0647 N   0  0  0  0  0  0  0  0  0  0  0  0
   10.2368  -17.1147   20.0871 C   0  0  0  0  0  0  0  0  0  0  0  0
   11.4100  -16.8770   20.4597 O   0  0  0  0  0  0  0  0  0  0  0  0
    8.0549  -13.5783   22.8528 C   0  0  0  0  0  0  0  0  0  0  0  0
    8.1150  -14.6290   21.7807 C   0  0  2  0  0  0  0  0  0  0  0  0
    6.7066  -15.1514   21.6083 C   0  0  0  0  0  0  0  0  0  0  0  0
    9.1956  -15.5974   21.8119 C   0  0  2  0  0  0  0  0  0  0  0  0
    9.1025  -16.4537   20.6501 N   0  0  0  0  0  0  0  0  0  0  0  0
    9.4744  -16.4050   22.9955 C   0  0  0  0  0  0  0  0  0  0  0  0
    8.8203  -17.4719   23.1418 O   0  0  0  0  0  0  0  0  0  0  0  0
   10.4179  -16.1034   24.0032 N   0  0  0  0  0  0  0  0  0  0  0  0
   10.5841  -17.0604   25.1108 C   0  0  1  0  0  0  0  0  0  0  0  0
   12.0045  -17.5061   25.1906 C   0  0  0  0  0  0  0  0  0  0  0  0
   12.1546  -18.9516   24.8449 C   0  0  0  0  0  0  0  0  0  0  0  0
   13.6077  -19.3553   24.9533 C   0  0  0  0  0  0  0  0  0  0  0  0
   13.7663  -20.8149   24.5046 C   0  0  0  0  0  0  0  0  0  0  0  0
   15.1618  -21.1712   24.6348 N   0  0  0  0  0  0  0  0  0  0  0  0
   10.1005  -16.3686   26.3334 C   0  0  0  0  0  0  0  0  0  0  0  0
   10.0253  -17.0637   27.5134 O   0  0  0  0  0  0  0  0  0  0  0  0
    9.7535  -15.1507   26.3092 O   0  0  0  0  0  0  0  0  0  0  0  0
  1  2  1  0
  2  3  2  0
  2  4  1  0
  4  5  1  0
  5  7  1  0
  5  6  1  6
  7  8  2  0
 10 12  1  0
 10  9  1  1
 10 11  1  0
 13  7  1  0
 12 13  1  6
 14 12  1  0
 14 15  2  0
 16 14  1  0
 17 23  1  0
 17 16  1  0
 17 18  1  1
 19 18  1  0
 20 19  1  0
 21 20  1  0
 21 22  1  0
 23 24  1  0
 25 23  2  0
M  END
$$$$
