NVK.pdb
     RDKit          3D

 25 24  0  0  1  0  0  0  0  0999 V2000
    7.8945  -17.4510   19.4011 N   0  0  0  0  0  0  0  0  0  0  0  0
    8.8508  -16.4395   19.5463 C   0  0  0  0  0  0  0  0  0  0  0  0
    9.5210  -16.1400   18.5006 O   0  0  0  0  0  0  0  0  0  0  0  0
    9.1649  -15.6892   20.7554 C   0  0  0  0  0  0  0  0  0  0  0  0
    8.3995  -16.0411   21.9889 C   0  0  2  0  0  0  0  0  0  0  0  0
    7.0044  -15.7541   21.7757 N   0  0  0  0  0  0  0  0  0  0  0  0
    8.8567  -15.2401   23.1649 C   0  0  0  0  0  0  0  0  0  0  0  0
   10.0927  -15.2017   23.3711 O   0  0  0  0  0  0  0  0  0  0  0  0
    7.6304  -11.8983   26.6435 C   0  0  0  0  0  0  0  0  0  0  0  0
    7.3237  -12.8723   25.5416 C   0  0  2  0  0  0  0  0  0  0  0  0
    5.8853  -13.2986   25.7298 C   0  0  0  0  0  0  0  0  0  0  0  0
    8.2978  -13.9015   25.2282 C   0  0  2  0  0  0  0  0  0  0  0  0
    7.9166  -14.5605   23.9984 N   0  0  0  0  0  0  0  0  0  0  0  0
    8.7110  -14.8983   26.2113 C   0  0  0  0  0  0  0  0  0  0  0  0
    7.9458  -15.8805   26.4041 O   0  0  0  0  0  0  0  0  0  0  0  0
    9.8996  -14.8686   26.9749 N   0  0  0  0  0  0  0  0  0  0  0  0
   10.1745  -15.9979   27.8799 C   0  0  1  0  0  0  0  0  0  0  0  0
   11.4843  -16.6206   27.5347 C   0  0  0  0  0  0  0  0  0  0  0  0
   11.4292  -17.3458   26.2298 C   0  0  0  0  0  0  0  0  0  0  0  0
   12.7927  -17.9103   25.9002 C   0  0  0  0  0  0  0  0  0  0  0  0
   12.7086  -18.7193   24.5981 C   0  0  0  0  0  0  0  0  0  0  0  0
   14.0529  -19.0951   24.2202 N   0  0  0  0  0  0  0  0  0  0  0  0
   10.1136  -15.4492   29.2592 C   0  0  0  0  0  0  0  0  0  0  0  0
    9.8771  -14.1104   29.4399 O   0  0  0  0  0  0  0  0  0  0  0  0
   10.2782  -16.1910   30.2726 O   0  0  0  0  0  0  0  0  0  0  0  0
  1  2  1  0
  2  3  2  0
  2  4  1  0
  4  5  1  0
  5  7  1  0
  5  6  1  6
  7  8  2  0
 10 12  1  0
 10  9  1  1
 10 11  1  0
 13  7  1  0
 12 13  1  6
 14 12  1  0
 14 15  2  0
 16 14  1  0
 17 23  1  0
 17 16  1  0
 17 18  1  6
 19 18  1  0
 20 19  1  0
 21 20  1  0
 21 22  1  0
 23 24  1  0
 25 23  2  0
M  END
$$$$
