NVK.pdb
     RDKit          3D

 25 24  0  0  1  0  0  0  0  0999 V2000
    7.7290  -19.4719   15.7438 N   0  0  0  0  0  0  0  0  0  0  0  0
    8.4724  -19.8569   16.8654 C   0  0  0  0  0  0  0  0  0  0  0  0
    8.7194  -21.1052   16.9795 O   0  0  0  0  0  0  0  0  0  0  0  0
    8.9976  -18.9930   17.9148 C   0  0  0  0  0  0  0  0  0  0  0  0
    8.5959  -17.5549   17.8724 C   0  0  2  0  0  0  0  0  0  0  0  0
    9.1732  -16.9385   16.7059 N   0  0  0  0  0  0  0  0  0  0  0  0
    9.0878  -16.8127   19.0727 C   0  0  0  0  0  0  0  0  0  0  0  0
   10.2515  -17.0765   19.4574 O   0  0  0  0  0  0  0  0  0  0  0  0
    6.5123  -14.0270   21.5466 C   0  0  0  0  0  0  0  0  0  0  0  0
    7.8806  -13.8644   20.9480 C   0  0  2  0  0  0  0  0  0  0  0  0
    7.7180  -12.9804   19.7321 C   0  0  0  0  0  0  0  0  0  0  0  0
    8.7321  -15.0332   20.8244 C   0  0  2  0  0  0  0  0  0  0  0  0
    8.2582  -15.8553   19.7328 N   0  0  0  0  0  0  0  0  0  0  0  0
    9.0548  -15.8777   21.9704 C   0  0  0  0  0  0  0  0  0  0  0  0
    8.2719  -16.8292   22.2335 O   0  0  0  0  0  0  0  0  0  0  0  0
   10.1731  -15.7307   22.8215 N   0  0  0  0  0  0  0  0  0  0  0  0
   10.3589  -16.7129   23.9036 C   0  0  1  0  0  0  0  0  0  0  0  0
   11.5986  -17.5058   23.6650 C   0  0  0  0  0  0  0  0  0  0  0  0
   11.8350  -18.5085   24.7469 C   0  0  0  0  0  0  0  0  0  0  0  0
   13.0983  -19.2868   24.4560 C   0  0  0  0  0  0  0  0  0  0  0  0
   13.3109  -20.3418   25.5509 C   0  0  0  0  0  0  0  0  0  0  0  0
   14.3782  -21.2185   25.1227 N   0  0  0  0  0  0  0  0  0  0  0  0
   10.3749  -15.9371   25.1705 C   0  0  0  0  0  0  0  0  0  0  0  0
   10.3266  -14.5674   25.1203 O   0  0  0  0  0  0  0  0  0  0  0  0
   10.4348  -16.5135   26.2968 O   0  0  0  0  0  0  0  0  0  0  0  0
  1  2  1  0
  2  3  2  0
  2  4  1  0
  4  5  1  0
  5  7  1  0
  5  6  1  6
  7  8  2  0
 10 12  1  0
 10  9  1  6
 10 11  1  0
 13  7  1  0
 12 13  1  6
 14 12  1  0
 14 15  2  0
 16 14  1  0
 17 23  1  0
 17 16  1  0
 17 18  1  6
 19 18  1  0
 20 19  1  0
 21 20  1  0
 21 22  1  0
 23 24  1  0
 25 23  2  0
M  END
$$$$
