NVK.pdb
     RDKit          3D

 25 24  0  0  1  0  0  0  0  0999 V2000
    9.4103  -19.7506   18.9527 N   0  0  0  0  0  0  0  0  0  0  0  0
    9.1775  -19.3576   17.6297 C   0  0  0  0  0  0  0  0  0  0  0  0
    9.9856  -19.8158   16.7526 O   0  0  0  0  0  0  0  0  0  0  0  0
    8.1156  -18.4871   17.1418 C   0  0  0  0  0  0  0  0  0  0  0  0
    8.5202  -17.1368   16.6475 C   0  0  2  0  0  0  0  0  0  0  0  0
    9.5111  -17.2908   15.6139 N   0  0  0  0  0  0  0  0  0  0  0  0
    9.1217  -16.3112   17.7384 C   0  0  0  0  0  0  0  0  0  0  0  0
   10.3713  -16.3358   17.8365 O   0  0  0  0  0  0  0  0  0  0  0  0
    8.4720  -12.5586   20.8995 C   0  0  0  0  0  0  0  0  0  0  0  0
    7.9795  -13.6355   19.9750 C   0  0  2  0  0  0  0  0  0  0  0  0
    6.5370  -13.8966   20.3455 C   0  0  0  0  0  0  0  0  0  0  0  0
    8.8310  -14.7839   19.7244 C   0  0  2  0  0  0  0  0  0  0  0  0
    8.2967  -15.5405   18.6136 N   0  0  0  0  0  0  0  0  0  0  0  0
    9.2313  -15.6956   20.7917 C   0  0  0  0  0  0  0  0  0  0  0  0
    8.5213  -16.7188   20.9826 O   0  0  0  0  0  0  0  0  0  0  0  0
   10.3508  -15.5407   21.6399 N   0  0  0  0  0  0  0  0  0  0  0  0
   10.6578  -16.6215   22.5927 C   0  0  1  0  0  0  0  0  0  0  0  0
   12.0981  -16.9936   22.4947 C   0  0  0  0  0  0  0  0  0  0  0  0
   12.4110  -17.6714   21.2007 C   0  0  0  0  0  0  0  0  0  0  0  0
   13.8796  -18.0283   21.1522 C   0  0  0  0  0  0  0  0  0  0  0  0
   14.1937  -18.7153   19.8157 C   0  0  0  0  0  0  0  0  0  0  0  0
   15.6093  -19.0094   19.7885 N   0  0  0  0  0  0  0  0  0  0  0  0
   10.2550  -16.1210   23.9323 C   0  0  0  0  0  0  0  0  0  0  0  0
   10.2056  -16.9941   24.9888 O   0  0  0  0  0  0  0  0  0  0  0  0
    9.9536  -14.9051   24.1194 O   0  0  0  0  0  0  0  0  0  0  0  0
  1  2  1  0
  2  3  2  0
  2  4  1  0
  4  5  1  0
  5  7  1  0
  5  6  1  6
  7  8  2  0
 10 12  1  0
 10  9  1  1
 10 11  1  0
 13  7  1  0
 12 13  1  6
 14 12  1  0
 14 15  2  0
 16 14  1  0
 17 23  1  0
 17 16  1  0
 17 18  1  1
 19 18  1  0
 20 19  1  0
 21 20  1  0
 21 22  1  0
 23 24  1  0
 25 23  2  0
M  END
$$$$
