VHA.pdb
     RDKit          3D

 23 23  0  0  1  0  0  0  0  0999 V2000
    7.6996  -12.7348   19.5475 C   0  0  0  0  0  0  0  0  0  0  0  0
    7.7146  -13.4066   20.8944 C   0  0  2  0  0  0  0  0  0  0  0  0
    8.6479  -12.6003   21.7876 C   0  0  0  0  0  0  0  0  0  0  0  0
    8.2545  -14.8090   20.8439 C   0  0  2  0  0  0  0  0  0  0  0  0
    7.4560  -15.5679   19.9337 N   0  0  0  0  0  0  0  0  0  0  0  0
    8.3051  -15.4668   22.1541 C   0  0  0  0  0  0  0  0  0  0  0  0
    7.2410  -15.6575   22.7849 O   0  0  0  0  0  0  0  0  0  0  0  0
    9.5116  -15.9069   22.7581 N   0  0  0  0  0  0  0  0  0  0  0  0
    9.5863  -16.4686   24.0796 C   0  0  1  0  0  0  0  0  0  0  0  0
   10.4257  -17.7148   24.1444 C   0  0  0  0  0  0  0  0  0  0  0  0
    9.8247  -18.8758   23.4878 C   0  0  0  0  0  0  0  0  0  0  0  0
    8.5904  -18.9566   22.8790 C   0  0  0  0  0  0  0  0  0  0  0  0
    8.4183  -20.2203   22.3916 N   0  0  0  0  0  0  0  0  0  0  0  0
    9.5319  -20.9148   22.6943 C   0  0  0  0  0  0  0  0  0  0  0  0
   10.3729  -20.0970   23.3542 N   0  0  0  0  0  0  0  0  0  0  0  0
    9.9905  -15.4274   25.0544 C   0  0  0  0  0  0  0  0  0  0  0  0
   11.0392  -14.7299   24.8353 O   0  0  0  0  0  0  0  0  0  0  0  0
    8.6310  -13.3044   27.6062 C   0  0  0  0  0  0  0  0  0  0  0  0
    9.7883  -14.2539   27.2713 C   0  0  2  0  0  0  0  0  0  0  0  0
    9.2884  -15.1361   26.2399 N   0  0  0  0  0  0  0  0  0  0  0  0
   10.1647  -14.9439   28.5077 C   0  0  0  0  0  0  0  0  0  0  0  0
    9.9295  -16.1758   28.5821 O   0  0  0  0  0  0  0  0  0  0  0  0
   10.7578  -14.2455   29.5462 O   0  0  0  0  0  0  0  0  0  0  0  0
  2  1  1  6
  3  2  1  0
  4  5  1  6
  4  2  1  0
  4  6  1  0
  6  7  2  0
  8  6  1  0
  8  9  1  0
  9 16  1  0
 10 11  1  0
  9 10  1  6
 11 12  2  0
 12 13  1  0
 14 13  1  0
 15 11  1  0
 15 14  2  0
 16 20  1  0
 16 17  2  0
 19 18  1  1
 19 21  1  0
 20 19  1  0
 21 22  2  0
 21 23  1  0
M  END
$$$$
