VHA.pdb
     RDKit          3D

 23 23  0  0  1  0  0  0  0  0999 V2000
    7.8424  -13.3339   21.4326 C   0  0  0  0  0  0  0  0  0  0  0  0
    8.4928  -13.3488   20.0752 C   0  0  2  0  0  0  0  0  0  0  0  0
    7.8953  -12.1966   19.2788 C   0  0  0  0  0  0  0  0  0  0  0  0
    8.2129  -14.6095   19.3050 C   0  0  2  0  0  0  0  0  0  0  0  0
    6.7981  -14.7420   19.1545 N   0  0  0  0  0  0  0  0  0  0  0  0
    8.7786  -15.8136   19.9231 C   0  0  0  0  0  0  0  0  0  0  0  0
    8.0621  -16.5084   20.6782 O   0  0  0  0  0  0  0  0  0  0  0  0
   10.1144  -16.2434   19.7105 N   0  0  0  0  0  0  0  0  0  0  0  0
   10.6944  -17.3964   20.3443 C   0  0  1  0  0  0  0  0  0  0  0  0
   11.6633  -18.1312   19.4594 C   0  0  0  0  0  0  0  0  0  0  0  0
   12.2448  -19.3261   20.0713 C   0  0  0  0  0  0  0  0  0  0  0  0
   11.8082  -19.9978   21.1934 C   0  0  0  0  0  0  0  0  0  0  0  0
   12.6338  -21.0607   21.4230 N   0  0  0  0  0  0  0  0  0  0  0  0
   13.5708  -21.0486   20.4555 C   0  0  0  0  0  0  0  0  0  0  0  0
   13.3284  -20.0006   19.6464 N   0  0  0  0  0  0  0  0  0  0  0  0
   11.2580  -17.0238   21.6638 C   0  0  0  0  0  0  0  0  0  0  0  0
   12.0997  -16.0650   21.7433 O   0  0  0  0  0  0  0  0  0  0  0  0
   10.3230  -17.4057   25.1601 C   0  0  0  0  0  0  0  0  0  0  0  0
   11.4772  -17.2794   24.1577 C   0  0  2  0  0  0  0  0  0  0  0  0
   10.9291  -17.6623   22.8752 N   0  0  0  0  0  0  0  0  0  0  0  0
   12.5609  -18.1498   24.6208 C   0  0  0  0  0  0  0  0  0  0  0  0
   12.7551  -19.2216   23.9947 O   0  0  0  0  0  0  0  0  0  0  0  0
   13.3327  -17.7864   25.7118 O   0  0  0  0  0  0  0  0  0  0  0  0
  2  1  1  1
  3  2  1  0
  4  5  1  1
  4  2  1  0
  4  6  1  0
  6  7  2  0
  8  6  1  0
  8  9  1  0
  9 16  1  0
 10 11  1  0
  9 10  1  6
 11 12  2  0
 12 13  1  0
 14 13  1  0
 15 11  1  0
 15 14  2  0
 16 20  1  0
 16 17  2  0
 19 18  1  1
 19 21  1  0
 20 19  1  0
 21 22  2  0
 21 23  1  0
M  END
$$$$
