VHA.pdb
     RDKit          3D

 23 23  0  0  1  0  0  0  0  0999 V2000
    7.3769  -13.2974   21.7153 C   0  0  0  0  0  0  0  0  0  0  0  0
    8.4442  -13.4678   20.6677 C   0  0  2  0  0  0  0  0  0  0  0  0
    8.2801  -12.3285   19.6706 C   0  0  0  0  0  0  0  0  0  0  0  0
    8.3091  -14.7517   19.8968 C   0  0  2  0  0  0  0  0  0  0  0  0
    7.0864  -14.7085   19.1584 N   0  0  0  0  0  0  0  0  0  0  0  0
    8.3578  -15.9512   20.7397 C   0  0  0  0  0  0  0  0  0  0  0  0
    7.2874  -16.4659   21.1346 O   0  0  0  0  0  0  0  0  0  0  0  0
    9.5694  -16.5724   21.1402 N   0  0  0  0  0  0  0  0  0  0  0  0
    9.6364  -17.6812   22.0532 C   0  0  1  0  0  0  0  0  0  0  0  0
   10.7462  -18.6439   21.7317 C   0  0  0  0  0  0  0  0  0  0  0  0
   10.8497  -19.7695   22.6605 C   0  0  0  0  0  0  0  0  0  0  0  0
    9.8529  -20.6405   23.0461 C   0  0  0  0  0  0  0  0  0  0  0  0
   10.3713  -21.5455   23.9270 N   0  0  0  0  0  0  0  0  0  0  0  0
   11.6734  -21.2399   24.0860 C   0  0  0  0  0  0  0  0  0  0  0  0
   11.9522  -20.1693   23.3195 N   0  0  0  0  0  0  0  0  0  0  0  0
    9.6609  -17.1899   23.4516 C   0  0  0  0  0  0  0  0  0  0  0  0
   10.4905  -16.2766   23.7858 O   0  0  0  0  0  0  0  0  0  0  0  0
    7.4574  -16.8687   26.2555 C   0  0  0  0  0  0  0  0  0  0  0  0
    8.8936  -17.2213   25.8481 C   0  0  2  0  0  0  0  0  0  0  0  0
    8.8159  -17.6643   24.4734 N   0  0  0  0  0  0  0  0  0  0  0  0
    9.3749  -18.2497   26.7739 C   0  0  0  0  0  0  0  0  0  0  0  0
    9.4854  -19.4221   26.3361 O   0  0  0  0  0  0  0  0  0  0  0  0
    9.6917  -17.9212   28.0815 O   0  0  0  0  0  0  0  0  0  0  0  0
  2  1  1  1
  3  2  1  0
  4  5  1  1
  4  2  1  0
  4  6  1  0
  6  7  2  0
  8  6  1  0
  8  9  1  0
  9 16  1  0
 10 11  1  0
  9 10  1  6
 11 12  2  0
 12 13  1  0
 14 13  1  0
 15 11  1  0
 15 14  2  0
 16 20  1  0
 16 17  2  0
 19 18  1  1
 19 21  1  0
 20 19  1  0
 21 22  2  0
 21 23  1  0
M  END
$$$$
