VHA.pdb
     RDKit          3D

 23 23  0  0  1  0  0  0  0  0999 V2000
    7.3138  -13.3977   21.4122 C   0  0  0  0  0  0  0  0  0  0  0  0
    8.4861  -13.2951   20.4736 C   0  0  2  0  0  0  0  0  0  0  0  0
    8.1645  -12.1933   19.4729 C   0  0  0  0  0  0  0  0  0  0  0  0
    8.7171  -14.5541   19.6846 C   0  0  2  0  0  0  0  0  0  0  0  0
    7.5931  -14.7623   18.8271 N   0  0  0  0  0  0  0  0  0  0  0  0
    8.9514  -15.7367   20.5203 C   0  0  0  0  0  0  0  0  0  0  0  0
    7.9993  -16.5111   20.7659 O   0  0  0  0  0  0  0  0  0  0  0  0
   10.2170  -16.0588   21.0759 N   0  0  0  0  0  0  0  0  0  0  0  0
   10.4500  -17.1890   21.9337 C   0  0  1  0  0  0  0  0  0  0  0  0
   11.6585  -17.9915   21.5370 C   0  0  0  0  0  0  0  0  0  0  0  0
   11.4837  -18.7702   20.3109 C   0  0  0  0  0  0  0  0  0  0  0  0
   10.5408  -19.7432   20.0558 C   0  0  0  0  0  0  0  0  0  0  0  0
   10.7265  -20.2193   18.7897 N   0  0  0  0  0  0  0  0  0  0  0  0
   11.7715  -19.5501   18.2660 C   0  0  0  0  0  0  0  0  0  0  0  0
   12.2207  -18.6798   19.1892 N   0  0  0  0  0  0  0  0  0  0  0  0
   10.4603  -16.7591   23.3524 C   0  0  0  0  0  0  0  0  0  0  0  0
   11.3169  -15.8950   23.7444 O   0  0  0  0  0  0  0  0  0  0  0  0
    8.1494  -17.0039   26.2230 C   0  0  0  0  0  0  0  0  0  0  0  0
    9.5799  -16.7967   25.7095 C   0  0  2  0  0  0  0  0  0  0  0  0
    9.5730  -17.2422   24.3335 N   0  0  0  0  0  0  0  0  0  0  0  0
   10.4754  -17.5675   26.5757 C   0  0  0  0  0  0  0  0  0  0  0  0
   10.9868  -18.6128   26.1021 O   0  0  0  0  0  0  0  0  0  0  0  0
   10.7366  -17.1425   27.8676 O   0  0  0  0  0  0  0  0  0  0  0  0
  2  1  1  1
  3  2  1  0
  4  5  1  1
  4  2  1  0
  4  6  1  0
  6  7  2  0
  8  6  1  0
  8  9  1  0
  9 16  1  0
 10 11  1  0
  9 10  1  6
 11 12  2  0
 12 13  1  0
 14 13  1  0
 15 11  1  0
 15 14  2  0
 16 20  1  0
 16 17  2  0
 19 18  1  1
 19 21  1  0
 20 19  1  0
 21 22  2  0
 21 23  1  0
M  END
$$$$
