VHA.pdb
     RDKit          3D

 23 23  0  0  1  0  0  0  0  0999 V2000
    8.0673  -14.2228   18.2212 C   0  0  0  0  0  0  0  0  0  0  0  0
    8.1123  -13.2187   19.3417 C   0  0  2  0  0  0  0  0  0  0  0  0
    8.3512  -11.8533   18.7113 C   0  0  0  0  0  0  0  0  0  0  0  0
    9.2415  -13.4642   20.3037 C   0  0  2  0  0  0  0  0  0  0  0  0
   10.4721  -13.4064   19.5798 N   0  0  0  0  0  0  0  0  0  0  0  0
    9.1308  -14.7353   21.0276 C   0  0  0  0  0  0  0  0  0  0  0  0
    8.0651  -15.0095   21.6239 O   0  0  0  0  0  0  0  0  0  0  0  0
   10.1805  -15.6883   21.0920 N   0  0  0  0  0  0  0  0  0  0  0  0
   10.0968  -16.9226   21.8247 C   0  0  1  0  0  0  0  0  0  0  0  0
   10.6757  -18.0926   21.0779 C   0  0  0  0  0  0  0  0  0  0  0  0
    9.9122  -18.4829   19.8925 C   0  0  0  0  0  0  0  0  0  0  0  0
    8.6791  -19.0980   19.8470 C   0  0  0  0  0  0  0  0  0  0  0  0
    8.3249  -19.2850   18.5418 N   0  0  0  0  0  0  0  0  0  0  0  0
    9.3256  -18.7921   17.7870 C   0  0  0  0  0  0  0  0  0  0  0  0
   10.2768  -18.3113   18.6090 N   0  0  0  0  0  0  0  0  0  0  0  0
   10.6593  -16.7475   23.1851 C   0  0  0  0  0  0  0  0  0  0  0  0
   11.8722  -16.3682   23.3231 O   0  0  0  0  0  0  0  0  0  0  0  0
    9.4355  -16.4149   26.6307 C   0  0  0  0  0  0  0  0  0  0  0  0
   10.5363  -16.9254   25.6923 C   0  0  2  0  0  0  0  0  0  0  0  0
    9.9406  -16.9726   24.3750 N   0  0  0  0  0  0  0  0  0  0  0  0
   10.9705  -18.2325   26.1915 C   0  0  0  0  0  0  0  0  0  0  0  0
   10.5998  -19.2512   25.5564 O   0  0  0  0  0  0  0  0  0  0  0  0
   11.7614  -18.3212   27.3250 O   0  0  0  0  0  0  0  0  0  0  0  0
  2  1  1  6
  3  2  1  0
  4  5  1  6
  4  2  1  0
  4  6  1  0
  6  7  2  0
  8  6  1  0
  8  9  1  0
  9 16  1  0
 10 11  1  0
  9 10  1  6
 11 12  2  0
 12 13  1  0
 14 13  1  0
 15 11  1  0
 15 14  2  0
 16 20  1  0
 16 17  2  0
 19 18  1  1
 19 21  1  0
 20 19  1  0
 21 22  2  0
 21 23  1  0
M  END
$$$$
