VHA.pdb
     RDKit          3D

 23 23  0  0  1  0  0  0  0  0999 V2000
    8.3097  -14.6432   19.0269 C   0  0  0  0  0  0  0  0  0  0  0  0
    7.6123  -13.8515   20.1004 C   0  0  2  0  0  0  0  0  0  0  0  0
    7.6680  -12.3873   19.6859 C   0  0  0  0  0  0  0  0  0  0  0  0
    8.2883  -13.9571   21.4393 C   0  0  2  0  0  0  0  0  0  0  0  0
    9.6262  -13.4722   21.3091 N   0  0  0  0  0  0  0  0  0  0  0  0
    8.2861  -15.3154   21.9933 C   0  0  0  0  0  0  0  0  0  0  0  0
    7.1977  -15.9168   22.1354 O   0  0  0  0  0  0  0  0  0  0  0  0
    9.4671  -15.9985   22.3840 N   0  0  0  0  0  0  0  0  0  0  0  0
    9.4750  -17.3108   22.9717 C   0  0  1  0  0  0  0  0  0  0  0  0
   10.5858  -18.1825   22.4539 C   0  0  0  0  0  0  0  0  0  0  0  0
   10.4043  -18.6251   21.0714 C   0  0  0  0  0  0  0  0  0  0  0  0
    9.2427  -19.0605   20.4698 C   0  0  0  0  0  0  0  0  0  0  0  0
    9.5093  -19.3785   19.1691 N   0  0  0  0  0  0  0  0  0  0  0  0
   10.8199  -19.1432   18.9662 C   0  0  0  0  0  0  0  0  0  0  0  0
   11.3503  -18.6899   20.1172 N   0  0  0  0  0  0  0  0  0  0  0  0
    9.4390  -17.2079   24.4501 C   0  0  0  0  0  0  0  0  0  0  0  0
   10.2417  -16.4125   25.0478 O   0  0  0  0  0  0  0  0  0  0  0  0
    7.3252  -18.6157   27.1892 C   0  0  0  0  0  0  0  0  0  0  0  0
    8.5919  -17.8890   26.7198 C   0  0  2  0  0  0  0  0  0  0  0  0
    8.5628  -17.9398   25.2746 N   0  0  0  0  0  0  0  0  0  0  0  0
    9.7410  -18.5782   27.3122 C   0  0  0  0  0  0  0  0  0  0  0  0
   10.4654  -19.2647   26.5490 O   0  0  0  0  0  0  0  0  0  0  0  0
   10.0028  -18.4645   28.6674 O   0  0  0  0  0  0  0  0  0  0  0  0
  2  1  1  6
  3  2  1  0
  4  5  1  6
  4  2  1  0
  4  6  1  0
  6  7  2  0
  8  6  1  0
  8  9  1  0
  9 16  1  0
 10 11  1  0
  9 10  1  1
 11 12  2  0
 12 13  1  0
 14 13  1  0
 15 11  1  0
 15 14  2  0
 16 20  1  0
 16 17  2  0
 19 18  1  1
 19 21  1  0
 20 19  1  0
 21 22  2  0
 21 23  1  0
M  END
$$$$
