VHA.pdb
     RDKit          3D

 23 23  0  0  1  0  0  0  0  0999 V2000
    5.7081  -11.4263   26.8626 C   0  0  0  0  0  0  0  0  0  0  0  0
    6.7167  -12.5337   26.7138 C   0  0  2  0  0  0  0  0  0  0  0  0
    7.9845  -11.9122   26.1434 C   0  0  0  0  0  0  0  0  0  0  0  0
    6.2770  -13.6015   25.7509 C   0  0  2  0  0  0  0  0  0  0  0  0
    5.0275  -14.1287   26.2010 N   0  0  0  0  0  0  0  0  0  0  0  0
    7.2576  -14.6791   25.5806 C   0  0  0  0  0  0  0  0  0  0  0  0
    7.2926  -15.6123   26.4139 O   0  0  0  0  0  0  0  0  0  0  0  0
    8.1847  -14.7254   24.5070 N   0  0  0  0  0  0  0  0  0  0  0  0
    9.1939  -15.7396   24.3645 C   0  0  1  0  0  0  0  0  0  0  0  0
    9.7685  -15.8094   22.9764 C   0  0  0  0  0  0  0  0  0  0  0  0
    8.7640  -15.9057   21.9171 C   0  0  0  0  0  0  0  0  0  0  0  0
    7.6288  -16.6880   21.8985 C   0  0  0  0  0  0  0  0  0  0  0  0
    6.9659  -16.4792   20.7233 N   0  0  0  0  0  0  0  0  0  0  0  0
    7.6809  -15.5788   20.0217 C   0  0  0  0  0  0  0  0  0  0  0  0
    8.7616  -15.2394   20.7485 N   0  0  0  0  0  0  0  0  0  0  0  0
   10.2182  -15.5928   25.4260 C   0  0  0  0  0  0  0  0  0  0  0  0
   11.3076  -14.9744   25.1715 O   0  0  0  0  0  0  0  0  0  0  0  0
   10.5255  -14.8148   28.6876 C   0  0  0  0  0  0  0  0  0  0  0  0
   11.0747  -15.9148   27.7703 C   0  0  2  0  0  0  0  0  0  0  0  0
   10.0818  -16.0961   26.7342 N   0  0  0  0  0  0  0  0  0  0  0  0
   11.2941  -17.1068   28.5934 C   0  0  0  0  0  0  0  0  0  0  0  0
   10.5499  -18.0988   28.3921 O   0  0  0  0  0  0  0  0  0  0  0  0
   12.2916  -17.1200   29.5540 O   0  0  0  0  0  0  0  0  0  0  0  0
  2  1  1  6
  3  2  1  0
  4  5  1  1
  4  2  1  0
  4  6  1  0
  6  7  2  0
  8  6  1  0
  8  9  1  0
  9 16  1  0
 10 11  1  0
  9 10  1  6
 11 12  2  0
 12 13  1  0
 14 13  1  0
 15 11  1  0
 15 14  2  0
 16 20  1  0
 16 17  2  0
 19 18  1  1
 19 21  1  0
 20 19  1  0
 21 22  2  0
 21 23  1  0
M  END
$$$$
