VHA.pdb
     RDKit          3D

 23 23  0  0  1  0  0  0  0  0999 V2000
    9.1037  -11.9960   20.0201 C   0  0  0  0  0  0  0  0  0  0  0  0
    8.1583  -12.7459   19.1203 C   0  0  2  0  0  0  0  0  0  0  0  0
    7.3567  -13.6940   20.0020 C   0  0  0  0  0  0  0  0  0  0  0  0
    8.8677  -13.5886   18.0968 C   0  0  2  0  0  0  0  0  0  0  0  0
    7.8856  -14.2701   17.3139 N   0  0  0  0  0  0  0  0  0  0  0  0
    9.8153  -14.5456   18.6784 C   0  0  0  0  0  0  0  0  0  0  0  0
    9.4213  -15.6973   18.9695 O   0  0  0  0  0  0  0  0  0  0  0  0
   11.1764  -14.2355   18.9342 N   0  0  0  0  0  0  0  0  0  0  0  0
   12.1475  -15.1998   19.3754 C   0  0  1  0  0  0  0  0  0  0  0  0
   13.5322  -14.9216   18.8586 C   0  0  0  0  0  0  0  0  0  0  0  0
   13.7193  -15.2455   17.4443 C   0  0  0  0  0  0  0  0  0  0  0  0
   13.0852  -16.2262   16.7115 C   0  0  0  0  0  0  0  0  0  0  0  0
   13.5503  -16.1914   15.4284 N   0  0  0  0  0  0  0  0  0  0  0  0
   14.4615  -15.2015   15.3658 C   0  0  0  0  0  0  0  0  0  0  0  0
   14.5564  -14.6378   16.5843 N   0  0  0  0  0  0  0  0  0  0  0  0
   12.0815  -15.3529   20.8485 C   0  0  0  0  0  0  0  0  0  0  0  0
   12.3474  -14.3536   21.6000 O   0  0  0  0  0  0  0  0  0  0  0  0
   10.9437  -17.9991   23.2160 C   0  0  0  0  0  0  0  0  0  0  0  0
   11.6952  -16.6895   22.9454 C   0  0  2  0  0  0  0  0  0  0  0  0
   11.7378  -16.5497   21.5064 N   0  0  0  0  0  0  0  0  0  0  0  0
   13.0168  -16.8027   23.5674 C   0  0  0  0  0  0  0  0  0  0  0  0
   14.0060  -16.9603   22.8091 O   0  0  0  0  0  0  0  0  0  0  0  0
   13.1503  -16.7357   24.9443 O   0  0  0  0  0  0  0  0  0  0  0  0
  2  1  1  1
  3  2  1  0
  4  5  1  1
  4  2  1  0
  4  6  1  0
  6  7  2  0
  8  6  1  0
  8  9  1  0
  9 16  1  0
 10 11  1  0
  9 10  1  1
 11 12  2  0
 12 13  1  0
 14 13  1  0
 15 11  1  0
 15 14  2  0
 16 20  1  0
 16 17  2  0
 19 18  1  6
 19 21  1  0
 20 19  1  0
 21 22  2  0
 21 23  1  0
M  END
$$$$
