VHA.pdb
     RDKit          3D

 23 23  0  0  1  0  0  0  0  0999 V2000
    7.5515  -12.3828   18.5612 C   0  0  0  0  0  0  0  0  0  0  0  0
    8.0842  -13.5951   19.2769 C   0  0  2  0  0  0  0  0  0  0  0  0
    7.7690  -13.4175   20.7560 C   0  0  0  0  0  0  0  0  0  0  0  0
    9.5763  -13.7375   19.1578 C   0  0  2  0  0  0  0  0  0  0  0  0
    9.9230  -13.7142   17.7716 N   0  0  0  0  0  0  0  0  0  0  0  0
   10.1043  -14.9467   19.7988 C   0  0  0  0  0  0  0  0  0  0  0  0
    9.4782  -15.4555   20.7557 O   0  0  0  0  0  0  0  0  0  0  0  0
   11.3047  -15.5838   19.3896 N   0  0  0  0  0  0  0  0  0  0  0  0
   11.7813  -16.8228   19.9419 C   0  0  1  0  0  0  0  0  0  0  0  0
   12.9110  -17.4248   19.1524 C   0  0  0  0  0  0  0  0  0  0  0  0
   13.3447  -18.7366   19.6333 C   0  0  0  0  0  0  0  0  0  0  0  0
   12.8588  -19.4432   20.7129 C   0  0  0  0  0  0  0  0  0  0  0  0
   13.5393  -20.6225   20.8135 N   0  0  0  0  0  0  0  0  0  0  0  0
   14.4361  -20.6474   19.8088 C   0  0  0  0  0  0  0  0  0  0  0  0
   14.3114  -19.5077   19.1037 N   0  0  0  0  0  0  0  0  0  0  0  0
   12.0853  -16.6554   21.3831 C   0  0  0  0  0  0  0  0  0  0  0  0
   12.9344  -15.7737   21.7514 O   0  0  0  0  0  0  0  0  0  0  0  0
   10.4444  -17.2085   24.5351 C   0  0  0  0  0  0  0  0  0  0  0  0
   11.7981  -17.2382   23.8143 C   0  0  2  0  0  0  0  0  0  0  0  0
   11.4938  -17.4145   22.4113 N   0  0  0  0  0  0  0  0  0  0  0  0
   12.5811  -18.3338   24.3913 C   0  0  0  0  0  0  0  0  0  0  0  0
   12.7035  -19.3834   23.7115 O   0  0  0  0  0  0  0  0  0  0  0  0
   13.1582  -18.1982   25.6430 O   0  0  0  0  0  0  0  0  0  0  0  0
  2  1  1  6
  3  2  1  0
  4  5  1  6
  4  2  1  0
  4  6  1  0
  6  7  2  0
  8  6  1  0
  8  9  1  0
  9 16  1  0
 10 11  1  0
  9 10  1  6
 11 12  2  0
 12 13  1  0
 14 13  1  0
 15 11  1  0
 15 14  2  0
 16 20  1  0
 16 17  2  0
 19 18  1  1
 19 21  1  0
 20 19  1  0
 21 22  2  0
 21 23  1  0
M  END
$$$$
