VHA.pdb
     RDKit          3D

 23 23  0  0  1  0  0  0  0  0999 V2000
    6.7372  -14.1570   20.1243 C   0  0  0  0  0  0  0  0  0  0  0  0
    7.8683  -13.2333   20.4893 C   0  0  2  0  0  0  0  0  0  0  0  0
    8.5290  -12.7972   19.1884 C   0  0  0  0  0  0  0  0  0  0  0  0
    8.9279  -13.9035   21.3192 C   0  0  2  0  0  0  0  0  0  0  0  0
    9.4777  -14.9841   20.5628 N   0  0  0  0  0  0  0  0  0  0  0  0
    8.4421  -14.3811   22.6184 C   0  0  0  0  0  0  0  0  0  0  0  0
    7.7865  -13.6053   23.3497 O   0  0  0  0  0  0  0  0  0  0  0  0
    8.6766  -15.6946   23.1021 N   0  0  0  0  0  0  0  0  0  0  0  0
    8.2614  -16.1556   24.3992 C   0  0  1  0  0  0  0  0  0  0  0  0
    7.9851  -17.6334   24.4396 C   0  0  0  0  0  0  0  0  0  0  0  0
    6.8580  -18.0544   23.6073 C   0  0  0  0  0  0  0  0  0  0  0  0
    5.9806  -17.2545   22.9065 C   0  0  0  0  0  0  0  0  0  0  0  0
    5.0769  -18.0479   22.2601 N   0  0  0  0  0  0  0  0  0  0  0  0
    5.3897  -19.3241   22.5562 C   0  0  0  0  0  0  0  0  0  0  0  0
    6.4634  -19.3180   23.3678 N   0  0  0  0  0  0  0  0  0  0  0  0
    9.2211  -15.7010   25.4335 C   0  0  0  0  0  0  0  0  0  0  0  0
   10.4719  -15.9068   25.2688 O   0  0  0  0  0  0  0  0  0  0  0  0
    9.0651  -13.5508   28.4629 C   0  0  0  0  0  0  0  0  0  0  0  0
    9.8003  -14.6023   27.6222 C   0  0  2  0  0  0  0  0  0  0  0  0
    8.8525  -15.0391   26.6207 N   0  0  0  0  0  0  0  0  0  0  0  0
   10.2342  -15.6677   28.5294 C   0  0  0  0  0  0  0  0  0  0  0  0
   11.0422  -15.3627   29.4419 O   0  0  0  0  0  0  0  0  0  0  0  0
    9.7592  -16.9589   28.3706 O   0  0  0  0  0  0  0  0  0  0  0  0
  2  1  1  6
  3  2  1  0
  4  5  1  6
  4  2  1  0
  4  6  1  0
  6  7  2  0
  8  6  1  0
  8  9  1  0
  9 16  1  0
 10 11  1  0
  9 10  1  6
 11 12  2  0
 12 13  1  0
 14 13  1  0
 15 11  1  0
 15 14  2  0
 16 20  1  0
 16 17  2  0
 19 18  1  1
 19 21  1  0
 20 19  1  0
 21 22  2  0
 21 23  1  0
M  END
$$$$
