VHA.pdb
     RDKit          3D

 23 23  0  0  1  0  0  0  0  0999 V2000
    7.3296  -13.2015   20.4644 C   0  0  0  0  0  0  0  0  0  0  0  0
    8.6710  -13.1132   19.7872 C   0  0  2  0  0  0  0  0  0  0  0  0
    8.5512  -12.0645   18.6895 C   0  0  0  0  0  0  0  0  0  0  0  0
    9.0794  -14.4000   19.1253 C   0  0  2  0  0  0  0  0  0  0  0  0
    8.1148  -14.7164   18.1196 N   0  0  0  0  0  0  0  0  0  0  0  0
    9.2318  -15.5195   20.0609 C   0  0  0  0  0  0  0  0  0  0  0  0
    8.2788  -16.3140   20.2254 O   0  0  0  0  0  0  0  0  0  0  0  0
   10.4179  -15.7577   20.8030 N   0  0  0  0  0  0  0  0  0  0  0  0
   10.6021  -16.8842   21.6773 C   0  0  1  0  0  0  0  0  0  0  0  0
   11.7173  -17.7938   21.2407 C   0  0  0  0  0  0  0  0  0  0  0  0
   11.4244  -18.5614   20.0302 C   0  0  0  0  0  0  0  0  0  0  0  0
   10.3859  -19.4437   19.8204 C   0  0  0  0  0  0  0  0  0  0  0  0
   10.4783  -19.9441   18.5535 N   0  0  0  0  0  0  0  0  0  0  0  0
   11.5606  -19.3793   17.9844 C   0  0  0  0  0  0  0  0  0  0  0  0
   12.1236  -18.5484   18.8811 N   0  0  0  0  0  0  0  0  0  0  0  0
   10.7233  -16.4256   23.0817 C   0  0  0  0  0  0  0  0  0  0  0  0
   11.7348  -15.7274   23.4332 O   0  0  0  0  0  0  0  0  0  0  0  0
    8.4821  -16.0500   25.9707 C   0  0  0  0  0  0  0  0  0  0  0  0
    9.9137  -16.2517   25.4581 C   0  0  2  0  0  0  0  0  0  0  0  0
    9.7826  -16.7065   24.0913 N   0  0  0  0  0  0  0  0  0  0  0  0
   10.5667  -17.2198   26.3428 C   0  0  0  0  0  0  0  0  0  0  0  0
   10.7709  -18.3749   25.8929 O   0  0  0  0  0  0  0  0  0  0  0  0
   10.9384  -16.8553   27.6262 O   0  0  0  0  0  0  0  0  0  0  0  0
  2  1  1  6
  3  2  1  0
  4  5  1  6
  4  2  1  0
  4  6  1  0
  6  7  2  0
  8  6  1  0
  8  9  1  0
  9 16  1  0
 10 11  1  0
  9 10  1  6
 11 12  2  0
 12 13  1  0
 14 13  1  0
 15 11  1  0
 15 14  2  0
 16 20  1  0
 16 17  2  0
 19 18  1  1
 19 21  1  0
 20 19  1  0
 21 22  2  0
 21 23  1  0
M  END
$$$$
