VHA.pdb
     RDKit          3D

 23 23  0  0  1  0  0  0  0  0999 V2000
    9.5276  -12.4639   20.0100 C   0  0  0  0  0  0  0  0  0  0  0  0
    8.6561  -12.8987   18.8624 C   0  0  2  0  0  0  0  0  0  0  0  0
    7.2140  -12.8445   19.3485 C   0  0  0  0  0  0  0  0  0  0  0  0
    8.9222  -14.3133   18.4275 C   0  0  2  0  0  0  0  0  0  0  0  0
    8.0845  -14.6065   17.3075 N   0  0  0  0  0  0  0  0  0  0  0  0
    8.7217  -15.3028   19.4917 C   0  0  0  0  0  0  0  0  0  0  0  0
    7.5568  -15.6010   19.8389 O   0  0  0  0  0  0  0  0  0  0  0  0
    9.7908  -15.9526   20.1618 N   0  0  0  0  0  0  0  0  0  0  0  0
    9.6113  -16.8616   21.2613 C   0  0  1  0  0  0  0  0  0  0  0  0
   10.3336  -18.1670   21.0717 C   0  0  0  0  0  0  0  0  0  0  0  0
    9.7185  -19.0533   20.0836 C   0  0  0  0  0  0  0  0  0  0  0  0
    8.5717  -18.8337   19.3504 C   0  0  0  0  0  0  0  0  0  0  0  0
    8.3485  -19.9120   18.5431 N   0  0  0  0  0  0  0  0  0  0  0  0
    9.3442  -20.7894   18.7726 C   0  0  0  0  0  0  0  0  0  0  0  0
   10.1642  -20.2637   19.7015 N   0  0  0  0  0  0  0  0  0  0  0  0
    9.9316  -16.1844   22.5406 C   0  0  0  0  0  0  0  0  0  0  0  0
   11.0232  -15.5288   22.6522 O   0  0  0  0  0  0  0  0  0  0  0  0
    8.1872  -15.1117   25.5806 C   0  0  0  0  0  0  0  0  0  0  0  0
    9.4819  -15.6492   24.9580 C   0  0  2  0  0  0  0  0  0  0  0  0
    9.1022  -16.2065   23.6785 N   0  0  0  0  0  0  0  0  0  0  0  0
   10.0433  -16.6325   25.8876 C   0  0  0  0  0  0  0  0  0  0  0  0
    9.9617  -17.8458   25.5716 O   0  0  0  0  0  0  0  0  0  0  0  0
   10.6390  -16.2195   27.0678 O   0  0  0  0  0  0  0  0  0  0  0  0
  2  1  1  1
  3  2  1  0
  4  5  1  6
  4  2  1  0
  4  6  1  0
  6  7  2  0
  8  6  1  0
  8  9  1  0
  9 16  1  0
 10 11  1  0
  9 10  1  6
 11 12  2  0
 12 13  1  0
 14 13  1  0
 15 11  1  0
 15 14  2  0
 16 20  1  0
 16 17  2  0
 19 18  1  1
 19 21  1  0
 20 19  1  0
 21 22  2  0
 21 23  1  0
M  END
$$$$
