VHA.pdb
     RDKit          3D

 23 23  0  0  1  0  0  0  0  0999 V2000
    7.8935  -14.2856   19.0023 C   0  0  0  0  0  0  0  0  0  0  0  0
    8.3161  -13.1421   19.8852 C   0  0  2  0  0  0  0  0  0  0  0  0
    8.6798  -11.9799   18.9708 C   0  0  0  0  0  0  0  0  0  0  0  0
    9.5357  -13.4556   20.7067 C   0  0  2  0  0  0  0  0  0  0  0  0
   10.6073  -13.7799   19.8187 N   0  0  0  0  0  0  0  0  0  0  0  0
    9.3286  -14.5357   21.6775 C   0  0  0  0  0  0  0  0  0  0  0  0
    8.2811  -14.5507   22.3624 O   0  0  0  0  0  0  0  0  0  0  0  0
   10.2635  -15.5824   21.8886 N   0  0  0  0  0  0  0  0  0  0  0  0
   10.1072  -16.6056   22.8866 C   0  0  1  0  0  0  0  0  0  0  0  0
   10.6719  -17.9337   22.4634 C   0  0  0  0  0  0  0  0  0  0  0  0
    9.9212  -18.5893   21.3924 C   0  0  0  0  0  0  0  0  0  0  0  0
    8.7239  -18.1928   20.8355 C   0  0  0  0  0  0  0  0  0  0  0  0
    8.3697  -19.0848   19.8645 N   0  0  0  0  0  0  0  0  0  0  0  0
    9.3351  -20.0229   19.8196 C   0  0  0  0  0  0  0  0  0  0  0  0
   10.2649  -19.7161   20.7431 N   0  0  0  0  0  0  0  0  0  0  0  0
   10.6230  -16.1282   24.1918 C   0  0  0  0  0  0  0  0  0  0  0  0
   11.8044  -15.6458   24.2660 O   0  0  0  0  0  0  0  0  0  0  0  0
    9.4227  -14.8805   27.3401 C   0  0  0  0  0  0  0  0  0  0  0  0
   10.4479  -15.8128   26.6824 C   0  0  2  0  0  0  0  0  0  0  0  0
    9.8914  -16.1648   25.3946 N   0  0  0  0  0  0  0  0  0  0  0  0
   10.6401  -16.9577   27.5759 C   0  0  0  0  0  0  0  0  0  0  0  0
   10.1525  -18.0605   27.2229 O   0  0  0  0  0  0  0  0  0  0  0  0
   11.3374  -16.8096   28.7633 O   0  0  0  0  0  0  0  0  0  0  0  0
  2  1  1  6
  3  2  1  0
  4  5  1  6
  4  2  1  0
  4  6  1  0
  6  7  2  0
  8  6  1  0
  8  9  1  0
  9 16  1  0
 10 11  1  0
  9 10  1  6
 11 12  2  0
 12 13  1  0
 14 13  1  0
 15 11  1  0
 15 14  2  0
 16 20  1  0
 16 17  2  0
 19 18  1  1
 19 21  1  0
 20 19  1  0
 21 22  2  0
 21 23  1  0
M  END
$$$$
