PVH.pdb
     RDKit          3D

 25 26  0  0  1  0  0  0  0  0999 V2000
    9.1575  -15.1770   13.5184 N   0  0  0  0  0  0  0  0  0  0  0  0
    8.7240  -16.1768   12.5383 C   0  0  0  0  0  0  0  0  0  0  0  0
    8.9592  -17.5137   13.1987 C   0  0  0  0  0  0  0  0  0  0  0  0
    9.1951  -17.1739   14.6592 C   0  0  0  0  0  0  0  0  0  0  0  0
    8.7196  -15.7568   14.7544 C   0  0  1  0  0  0  0  0  0  0  0  0
    9.2076  -15.0510   15.9434 C   0  0  0  0  0  0  0  0  0  0  0  0
   10.4050  -14.6613   15.9470 O   0  0  0  0  0  0  0  0  0  0  0  0
    6.9178  -12.8540   18.7320 C   0  0  0  0  0  0  0  0  0  0  0  0
    7.8582  -13.8607   19.3022 C   0  0  2  0  0  0  0  0  0  0  0  0
    8.5312  -13.3814   20.5890 C   0  0  0  0  0  0  0  0  0  0  0  0
    8.9641  -14.2525   18.3208 C   0  0  2  0  0  0  0  0  0  0  0  0
    8.4234  -14.7736   17.0971 N   0  0  0  0  0  0  0  0  0  0  0  0
    9.9591  -15.1364   18.9443 C   0  0  0  0  0  0  0  0  0  0  0  0
    9.8872  -16.3921   18.9484 O   0  0  0  0  0  0  0  0  0  0  0  0
   11.0876  -14.5655   19.5924 N   0  0  0  0  0  0  0  0  0  0  0  0
   12.2407  -15.3824   20.0149 C   0  0  1  0  0  0  0  0  0  0  0  0
   13.4180  -14.7298   19.3309 C   0  0  0  0  0  0  0  0  0  0  0  0
   14.7216  -15.3044   19.6083 C   0  0  0  0  0  0  0  0  0  0  0  0
   15.6763  -14.6832   20.3943 C   0  0  0  0  0  0  0  0  0  0  0  0
   16.7629  -15.4636   20.4566 N   0  0  0  0  0  0  0  0  0  0  0  0
   16.4862  -16.5545   19.7192 C   0  0  0  0  0  0  0  0  0  0  0  0
   15.2502  -16.4580   19.2056 N   0  0  0  0  0  0  0  0  0  0  0  0
   12.3595  -15.3749   21.4724 C   0  0  0  0  0  0  0  0  0  0  0  0
   13.1355  -16.3306   22.1085 O   0  0  0  0  0  0  0  0  0  0  0  0
   11.7813  -14.5304   22.1691 O   0  0  0  0  0  0  0  0  0  0  0  0
  1  2  1  0
  3  2  1  0
  4  3  1  0
  4  5  1  0
  5  1  1  0
  5  6  1  1
  6  7  2  0
  9  8  1  6
  9 10  1  0
 11 13  1  0
 11  9  1  0
 12  6  1  0
 11 12  1  6
 13 14  2  0
 15 16  1  0
 15 13  1  0
 16 23  1  0
 17 18  1  0
 16 17  1  6
 18 22  1  0
 19 20  1  0
 19 18  2  0
 20 21  1  0
 21 22  2  0
 23 24  1  0
 25 23  2  0
M  END
$$$$
