PVH.pdb
     RDKit          3D

 25 26  0  0  1  0  0  0  0  0999 V2000
    8.4559  -15.0659   19.9831 N   0  0  0  0  0  0  0  0  0  0  0  0
    7.6703  -15.6760   18.9068 C   0  0  0  0  0  0  0  0  0  0  0  0
    6.9704  -16.8543   19.5397 C   0  0  0  0  0  0  0  0  0  0  0  0
    7.1383  -16.6324   21.0320 C   0  0  0  0  0  0  0  0  0  0  0  0
    7.5809  -15.2037   21.1105 C   0  0  1  0  0  0  0  0  0  0  0  0
    8.2053  -14.8505   22.3893 C   0  0  0  0  0  0  0  0  0  0  0  0
    9.4626  -14.8682   22.4557 O   0  0  0  0  0  0  0  0  0  0  0  0
    7.9057  -13.1305   27.0644 C   0  0  0  0  0  0  0  0  0  0  0  0
    7.2524  -13.4069   25.7531 C   0  0  2  0  0  0  0  0  0  0  0  0
    5.8906  -14.0870   25.9007 C   0  0  0  0  0  0  0  0  0  0  0  0
    8.1117  -14.2865   24.8433 C   0  0  2  0  0  0  0  0  0  0  0  0
    7.4908  -14.4880   23.5645 N   0  0  0  0  0  0  0  0  0  0  0  0
    8.5048  -15.5377   25.5067 C   0  0  0  0  0  0  0  0  0  0  0  0
    7.7211  -16.4945   25.7358 O   0  0  0  0  0  0  0  0  0  0  0  0
    9.8511  -15.7081   25.9284 N   0  0  0  0  0  0  0  0  0  0  0  0
   10.3020  -16.9275   26.6250 C   0  0  1  0  0  0  0  0  0  0  0  0
   11.6409  -17.2308   25.9964 C   0  0  0  0  0  0  0  0  0  0  0  0
   11.6136  -17.7136   24.6280 C   0  0  0  0  0  0  0  0  0  0  0  0
   10.6212  -18.5406   24.1317 C   0  0  0  0  0  0  0  0  0  0  0  0
   10.8800  -18.8062   22.8448 N   0  0  0  0  0  0  0  0  0  0  0  0
   12.0177  -18.1529   22.5465 C   0  0  0  0  0  0  0  0  0  0  0  0
   12.4619  -17.4913   23.6263 N   0  0  0  0  0  0  0  0  0  0  0  0
   10.3965  -16.6830   28.0638 C   0  0  0  0  0  0  0  0  0  0  0  0
   10.1461  -15.4171   28.5685 O   0  0  0  0  0  0  0  0  0  0  0  0
   10.6974  -17.5826   28.8593 O   0  0  0  0  0  0  0  0  0  0  0  0
  1  2  1  0
  3  2  1  0
  4  3  1  0
  4  5  1  0
  5  1  1  0
  5  6  1  1
  6  7  2  0
  9  8  1  1
  9 10  1  0
 11 13  1  0
 11  9  1  0
 12  6  1  0
 11 12  1  6
 13 14  2  0
 15 16  1  0
 15 13  1  0
 16 23  1  0
 17 18  1  0
 16 17  1  6
 18 22  1  0
 19 20  1  0
 19 18  2  0
 20 21  1  0
 21 22  2  0
 23 24  1  0
 25 23  2  0
M  END
$$$$
