PVH.pdb
     RDKit          3D

 25 26  0  0  1  0  0  0  0  0999 V2000
    9.0241  -14.4677   19.0990 N   0  0  0  0  0  0  0  0  0  0  0  0
    9.0475  -13.5195   17.9817 C   0  0  0  0  0  0  0  0  0  0  0  0
    7.7063  -12.8277   18.0149 C   0  0  0  0  0  0  0  0  0  0  0  0
    7.1314  -13.1896   19.3724 C   0  0  0  0  0  0  0  0  0  0  0  0
    8.3202  -13.7293   20.1064 C   0  0  1  0  0  0  0  0  0  0  0  0
    7.9711  -14.5260   21.2869 C   0  0  0  0  0  0  0  0  0  0  0  0
    7.3223  -13.9622   22.2071 O   0  0  0  0  0  0  0  0  0  0  0  0
    9.3409  -18.6372   21.9624 C   0  0  0  0  0  0  0  0  0  0  0  0
    7.9717  -18.1686   22.3208 C   0  0  2  0  0  0  0  0  0  0  0  0
    6.9406  -18.4602   21.2298 C   0  0  0  0  0  0  0  0  0  0  0  0
    7.9229  -16.6679   22.6131 C   0  0  2  0  0  0  0  0  0  0  0  0
    8.3136  -15.8945   21.4683 N   0  0  0  0  0  0  0  0  0  0  0  0
    8.6676  -16.3250   23.8329 C   0  0  0  0  0  0  0  0  0  0  0  0
    9.8450  -15.8826   23.8432 O   0  0  0  0  0  0  0  0  0  0  0  0
    8.0440  -16.4927   25.0987 N   0  0  0  0  0  0  0  0  0  0  0  0
    8.7228  -16.1302   26.3570 C   0  0  1  0  0  0  0  0  0  0  0  0
    7.6560  -15.4174   27.1529 C   0  0  0  0  0  0  0  0  0  0  0  0
    7.3413  -14.0630   26.7371 C   0  0  0  0  0  0  0  0  0  0  0  0
    8.0511  -13.3804   25.7647 C   0  0  0  0  0  0  0  0  0  0  0  0
    7.5168  -12.1618   25.6116 N   0  0  0  0  0  0  0  0  0  0  0  0
    6.4894  -12.0892   26.4773 C   0  0  0  0  0  0  0  0  0  0  0  0
    6.3832  -13.2404   27.1587 N   0  0  0  0  0  0  0  0  0  0  0  0
    9.2201  -17.3306   27.0280 C   0  0  0  0  0  0  0  0  0  0  0  0
    8.9200  -18.5834   26.5177 O   0  0  0  0  0  0  0  0  0  0  0  0
    9.9113  -17.2652   28.0531 O   0  0  0  0  0  0  0  0  0  0  0  0
  1  2  1  0
  3  2  1  0
  4  3  1  0
  4  5  1  0
  5  1  1  0
  5  6  1  1
  6  7  2  0
  9  8  1  6
  9 10  1  0
 11 13  1  0
 11  9  1  0
 12  6  1  0
 11 12  1  6
 13 14  2  0
 15 16  1  0
 15 13  1  0
 16 23  1  0
 17 18  1  0
 16 17  1  1
 18 22  1  0
 19 20  1  0
 19 18  2  0
 20 21  1  0
 21 22  2  0
 23 24  1  0
 25 23  2  0
M  END
$$$$
