PVH.pdb
     RDKit          3D

 25 26  0  0  1  0  0  0  0  0999 V2000
    7.1406  -14.6264   20.7146 N   0  0  0  0  0  0  0  0  0  0  0  0
    6.9047  -14.1968   19.3334 C   0  0  0  0  0  0  0  0  0  0  0  0
    7.3961  -12.7711   19.2675 C   0  0  0  0  0  0  0  0  0  0  0  0
    8.2024  -12.5934   20.5413 C   0  0  0  0  0  0  0  0  0  0  0  0
    8.3956  -14.0012   21.0145 C   0  0  1  0  0  0  0  0  0  0  0  0
    8.7822  -14.0999   22.4255 C   0  0  0  0  0  0  0  0  0  0  0  0
   10.0007  -13.9652   22.7131 O   0  0  0  0  0  0  0  0  0  0  0  0
    5.9786  -14.0991   25.7899 C   0  0  0  0  0  0  0  0  0  0  0  0
    7.4008  -13.6519   25.8026 C   0  0  2  0  0  0  0  0  0  0  0  0
    7.5637  -12.1820   25.4132 C   0  0  0  0  0  0  0  0  0  0  0  0
    8.2840  -14.4783   24.8662 C   0  0  2  0  0  0  0  0  0  0  0  0
    7.8772  -14.3379   23.4966 N   0  0  0  0  0  0  0  0  0  0  0  0
    8.3866  -15.8770   25.3059 C   0  0  0  0  0  0  0  0  0  0  0  0
    7.8664  -16.8495   24.7012 O   0  0  0  0  0  0  0  0  0  0  0  0
    9.1146  -16.1831   26.4873 N   0  0  0  0  0  0  0  0  0  0  0  0
    9.9254  -17.4093   26.6083 C   0  0  1  0  0  0  0  0  0  0  0  0
   11.0591  -17.1925   25.6350 C   0  0  0  0  0  0  0  0  0  0  0  0
   10.8523  -17.6885   24.2868 C   0  0  0  0  0  0  0  0  0  0  0  0
    9.7045  -18.3498   23.8862 C   0  0  0  0  0  0  0  0  0  0  0  0
    9.8205  -18.6771   22.5927 N   0  0  0  0  0  0  0  0  0  0  0  0
   11.0240  -18.2250   22.1960 C   0  0  0  0  0  0  0  0  0  0  0  0
   11.6487  -17.6264   23.2218 N   0  0  0  0  0  0  0  0  0  0  0  0
   10.3881  -17.5763   27.9855 C   0  0  0  0  0  0  0  0  0  0  0  0
   10.2099  -16.5545   28.9042 O   0  0  0  0  0  0  0  0  0  0  0  0
   10.9426  -18.6162   28.3651 O   0  0  0  0  0  0  0  0  0  0  0  0
  1  2  1  0
  3  2  1  0
  4  3  1  0
  4  5  1  0
  5  1  1  0
  5  6  1  1
  6  7  2  0
  9  8  1  6
  9 10  1  0
 11 13  1  0
 11  9  1  0
 12  6  1  0
 11 12  1  6
 13 14  2  0
 15 16  1  0
 15 13  1  0
 16 23  1  0
 17 18  1  0
 16 17  1  6
 18 22  1  0
 19 20  1  0
 19 18  2  0
 20 21  1  0
 21 22  2  0
 23 24  1  0
 25 23  2  0
M  END
$$$$
