PVH.pdb
     RDKit          3D

 25 26  0  0  1  0  0  0  0  0999 V2000
    7.3115  -14.8415   20.8307 N   0  0  0  0  0  0  0  0  0  0  0  0
    6.9220  -14.3695   19.4990 C   0  0  0  0  0  0  0  0  0  0  0  0
    6.9605  -12.8627   19.5805 C   0  0  0  0  0  0  0  0  0  0  0  0
    7.7085  -12.5763   20.8699 C   0  0  0  0  0  0  0  0  0  0  0  0
    8.3279  -13.8996   21.1989 C   0  0  1  0  0  0  0  0  0  0  0  0
    8.7625  -14.0153   22.5946 C   0  0  0  0  0  0  0  0  0  0  0  0
    9.9920  -13.8991   22.8401 O   0  0  0  0  0  0  0  0  0  0  0  0
    6.0107  -14.2623   25.9889 C   0  0  0  0  0  0  0  0  0  0  0  0
    7.3789  -13.6711   26.0222 C   0  0  2  0  0  0  0  0  0  0  0  0
    7.3877  -12.1776   25.6936 C   0  0  0  0  0  0  0  0  0  0  0  0
    8.3406  -14.3625   25.0543 C   0  0  2  0  0  0  0  0  0  0  0  0
    7.8925  -14.2503   23.6949 N   0  0  0  0  0  0  0  0  0  0  0  0
    8.6272  -15.7446   25.4639 C   0  0  0  0  0  0  0  0  0  0  0  0
    7.8250  -16.7040   25.3293 O   0  0  0  0  0  0  0  0  0  0  0  0
    9.8839  -16.0491   26.0532 N   0  0  0  0  0  0  0  0  0  0  0  0
   10.1921  -17.3902   26.5842 C   0  0  1  0  0  0  0  0  0  0  0  0
   11.6078  -17.6458   26.1256 C   0  0  0  0  0  0  0  0  0  0  0  0
   11.7826  -17.9436   24.7159 C   0  0  0  0  0  0  0  0  0  0  0  0
   10.7298  -18.0548   23.8246 C   0  0  0  0  0  0  0  0  0  0  0  0
   11.2173  -18.3341   22.6088 N   0  0  0  0  0  0  0  0  0  0  0  0
   12.5545  -18.3954   22.7439 C   0  0  0  0  0  0  0  0  0  0  0  0
   12.8968  -18.1589   24.0198 N   0  0  0  0  0  0  0  0  0  0  0  0
   10.0602  -17.4006   28.0406 C   0  0  0  0  0  0  0  0  0  0  0  0
   10.1632  -18.5945   28.7364 O   0  0  0  0  0  0  0  0  0  0  0  0
    9.8564  -16.3626   28.6840 O   0  0  0  0  0  0  0  0  0  0  0  0
  1  2  1  0
  3  2  1  0
  4  3  1  0
  4  5  1  0
  5  1  1  0
  5  6  1  1
  6  7  2  0
  9  8  1  6
  9 10  1  0
 11 13  1  0
 11  9  1  0
 12  6  1  0
 11 12  1  6
 13 14  2  0
 15 16  1  0
 15 13  1  0
 16 23  1  0
 17 18  1  0
 16 17  1  1
 18 22  1  0
 19 20  1  0
 19 18  2  0
 20 21  1  0
 21 22  2  0
 23 24  1  0
 25 23  2  0
M  END
$$$$
