PVH.pdb
     RDKit          3D

 25 26  0  0  1  0  0  0  0  0999 V2000
    8.3351  -14.9947   20.4993 N   0  0  0  0  0  0  0  0  0  0  0  0
    7.4438  -15.5521   19.4780 C   0  0  0  0  0  0  0  0  0  0  0  0
    6.5582  -16.5312   20.2099 C   0  0  0  0  0  0  0  0  0  0  0  0
    6.7786  -16.2112   21.6773 C   0  0  0  0  0  0  0  0  0  0  0  0
    7.4621  -14.8794   21.6308 C   0  0  1  0  0  0  0  0  0  0  0  0
    8.1524  -14.5284   22.8759 C   0  0  0  0  0  0  0  0  0  0  0  0
    9.3578  -14.8716   22.9980 O   0  0  0  0  0  0  0  0  0  0  0  0
    8.2107  -12.1928   27.3004 C   0  0  0  0  0  0  0  0  0  0  0  0
    7.4855  -12.5338   26.0432 C   0  0  2  0  0  0  0  0  0  0  0  0
    6.0652  -13.0408   26.2967 C   0  0  0  0  0  0  0  0  0  0  0  0
    8.2135  -13.5942   25.2152 C   0  0  2  0  0  0  0  0  0  0  0  0
    7.5568  -13.8258   23.9597 N   0  0  0  0  0  0  0  0  0  0  0  0
    8.4498  -14.8222   25.9874 C   0  0  0  0  0  0  0  0  0  0  0  0
    7.5790  -15.7050   26.1982 O   0  0  0  0  0  0  0  0  0  0  0  0
    9.7358  -15.0566   26.5449 N   0  0  0  0  0  0  0  0  0  0  0  0
   10.0542  -16.2964   27.2776 C   0  0  1  0  0  0  0  0  0  0  0  0
   11.4731  -16.6075   26.8655 C   0  0  0  0  0  0  0  0  0  0  0  0
   11.6580  -17.0823   25.5066 C   0  0  0  0  0  0  0  0  0  0  0  0
   10.6108  -17.3217   24.6342 C   0  0  0  0  0  0  0  0  0  0  0  0
   11.1073  -17.7490   23.4660 N   0  0  0  0  0  0  0  0  0  0  0  0
   12.4446  -17.7745   23.6116 C   0  0  0  0  0  0  0  0  0  0  0  0
   12.7780  -17.3708   24.8472 N   0  0  0  0  0  0  0  0  0  0  0  0
    9.9189  -16.0822   28.7179 C   0  0  0  0  0  0  0  0  0  0  0  0
    9.9881  -17.1589   29.5873 O   0  0  0  0  0  0  0  0  0  0  0  0
    9.7419  -14.9536   29.1951 O   0  0  0  0  0  0  0  0  0  0  0  0
  1  2  1  0
  3  2  1  0
  4  3  1  0
  4  5  1  0
  5  1  1  0
  5  6  1  1
  6  7  2  0
  9  8  1  1
  9 10  1  0
 11 13  1  0
 11  9  1  0
 12  6  1  0
 11 12  1  6
 13 14  2  0
 15 16  1  0
 15 13  1  0
 16 23  1  0
 17 18  1  0
 16 17  1  1
 18 22  1  0
 19 20  1  0
 19 18  2  0
 20 21  1  0
 21 22  2  0
 23 24  1  0
 25 23  2  0
M  END
$$$$
