PVH.pdb
     RDKit          3D

 25 26  0  0  1  0  0  0  0  0999 V2000
    7.0331  -15.0229   21.3860 N   0  0  0  0  0  0  0  0  0  0  0  0
    6.7050  -14.9454   19.9597 C   0  0  0  0  0  0  0  0  0  0  0  0
    7.0621  -13.5394   19.5421 C   0  0  0  0  0  0  0  0  0  0  0  0
    7.8983  -13.0079   20.6921 C   0  0  0  0  0  0  0  0  0  0  0  0
    8.2369  -14.2478   21.4610 C   0  0  1  0  0  0  0  0  0  0  0  0
    8.6860  -13.9858   22.8320 C   0  0  0  0  0  0  0  0  0  0  0  0
    9.8709  -13.5934   22.9988 O   0  0  0  0  0  0  0  0  0  0  0  0
    6.0223  -13.7094   26.2474 C   0  0  0  0  0  0  0  0  0  0  0  0
    7.3683  -13.0771   26.1405 C   0  0  2  0  0  0  0  0  0  0  0  0
    7.3215  -11.6866   25.5058 C   0  0  0  0  0  0  0  0  0  0  0  0
    8.3509  -13.9226   25.3285 C   0  0  2  0  0  0  0  0  0  0  0  0
    7.8772  -14.1434   23.9913 N   0  0  0  0  0  0  0  0  0  0  0  0
    8.7167  -15.1602   26.0318 C   0  0  0  0  0  0  0  0  0  0  0  0
    7.9761  -16.1735   26.1140 O   0  0  0  0  0  0  0  0  0  0  0  0
    9.9831  -15.2491   26.6704 N   0  0  0  0  0  0  0  0  0  0  0  0
   10.4330  -16.4824   27.3427 C   0  0  1  0  0  0  0  0  0  0  0  0
   11.9257  -16.4957   27.1160 C   0  0  0  0  0  0  0  0  0  0  0  0
   12.3652  -16.5637   25.7345 C   0  0  0  0  0  0  0  0  0  0  0  0
   11.4964  -16.6805   24.6636 C   0  0  0  0  0  0  0  0  0  0  0  0
   12.2074  -16.7179   23.5292 N   0  0  0  0  0  0  0  0  0  0  0  0
   13.4999  -16.6255   23.8913 C   0  0  0  0  0  0  0  0  0  0  0  0
   13.5954  -16.5321   25.2266 N   0  0  0  0  0  0  0  0  0  0  0  0
   10.0778  -16.4443   28.7608 C   0  0  0  0  0  0  0  0  0  0  0  0
   10.2680  -17.5656   29.5523 O   0  0  0  0  0  0  0  0  0  0  0  0
    9.6053  -15.4282   29.2872 O   0  0  0  0  0  0  0  0  0  0  0  0
  1  2  1  0
  3  2  1  0
  4  3  1  0
  4  5  1  0
  5  1  1  0
  5  6  1  1
  6  7  2  0
  9  8  1  6
  9 10  1  0
 11 13  1  0
 11  9  1  0
 12  6  1  0
 11 12  1  6
 13 14  2  0
 15 16  1  0
 15 13  1  0
 16 23  1  0
 17 18  1  0
 16 17  1  1
 18 22  1  0
 19 20  1  0
 19 18  2  0
 20 21  1  0
 21 22  2  0
 23 24  1  0
 25 23  2  0
M  END
$$$$
