PVH.pdb
     RDKit          3D

 25 26  0  0  1  0  0  0  0  0999 V2000
    6.7287  -18.7979   20.5578 N   0  0  0  0  0  0  0  0  0  0  0  0
    5.9158  -19.8413   19.9264 C   0  0  0  0  0  0  0  0  0  0  0  0
    5.5405  -19.2920   18.5714 C   0  0  0  0  0  0  0  0  0  0  0  0
    6.4596  -18.0986   18.3831 C   0  0  0  0  0  0  0  0  0  0  0  0
    7.4908  -18.2983   19.4508 C   0  0  1  0  0  0  0  0  0  0  0  0
    8.2589  -17.0883   19.7608 C   0  0  0  0  0  0  0  0  0  0  0  0
    9.4100  -16.9777   19.2625 O   0  0  0  0  0  0  0  0  0  0  0  0
    8.4114  -12.3175   20.9447 C   0  0  0  0  0  0  0  0  0  0  0  0
    7.6704  -13.5784   20.6551 C   0  0  2  0  0  0  0  0  0  0  0  0
    6.4323  -13.7541   21.5353 C   0  0  0  0  0  0  0  0  0  0  0  0
    8.5413  -14.8239   20.8291 C   0  0  2  0  0  0  0  0  0  0  0  0
    7.7960  -16.0269   20.5866 N   0  0  0  0  0  0  0  0  0  0  0  0
    9.2454  -14.8216   22.1192 C   0  0  0  0  0  0  0  0  0  0  0  0
   10.0853  -13.9520   22.4661 O   0  0  0  0  0  0  0  0  0  0  0  0
    8.9817  -15.8558   23.0574 N   0  0  0  0  0  0  0  0  0  0  0  0
    9.6436  -15.9016   24.3747 C   0  0  1  0  0  0  0  0  0  0  0  0
    8.5110  -16.1498   25.3418 C   0  0  0  0  0  0  0  0  0  0  0  0
    7.5901  -15.0474   25.5493 C   0  0  0  0  0  0  0  0  0  0  0  0
    7.9964  -13.7325   25.6946 C   0  0  0  0  0  0  0  0  0  0  0  0
    6.9159  -12.9606   25.8696 N   0  0  0  0  0  0  0  0  0  0  0  0
    5.8536  -13.7854   25.8335 C   0  0  0  0  0  0  0  0  0  0  0  0
    6.2619  -15.0490   25.6395 N   0  0  0  0  0  0  0  0  0  0  0  0
   10.6495  -16.9629   24.3992 C   0  0  0  0  0  0  0  0  0  0  0  0
   11.3461  -17.2293   25.5670 O   0  0  0  0  0  0  0  0  0  0  0  0
   10.9043  -17.6425   23.3962 O   0  0  0  0  0  0  0  0  0  0  0  0
  1  2  1  0
  3  2  1  0
  4  3  1  0
  4  5  1  0
  5  1  1  0
  5  6  1  1
  6  7  2  0
  9  8  1  1
  9 10  1  0
 11 13  1  0
 11  9  1  0
 12  6  1  0
 11 12  1  1
 13 14  2  0
 15 16  1  0
 15 13  1  0
 16 23  1  0
 17 18  1  0
 16 17  1  1
 18 22  1  0
 19 20  1  0
 19 18  2  0
 20 21  1  0
 21 22  2  0
 23 24  1  0
 25 23  2  0
M  END
$$$$
