PVH.pdb
     RDKit          3D

 25 26  0  0  1  0  0  0  0  0999 V2000
    7.4227  -16.2057   21.6566 N   0  0  0  0  0  0  0  0  0  0  0  0
    7.0191  -16.3233   20.2526 C   0  0  0  0  0  0  0  0  0  0  0  0
    6.7416  -14.9115   19.7957 C   0  0  0  0  0  0  0  0  0  0  0  0
    7.3416  -14.0405   20.8845 C   0  0  0  0  0  0  0  0  0  0  0  0
    8.2011  -15.0016   21.6466 C   0  0  1  0  0  0  0  0  0  0  0  0
    8.5718  -14.5270   22.9836 C   0  0  0  0  0  0  0  0  0  0  0  0
    9.6848  -13.9534   23.1173 O   0  0  0  0  0  0  0  0  0  0  0  0
    6.2649  -12.4617   25.3357 C   0  0  0  0  0  0  0  0  0  0  0  0
    6.9201  -13.5281   26.1459 C   0  0  2  0  0  0  0  0  0  0  0  0
    7.3989  -13.0271   27.5091 C   0  0  0  0  0  0  0  0  0  0  0  0
    8.1225  -14.1504   25.4341 C   0  0  2  0  0  0  0  0  0  0  0  0
    7.7623  -14.6684   24.1444 N   0  0  0  0  0  0  0  0  0  0  0  0
    8.8144  -15.1286   26.2853 C   0  0  0  0  0  0  0  0  0  0  0  0
    9.1752  -14.9070   27.4697 O   0  0  0  0  0  0  0  0  0  0  0  0
    9.1088  -16.4179   25.7653 N   0  0  0  0  0  0  0  0  0  0  0  0
    9.6592  -17.4934   26.6114 C   0  0  1  0  0  0  0  0  0  0  0  0
    9.1295  -18.7588   25.9807 C   0  0  0  0  0  0  0  0  0  0  0  0
    8.1016  -19.4651   26.7228 C   0  0  0  0  0  0  0  0  0  0  0  0
    6.8125  -19.6473   26.2535 C   0  0  0  0  0  0  0  0  0  0  0  0
    6.1108  -20.3329   27.1653 N   0  0  0  0  0  0  0  0  0  0  0  0
    6.9531  -20.5727   28.1867 C   0  0  0  0  0  0  0  0  0  0  0  0
    8.1585  -20.0473   27.9187 N   0  0  0  0  0  0  0  0  0  0  0  0
   11.1204  -17.4348   26.6178 C   0  0  0  0  0  0  0  0  0  0  0  0
   11.8336  -18.0546   27.6313 O   0  0  0  0  0  0  0  0  0  0  0  0
   11.7527  -16.8408   25.7343 O   0  0  0  0  0  0  0  0  0  0  0  0
  1  2  1  0
  3  2  1  0
  4  3  1  0
  4  5  1  0
  5  1  1  0
  5  6  1  1
  6  7  2  0
  9  8  1  6
  9 10  1  0
 11 13  1  0
 11  9  1  0
 12  6  1  0
 11 12  1  6
 13 14  2  0
 15 16  1  0
 15 13  1  0
 16 23  1  0
 17 18  1  0
 16 17  1  6
 18 22  1  0
 19 20  1  0
 19 18  2  0
 20 21  1  0
 21 22  2  0
 23 24  1  0
 25 23  2  0
M  END
$$$$
