PVH.pdb
     RDKit          3D

 25 26  0  0  1  0  0  0  0  0999 V2000
    8.7144  -14.2304   20.6032 N   0  0  0  0  0  0  0  0  0  0  0  0
    7.9955  -14.3673   19.3334 C   0  0  0  0  0  0  0  0  0  0  0  0
    6.8160  -15.2599   19.6347 C   0  0  0  0  0  0  0  0  0  0  0  0
    6.7507  -15.2954   21.1509 C   0  0  0  0  0  0  0  0  0  0  0  0
    7.6411  -14.1596   21.5512 C   0  0  1  0  0  0  0  0  0  0  0  0
    8.0820  -14.2217   22.9483 C   0  0  0  0  0  0  0  0  0  0  0  0
    9.1706  -14.8036   23.1970 O   0  0  0  0  0  0  0  0  0  0  0  0
    5.5257  -13.1158   26.3728 C   0  0  0  0  0  0  0  0  0  0  0  0
    7.0036  -12.9207   26.3537 C   0  0  2  0  0  0  0  0  0  0  0  0
    7.4098  -11.5079   25.9319 C   0  0  0  0  0  0  0  0  0  0  0  0
    7.7131  -13.9032   25.4204 C   0  0  2  0  0  0  0  0  0  0  0  0
    7.3664  -13.6702   24.0468 N   0  0  0  0  0  0  0  0  0  0  0  0
    7.5185  -15.2967   25.8449 C   0  0  0  0  0  0  0  0  0  0  0  0
    6.4586  -15.9501   25.6665 O   0  0  0  0  0  0  0  0  0  0  0  0
    8.5782  -15.9781   26.5022 N   0  0  0  0  0  0  0  0  0  0  0  0
    8.4164  -17.3446   27.0331 C   0  0  1  0  0  0  0  0  0  0  0  0
    8.0991  -18.1735   25.8117 C   0  0  0  0  0  0  0  0  0  0  0  0
    9.1703  -18.3294   24.8449 C   0  0  0  0  0  0  0  0  0  0  0  0
   10.3903  -17.6847   24.9493 C   0  0  0  0  0  0  0  0  0  0  0  0
   11.1570  -18.0341   23.9082 N   0  0  0  0  0  0  0  0  0  0  0  0
   10.4226  -18.8842   23.1678 C   0  0  0  0  0  0  0  0  0  0  0  0
    9.2196  -19.0630   23.7350 N   0  0  0  0  0  0  0  0  0  0  0  0
    9.6422  -17.7753   27.7045 C   0  0  0  0  0  0  0  0  0  0  0  0
    9.6990  -19.0206   28.3094 O   0  0  0  0  0  0  0  0  0  0  0  0
   10.6472  -17.0538   27.7519 O   0  0  0  0  0  0  0  0  0  0  0  0
  1  2  1  0
  3  2  1  0
  4  3  1  0
  4  5  1  0
  5  1  1  0
  5  6  1  1
  6  7  2  0
  9  8  1  6
  9 10  1  0
 11 13  1  0
 11  9  1  0
 12  6  1  0
 11 12  1  6
 13 14  2  0
 15 16  1  0
 15 13  1  0
 16 23  1  0
 17 18  1  0
 16 17  1  6
 18 22  1  0
 19 20  1  0
 19 18  2  0
 20 21  1  0
 21 22  2  0
 23 24  1  0
 25 23  2  0
M  END
$$$$
