PVH.pdb
     RDKit          3D

 25 26  0  0  1  0  0  0  0  0999 V2000
    9.6089  -16.7799   15.6254 N   0  0  0  0  0  0  0  0  0  0  0  0
    9.0647  -17.6879   14.6119 C   0  0  0  0  0  0  0  0  0  0  0  0
    8.3232  -18.7523   15.3839 C   0  0  0  0  0  0  0  0  0  0  0  0
    8.2052  -18.1840   16.7866 C   0  0  0  0  0  0  0  0  0  0  0  0
    8.5518  -16.7399   16.5932 C   0  0  1  0  0  0  0  0  0  0  0  0
    8.9141  -16.0502   17.8354 C   0  0  0  0  0  0  0  0  0  0  0  0
   10.1206  -16.0790   18.1947 O   0  0  0  0  0  0  0  0  0  0  0  0
    7.1763  -12.6402   19.3987 C   0  0  0  0  0  0  0  0  0  0  0  0
    7.3356  -13.7384   20.3943 C   0  0  2  0  0  0  0  0  0  0  0  0
    7.7759  -13.2333   21.7690 C   0  0  0  0  0  0  0  0  0  0  0  0
    8.3459  -14.7956   19.9453 C   0  0  2  0  0  0  0  0  0  0  0  0
    7.9980  -15.3485   18.6669 N   0  0  0  0  0  0  0  0  0  0  0  0
    8.5682  -15.8131   20.9822 C   0  0  0  0  0  0  0  0  0  0  0  0
    7.8804  -16.8587   21.1076 O   0  0  0  0  0  0  0  0  0  0  0  0
    9.6215  -15.6330   21.9190 N   0  0  0  0  0  0  0  0  0  0  0  0
   10.3034  -16.7755   22.5554 C   0  0  1  0  0  0  0  0  0  0  0  0
   10.8024  -17.5956   21.3900 C   0  0  0  0  0  0  0  0  0  0  0  0
   11.4910  -18.8297   21.7207 C   0  0  0  0  0  0  0  0  0  0  0  0
   11.6030  -19.3172   23.0111 C   0  0  0  0  0  0  0  0  0  0  0  0
   12.2906  -20.4662   22.9834 N   0  0  0  0  0  0  0  0  0  0  0  0
   12.6010  -20.6886   21.6933 C   0  0  0  0  0  0  0  0  0  0  0  0
   12.1168  -19.6977   20.9288 N   0  0  0  0  0  0  0  0  0  0  0  0
   11.3861  -16.3027   23.4174 C   0  0  0  0  0  0  0  0  0  0  0  0
   11.6922  -14.9522   23.4663 O   0  0  0  0  0  0  0  0  0  0  0  0
   12.0493  -17.0801   24.1164 O   0  0  0  0  0  0  0  0  0  0  0  0
  1  2  1  0
  3  2  1  0
  4  3  1  0
  4  5  1  0
  5  1  1  0
  5  6  1  1
  6  7  2  0
  9  8  1  6
  9 10  1  0
 11 13  1  0
 11  9  1  0
 12  6  1  0
 11 12  1  6
 13 14  2  0
 15 16  1  0
 15 13  1  0
 16 23  1  0
 17 18  1  0
 16 17  1  6
 18 22  1  0
 19 20  1  0
 19 18  2  0
 20 21  1  0
 21 22  2  0
 23 24  1  0
 25 23  2  0
M  END
$$$$
