RRE.pdb
     RDKit          3D

 32 31  0  0  1  0  0  0  0  0999 V2000
    9.2896  -13.6069   17.4256 N   0  0  0  0  0  0  0  0  0  0  0  0
    9.9018  -13.2520   18.6833 C   0  0  0  0  0  0  0  0  0  0  0  0
   11.1829  -13.2592   18.8193 N   0  0  0  0  0  0  0  0  0  0  0  0
    9.1167  -12.8882   19.8024 N   0  0  0  0  0  0  0  0  0  0  0  0
    7.6775  -13.1350   19.7969 C   0  0  0  0  0  0  0  0  0  0  0  0
    7.4694  -14.6146   19.9622 C   0  0  0  0  0  0  0  0  0  0  0  0
    7.7524  -15.1776   21.3004 C   0  0  0  0  0  0  0  0  0  0  0  0
    7.4313  -16.6072   21.5354 C   0  0  2  0  0  0  0  0  0  0  0  0
    6.2077  -17.0900   20.9856 N   0  0  0  0  0  0  0  0  0  0  0  0
    7.5041  -16.8317   23.0141 C   0  0  0  0  0  0  0  0  0  0  0  0
    6.4490  -16.6882   23.6850 O   0  0  0  0  0  0  0  0  0  0  0  0
   11.7178  -13.0322   19.6554 N   0  0  0  0  0  0  0  0  0  0  0  0
   11.9955  -20.1442   30.7563 C   0  0  0  0  0  0  0  0  0  0  0  0
   12.0290  -19.4767   29.4970 N   0  0  0  0  0  0  0  0  0  0  0  0
   13.0227  -18.7217   29.2192 N   0  0  0  0  0  0  0  0  0  0  0  0
   10.9774  -19.6371   28.5509 C   0  0  0  0  0  0  0  0  0  0  0  0
   11.2423  -19.2984   27.1789 C   0  0  0  0  0  0  0  0  0  0  0  0
   10.3788  -18.1226   26.7867 C   0  0  0  0  0  0  0  0  0  0  0  0
    9.6094  -18.4048   25.5372 C   0  0  1  0  0  0  0  0  0  0  0  0
    8.8380  -17.1835   25.1283 N   0  0  0  0  0  0  0  0  0  0  0  0
    8.6798  -17.1920   23.6898 C   0  0  0  0  0  0  0  0  0  0  0  0
    9.4251  -15.9280   25.6246 O   0  0  0  0  0  0  0  0  0  0  0  0
   10.4620  -15.4924   25.0651 N   0  0  0  0  0  0  0  0  0  0  0  0
   13.0550  -18.2250   28.3048 C   0  0  2  0  0  0  0  0  0  0  0  0
    8.8839  -15.1948   26.6918 C   0  0  0  0  0  0  0  0  0  0  0  0
    9.5116  -13.9290   27.1328 C   0  0  0  0  0  0  0  0  0  0  0  0
    8.4502  -12.9380   27.4521 C   0  0  0  0  0  0  0  0  0  0  0  0
    7.1762  -13.2153   26.7193 O   0  0  0  0  0  0  0  0  0  0  0  0
    6.0538  -12.3215   27.0451 C   0  0  0  0  0  0  0  0  0  0  0  0
    6.1477  -11.4009   27.8641 O   0  0  0  0  0  0  0  0  0  0  0  0
   10.4152  -14.2042   28.2670 O   0  0  0  0  0  0  0  0  0  0  0  0
   11.1221  -13.2540   28.7344 O   0  0  0  0  0  0  0  0  0  0  0  0
  2  3  2  0
  2  1  1  0
  4  2  1  0
  5  4  1  0
  6  7  1  0
  6  5  1  0
  8 10  1  0
  8  7  1  0
  8  9  1  1
 10 11  2  0
 13 12  1  0
 14 13  2  0
 15 13  1  0
 16 15  1  0
 17 16  1  0
 17 18  1  0
 19 18  1  1
 20 19  1  0
 20 10  1  0
 21 23  1  0
 21 19  1  0
 22 21  2  0
 24 25  1  1
 24 23  1  0
 25 26  1  0
 26 27  1  0
 27 31  1  0
 27 28  2  0
 29 32  1  0
 29 24  1  0
 30 29  2  0
M  END
$$$$
