RRE.pdb
     RDKit          3D

 32 31  0  0  1  0  0  0  0  0999 V2000
    6.2215  -22.9358   14.6167 N   0  0  0  0  0  0  0  0  0  0  0  0
    6.0219  -22.2488   15.8701 C   0  0  0  0  0  0  0  0  0  0  0  0
    5.1632  -21.2936   15.9699 N   0  0  0  0  0  0  0  0  0  0  0  0
    6.7619  -22.6004   17.0233 N   0  0  0  0  0  0  0  0  0  0  0  0
    8.1994  -22.8377   16.9251 C   0  0  0  0  0  0  0  0  0  0  0  0
    8.8592  -22.1086   18.0621 C   0  0  0  0  0  0  0  0  0  0  0  0
    9.1763  -20.6813   17.8382 C   0  0  0  0  0  0  0  0  0  0  0  0
   10.5958  -20.3112   17.6146 C   0  0  2  0  0  0  0  0  0  0  0  0
   11.5792  -21.2598   18.0215 N   0  0  0  0  0  0  0  0  0  0  0  0
   10.8052  -18.9786   18.2647 C   0  0  0  0  0  0  0  0  0  0  0  0
   11.9886  -18.5910   18.4473 O   0  0  0  0  0  0  0  0  0  0  0  0
    4.9668  -20.7211   16.7886 N   0  0  0  0  0  0  0  0  0  0  0  0
    8.1128  -12.9833   21.8845 C   0  0  0  0  0  0  0  0  0  0  0  0
    8.1216  -12.0336   20.8212 N   0  0  0  0  0  0  0  0  0  0  0  0
    8.3634  -10.8062   21.0852 N   0  0  0  0  0  0  0  0  0  0  0  0
    7.8656  -12.4302   19.4782 C   0  0  0  0  0  0  0  0  0  0  0  0
    7.5725  -13.8147   19.2242 C   0  0  0  0  0  0  0  0  0  0  0  0
    8.8148  -14.6355   19.4795 C   0  0  0  0  0  0  0  0  0  0  0  0
    8.6532  -16.0361   18.9844 C   0  0  2  0  0  0  0  0  0  0  0  0
    9.9308  -16.7979   19.1881 N   0  0  0  0  0  0  0  0  0  0  0  0
    9.7583  -18.1418   18.6799 C   0  0  0  0  0  0  0  0  0  0  0  0
   10.4077  -16.7776   20.5807 O   0  0  0  0  0  0  0  0  0  0  0  0
   10.6951  -15.6689   21.0966 N   0  0  0  0  0  0  0  0  0  0  0  0
    8.3443  -10.0994   20.3210 C   0  0  1  0  0  0  0  0  0  0  0  0
   10.5577  -17.9353   21.3594 C   0  0  0  0  0  0  0  0  0  0  0  0
   11.0121  -17.8458   22.7652 C   0  0  0  0  0  0  0  0  0  0  0  0
   11.8108  -19.0536   23.1026 C   0  0  0  0  0  0  0  0  0  0  0  0
   11.4375  -19.6273   24.4323 O   0  0  0  0  0  0  0  0  0  0  0  0
   12.2325  -20.7876   24.8643 C   0  0  0  0  0  0  0  0  0  0  0  0
   12.3173  -21.8255   24.1991 O   0  0  0  0  0  0  0  0  0  0  0  0
   11.7517  -16.5830   22.9572 O   0  0  0  0  0  0  0  0  0  0  0  0
   12.6892  -16.2903   22.1471 O   0  0  0  0  0  0  0  0  0  0  0  0
  2  3  2  0
  2  1  1  0
  4  2  1  0
  5  4  1  0
  6  7  1  0
  6  5  1  0
  8 10  1  0
  8  7  1  0
  8  9  1  1
 10 11  2  0
 13 12  1  0
 14 13  2  0
 15 13  1  0
 16 15  1  0
 17 16  1  0
 17 18  1  0
 19 18  1  6
 20 19  1  0
 20 10  1  0
 21 23  1  0
 21 19  1  0
 22 21  2  0
 24 25  1  6
 24 23  1  0
 25 26  1  0
 26 27  1  0
 27 31  1  0
 27 28  2  0
 29 32  1  0
 29 24  1  0
 30 29  2  0
M  END
$$$$
