RRE.pdb
     RDKit          3D

 32 31  0  0  1  0  0  0  0  0999 V2000
   10.5011  -15.8971   30.7847 N   0  0  0  0  0  0  0  0  0  0  0  0
   10.4787  -15.0142   29.6434 C   0  0  0  0  0  0  0  0  0  0  0  0
   10.3091  -13.7459   29.7932 N   0  0  0  0  0  0  0  0  0  0  0  0
   10.6399  -15.5126   28.3293 N   0  0  0  0  0  0  0  0  0  0  0  0
    9.5095  -16.1236   27.6356 C   0  0  0  0  0  0  0  0  0  0  0  0
    9.4322  -15.5109   26.2650 C   0  0  0  0  0  0  0  0  0  0  0  0
    9.9311  -16.3348   25.1424 C   0  0  0  0  0  0  0  0  0  0  0  0
    8.9417  -17.1174   24.3609 C   0  0  2  0  0  0  0  0  0  0  0  0
    8.8484  -18.5098   24.6527 N   0  0  0  0  0  0  0  0  0  0  0  0
    9.2374  -16.8704   22.9139 C   0  0  0  0  0  0  0  0  0  0  0  0
    9.9671  -17.6999   22.3112 O   0  0  0  0  0  0  0  0  0  0  0  0
   10.2874  -13.0342   29.0653 N   0  0  0  0  0  0  0  0  0  0  0  0
    8.8128  -15.1487   16.0393 C   0  0  0  0  0  0  0  0  0  0  0  0
    7.9948  -13.9899   15.8956 N   0  0  0  0  0  0  0  0  0  0  0  0
    7.2211  -13.8962   14.8820 N   0  0  0  0  0  0  0  0  0  0  0  0
    8.0279  -12.9417   16.8583 C   0  0  0  0  0  0  0  0  0  0  0  0
    7.5822  -13.2334   18.1938 C   0  0  0  0  0  0  0  0  0  0  0  0
    8.6265  -14.0755   18.8883 C   0  0  0  0  0  0  0  0  0  0  0  0
    8.1699  -14.4982   20.2467 C   0  0  2  0  0  0  0  0  0  0  0  0
    9.2151  -15.3647   20.8877 N   0  0  0  0  0  0  0  0  0  0  0  0
    8.7472  -15.7688   22.1962 C   0  0  0  0  0  0  0  0  0  0  0  0
   10.5466  -14.7384   20.9325 O   0  0  0  0  0  0  0  0  0  0  0  0
   10.9135  -14.1932   22.0030 N   0  0  0  0  0  0  0  0  0  0  0  0
    6.6275  -13.0495   14.7611 C   0  0  2  0  0  0  0  0  0  0  0  0
   11.4251  -14.7199   19.8384 C   0  0  0  0  0  0  0  0  0  0  0  0
   12.8708  -14.4709   20.0354 C   0  0  0  0  0  0  0  0  0  0  0  0
   13.4082  -15.4444   21.0224 C   0  0  0  0  0  0  0  0  0  0  0  0
   14.8827  -15.2940   21.2225 O   0  0  0  0  0  0  0  0  0  0  0  0
   15.4914  -16.2445   22.1662 C   0  0  0  0  0  0  0  0  0  0  0  0
   14.8223  -16.9890   22.8908 O   0  0  0  0  0  0  0  0  0  0  0  0
   13.5555  -14.5241   18.7289 O   0  0  0  0  0  0  0  0  0  0  0  0
   13.0462  -15.2250   17.7960 O   0  0  0  0  0  0  0  0  0  0  0  0
  2  3  2  0
  2  1  1  0
  4  2  1  0
  5  4  1  0
  6  7  1  0
  6  5  1  0
  8 10  1  0
  8  7  1  0
  8  9  1  6
 10 11  2  0
 13 12  1  0
 14 13  2  0
 15 13  1  0
 16 15  1  0
 17 16  1  0
 17 18  1  0
 19 18  1  6
 20 19  1  0
 20 10  1  0
 21 23  1  0
 21 19  1  0
 22 21  2  0
 24 25  1  6
 24 23  1  0
 25 26  1  0
 26 27  1  0
 27 31  1  0
 27 28  2  0
 29 32  1  0
 29 24  1  0
 30 29  2  0
M  END
$$$$
