RRE.pdb
     RDKit          3D

 32 31  0  0  1  0  0  0  0  0999 V2000
    8.2499  -12.9432   15.0566 N   0  0  0  0  0  0  0  0  0  0  0  0
    8.0421  -14.1940   15.7456 C   0  0  0  0  0  0  0  0  0  0  0  0
    8.3459  -15.3141   15.1864 N   0  0  0  0  0  0  0  0  0  0  0  0
    7.4987  -14.2289   17.0512 N   0  0  0  0  0  0  0  0  0  0  0  0
    7.3003  -12.9872   17.7937 C   0  0  0  0  0  0  0  0  0  0  0  0
    8.2860  -12.9738   18.9285 C   0  0  0  0  0  0  0  0  0  0  0  0
    8.0433  -13.9334   20.0277 C   0  0  0  0  0  0  0  0  0  0  0  0
    9.2172  -14.6143   20.6281 C   0  0  2  0  0  0  0  0  0  0  0  0
    9.9602  -15.4843   19.7775 N   0  0  0  0  0  0  0  0  0  0  0  0
    8.7299  -15.3189   21.8562 C   0  0  0  0  0  0  0  0  0  0  0  0
    8.2139  -14.6234   22.7695 O   0  0  0  0  0  0  0  0  0  0  0  0
    8.2717  -16.2467   15.5882 N   0  0  0  0  0  0  0  0  0  0  0  0
    7.0087  -21.2840   24.7039 C   0  0  0  0  0  0  0  0  0  0  0  0
    5.8838  -21.6018   23.8877 N   0  0  0  0  0  0  0  0  0  0  0  0
    5.1206  -22.5691   24.2291 N   0  0  0  0  0  0  0  0  0  0  0  0
    5.6007  -20.8623   22.7046 C   0  0  0  0  0  0  0  0  0  0  0  0
    6.7066  -20.4361   21.8905 C   0  0  0  0  0  0  0  0  0  0  0  0
    7.0062  -18.9856   22.1877 C   0  0  0  0  0  0  0  0  0  0  0  0
    8.2620  -18.8411   22.9842 C   0  0  2  0  0  0  0  0  0  0  0  0
    8.5113  -17.3908   23.2818 N   0  0  0  0  0  0  0  0  0  0  0  0
    8.8169  -16.7067   22.0437 C   0  0  0  0  0  0  0  0  0  0  0  0
    9.5374  -17.1741   24.3150 O   0  0  0  0  0  0  0  0  0  0  0  0
   10.7458  -17.2567   23.9821 N   0  0  0  0  0  0  0  0  0  0  0  0
    4.3402  -22.8576   23.6035 C   0  0  2  0  0  0  0  0  0  0  0  0
    9.2320  -16.8806   25.6529 C   0  0  0  0  0  0  0  0  0  0  0  0
   10.3089  -16.6012   26.6291 C   0  0  0  0  0  0  0  0  0  0  0  0
    9.8601  -15.5380   27.5665 C   0  0  0  0  0  0  0  0  0  0  0  0
   10.8421  -15.3031   28.6698 O   0  0  0  0  0  0  0  0  0  0  0  0
   10.4707  -14.2538   29.6320 C   0  0  0  0  0  0  0  0  0  0  0  0
    9.4023  -13.6362   29.5690 O   0  0  0  0  0  0  0  0  0  0  0  0
   10.6882  -17.8564   27.3066 O   0  0  0  0  0  0  0  0  0  0  0  0
    9.7930  -18.7376   27.5145 O   0  0  0  0  0  0  0  0  0  0  0  0
  2  3  2  0
  2  1  1  0
  4  2  1  0
  5  4  1  0
  6  7  1  0
  6  5  1  0
  8 10  1  0
  8  7  1  0
  8  9  1  6
 10 11  2  0
 13 12  1  0
 14 13  2  0
 15 13  1  0
 16 15  1  0
 17 16  1  0
 17 18  1  0
 19 18  1  6
 20 19  1  0
 20 10  1  0
 21 23  1  0
 21 19  1  0
 22 21  2  0
 24 25  1  1
 24 23  1  0
 25 26  1  0
 26 27  1  0
 27 31  1  0
 27 28  2  0
 29 32  1  0
 29 24  1  0
 30 29  2  0
M  END
$$$$
