RRE.pdb
     RDKit          3D

 32 31  0  0  1  0  0  0  0  0999 V2000
   10.9840  -23.8895   16.9852 N   0  0  0  0  0  0  0  0  0  0  0  0
   12.2523  -24.0469   16.3150 C   0  0  0  0  0  0  0  0  0  0  0  0
   12.3512  -24.7636   15.2490 N   0  0  0  0  0  0  0  0  0  0  0  0
   13.4225  -23.4228   16.8071 N   0  0  0  0  0  0  0  0  0  0  0  0
   13.3754  -22.6580   18.0502 C   0  0  0  0  0  0  0  0  0  0  0  0
   13.0653  -21.2307   17.6943 C   0  0  0  0  0  0  0  0  0  0  0  0
   12.0490  -20.5474   18.5238 C   0  0  0  0  0  0  0  0  0  0  0  0
   11.6448  -19.1731   18.1363 C   0  0  2  0  0  0  0  0  0  0  0  0
   12.0872  -18.7078   16.8634 N   0  0  0  0  0  0  0  0  0  0  0  0
   12.0797  -18.2636   19.2435 C   0  0  0  0  0  0  0  0  0  0  0  0
   13.2581  -17.8226   19.2158 O   0  0  0  0  0  0  0  0  0  0  0  0
   13.2027  -25.0239   14.7551 N   0  0  0  0  0  0  0  0  0  0  0  0
    6.7088  -13.8346   18.9206 C   0  0  0  0  0  0  0  0  0  0  0  0
    7.2613  -13.5925   20.2123 N   0  0  0  0  0  0  0  0  0  0  0  0
    7.0290  -12.4753   20.7890 N   0  0  0  0  0  0  0  0  0  0  0  0
    8.0639  -14.5707   20.8646 C   0  0  0  0  0  0  0  0  0  0  0  0
    8.4523  -15.7365   20.1181 C   0  0  0  0  0  0  0  0  0  0  0  0
    9.1793  -16.6898   21.0372 C   0  0  0  0  0  0  0  0  0  0  0  0
   10.4024  -16.0589   21.6190 C   0  0  1  0  0  0  0  0  0  0  0  0
   11.6041  -16.9074   21.3190 N   0  0  0  0  0  0  0  0  0  0  0  0
   11.2484  -17.8777   20.3059 C   0  0  0  0  0  0  0  0  0  0  0  0
   12.1933  -17.5304   22.5156 O   0  0  0  0  0  0  0  0  0  0  0  0
   11.6747  -18.5869   22.9546 N   0  0  0  0  0  0  0  0  0  0  0  0
    7.4774  -12.2626   21.7042 C   0  0  2  0  0  0  0  0  0  0  0  0
   13.3047  -17.0018   23.1898 C   0  0  0  0  0  0  0  0  0  0  0  0
   13.8943  -17.7130   24.3463 C   0  0  0  0  0  0  0  0  0  0  0  0
   15.3698  -17.5301   24.3369 C   0  0  0  0  0  0  0  0  0  0  0  0
   15.7630  -16.1011   24.1365 O   0  0  0  0  0  0  0  0  0  0  0  0
   17.2108  -15.8496   24.0636 C   0  0  0  0  0  0  0  0  0  0  0  0
   17.8824  -15.5176   25.0463 O   0  0  0  0  0  0  0  0  0  0  0  0
   13.2537  -17.2366   25.5877 O   0  0  0  0  0  0  0  0  0  0  0  0
   12.3896  -16.3044   25.5150 O   0  0  0  0  0  0  0  0  0  0  0  0
  2  3  2  0
  2  1  1  0
  4  2  1  0
  5  4  1  0
  6  7  1  0
  6  5  1  0
  8 10  1  0
  8  7  1  0
  8  9  1  6
 10 11  2  0
 13 12  1  0
 14 13  2  0
 15 13  1  0
 16 15  1  0
 17 16  1  0
 17 18  1  0
 19 18  1  6
 20 19  1  0
 20 10  1  0
 21 23  1  0
 21 19  1  0
 22 21  2  0
 24 25  1  1
 24 23  1  0
 25 26  1  0
 26 27  1  0
 27 31  1  0
 27 28  2  0
 29 32  1  0
 29 24  1  0
 30 29  2  0
M  END
$$$$
