RRE.pdb
     RDKit          3D

 32 31  0  0  1  0  0  0  0  0999 V2000
    8.8934  -12.9649   18.1134 N   0  0  0  0  0  0  0  0  0  0  0  0
    8.5855  -12.2706   19.3404 C   0  0  0  0  0  0  0  0  0  0  0  0
    8.6632  -10.9865   19.4097 N   0  0  0  0  0  0  0  0  0  0  0  0
    8.1919  -12.9762   20.5016 N   0  0  0  0  0  0  0  0  0  0  0  0
    7.0283  -13.8575   20.4621 C   0  0  0  0  0  0  0  0  0  0  0  0
    7.4352  -15.1159   19.7475 C   0  0  0  0  0  0  0  0  0  0  0  0
    8.6658  -15.7815   20.2276 C   0  0  0  0  0  0  0  0  0  0  0  0
    8.6156  -17.2447   20.4697 C   0  0  2  0  0  0  0  0  0  0  0  0
    7.3988  -17.9097   20.1387 N   0  0  0  0  0  0  0  0  0  0  0  0
    8.9970  -17.4617   21.9014 C   0  0  0  0  0  0  0  0  0  0  0  0
    8.0956  -17.3593   22.7738 O   0  0  0  0  0  0  0  0  0  0  0  0
    8.5419  -10.4028   20.2351 N   0  0  0  0  0  0  0  0  0  0  0  0
   13.9531  -22.5969   25.0403 C   0  0  0  0  0  0  0  0  0  0  0  0
   13.5637  -22.8092   23.6854 N   0  0  0  0  0  0  0  0  0  0  0  0
   13.2238  -23.9839   23.3124 N   0  0  0  0  0  0  0  0  0  0  0  0
   13.5492  -21.7383   22.7475 C   0  0  0  0  0  0  0  0  0  0  0  0
   13.5645  -20.3929   23.2543 C   0  0  0  0  0  0  0  0  0  0  0  0
   12.1591  -19.8396   23.2242 C   0  0  0  0  0  0  0  0  0  0  0  0
   12.1148  -18.4376   23.7390 C   0  0  2  0  0  0  0  0  0  0  0  0
   10.7034  -17.9270   23.7027 N   0  0  0  0  0  0  0  0  0  0  0  0
   10.2992  -17.7717   22.3218 C   0  0  0  0  0  0  0  0  0  0  0  0
   10.5055  -16.6993   24.4906 O   0  0  0  0  0  0  0  0  0  0  0  0
   10.8352  -15.6014   23.9770 N   0  0  0  0  0  0  0  0  0  0  0  0
   13.0998  -24.1892   22.2993 C   0  0  1  0  0  0  0  0  0  0  0  0
    9.9676  -16.6955   25.7867 C   0  0  0  0  0  0  0  0  0  0  0  0
    9.7592  -15.4231   26.5136 C   0  0  0  0  0  0  0  0  0  0  0  0
    8.3235  -15.0437   26.4407 C   0  0  0  0  0  0  0  0  0  0  0  0
    8.0209  -13.8129   27.2348 O   0  0  0  0  0  0  0  0  0  0  0  0
    6.6229  -13.3572   27.1838 C   0  0  0  0  0  0  0  0  0  0  0  0
    5.7228  -14.0179   26.6546 O   0  0  0  0  0  0  0  0  0  0  0  0
   10.2569  -15.5660   27.8957 O   0  0  0  0  0  0  0  0  0  0  0  0
   10.4650  -16.7345   28.3565 O   0  0  0  0  0  0  0  0  0  0  0  0
  2  3  2  0
  2  1  1  0
  4  2  1  0
  5  4  1  0
  6  7  1  0
  6  5  1  0
  8 10  1  0
  8  7  1  0
  8  9  1  1
 10 11  2  0
 13 12  1  0
 14 13  2  0
 15 13  1  0
 16 15  1  0
 17 16  1  0
 17 18  1  0
 19 18  1  6
 20 19  1  0
 20 10  1  0
 21 23  1  0
 21 19  1  0
 22 21  2  0
 24 25  1  1
 24 23  1  0
 25 26  1  0
 26 27  1  0
 27 31  1  0
 27 28  2  0
 29 32  1  0
 29 24  1  0
 30 29  2  0
M  END
$$$$
