RRE.pdb
     RDKit          3D

 32 31  0  0  1  0  0  0  0  0999 V2000
    7.4214  -12.7258   16.7805 N   0  0  0  0  0  0  0  0  0  0  0  0
    8.0119  -13.9207   16.2272 C   0  0  0  0  0  0  0  0  0  0  0  0
    8.4709  -13.9338   15.0236 N   0  0  0  0  0  0  0  0  0  0  0  0
    8.1029  -15.1109   16.9863 N   0  0  0  0  0  0  0  0  0  0  0  0
    7.7794  -15.0963   18.4102 C   0  0  0  0  0  0  0  0  0  0  0  0
    9.0210  -15.4864   19.1625 C   0  0  0  0  0  0  0  0  0  0  0  0
    8.9365  -15.4593   20.6390 C   0  0  0  0  0  0  0  0  0  0  0  0
   10.1212  -15.9082   21.4116 C   0  0  2  0  0  0  0  0  0  0  0  0
   10.7910  -17.0754   20.9411 N   0  0  0  0  0  0  0  0  0  0  0  0
    9.6817  -16.0544   22.8356 C   0  0  0  0  0  0  0  0  0  0  0  0
    8.9907  -15.1300   23.3374 O   0  0  0  0  0  0  0  0  0  0  0  0
    8.9292  -14.7065   14.5444 N   0  0  0  0  0  0  0  0  0  0  0  0
   11.1493  -20.8762   31.2572 C   0  0  0  0  0  0  0  0  0  0  0  0
   11.4934  -20.6571   29.8912 N   0  0  0  0  0  0  0  0  0  0  0  0
   12.3978  -21.3833   29.3531 N   0  0  0  0  0  0  0  0  0  0  0  0
   10.8489  -19.6467   29.1228 C   0  0  0  0  0  0  0  0  0  0  0  0
   11.0328  -19.6584   27.6969 C   0  0  0  0  0  0  0  0  0  0  0  0
   10.2598  -18.5103   27.0915 C   0  0  0  0  0  0  0  0  0  0  0  0
   10.4528  -18.4444   25.6113 C   0  0  1  0  0  0  0  0  0  0  0  0
    9.7246  -17.2547   25.0561 N   0  0  0  0  0  0  0  0  0  0  0  0
    9.9970  -17.1616   23.6378 C   0  0  0  0  0  0  0  0  0  0  0  0
   10.0201  -16.0024   25.7714 O   0  0  0  0  0  0  0  0  0  0  0  0
   11.1929  -15.5544   25.7301 N   0  0  0  0  0  0  0  0  0  0  0  0
   12.6136  -21.2747   28.3405 C   0  0  2  0  0  0  0  0  0  0  0  0
    9.0566  -15.2854   26.4972 C   0  0  0  0  0  0  0  0  0  0  0  0
    9.4162  -14.0297   27.1934 C   0  0  0  0  0  0  0  0  0  0  0  0
    8.1895  -13.2181   27.4105 C   0  0  0  0  0  0  0  0  0  0  0  0
    7.8961  -12.3135   26.2561 O   0  0  0  0  0  0  0  0  0  0  0  0
    6.6346  -11.5620   26.3485 C   0  0  0  0  0  0  0  0  0  0  0  0
    5.8208  -11.7307   27.2629 O   0  0  0  0  0  0  0  0  0  0  0  0
   10.1313  -14.3546   28.4430 O   0  0  0  0  0  0  0  0  0  0  0  0
    9.9734  -15.5074   28.9598 O   0  0  0  0  0  0  0  0  0  0  0  0
  2  3  2  0
  2  1  1  0
  4  2  1  0
  5  4  1  0
  6  7  1  0
  6  5  1  0
  8 10  1  0
  8  7  1  0
  8  9  1  6
 10 11  2  0
 13 12  1  0
 14 13  2  0
 15 13  1  0
 16 15  1  0
 17 16  1  0
 17 18  1  0
 19 18  1  6
 20 19  1  0
 20 10  1  0
 21 23  1  0
 21 19  1  0
 22 21  2  0
 24 25  1  1
 24 23  1  0
 25 26  1  0
 26 27  1  0
 27 31  1  0
 27 28  2  0
 29 32  1  0
 29 24  1  0
 30 29  2  0
M  END
$$$$
