RRE.pdb
     RDKit          3D

 32 31  0  0  1  0  0  0  0  0999 V2000
    9.5828  -17.9651   18.1163 N   0  0  0  0  0  0  0  0  0  0  0  0
   10.3043  -17.5233   16.9473 C   0  0  0  0  0  0  0  0  0  0  0  0
   11.4944  -17.9529   16.7045 N   0  0  0  0  0  0  0  0  0  0  0  0
    9.7300  -16.6065   16.0358 N   0  0  0  0  0  0  0  0  0  0  0  0
    9.6205  -15.1943   16.3909 C   0  0  0  0  0  0  0  0  0  0  0  0
    8.1605  -14.8364   16.3868 C   0  0  0  0  0  0  0  0  0  0  0  0
    7.4749  -14.8372   17.6975 C   0  0  0  0  0  0  0  0  0  0  0  0
    7.4606  -13.5736   18.4755 C   0  0  2  0  0  0  0  0  0  0  0  0
    7.8806  -12.3941   17.7936 N   0  0  0  0  0  0  0  0  0  0  0  0
    8.2654  -13.8168   19.7146 C   0  0  0  0  0  0  0  0  0  0  0  0
    9.4727  -13.4613   19.7128 O   0  0  0  0  0  0  0  0  0  0  0  0
   12.0777  -17.7374   15.8983 N   0  0  0  0  0  0  0  0  0  0  0  0
    7.5552  -18.9495   26.0165 C   0  0  0  0  0  0  0  0  0  0  0  0
    8.5019  -18.0383   26.5696 N   0  0  0  0  0  0  0  0  0  0  0  0
    9.5559  -18.4988   27.1280 N   0  0  0  0  0  0  0  0  0  0  0  0
    8.2910  -16.6317   26.5101 C   0  0  0  0  0  0  0  0  0  0  0  0
    7.4865  -16.1115   25.4380 C   0  0  0  0  0  0  0  0  0  0  0  0
    8.3889  -15.7152   24.2931 C   0  0  0  0  0  0  0  0  0  0  0  0
    7.6037  -15.1713   23.1441 C   0  0  1  0  0  0  0  0  0  0  0  0
    8.5343  -14.7748   22.0347 N   0  0  0  0  0  0  0  0  0  0  0  0
    7.7491  -14.4170   20.8729 C   0  0  0  0  0  0  0  0  0  0  0  0
    9.5542  -15.7933   21.7352 O   0  0  0  0  0  0  0  0  0  0  0  0
    9.1747  -16.9036   21.2867 N   0  0  0  0  0  0  0  0  0  0  0  0
   10.2364  -17.8446   27.5671 C   0  0  2  0  0  0  0  0  0  0  0  0
   10.9287  -15.5851   21.9267 C   0  0  0  0  0  0  0  0  0  0  0  0
   11.8987  -16.6760   21.6817 C   0  0  0  0  0  0  0  0  0  0  0  0
   12.6976  -16.3614   20.4679 C   0  0  0  0  0  0  0  0  0  0  0  0
   13.3623  -15.0245   20.5571 O   0  0  0  0  0  0  0  0  0  0  0  0
   14.1931  -14.6548   19.4004 C   0  0  0  0  0  0  0  0  0  0  0  0
   15.4005  -14.9097   19.3353 O   0  0  0  0  0  0  0  0  0  0  0  0
   12.7232  -16.8732   22.8899 O   0  0  0  0  0  0  0  0  0  0  0  0
   12.5354  -16.1126   23.8934 O   0  0  0  0  0  0  0  0  0  0  0  0
  2  3  2  0
  2  1  1  0
  4  2  1  0
  5  4  1  0
  6  7  1  0
  6  5  1  0
  8 10  1  0
  8  7  1  0
  8  9  1  6
 10 11  2  0
 13 12  1  0
 14 13  2  0
 15 13  1  0
 16 15  1  0
 17 16  1  0
 17 18  1  0
 19 18  1  1
 20 19  1  0
 20 10  1  0
 21 23  1  0
 21 19  1  0
 22 21  2  0
 24 25  1  6
 24 23  1  0
 25 26  1  0
 26 27  1  0
 27 31  1  0
 27 28  2  0
 29 32  1  0
 29 24  1  0
 30 29  2  0
M  END
$$$$
