RRE.pdb
     RDKit          3D

 32 31  0  0  1  0  0  0  0  0999 V2000
    6.5791  -15.3597   14.0489 N   0  0  0  0  0  0  0  0  0  0  0  0
    7.9222  -15.8722   13.9227 C   0  0  0  0  0  0  0  0  0  0  0  0
    8.7296  -15.3973   13.0383 N   0  0  0  0  0  0  0  0  0  0  0  0
    8.3915  -16.9096   14.7621 N   0  0  0  0  0  0  0  0  0  0  0  0
    8.5048  -16.6904   16.2014 C   0  0  0  0  0  0  0  0  0  0  0  0
    8.8505  -15.2431   16.4150 C   0  0  0  0  0  0  0  0  0  0  0  0
    9.1941  -14.8414   17.7964 C   0  0  0  0  0  0  0  0  0  0  0  0
    8.0807  -14.5416   18.7306 C   0  0  2  0  0  0  0  0  0  0  0  0
    7.4700  -13.2588   18.6122 N   0  0  0  0  0  0  0  0  0  0  0  0
    8.5967  -14.7869   20.1148 C   0  0  0  0  0  0  0  0  0  0  0  0
    9.4822  -14.0113   20.5601 O   0  0  0  0  0  0  0  0  0  0  0  0
    9.7027  -15.6557   12.8864 N   0  0  0  0  0  0  0  0  0  0  0  0
    6.3201  -20.7499   26.1718 C   0  0  0  0  0  0  0  0  0  0  0  0
    7.3687  -20.0018   26.7827 N   0  0  0  0  0  0  0  0  0  0  0  0
    7.7465  -20.3106   27.9645 N   0  0  0  0  0  0  0  0  0  0  0  0
    7.9963  -18.9216   26.1001 C   0  0  0  0  0  0  0  0  0  0  0  0
    7.2429  -18.2282   25.0907 C   0  0  0  0  0  0  0  0  0  0  0  0
    8.1569  -17.2664   24.3684 C   0  0  0  0  0  0  0  0  0  0  0  0
    7.6814  -17.0050   22.9762 C   0  0  2  0  0  0  0  0  0  0  0  0
    8.6499  -16.1014   22.2693 N   0  0  0  0  0  0  0  0  0  0  0  0
    8.1486  -15.8301   20.9391 C   0  0  0  0  0  0  0  0  0  0  0  0
   10.0290  -16.6164   22.2591 O   0  0  0  0  0  0  0  0  0  0  0  0
   10.2345  -17.7614   21.7850 N   0  0  0  0  0  0  0  0  0  0  0  0
    8.5138  -19.7735   28.4190 C   0  0  2  0  0  0  0  0  0  0  0  0
   11.1244  -15.8918   22.7533 C   0  0  0  0  0  0  0  0  0  0  0  0
   12.4568  -16.5254   22.8721 C   0  0  0  0  0  0  0  0  0  0  0  0
   13.4979  -15.5752   22.3990 C   0  0  0  0  0  0  0  0  0  0  0  0
   13.5670  -15.5063   20.9066 O   0  0  0  0  0  0  0  0  0  0  0  0
   14.5718  -14.5786   20.3638 C   0  0  0  0  0  0  0  0  0  0  0  0
   15.6596  -14.3743   20.9133 O   0  0  0  0  0  0  0  0  0  0  0  0
   12.6605  -16.9708   24.2644 O   0  0  0  0  0  0  0  0  0  0  0  0
   13.7313  -17.5927   24.5605 O   0  0  0  0  0  0  0  0  0  0  0  0
  2  3  2  0
  2  1  1  0
  4  2  1  0
  5  4  1  0
  6  7  1  0
  6  5  1  0
  8 10  1  0
  8  7  1  0
  8  9  1  1
 10 11  2  0
 13 12  1  0
 14 13  2  0
 15 13  1  0
 16 15  1  0
 17 16  1  0
 17 18  1  0
 19 18  1  1
 20 19  1  0
 20 10  1  0
 21 23  1  0
 21 19  1  0
 22 21  2  0
 24 25  1  6
 24 23  1  0
 25 26  1  0
 26 27  1  0
 27 31  1  0
 27 28  2  0
 29 32  1  0
 29 24  1  0
 30 29  2  0
M  END
$$$$
