RRE.pdb
     RDKit          3D

 32 31  0  0  1  0  0  0  0  0999 V2000
    7.3895  -11.6996   19.2146 N   0  0  0  0  0  0  0  0  0  0  0  0
    8.5269  -12.3636   18.6246 C   0  0  0  0  0  0  0  0  0  0  0  0
    9.6141  -11.7176   18.3789 N   0  0  0  0  0  0  0  0  0  0  0  0
    8.4826  -13.7391   18.2973 N   0  0  0  0  0  0  0  0  0  0  0  0
    8.0044  -14.7089   19.2787 C   0  0  0  0  0  0  0  0  0  0  0  0
    7.9377  -16.0481   18.5991 C   0  0  0  0  0  0  0  0  0  0  0  0
    7.4038  -17.1712   19.4002 C   0  0  0  0  0  0  0  0  0  0  0  0
    8.3729  -18.1317   19.9835 C   0  0  2  0  0  0  0  0  0  0  0  0
    7.8293  -19.2433   20.6914 N   0  0  0  0  0  0  0  0  0  0  0  0
    9.3147  -17.3367   20.8339 C   0  0  0  0  0  0  0  0  0  0  0  0
   10.0547  -16.4931   20.2641 O   0  0  0  0  0  0  0  0  0  0  0  0
   10.4695  -12.0812   17.9633 N   0  0  0  0  0  0  0  0  0  0  0  0
   10.5558  -17.6291   29.4752 C   0  0  0  0  0  0  0  0  0  0  0  0
   11.5750  -18.1458   28.6228 N   0  0  0  0  0  0  0  0  0  0  0  0
   12.3541  -19.0575   29.0662 N   0  0  0  0  0  0  0  0  0  0  0  0
   11.7371  -17.6632   27.2933 C   0  0  0  0  0  0  0  0  0  0  0  0
   10.8262  -16.6555   26.8221 C   0  0  0  0  0  0  0  0  0  0  0  0
   11.0946  -16.3952   25.3584 C   0  0  0  0  0  0  0  0  0  0  0  0
   10.1317  -17.1358   24.4883 C   0  0  2  0  0  0  0  0  0  0  0  0
   10.4402  -16.8658   23.0440 N   0  0  0  0  0  0  0  0  0  0  0  0
    9.4168  -17.4803   22.2259 C   0  0  0  0  0  0  0  0  0  0  0  0
   11.7988  -17.2739   22.6502 O   0  0  0  0  0  0  0  0  0  0  0  0
   11.9267  -18.2656   21.8900 N   0  0  0  0  0  0  0  0  0  0  0  0
   13.1241  -19.4171   28.4649 C   0  0  2  0  0  0  0  0  0  0  0  0
   12.9571  -16.6103   23.0829 C   0  0  0  0  0  0  0  0  0  0  0  0
   14.0828  -16.3723   22.1518 C   0  0  0  0  0  0  0  0  0  0  0  0
   13.6130  -15.5390   21.0137 C   0  0  0  0  0  0  0  0  0  0  0  0
   14.7015  -15.2619   20.0261 O   0  0  0  0  0  0  0  0  0  0  0  0
   14.3135  -14.4293   18.8768 C   0  0  0  0  0  0  0  0  0  0  0  0
   14.2311  -13.1980   18.9403 O   0  0  0  0  0  0  0  0  0  0  0  0
   15.2074  -15.7691   22.8934 O   0  0  0  0  0  0  0  0  0  0  0  0
   14.9705  -15.1798   23.9969 O   0  0  0  0  0  0  0  0  0  0  0  0
  2  3  2  0
  2  1  1  0
  4  2  1  0
  5  4  1  0
  6  7  1  0
  6  5  1  0
  8 10  1  0
  8  7  1  0
  8  9  1  1
 10 11  2  0
 13 12  1  0
 14 13  2  0
 15 13  1  0
 16 15  1  0
 17 16  1  0
 17 18  1  0
 19 18  1  1
 20 19  1  0
 20 10  1  0
 21 23  1  0
 21 19  1  0
 22 21  2  0
 24 25  1  6
 24 23  1  0
 25 26  1  0
 26 27  1  0
 27 31  1  0
 27 28  2  0
 29 32  1  0
 29 24  1  0
 30 29  2  0
M  END
$$$$
