RRE.pdb
     RDKit          3D

 32 31  0  0  1  0  0  0  0  0999 V2000
   11.7796  -15.1522   14.5973 N   0  0  0  0  0  0  0  0  0  0  0  0
   11.4147  -16.4688   15.0622 C   0  0  0  0  0  0  0  0  0  0  0  0
   12.3066  -17.2782   15.5193 N   0  0  0  0  0  0  0  0  0  0  0  0
   10.0712  -16.9104   15.0288 N   0  0  0  0  0  0  0  0  0  0  0  0
    9.0323  -16.0488   14.4714 C   0  0  0  0  0  0  0  0  0  0  0  0
    8.2845  -15.4354   15.6222 C   0  0  0  0  0  0  0  0  0  0  0  0
    9.1026  -14.8726   16.7185 C   0  0  0  0  0  0  0  0  0  0  0  0
    8.4012  -14.1536   17.8109 C   0  0  2  0  0  0  0  0  0  0  0  0
    7.8738  -12.8665   17.4983 N   0  0  0  0  0  0  0  0  0  0  0  0
    9.3443  -14.1017   18.9728 C   0  0  0  0  0  0  0  0  0  0  0  0
   10.1815  -13.1628   19.0113 O   0  0  0  0  0  0  0  0  0  0  0  0
   12.1750  -18.2462   15.8062 N   0  0  0  0  0  0  0  0  0  0  0  0
    9.2428  -17.6885   26.9756 C   0  0  0  0  0  0  0  0  0  0  0  0
    9.9595  -16.4564   26.9496 N   0  0  0  0  0  0  0  0  0  0  0  0
   10.0924  -15.7908   28.0331 N   0  0  0  0  0  0  0  0  0  0  0  0
   10.5251  -15.9594   25.7413 C   0  0  0  0  0  0  0  0  0  0  0  0
   10.2476  -16.6677   24.5213 C   0  0  0  0  0  0  0  0  0  0  0  0
   10.7640  -15.8590   23.3544 C   0  0  0  0  0  0  0  0  0  0  0  0
    9.7380  -15.7455   22.2741 C   0  0  1  0  0  0  0  0  0  0  0  0
   10.3478  -15.1097   21.0585 N   0  0  0  0  0  0  0  0  0  0  0  0
    9.3456  -15.0391   20.0169 C   0  0  0  0  0  0  0  0  0  0  0  0
   11.5832  -15.7726   20.6096 O   0  0  0  0  0  0  0  0  0  0  0  0
   11.5343  -16.4914   19.5805 N   0  0  0  0  0  0  0  0  0  0  0  0
   10.6362  -14.9030   28.0313 C   0  0  1  0  0  0  0  0  0  0  0  0
   12.8118  -15.6417   21.2748 C   0  0  0  0  0  0  0  0  0  0  0  0
   14.0867  -15.8605   20.5554 C   0  0  0  0  0  0  0  0  0  0  0  0
   14.0875  -15.0627   19.3008 C   0  0  0  0  0  0  0  0  0  0  0  0
   15.3908  -15.1519   18.5726 O   0  0  0  0  0  0  0  0  0  0  0  0
   15.4470  -14.4337   17.2897 C   0  0  0  0  0  0  0  0  0  0  0  0
   14.8125  -14.7948   16.2926 O   0  0  0  0  0  0  0  0  0  0  0  0
   15.2129  -15.5390   21.4537 O   0  0  0  0  0  0  0  0  0  0  0  0
   15.0375  -14.6790   22.3759 O   0  0  0  0  0  0  0  0  0  0  0  0
  2  3  2  0
  2  1  1  0
  4  2  1  0
  5  4  1  0
  6  7  1  0
  6  5  1  0
  8 10  1  0
  8  7  1  0
  8  9  1  6
 10 11  2  0
 13 12  1  0
 14 13  2  0
 15 13  1  0
 16 15  1  0
 17 16  1  0
 17 18  1  0
 19 18  1  1
 20 19  1  0
 20 10  1  0
 21 23  1  0
 21 19  1  0
 22 21  2  0
 24 25  1  1
 24 23  1  0
 25 26  1  0
 26 27  1  0
 27 31  1  0
 27 28  2  0
 29 32  1  0
 29 24  1  0
 30 29  2  0
M  END
$$$$
