RRE.pdb
     RDKit          3D

 32 31  0  0  1  0  0  0  0  0999 V2000
    7.2211  -13.3900   14.3808 N   0  0  0  0  0  0  0  0  0  0  0  0
    7.8468  -13.4747   15.6784 C   0  0  0  0  0  0  0  0  0  0  0  0
    9.0252  -13.9780   15.8114 N   0  0  0  0  0  0  0  0  0  0  0  0
    7.1871  -13.0110   16.8406 N   0  0  0  0  0  0  0  0  0  0  0  0
    7.8610  -13.0665   18.1349 C   0  0  0  0  0  0  0  0  0  0  0  0
    7.6273  -14.4353   18.7107 C   0  0  0  0  0  0  0  0  0  0  0  0
    8.1897  -14.6933   20.0543 C   0  0  0  0  0  0  0  0  0  0  0  0
    7.9921  -16.0407   20.6438 C   0  0  2  0  0  0  0  0  0  0  0  0
    6.7377  -16.6721   20.3983 N   0  0  0  0  0  0  0  0  0  0  0  0
    8.2776  -15.9203   22.1088 C   0  0  0  0  0  0  0  0  0  0  0  0
    9.3980  -15.4640   22.4557 O   0  0  0  0  0  0  0  0  0  0  0  0
    9.5812  -14.0355   16.6625 N   0  0  0  0  0  0  0  0  0  0  0  0
    4.7245  -22.9029   25.6693 C   0  0  0  0  0  0  0  0  0  0  0  0
    5.5818  -22.4160   26.6991 N   0  0  0  0  0  0  0  0  0  0  0  0
    5.6968  -23.0865   27.7817 N   0  0  0  0  0  0  0  0  0  0  0  0
    6.3063  -21.2009   26.5403 C   0  0  0  0  0  0  0  0  0  0  0  0
    6.0415  -20.4009   25.3754 C   0  0  0  0  0  0  0  0  0  0  0  0
    6.9604  -19.2019   25.3825 C   0  0  0  0  0  0  0  0  0  0  0  0
    6.7183  -18.3233   24.1984 C   0  0  2  0  0  0  0  0  0  0  0  0
    7.6744  -17.1659   24.2201 N   0  0  0  0  0  0  0  0  0  0  0  0
    7.3677  -16.2871   23.1119 C   0  0  0  0  0  0  0  0  0  0  0  0
    9.0881  -17.5759   24.2414 O   0  0  0  0  0  0  0  0  0  0  0  0
    9.7501  -17.4900   23.1773 N   0  0  0  0  0  0  0  0  0  0  0  0
    6.2965  -22.7254   28.5523 C   0  0  2  0  0  0  0  0  0  0  0  0
    9.7319  -18.0582   25.3913 C   0  0  0  0  0  0  0  0  0  0  0  0
   11.1695  -17.7902   25.6199 C   0  0  0  0  0  0  0  0  0  0  0  0
   11.5908  -16.6267   24.7956 C   0  0  0  0  0  0  0  0  0  0  0  0
   13.0217  -16.2571   25.0255 O   0  0  0  0  0  0  0  0  0  0  0  0
   13.8545  -16.1761   23.8152 C   0  0  0  0  0  0  0  0  0  0  0  0
   13.4024  -16.3536   22.6790 O   0  0  0  0  0  0  0  0  0  0  0  0
   11.4044  -17.5994   27.0645 O   0  0  0  0  0  0  0  0  0  0  0  0
   10.4098  -17.3621   27.8230 O   0  0  0  0  0  0  0  0  0  0  0  0
  2  3  2  0
  2  1  1  0
  4  2  1  0
  5  4  1  0
  6  7  1  0
  6  5  1  0
  8 10  1  0
  8  7  1  0
  8  9  1  1
 10 11  2  0
 13 12  1  0
 14 13  2  0
 15 13  1  0
 16 15  1  0
 17 16  1  0
 17 18  1  0
 19 18  1  1
 20 19  1  0
 20 10  1  0
 21 23  1  0
 21 19  1  0
 22 21  2  0
 24 25  1  6
 24 23  1  0
 25 26  1  0
 26 27  1  0
 27 31  1  0
 27 28  2  0
 29 32  1  0
 29 24  1  0
 30 29  2  0
M  END
$$$$
