MYL.pdb
     RDKit          3D

 29 29  0  0  1  0  0  0  0  0999 V2000
    5.6087  -10.9677   27.8167 C   0  0  0  0  0  0  0  0  0  0  0  0
    5.8278  -11.5924   26.1527 S   0  0  0  0  0  0  0  0  0  0  0  0
    6.0049  -13.3765   26.0758 C   0  0  0  0  0  0  0  0  0  0  0  0
    6.2004  -13.8780   24.6635 C   0  0  0  0  0  0  0  0  0  0  0  0
    6.4845  -15.3354   24.5882 C   0  0  2  0  0  0  0  0  0  0  0  0
    6.8980  -15.8062   25.8958 N   0  0  0  0  0  0  0  0  0  0  0  0
    7.5130  -15.6988   23.5946 C   0  0  0  0  0  0  0  0  0  0  0  0
    7.2071  -16.4203   22.5974 O   0  0  0  0  0  0  0  0  0  0  0  0
    6.5942  -13.6339   17.8812 O   0  0  0  0  0  0  0  0  0  0  0  0
    7.5265  -13.9736   18.8530 C   0  0  0  0  0  0  0  0  0  0  0  0
    8.1702  -15.1961   18.8510 C   0  0  0  0  0  0  0  0  0  0  0  0
    9.0981  -15.4973   19.8431 C   0  0  0  0  0  0  0  0  0  0  0  0
    9.3959  -14.6028   20.8365 C   0  0  0  0  0  0  0  0  0  0  0  0
   10.3605  -14.9186   21.8734 C   0  0  0  0  0  0  0  0  0  0  0  0
    9.9491  -15.9096   22.9059 C   0  0  2  0  0  0  0  0  0  0  0  0
    8.8691  -15.2928   23.6643 N   0  0  0  0  0  0  0  0  0  0  0  0
   11.0909  -16.2667   23.7695 C   0  0  0  0  0  0  0  0  0  0  0  0
   12.1792  -15.6473   23.6574 O   0  0  0  0  0  0  0  0  0  0  0  0
    8.7529  -13.3849   20.8365 C   0  0  0  0  0  0  0  0  0  0  0  0
    7.8159  -13.0637   19.8462 C   0  0  0  0  0  0  0  0  0  0  0  0
   11.9086  -14.2555   28.2706 C   0  0  0  0  0  0  0  0  0  0  0  0
   11.1052  -15.5035   28.1131 C   0  0  1  0  0  0  0  0  0  0  0  0
    9.8023  -15.2790   28.8915 C   0  0  0  0  0  0  0  0  0  0  0  0
   10.7304  -15.8506   26.7018 C   0  0  0  0  0  0  0  0  0  0  0  0
   11.3897  -17.0703   26.1466 C   0  0  2  0  0  0  0  0  0  0  0  0
   11.0443  -17.2926   24.7478 N   0  0  0  0  0  0  0  0  0  0  0  0
   11.1197  -18.3179   26.8860 C   0  0  0  0  0  0  0  0  0  0  0  0
   12.0003  -18.7922   27.8466 O   0  0  0  0  0  0  0  0  0  0  0  0
   10.0865  -19.0050   26.6828 O   0  0  0  0  0  0  0  0  0  0  0  0
  2  1  1  0
  3  2  1  0
  4  3  1  0
  4  5  1  0
  5  6  1  1
  7  5  1  0
  7  8  2  0
  9 10  1  0
 10 20  2  0
 10 11  1  0
 11 12  2  0
 12 13  1  0
 13 14  1  0
 15 14  1  6
 15 16  1  0
 16  7  1  0
 17 15  1  0
 18 17  2  0
 19 13  2  0
 20 19  1  0
 22 21  1  6
 22 24  1  0
 23 22  1  0
 25 24  1  1
 25 26  1  0
 25 27  1  0
 26 17  1  0
 27 28  1  0
 29 27  2  0
M  END
$$$$
