MYL.pdb
     RDKit          3D

 29 29  0  0  1  0  0  0  0  0999 V2000
    7.6063  -12.1939   19.2423 C   0  0  0  0  0  0  0  0  0  0  0  0
    7.9953  -13.2750   17.8686 S   0  0  0  0  0  0  0  0  0  0  0  0
    7.5361  -14.9864   18.1528 C   0  0  0  0  0  0  0  0  0  0  0  0
    7.0800  -15.2348   19.5722 C   0  0  0  0  0  0  0  0  0  0  0  0
    8.0727  -15.9809   20.3895 C   0  0  2  0  0  0  0  0  0  0  0  0
    8.3688  -17.2432   19.7404 N   0  0  0  0  0  0  0  0  0  0  0  0
    7.6401  -16.2388   21.7765 C   0  0  0  0  0  0  0  0  0  0  0  0
    7.1382  -15.3034   22.4704 O   0  0  0  0  0  0  0  0  0  0  0  0
    7.5752  -20.7870   29.5078 O   0  0  0  0  0  0  0  0  0  0  0  0
    7.6636  -20.3732   28.1849 C   0  0  0  0  0  0  0  0  0  0  0  0
    8.8447  -19.9010   27.6456 C   0  0  0  0  0  0  0  0  0  0  0  0
    8.8912  -19.4962   26.3152 C   0  0  0  0  0  0  0  0  0  0  0  0
    7.7826  -19.5537   25.5131 C   0  0  0  0  0  0  0  0  0  0  0  0
    7.8301  -19.1277   24.1269 C   0  0  0  0  0  0  0  0  0  0  0  0
    7.4627  -17.7141   23.8369 C   0  0  2  0  0  0  0  0  0  0  0  0
    7.7430  -17.4952   22.4243 N   0  0  0  0  0  0  0  0  0  0  0  0
    8.2270  -16.7902   24.6969 C   0  0  0  0  0  0  0  0  0  0  0  0
    9.4127  -16.4947   24.4011 O   0  0  0  0  0  0  0  0  0  0  0  0
    6.6063  -20.0246   26.0529 C   0  0  0  0  0  0  0  0  0  0  0  0
    6.5402  -20.4366   27.3900 C   0  0  0  0  0  0  0  0  0  0  0  0
    8.2211  -11.7397   26.1063 C   0  0  0  0  0  0  0  0  0  0  0  0
    7.2624  -12.5530   26.9106 C   0  0  1  0  0  0  0  0  0  0  0  0
    5.9481  -11.7621   26.9445 C   0  0  0  0  0  0  0  0  0  0  0  0
    6.9532  -13.9130   26.3560 C   0  0  0  0  0  0  0  0  0  0  0  0
    8.0988  -14.8709   26.3356 C   0  0  2  0  0  0  0  0  0  0  0  0
    7.7001  -16.1940   25.8710 N   0  0  0  0  0  0  0  0  0  0  0  0
    8.8009  -15.0329   27.6230 C   0  0  0  0  0  0  0  0  0  0  0  0
    8.8906  -16.2689   28.2451 O   0  0  0  0  0  0  0  0  0  0  0  0
    9.3475  -14.0661   28.2123 O   0  0  0  0  0  0  0  0  0  0  0  0
  2  1  1  0
  3  2  1  0
  4  3  1  0
  4  5  1  0
  5  6  1  6
  7  5  1  0
  7  8  2  0
  9 10  1  0
 10 20  2  0
 10 11  1  0
 11 12  2  0
 12 13  1  0
 13 14  1  0
 15 14  1  1
 15 16  1  0
 16  7  1  0
 17 15  1  0
 18 17  2  0
 19 13  2  0
 20 19  1  0
 22 21  1  6
 22 24  1  0
 23 22  1  0
 25 24  1  1
 25 26  1  0
 25 27  1  0
 26 17  1  0
 27 28  1  0
 29 27  2  0
M  END
$$$$
