MYL.pdb
     RDKit          3D

 29 29  0  0  1  0  0  0  0  0999 V2000
    7.8540  -10.9083   25.0826 C   0  0  0  0  0  0  0  0  0  0  0  0
    6.2155  -11.6070   25.2678 S   0  0  0  0  0  0  0  0  0  0  0  0
    5.9983  -13.1619   24.3987 C   0  0  0  0  0  0  0  0  0  0  0  0
    7.1734  -14.0950   24.5802 C   0  0  0  0  0  0  0  0  0  0  0  0
    7.1024  -15.3079   23.7234 C   0  0  2  0  0  0  0  0  0  0  0  0
    5.9179  -16.0673   24.0736 N   0  0  0  0  0  0  0  0  0  0  0  0
    8.2858  -16.1840   23.8192 C   0  0  0  0  0  0  0  0  0  0  0  0
    8.3192  -17.1161   24.6786 O   0  0  0  0  0  0  0  0  0  0  0  0
   16.0103  -19.8839   21.1439 O   0  0  0  0  0  0  0  0  0  0  0  0
   14.8548  -19.1349   21.3254 C   0  0  0  0  0  0  0  0  0  0  0  0
   13.7016  -19.6878   21.8482 C   0  0  0  0  0  0  0  0  0  0  0  0
   12.5650  -18.9027   22.0142 C   0  0  0  0  0  0  0  0  0  0  0  0
   12.5568  -17.5775   21.6689 C   0  0  0  0  0  0  0  0  0  0  0  0
   11.3702  -16.7598   21.8381 C   0  0  0  0  0  0  0  0  0  0  0  0
   10.6135  -16.9147   23.1113 C   0  0  2  0  0  0  0  0  0  0  0  0
    9.4350  -16.0662   22.9980 N   0  0  0  0  0  0  0  0  0  0  0  0
   11.4521  -16.5370   24.2650 C   0  0  0  0  0  0  0  0  0  0  0  0
   12.1955  -15.5255   24.1950 O   0  0  0  0  0  0  0  0  0  0  0  0
   13.7074  -17.0286   21.1477 C   0  0  0  0  0  0  0  0  0  0  0  0
   14.8615  -17.8031   20.9733 C   0  0  0  0  0  0  0  0  0  0  0  0
    9.7727  -13.8823   28.7072 C   0  0  0  0  0  0  0  0  0  0  0  0
   10.9014  -14.7814   28.3260 C   0  0  1  0  0  0  0  0  0  0  0  0
   10.9958  -15.8459   29.4268 C   0  0  0  0  0  0  0  0  0  0  0  0
   10.7343  -15.5010   27.0194 C   0  0  0  0  0  0  0  0  0  0  0  0
   11.6926  -16.6210   26.7791 C   0  0  2  0  0  0  0  0  0  0  0  0
   11.4786  -17.2587   25.4857 N   0  0  0  0  0  0  0  0  0  0  0  0
   11.6937  -17.6747   27.8116 C   0  0  0  0  0  0  0  0  0  0  0  0
   10.6707  -18.6076   27.8914 O   0  0  0  0  0  0  0  0  0  0  0  0
   12.6149  -17.7770   28.6612 O   0  0  0  0  0  0  0  0  0  0  0  0
  2  1  1  0
  3  2  1  0
  4  3  1  0
  4  5  1  0
  5  6  1  1
  7  5  1  0
  7  8  2  0
  9 10  1  0
 10 20  2  0
 10 11  1  0
 11 12  2  0
 12 13  1  0
 13 14  1  0
 15 14  1  6
 15 16  1  0
 16  7  1  0
 17 15  1  0
 18 17  2  0
 19 13  2  0
 20 19  1  0
 22 21  1  1
 22 24  1  0
 23 22  1  0
 25 24  1  1
 25 26  1  0
 25 27  1  0
 26 17  1  0
 27 28  1  0
 29 27  2  0
M  END
$$$$
