MYL.pdb
     RDKit          3D

 29 29  0  0  1  0  0  0  0  0999 V2000
    2.5697  -17.2074   20.2500 C   0  0  0  0  0  0  0  0  0  0  0  0
    2.8877  -18.8567   19.6287 S   0  0  0  0  0  0  0  0  0  0  0  0
    3.8609  -19.8675   20.7474 C   0  0  0  0  0  0  0  0  0  0  0  0
    4.1336  -19.1755   22.0632 C   0  0  0  0  0  0  0  0  0  0  0  0
    5.4913  -18.5753   22.1446 C   0  0  2  0  0  0  0  0  0  0  0  0
    6.4698  -19.5559   21.7164 N   0  0  0  0  0  0  0  0  0  0  0  0
    5.8536  -18.0835   23.4878 C   0  0  0  0  0  0  0  0  0  0  0  0
    5.0366  -17.3709   24.1459 O   0  0  0  0  0  0  0  0  0  0  0  0
    5.8520  -23.2865   28.6118 O   0  0  0  0  0  0  0  0  0  0  0  0
    6.4591  -22.1950   28.0041 C   0  0  0  0  0  0  0  0  0  0  0  0
    6.5901  -20.9804   28.6493 C   0  0  0  0  0  0  0  0  0  0  0  0
    7.2050  -19.9113   28.0052 C   0  0  0  0  0  0  0  0  0  0  0  0
    7.6914  -20.0309   26.7305 C   0  0  0  0  0  0  0  0  0  0  0  0
    8.3289  -18.9148   26.0573 C   0  0  0  0  0  0  0  0  0  0  0  0
    7.4379  -17.8802   25.4631 C   0  0  2  0  0  0  0  0  0  0  0  0
    7.0885  -18.3514   24.1298 N   0  0  0  0  0  0  0  0  0  0  0  0
    8.1161  -16.5703   25.4213 C   0  0  0  0  0  0  0  0  0  0  0  0
    9.0623  -16.3799   24.6156 O   0  0  0  0  0  0  0  0  0  0  0  0
    7.5594  -21.2426   26.0893 C   0  0  0  0  0  0  0  0  0  0  0  0
    6.9435  -22.3301   26.7216 C   0  0  0  0  0  0  0  0  0  0  0  0
    5.5630  -11.8382   26.8116 C   0  0  0  0  0  0  0  0  0  0  0  0
    6.4661  -12.8185   26.1399 C   0  0  1  0  0  0  0  0  0  0  0  0
    6.8305  -12.2081   24.7802 C   0  0  0  0  0  0  0  0  0  0  0  0
    7.7506  -13.1052   26.8614 C   0  0  0  0  0  0  0  0  0  0  0  0
    8.5455  -14.2488   26.3221 C   0  0  2  0  0  0  0  0  0  0  0  0
    7.7634  -15.4771   26.2532 N   0  0  0  0  0  0  0  0  0  0  0  0
    9.7922  -14.5433   27.0537 C   0  0  0  0  0  0  0  0  0  0  0  0
    9.9787  -15.7543   27.7030 O   0  0  0  0  0  0  0  0  0  0  0  0
   10.7378  -13.7174   27.1224 O   0  0  0  0  0  0  0  0  0  0  0  0
  2  1  1  0
  3  2  1  0
  4  3  1  0
  4  5  1  0
  5  6  1  1
  7  5  1  0
  7  8  2  0
  9 10  1  0
 10 20  2  0
 10 11  1  0
 11 12  2  0
 12 13  1  0
 13 14  1  0
 15 14  1  6
 15 16  1  0
 16  7  1  0
 17 15  1  0
 18 17  2  0
 19 13  2  0
 20 19  1  0
 22 21  1  1
 22 24  1  0
 23 22  1  0
 25 24  1  1
 25 26  1  0
 25 27  1  0
 26 17  1  0
 27 28  1  0
 29 27  2  0
M  END
$$$$
