MYL.pdb
     RDKit          3D

 29 29  0  0  1  0  0  0  0  0999 V2000
    7.1636  -12.9934   27.2022 C   0  0  0  0  0  0  0  0  0  0  0  0
    5.5169  -13.4306   26.6503 S   0  0  0  0  0  0  0  0  0  0  0  0
    5.0623  -15.1251   27.0274 C   0  0  0  0  0  0  0  0  0  0  0  0
    6.1016  -16.1197   26.5637 C   0  0  0  0  0  0  0  0  0  0  0  0
    5.7978  -16.7159   25.2361 C   0  0  2  0  0  0  0  0  0  0  0  0
    5.4096  -18.1013   25.4159 N   0  0  0  0  0  0  0  0  0  0  0  0
    6.9143  -16.6463   24.2739 C   0  0  0  0  0  0  0  0  0  0  0  0
    7.6041  -17.6808   24.0243 O   0  0  0  0  0  0  0  0  0  0  0  0
    8.2227  -13.7548   16.4706 O   0  0  0  0  0  0  0  0  0  0  0  0
    8.2600  -13.8436   17.8562 C   0  0  0  0  0  0  0  0  0  0  0  0
    7.6648  -14.8884   18.5367 C   0  0  0  0  0  0  0  0  0  0  0  0
    7.7250  -14.9403   19.9258 C   0  0  0  0  0  0  0  0  0  0  0  0
    8.3673  -13.9704   20.6485 C   0  0  0  0  0  0  0  0  0  0  0  0
    8.4265  -14.0224   22.0973 C   0  0  0  0  0  0  0  0  0  0  0  0
    8.4749  -15.3704   22.7281 C   0  0  2  0  0  0  0  0  0  0  0  0
    7.2959  -15.4724   23.5774 N   0  0  0  0  0  0  0  0  0  0  0  0
    9.7219  -15.5407   23.4984 C   0  0  0  0  0  0  0  0  0  0  0  0
   10.8298  -15.5461   22.9042 O   0  0  0  0  0  0  0  0  0  0  0  0
    8.9597  -12.9298   19.9681 C   0  0  0  0  0  0  0  0  0  0  0  0
    8.9096  -12.8605   18.5700 C   0  0  0  0  0  0  0  0  0  0  0  0
    9.6097  -14.2520   28.9208 C   0  0  0  0  0  0  0  0  0  0  0  0
    9.9515  -14.3865   27.4742 C   0  0  1  0  0  0  0  0  0  0  0  0
   10.7544  -13.1331   27.1022 C   0  0  0  0  0  0  0  0  0  0  0  0
   10.7929  -15.5786   27.1226 C   0  0  0  0  0  0  0  0  0  0  0  0
   11.0015  -15.8056   25.6613 C   0  0  2  0  0  0  0  0  0  0  0  0
    9.7581  -15.7039   24.9069 N   0  0  0  0  0  0  0  0  0  0  0  0
   11.6415  -17.0884   25.3133 C   0  0  0  0  0  0  0  0  0  0  0  0
   12.8799  -17.4400   25.8289 O   0  0  0  0  0  0  0  0  0  0  0  0
   11.0990  -17.9178   24.5395 O   0  0  0  0  0  0  0  0  0  0  0  0
  2  1  1  0
  3  2  1  0
  4  3  1  0
  4  5  1  0
  5  6  1  1
  7  5  1  0
  7  8  2  0
  9 10  1  0
 10 20  2  0
 10 11  1  0
 11 12  2  0
 12 13  1  0
 13 14  1  0
 15 14  1  1
 15 16  1  0
 16  7  1  0
 17 15  1  0
 18 17  2  0
 19 13  2  0
 20 19  1  0
 22 21  1  1
 22 24  1  0
 23 22  1  0
 25 24  1  1
 25 26  1  0
 25 27  1  0
 26 17  1  0
 27 28  1  0
 29 27  2  0
M  END
$$$$
