MYL.pdb
     RDKit          3D

 29 29  0  0  1  0  0  0  0  0999 V2000
    1.1679  -19.4599   21.0943 C   0  0  0  0  0  0  0  0  0  0  0  0
    2.6322  -18.4372   20.9624 S   0  0  0  0  0  0  0  0  0  0  0  0
    4.1619  -19.3755   20.9544 C   0  0  0  0  0  0  0  0  0  0  0  0
    5.3823  -18.4911   20.8410 C   0  0  0  0  0  0  0  0  0  0  0  0
    6.1623  -18.3963   22.1031 C   0  0  2  0  0  0  0  0  0  0  0  0
    5.3175  -17.8407   23.1423 N   0  0  0  0  0  0  0  0  0  0  0  0
    7.3913  -17.5871   21.9931 C   0  0  0  0  0  0  0  0  0  0  0  0
    8.3106  -17.9327   21.1907 O   0  0  0  0  0  0  0  0  0  0  0  0
    8.2106  -13.1495   16.6972 O   0  0  0  0  0  0  0  0  0  0  0  0
    8.2897  -13.4323   18.0547 C   0  0  0  0  0  0  0  0  0  0  0  0
    9.3390  -14.1548   18.5896 C   0  0  0  0  0  0  0  0  0  0  0  0
    9.3808  -14.4166   19.9555 C   0  0  0  0  0  0  0  0  0  0  0  0
    8.3965  -13.9716   20.7974 C   0  0  0  0  0  0  0  0  0  0  0  0
    8.4381  -14.2481   22.2212 C   0  0  0  0  0  0  0  0  0  0  0  0
    8.8578  -15.6152   22.6364 C   0  0  2  0  0  0  0  0  0  0  0  0
    7.6404  -16.4083   22.7396 N   0  0  0  0  0  0  0  0  0  0  0  0
    9.5918  -15.5687   23.9156 C   0  0  0  0  0  0  0  0  0  0  0  0
   10.5039  -14.7200   24.0844 O   0  0  0  0  0  0  0  0  0  0  0  0
    7.3515  -13.2518   20.2620 C   0  0  0  0  0  0  0  0  0  0  0  0
    7.2922  -12.9783   18.8895 C   0  0  0  0  0  0  0  0  0  0  0  0
    9.5100  -13.4816   28.3382 C   0  0  0  0  0  0  0  0  0  0  0  0
    8.3132  -14.3006   27.9853 C   0  0  1  0  0  0  0  0  0  0  0  0
    7.1051  -13.3589   28.0723 C   0  0  0  0  0  0  0  0  0  0  0  0
    8.3242  -14.8896   26.6048 C   0  0  0  0  0  0  0  0  0  0  0  0
    9.3038  -15.9962   26.3895 C   0  0  2  0  0  0  0  0  0  0  0  0
    9.3316  -16.4427   25.0019 N   0  0  0  0  0  0  0  0  0  0  0  0
    9.1057  -17.1814   27.2452 C   0  0  0  0  0  0  0  0  0  0  0  0
    8.6693  -18.3873   26.7176 O   0  0  0  0  0  0  0  0  0  0  0  0
    9.3218  -17.1552   28.4836 O   0  0  0  0  0  0  0  0  0  0  0  0
  2  1  1  0
  3  2  1  0
  4  3  1  0
  4  5  1  0
  5  6  1  1
  7  5  1  0
  7  8  2  0
  9 10  1  0
 10 20  2  0
 10 11  1  0
 11 12  2  0
 12 13  1  0
 13 14  1  0
 15 14  1  1
 15 16  1  0
 16  7  1  0
 17 15  1  0
 18 17  2  0
 19 13  2  0
 20 19  1  0
 22 21  1  6
 22 24  1  0
 23 22  1  0
 25 24  1  6
 25 26  1  0
 25 27  1  0
 26 17  1  0
 27 28  1  0
 29 27  2  0
M  END
$$$$
