MYL.pdb
     RDKit          3D

 29 29  0  0  1  0  0  0  0  0999 V2000
    9.4824  -12.2863   19.1925 C   0  0  0  0  0  0  0  0  0  0  0  0
    7.7532  -12.7096   18.9981 S   0  0  0  0  0  0  0  0  0  0  0  0
    7.4802  -14.4373   18.5971 C   0  0  0  0  0  0  0  0  0  0  0  0
    8.3872  -15.3621   19.3758 C   0  0  0  0  0  0  0  0  0  0  0  0
    7.6598  -16.2302   20.3387 C   0  0  2  0  0  0  0  0  0  0  0  0
    6.6988  -15.4269   21.0692 N   0  0  0  0  0  0  0  0  0  0  0  0
    8.5343  -16.9315   21.2982 C   0  0  0  0  0  0  0  0  0  0  0  0
    8.8252  -18.1528   21.1184 O   0  0  0  0  0  0  0  0  0  0  0  0
   15.6820  -19.9075   24.6710 O   0  0  0  0  0  0  0  0  0  0  0  0
   14.6149  -19.2135   24.1152 C   0  0  0  0  0  0  0  0  0  0  0  0
   14.6210  -17.8368   23.9991 C   0  0  0  0  0  0  0  0  0  0  0  0
   13.5316  -17.1796   23.4360 C   0  0  0  0  0  0  0  0  0  0  0  0
   12.4370  -17.8692   22.9865 C   0  0  0  0  0  0  0  0  0  0  0  0
   11.2992  -17.1834   22.4030 C   0  0  0  0  0  0  0  0  0  0  0  0
   10.1201  -16.9524   23.2826 C   0  0  2  0  0  0  0  0  0  0  0  0
    9.0989  -16.3302   22.4508 N   0  0  0  0  0  0  0  0  0  0  0  0
   10.4856  -16.1008   24.4308 C   0  0  0  0  0  0  0  0  0  0  0  0
   11.3054  -16.5205   25.2866 O   0  0  0  0  0  0  0  0  0  0  0  0
   12.4331  -19.2414   23.1034 C   0  0  0  0  0  0  0  0  0  0  0  0
   13.5206  -19.9206   23.6675 C   0  0  0  0  0  0  0  0  0  0  0  0
    7.4514  -12.1653   27.2763 C   0  0  0  0  0  0  0  0  0  0  0  0
    6.9653  -13.3423   26.4978 C   0  0  1  0  0  0  0  0  0  0  0  0
    5.6216  -12.9283   25.8836 C   0  0  0  0  0  0  0  0  0  0  0  0
    7.8572  -13.7790   25.3724 C   0  0  0  0  0  0  0  0  0  0  0  0
    9.1195  -14.4620   25.7851 C   0  0  2  0  0  0  0  0  0  0  0  0
    9.9594  -14.8008   24.6426 N   0  0  0  0  0  0  0  0  0  0  0  0
    8.9343  -15.6831   26.5920 C   0  0  0  0  0  0  0  0  0  0  0  0
    9.6445  -15.8870   27.7655 O   0  0  0  0  0  0  0  0  0  0  0  0
    8.1298  -16.5896   26.2573 O   0  0  0  0  0  0  0  0  0  0  0  0
  2  1  1  0
  3  2  1  0
  4  3  1  0
  4  5  1  0
  5  6  1  1
  7  5  1  0
  7  8  2  0
  9 10  1  0
 10 20  2  0
 10 11  1  0
 11 12  2  0
 12 13  1  0
 13 14  1  0
 15 14  1  6
 15 16  1  0
 16  7  1  0
 17 15  1  0
 18 17  2  0
 19 13  2  0
 20 19  1  0
 22 21  1  6
 22 24  1  0
 23 22  1  0
 25 24  1  6
 25 26  1  0
 25 27  1  0
 26 17  1  0
 27 28  1  0
 29 27  2  0
M  END
$$$$
