MYL.pdb
     RDKit          3D

 29 29  0  0  1  0  0  0  0  0999 V2000
    5.4971  -12.4100   25.0746 C   0  0  0  0  0  0  0  0  0  0  0  0
    5.5221  -13.7433   26.2699 S   0  0  0  0  0  0  0  0  0  0  0  0
    6.2358  -15.2617   25.6332 C   0  0  0  0  0  0  0  0  0  0  0  0
    5.6287  -15.6770   24.3128 C   0  0  0  0  0  0  0  0  0  0  0  0
    6.1805  -16.9521   23.7839 C   0  0  2  0  0  0  0  0  0  0  0  0
    5.8520  -18.0272   24.6998 N   0  0  0  0  0  0  0  0  0  0  0  0
    7.6393  -16.9324   23.5631 C   0  0  0  0  0  0  0  0  0  0  0  0
    8.3719  -17.8336   24.0724 O   0  0  0  0  0  0  0  0  0  0  0  0
    6.8844  -13.6945   17.2015 O   0  0  0  0  0  0  0  0  0  0  0  0
    7.6584  -13.9268   18.3310 C   0  0  0  0  0  0  0  0  0  0  0  0
    7.8483  -12.9578   19.2974 C   0  0  0  0  0  0  0  0  0  0  0  0
    8.6313  -13.2310   20.4146 C   0  0  0  0  0  0  0  0  0  0  0  0
    9.2280  -14.4517   20.5861 C   0  0  0  0  0  0  0  0  0  0  0  0
   10.0479  -14.7352   21.7492 C   0  0  0  0  0  0  0  0  0  0  0  0
    9.7448  -15.9802   22.5078 C   0  0  2  0  0  0  0  0  0  0  0  0
    8.3178  -15.9505   22.7985 N   0  0  0  0  0  0  0  0  0  0  0  0
   10.5539  -16.0496   23.7398 C   0  0  0  0  0  0  0  0  0  0  0  0
   11.8032  -16.1677   23.6632 O   0  0  0  0  0  0  0  0  0  0  0  0
    9.0375  -15.4161   19.6215 C   0  0  0  0  0  0  0  0  0  0  0  0
    8.2526  -15.1596   18.4900 C   0  0  0  0  0  0  0  0  0  0  0  0
   12.2211  -14.1229   28.5711 C   0  0  0  0  0  0  0  0  0  0  0  0
   10.9781  -14.9491   28.5798 C   0  0  1  0  0  0  0  0  0  0  0  0
   10.0404  -14.3070   29.6105 C   0  0  0  0  0  0  0  0  0  0  0  0
   10.2381  -15.0071   27.2753 C   0  0  0  0  0  0  0  0  0  0  0  0
   10.8215  -15.9223   26.2493 C   0  0  2  0  0  0  0  0  0  0  0  0
   10.0024  -15.9906   25.0452 N   0  0  0  0  0  0  0  0  0  0  0  0
   11.0686  -17.3016   26.7107 C   0  0  0  0  0  0  0  0  0  0  0  0
   12.3231  -17.7035   27.1439 O   0  0  0  0  0  0  0  0  0  0  0  0
   10.1609  -18.1714   26.7336 O   0  0  0  0  0  0  0  0  0  0  0  0
  2  1  1  0
  3  2  1  0
  4  3  1  0
  4  5  1  0
  5  6  1  1
  7  5  1  0
  7  8  2  0
  9 10  1  0
 10 20  2  0
 10 11  1  0
 11 12  2  0
 12 13  1  0
 13 14  1  0
 15 14  1  1
 15 16  1  0
 16  7  1  0
 17 15  1  0
 18 17  2  0
 19 13  2  0
 20 19  1  0
 22 21  1  6
 22 24  1  0
 23 22  1  0
 25 24  1  1
 25 26  1  0
 25 27  1  0
 26 17  1  0
 27 28  1  0
 29 27  2  0
M  END
$$$$
