MYL.pdb
     RDKit          3D

 29 29  0  0  1  0  0  0  0  0999 V2000
    8.4914  -19.3943   16.6065 C   0  0  0  0  0  0  0  0  0  0  0  0
    6.9165  -19.9095   17.2858 S   0  0  0  0  0  0  0  0  0  0  0  0
    6.7564  -19.5886   19.0442 C   0  0  0  0  0  0  0  0  0  0  0  0
    7.8058  -18.6282   19.5548 C   0  0  0  0  0  0  0  0  0  0  0  0
    7.7060  -18.3657   21.0147 C   0  0  2  0  0  0  0  0  0  0  0  0
    6.3651  -17.9088   21.3239 N   0  0  0  0  0  0  0  0  0  0  0  0
    8.6821  -17.3804   21.5184 C   0  0  0  0  0  0  0  0  0  0  0  0
    9.9252  -17.6193   21.4400 O   0  0  0  0  0  0  0  0  0  0  0  0
    8.0867  -13.8326   16.2484 O   0  0  0  0  0  0  0  0  0  0  0  0
    8.2894  -13.8458   17.6224 C   0  0  0  0  0  0  0  0  0  0  0  0
    9.4427  -14.3581   18.1848 C   0  0  0  0  0  0  0  0  0  0  0  0
    9.6068  -14.3524   19.5665 C   0  0  0  0  0  0  0  0  0  0  0  0
    8.6430  -13.8457   20.3971 C   0  0  0  0  0  0  0  0  0  0  0  0
    8.8125  -13.8437   21.8382 C   0  0  0  0  0  0  0  0  0  0  0  0
    9.2920  -15.1047   22.4684 C   0  0  2  0  0  0  0  0  0  0  0  0
    8.3324  -16.1391   22.1064 N   0  0  0  0  0  0  0  0  0  0  0  0
    9.4022  -14.9470   23.9313 C   0  0  0  0  0  0  0  0  0  0  0  0
   10.3238  -14.2439   24.4182 O   0  0  0  0  0  0  0  0  0  0  0  0
    7.4942  -13.3358   19.8342 C   0  0  0  0  0  0  0  0  0  0  0  0
    7.3111  -13.3328   18.4455 C   0  0  0  0  0  0  0  0  0  0  0  0
    5.8328  -12.5810   26.4359 C   0  0  0  0  0  0  0  0  0  0  0  0
    7.1752  -13.1903   26.2024 C   0  0  1  0  0  0  0  0  0  0  0  0
    8.1933  -12.2640   26.8802 C   0  0  0  0  0  0  0  0  0  0  0  0
    7.3648  -14.5631   26.7786 C   0  0  0  0  0  0  0  0  0  0  0  0
    8.5678  -15.3011   26.2901 C   0  0  2  0  0  0  0  0  0  0  0  0
    8.5126  -15.5526   24.8552 N   0  0  0  0  0  0  0  0  0  0  0  0
    8.8310  -16.5850   26.9675 C   0  0  0  0  0  0  0  0  0  0  0  0
    9.0161  -17.7557   26.2477 O   0  0  0  0  0  0  0  0  0  0  0  0
    8.9002  -16.6782   28.2195 O   0  0  0  0  0  0  0  0  0  0  0  0
  2  1  1  0
  3  2  1  0
  4  3  1  0
  4  5  1  0
  5  6  1  6
  7  5  1  0
  7  8  2  0
  9 10  1  0
 10 20  2  0
 10 11  1  0
 11 12  2  0
 12 13  1  0
 13 14  1  0
 15 14  1  6
 15 16  1  0
 16  7  1  0
 17 15  1  0
 18 17  2  0
 19 13  2  0
 20 19  1  0
 22 21  1  1
 22 24  1  0
 23 22  1  0
 25 24  1  1
 25 26  1  0
 25 27  1  0
 26 17  1  0
 27 28  1  0
 29 27  2  0
M  END
$$$$
