MYL.pdb
     RDKit          3D

 29 29  0  0  1  0  0  0  0  0999 V2000
    6.9507  -20.6166   20.7828 C   0  0  0  0  0  0  0  0  0  0  0  0
    7.5446  -19.5985   19.4344 S   0  0  0  0  0  0  0  0  0  0  0  0
    7.8583  -17.8962   19.9076 C   0  0  0  0  0  0  0  0  0  0  0  0
    6.7237  -17.3001   20.7088 C   0  0  0  0  0  0  0  0  0  0  0  0
    6.9345  -15.8704   21.0579 C   0  0  2  0  0  0  0  0  0  0  0  0
    7.4915  -15.1793   19.9114 N   0  0  0  0  0  0  0  0  0  0  0  0
    7.8116  -15.6577   22.2253 C   0  0  0  0  0  0  0  0  0  0  0  0
    8.9453  -15.1088   22.0772 O   0  0  0  0  0  0  0  0  0  0  0  0
    6.3847  -10.0407   26.6988 O   0  0  0  0  0  0  0  0  0  0  0  0
    6.6814  -11.3826   26.4982 C   0  0  0  0  0  0  0  0  0  0  0  0
    7.9487  -11.8896   26.7122 C   0  0  0  0  0  0  0  0  0  0  0  0
    8.2044  -13.2406   26.4996 C   0  0  0  0  0  0  0  0  0  0  0  0
    7.2206  -14.0950   26.0780 C   0  0  0  0  0  0  0  0  0  0  0  0
    7.4884  -15.5031   25.8524 C   0  0  0  0  0  0  0  0  0  0  0  0
    8.3611  -15.8529   24.6977 C   0  0  2  0  0  0  0  0  0  0  0  0
    7.4797  -16.0307   23.5517 N   0  0  0  0  0  0  0  0  0  0  0  0
    9.1404  -17.0727   24.9843 C   0  0  0  0  0  0  0  0  0  0  0  0
    8.5633  -18.1887   25.0300 O   0  0  0  0  0  0  0  0  0  0  0  0
    5.9581  -13.5874   25.8652 C   0  0  0  0  0  0  0  0  0  0  0  0
    5.6816  -12.2302   26.0739 C   0  0  0  0  0  0  0  0  0  0  0  0
   12.0264  -17.8394   22.7671 C   0  0  0  0  0  0  0  0  0  0  0  0
   12.9678  -18.4925   23.7235 C   0  0  1  0  0  0  0  0  0  0  0  0
   14.3649  -17.9534   23.3898 C   0  0  0  0  0  0  0  0  0  0  0  0
   12.7105  -18.2042   25.1738 C   0  0  0  0  0  0  0  0  0  0  0  0
   11.2793  -18.2717   25.5951 C   0  0  2  0  0  0  0  0  0  0  0  0
   10.5391  -17.0733   25.2193 N   0  0  0  0  0  0  0  0  0  0  0  0
   11.0622  -18.5082   27.0350 C   0  0  0  0  0  0  0  0  0  0  0  0
   11.4950  -19.6744   27.6478 O   0  0  0  0  0  0  0  0  0  0  0  0
   10.4799  -17.6701   27.7695 O   0  0  0  0  0  0  0  0  0  0  0  0
  2  1  1  0
  3  2  1  0
  4  3  1  0
  4  5  1  0
  5  6  1  6
  7  5  1  0
  7  8  2  0
  9 10  1  0
 10 20  2  0
 10 11  1  0
 11 12  2  0
 12 13  1  0
 13 14  1  0
 15 14  1  1
 15 16  1  0
 16  7  1  0
 17 15  1  0
 18 17  2  0
 19 13  2  0
 20 19  1  0
 22 21  1  6
 22 24  1  0
 23 22  1  0
 25 24  1  1
 25 26  1  0
 25 27  1  0
 26 17  1  0
 27 28  1  0
 29 27  2  0
M  END
$$$$
