MYL.pdb
     RDKit          3D

 29 29  0  0  1  0  0  0  0  0999 V2000
    8.4985  -18.5329   16.3826 C   0  0  0  0  0  0  0  0  0  0  0  0
    7.4776  -19.7860   17.1538 S   0  0  0  0  0  0  0  0  0  0  0  0
    7.3498  -19.6083   18.9349 C   0  0  0  0  0  0  0  0  0  0  0  0
    8.2422  -18.5133   19.4724 C   0  0  0  0  0  0  0  0  0  0  0  0
    8.1866  -18.3789   20.9520 C   0  0  2  0  0  0  0  0  0  0  0  0
    6.8161  -18.1295   21.3544 N   0  0  0  0  0  0  0  0  0  0  0  0
    9.0524  -17.3139   21.4938 C   0  0  0  0  0  0  0  0  0  0  0  0
   10.3084  -17.3692   21.3272 O   0  0  0  0  0  0  0  0  0  0  0  0
    7.8320  -13.5571   16.5801 O   0  0  0  0  0  0  0  0  0  0  0  0
    8.0930  -13.6247   17.9426 C   0  0  0  0  0  0  0  0  0  0  0  0
    9.3819  -13.6112   18.4402 C   0  0  0  0  0  0  0  0  0  0  0  0
    9.6004  -13.6806   19.8125 C   0  0  0  0  0  0  0  0  0  0  0  0
    8.5583  -13.7630   20.6974 C   0  0  0  0  0  0  0  0  0  0  0  0
    8.7864  -13.8395   22.1283 C   0  0  0  0  0  0  0  0  0  0  0  0
    9.4189  -15.0823   22.6506 C   0  0  2  0  0  0  0  0  0  0  0  0
    8.5785  -16.1891   22.2142 N   0  0  0  0  0  0  0  0  0  0  0  0
    9.5357  -15.0292   24.1206 C   0  0  0  0  0  0  0  0  0  0  0  0
   10.4618  -14.3654   24.6521 O   0  0  0  0  0  0  0  0  0  0  0  0
    7.2745  -13.7764   20.1991 C   0  0  0  0  0  0  0  0  0  0  0  0
    7.0347  -13.7073   18.8208 C   0  0  0  0  0  0  0  0  0  0  0  0
    5.8158  -12.9429   26.6888 C   0  0  0  0  0  0  0  0  0  0  0  0
    7.1913  -13.4706   26.4492 C   0  0  1  0  0  0  0  0  0  0  0  0
    8.1501  -12.5265   27.1863 C   0  0  0  0  0  0  0  0  0  0  0  0
    7.4440  -14.8578   26.9635 C   0  0  0  0  0  0  0  0  0  0  0  0
    8.6827  -15.5147   26.4491 C   0  0  2  0  0  0  0  0  0  0  0  0
    8.6480  -15.6961   25.0030 N   0  0  0  0  0  0  0  0  0  0  0  0
    9.0004  -16.8176   27.0639 C   0  0  0  0  0  0  0  0  0  0  0  0
    9.1927  -17.9524   26.2905 O   0  0  0  0  0  0  0  0  0  0  0  0
    9.1118  -16.9600   28.3082 O   0  0  0  0  0  0  0  0  0  0  0  0
  2  1  1  0
  3  2  1  0
  4  3  1  0
  4  5  1  0
  5  6  1  6
  7  5  1  0
  7  8  2  0
  9 10  1  0
 10 20  2  0
 10 11  1  0
 11 12  2  0
 12 13  1  0
 13 14  1  0
 15 14  1  1
 15 16  1  0
 16  7  1  0
 17 15  1  0
 18 17  2  0
 19 13  2  0
 20 19  1  0
 22 21  1  1
 22 24  1  0
 23 22  1  0
 25 24  1  1
 25 26  1  0
 25 27  1  0
 26 17  1  0
 27 28  1  0
 29 27  2  0
M  END
$$$$
