MYL.pdb
     RDKit          3D

 29 29  0  0  1  0  0  0  0  0999 V2000
    6.5361  -12.1150   27.0650 C   0  0  0  0  0  0  0  0  0  0  0  0
    5.1511  -13.1902   27.4292 S   0  0  0  0  0  0  0  0  0  0  0  0
    5.0003  -14.5720   26.2942 C   0  0  0  0  0  0  0  0  0  0  0  0
    6.3428  -15.1273   25.8773 C   0  0  0  0  0  0  0  0  0  0  0  0
    6.2902  -15.9175   24.6192 C   0  0  2  0  0  0  0  0  0  0  0  0
    5.4402  -17.0747   24.8210 N   0  0  0  0  0  0  0  0  0  0  0  0
    7.6095  -16.3641   24.1320 C   0  0  0  0  0  0  0  0  0  0  0  0
    7.9636  -17.5737   24.2737 O   0  0  0  0  0  0  0  0  0  0  0  0
    7.1353  -13.3696   17.7528 O   0  0  0  0  0  0  0  0  0  0  0  0
    7.9335  -13.7663   18.8180 C   0  0  0  0  0  0  0  0  0  0  0  0
    8.4469  -15.0459   18.9082 C   0  0  0  0  0  0  0  0  0  0  0  0
    9.2427  -15.4032   19.9921 C   0  0  0  0  0  0  0  0  0  0  0  0
    9.5361  -14.5090   20.9870 C   0  0  0  0  0  0  0  0  0  0  0  0
   10.3627  -14.8830   22.1194 C   0  0  0  0  0  0  0  0  0  0  0  0
    9.8516  -15.9641   23.0068 C   0  0  2  0  0  0  0  0  0  0  0  0
    8.5523  -15.5203   23.4933 N   0  0  0  0  0  0  0  0  0  0  0  0
   10.7937  -16.2185   24.1136 C   0  0  0  0  0  0  0  0  0  0  0  0
   11.9476  -16.6525   23.8670 O   0  0  0  0  0  0  0  0  0  0  0  0
    9.0232  -13.2342   20.8951 C   0  0  0  0  0  0  0  0  0  0  0  0
    8.2202  -12.8560   19.8115 C   0  0  0  0  0  0  0  0  0  0  0  0
   10.5228  -13.3712   28.8287 C   0  0  0  0  0  0  0  0  0  0  0  0
   10.8990  -14.1391   27.6054 C   0  0  1  0  0  0  0  0  0  0  0  0
   12.2288  -13.5495   27.1178 C   0  0  0  0  0  0  0  0  0  0  0  0
   11.1099  -15.6107   27.8122 C   0  0  0  0  0  0  0  0  0  0  0  0
   11.3574  -16.4020   26.5700 C   0  0  2  0  0  0  0  0  0  0  0  0
   10.4776  -16.0008   25.4790 N   0  0  0  0  0  0  0  0  0  0  0  0
   11.2481  -17.8646   26.7287 C   0  0  0  0  0  0  0  0  0  0  0  0
   10.3415  -18.6051   25.9851 O   0  0  0  0  0  0  0  0  0  0  0  0
   11.9661  -18.5044   27.5386 O   0  0  0  0  0  0  0  0  0  0  0  0
  2  1  1  0
  3  2  1  0
  4  3  1  0
  4  5  1  0
  5  6  1  1
  7  5  1  0
  7  8  2  0
  9 10  1  0
 10 20  2  0
 10 11  1  0
 11 12  2  0
 12 13  1  0
 13 14  1  0
 15 14  1  6
 15 16  1  0
 16  7  1  0
 17 15  1  0
 18 17  2  0
 19 13  2  0
 20 19  1  0
 22 21  1  1
 22 24  1  0
 23 22  1  0
 25 24  1  1
 25 26  1  0
 25 27  1  0
 26 17  1  0
 27 28  1  0
 29 27  2  0
M  END
$$$$
