MYL.pdb
     RDKit          3D

 29 29  0  0  1  0  0  0  0  0999 V2000
    5.1226  -23.0800   20.7711 C   0  0  0  0  0  0  0  0  0  0  0  0
    5.5035  -23.6988   22.4080 S   0  0  0  0  0  0  0  0  0  0  0  0
    5.8377  -22.4024   23.6030 C   0  0  0  0  0  0  0  0  0  0  0  0
    6.1280  -21.0720   22.9472 C   0  0  0  0  0  0  0  0  0  0  0  0
    6.4132  -19.9840   23.9194 C   0  0  2  0  0  0  0  0  0  0  0  0
    5.1597  -19.4211   24.3824 N   0  0  0  0  0  0  0  0  0  0  0  0
    7.2612  -18.9024   23.3825 C   0  0  0  0  0  0  0  0  0  0  0  0
    8.4374  -19.1561   22.9815 O   0  0  0  0  0  0  0  0  0  0  0  0
    8.9712  -11.8721   18.3784 O   0  0  0  0  0  0  0  0  0  0  0  0
    8.4291  -12.7960   19.2624 C   0  0  0  0  0  0  0  0  0  0  0  0
    8.3459  -14.1400   18.9531 C   0  0  0  0  0  0  0  0  0  0  0  0
    7.7957  -15.0332   19.8670 C   0  0  0  0  0  0  0  0  0  0  0  0
    7.3274  -14.6116   21.0830 C   0  0  0  0  0  0  0  0  0  0  0  0
    6.7499  -15.5425   22.0344 C   0  0  0  0  0  0  0  0  0  0  0  0
    7.6801  -16.4888   22.7102 C   0  0  2  0  0  0  0  0  0  0  0  0
    6.8549  -17.5490   23.2731 N   0  0  0  0  0  0  0  0  0  0  0  0
    8.4650  -15.7949   23.7493 C   0  0  0  0  0  0  0  0  0  0  0  0
    9.4585  -15.0971   23.4228 O   0  0  0  0  0  0  0  0  0  0  0  0
    7.4112  -13.2714   21.3891 C   0  0  0  0  0  0  0  0  0  0  0  0
    7.9619  -12.3572   20.4819 C   0  0  0  0  0  0  0  0  0  0  0  0
    5.7852  -13.0266   27.0229 C   0  0  0  0  0  0  0  0  0  0  0  0
    6.9647  -13.4707   26.2234 C   0  0  1  0  0  0  0  0  0  0  0  0
    7.6515  -12.1937   25.7218 C   0  0  0  0  0  0  0  0  0  0  0  0
    7.9900  -14.2637   26.9801 C   0  0  0  0  0  0  0  0  0  0  0  0
    8.8973  -15.1019   26.1406 C   0  0  2  0  0  0  0  0  0  0  0  0
    8.1670  -15.8630   25.1343 N   0  0  0  0  0  0  0  0  0  0  0  0
    9.7517  -16.0418   26.8910 C   0  0  0  0  0  0  0  0  0  0  0  0
    9.7912  -17.3913   26.5739 O   0  0  0  0  0  0  0  0  0  0  0  0
   10.4794  -15.6673   27.8454 O   0  0  0  0  0  0  0  0  0  0  0  0
  2  1  1  0
  3  2  1  0
  4  3  1  0
  4  5  1  0
  5  6  1  6
  7  5  1  0
  7  8  2  0
  9 10  1  0
 10 20  2  0
 10 11  1  0
 11 12  2  0
 12 13  1  0
 13 14  1  0
 15 14  1  1
 15 16  1  0
 16  7  1  0
 17 15  1  0
 18 17  2  0
 19 13  2  0
 20 19  1  0
 22 21  1  1
 22 24  1  0
 23 22  1  0
 25 24  1  1
 25 26  1  0
 25 27  1  0
 26 17  1  0
 27 28  1  0
 29 27  2  0
M  END
$$$$
