WAE.pdb
     RDKit          3D

 29 30  0  0  1  0  0  0  0  0999 V2000
   25.5236  -19.4716  -10.8798 N   0  0  0  0  0  0  0  0  0  0  0  0
   26.0679  -20.8185  -11.0269 C   0  0  1  0  0  0  0  0  0  0  0  0
   25.9297  -21.4762   -9.6847 C   0  0  0  0  0  0  0  0  0  0  0  0
   26.6033  -20.7133   -8.6033 C   0  0  0  0  0  0  0  0  0  0  0  0
   25.9868  -19.8281   -7.7322 C   0  0  0  0  0  0  0  0  0  0  0  0
   26.9515  -19.3615   -6.9205 N   0  0  0  0  0  0  0  0  0  0  0  0
   28.1336  -19.8974   -7.2266 C   0  0  0  0  0  0  0  0  0  0  0  0
   29.4224  -19.7571   -6.7115 C   0  0  0  0  0  0  0  0  0  0  0  0
   30.4981  -20.4465   -7.2284 C   0  0  0  0  0  0  0  0  0  0  0  0
   30.3152  -21.3093   -8.2913 C   0  0  0  0  0  0  0  0  0  0  0  0
   29.0321  -21.4421   -8.7963 C   0  0  0  0  0  0  0  0  0  0  0  0
   27.9485  -20.7536   -8.2825 C   0  0  0  0  0  0  0  0  0  0  0  0
   25.3557  -21.5620  -12.0969 C   0  0  0  0  0  0  0  0  0  0  0  0
   25.5585  -22.7845  -12.3108 O   0  0  0  0  0  0  0  0  0  0  0  0
   22.4617  -20.9163  -14.4540 C   0  0  0  0  0  0  0  0  0  0  0  0
   23.7502  -21.5939  -14.0498 C   0  0  2  0  0  0  0  0  0  0  0  0
   24.3951  -20.9343  -12.9501 N   0  0  0  0  0  0  0  0  0  0  0  0
   24.6403  -21.7277  -15.2331 C   0  0  0  0  0  0  0  0  0  0  0  0
   25.3498  -20.7439  -15.5588 O   0  0  0  0  0  0  0  0  0  0  0  0
   24.7074  -22.9235  -15.9938 N   0  0  0  0  0  0  0  0  0  0  0  0
   25.6103  -23.0588  -17.1438 C   0  0  1  0  0  0  0  0  0  0  0  0
   26.0159  -24.4932  -17.3360 C   0  0  0  0  0  0  0  0  0  0  0  0
   26.9705  -25.0227  -16.3263 C   0  0  0  0  0  0  0  0  0  0  0  0
   27.1706  -26.4736  -16.5513 C   0  0  0  0  0  0  0  0  0  0  0  0
   26.5346  -27.0383  -17.4679 O   0  0  0  0  0  0  0  0  0  0  0  0
   24.9812  -22.4321  -18.3063 C   0  0  0  0  0  0  0  0  0  0  0  0
   23.7423  -22.4127  -18.4937 O   0  0  0  0  0  0  0  0  0  0  0  0
   28.0351  -27.2482  -15.7916 O   0  0  0  0  0  0  0  0  0  0  0  0
   25.7547  -21.8104  -19.2863 O   0  0  0  0  0  0  0  0  0  0  0  0
  2  1  1  1
  2  3  1  0
  2 13  1  0
  3  4  1  0
  4 12  1  0
  5  6  1  0
  5  4  2  0
  6  7  1  0
  7 12  2  0
  7  8  1  0
  8  9  2  0
  9 10  1  0
 11 10  2  0
 12 11  1  0
 13 14  2  0
 16 15  1  6
 17 13  1  0
 17 16  1  0
 18 16  1  0
 18 19  2  0
 20 18  1  0
 21 20  1  0
 21 26  1  0
 21 22  1  6
 23 24  1  0
 23 22  1  0
 24 25  2  0
 26 27  2  0
 26 29  1  0
 28 24  1  0
M  END
$$$$
