WAE.pdb
     RDKit          3D

 29 30  0  0  1  0  0  0  0  0999 V2000
   15.6505  -16.3584    5.3735 N   0  0  0  0  0  0  0  0  0  0  0  0
   15.6789  -17.6018    6.1387 C   0  0  1  0  0  0  0  0  0  0  0  0
   16.7789  -18.4342    5.5468 C   0  0  0  0  0  0  0  0  0  0  0  0
   16.3961  -19.0461    4.2490 C   0  0  0  0  0  0  0  0  0  0  0  0
   16.2213  -18.3659    3.0536 C   0  0  0  0  0  0  0  0  0  0  0  0
   15.8801  -19.2896    2.1383 N   0  0  0  0  0  0  0  0  0  0  0  0
   15.8298  -20.5057    2.6832 C   0  0  0  0  0  0  0  0  0  0  0  0
   15.5335  -21.7762    2.1890 C   0  0  0  0  0  0  0  0  0  0  0  0
   15.5540  -22.8979    2.9895 C   0  0  0  0  0  0  0  0  0  0  0  0
   15.8759  -22.7817    4.3277 C   0  0  0  0  0  0  0  0  0  0  0  0
   16.1685  -21.5163    4.8095 C   0  0  0  0  0  0  0  0  0  0  0  0
   16.1498  -20.3868    4.0120 C   0  0  0  0  0  0  0  0  0  0  0  0
   15.8913  -17.3284    7.5827 C   0  0  0  0  0  0  0  0  0  0  0  0
   16.9013  -16.7094    8.0049 O   0  0  0  0  0  0  0  0  0  0  0  0
   13.8563  -17.3445   10.7306 C   0  0  0  0  0  0  0  0  0  0  0  0
   15.1565  -17.5568    9.9912 C   0  0  2  0  0  0  0  0  0  0  0  0
   14.9608  -17.7517    8.5826 N   0  0  0  0  0  0  0  0  0  0  0  0
   15.9156  -18.6705   10.6188 C   0  0  0  0  0  0  0  0  0  0  0  0
   16.0646  -19.7324    9.9649 O   0  0  0  0  0  0  0  0  0  0  0  0
   16.4687  -18.5651   11.9212 N   0  0  0  0  0  0  0  0  0  0  0  0
   17.1948  -19.6783   12.5452 C   0  0  1  0  0  0  0  0  0  0  0  0
   18.6387  -19.6721   12.1279 C   0  0  0  0  0  0  0  0  0  0  0  0
   19.4989  -20.6774   12.8066 C   0  0  0  0  0  0  0  0  0  0  0  0
   19.5117  -21.9295   12.0143 C   0  0  0  0  0  0  0  0  0  0  0  0
   19.1803  -23.0006   12.5679 O   0  0  0  0  0  0  0  0  0  0  0  0
   16.9676  -19.6313   13.9896 C   0  0  0  0  0  0  0  0  0  0  0  0
   16.5647  -18.6089   14.5918 O   0  0  0  0  0  0  0  0  0  0  0  0
   19.8756  -21.9785   10.6765 O   0  0  0  0  0  0  0  0  0  0  0  0
   17.1960  -20.7549   14.7838 O   0  0  0  0  0  0  0  0  0  0  0  0
  2  1  1  6
  2  3  1  0
  2 13  1  0
  3  4  1  0
  4 12  1  0
  5  6  1  0
  5  4  2  0
  6  7  1  0
  7 12  2  0
  7  8  1  0
  8  9  2  0
  9 10  1  0
 11 10  2  0
 12 11  1  0
 13 14  2  0
 16 15  1  1
 17 13  1  0
 17 16  1  0
 18 16  1  0
 18 19  2  0
 20 18  1  0
 21 20  1  0
 21 26  1  0
 21 22  1  1
 23 24  1  0
 23 22  1  0
 24 25  2  0
 26 27  2  0
 26 29  1  0
 28 24  1  0
M  END
$$$$
