WAE.pdb
     RDKit          3D

 29 30  0  0  1  0  0  0  0  0999 V2000
   25.7948  -19.2397  -11.4161 N   0  0  0  0  0  0  0  0  0  0  0  0
   26.1817  -20.5910  -11.8116 C   0  0  1  0  0  0  0  0  0  0  0  0
   25.8481  -21.4805  -10.6494 C   0  0  0  0  0  0  0  0  0  0  0  0
   26.2700  -20.9019   -9.3484 C   0  0  0  0  0  0  0  0  0  0  0  0
   25.4525  -20.2129   -8.4657 C   0  0  0  0  0  0  0  0  0  0  0  0
   26.2275  -19.8658   -7.4236 N   0  0  0  0  0  0  0  0  0  0  0  0
   27.4789  -20.2931   -7.5961 C   0  0  0  0  0  0  0  0  0  0  0  0
   28.6463  -20.2009   -6.8379 C   0  0  0  0  0  0  0  0  0  0  0  0
   29.8402  -20.7447   -7.2603 C   0  0  0  0  0  0  0  0  0  0  0  0
   29.9041  -21.4066   -8.4709 C   0  0  0  0  0  0  0  0  0  0  0  0
   28.7400  -21.4931   -9.2169 C   0  0  0  0  0  0  0  0  0  0  0  0
   27.5389  -20.9498   -8.7991 C   0  0  0  0  0  0  0  0  0  0  0  0
   25.4800  -20.9985  -13.0552 C   0  0  0  0  0  0  0  0  0  0  0  0
   24.2350  -20.8829  -13.1893 O   0  0  0  0  0  0  0  0  0  0  0  0
   26.5107  -22.4910  -16.4126 C   0  0  0  0  0  0  0  0  0  0  0  0
   25.5268  -22.0380  -15.3595 C   0  0  2  0  0  0  0  0  0  0  0  0
   26.1762  -21.5473  -14.1771 N   0  0  0  0  0  0  0  0  0  0  0  0
   24.5647  -23.1329  -15.0664 C   0  0  0  0  0  0  0  0  0  0  0  0
   24.9816  -24.1417  -14.4453 O   0  0  0  0  0  0  0  0  0  0  0  0
   23.2047  -23.0677  -15.4659 N   0  0  0  0  0  0  0  0  0  0  0  0
   22.2469  -24.1268  -15.1245 C   0  0  1  0  0  0  0  0  0  0  0  0
   21.2902  -23.6576  -14.0645 C   0  0  0  0  0  0  0  0  0  0  0  0
   20.2872  -22.6562  -14.5144 C   0  0  0  0  0  0  0  0  0  0  0  0
   20.0555  -21.6709  -13.4321 C   0  0  0  0  0  0  0  0  0  0  0  0
   19.7561  -22.0837  -12.2904 O   0  0  0  0  0  0  0  0  0  0  0  0
   21.6199  -24.6031  -16.3575 C   0  0  0  0  0  0  0  0  0  0  0  0
   21.5973  -23.9402  -17.4206 O   0  0  0  0  0  0  0  0  0  0  0  0
   20.1539  -20.2999  -13.6190 O   0  0  0  0  0  0  0  0  0  0  0  0
   21.0014  -25.8522  -16.4058 O   0  0  0  0  0  0  0  0  0  0  0  0
  2  1  1  1
  2  3  1  0
  2 13  1  0
  3  4  1  0
  4 12  1  0
  5  6  1  0
  5  4  2  0
  6  7  1  0
  7 12  2  0
  7  8  1  0
  8  9  2  0
  9 10  1  0
 11 10  2  0
 12 11  1  0
 13 14  2  0
 16 15  1  6
 17 13  1  0
 17 16  1  0
 18 16  1  0
 18 19  2  0
 20 18  1  0
 21 20  1  0
 21 26  1  0
 21 22  1  1
 23 24  1  0
 23 22  1  0
 24 25  2  0
 26 27  2  0
 26 29  1  0
 28 24  1  0
M  END
$$$$
