WAE.pdb
     RDKit          3D

 29 30  0  0  1  0  0  0  0  0999 V2000
   24.1859  -14.2011  -18.5674 N   0  0  0  0  0  0  0  0  0  0  0  0
   24.0069  -12.7519  -18.5765 C   0  0  1  0  0  0  0  0  0  0  0  0
   23.2788  -12.4267  -19.8483 C   0  0  0  0  0  0  0  0  0  0  0  0
   24.0836  -12.7276  -21.0595 C   0  0  0  0  0  0  0  0  0  0  0  0
   24.4807  -13.9894  -21.4746 C   0  0  0  0  0  0  0  0  0  0  0  0
   25.1853  -13.8120  -22.6057 N   0  0  0  0  0  0  0  0  0  0  0  0
   25.2555  -12.5195  -22.9266 C   0  0  0  0  0  0  0  0  0  0  0  0
   25.8511  -11.8128  -23.9715 C   0  0  0  0  0  0  0  0  0  0  0  0
   25.7708  -10.4403  -24.0683 C   0  0  0  0  0  0  0  0  0  0  0  0
   25.0827   -9.7226  -23.1096 C   0  0  0  0  0  0  0  0  0  0  0  0
   24.4946  -10.4329  -22.0759 C   0  0  0  0  0  0  0  0  0  0  0  0
   24.5713  -11.8097  -21.9726 C   0  0  0  0  0  0  0  0  0  0  0  0
   23.2658  -12.3037  -17.3703 C   0  0  0  0  0  0  0  0  0  0  0  0
   22.1038  -12.7084  -17.1104 O   0  0  0  0  0  0  0  0  0  0  0  0
   24.0221  -10.2350  -14.2757 C   0  0  0  0  0  0  0  0  0  0  0  0
   23.1070  -10.8445  -15.3118 C   0  0  2  0  0  0  0  0  0  0  0  0
   23.8273  -11.3848  -16.4297 N   0  0  0  0  0  0  0  0  0  0  0  0
   22.0813   -9.8502  -15.7236 C   0  0  0  0  0  0  0  0  0  0  0  0
   22.3210   -9.1257  -16.7212 O   0  0  0  0  0  0  0  0  0  0  0  0
   20.8543   -9.7010  -15.0269 N   0  0  0  0  0  0  0  0  0  0  0  0
   19.8312   -8.7409  -15.4596 C   0  0  1  0  0  0  0  0  0  0  0  0
   18.4575   -9.2219  -15.0844 C   0  0  0  0  0  0  0  0  0  0  0  0
   17.9065  -10.3010  -15.9465 C   0  0  0  0  0  0  0  0  0  0  0  0
   16.6052  -10.7518  -15.3996 C   0  0  0  0  0  0  0  0  0  0  0  0
   15.5637  -10.5359  -16.0572 O   0  0  0  0  0  0  0  0  0  0  0  0
   20.1860   -7.4183  -14.9449 C   0  0  0  0  0  0  0  0  0  0  0  0
   20.7716   -7.2376  -13.8519 O   0  0  0  0  0  0  0  0  0  0  0  0
   16.4782  -11.4078  -14.1839 O   0  0  0  0  0  0  0  0  0  0  0  0
   19.8794   -6.2662  -15.6688 O   0  0  0  0  0  0  0  0  0  0  0  0
  2  1  1  1
  2  3  1  0
  2 13  1  0
  3  4  1  0
  4 12  1  0
  5  6  1  0
  5  4  2  0
  6  7  1  0
  7 12  2  0
  7  8  1  0
  8  9  2  0
  9 10  1  0
 11 10  2  0
 12 11  1  0
 13 14  2  0
 16 15  1  1
 17 13  1  0
 17 16  1  0
 18 16  1  0
 18 19  2  0
 20 18  1  0
 21 20  1  0
 21 26  1  0
 21 22  1  1
 23 24  1  0
 23 22  1  0
 24 25  2  0
 26 27  2  0
 26 29  1  0
 28 24  1  0
M  END
$$$$
