WAE.pdb
     RDKit          3D

 29 30  0  0  1  0  0  0  0  0999 V2000
   23.0670  -19.5497  -12.0577 N   0  0  0  0  0  0  0  0  0  0  0  0
   22.8876  -20.9849  -12.2587 C   0  0  1  0  0  0  0  0  0  0  0  0
   23.8327  -21.6632  -11.3100 C   0  0  0  0  0  0  0  0  0  0  0  0
   25.2157  -21.1304  -11.4039 C   0  0  0  0  0  0  0  0  0  0  0  0
   25.9175  -20.5153  -10.3785 C   0  0  0  0  0  0  0  0  0  0  0  0
   27.1190  -20.1879  -10.8848 N   0  0  0  0  0  0  0  0  0  0  0  0
   27.2158  -20.5584  -12.1622 C   0  0  0  0  0  0  0  0  0  0  0  0
   28.2193  -20.4571  -13.1259 C   0  0  0  0  0  0  0  0  0  0  0  0
   28.0556  -20.9344  -14.4085 C   0  0  0  0  0  0  0  0  0  0  0  0
   26.8665  -21.5360  -14.7716 C   0  0  0  0  0  0  0  0  0  0  0  0
   25.8758  -21.6320  -13.8081 C   0  0  0  0  0  0  0  0  0  0  0  0
   26.0333  -21.1553  -12.5196 C   0  0  0  0  0  0  0  0  0  0  0  0
   21.4746  -21.3780  -12.0268 C   0  0  0  0  0  0  0  0  0  0  0  0
   20.8205  -20.9680  -11.0341 O   0  0  0  0  0  0  0  0  0  0  0  0
   18.8016  -23.3042  -13.9208 C   0  0  0  0  0  0  0  0  0  0  0  0
   19.4405  -22.7314  -12.6774 C   0  0  2  0  0  0  0  0  0  0  0  0
   20.7701  -22.2467  -12.9176 N   0  0  0  0  0  0  0  0  0  0  0  0
   19.3904  -23.7328  -11.5797 C   0  0  0  0  0  0  0  0  0  0  0  0
   20.3032  -24.5931  -11.5164 O   0  0  0  0  0  0  0  0  0  0  0  0
   18.3507  -23.7408  -10.6143 N   0  0  0  0  0  0  0  0  0  0  0  0
   18.3410  -24.6925   -9.4962 C   0  0  1  0  0  0  0  0  0  0  0  0
   17.7620  -24.0583   -8.2627 C   0  0  0  0  0  0  0  0  0  0  0  0
   17.5099  -24.9887   -7.1304 C   0  0  0  0  0  0  0  0  0  0  0  0
   18.5940  -24.8516   -6.1297 C   0  0  0  0  0  0  0  0  0  0  0  0
   19.2710  -23.8005   -6.1095 O   0  0  0  0  0  0  0  0  0  0  0  0
   17.6733  -25.9185   -9.9337 C   0  0  0  0  0  0  0  0  0  0  0  0
   16.6312  -25.9260  -10.6295 O   0  0  0  0  0  0  0  0  0  0  0  0
   18.9022  -25.8372   -5.2034 O   0  0  0  0  0  0  0  0  0  0  0  0
   18.1817  -27.1697   -9.5856 O   0  0  0  0  0  0  0  0  0  0  0  0
  2  1  1  1
  2  3  1  0
  2 13  1  0
  3  4  1  0
  4 12  1  0
  5  6  1  0
  5  4  2  0
  6  7  1  0
  7 12  2  0
  7  8  1  0
  8  9  2  0
  9 10  1  0
 11 10  2  0
 12 11  1  0
 13 14  2  0
 16 15  1  6
 17 13  1  0
 17 16  1  0
 18 16  1  0
 18 19  2  0
 20 18  1  0
 21 20  1  0
 21 26  1  0
 21 22  1  1
 23 24  1  0
 23 22  1  0
 24 25  2  0
 26 27  2  0
 26 29  1  0
 28 24  1  0
M  END
$$$$
