WAE.pdb
     RDKit          3D

 29 30  0  0  1  0  0  0  0  0999 V2000
   26.5717  -22.5287  -13.0930 N   0  0  0  0  0  0  0  0  0  0  0  0
   25.7262  -21.4406  -12.6098 C   0  0  1  0  0  0  0  0  0  0  0  0
   26.6568  -20.3394  -12.1921 C   0  0  0  0  0  0  0  0  0  0  0  0
   27.6655  -20.7902  -11.1999 C   0  0  0  0  0  0  0  0  0  0  0  0
   28.8541  -21.4412  -11.4926 C   0  0  0  0  0  0  0  0  0  0  0  0
   29.4626  -21.6668  -10.3153 N   0  0  0  0  0  0  0  0  0  0  0  0
   28.7316  -21.1988   -9.3028 C   0  0  0  0  0  0  0  0  0  0  0  0
   28.8988  -21.1760   -7.9180 C   0  0  0  0  0  0  0  0  0  0  0  0
   27.9634  -20.6150   -7.0754 C   0  0  0  0  0  0  0  0  0  0  0  0
   26.8162  -20.0519   -7.5993 C   0  0  0  0  0  0  0  0  0  0  0  0
   26.6589  -20.0792   -8.9753 C   0  0  0  0  0  0  0  0  0  0  0  0
   27.5932  -20.6404   -9.8264 C   0  0  0  0  0  0  0  0  0  0  0  0
   24.7722  -21.0063  -13.6615 C   0  0  0  0  0  0  0  0  0  0  0  0
   25.1579  -20.5839  -14.7815 O   0  0  0  0  0  0  0  0  0  0  0  0
   22.6829  -22.1565  -15.5407 C   0  0  0  0  0  0  0  0  0  0  0  0
   22.4012  -21.0622  -14.5378 C   0  0  2  0  0  0  0  0  0  0  0  0
   23.3561  -21.0414  -13.4663 N   0  0  0  0  0  0  0  0  0  0  0  0
   21.0016  -21.1761  -14.0495 C   0  0  0  0  0  0  0  0  0  0  0  0
   20.1087  -20.5221  -14.6432 O   0  0  0  0  0  0  0  0  0  0  0  0
   20.6537  -21.9946  -12.9439 N   0  0  0  0  0  0  0  0  0  0  0  0
   19.2724  -22.0875  -12.4550 C   0  0  1  0  0  0  0  0  0  0  0  0
   19.1429  -23.1798  -11.4307 C   0  0  0  0  0  0  0  0  0  0  0  0
   19.3193  -22.7487  -10.0186 C   0  0  0  0  0  0  0  0  0  0  0  0
   19.0661  -23.8976   -9.1177 C   0  0  0  0  0  0  0  0  0  0  0  0
   18.7613  -25.0031   -9.6162 O   0  0  0  0  0  0  0  0  0  0  0  0
   18.8477  -20.7622  -12.0039 C   0  0  0  0  0  0  0  0  0  0  0  0
   19.6396  -19.8967  -11.5635 O   0  0  0  0  0  0  0  0  0  0  0  0
   19.1499  -23.8123   -7.7356 O   0  0  0  0  0  0  0  0  0  0  0  0
   17.5035  -20.3925  -12.0450 O   0  0  0  0  0  0  0  0  0  0  0  0
  2  1  1  6
  2  3  1  0
  2 13  1  0
  3  4  1  0
  4 12  1  0
  5  6  1  0
  5  4  2  0
  6  7  1  0
  7 12  2  0
  7  8  1  0
  8  9  2  0
  9 10  1  0
 11 10  2  0
 12 11  1  0
 13 14  2  0
 16 15  1  6
 17 13  1  0
 17 16  1  0
 18 16  1  0
 18 19  2  0
 20 18  1  0
 21 20  1  0
 21 26  1  0
 21 22  1  1
 23 24  1  0
 23 22  1  0
 24 25  2  0
 26 27  2  0
 26 29  1  0
 28 24  1  0
M  END
$$$$
