WAE.pdb
     RDKit          3D

 29 30  0  0  1  0  0  0  0  0999 V2000
   25.2550  -18.7376  -11.9732 N   0  0  0  0  0  0  0  0  0  0  0  0
   26.1598  -19.8657  -12.1753 C   0  0  1  0  0  0  0  0  0  0  0  0
   25.7709  -20.9027  -11.1622 C   0  0  0  0  0  0  0  0  0  0  0  0
   26.0234  -20.4606   -9.7672 C   0  0  0  0  0  0  0  0  0  0  0  0
   25.1047  -19.8374   -8.9366 C   0  0  0  0  0  0  0  0  0  0  0  0
   25.7387  -19.6102   -7.7732 N   0  0  0  0  0  0  0  0  0  0  0  0
   26.9964  -20.0510   -7.8208 C   0  0  0  0  0  0  0  0  0  0  0  0
   28.0536  -20.0606   -6.9108 C   0  0  0  0  0  0  0  0  0  0  0  0
   29.2861  -20.5924   -7.2237 C   0  0  0  0  0  0  0  0  0  0  0  0
   29.5018  -21.1383   -8.4739 C   0  0  0  0  0  0  0  0  0  0  0  0
   28.4463  -21.1243   -9.3709 C   0  0  0  0  0  0  0  0  0  0  0  0
   27.2074  -20.5924   -9.0635 C   0  0  0  0  0  0  0  0  0  0  0  0
   26.0680  -20.3733  -13.5678 C   0  0  0  0  0  0  0  0  0  0  0  0
   24.9797  -20.4072  -14.1971 O   0  0  0  0  0  0  0  0  0  0  0  0
   28.5151  -21.8162  -16.1164 C   0  0  0  0  0  0  0  0  0  0  0  0
   27.1669  -21.3382  -15.6303 C   0  0  2  0  0  0  0  0  0  0  0  0
   27.2110  -20.8548  -14.2794 N   0  0  0  0  0  0  0  0  0  0  0  0
   26.1558  -22.4120  -15.8168 C   0  0  0  0  0  0  0  0  0  0  0  0
   26.2296  -23.4325  -15.0885 O   0  0  0  0  0  0  0  0  0  0  0  0
   25.1227  -22.3141  -16.7845 N   0  0  0  0  0  0  0  0  0  0  0  0
   24.1615  -23.4024  -17.0023 C   0  0  1  0  0  0  0  0  0  0  0  0
   23.0933  -23.3883  -15.9451 C   0  0  0  0  0  0  0  0  0  0  0  0
   22.1931  -22.2051  -15.9694 C   0  0  0  0  0  0  0  0  0  0  0  0
   21.7243  -21.9147  -14.5940 C   0  0  0  0  0  0  0  0  0  0  0  0
   21.7415  -22.8297  -13.7419 O   0  0  0  0  0  0  0  0  0  0  0  0
   23.6717  -23.3229  -18.3785 C   0  0  0  0  0  0  0  0  0  0  0  0
   23.7711  -22.2949  -19.0880 O   0  0  0  0  0  0  0  0  0  0  0  0
   21.2620  -20.6688  -14.1960 O   0  0  0  0  0  0  0  0  0  0  0  0
   23.0543  -24.4197  -18.9795 O   0  0  0  0  0  0  0  0  0  0  0  0
  2  1  1  6
  2  3  1  0
  2 13  1  0
  3  4  1  0
  4 12  1  0
  5  6  1  0
  5  4  2  0
  6  7  1  0
  7 12  2  0
  7  8  1  0
  8  9  2  0
  9 10  1  0
 11 10  2  0
 12 11  1  0
 13 14  2  0
 16 15  1  1
 17 13  1  0
 17 16  1  0
 18 16  1  0
 18 19  2  0
 20 18  1  0
 21 20  1  0
 21 26  1  0
 21 22  1  1
 23 24  1  0
 23 22  1  0
 24 25  2  0
 26 27  2  0
 26 29  1  0
 28 24  1  0
M  END
$$$$
