WAE.pdb
     RDKit          3D

 29 30  0  0  1  0  0  0  0  0999 V2000
   24.2358  -20.3911  -15.7551 N   0  0  0  0  0  0  0  0  0  0  0  0
   23.1791  -19.5204  -15.2478 C   0  0  1  0  0  0  0  0  0  0  0  0
   22.5163  -18.9185  -16.4527 C   0  0  0  0  0  0  0  0  0  0  0  0
   23.4252  -18.0286  -17.2191 C   0  0  0  0  0  0  0  0  0  0  0  0
   23.9507  -18.2953  -18.4740 C   0  0  0  0  0  0  0  0  0  0  0  0
   24.7159  -17.2382  -18.7970 N   0  0  0  0  0  0  0  0  0  0  0  0
   24.7039  -16.3254  -17.8248 C   0  0  0  0  0  0  0  0  0  0  0  0
   25.3120  -15.0811  -17.6581 C   0  0  0  0  0  0  0  0  0  0  0  0
   25.1283  -14.3209  -16.5231 C   0  0  0  0  0  0  0  0  0  0  0  0
   24.3194  -14.7887  -15.5060 C   0  0  0  0  0  0  0  0  0  0  0  0
   23.7198  -16.0253  -15.6804 C   0  0  0  0  0  0  0  0  0  0  0  0
   23.8999  -16.7930  -16.8163 C   0  0  0  0  0  0  0  0  0  0  0  0
   22.2273  -20.2832  -14.4010 C   0  0  0  0  0  0  0  0  0  0  0  0
   21.9601  -21.4928  -14.6179 O   0  0  0  0  0  0  0  0  0  0  0  0
   20.3132  -19.6653  -11.1758 C   0  0  0  0  0  0  0  0  0  0  0  0
   20.5831  -20.3740  -12.4825 C   0  0  2  0  0  0  0  0  0  0  0  0
   21.5559  -19.6902  -13.2864 N   0  0  0  0  0  0  0  0  0  0  0  0
   19.3039  -20.5979  -13.2064 C   0  0  0  0  0  0  0  0  0  0  0  0
   18.9060  -19.7103  -14.0008 O   0  0  0  0  0  0  0  0  0  0  0  0
   18.5314  -21.7740  -13.0245 N   0  0  0  0  0  0  0  0  0  0  0  0
   17.3002  -22.0161  -13.7872 C   0  0  1  0  0  0  0  0  0  0  0  0
   17.0563  -23.4903  -13.9498 C   0  0  0  0  0  0  0  0  0  0  0  0
   18.1932  -24.2619  -14.5185 C   0  0  0  0  0  0  0  0  0  0  0  0
   17.8515  -25.7036  -14.5328 C   0  0  0  0  0  0  0  0  0  0  0  0
   18.0034  -26.3731  -13.4877 O   0  0  0  0  0  0  0  0  0  0  0  0
   16.2084  -21.2737  -13.1573 C   0  0  0  0  0  0  0  0  0  0  0  0
   16.0936  -21.1351  -11.9172 O   0  0  0  0  0  0  0  0  0  0  0  0
   17.3666  -26.3584  -15.6556 O   0  0  0  0  0  0  0  0  0  0  0  0
   15.2179  -20.6697  -13.9315 O   0  0  0  0  0  0  0  0  0  0  0  0
  2  1  1  6
  2  3  1  0
  2 13  1  0
  3  4  1  0
  4 12  1  0
  5  6  1  0
  5  4  2  0
  6  7  1  0
  7 12  2  0
  7  8  1  0
  8  9  2  0
  9 10  1  0
 11 10  2  0
 12 11  1  0
 13 14  2  0
 16 15  1  1
 17 13  1  0
 17 16  1  0
 18 16  1  0
 18 19  2  0
 20 18  1  0
 21 20  1  0
 21 26  1  0
 21 22  1  1
 23 24  1  0
 23 22  1  0
 24 25  2  0
 26 27  2  0
 26 29  1  0
 28 24  1  0
M  END
$$$$
