WAE.pdb
     RDKit          3D

 29 30  0  0  1  0  0  0  0  0999 V2000
   26.2464  -18.8016   -8.6537 N   0  0  0  0  0  0  0  0  0  0  0  0
   26.7966  -20.0073   -9.2666 C   0  0  1  0  0  0  0  0  0  0  0  0
   26.2868  -21.1617   -8.4538 C   0  0  0  0  0  0  0  0  0  0  0  0
   26.4759  -20.9599   -6.9947 C   0  0  0  0  0  0  0  0  0  0  0  0
   25.5169  -21.1750   -6.0168 C   0  0  0  0  0  0  0  0  0  0  0  0
   26.0984  -20.8732   -4.8429 N   0  0  0  0  0  0  0  0  0  0  0  0
   27.3608  -20.4825   -5.0220 C   0  0  0  0  0  0  0  0  0  0  0  0
   28.3773  -20.0691   -4.1607 C   0  0  0  0  0  0  0  0  0  0  0  0
   29.6262  -19.7089   -4.6194 C   0  0  0  0  0  0  0  0  0  0  0  0
   29.9003  -19.7518   -5.9724 C   0  0  0  0  0  0  0  0  0  0  0  0
   28.8848  -20.1635   -6.8199 C   0  0  0  0  0  0  0  0  0  0  0  0
   27.6298  -20.5262   -6.3665 C   0  0  0  0  0  0  0  0  0  0  0  0
   26.3997  -20.1022  -10.6944 C   0  0  0  0  0  0  0  0  0  0  0  0
   25.2356  -19.8297  -11.0846 O   0  0  0  0  0  0  0  0  0  0  0  0
   28.1660  -20.9631  -13.9658 C   0  0  0  0  0  0  0  0  0  0  0  0
   26.9874  -20.5616  -13.1101 C   0  0  2  0  0  0  0  0  0  0  0  0
   27.3161  -20.5088  -11.7139 N   0  0  0  0  0  0  0  0  0  0  0  0
   25.8350  -21.4587  -13.3890 C   0  0  0  0  0  0  0  0  0  0  0  0
   25.9195  -22.6624  -13.0407 O   0  0  0  0  0  0  0  0  0  0  0  0
   24.6575  -20.9950  -14.0307 N   0  0  0  0  0  0  0  0  0  0  0  0
   23.5202  -21.8848  -14.2963 C   0  0  1  0  0  0  0  0  0  0  0  0
   22.3887  -21.5992  -13.3490 C   0  0  0  0  0  0  0  0  0  0  0  0
   21.9542  -20.1783  -13.2909 C   0  0  0  0  0  0  0  0  0  0  0  0
   20.5057  -20.0937  -13.5917 C   0  0  0  0  0  0  0  0  0  0  0  0
   19.7895  -21.1030  -13.4129 O   0  0  0  0  0  0  0  0  0  0  0  0
   23.1778  -21.7923  -15.7155 C   0  0  0  0  0  0  0  0  0  0  0  0
   23.6305  -20.9072  -16.4783 O   0  0  0  0  0  0  0  0  0  0  0  0
   19.8942  -18.9425  -14.0663 O   0  0  0  0  0  0  0  0  0  0  0  0
   22.3069  -22.7118  -16.2998 O   0  0  0  0  0  0  0  0  0  0  0  0
  2  1  1  1
  2  3  1  0
  2 13  1  0
  3  4  1  0
  4 12  1  0
  5  6  1  0
  5  4  2  0
  6  7  1  0
  7 12  2  0
  7  8  1  0
  8  9  2  0
  9 10  1  0
 11 10  2  0
 12 11  1  0
 13 14  2  0
 16 15  1  6
 17 13  1  0
 17 16  1  0
 18 16  1  0
 18 19  2  0
 20 18  1  0
 21 20  1  0
 21 26  1  0
 21 22  1  1
 23 24  1  0
 23 22  1  0
 24 25  2  0
 26 27  2  0
 26 29  1  0
 28 24  1  0
M  END
$$$$
