WAE.pdb
     RDKit          3D

 29 30  0  0  1  0  0  0  0  0999 V2000
   22.9417  -10.1865  -16.1251 N   0  0  0  0  0  0  0  0  0  0  0  0
   21.6867   -9.4879  -15.8619 C   0  0  1  0  0  0  0  0  0  0  0  0
   20.8032  -10.4673  -15.1454 C   0  0  0  0  0  0  0  0  0  0  0  0
   20.3852  -11.5987  -16.0118 C   0  0  0  0  0  0  0  0  0  0  0  0
   20.8713  -12.8952  -15.9407 C   0  0  0  0  0  0  0  0  0  0  0  0
   20.2324  -13.5924  -16.8962 N   0  0  0  0  0  0  0  0  0  0  0  0
   19.3767  -12.8161  -17.5621 C   0  0  0  0  0  0  0  0  0  0  0  0
   18.4925  -13.0347  -18.6187 C   0  0  0  0  0  0  0  0  0  0  0  0
   17.7012  -12.0301  -19.1329 C   0  0  0  0  0  0  0  0  0  0  0  0
   17.7712  -10.7584  -18.5987 C   0  0  0  0  0  0  0  0  0  0  0  0
   18.6521  -10.5507  -17.5499 C   0  0  0  0  0  0  0  0  0  0  0  0
   19.4488  -11.5540  -17.0293 C   0  0  0  0  0  0  0  0  0  0  0  0
   21.9246   -8.2556  -15.0684 C   0  0  0  0  0  0  0  0  0  0  0  0
   22.3558   -8.2930  -13.8876 O   0  0  0  0  0  0  0  0  0  0  0  0
   21.8501   -4.5090  -15.7032 C   0  0  0  0  0  0  0  0  0  0  0  0
   21.7946   -5.7417  -14.8316 C   0  0  2  0  0  0  0  0  0  0  0  0
   21.6787   -6.9501  -15.5976 N   0  0  0  0  0  0  0  0  0  0  0  0
   20.7073   -5.5988  -13.8277 C   0  0  0  0  0  0  0  0  0  0  0  0
   20.7431   -4.6157  -13.0470 O   0  0  0  0  0  0  0  0  0  0  0  0
   19.6440   -6.5333  -13.7308 N   0  0  0  0  0  0  0  0  0  0  0  0
   18.5100   -6.3228  -12.8221 C   0  0  1  0  0  0  0  0  0  0  0  0
   17.2126   -6.3258  -13.5808 C   0  0  0  0  0  0  0  0  0  0  0  0
   15.9886   -6.2160  -12.7436 C   0  0  0  0  0  0  0  0  0  0  0  0
   14.7915   -6.2354  -13.6168 C   0  0  0  0  0  0  0  0  0  0  0  0
   14.9463   -6.2412  -14.8576 O   0  0  0  0  0  0  0  0  0  0  0  0
   18.5949   -7.3002  -11.7369 C   0  0  0  0  0  0  0  0  0  0  0  0
   19.3055   -8.3309  -11.7907 O   0  0  0  0  0  0  0  0  0  0  0  0
   13.4938   -6.2477  -13.1268 O   0  0  0  0  0  0  0  0  0  0  0  0
   17.8677   -7.1231  -10.5601 O   0  0  0  0  0  0  0  0  0  0  0  0
  2  1  1  1
  2  3  1  0
  2 13  1  0
  3  4  1  0
  4 12  1  0
  5  6  1  0
  5  4  2  0
  6  7  1  0
  7 12  2  0
  7  8  1  0
  8  9  2  0
  9 10  1  0
 11 10  2  0
 12 11  1  0
 13 14  2  0
 16 15  1  6
 17 13  1  0
 17 16  1  0
 18 16  1  0
 18 19  2  0
 20 18  1  0
 21 20  1  0
 21 26  1  0
 21 22  1  6
 23 24  1  0
 23 22  1  0
 24 25  2  0
 26 27  2  0
 26 29  1  0
 28 24  1  0
M  END
$$$$
