WAE.pdb
     RDKit          3D

 29 30  0  0  1  0  0  0  0  0999 V2000
   22.5951  -11.8171  -18.9462 N   0  0  0  0  0  0  0  0  0  0  0  0
   22.9174  -11.1248  -17.7016 C   0  0  1  0  0  0  0  0  0  0  0  0
   24.4066  -10.9371  -17.6989 C   0  0  0  0  0  0  0  0  0  0  0  0
   25.1404  -12.1993  -17.4276 C   0  0  0  0  0  0  0  0  0  0  0  0
   24.5843  -13.4690  -17.4001 C   0  0  0  0  0  0  0  0  0  0  0  0
   25.5891  -14.3170  -17.1198 N   0  0  0  0  0  0  0  0  0  0  0  0
   26.7400  -13.6603  -16.9697 C   0  0  0  0  0  0  0  0  0  0  0  0
   28.0469  -14.0519  -16.6785 C   0  0  0  0  0  0  0  0  0  0  0  0
   29.0791  -13.1444  -16.5763 C   0  0  0  0  0  0  0  0  0  0  0  0
   28.8324  -11.7986  -16.7648 C   0  0  0  0  0  0  0  0  0  0  0  0
   27.5318  -11.4190  -17.0534 C   0  0  0  0  0  0  0  0  0  0  0  0
   26.4915  -12.3242  -17.1574 C   0  0  0  0  0  0  0  0  0  0  0  0
   22.1850   -9.8364  -17.6090 C   0  0  0  0  0  0  0  0  0  0  0  0
   22.1621   -9.0103  -18.5570 O   0  0  0  0  0  0  0  0  0  0  0  0
   19.3641   -8.4032  -15.7300 C   0  0  0  0  0  0  0  0  0  0  0  0
   20.7489   -8.2155  -16.3041 C   0  0  2  0  0  0  0  0  0  0  0  0
   21.4602   -9.4551  -16.4368 N   0  0  0  0  0  0  0  0  0  0  0  0
   21.4962   -7.2152  -15.4970 C   0  0  0  0  0  0  0  0  0  0  0  0
   22.2093   -7.6278  -14.5490 O   0  0  0  0  0  0  0  0  0  0  0  0
   21.4248   -5.8242  -15.7672 N   0  0  0  0  0  0  0  0  0  0  0  0
   22.2290   -4.8490  -15.0200 C   0  0  1  0  0  0  0  0  0  0  0  0
   22.1191   -3.4835  -15.6384 C   0  0  0  0  0  0  0  0  0  0  0  0
   20.8748   -2.7379  -15.3114 C   0  0  0  0  0  0  0  0  0  0  0  0
   20.8964   -1.4217  -15.9916 C   0  0  0  0  0  0  0  0  0  0  0  0
   21.4331   -0.4503  -15.4155 O   0  0  0  0  0  0  0  0  0  0  0  0
   21.8546   -4.9210  -13.6077 C   0  0  0  0  0  0  0  0  0  0  0  0
   20.7251   -5.2917  -13.2113 O   0  0  0  0  0  0  0  0  0  0  0  0
   20.3472   -1.2061  -17.2472 O   0  0  0  0  0  0  0  0  0  0  0  0
   22.7645   -4.5702  -12.6106 O   0  0  0  0  0  0  0  0  0  0  0  0
  2  1  1  6
  2  3  1  0
  2 13  1  0
  3  4  1  0
  4 12  1  0
  5  6  1  0
  5  4  2  0
  6  7  1  0
  7 12  2  0
  7  8  1  0
  8  9  2  0
  9 10  1  0
 11 10  2  0
 12 11  1  0
 13 14  2  0
 16 15  1  1
 17 13  1  0
 17 16  1  0
 18 16  1  0
 18 19  2  0
 20 18  1  0
 21 20  1  0
 21 26  1  0
 21 22  1  6
 23 24  1  0
 23 22  1  0
 24 25  2  0
 26 27  2  0
 26 29  1  0
 28 24  1  0
M  END
$$$$
