WAE.pdb
     RDKit          3D

 29 30  0  0  1  0  0  0  0  0999 V2000
   27.3906  -19.4585  -12.6084 N   0  0  0  0  0  0  0  0  0  0  0  0
   27.0007  -20.8484  -12.8278 C   0  0  1  0  0  0  0  0  0  0  0  0
   25.8679  -21.1212  -11.8815 C   0  0  0  0  0  0  0  0  0  0  0  0
   26.1885  -20.7398  -10.4826 C   0  0  0  0  0  0  0  0  0  0  0  0
   25.3119  -20.1543   -9.5821 C   0  0  0  0  0  0  0  0  0  0  0  0
   26.0019  -19.9771   -8.4420 N   0  0  0  0  0  0  0  0  0  0  0  0
   27.2553  -20.4141   -8.5699 C   0  0  0  0  0  0  0  0  0  0  0  0
   28.3556  -20.4622   -7.7137 C   0  0  0  0  0  0  0  0  0  0  0  0
   29.5708  -20.9784   -8.1090 C   0  0  0  0  0  0  0  0  0  0  0  0
   29.7250  -21.4693   -9.3907 C   0  0  0  0  0  0  0  0  0  0  0  0
   28.6270  -21.4175  -10.2339 C   0  0  0  0  0  0  0  0  0  0  0  0
   27.4051  -20.9009   -9.8438 C   0  0  0  0  0  0  0  0  0  0  0  0
   26.6197  -21.0724  -14.2454 C   0  0  0  0  0  0  0  0  0  0  0  0
   26.0154  -20.2010  -14.9215 O   0  0  0  0  0  0  0  0  0  0  0  0
   27.2586  -23.7626  -16.8588 C   0  0  0  0  0  0  0  0  0  0  0  0
   26.5500  -22.5543  -16.2928 C   0  0  2  0  0  0  0  0  0  0  0  0
   26.9162  -22.2924  -14.9298 N   0  0  0  0  0  0  0  0  0  0  0  0
   25.0813  -22.7054  -16.4675 C   0  0  0  0  0  0  0  0  0  0  0  0
   24.6375  -22.9135  -17.6238 O   0  0  0  0  0  0  0  0  0  0  0  0
   24.1802  -22.6215  -15.3748 N   0  0  0  0  0  0  0  0  0  0  0  0
   22.7316  -22.7823  -15.5530 C   0  0  1  0  0  0  0  0  0  0  0  0
   22.0438  -22.9175  -14.2234 C   0  0  0  0  0  0  0  0  0  0  0  0
   20.5588  -22.9709  -14.2806 C   0  0  0  0  0  0  0  0  0  0  0  0
   20.0180  -23.1107  -12.9081 C   0  0  0  0  0  0  0  0  0  0  0  0
   20.0412  -22.1214  -12.1437 O   0  0  0  0  0  0  0  0  0  0  0  0
   22.2419  -21.6911  -16.3953 C   0  0  0  0  0  0  0  0  0  0  0  0
   21.3270  -21.8291  -17.2404 O   0  0  0  0  0  0  0  0  0  0  0  0
   19.4813  -24.2930  -12.4198 O   0  0  0  0  0  0  0  0  0  0  0  0
   22.7872  -20.4116  -16.2923 O   0  0  0  0  0  0  0  0  0  0  0  0
  2  1  1  6
  2  3  1  0
  2 13  1  0
  3  4  1  0
  4 12  1  0
  5  6  1  0
  5  4  2  0
  6  7  1  0
  7 12  2  0
  7  8  1  0
  8  9  2  0
  9 10  1  0
 11 10  2  0
 12 11  1  0
 13 14  2  0
 16 15  1  1
 17 13  1  0
 17 16  1  0
 18 16  1  0
 18 19  2  0
 20 18  1  0
 21 20  1  0
 21 26  1  0
 21 22  1  1
 23 24  1  0
 23 22  1  0
 24 25  2  0
 26 27  2  0
 26 29  1  0
 28 24  1  0
M  END
$$$$
