WAE.pdb
     RDKit          3D

 29 30  0  0  1  0  0  0  0  0999 V2000
   28.3772  -20.2599   -9.5976 N   0  0  0  0  0  0  0  0  0  0  0  0
   27.1040  -20.9692   -9.5082 C   0  0  1  0  0  0  0  0  0  0  0  0
   26.3732  -20.3750   -8.3395 C   0  0  0  0  0  0  0  0  0  0  0  0
   27.2923  -19.8889   -7.2791 C   0  0  0  0  0  0  0  0  0  0  0  0
   27.4239  -18.5730   -6.8629 C   0  0  0  0  0  0  0  0  0  0  0  0
   28.3557  -18.5734   -5.8938 N   0  0  0  0  0  0  0  0  0  0  0  0
   28.8168  -19.8055   -5.6756 C   0  0  0  0  0  0  0  0  0  0  0  0
   29.7649  -20.3440   -4.8054 C   0  0  0  0  0  0  0  0  0  0  0  0
   30.0609  -21.6900   -4.7846 C   0  0  0  0  0  0  0  0  0  0  0  0
   29.4084  -22.5506   -5.6456 C   0  0  0  0  0  0  0  0  0  0  0  0
   28.4687  -22.0069   -6.5061 C   0  0  0  0  0  0  0  0  0  0  0  0
   28.1670  -20.6576   -6.5321 C   0  0  0  0  0  0  0  0  0  0  0  0
   26.3400  -20.8446  -10.7754 C   0  0  0  0  0  0  0  0  0  0  0  0
   26.2309  -19.7506  -11.3860 O   0  0  0  0  0  0  0  0  0  0  0  0
   24.7020  -23.2331  -13.2298 C   0  0  0  0  0  0  0  0  0  0  0  0
   24.9249  -21.8792  -12.5974 C   0  0  2  0  0  0  0  0  0  0  0  0
   25.6813  -21.9604  -11.3802 N   0  0  0  0  0  0  0  0  0  0  0  0
   23.6205  -21.1906  -12.4110 C   0  0  0  0  0  0  0  0  0  0  0  0
   23.0708  -21.2515  -11.2835 O   0  0  0  0  0  0  0  0  0  0  0  0
   22.9893  -20.4756  -13.4615 N   0  0  0  0  0  0  0  0  0  0  0  0
   21.7101  -19.7821  -13.2652 C   0  0  1  0  0  0  0  0  0  0  0  0
   21.6505  -18.5306  -14.0954 C   0  0  0  0  0  0  0  0  0  0  0  0
   20.3832  -17.7600  -13.9902 C   0  0  0  0  0  0  0  0  0  0  0  0
   20.4306  -16.6053  -14.9176 C   0  0  0  0  0  0  0  0  0  0  0  0
   21.4884  -16.3727  -15.5425 O   0  0  0  0  0  0  0  0  0  0  0  0
   20.6237  -20.7332  -13.5002 C   0  0  0  0  0  0  0  0  0  0  0  0
   19.4695  -20.5915  -13.0333 O   0  0  0  0  0  0  0  0  0  0  0  0
   19.3529  -15.7587  -15.1327 O   0  0  0  0  0  0  0  0  0  0  0  0
   20.8302  -21.8732  -14.2768 O   0  0  0  0  0  0  0  0  0  0  0  0
  2  1  1  6
  2  3  1  0
  2 13  1  0
  3  4  1  0
  4 12  1  0
  5  6  1  0
  5  4  2  0
  6  7  1  0
  7 12  2  0
  7  8  1  0
  8  9  2  0
  9 10  1  0
 11 10  2  0
 12 11  1  0
 13 14  2  0
 16 15  1  1
 17 13  1  0
 17 16  1  0
 18 16  1  0
 18 19  2  0
 20 18  1  0
 21 20  1  0
 21 26  1  0
 21 22  1  6
 23 24  1  0
 23 22  1  0
 24 25  2  0
 26 27  2  0
 26 29  1  0
 28 24  1  0
M  END
$$$$
