WAE.pdb
     RDKit          3D

 29 30  0  0  1  0  0  0  0  0999 V2000
   28.0731  -20.2423  -11.2788 N   0  0  0  0  0  0  0  0  0  0  0  0
   27.0340  -21.1882  -10.8815 C   0  0  1  0  0  0  0  0  0  0  0  0
   26.6411  -20.8167   -9.4812 C   0  0  0  0  0  0  0  0  0  0  0  0
   27.7980  -20.7965   -8.5503 C   0  0  0  0  0  0  0  0  0  0  0  0
   29.0885  -21.2020   -8.8540 C   0  0  0  0  0  0  0  0  0  0  0  0
   29.8154  -21.0208   -7.7377 N   0  0  0  0  0  0  0  0  0  0  0  0
   29.0632  -20.5275   -6.7532 C   0  0  0  0  0  0  0  0  0  0  0  0
   29.3161  -20.1681   -5.4292 C   0  0  0  0  0  0  0  0  0  0  0  0
   28.3312  -19.6706   -4.6032 C   0  0  0  0  0  0  0  0  0  0  0  0
   27.0454  -19.5152   -5.0829 C   0  0  0  0  0  0  0  0  0  0  0  0
   26.8037  -19.8748   -6.3986 C   0  0  0  0  0  0  0  0  0  0  0  0
   27.7870  -20.3745   -7.2327 C   0  0  0  0  0  0  0  0  0  0  0  0
   25.8866  -21.1383  -11.8227 C   0  0  0  0  0  0  0  0  0  0  0  0
   25.2302  -20.0842  -12.0220 O   0  0  0  0  0  0  0  0  0  0  0  0
   24.3639  -23.5201  -14.3719 C   0  0  0  0  0  0  0  0  0  0  0  0
   24.4093  -22.2587  -13.5417 C   0  0  2  0  0  0  0  0  0  0  0  0
   25.4570  -22.2851  -12.5609 N   0  0  0  0  0  0  0  0  0  0  0  0
   23.0738  -22.0048  -12.9398 C   0  0  0  0  0  0  0  0  0  0  0  0
   22.7473  -22.6578  -11.9179 O   0  0  0  0  0  0  0  0  0  0  0  0
   22.1705  -21.0555  -13.4840 N   0  0  0  0  0  0  0  0  0  0  0  0
   20.8387  -20.8357  -12.9060 C   0  0  1  0  0  0  0  0  0  0  0  0
   20.2898  -19.5013  -13.3268 C   0  0  0  0  0  0  0  0  0  0  0  0
   18.9042  -19.2134  -12.8701 C   0  0  0  0  0  0  0  0  0  0  0  0
   18.4331  -17.9531  -13.4908 C   0  0  0  0  0  0  0  0  0  0  0  0
   18.5574  -16.8820  -12.8576 O   0  0  0  0  0  0  0  0  0  0  0  0
   19.9935  -21.9840  -13.2333 C   0  0  0  0  0  0  0  0  0  0  0  0
   20.0269  -22.5724  -14.3392 O   0  0  0  0  0  0  0  0  0  0  0  0
   17.8551  -17.8963  -14.7506 O   0  0  0  0  0  0  0  0  0  0  0  0
   19.0866  -22.4896  -12.3021 O   0  0  0  0  0  0  0  0  0  0  0  0
  2  1  1  6
  2  3  1  0
  2 13  1  0
  3  4  1  0
  4 12  1  0
  5  6  1  0
  5  4  2  0
  6  7  1  0
  7 12  2  0
  7  8  1  0
  8  9  2  0
  9 10  1  0
 11 10  2  0
 12 11  1  0
 13 14  2  0
 16 15  1  1
 17 13  1  0
 17 16  1  0
 18 16  1  0
 18 19  2  0
 20 18  1  0
 21 20  1  0
 21 26  1  0
 21 22  1  6
 23 24  1  0
 23 22  1  0
 24 25  2  0
 26 27  2  0
 26 29  1  0
 28 24  1  0
M  END
$$$$
