SMY.pdb
     RDKit          3D

 27 27  0  0  1  0  0  0  0  0999 V2000
   25.3771   -9.2932  -22.0273 O   0  0  0  0  0  0  0  0  0  0  0  0
   25.0311   -9.4924  -20.7127 C   0  0  0  0  0  0  0  0  0  0  0  0
   25.8979  -10.4913  -19.9974 C   0  0  2  0  0  0  0  0  0  0  0  0
   25.8591  -11.7957  -20.5743 N   0  0  0  0  0  0  0  0  0  0  0  0
   25.4329  -10.5658  -18.5819 C   0  0  0  0  0  0  0  0  0  0  0  0
   24.3640  -11.1996  -18.3942 O   0  0  0  0  0  0  0  0  0  0  0  0
   27.6136  -14.3596  -15.5649 C   0  0  0  0  0  0  0  0  0  0  0  0
   26.7175  -12.8335  -15.1937 S   0  0  0  0  0  0  0  0  0  0  0  0
   27.7285  -11.3655  -15.6636 C   0  0  0  0  0  0  0  0  0  0  0  0
   26.9585  -10.1534  -15.1939 C   0  0  0  0  0  0  0  0  0  0  0  0
   25.8108   -9.9298  -16.1542 C   0  0  2  0  0  0  0  0  0  0  0  0
   26.1457   -9.9665  -17.5388 N   0  0  0  0  0  0  0  0  0  0  0  0
   24.8639   -8.8873  -15.7862 C   0  0  0  0  0  0  0  0  0  0  0  0
   24.5048   -8.7814  -14.5567 O   0  0  0  0  0  0  0  0  0  0  0  0
   20.9770   -1.4791  -13.9678 O   0  0  0  0  0  0  0  0  0  0  0  0
   21.7199   -2.6010  -14.2922 C   0  0  0  0  0  0  0  0  0  0  0  0
   21.4231   -3.8198  -13.7256 C   0  0  0  0  0  0  0  0  0  0  0  0
   22.1581   -4.9407  -14.0440 C   0  0  0  0  0  0  0  0  0  0  0  0
   23.2280   -4.9094  -14.9430 C   0  0  0  0  0  0  0  0  0  0  0  0
   23.9944   -6.1346  -15.2481 C   0  0  0  0  0  0  0  0  0  0  0  0
   23.3169   -7.0240  -16.2696 C   0  0  2  0  0  0  0  0  0  0  0  0
   24.3227   -7.9845  -16.7264 N   0  0  0  0  0  0  0  0  0  0  0  0
   22.7225   -6.2875  -17.3819 C   0  0  0  0  0  0  0  0  0  0  0  0
   21.4404   -5.7774  -17.2516 O   0  0  0  0  0  0  0  0  0  0  0  0
   23.5118   -3.6748  -15.5028 C   0  0  0  0  0  0  0  0  0  0  0  0
   22.7738   -2.5553  -15.1818 C   0  0  0  0  0  0  0  0  0  0  0  0
   23.3024   -6.0767  -18.4779 O   0  0  0  0  0  0  0  0  0  0  0  0
  2  1  1  0
  3  2  1  0
  3  4  1  6
  5  6  2  0
  5  3  1  0
  7  8  1  0
  8  9  1  0
  9 10  1  0
 11 10  1  1
 11 12  1  0
 12  5  1  0
 13 14  2  0
 13 11  1  0
 16 15  1  0
 17 16  2  0
 18 17  1  0
 19 18  2  0
 19 25  1  0
 20 19  1  0
 21 20  1  1
 21 22  1  0
 22 13  1  0
 23 21  1  0
 24 23  1  0
 25 26  2  0
 26 16  1  0
 27 23  2  0
M  END
$$$$
