SMY.pdb
     RDKit          3D

 27 27  0  0  1  0  0  0  0  0999 V2000
   19.4463  -11.5961  -14.8995 O   0  0  0  0  0  0  0  0  0  0  0  0
   19.3425  -12.8288  -15.4973 C   0  0  0  0  0  0  0  0  0  0  0  0
   19.9183  -12.8851  -16.8852 C   0  0  2  0  0  0  0  0  0  0  0  0
   19.2640  -12.0169  -17.8092 N   0  0  0  0  0  0  0  0  0  0  0  0
   19.8050  -14.2921  -17.3678 C   0  0  0  0  0  0  0  0  0  0  0  0
   18.6447  -14.6721  -17.6658 O   0  0  0  0  0  0  0  0  0  0  0  0
   24.2105  -17.1085  -20.8278 C   0  0  0  0  0  0  0  0  0  0  0  0
   22.5888  -16.7212  -21.5279 S   0  0  0  0  0  0  0  0  0  0  0  0
   21.4196  -16.2148  -20.1959 C   0  0  0  0  0  0  0  0  0  0  0  0
   21.8961  -16.8946  -18.9335 C   0  0  0  0  0  0  0  0  0  0  0  0
   20.9536  -16.5109  -17.8137 C   0  0  2  0  0  0  0  0  0  0  0  0
   20.9218  -15.1264  -17.4780 N   0  0  0  0  0  0  0  0  0  0  0  0
   20.9173  -17.4132  -16.6720 C   0  0  0  0  0  0  0  0  0  0  0  0
   21.8389  -17.3231  -15.7807 O   0  0  0  0  0  0  0  0  0  0  0  0
   14.8280  -15.9186  -13.3181 O   0  0  0  0  0  0  0  0  0  0  0  0
   16.0545  -16.5303  -13.5114 C   0  0  0  0  0  0  0  0  0  0  0  0
   17.2162  -15.7945  -13.4501 C   0  0  0  0  0  0  0  0  0  0  0  0
   18.4405  -16.3966  -13.6414 C   0  0  0  0  0  0  0  0  0  0  0  0
   18.5750  -17.7629  -13.9040 C   0  0  0  0  0  0  0  0  0  0  0  0
   19.9079  -18.3646  -14.1116 C   0  0  0  0  0  0  0  0  0  0  0  0
   19.9754  -19.2605  -15.3307 C   0  0  2  0  0  0  0  0  0  0  0  0
   19.9082  -18.3852  -16.5022 N   0  0  0  0  0  0  0  0  0  0  0  0
   18.9377  -20.2879  -15.3584 C   0  0  0  0  0  0  0  0  0  0  0  0
   18.9429  -21.2854  -14.3962 O   0  0  0  0  0  0  0  0  0  0  0  0
   17.3956  -18.4866  -13.9620 C   0  0  0  0  0  0  0  0  0  0  0  0
   16.1723  -17.8806  -13.7700 C   0  0  0  0  0  0  0  0  0  0  0  0
   18.0161  -20.3362  -16.2129 O   0  0  0  0  0  0  0  0  0  0  0  0
  2  1  1  0
  3  2  1  0
  3  4  1  6
  5  6  2  0
  5  3  1  0
  7  8  1  0
  8  9  1  0
  9 10  1  0
 11 10  1  1
 11 12  1  0
 12  5  1  0
 13 14  2  0
 13 11  1  0
 16 15  1  0
 17 16  2  0
 18 17  1  0
 19 18  2  0
 19 25  1  0
 20 19  1  0
 21 20  1  1
 21 22  1  0
 22 13  1  0
 23 21  1  0
 24 23  1  0
 25 26  2  0
 26 16  1  0
 27 23  2  0
M  END
$$$$
