SMY.pdb
     RDKit          3D

 27 27  0  0  1  0  0  0  0  0999 V2000
   24.6980  -12.9293  -20.3161 O   0  0  0  0  0  0  0  0  0  0  0  0
   23.4880  -12.3391  -20.0421 C   0  0  0  0  0  0  0  0  0  0  0  0
   22.5698  -13.1874  -19.2066 C   0  0  2  0  0  0  0  0  0  0  0  0
   22.2060  -14.4180  -19.8303 N   0  0  0  0  0  0  0  0  0  0  0  0
   21.3378  -12.3915  -18.9339 C   0  0  0  0  0  0  0  0  0  0  0  0
   20.3818  -12.5818  -19.7272 O   0  0  0  0  0  0  0  0  0  0  0  0
   16.3063  -13.4150  -16.4590 C   0  0  0  0  0  0  0  0  0  0  0  0
   17.5299  -12.8805  -15.2395 S   0  0  0  0  0  0  0  0  0  0  0  0
   19.1497  -12.5546  -16.0567 C   0  0  0  0  0  0  0  0  0  0  0  0
   18.8702  -11.5801  -17.1770 C   0  0  0  0  0  0  0  0  0  0  0  0
   20.1239  -10.7656  -17.4095 C   0  0  2  0  0  0  0  0  0  0  0  0
   21.2608  -11.4947  -17.8638 N   0  0  0  0  0  0  0  0  0  0  0  0
   20.4159   -9.7443  -16.4142 C   0  0  0  0  0  0  0  0  0  0  0  0
   21.5652   -9.7497  -15.8388 O   0  0  0  0  0  0  0  0  0  0  0  0
   22.7126   -1.8335  -14.2642 O   0  0  0  0  0  0  0  0  0  0  0  0
   22.3155   -3.0822  -14.7101 C   0  0  0  0  0  0  0  0  0  0  0  0
   21.7501   -3.2286  -15.9565 C   0  0  0  0  0  0  0  0  0  0  0  0
   21.3526   -4.4683  -16.4069 C   0  0  0  0  0  0  0  0  0  0  0  0
   21.4961   -5.6292  -15.6416 C   0  0  0  0  0  0  0  0  0  0  0  0
   21.0473   -6.9369  -16.1614 C   0  0  0  0  0  0  0  0  0  0  0  0
   19.9708   -7.5797  -15.3120 C   0  0  2  0  0  0  0  0  0  0  0  0
   19.4867   -8.7448  -16.0543 N   0  0  0  0  0  0  0  0  0  0  0  0
   18.8847   -6.6693  -14.9589 C   0  0  0  0  0  0  0  0  0  0  0  0
   18.9105   -6.0234  -13.7329 O   0  0  0  0  0  0  0  0  0  0  0  0
   22.0666   -5.4624  -14.3907 C   0  0  0  0  0  0  0  0  0  0  0  0
   22.4633   -4.2200  -13.9435 C   0  0  0  0  0  0  0  0  0  0  0  0
   17.9019   -6.4218  -15.7038 O   0  0  0  0  0  0  0  0  0  0  0  0
  2  1  1  0
  3  2  1  0
  3  4  1  6
  5  6  2  0
  5  3  1  0
  7  8  1  0
  8  9  1  0
  9 10  1  0
 11 10  1  1
 11 12  1  0
 12  5  1  0
 13 14  2  0
 13 11  1  0
 16 15  1  0
 17 16  2  0
 18 17  1  0
 19 18  2  0
 19 25  1  0
 20 19  1  0
 21 20  1  6
 21 22  1  0
 22 13  1  0
 23 21  1  0
 24 23  1  0
 25 26  2  0
 26 16  1  0
 27 23  2  0
M  END
$$$$
