SMY.pdb
     RDKit          3D

 27 27  0  0  1  0  0  0  0  0999 V2000
   27.7044  -16.5108  -16.4322 O   0  0  0  0  0  0  0  0  0  0  0  0
   27.5489  -17.8138  -16.0251 C   0  0  0  0  0  0  0  0  0  0  0  0
   28.8344  -18.5912  -15.9610 C   0  0  2  0  0  0  0  0  0  0  0  0
   29.4020  -18.8605  -17.2420 N   0  0  0  0  0  0  0  0  0  0  0  0
   28.5513  -19.8815  -15.2677 C   0  0  0  0  0  0  0  0  0  0  0  0
   28.2234  -20.8382  -16.0138 O   0  0  0  0  0  0  0  0  0  0  0  0
   33.0148  -21.8985  -10.9659 C   0  0  0  0  0  0  0  0  0  0  0  0
   31.2334  -21.8850  -10.6557 S   0  0  0  0  0  0  0  0  0  0  0  0
   30.3221  -21.3719  -12.1737 C   0  0  0  0  0  0  0  0  0  0  0  0
   28.8560  -21.3745  -11.8083 C   0  0  0  0  0  0  0  0  0  0  0  0
   28.0667  -21.0099  -13.0467 C   0  0  2  0  0  0  0  0  0  0  0  0
   28.6470  -20.0089  -13.8785 N   0  0  0  0  0  0  0  0  0  0  0  0
   26.6258  -20.8962  -12.8753 C   0  0  0  0  0  0  0  0  0  0  0  0
   26.1577  -20.6559  -11.7026 O   0  0  0  0  0  0  0  0  0  0  0  0
   25.0472  -20.3982   -7.2936 O   0  0  0  0  0  0  0  0  0  0  0  0
   24.8001  -20.2501   -8.6475 C   0  0  0  0  0  0  0  0  0  0  0  0
   23.6286  -20.7202   -9.1964 C   0  0  0  0  0  0  0  0  0  0  0  0
   23.3759  -20.5762  -10.5430 C   0  0  0  0  0  0  0  0  0  0  0  0
   24.2750  -19.9570  -11.4160 C   0  0  0  0  0  0  0  0  0  0  0  0
   23.9664  -19.8326  -12.8551 C   0  0  0  0  0  0  0  0  0  0  0  0
   24.2868  -21.0844  -13.6450 C   0  0  2  0  0  0  0  0  0  0  0  0
   25.7184  -21.0383  -13.9469 N   0  0  0  0  0  0  0  0  0  0  0  0
   23.4800  -21.2348  -14.8531 C   0  0  0  0  0  0  0  0  0  0  0  0
   22.1084  -21.3972  -14.7388 O   0  0  0  0  0  0  0  0  0  0  0  0
   25.4478  -19.4906  -10.8458 C   0  0  0  0  0  0  0  0  0  0  0  0
   25.6971  -19.6364   -9.4977 C   0  0  0  0  0  0  0  0  0  0  0  0
   23.9497  -21.2281  -16.0198 O   0  0  0  0  0  0  0  0  0  0  0  0
  2  1  1  0
  3  2  1  0
  3  4  1  6
  5  6  2  0
  5  3  1  0
  7  8  1  0
  8  9  1  0
  9 10  1  0
 11 10  1  1
 11 12  1  0
 12  5  1  0
 13 14  2  0
 13 11  1  0
 16 15  1  0
 17 16  2  0
 18 17  1  0
 19 18  2  0
 19 25  1  0
 20 19  1  0
 21 20  1  6
 21 22  1  0
 22 13  1  0
 23 21  1  0
 24 23  1  0
 25 26  2  0
 26 16  1  0
 27 23  2  0
M  END
$$$$
