SMY.pdb
     RDKit          3D

 27 27  0  0  1  0  0  0  0  0999 V2000
   22.1046  -22.5582   -8.3708 O   0  0  0  0  0  0  0  0  0  0  0  0
   22.4872  -21.6600   -7.4041 C   0  0  0  0  0  0  0  0  0  0  0  0
   22.5755  -20.2399   -7.8903 C   0  0  2  0  0  0  0  0  0  0  0  0
   21.5459  -19.8887   -8.8134 N   0  0  0  0  0  0  0  0  0  0  0  0
   23.9041  -20.0655   -8.5459 C   0  0  0  0  0  0  0  0  0  0  0  0
   23.8723  -19.7182   -9.7533 O   0  0  0  0  0  0  0  0  0  0  0  0
   28.3909  -20.4111   -4.0691 C   0  0  0  0  0  0  0  0  0  0  0  0
   28.4485  -18.8821   -5.0328 S   0  0  0  0  0  0  0  0  0  0  0  0
   27.1514  -18.9001   -6.3424 C   0  0  0  0  0  0  0  0  0  0  0  0
   27.5096  -20.0316   -7.2774 C   0  0  0  0  0  0  0  0  0  0  0  0
   26.4329  -20.1190   -8.3368 C   0  0  2  0  0  0  0  0  0  0  0  0
   25.1012  -20.2768   -7.8548 N   0  0  0  0  0  0  0  0  0  0  0  0
   26.7532  -20.9209   -9.5085 C   0  0  0  0  0  0  0  0  0  0  0  0
   26.9181  -22.1877   -9.3670 O   0  0  0  0  0  0  0  0  0  0  0  0
   23.8936  -24.6956  -16.6012 O   0  0  0  0  0  0  0  0  0  0  0  0
   24.2511  -23.9853  -15.4682 C   0  0  0  0  0  0  0  0  0  0  0  0
   24.6174  -24.6477  -14.3185 C   0  0  0  0  0  0  0  0  0  0  0  0
   24.9744  -23.9473  -13.1872 C   0  0  0  0  0  0  0  0  0  0  0  0
   24.9862  -22.5504  -13.1386 C   0  0  0  0  0  0  0  0  0  0  0  0
   25.3676  -21.8408  -11.9006 C   0  0  0  0  0  0  0  0  0  0  0  0
   26.7606  -21.2494  -11.9561 C   0  0  2  0  0  0  0  0  0  0  0  0
   26.8899  -20.3636  -10.7979 N   0  0  0  0  0  0  0  0  0  0  0  0
   27.0505  -20.5549  -13.2079 C   0  0  0  0  0  0  0  0  0  0  0  0
   27.5274  -21.2763  -14.2909 O   0  0  0  0  0  0  0  0  0  0  0  0
   24.6148  -21.9015  -14.3044 C   0  0  0  0  0  0  0  0  0  0  0  0
   24.2582  -22.6059  -15.4347 C   0  0  0  0  0  0  0  0  0  0  0  0
   26.8958  -19.3187  -13.3804 O   0  0  0  0  0  0  0  0  0  0  0  0
  2  1  1  0
  3  2  1  0
  3  4  1  6
  5  6  2  0
  5  3  1  0
  7  8  1  0
  8  9  1  0
  9 10  1  0
 11 10  1  1
 11 12  1  0
 12  5  1  0
 13 14  2  0
 13 11  1  0
 16 15  1  0
 17 16  2  0
 18 17  1  0
 19 18  2  0
 19 25  1  0
 20 19  1  0
 21 20  1  6
 21 22  1  0
 22 13  1  0
 23 21  1  0
 24 23  1  0
 25 26  2  0
 26 16  1  0
 27 23  2  0
M  END
$$$$
