SMY.pdb
     RDKit          3D

 27 27  0  0  1  0  0  0  0  0999 V2000
   28.5150  -18.2010  -14.3743 O   0  0  0  0  0  0  0  0  0  0  0  0
   27.5624  -19.0450  -13.8568 C   0  0  0  0  0  0  0  0  0  0  0  0
   28.0871  -20.4045  -13.4861 C   0  0  2  0  0  0  0  0  0  0  0  0
   28.2572  -21.2740  -14.6044 N   0  0  0  0  0  0  0  0  0  0  0  0
   27.1224  -21.0185  -12.5281 C   0  0  0  0  0  0  0  0  0  0  0  0
   26.4070  -21.9407  -12.9941 O   0  0  0  0  0  0  0  0  0  0  0  0
   28.9990  -20.3963   -5.9469 C   0  0  0  0  0  0  0  0  0  0  0  0
   27.5047  -19.7642   -6.7451 S   0  0  0  0  0  0  0  0  0  0  0  0
   27.2475  -20.5919   -8.3720 C   0  0  0  0  0  0  0  0  0  0  0  0
   26.0596  -19.9106   -9.0104 C   0  0  0  0  0  0  0  0  0  0  0  0
   25.8613  -20.5113  -10.3849 C   0  0  2  0  0  0  0  0  0  0  0  0
   27.0271  -20.5898  -11.2006 N   0  0  0  0  0  0  0  0  0  0  0  0
   24.6533  -20.1084  -11.0899 C   0  0  0  0  0  0  0  0  0  0  0  0
   24.7603  -19.3394  -12.1142 O   0  0  0  0  0  0  0  0  0  0  0  0
   18.5072  -20.9080  -16.8101 O   0  0  0  0  0  0  0  0  0  0  0  0
   19.5172  -20.9773  -15.8663 C   0  0  0  0  0  0  0  0  0  0  0  0
   19.3638  -20.3761  -14.6376 C   0  0  0  0  0  0  0  0  0  0  0  0
   20.3648  -20.4412  -13.6933 C   0  0  0  0  0  0  0  0  0  0  0  0
   21.5723  -21.1077  -13.9205 C   0  0  0  0  0  0  0  0  0  0  0  0
   22.6220  -21.1442  -12.8819 C   0  0  0  0  0  0  0  0  0  0  0  0
   22.2586  -20.3609  -11.6378 C   0  0  2  0  0  0  0  0  0  0  0  0
   23.3654  -20.5290  -10.6946 N   0  0  0  0  0  0  0  0  0  0  0  0
   20.9798  -20.7551  -11.0526 C   0  0  0  0  0  0  0  0  0  0  0  0
   19.9080  -19.8781  -11.1072 O   0  0  0  0  0  0  0  0  0  0  0  0
   21.7086  -21.7062  -15.1620 C   0  0  0  0  0  0  0  0  0  0  0  0
   20.7045  -21.6390  -16.1044 C   0  0  0  0  0  0  0  0  0  0  0  0
   20.7737  -21.8598  -10.4876 O   0  0  0  0  0  0  0  0  0  0  0  0
  2  1  1  0
  3  2  1  0
  3  4  1  6
  5  6  2  0
  5  3  1  0
  7  8  1  0
  8  9  1  0
  9 10  1  0
 11 10  1  1
 11 12  1  0
 12  5  1  0
 13 14  2  0
 13 11  1  0
 16 15  1  0
 17 16  2  0
 18 17  1  0
 19 18  2  0
 19 25  1  0
 20 19  1  0
 21 20  1  6
 21 22  1  0
 22 13  1  0
 23 21  1  0
 24 23  1  0
 25 26  2  0
 26 16  1  0
 27 23  2  0
M  END
$$$$
