SMY.pdb
     RDKit          3D

 27 27  0  0  1  0  0  0  0  0999 V2000
   34.0066  -25.9247  -18.4274 O   0  0  0  0  0  0  0  0  0  0  0  0
   32.7842  -25.3746  -18.1261 C   0  0  0  0  0  0  0  0  0  0  0  0
   32.7880  -24.5169  -16.8910 C   0  0  2  0  0  0  0  0  0  0  0  0
   33.1149  -25.2330  -15.7011 N   0  0  0  0  0  0  0  0  0  0  0  0
   31.4282  -23.9201  -16.7478 C   0  0  0  0  0  0  0  0  0  0  0  0
   30.6957  -24.4425  -15.8703 O   0  0  0  0  0  0  0  0  0  0  0  0
   28.7397  -16.8936  -16.9570 C   0  0  0  0  0  0  0  0  0  0  0  0
   29.0972  -18.2371  -18.1133 S   0  0  0  0  0  0  0  0  0  0  0  0
   29.2331  -19.8396  -17.2124 C   0  0  0  0  0  0  0  0  0  0  0  0
   29.6756  -20.8624  -18.2325 C   0  0  0  0  0  0  0  0  0  0  0  0
   29.7317  -22.2101  -17.5468 C   0  0  2  0  0  0  0  0  0  0  0  0
   31.0049  -22.8500  -17.5420 N   0  0  0  0  0  0  0  0  0  0  0  0
   28.6062  -23.0996  -17.7934 C   0  0  0  0  0  0  0  0  0  0  0  0
   28.7635  -24.0910  -18.5961 O   0  0  0  0  0  0  0  0  0  0  0  0
   23.1367  -29.5251  -16.8186 O   0  0  0  0  0  0  0  0  0  0  0  0
   24.0326  -28.4708  -16.7800 C   0  0  0  0  0  0  0  0  0  0  0  0
   24.8688  -28.2289  -17.8463 C   0  0  0  0  0  0  0  0  0  0  0  0
   25.7630  -27.1813  -17.8149 C   0  0  0  0  0  0  0  0  0  0  0  0
   25.8734  -26.3181  -16.7210 C   0  0  0  0  0  0  0  0  0  0  0  0
   26.8531  -25.2127  -16.7271 C   0  0  0  0  0  0  0  0  0  0  0  0
   26.3256  -23.9507  -17.3773 C   0  0  2  0  0  0  0  0  0  0  0  0
   27.3456  -22.9185  -17.1851 N   0  0  0  0  0  0  0  0  0  0  0  0
   25.0233  -23.5312  -16.8663 C   0  0  0  0  0  0  0  0  0  0  0  0
   23.8728  -24.1032  -17.3859 O   0  0  0  0  0  0  0  0  0  0  0  0
   25.0244  -26.5770  -15.6580 C   0  0  0  0  0  0  0  0  0  0  0  0
   24.1308  -27.6263  -15.6932 C   0  0  0  0  0  0  0  0  0  0  0  0
   24.8642  -22.6667  -15.9668 O   0  0  0  0  0  0  0  0  0  0  0  0
  2  1  1  0
  3  2  1  0
  3  4  1  1
  5  6  2  0
  5  3  1  0
  7  8  1  0
  8  9  1  0
  9 10  1  0
 11 10  1  6
 11 12  1  0
 12  5  1  0
 13 14  2  0
 13 11  1  0
 16 15  1  0
 17 16  2  0
 18 17  1  0
 19 18  2  0
 19 25  1  0
 20 19  1  0
 21 20  1  1
 21 22  1  0
 22 13  1  0
 23 21  1  0
 24 23  1  0
 25 26  2  0
 26 16  1  0
 27 23  2  0
M  END
$$$$
