SMY.pdb
     RDKit          3D

 27 27  0  0  1  0  0  0  0  0999 V2000
   26.9051  -21.6712  -19.2106 O   0  0  0  0  0  0  0  0  0  0  0  0
   25.7776  -22.4294  -19.4147 C   0  0  0  0  0  0  0  0  0  0  0  0
   24.6672  -21.6965  -20.1154 C   0  0  2  0  0  0  0  0  0  0  0  0
   25.0944  -20.9964  -21.2828 N   0  0  0  0  0  0  0  0  0  0  0  0
   24.0811  -20.7253  -19.1465 C   0  0  0  0  0  0  0  0  0  0  0  0
   23.5797  -19.6897  -19.6520 O   0  0  0  0  0  0  0  0  0  0  0  0
   18.1301  -19.0760  -15.3351 C   0  0  0  0  0  0  0  0  0  0  0  0
   19.1658  -19.9491  -16.5329 S   0  0  0  0  0  0  0  0  0  0  0  0
   20.9468  -19.7674  -16.0937 C   0  0  0  0  0  0  0  0  0  0  0  0
   21.7253  -20.4612  -17.1870 C   0  0  0  0  0  0  0  0  0  0  0  0
   23.1843  -20.4703  -16.7861 C   0  0  2  0  0  0  0  0  0  0  0  0
   24.0934  -20.9599  -17.7681 N   0  0  0  0  0  0  0  0  0  0  0  0
   23.4702  -20.9018  -15.4256 C   0  0  0  0  0  0  0  0  0  0  0  0
   23.2948  -22.1371  -15.1169 O   0  0  0  0  0  0  0  0  0  0  0  0
   27.2122  -21.2207   -7.4012 O   0  0  0  0  0  0  0  0  0  0  0  0
   26.7863  -20.8689   -8.6703 C   0  0  0  0  0  0  0  0  0  0  0  0
   27.4174  -21.3787   -9.7822 C   0  0  0  0  0  0  0  0  0  0  0  0
   26.9988  -21.0331  -11.0484 C   0  0  0  0  0  0  0  0  0  0  0  0
   25.9299  -20.1616  -11.2766 C   0  0  0  0  0  0  0  0  0  0  0  0
   25.5210  -19.8117  -12.6521 C   0  0  0  0  0  0  0  0  0  0  0  0
   24.2974  -20.5700  -13.1225 C   0  0  2  0  0  0  0  0  0  0  0  0
   23.9343  -20.0173  -14.4285 N   0  0  0  0  0  0  0  0  0  0  0  0
   23.1820  -20.5201  -12.1810 C   0  0  0  0  0  0  0  0  0  0  0  0
   22.2730  -19.4768  -12.2585 O   0  0  0  0  0  0  0  0  0  0  0  0
   25.3075  -19.6589  -10.1461 C   0  0  0  0  0  0  0  0  0  0  0  0
   25.7292  -20.0072   -8.8806 C   0  0  0  0  0  0  0  0  0  0  0  0
   22.9801  -21.3756  -11.2813 O   0  0  0  0  0  0  0  0  0  0  0  0
  2  1  1  0
  3  2  1  0
  3  4  1  6
  5  6  2  0
  5  3  1  0
  7  8  1  0
  8  9  1  0
  9 10  1  0
 11 10  1  6
 11 12  1  0
 12  5  1  0
 13 14  2  0
 13 11  1  0
 16 15  1  0
 17 16  2  0
 18 17  1  0
 19 18  2  0
 19 25  1  0
 20 19  1  0
 21 20  1  1
 21 22  1  0
 22 13  1  0
 23 21  1  0
 24 23  1  0
 25 26  2  0
 26 16  1  0
 27 23  2  0
M  END
$$$$
