SMY.pdb
     RDKit          3D

 27 27  0  0  1  0  0  0  0  0999 V2000
   19.3741  -11.8768  -19.5894 O   0  0  0  0  0  0  0  0  0  0  0  0
   19.9500  -10.6441  -19.3985 C   0  0  0  0  0  0  0  0  0  0  0  0
   21.4506  -10.6782  -19.3098 C   0  0  2  0  0  0  0  0  0  0  0  0
   21.9556  -11.8304  -18.6368 N   0  0  0  0  0  0  0  0  0  0  0  0
   21.8911   -9.4520  -18.5831 C   0  0  0  0  0  0  0  0  0  0  0  0
   22.2624   -9.6287  -17.3955 O   0  0  0  0  0  0  0  0  0  0  0  0
   23.6505   -1.7194  -19.1186 C   0  0  0  0  0  0  0  0  0  0  0  0
   23.1972   -3.2444  -19.9780 S   0  0  0  0  0  0  0  0  0  0  0  0
   22.9452   -4.6120  -18.7680 C   0  0  0  0  0  0  0  0  0  0  0  0
   22.4723   -5.8032  -19.5681 C   0  0  0  0  0  0  0  0  0  0  0  0
   22.1902   -6.9318  -18.6005 C   0  0  2  0  0  0  0  0  0  0  0  0
   21.8876   -8.1929  -19.1912 N   0  0  0  0  0  0  0  0  0  0  0  0
   21.3751   -6.5924  -17.4433 C   0  0  0  0  0  0  0  0  0  0  0  0
   20.0965   -6.5646  -17.5719 O   0  0  0  0  0  0  0  0  0  0  0  0
   17.8326   -6.5049   -9.5262 O   0  0  0  0  0  0  0  0  0  0  0  0
   18.6651   -6.6715  -10.6194 C   0  0  0  0  0  0  0  0  0  0  0  0
   18.7932   -5.6705  -11.5554 C   0  0  0  0  0  0  0  0  0  0  0  0
   19.6200   -5.8293  -12.6459 C   0  0  0  0  0  0  0  0  0  0  0  0
   20.3639   -6.9926  -12.8639 C   0  0  0  0  0  0  0  0  0  0  0  0
   21.2312   -7.1230  -14.0523 C   0  0  0  0  0  0  0  0  0  0  0  0
   21.0234   -6.0183  -15.0673 C   0  0  2  0  0  0  0  0  0  0  0  0
   21.9321   -6.2924  -16.1817 N   0  0  0  0  0  0  0  0  0  0  0  0
   21.2210   -4.6785  -14.5205 C   0  0  0  0  0  0  0  0  0  0  0  0
   20.1305   -3.8352  -14.3771 O   0  0  0  0  0  0  0  0  0  0  0  0
   20.2222   -7.9884  -11.9119 C   0  0  0  0  0  0  0  0  0  0  0  0
   19.3938   -7.8257  -10.8219 C   0  0  0  0  0  0  0  0  0  0  0  0
   22.3361   -4.2210  -14.1613 O   0  0  0  0  0  0  0  0  0  0  0  0
  2  1  1  0
  3  2  1  0
  3  4  1  1
  5  6  2  0
  5  3  1  0
  7  8  1  0
  8  9  1  0
  9 10  1  0
 11 10  1  6
 11 12  1  0
 12  5  1  0
 13 14  2  0
 13 11  1  0
 16 15  1  0
 17 16  2  0
 18 17  1  0
 19 18  2  0
 19 25  1  0
 20 19  1  0
 21 20  1  1
 21 22  1  0
 22 13  1  0
 23 21  1  0
 24 23  1  0
 25 26  2  0
 26 16  1  0
 27 23  2  0
M  END
$$$$
