SMY.pdb
     RDKit          3D

 27 27  0  0  1  0  0  0  0  0999 V2000
   27.0192  -18.0810  -14.4887 O   0  0  0  0  0  0  0  0  0  0  0  0
   27.9817  -18.6901  -13.7205 C   0  0  0  0  0  0  0  0  0  0  0  0
   28.1046  -20.1702  -13.9554 C   0  0  2  0  0  0  0  0  0  0  0  0
   28.2531  -20.5184  -15.3310 N   0  0  0  0  0  0  0  0  0  0  0  0
   26.8758  -20.8201  -13.4137 C   0  0  0  0  0  0  0  0  0  0  0  0
   26.0851  -21.2867  -14.2719 O   0  0  0  0  0  0  0  0  0  0  0  0
   27.0219  -19.0764   -6.7309 C   0  0  0  0  0  0  0  0  0  0  0  0
   26.5982  -20.6085   -7.5928 S   0  0  0  0  0  0  0  0  0  0  0  0
   25.9643  -20.2389   -9.2838 C   0  0  0  0  0  0  0  0  0  0  0  0
   25.5706  -21.5667   -9.8878 C   0  0  0  0  0  0  0  0  0  0  0  0
   25.4578  -21.3820  -11.3853 C   0  0  2  0  0  0  0  0  0  0  0  0
   26.6283  -20.9002  -12.0399 N   0  0  0  0  0  0  0  0  0  0  0  0
   24.2119  -20.8022  -11.8654 C   0  0  0  0  0  0  0  0  0  0  0  0
   24.0478  -19.5301  -11.7839 O   0  0  0  0  0  0  0  0  0  0  0  0
   24.2761  -16.0810  -16.5016 O   0  0  0  0  0  0  0  0  0  0  0  0
   23.7547  -17.2626  -16.0039 C   0  0  0  0  0  0  0  0  0  0  0  0
   22.4881  -17.2921  -15.4659 C   0  0  0  0  0  0  0  0  0  0  0  0
   21.9626  -18.4646  -14.9688 C   0  0  0  0  0  0  0  0  0  0  0  0
   22.6689  -19.6708  -14.9801 C   0  0  0  0  0  0  0  0  0  0  0  0
   22.0692  -20.9025  -14.4278 C   0  0  0  0  0  0  0  0  0  0  0  0
   21.9790  -20.8968  -12.9161 C   0  0  2  0  0  0  0  0  0  0  0  0
   23.1736  -21.5815  -12.4192 N   0  0  0  0  0  0  0  0  0  0  0  0
   20.7522  -21.5002  -12.4022 C   0  0  0  0  0  0  0  0  0  0  0  0
   20.8173  -22.7193  -11.7461 O   0  0  0  0  0  0  0  0  0  0  0  0
   23.9411  -19.6217  -15.5251 C   0  0  0  0  0  0  0  0  0  0  0  0
   24.4635  -18.4464  -16.0217 C   0  0  0  0  0  0  0  0  0  0  0  0
   19.6114  -20.9825  -12.5142 O   0  0  0  0  0  0  0  0  0  0  0  0
  2  1  1  0
  3  2  1  0
  3  4  1  6
  5  6  2  0
  5  3  1  0
  7  8  1  0
  8  9  1  0
  9 10  1  0
 11 10  1  1
 11 12  1  0
 12  5  1  0
 13 14  2  0
 13 11  1  0
 16 15  1  0
 17 16  2  0
 18 17  1  0
 19 18  2  0
 19 25  1  0
 20 19  1  0
 21 20  1  6
 21 22  1  0
 22 13  1  0
 23 21  1  0
 24 23  1  0
 25 26  2  0
 26 16  1  0
 27 23  2  0
M  END
$$$$
