SMY.pdb
     RDKit          3D

 27 27  0  0  1  0  0  0  0  0999 V2000
   25.8799  -20.7107  -17.6024 O   0  0  0  0  0  0  0  0  0  0  0  0
   24.8042  -19.9702  -18.0293 C   0  0  0  0  0  0  0  0  0  0  0  0
   24.3261  -18.9545  -17.0289 C   0  0  2  0  0  0  0  0  0  0  0  0
   25.3557  -18.0819  -16.5664 N   0  0  0  0  0  0  0  0  0  0  0  0
   23.7511  -19.6950  -15.8684 C   0  0  0  0  0  0  0  0  0  0  0  0
   22.9314  -20.6031  -16.1561 O   0  0  0  0  0  0  0  0  0  0  0  0
   26.7649  -21.5795  -11.2024 C   0  0  0  0  0  0  0  0  0  0  0  0
   25.0324  -22.0695  -11.0348 S   0  0  0  0  0  0  0  0  0  0  0  0
   23.9462  -20.5809  -10.9910 C   0  0  0  0  0  0  0  0  0  0  0  0
   24.4277  -19.6730  -12.0986 C   0  0  0  0  0  0  0  0  0  0  0  0
   23.6555  -20.0188  -13.3531 C   0  0  2  0  0  0  0  0  0  0  0  0
   24.1065  -19.3916  -14.5505 N   0  0  0  0  0  0  0  0  0  0  0  0
   22.2084  -20.0901  -13.2132 C   0  0  0  0  0  0  0  0  0  0  0  0
   21.5404  -18.9966  -13.1128 O   0  0  0  0  0  0  0  0  0  0  0  0
   19.4774  -27.5648  -14.2575 O   0  0  0  0  0  0  0  0  0  0  0  0
   19.4799  -26.1806  -14.2606 C   0  0  0  0  0  0  0  0  0  0  0  0
   18.6316  -25.4814  -13.4322 C   0  0  0  0  0  0  0  0  0  0  0  0
   18.6287  -24.1038  -13.4300 C   0  0  0  0  0  0  0  0  0  0  0  0
   19.4695  -23.3476  -14.2516 C   0  0  0  0  0  0  0  0  0  0  0  0
   19.4261  -21.8714  -14.2225 C   0  0  0  0  0  0  0  0  0  0  0  0
   20.0571  -21.2799  -12.9793 C   0  0  2  0  0  0  0  0  0  0  0  0
   21.5061  -21.3139  -13.1841 N   0  0  0  0  0  0  0  0  0  0  0  0
   19.6652  -21.9581  -11.7466 C   0  0  0  0  0  0  0  0  0  0  0  0
   18.3603  -21.8450  -11.2938 O   0  0  0  0  0  0  0  0  0  0  0  0
   20.3157  -24.0682  -15.0779 C   0  0  0  0  0  0  0  0  0  0  0  0
   20.3158  -25.4468  -15.0773 C   0  0  0  0  0  0  0  0  0  0  0  0
   20.4444  -22.6549  -11.0471 O   0  0  0  0  0  0  0  0  0  0  0  0
  2  1  1  0
  3  2  1  0
  3  4  1  1
  5  6  2  0
  5  3  1  0
  7  8  1  0
  8  9  1  0
  9 10  1  0
 11 10  1  1
 11 12  1  0
 12  5  1  0
 13 14  2  0
 13 11  1  0
 16 15  1  0
 17 16  2  0
 18 17  1  0
 19 18  2  0
 19 25  1  0
 20 19  1  0
 21 20  1  6
 21 22  1  0
 22 13  1  0
 23 21  1  0
 24 23  1  0
 25 26  2  0
 26 16  1  0
 27 23  2  0
M  END
$$$$
