SMY.pdb
     RDKit          3D

 27 27  0  0  1  0  0  0  0  0999 V2000
   28.7954  -22.8677  -19.9295 O   0  0  0  0  0  0  0  0  0  0  0  0
   28.1964  -22.8312  -18.6936 C   0  0  0  0  0  0  0  0  0  0  0  0
   29.1049  -22.3696  -17.5879 C   0  0  2  0  0  0  0  0  0  0  0  0
   29.7963  -23.4343  -16.9367 N   0  0  0  0  0  0  0  0  0  0  0  0
   28.2708  -21.6411  -16.5883 C   0  0  0  0  0  0  0  0  0  0  0  0
   27.8949  -22.3180  -15.5984 O   0  0  0  0  0  0  0  0  0  0  0  0
   25.0241  -14.6120  -14.6966 C   0  0  0  0  0  0  0  0  0  0  0  0
   26.2278  -15.5282  -15.6873 S   0  0  0  0  0  0  0  0  0  0  0  0
   26.1168  -17.3320  -15.3244 C   0  0  0  0  0  0  0  0  0  0  0  0
   27.2063  -17.9946  -16.1349 C   0  0  0  0  0  0  0  0  0  0  0  0
   27.1085  -19.4882  -15.9136 C   0  0  2  0  0  0  0  0  0  0  0  0
   27.9342  -20.2937  -16.7504 N   0  0  0  0  0  0  0  0  0  0  0  0
   25.7695  -20.0152  -15.6941 C   0  0  0  0  0  0  0  0  0  0  0  0
   25.0032  -20.2037  -16.7085 O   0  0  0  0  0  0  0  0  0  0  0  0
   26.0087  -20.4897   -8.2130 O   0  0  0  0  0  0  0  0  0  0  0  0
   25.5509  -20.8976   -9.4539 C   0  0  0  0  0  0  0  0  0  0  0  0
   26.4316  -21.3743  -10.3982 C   0  0  0  0  0  0  0  0  0  0  0  0
   25.9830  -21.7822  -11.6353 C   0  0  0  0  0  0  0  0  0  0  0  0
   24.6342  -21.7376  -11.9996 C   0  0  0  0  0  0  0  0  0  0  0  0
   24.1992  -22.1769  -13.3410 C   0  0  0  0  0  0  0  0  0  0  0  0
   23.9950  -21.0295  -14.3081 C   0  0  2  0  0  0  0  0  0  0  0  0
   25.2766  -20.3295  -14.4095 N   0  0  0  0  0  0  0  0  0  0  0  0
   22.9114  -20.1286  -13.9246 C   0  0  0  0  0  0  0  0  0  0  0  0
   23.2052  -18.8170  -13.5867 O   0  0  0  0  0  0  0  0  0  0  0  0
   23.7633  -21.2552  -11.0368 C   0  0  0  0  0  0  0  0  0  0  0  0
   24.2160  -20.8481   -9.7999 C   0  0  0  0  0  0  0  0  0  0  0  0
   21.6999  -20.4633  -13.8764 O   0  0  0  0  0  0  0  0  0  0  0  0
  2  1  1  0
  3  2  1  0
  3  4  1  1
  5  6  2  0
  5  3  1  0
  7  8  1  0
  8  9  1  0
  9 10  1  0
 11 10  1  6
 11 12  1  0
 12  5  1  0
 13 14  2  0
 13 11  1  0
 16 15  1  0
 17 16  2  0
 18 17  1  0
 19 18  2  0
 19 25  1  0
 20 19  1  0
 21 20  1  1
 21 22  1  0
 22 13  1  0
 23 21  1  0
 24 23  1  0
 25 26  2  0
 26 16  1  0
 27 23  2  0
M  END
$$$$
