SMY.pdb
     RDKit          3D

 27 27  0  0  1  0  0  0  0  0999 V2000
   26.8263  -10.4773  -15.8489 O   0  0  0  0  0  0  0  0  0  0  0  0
   26.0227  -11.1571  -14.9659 C   0  0  0  0  0  0  0  0  0  0  0  0
   24.9422  -11.9696  -15.6242 C   0  0  2  0  0  0  0  0  0  0  0  0
   25.4220  -12.8179  -16.6661 N   0  0  0  0  0  0  0  0  0  0  0  0
   23.9381  -11.0202  -16.1864 C   0  0  0  0  0  0  0  0  0  0  0  0
   24.0538  -10.7709  -17.4127 O   0  0  0  0  0  0  0  0  0  0  0  0
   18.7843  -12.9739  -16.5617 C   0  0  0  0  0  0  0  0  0  0  0  0
   18.3986  -11.4826  -15.6146 S   0  0  0  0  0  0  0  0  0  0  0  0
   19.9480  -10.6895  -15.0079 C   0  0  0  0  0  0  0  0  0  0  0  0
   20.6183  -10.0875  -16.2208 C   0  0  0  0  0  0  0  0  0  0  0  0
   21.9432   -9.5049  -15.7797 C   0  0  2  0  0  0  0  0  0  0  0  0
   22.9375  -10.4499  -15.3935 N   0  0  0  0  0  0  0  0  0  0  0  0
   21.8712   -8.3208  -14.9363 C   0  0  0  0  0  0  0  0  0  0  0  0
   22.2020   -8.4200  -13.6982 O   0  0  0  0  0  0  0  0  0  0  0  0
   26.1610   -4.2855  -18.7790 O   0  0  0  0  0  0  0  0  0  0  0  0
   25.3995   -4.6212  -17.6730 C   0  0  0  0  0  0  0  0  0  0  0  0
   25.4664   -5.8889  -17.1410 C   0  0  0  0  0  0  0  0  0  0  0  0
   24.7113   -6.2300  -16.0403 C   0  0  0  0  0  0  0  0  0  0  0  0
   23.8491   -5.3284  -15.4097 C   0  0  0  0  0  0  0  0  0  0  0  0
   23.0514   -5.7405  -14.2368 C   0  0  0  0  0  0  0  0  0  0  0  0
   21.5771   -5.9004  -14.5437 C   0  0  2  0  0  0  0  0  0  0  0  0
   21.4526   -7.0639  -15.4232 N   0  0  0  0  0  0  0  0  0  0  0  0
   20.9699   -4.7080  -15.1290 C   0  0  0  0  0  0  0  0  0  0  0  0
   20.4410   -4.7727  -16.4085 O   0  0  0  0  0  0  0  0  0  0  0  0
   23.7951   -4.0582  -15.9589 C   0  0  0  0  0  0  0  0  0  0  0  0
   24.5523   -3.7205  -17.0605 C   0  0  0  0  0  0  0  0  0  0  0  0
   20.8898   -3.5978  -14.5433 O   0  0  0  0  0  0  0  0  0  0  0  0
  2  1  1  0
  3  2  1  0
  3  4  1  6
  5  6  2  0
  5  3  1  0
  7  8  1  0
  8  9  1  0
  9 10  1  0
 11 10  1  1
 11 12  1  0
 12  5  1  0
 13 14  2  0
 13 11  1  0
 16 15  1  0
 17 16  2  0
 18 17  1  0
 19 18  2  0
 19 25  1  0
 20 19  1  0
 21 20  1  6
 21 22  1  0
 22 13  1  0
 23 21  1  0
 24 23  1  0
 25 26  2  0
 26 16  1  0
 27 23  2  0
M  END
$$$$
