SMY.pdb
     RDKit          3D

 27 27  0  0  1  0  0  0  0  0999 V2000
   19.2937  -17.0938  -17.2338 O   0  0  0  0  0  0  0  0  0  0  0  0
   18.9362  -15.7871  -17.4629 C   0  0  0  0  0  0  0  0  0  0  0  0
   19.0369  -14.9045  -16.2498 C   0  0  2  0  0  0  0  0  0  0  0  0
   18.2827  -15.3792  -15.1356 N   0  0  0  0  0  0  0  0  0  0  0  0
   18.5478  -13.5481  -16.6325 C   0  0  0  0  0  0  0  0  0  0  0  0
   19.2854  -12.9082  -17.4236 O   0  0  0  0  0  0  0  0  0  0  0  0
   12.1796  -13.3855  -18.6529 C   0  0  0  0  0  0  0  0  0  0  0  0
   12.9313  -12.4014  -17.3351 S   0  0  0  0  0  0  0  0  0  0  0  0
   14.7690  -12.4414  -17.4735 C   0  0  0  0  0  0  0  0  0  0  0  0
   15.2983  -11.6277  -16.3156 C   0  0  0  0  0  0  0  0  0  0  0  0
   16.8082  -11.7251  -16.3297 C   0  0  2  0  0  0  0  0  0  0  0  0
   17.3464  -13.0306  -16.1383 N   0  0  0  0  0  0  0  0  0  0  0  0
   17.5232  -10.6657  -15.6330 C   0  0  0  0  0  0  0  0  0  0  0  0
   18.0002  -10.9045  -14.4636 O   0  0  0  0  0  0  0  0  0  0  0  0
   22.8087   -4.1517  -13.3452 O   0  0  0  0  0  0  0  0  0  0  0  0
   22.0814   -5.1824  -13.9149 C   0  0  0  0  0  0  0  0  0  0  0  0
   21.9397   -6.3817  -13.2545 C   0  0  0  0  0  0  0  0  0  0  0  0
   21.2172   -7.4119  -13.8153 C   0  0  0  0  0  0  0  0  0  0  0  0
   20.5967   -7.3044  -15.0633 C   0  0  0  0  0  0  0  0  0  0  0  0
   19.8391   -8.4385  -15.6303 C   0  0  0  0  0  0  0  0  0  0  0  0
   18.3504   -8.3543  -15.3653 C   0  0  2  0  0  0  0  0  0  0  0  0
   17.7157   -9.3835  -16.1904 N   0  0  0  0  0  0  0  0  0  0  0  0
   17.7867   -7.0306  -15.6167 C   0  0  0  0  0  0  0  0  0  0  0  0
   17.7630   -6.0963  -14.5933 O   0  0  0  0  0  0  0  0  0  0  0  0
   20.7503   -6.0908  -15.7126 C   0  0  0  0  0  0  0  0  0  0  0  0
   21.4740   -5.0621  -15.1481 C   0  0  0  0  0  0  0  0  0  0  0  0
   17.3084   -6.6663  -16.7214 O   0  0  0  0  0  0  0  0  0  0  0  0
  2  1  1  0
  3  2  1  0
  3  4  1  1
  5  6  2  0
  5  3  1  0
  7  8  1  0
  8  9  1  0
  9 10  1  0
 11 10  1  1
 11 12  1  0
 12  5  1  0
 13 14  2  0
 13 11  1  0
 16 15  1  0
 17 16  2  0
 18 17  1  0
 19 18  2  0
 19 25  1  0
 20 19  1  0
 21 20  1  6
 21 22  1  0
 22 13  1  0
 23 21  1  0
 24 23  1  0
 25 26  2  0
 26 16  1  0
 27 23  2  0
M  END
$$$$
