SMY.pdb
     RDKit          3D

 27 27  0  0  1  0  0  0  0  0999 V2000
   26.0970  -15.6749  -18.4925 O   0  0  0  0  0  0  0  0  0  0  0  0
   26.0503  -14.3079  -18.3628 C   0  0  0  0  0  0  0  0  0  0  0  0
   27.3234  -13.6998  -17.8427 C   0  0  2  0  0  0  0  0  0  0  0  0
   27.9883  -14.5103  -16.8750 N   0  0  0  0  0  0  0  0  0  0  0  0
   26.9813  -12.3834  -17.2298 C   0  0  0  0  0  0  0  0  0  0  0  0
   26.5452  -12.4298  -16.0521 O   0  0  0  0  0  0  0  0  0  0  0  0
   31.6597   -7.6463  -17.8694 C   0  0  0  0  0  0  0  0  0  0  0  0
   29.9365   -7.5694  -18.4120 S   0  0  0  0  0  0  0  0  0  0  0  0
   28.9681   -8.9513  -17.6700 C   0  0  0  0  0  0  0  0  0  0  0  0
   27.5310   -8.7288  -18.0797 C   0  0  0  0  0  0  0  0  0  0  0  0
   26.7094   -9.8792  -17.5403 C   0  0  2  0  0  0  0  0  0  0  0  0
   27.1385  -11.1818  -17.9275 N   0  0  0  0  0  0  0  0  0  0  0  0
   25.2662   -9.6899  -17.5429 C   0  0  0  0  0  0  0  0  0  0  0  0
   24.5719  -10.2266  -18.4819 O   0  0  0  0  0  0  0  0  0  0  0  0
   17.1064  -10.5334  -15.1484 O   0  0  0  0  0  0  0  0  0  0  0  0
   18.4502  -10.4970  -15.4782 C   0  0  0  0  0  0  0  0  0  0  0  0
   19.2236   -9.4139  -15.1271 C   0  0  0  0  0  0  0  0  0  0  0  0
   20.5617   -9.3708  -15.4520 C   0  0  0  0  0  0  0  0  0  0  0  0
   21.2024  -10.4029  -16.1437 C   0  0  0  0  0  0  0  0  0  0  0  0
   22.6379  -10.3102  -16.4790 C   0  0  0  0  0  0  0  0  0  0  0  0
   23.1332   -8.8837  -16.5947 C   0  0  2  0  0  0  0  0  0  0  0  0
   24.5953   -8.9397  -16.5533 N   0  0  0  0  0  0  0  0  0  0  0  0
   22.5932   -7.9934  -15.5705 C   0  0  0  0  0  0  0  0  0  0  0  0
   21.3344   -7.4404  -15.7455 O   0  0  0  0  0  0  0  0  0  0  0  0
   20.4083  -11.4839  -16.4885 C   0  0  0  0  0  0  0  0  0  0  0  0
   19.0695  -11.5234  -16.1615 C   0  0  0  0  0  0  0  0  0  0  0  0
   23.2015   -7.6828  -14.5144 O   0  0  0  0  0  0  0  0  0  0  0  0
  2  1  1  0
  3  2  1  0
  3  4  1  1
  5  6  2  0
  5  3  1  0
  7  8  1  0
  8  9  1  0
  9 10  1  0
 11 10  1  6
 11 12  1  0
 12  5  1  0
 13 14  2  0
 13 11  1  0
 16 15  1  0
 17 16  2  0
 18 17  1  0
 19 18  2  0
 19 25  1  0
 20 19  1  0
 21 20  1  1
 21 22  1  0
 22 13  1  0
 23 21  1  0
 24 23  1  0
 25 26  2  0
 26 16  1  0
 27 23  2  0
M  END
$$$$
