MAT.pdb
     RDKit          3D

 21 20  0  0  1  0  0  0  0  0999 V2000
   18.1810  -15.9207  -13.0758 C   0  0  0  0  0  0  0  0  0  0  0  0
   18.4950  -14.3074  -13.7461 S   0  0  0  0  0  0  0  0  0  0  0  0
   19.9600  -14.1028  -14.7276 C   0  0  0  0  0  0  0  0  0  0  0  0
   20.2483  -12.7231  -15.2365 C   0  0  0  0  0  0  0  0  0  0  0  0
   19.1878  -12.2353  -16.1498 C   0  0  2  0  0  0  0  0  0  0  0  0
   19.2370  -12.9569  -17.4054 N   0  0  0  0  0  0  0  0  0  0  0  0
   19.3205  -10.7499  -16.4061 C   0  0  0  0  0  0  0  0  0  0  0  0
   20.3460  -10.3374  -17.0050 O   0  0  0  0  0  0  0  0  0  0  0  0
   17.0770   -7.7492  -16.0706 C   0  0  0  0  0  0  0  0  0  0  0  0
   18.4145   -8.4599  -16.2325 C   0  0  2  0  0  0  0  0  0  0  0  0
   18.3019   -9.8658  -15.9731 N   0  0  0  0  0  0  0  0  0  0  0  0
   19.4509   -7.8156  -15.3686 C   0  0  0  0  0  0  0  0  0  0  0  0
   19.6386   -8.2593  -14.2200 O   0  0  0  0  0  0  0  0  0  0  0  0
   23.4962   -4.9979  -15.4988 C   0  0  0  0  0  0  0  0  0  0  0  0
   22.3364   -5.7202  -16.1128 C   0  0  1  0  0  0  0  0  0  0  0  0
   22.7565   -6.9354  -16.6660 O   0  0  0  0  0  0  0  0  0  0  0  0
   21.2722   -6.0939  -15.0773 C   0  0  2  0  0  0  0  0  0  0  0  0
   20.2034   -6.7289  -15.8370 N   0  0  0  0  0  0  0  0  0  0  0  0
   20.8218   -4.8899  -14.3808 C   0  0  0  0  0  0  0  0  0  0  0  0
   21.3465   -4.5556  -13.2974 O   0  0  0  0  0  0  0  0  0  0  0  0
   19.8148   -4.1142  -14.9138 O   0  0  0  0  0  0  0  0  0  0  0  0
  2  1  1  0
  3  4  1  0
  3  2  1  0
  4  5  1  0
  5  7  1  0
  5  6  1  6
  7 11  1  0
  7  8  2  0
 10  9  1  1
 10 12  1  0
 11 10  1  0
 12 18  1  0
 12 13  2  0
 15 17  1  0
 15 14  1  1
 16 15  1  0
 17 19  1  0
 17 18  1  6
 19 21  1  0
 20 19  2  0
M  END
$$$$
