MAT.pdb
     RDKit          3D

 21 20  0  0  1  0  0  0  0  0999 V2000
   20.2031  -16.8654  -20.1631 C   0  0  0  0  0  0  0  0  0  0  0  0
   21.8635  -17.1559  -19.6064 S   0  0  0  0  0  0  0  0  0  0  0  0
   22.9491  -15.7545  -19.5118 C   0  0  0  0  0  0  0  0  0  0  0  0
   22.6530  -14.7375  -18.4519 C   0  0  0  0  0  0  0  0  0  0  0  0
   23.5464  -14.8824  -17.2782 C   0  0  2  0  0  0  0  0  0  0  0  0
   23.3096  -16.1525  -16.6221 N   0  0  0  0  0  0  0  0  0  0  0  0
   23.3504  -13.7512  -16.2924 C   0  0  0  0  0  0  0  0  0  0  0  0
   22.2737  -13.7043  -15.6451 O   0  0  0  0  0  0  0  0  0  0  0  0
   25.4940  -11.1279  -14.7099 C   0  0  0  0  0  0  0  0  0  0  0  0
   24.1702  -11.6863  -15.2159 C   0  0  2  0  0  0  0  0  0  0  0  0
   24.3685  -12.7815  -16.1201 N   0  0  0  0  0  0  0  0  0  0  0  0
   23.3506  -10.5976  -15.8313 C   0  0  0  0  0  0  0  0  0  0  0  0
   23.6307  -10.2093  -16.9812 O   0  0  0  0  0  0  0  0  0  0  0  0
   19.8176  -10.5527  -16.5670 C   0  0  0  0  0  0  0  0  0  0  0  0
   20.0371   -9.4144  -15.6183 C   0  0  1  0  0  0  0  0  0  0  0  0
   19.8098   -9.8274  -14.3004 O   0  0  0  0  0  0  0  0  0  0  0  0
   21.4832   -8.9117  -15.6406 C   0  0  2  0  0  0  0  0  0  0  0  0
   22.2824  -10.0183  -15.1314 N   0  0  0  0  0  0  0  0  0  0  0  0
   21.5983   -7.7130  -14.8114 C   0  0  0  0  0  0  0  0  0  0  0  0
   22.1122   -7.7805  -13.6746 O   0  0  0  0  0  0  0  0  0  0  0  0
   21.1410   -6.4990  -15.2772 O   0  0  0  0  0  0  0  0  0  0  0  0
  2  1  1  0
  3  4  1  0
  3  2  1  0
  4  5  1  0
  5  7  1  0
  5  6  1  1
  7 11  1  0
  7  8  2  0
 10  9  1  6
 10 12  1  0
 11 10  1  0
 12 18  1  0
 12 13  2  0
 15 17  1  0
 15 14  1  6
 16 15  1  0
 17 19  1  0
 17 18  1  1
 19 21  1  0
 20 19  2  0
M  END
$$$$
