MAT.pdb
     RDKit          3D

 21 20  0  0  1  0  0  0  0  0999 V2000
   20.8224   -8.5606  -22.8751 C   0  0  0  0  0  0  0  0  0  0  0  0
   19.9698  -10.0991  -22.6367 S   0  0  0  0  0  0  0  0  0  0  0  0
   20.5231  -11.1414  -21.3105 C   0  0  0  0  0  0  0  0  0  0  0  0
   20.6835  -10.5002  -19.9656 C   0  0  0  0  0  0  0  0  0  0  0  0
   21.2450  -11.4395  -18.9661 C   0  0  2  0  0  0  0  0  0  0  0  0
   20.4742  -12.6662  -18.9428 N   0  0  0  0  0  0  0  0  0  0  0  0
   21.2715  -10.8239  -17.5840 C   0  0  0  0  0  0  0  0  0  0  0  0
   20.1824  -10.4596  -17.0726 O   0  0  0  0  0  0  0  0  0  0  0  0
   23.7243  -10.4865  -14.7895 C   0  0  0  0  0  0  0  0  0  0  0  0
   22.5439  -10.0153  -15.6289 C   0  0  2  0  0  0  0  0  0  0  0  0
   22.5044  -10.6722  -16.9030 N   0  0  0  0  0  0  0  0  0  0  0  0
   22.5706   -8.5270  -15.7704 C   0  0  0  0  0  0  0  0  0  0  0  0
   23.2631   -8.0200  -16.6730 O   0  0  0  0  0  0  0  0  0  0  0  0
   19.4023   -6.2065  -14.6428 C   0  0  0  0  0  0  0  0  0  0  0  0
   20.5674   -5.7818  -15.4829 C   0  0  1  0  0  0  0  0  0  0  0  0
   20.6552   -4.3855  -15.5245 O   0  0  0  0  0  0  0  0  0  0  0  0
   21.9034   -6.2537  -14.9026 C   0  0  2  0  0  0  0  0  0  0  0  0
   21.8306   -7.7088  -14.9047 N   0  0  0  0  0  0  0  0  0  0  0  0
   22.0745   -5.7060  -13.5578 C   0  0  0  0  0  0  0  0  0  0  0  0
   21.8827   -6.4264  -12.5553 O   0  0  0  0  0  0  0  0  0  0  0  0
   22.4488   -4.3907  -13.3855 O   0  0  0  0  0  0  0  0  0  0  0  0
  2  1  1  0
  3  4  1  0
  3  2  1  0
  4  5  1  0
  5  7  1  0
  5  6  1  1
  7 11  1  0
  7  8  2  0
 10  9  1  6
 10 12  1  0
 11 10  1  0
 12 18  1  0
 12 13  2  0
 15 17  1  0
 15 14  1  1
 16 15  1  0
 17 19  1  0
 17 18  1  1
 19 21  1  0
 20 19  2  0
M  END
$$$$
