MAT.pdb
     RDKit          3D

 21 20  0  0  1  0  0  0  0  0999 V2000
   19.3714  -14.6801  -20.1323 C   0  0  0  0  0  0  0  0  0  0  0  0
   20.6461  -14.0719  -21.2077 S   0  0  0  0  0  0  0  0  0  0  0  0
   21.9023  -13.0464  -20.4854 C   0  0  0  0  0  0  0  0  0  0  0  0
   21.5049  -12.2206  -19.2999 C   0  0  0  0  0  0  0  0  0  0  0  0
   22.6594  -11.4998  -18.7131 C   0  0  2  0  0  0  0  0  0  0  0  0
   23.6756  -12.4419  -18.2896 N   0  0  0  0  0  0  0  0  0  0  0  0
   22.2361  -10.6405  -17.5416 C   0  0  0  0  0  0  0  0  0  0  0  0
   21.2763   -9.8446  -17.7021 O   0  0  0  0  0  0  0  0  0  0  0  0
   23.1632  -10.4101  -13.8935 C   0  0  0  0  0  0  0  0  0  0  0  0
   22.5134   -9.9432  -15.1896 C   0  0  2  0  0  0  0  0  0  0  0  0
   22.9189  -10.7479  -16.3052 N   0  0  0  0  0  0  0  0  0  0  0  0
   22.7962   -8.4928  -15.4173 C   0  0  0  0  0  0  0  0  0  0  0  0
   23.8779   -8.1648  -15.9406 O   0  0  0  0  0  0  0  0  0  0  0  0
   20.7173   -6.0678  -17.3365 C   0  0  0  0  0  0  0  0  0  0  0  0
   20.8232   -5.5655  -15.9292 C   0  0  1  0  0  0  0  0  0  0  0  0
   19.7497   -6.0335  -15.1626 O   0  0  0  0  0  0  0  0  0  0  0  0
   22.0798   -6.0813  -15.2226 C   0  0  2  0  0  0  0  0  0  0  0  0
   21.8637   -7.5119  -15.0503 N   0  0  0  0  0  0  0  0  0  0  0  0
   22.2460   -5.3851  -13.9478 C   0  0  0  0  0  0  0  0  0  0  0  0
   21.9982   -5.9716  -12.8728 O   0  0  0  0  0  0  0  0  0  0  0  0
   22.6774   -4.0763  -13.9217 O   0  0  0  0  0  0  0  0  0  0  0  0
  2  1  1  0
  3  4  1  0
  3  2  1  0
  4  5  1  0
  5  7  1  0
  5  6  1  1
  7 11  1  0
  7  8  2  0
 10  9  1  1
 10 12  1  0
 11 10  1  0
 12 18  1  0
 12 13  2  0
 15 17  1  0
 15 14  1  6
 16 15  1  0
 17 19  1  0
 17 18  1  1
 19 21  1  0
 20 19  2  0
M  END
$$$$
