MAT.pdb
     RDKit          3D

 21 20  0  0  1  0  0  0  0  0999 V2000
   20.1561  -12.0041  -22.1773 C   0  0  0  0  0  0  0  0  0  0  0  0
   19.5190  -13.5848  -21.6809 S   0  0  0  0  0  0  0  0  0  0  0  0
   19.9104  -14.1440  -20.0422 C   0  0  0  0  0  0  0  0  0  0  0  0
   20.0261  -13.0960  -18.9774 C   0  0  0  0  0  0  0  0  0  0  0  0
   20.3346  -13.6829  -17.6518 C   0  0  2  0  0  0  0  0  0  0  0  0
   19.2573  -14.5537  -17.2265 N   0  0  0  0  0  0  0  0  0  0  0  0
   20.5659  -12.6076  -16.6125 C   0  0  0  0  0  0  0  0  0  0  0  0
   19.5671  -12.1268  -16.0194 O   0  0  0  0  0  0  0  0  0  0  0  0
   23.4994  -11.2483  -14.7414 C   0  0  0  0  0  0  0  0  0  0  0  0
   22.1064  -11.1492  -15.3495 C   0  0  2  0  0  0  0  0  0  0  0  0
   21.8836  -12.1700  -16.3318 N   0  0  0  0  0  0  0  0  0  0  0  0
   21.8814   -9.7806  -15.9078 C   0  0  0  0  0  0  0  0  0  0  0  0
   22.4457   -9.4638  -16.9721 O   0  0  0  0  0  0  0  0  0  0  0  0
   18.9261   -8.4783  -17.2099 C   0  0  0  0  0  0  0  0  0  0  0  0
   19.2512   -7.5514  -16.0789 C   0  0  1  0  0  0  0  0  0  0  0  0
   18.6265   -7.9804  -14.9021 O   0  0  0  0  0  0  0  0  0  0  0  0
   20.7481   -7.5312  -15.7578 C   0  0  2  0  0  0  0  0  0  0  0  0
   21.0499   -8.8630  -15.2497 N   0  0  0  0  0  0  0  0  0  0  0  0
   21.0248   -6.4840  -14.7758 C   0  0  0  0  0  0  0  0  0  0  0  0
   21.2069   -6.7784  -13.5753 O   0  0  0  0  0  0  0  0  0  0  0  0
   21.0871   -5.1637  -15.1666 O   0  0  0  0  0  0  0  0  0  0  0  0
  2  1  1  0
  3  4  1  0
  3  2  1  0
  4  5  1  0
  5  7  1  0
  5  6  1  1
  7 11  1  0
  7  8  2  0
 10  9  1  6
 10 12  1  0
 11 10  1  0
 12 18  1  0
 12 13  2  0
 15 17  1  0
 15 14  1  6
 16 15  1  0
 17 19  1  0
 17 18  1  1
 19 21  1  0
 20 19  2  0
M  END
$$$$
