MAT.pdb
     RDKit          3D

 21 20  0  0  1  0  0  0  0  0999 V2000
   27.0831  -18.5412   -6.6965 C   0  0  0  0  0  0  0  0  0  0  0  0
   28.2290  -19.8748   -6.4522 S   0  0  0  0  0  0  0  0  0  0  0  0
   29.2544  -20.3314   -7.8275 C   0  0  0  0  0  0  0  0  0  0  0  0
   28.6807  -20.1312   -9.1972 C   0  0  0  0  0  0  0  0  0  0  0  0
   28.5429  -21.4098   -9.9339 C   0  0  2  0  0  0  0  0  0  0  0  0
   29.8388  -21.8632  -10.3975 N   0  0  0  0  0  0  0  0  0  0  0  0
   27.5977  -21.2716  -11.1075 C   0  0  0  0  0  0  0  0  0  0  0  0
   28.0350  -20.7569  -12.1679 O   0  0  0  0  0  0  0  0  0  0  0  0
   24.2805  -22.8016  -11.9414 C   0  0  0  0  0  0  0  0  0  0  0  0
   25.4368  -21.8346  -12.1604 C   0  0  2  0  0  0  0  0  0  0  0  0
   26.2585  -21.7183  -10.9909 N   0  0  0  0  0  0  0  0  0  0  0  0
   24.9218  -20.5061  -12.6135 C   0  0  0  0  0  0  0  0  0  0  0  0
   24.7656  -19.6015  -11.7718 O   0  0  0  0  0  0  0  0  0  0  0  0
   24.0916  -17.6110  -16.5288 C   0  0  0  0  0  0  0  0  0  0  0  0
   24.5995  -18.8554  -15.8676 C   0  0  1  0  0  0  0  0  0  0  0  0
   25.9864  -18.7830  -15.6924 O   0  0  0  0  0  0  0  0  0  0  0  0
   24.0236  -19.0412  -14.4612 C   0  0  2  0  0  0  0  0  0  0  0  0
   24.6175  -20.2748  -13.9628 N   0  0  0  0  0  0  0  0  0  0  0  0
   22.5653  -19.1144  -14.5343 C   0  0  0  0  0  0  0  0  0  0  0  0
   22.0011  -20.1995  -14.7899 O   0  0  0  0  0  0  0  0  0  0  0  0
   21.8012  -17.9871  -14.3218 O   0  0  0  0  0  0  0  0  0  0  0  0
  2  1  1  0
  3  4  1  0
  3  2  1  0
  4  5  1  0
  5  7  1  0
  5  6  1  6
  7 11  1  0
  7  8  2  0
 10  9  1  1
 10 12  1  0
 11 10  1  0
 12 18  1  0
 12 13  2  0
 15 17  1  0
 15 14  1  1
 16 15  1  0
 17 19  1  0
 17 18  1  6
 19 21  1  0
 20 19  2  0
M  END
$$$$
