MAT.pdb
     RDKit          3D

 21 20  0  0  1  0  0  0  0  0999 V2000
   29.5083  -20.8134   -5.1195 C   0  0  0  0  0  0  0  0  0  0  0  0
   28.3056  -19.5089   -5.0638 S   0  0  0  0  0  0  0  0  0  0  0  0
   26.6091  -19.9511   -5.3422 C   0  0  0  0  0  0  0  0  0  0  0  0
   26.0676  -19.7282   -6.7215 C   0  0  0  0  0  0  0  0  0  0  0  0
   26.9641  -20.2787   -7.7656 C   0  0  2  0  0  0  0  0  0  0  0  0
   28.2598  -19.6329   -7.7048 N   0  0  0  0  0  0  0  0  0  0  0  0
   26.3709  -20.1099   -9.1475 C   0  0  0  0  0  0  0  0  0  0  0  0
   26.1489  -18.9442   -9.5627 O   0  0  0  0  0  0  0  0  0  0  0  0
   26.0011  -22.3314  -12.1297 C   0  0  0  0  0  0  0  0  0  0  0  0
   25.6748  -21.0955  -11.3012 C   0  0  2  0  0  0  0  0  0  0  0  0
   26.0817  -21.2512   -9.9350 N   0  0  0  0  0  0  0  0  0  0  0  0
   24.2210  -20.7652  -11.4150 C   0  0  0  0  0  0  0  0  0  0  0  0
   23.4861  -20.9307  -10.4231 O   0  0  0  0  0  0  0  0  0  0  0  0
   20.8686  -18.5711  -14.3737 C   0  0  0  0  0  0  0  0  0  0  0  0
   22.2318  -19.1302  -14.1037 C   0  0  1  0  0  0  0  0  0  0  0  0
   23.1601  -18.0949  -13.9429 O   0  0  0  0  0  0  0  0  0  0  0  0
   22.2837  -19.9261  -12.7967 C   0  0  2  0  0  0  0  0  0  0  0  0
   23.6862  -20.2765  -12.6158 N   0  0  0  0  0  0  0  0  0  0  0  0
   21.4243  -21.1039  -12.9056 C   0  0  0  0  0  0  0  0  0  0  0  0
   21.8087  -22.1072  -13.5433 O   0  0  0  0  0  0  0  0  0  0  0  0
   20.1835  -21.1168  -12.3055 O   0  0  0  0  0  0  0  0  0  0  0  0
  2  1  1  0
  3  4  1  0
  3  2  1  0
  4  5  1  0
  5  7  1  0
  5  6  1  6
  7 11  1  0
  7  8  2  0
 10  9  1  6
 10 12  1  0
 11 10  1  0
 12 18  1  0
 12 13  2  0
 15 17  1  0
 15 14  1  1
 16 15  1  0
 17 19  1  0
 17 18  1  6
 19 21  1  0
 20 19  2  0
M  END
$$$$
