MAT.pdb
     RDKit          3D

 21 20  0  0  1  0  0  0  0  0999 V2000
   14.1881   -8.0797  -17.3409 C   0  0  0  0  0  0  0  0  0  0  0  0
   14.2752   -9.8374  -17.5729 S   0  0  0  0  0  0  0  0  0  0  0  0
   15.8584  -10.6112  -17.3585 C   0  0  0  0  0  0  0  0  0  0  0  0
   16.8309   -9.9251  -16.4480 C   0  0  0  0  0  0  0  0  0  0  0  0
   18.1122  -10.6630  -16.3466 C   0  0  2  0  0  0  0  0  0  0  0  0
   17.8937  -11.9672  -15.7542 N   0  0  0  0  0  0  0  0  0  0  0  0
   19.1294   -9.8935  -15.5323 C   0  0  0  0  0  0  0  0  0  0  0  0
   18.8374   -9.5880  -14.3483 O   0  0  0  0  0  0  0  0  0  0  0  0
   22.7665   -9.1427  -15.7912 C   0  0  0  0  0  0  0  0  0  0  0  0
   21.3477   -8.8281  -15.3350 C   0  0  2  0  0  0  0  0  0  0  0  0
   20.3725   -9.5376  -16.1108 N   0  0  0  0  0  0  0  0  0  0  0  0
   21.1116   -7.3518  -15.3591 C   0  0  0  0  0  0  0  0  0  0  0  0
   20.8917   -6.7946  -16.4510 O   0  0  0  0  0  0  0  0  0  0  0  0
   18.4796   -5.4546  -13.9377 C   0  0  0  0  0  0  0  0  0  0  0  0
   19.7153   -4.9186  -13.2822 C   0  0  1  0  0  0  0  0  0  0  0  0
   19.9546   -5.5848  -12.0747 O   0  0  0  0  0  0  0  0  0  0  0  0
   20.9692   -5.1535  -14.1288 C   0  0  2  0  0  0  0  0  0  0  0  0
   21.1357   -6.6002  -14.1754 N   0  0  0  0  0  0  0  0  0  0  0  0
   22.1109   -4.4806  -13.5114 C   0  0  0  0  0  0  0  0  0  0  0  0
   22.9625   -5.1389  -12.8771 O   0  0  0  0  0  0  0  0  0  0  0  0
   22.2568   -3.1146  -13.6241 O   0  0  0  0  0  0  0  0  0  0  0  0
  2  1  1  0
  3  4  1  0
  3  2  1  0
  4  5  1  0
  5  7  1  0
  5  6  1  1
  7 11  1  0
  7  8  2  0
 10  9  1  6
 10 12  1  0
 11 10  1  0
 12 18  1  0
 12 13  2  0
 15 17  1  0
 15 14  1  6
 16 15  1  0
 17 19  1  0
 17 18  1  1
 19 21  1  0
 20 19  2  0
M  END
$$$$
