MAT.pdb
     RDKit          3D

 21 20  0  0  1  0  0  0  0  0999 V2000
   27.0327  -17.2973  -14.7727 C   0  0  0  0  0  0  0  0  0  0  0  0
   26.2122  -15.7301  -14.9203 S   0  0  0  0  0  0  0  0  0  0  0  0
   24.6460  -15.7047  -15.7557 C   0  0  0  0  0  0  0  0  0  0  0  0
   23.9655  -14.3756  -15.8807 C   0  0  0  0  0  0  0  0  0  0  0  0
   22.7586  -14.4481  -16.7379 C   0  0  2  0  0  0  0  0  0  0  0  0
   23.1073  -14.9466  -18.0530 N   0  0  0  0  0  0  0  0  0  0  0  0
   22.0880  -13.0973  -16.8624 C   0  0  0  0  0  0  0  0  0  0  0  0
   22.6366  -12.2232  -17.5803 O   0  0  0  0  0  0  0  0  0  0  0  0
   18.7041  -11.7272  -16.0034 C   0  0  0  0  0  0  0  0  0  0  0  0
   20.1740  -11.6125  -16.3857 C   0  0  2  0  0  0  0  0  0  0  0  0
   20.8731  -12.8473  -16.1782 N   0  0  0  0  0  0  0  0  0  0  0  0
   20.8137  -10.4798  -15.6485 C   0  0  0  0  0  0  0  0  0  0  0  0
   21.2449  -10.6776  -14.4969 O   0  0  0  0  0  0  0  0  0  0  0  0
   23.0261   -7.9061  -17.7597 C   0  0  0  0  0  0  0  0  0  0  0  0
   22.0777   -7.2178  -16.8266 C   0  0  1  0  0  0  0  0  0  0  0  0
   20.8808   -6.9133  -17.4852 O   0  0  0  0  0  0  0  0  0  0  0  0
   21.6753   -8.1084  -15.6479 C   0  0  2  0  0  0  0  0  0  0  0  0
   20.9300   -9.2126  -16.2377 N   0  0  0  0  0  0  0  0  0  0  0  0
   20.8719   -7.3358  -14.7017 C   0  0  0  0  0  0  0  0  0  0  0  0
   19.6333   -7.4923  -14.6524 O   0  0  0  0  0  0  0  0  0  0  0  0
   21.4744   -6.4289  -13.8565 O   0  0  0  0  0  0  0  0  0  0  0  0
  2  1  1  0
  3  4  1  0
  3  2  1  0
  4  5  1  0
  5  7  1  0
  5  6  1  6
  7 11  1  0
  7  8  2  0
 10  9  1  1
 10 12  1  0
 11 10  1  0
 12 18  1  0
 12 13  2  0
 15 17  1  0
 15 14  1  6
 16 15  1  0
 17 19  1  0
 17 18  1  6
 19 21  1  0
 20 19  2  0
M  END
$$$$
