MAT.pdb
     RDKit          3D

 21 20  0  0  1  0  0  0  0  0999 V2000
   28.0934  -14.6369  -15.4087 C   0  0  0  0  0  0  0  0  0  0  0  0
   27.2782  -13.0959  -15.7435 S   0  0  0  0  0  0  0  0  0  0  0  0
   25.5606  -13.1612  -16.1871 C   0  0  0  0  0  0  0  0  0  0  0  0
   24.8537  -11.8510  -16.3571 C   0  0  0  0  0  0  0  0  0  0  0  0
   23.5081  -12.0194  -16.9552 C   0  0  2  0  0  0  0  0  0  0  0  0
   23.6217  -12.5062  -18.3152 N   0  0  0  0  0  0  0  0  0  0  0  0
   22.7300  -10.7217  -16.9380 C   0  0  0  0  0  0  0  0  0  0  0  0
   23.0366   -9.8316  -17.7711 O   0  0  0  0  0  0  0  0  0  0  0  0
   19.5761   -9.4667  -15.3741 C   0  0  0  0  0  0  0  0  0  0  0  0
   20.9753   -9.2931  -15.9505 C   0  0  2  0  0  0  0  0  0  0  0  0
   21.6867  -10.5373  -15.9977 N   0  0  0  0  0  0  0  0  0  0  0  0
   21.7255   -8.2515  -15.1837 C   0  0  0  0  0  0  0  0  0  0  0  0
   22.3328   -8.5859  -14.1490 O   0  0  0  0  0  0  0  0  0  0  0  0
   23.7081   -5.5457  -17.2404 C   0  0  0  0  0  0  0  0  0  0  0  0
   22.8974   -4.9087  -16.1537 C   0  0  1  0  0  0  0  0  0  0  0  0
   21.6519   -4.5042  -16.6481 O   0  0  0  0  0  0  0  0  0  0  0  0
   22.5835   -5.8847  -15.0166 C   0  0  2  0  0  0  0  0  0  0  0  0
   21.7495   -6.9178  -15.6164 N   0  0  0  0  0  0  0  0  0  0  0  0
   21.9009   -5.1750  -13.9358 C   0  0  0  0  0  0  0  0  0  0  0  0
   20.6716   -5.3189  -13.7657 O   0  0  0  0  0  0  0  0  0  0  0  0
   22.6082   -4.3417  -13.0961 O   0  0  0  0  0  0  0  0  0  0  0  0
  2  1  1  0
  3  4  1  0
  3  2  1  0
  4  5  1  0
  5  7  1  0
  5  6  1  6
  7 11  1  0
  7  8  2  0
 10  9  1  1
 10 12  1  0
 11 10  1  0
 12 18  1  0
 12 13  2  0
 15 17  1  0
 15 14  1  6
 16 15  1  0
 17 19  1  0
 17 18  1  6
 19 21  1  0
 20 19  2  0
M  END
$$$$
