FQR.pdb
     RDKit          3D

 32 32  0  0  1  0  0  0  0  0999 V2000
   25.9726  -15.9940  -18.9393 N   0  0  0  0  0  0  0  0  0  0  0  0
   26.6239  -16.5674  -17.7671 C   0  0  1  0  0  0  0  0  0  0  0  0
   26.1037  -15.7422  -16.5956 C   0  0  0  0  0  0  0  0  0  0  0  0
   26.7040  -14.4031  -16.6378 C   0  0  0  0  0  0  0  0  0  0  0  0
   25.8508  -13.3047  -16.7717 C   0  0  0  0  0  0  0  0  0  0  0  0
   26.3262  -12.0163  -16.8318 C   0  0  0  0  0  0  0  0  0  0  0  0
   27.6870  -11.8222  -16.7571 C   0  0  0  0  0  0  0  0  0  0  0  0
   28.5876  -12.8814  -16.6218 C   0  0  0  0  0  0  0  0  0  0  0  0
   28.0490  -14.1296  -16.5680 C   0  0  0  0  0  0  0  0  0  0  0  0
   26.1134  -17.9722  -17.6354 C   0  0  0  0  0  0  0  0  0  0  0  0
   24.9360  -18.2117  -17.9159 O   0  0  0  0  0  0  0  0  0  0  0  0
   30.0650  -22.9349  -16.7726 N   0  0  0  0  0  0  0  0  0  0  0  0
   28.7885  -23.5290  -16.4640 C   0  0  0  0  0  0  0  0  0  0  0  0
   28.7670  -24.7491  -16.1937 O   0  0  0  0  0  0  0  0  0  0  0  0
   27.6075  -22.6342  -16.4957 C   0  0  0  0  0  0  0  0  0  0  0  0
   27.9095  -21.2028  -16.7856 C   0  0  0  0  0  0  0  0  0  0  0  0
   26.6809  -20.3348  -16.9472 C   0  0  2  0  0  0  0  0  0  0  0  0
   26.9997  -18.9565  -17.2022 N   0  0  0  0  0  0  0  0  0  0  0  0
   25.8061  -20.5543  -15.7769 C   0  0  0  0  0  0  0  0  0  0  0  0
   26.0025  -19.8517  -14.7216 O   0  0  0  0  0  0  0  0  0  0  0  0
   24.3587  -21.2883   -9.1829 N   0  0  0  0  0  0  0  0  0  0  0  0
   22.9580  -20.9976   -9.2732 C   0  0  0  0  0  0  0  0  0  0  0  0
   22.2234  -20.9807   -8.2377 N   0  0  0  0  0  0  0  0  0  0  0  0
   22.3691  -20.7170  -10.5276 N   0  0  0  0  0  0  0  0  0  0  0  0
   23.0868  -20.7783  -11.7451 C   0  0  0  0  0  0  0  0  0  0  0  0
   22.3187  -20.4542  -12.9886 C   0  0  0  0  0  0  0  0  0  0  0  0
   23.2652  -20.3803  -14.1481 C   0  0  0  0  0  0  0  0  0  0  0  0
   23.9686  -21.6901  -14.4677 C   0  0  2  0  0  0  0  0  0  0  0  0
   24.7466  -21.4779  -15.6958 N   0  0  0  0  0  0  0  0  0  0  0  0
   22.9570  -22.7070  -14.7651 C   0  0  0  0  0  0  0  0  0  0  0  0
   22.7143  -23.1114  -16.0558 O   0  0  0  0  0  0  0  0  0  0  0  0
   22.2927  -23.2276  -13.8412 O   0  0  0  0  0  0  0  0  0  0  0  0
  2  1  1  6
  3  2  1  0
  3  4  1  0
  4  5  2  0
  5  6  1  0
  7  6  2  0
  8  7  1  0
  9  4  1  0
  9  8  2  0
 10 11  2  0
 10  2  1  0
 12 13  1  0
 13 14  2  0
 15 13  1  0
 15 16  1  0
 17 16  1  1
 17 18  1  0
 18 10  1  0
 19 29  1  0
 19 17  1  0
 20 19  2  0
 22 21  1  0
 22 23  2  0
 24 22  1  0
 25 24  1  0
 26 27  1  0
 26 25  1  0
 28 27  1  6
 28 29  1  0
 28 30  1  0
 30 31  1  0
 32 30  2  0
M  END
$$$$
