FQR.pdb
     RDKit          3D

 32 32  0  0  1  0  0  0  0  0999 V2000
   28.0844  -20.9954   -9.8533 N   0  0  0  0  0  0  0  0  0  0  0  0
   26.6700  -20.7766   -9.5730 C   0  0  1  0  0  0  0  0  0  0  0  0
   26.6423  -19.5502   -8.6678 C   0  0  0  0  0  0  0  0  0  0  0  0
   27.4379  -19.8156   -7.4629 C   0  0  0  0  0  0  0  0  0  0  0  0
   26.8818  -20.6329   -6.4754 C   0  0  0  0  0  0  0  0  0  0  0  0
   27.5501  -20.9250   -5.3103 C   0  0  0  0  0  0  0  0  0  0  0  0
   28.8037  -20.3860   -5.1282 C   0  0  0  0  0  0  0  0  0  0  0  0
   29.4100  -19.5634   -6.0806 C   0  0  0  0  0  0  0  0  0  0  0  0
   28.6930  -19.3162   -7.2101 C   0  0  0  0  0  0  0  0  0  0  0  0
   26.0211  -20.4290  -10.8806 C   0  0  0  0  0  0  0  0  0  0  0  0
   26.1309  -19.2807  -11.3185 O   0  0  0  0  0  0  0  0  0  0  0  0
   26.9928  -23.6658  -14.9280 N   0  0  0  0  0  0  0  0  0  0  0  0
   27.4699  -22.3219  -14.7184 C   0  0  0  0  0  0  0  0  0  0  0  0
   28.6876  -22.1044  -14.8974 O   0  0  0  0  0  0  0  0  0  0  0  0
   26.4673  -21.3114  -14.3059 C   0  0  0  0  0  0  0  0  0  0  0  0
   25.1230  -21.8604  -13.9658 C   0  0  0  0  0  0  0  0  0  0  0  0
   24.5058  -21.2531  -12.7251 C   0  0  2  0  0  0  0  0  0  0  0  0
   25.3195  -21.4278  -11.5530 N   0  0  0  0  0  0  0  0  0  0  0  0
   23.1280  -21.7711  -12.5966 C   0  0  0  0  0  0  0  0  0  0  0  0
   22.8328  -22.4867  -11.5736 O   0  0  0  0  0  0  0  0  0  0  0  0
   16.7267  -22.5353  -10.6872 N   0  0  0  0  0  0  0  0  0  0  0  0
   16.9969  -23.3940   -9.5718 C   0  0  0  0  0  0  0  0  0  0  0  0
   16.0620  -24.0230   -8.9866 N   0  0  0  0  0  0  0  0  0  0  0  0
   18.3215  -23.5595   -9.1058 N   0  0  0  0  0  0  0  0  0  0  0  0
   19.4345  -22.9328   -9.7137 C   0  0  0  0  0  0  0  0  0  0  0  0
   19.3392  -22.6889  -11.1877 C   0  0  0  0  0  0  0  0  0  0  0  0
   20.5978  -22.0271  -11.6608 C   0  0  0  0  0  0  0  0  0  0  0  0
   20.6673  -21.8146  -13.1649 C   0  0  2  0  0  0  0  0  0  0  0  0
   22.0730  -21.5536  -13.5030 N   0  0  0  0  0  0  0  0  0  0  0  0
   19.9080  -20.6090  -13.5052 C   0  0  0  0  0  0  0  0  0  0  0  0
   18.6658  -20.6923  -14.0866 O   0  0  0  0  0  0  0  0  0  0  0  0
   20.3823  -19.4752  -13.2695 O   0  0  0  0  0  0  0  0  0  0  0  0
  2  1  1  6
  3  2  1  0
  3  4  1  0
  4  5  2  0
  5  6  1  0
  7  6  2  0
  8  7  1  0
  9  4  1  0
  9  8  2  0
 10 11  2  0
 10  2  1  0
 12 13  1  0
 13 14  2  0
 15 13  1  0
 15 16  1  0
 17 16  1  6
 17 18  1  0
 18 10  1  0
 19 29  1  0
 19 17  1  0
 20 19  2  0
 22 21  1  0
 22 23  2  0
 24 22  1  0
 25 24  1  0
 26 27  1  0
 26 25  1  0
 28 27  1  1
 28 29  1  0
 28 30  1  0
 30 31  1  0
 32 30  2  0
M  END
$$$$
