FQR.pdb
     RDKit          3D

 32 32  0  0  1  0  0  0  0  0999 V2000
   21.2257  -29.0684  -18.2435 N   0  0  0  0  0  0  0  0  0  0  0  0
   21.2416  -27.6171  -18.1000 C   0  0  1  0  0  0  0  0  0  0  0  0
   20.1363  -27.1265  -19.0284 C   0  0  0  0  0  0  0  0  0  0  0  0
   20.5750  -27.2618  -20.4228 C   0  0  0  0  0  0  0  0  0  0  0  0
   21.4313  -26.2860  -20.9396 C   0  0  0  0  0  0  0  0  0  0  0  0
   21.8825  -26.3265  -22.2374 C   0  0  0  0  0  0  0  0  0  0  0  0
   21.4666  -27.3669  -23.0373 C   0  0  0  0  0  0  0  0  0  0  0  0
   20.6124  -28.3709  -22.5751 C   0  0  0  0  0  0  0  0  0  0  0  0
   20.2051  -28.2695  -21.2809 C   0  0  0  0  0  0  0  0  0  0  0  0
   20.8509  -27.3207  -16.6819 C   0  0  0  0  0  0  0  0  0  0  0  0
   19.9513  -27.9819  -16.1565 O   0  0  0  0  0  0  0  0  0  0  0  0
   24.8294  -24.3183  -15.0849 N   0  0  0  0  0  0  0  0  0  0  0  0
   23.8182  -23.3824  -15.5081 C   0  0  0  0  0  0  0  0  0  0  0  0
   24.1711  -22.4476  -16.2589 O   0  0  0  0  0  0  0  0  0  0  0  0
   22.4411  -23.6134  -15.0112 C   0  0  0  0  0  0  0  0  0  0  0  0
   22.2689  -24.8395  -14.1800 C   0  0  0  0  0  0  0  0  0  0  0  0
   21.2195  -25.7957  -14.7030 C   0  0  2  0  0  0  0  0  0  0  0  0
   21.5297  -26.3053  -16.0109 N   0  0  0  0  0  0  0  0  0  0  0  0
   19.9026  -25.1335  -14.6005 C   0  0  0  0  0  0  0  0  0  0  0  0
   19.3273  -24.7383  -15.6769 O   0  0  0  0  0  0  0  0  0  0  0  0
   12.7513  -25.4564  -15.2163 N   0  0  0  0  0  0  0  0  0  0  0  0
   12.7012  -24.0268  -15.1258 C   0  0  0  0  0  0  0  0  0  0  0  0
   11.7059  -23.3758  -15.5706 N   0  0  0  0  0  0  0  0  0  0  0  0
   13.7665  -23.3140  -14.5291 N   0  0  0  0  0  0  0  0  0  0  0  0
   14.9079  -23.9490  -13.9859 C   0  0  0  0  0  0  0  0  0  0  0  0
   15.8487  -24.5798  -14.9648 C   0  0  0  0  0  0  0  0  0  0  0  0
   16.9531  -25.2636  -14.2174 C   0  0  0  0  0  0  0  0  0  0  0  0
   17.8309  -24.3279  -13.4010 C   0  0  2  0  0  0  0  0  0  0  0  0
   19.1898  -24.8860  -13.4119 N   0  0  0  0  0  0  0  0  0  0  0  0
   17.3674  -24.3411  -12.0114 C   0  0  0  0  0  0  0  0  0  0  0  0
   16.4171  -23.4516  -11.5711 O   0  0  0  0  0  0  0  0  0  0  0  0
   17.8330  -25.1695  -11.1972 O   0  0  0  0  0  0  0  0  0  0  0  0
  2  1  1  1
  3  2  1  0
  3  4  1  0
  4  5  2  0
  5  6  1  0
  7  6  2  0
  8  7  1  0
  9  4  1  0
  9  8  2  0
 10 11  2  0
 10  2  1  0
 12 13  1  0
 13 14  2  0
 15 13  1  0
 15 16  1  0
 17 16  1  6
 17 18  1  0
 18 10  1  0
 19 29  1  0
 19 17  1  0
 20 19  2  0
 22 21  1  0
 22 23  2  0
 24 22  1  0
 25 24  1  0
 26 27  1  0
 26 25  1  0
 28 27  1  6
 28 29  1  0
 28 30  1  0
 30 31  1  0
 32 30  2  0
M  END
$$$$
