FQR.pdb
     RDKit          3D

 32 32  0  0  1  0  0  0  0  0999 V2000
   27.7957  -20.6027   -8.6392 N   0  0  0  0  0  0  0  0  0  0  0  0
   26.3624  -20.7451   -8.4104 C   0  0  1  0  0  0  0  0  0  0  0  0
   26.0390  -19.7101   -7.3388 C   0  0  0  0  0  0  0  0  0  0  0  0
   26.9464  -19.8890   -6.1987 C   0  0  0  0  0  0  0  0  0  0  0  0
   28.0706  -19.0632   -6.1181 C   0  0  0  0  0  0  0  0  0  0  0  0
   28.9796  -19.1686   -5.0923 C   0  0  0  0  0  0  0  0  0  0  0  0
   28.7594  -20.1231   -4.1250 C   0  0  0  0  0  0  0  0  0  0  0  0
   27.6531  -20.9755   -4.1532 C   0  0  0  0  0  0  0  0  0  0  0  0
   26.7937  -20.8161   -5.1958 C   0  0  0  0  0  0  0  0  0  0  0  0
   25.6815  -20.3496   -9.6877 C   0  0  0  0  0  0  0  0  0  0  0  0
   25.4625  -19.1552   -9.9063 O   0  0  0  0  0  0  0  0  0  0  0  0
   27.0504  -22.1266  -15.2450 N   0  0  0  0  0  0  0  0  0  0  0  0
   27.6131  -21.1923  -14.3025 C   0  0  0  0  0  0  0  0  0  0  0  0
   28.7657  -20.7646  -14.5280 O   0  0  0  0  0  0  0  0  0  0  0  0
   26.7692  -20.8202  -13.1424 C   0  0  0  0  0  0  0  0  0  0  0  0
   25.4888  -21.5759  -13.0270 C   0  0  0  0  0  0  0  0  0  0  0  0
   24.6445  -21.1785  -11.8360 C   0  0  2  0  0  0  0  0  0  0  0  0
   25.3261  -21.3567  -10.5830 N   0  0  0  0  0  0  0  0  0  0  0  0
   23.3500  -21.8841  -11.9345 C   0  0  0  0  0  0  0  0  0  0  0  0
   23.1787  -22.9538  -11.2473 O   0  0  0  0  0  0  0  0  0  0  0  0
   19.6279  -24.3977   -8.6299 N   0  0  0  0  0  0  0  0  0  0  0  0
   18.2758  -23.9717   -8.4177 C   0  0  0  0  0  0  0  0  0  0  0  0
   17.3937  -24.7778   -7.9885 N   0  0  0  0  0  0  0  0  0  0  0  0
   17.9021  -22.6336   -8.6801 N   0  0  0  0  0  0  0  0  0  0  0  0
   18.7027  -21.7455   -9.4360 C   0  0  0  0  0  0  0  0  0  0  0  0
   19.0578  -22.1844  -10.8226 C   0  0  0  0  0  0  0  0  0  0  0  0
   20.4174  -21.6606  -11.1730 C   0  0  0  0  0  0  0  0  0  0  0  0
   20.9081  -22.0644  -12.5546 C   0  0  2  0  0  0  0  0  0  0  0  0
   22.2513  -21.4937  -12.7234 N   0  0  0  0  0  0  0  0  0  0  0  0
   20.0432  -21.4438  -13.5609 C   0  0  0  0  0  0  0  0  0  0  0  0
   18.9668  -22.1178  -14.0856 O   0  0  0  0  0  0  0  0  0  0  0  0
   20.2726  -20.2806  -13.9615 O   0  0  0  0  0  0  0  0  0  0  0  0
  2  1  1  6
  3  2  1  0
  3  4  1  0
  4  5  2  0
  5  6  1  0
  7  6  2  0
  8  7  1  0
  9  4  1  0
  9  8  2  0
 10 11  2  0
 10  2  1  0
 12 13  1  0
 13 14  2  0
 15 13  1  0
 15 16  1  0
 17 16  1  6
 17 18  1  0
 18 10  1  0
 19 29  1  0
 19 17  1  0
 20 19  2  0
 22 21  1  0
 22 23  2  0
 24 22  1  0
 25 24  1  0
 26 27  1  0
 26 25  1  0
 28 27  1  1
 28 29  1  0
 28 30  1  0
 30 31  1  0
 32 30  2  0
M  END
$$$$
