FQR.pdb
     RDKit          3D

 32 32  0  0  1  0  0  0  0  0999 V2000
   28.8553  -21.7306  -10.2710 N   0  0  0  0  0  0  0  0  0  0  0  0
   27.5381  -21.1085  -10.3418 C   0  0  1  0  0  0  0  0  0  0  0  0
   27.7454  -19.7039   -9.7865 C   0  0  0  0  0  0  0  0  0  0  0  0
   27.9786  -19.7815   -8.3391 C   0  0  0  0  0  0  0  0  0  0  0  0
   26.8760  -19.9889   -7.5064 C   0  0  0  0  0  0  0  0  0  0  0  0
   26.9995  -20.0629   -6.1393 C   0  0  0  0  0  0  0  0  0  0  0  0
   28.2553  -19.9252   -5.5924 C   0  0  0  0  0  0  0  0  0  0  0  0
   29.3936  -19.7172   -6.3750 C   0  0  0  0  0  0  0  0  0  0  0  0
   29.1991  -19.6551   -7.7202 C   0  0  0  0  0  0  0  0  0  0  0  0
   27.1878  -21.0077  -11.7974 C   0  0  0  0  0  0  0  0  0  0  0  0
   28.0800  -20.7636  -12.6139 O   0  0  0  0  0  0  0  0  0  0  0  0
   26.9795  -23.0999  -16.6618 N   0  0  0  0  0  0  0  0  0  0  0  0
   26.5410  -23.8568  -15.5162 C   0  0  0  0  0  0  0  0  0  0  0  0
   26.6360  -25.1018  -15.5728 O   0  0  0  0  0  0  0  0  0  0  0  0
   26.0125  -23.0860  -14.3659 C   0  0  0  0  0  0  0  0  0  0  0  0
   25.8968  -21.6165  -14.5924 C   0  0  0  0  0  0  0  0  0  0  0  0
   25.2735  -20.8628  -13.4380 C   0  0  2  0  0  0  0  0  0  0  0  0
   25.8586  -21.2001  -12.1691 N   0  0  0  0  0  0  0  0  0  0  0  0
   23.8091  -21.0480  -13.5056 C   0  0  0  0  0  0  0  0  0  0  0  0
   23.2662  -21.9362  -12.7558 O   0  0  0  0  0  0  0  0  0  0  0  0
   19.4317  -22.3834   -8.6974 N   0  0  0  0  0  0  0  0  0  0  0  0
   20.6789  -21.7203   -8.4535 C   0  0  0  0  0  0  0  0  0  0  0  0
   21.3736  -21.9872   -7.4247 N   0  0  0  0  0  0  0  0  0  0  0  0
   21.1616  -20.7545   -9.3663 N   0  0  0  0  0  0  0  0  0  0  0  0
   20.4407  -20.3551  -10.5161 C   0  0  0  0  0  0  0  0  0  0  0  0
   20.8445  -20.9909  -11.8100 C   0  0  0  0  0  0  0  0  0  0  0  0
   21.0770  -19.9215  -12.8338 C   0  0  0  0  0  0  0  0  0  0  0  0
   21.4600  -20.4434  -14.2098 C   0  0  2  0  0  0  0  0  0  0  0  0
   22.9200  -20.3298  -14.3275 N   0  0  0  0  0  0  0  0  0  0  0  0
   20.8731  -19.5662  -15.2257 C   0  0  0  0  0  0  0  0  0  0  0  0
   19.5961  -19.7717  -15.6897 O   0  0  0  0  0  0  0  0  0  0  0  0
   21.5305  -18.6081  -15.6903 O   0  0  0  0  0  0  0  0  0  0  0  0
  2  1  1  6
  3  2  1  0
  3  4  1  0
  4  5  2  0
  5  6  1  0
  7  6  2  0
  8  7  1  0
  9  4  1  0
  9  8  2  0
 10 11  2  0
 10  2  1  0
 12 13  1  0
 13 14  2  0
 15 13  1  0
 15 16  1  0
 17 16  1  6
 17 18  1  0
 18 10  1  0
 19 29  1  0
 19 17  1  0
 20 19  2  0
 22 21  1  0
 22 23  2  0
 24 22  1  0
 25 24  1  0
 26 27  1  0
 26 25  1  0
 28 27  1  1
 28 29  1  0
 28 30  1  0
 30 31  1  0
 32 30  2  0
M  END
$$$$
