FQR.pdb
     RDKit          3D

 32 32  0  0  1  0  0  0  0  0999 V2000
   28.8193  -20.5008   -9.2100 N   0  0  0  0  0  0  0  0  0  0  0  0
   27.4223  -20.9109   -9.2944 C   0  0  1  0  0  0  0  0  0  0  0  0
   26.7282  -20.1455   -8.1734 C   0  0  0  0  0  0  0  0  0  0  0  0
   27.5667  -20.1781   -6.9689 C   0  0  0  0  0  0  0  0  0  0  0  0
   27.3718  -19.1847   -6.0058 C   0  0  0  0  0  0  0  0  0  0  0  0
   28.1193  -19.1308   -4.8535 C   0  0  0  0  0  0  0  0  0  0  0  0
   29.0851  -20.0926   -4.6605 C   0  0  0  0  0  0  0  0  0  0  0  0
   29.3239  -21.1098   -5.5876 C   0  0  0  0  0  0  0  0  0  0  0  0
   28.5476  -21.1037   -6.7049 C   0  0  0  0  0  0  0  0  0  0  0  0
   26.9069  -20.4134  -10.6129 C   0  0  0  0  0  0  0  0  0  0  0  0
   26.9599  -19.2059  -10.8610 O   0  0  0  0  0  0  0  0  0  0  0  0
   28.5461  -22.2826  -15.9800 N   0  0  0  0  0  0  0  0  0  0  0  0
   27.4644  -21.4066  -16.3543 C   0  0  0  0  0  0  0  0  0  0  0  0
   27.3922  -21.0531  -17.5510 O   0  0  0  0  0  0  0  0  0  0  0  0
   26.5285  -21.0001  -15.2794 C   0  0  0  0  0  0  0  0  0  0  0  0
   26.8889  -21.4822  -13.9150 C   0  0  0  0  0  0  0  0  0  0  0  0
   25.9094  -21.0707  -12.8378 C   0  0  2  0  0  0  0  0  0  0  0  0
   26.3896  -21.3450  -11.5110 N   0  0  0  0  0  0  0  0  0  0  0  0
   24.5992  -21.6771  -13.1522 C   0  0  0  0  0  0  0  0  0  0  0  0
   24.1728  -22.6368  -12.4153 O   0  0  0  0  0  0  0  0  0  0  0  0
   18.0952  -19.4743  -11.5397 N   0  0  0  0  0  0  0  0  0  0  0  0
   18.2528  -20.8354  -11.1188 C   0  0  0  0  0  0  0  0  0  0  0  0
   17.2476  -21.5970  -10.9711 N   0  0  0  0  0  0  0  0  0  0  0  0
   19.5423  -21.3568  -10.8651 N   0  0  0  0  0  0  0  0  0  0  0  0
   20.7240  -20.5942  -11.0176 C   0  0  0  0  0  0  0  0  0  0  0  0
   21.8053  -21.2012  -11.8564 C   0  0  0  0  0  0  0  0  0  0  0  0
   21.5533  -20.8757  -13.2973 C   0  0  0  0  0  0  0  0  0  0  0  0
   22.3396  -21.7296  -14.2798 C   0  0  2  0  0  0  0  0  0  0  0  0
   23.7425  -21.3002  -14.2039 N   0  0  0  0  0  0  0  0  0  0  0  0
   21.8695  -21.4390  -15.6365 C   0  0  0  0  0  0  0  0  0  0  0  0
   22.6154  -20.6704  -16.4973 O   0  0  0  0  0  0  0  0  0  0  0  0
   20.7728  -21.8901  -16.0361 O   0  0  0  0  0  0  0  0  0  0  0  0
  2  1  1  6
  3  2  1  0
  3  4  1  0
  4  5  2  0
  5  6  1  0
  7  6  2  0
  8  7  1  0
  9  4  1  0
  9  8  2  0
 10 11  2  0
 10  2  1  0
 12 13  1  0
 13 14  2  0
 15 13  1  0
 15 16  1  0
 17 16  1  6
 17 18  1  0
 18 10  1  0
 19 29  1  0
 19 17  1  0
 20 19  2  0
 22 21  1  0
 22 23  2  0
 24 22  1  0
 25 24  1  0
 26 27  1  0
 26 25  1  0
 28 27  1  1
 28 29  1  0
 28 30  1  0
 30 31  1  0
 32 30  2  0
M  END
$$$$
