FQR.pdb
     RDKit          3D

 32 32  0  0  1  0  0  0  0  0999 V2000
   22.8482  -30.7907  -15.6983 N   0  0  0  0  0  0  0  0  0  0  0  0
   22.2225  -29.8928  -14.7342 C   0  0  1  0  0  0  0  0  0  0  0  0
   21.0700  -29.2506  -15.4981 C   0  0  0  0  0  0  0  0  0  0  0  0
   21.6079  -28.3510  -16.5261 C   0  0  0  0  0  0  0  0  0  0  0  0
   21.8365  -27.0174  -16.1774 C   0  0  0  0  0  0  0  0  0  0  0  0
   22.3270  -26.1028  -17.0788 C   0  0  0  0  0  0  0  0  0  0  0  0
   22.5940  -26.5320  -18.3592 C   0  0  0  0  0  0  0  0  0  0  0  0
   22.3861  -27.8526  -18.7643 C   0  0  0  0  0  0  0  0  0  0  0  0
   21.8999  -28.7046  -17.8215 C   0  0  0  0  0  0  0  0  0  0  0  0
   21.6599  -30.7569  -13.6440 C   0  0  0  0  0  0  0  0  0  0  0  0
   21.9841  -31.9462  -13.5933 O   0  0  0  0  0  0  0  0  0  0  0  0
   22.7531  -32.3985   -8.6128 N   0  0  0  0  0  0  0  0  0  0  0  0
   23.1272  -31.1304   -9.1870 C   0  0  0  0  0  0  0  0  0  0  0  0
   24.0837  -30.5175   -8.6657 O   0  0  0  0  0  0  0  0  0  0  0  0
   22.3387  -30.6632  -10.3516 C   0  0  0  0  0  0  0  0  0  0  0  0
   21.1559  -31.5060  -10.6902 C   0  0  0  0  0  0  0  0  0  0  0  0
   20.1630  -30.8319  -11.6115 C   0  0  2  0  0  0  0  0  0  0  0  0
   20.7908  -30.1731  -12.7242 N   0  0  0  0  0  0  0  0  0  0  0  0
   19.2959  -29.9592  -10.7931 C   0  0  0  0  0  0  0  0  0  0  0  0
   19.5345  -28.6988  -10.7738 O   0  0  0  0  0  0  0  0  0  0  0  0
   18.2599  -23.0182   -8.6321 N   0  0  0  0  0  0  0  0  0  0  0  0
   18.3820  -24.0873   -7.6851 C   0  0  0  0  0  0  0  0  0  0  0  0
   18.9799  -23.9177   -6.5779 N   0  0  0  0  0  0  0  0  0  0  0  0
   17.8281  -25.3566   -7.9698 N   0  0  0  0  0  0  0  0  0  0  0  0
   17.2718  -25.6884   -9.2274 C   0  0  0  0  0  0  0  0  0  0  0  0
   16.6003  -27.0227   -9.3279 C   0  0  0  0  0  0  0  0  0  0  0  0
   17.6366  -28.0805   -9.5584 C   0  0  0  0  0  0  0  0  0  0  0  0
   17.0781  -29.4897   -9.6792 C   0  0  2  0  0  0  0  0  0  0  0  0
   18.2016  -30.3760  -10.0117 N   0  0  0  0  0  0  0  0  0  0  0  0
   16.1445  -29.5305  -10.8073 C   0  0  0  0  0  0  0  0  0  0  0  0
   15.0131  -30.3094  -10.7653 O   0  0  0  0  0  0  0  0  0  0  0  0
   16.3640  -28.8511  -11.8350 O   0  0  0  0  0  0  0  0  0  0  0  0
  2  1  1  6
  3  2  1  0
  3  4  1  0
  4  5  2  0
  5  6  1  0
  7  6  2  0
  8  7  1  0
  9  4  1  0
  9  8  2  0
 10 11  2  0
 10  2  1  0
 12 13  1  0
 13 14  2  0
 15 13  1  0
 15 16  1  0
 17 16  1  1
 17 18  1  0
 18 10  1  0
 19 29  1  0
 19 17  1  0
 20 19  2  0
 22 21  1  0
 22 23  2  0
 24 22  1  0
 25 24  1  0
 26 27  1  0
 26 25  1  0
 28 27  1  6
 28 29  1  0
 28 30  1  0
 30 31  1  0
 32 30  2  0
M  END
$$$$
