FQR.pdb
     RDKit          3D

 32 32  0  0  1  0  0  0  0  0999 V2000
   28.6474  -19.4466  -16.0862 N   0  0  0  0  0  0  0  0  0  0  0  0
   27.7645  -19.0651  -14.9899 C   0  0  1  0  0  0  0  0  0  0  0  0
   26.7757  -18.0872  -15.6143 C   0  0  0  0  0  0  0  0  0  0  0  0
   27.4275  -16.7845  -15.7966 C   0  0  0  0  0  0  0  0  0  0  0  0
   27.6092  -15.9776  -14.6704 C   0  0  0  0  0  0  0  0  0  0  0  0
   28.1991  -14.7385  -14.7498 C   0  0  0  0  0  0  0  0  0  0  0  0
   28.6162  -14.2958  -15.9848 C   0  0  0  0  0  0  0  0  0  0  0  0
   28.4617  -15.0589  -17.1445 C   0  0  0  0  0  0  0  0  0  0  0  0
   27.8709  -16.2752  -16.9936 C   0  0  0  0  0  0  0  0  0  0  0  0
   27.0265  -20.3058  -14.5803 C   0  0  0  0  0  0  0  0  0  0  0  0
   26.8349  -21.1934  -15.4156 O   0  0  0  0  0  0  0  0  0  0  0  0
   26.2258  -21.5916   -8.4492 N   0  0  0  0  0  0  0  0  0  0  0  0
   26.0044  -20.2933   -9.0351 C   0  0  0  0  0  0  0  0  0  0  0  0
   25.9298  -19.3137   -8.2624 O   0  0  0  0  0  0  0  0  0  0  0  0
   25.8836  -20.2358  -10.5111 C   0  0  0  0  0  0  0  0  0  0  0  0
   25.9127  -21.5596  -11.1973 C   0  0  0  0  0  0  0  0  0  0  0  0
   25.8052  -21.4744  -12.7041 C   0  0  2  0  0  0  0  0  0  0  0  0
   26.5888  -20.4057  -13.2610 N   0  0  0  0  0  0  0  0  0  0  0  0
   24.3720  -21.4329  -13.0609 C   0  0  0  0  0  0  0  0  0  0  0  0
   23.7980  -20.2907  -13.1696 O   0  0  0  0  0  0  0  0  0  0  0  0
   19.0145  -28.1032  -14.7343 N   0  0  0  0  0  0  0  0  0  0  0  0
   20.3650  -27.6385  -14.8550 C   0  0  0  0  0  0  0  0  0  0  0  0
   21.3058  -28.4309  -15.1699 N   0  0  0  0  0  0  0  0  0  0  0  0
   20.6718  -26.2769  -14.6288 N   0  0  0  0  0  0  0  0  0  0  0  0
   19.6935  -25.3153  -14.2833 C   0  0  0  0  0  0  0  0  0  0  0  0
   20.1427  -23.8874  -14.2568 C   0  0  0  0  0  0  0  0  0  0  0  0
   21.5754  -23.8290  -13.8212 C   0  0  0  0  0  0  0  0  0  0  0  0
   22.1337  -22.4206  -13.6891 C   0  0  2  0  0  0  0  0  0  0  0  0
   23.5460  -22.5466  -13.3045 N   0  0  0  0  0  0  0  0  0  0  0  0
   21.4433  -21.7422  -12.5896 C   0  0  0  0  0  0  0  0  0  0  0  0
   20.3096  -20.9988  -12.8138 O   0  0  0  0  0  0  0  0  0  0  0  0
   21.8784  -21.8299  -11.4195 O   0  0  0  0  0  0  0  0  0  0  0  0
  2  1  1  6
  3  2  1  0
  3  4  1  0
  4  5  2  0
  5  6  1  0
  7  6  2  0
  8  7  1  0
  9  4  1  0
  9  8  2  0
 10 11  2  0
 10  2  1  0
 12 13  1  0
 13 14  2  0
 15 13  1  0
 15 16  1  0
 17 16  1  1
 17 18  1  0
 18 10  1  0
 19 29  1  0
 19 17  1  0
 20 19  2  0
 22 21  1  0
 22 23  2  0
 24 22  1  0
 25 24  1  0
 26 27  1  0
 26 25  1  0
 28 27  1  1
 28 29  1  0
 28 30  1  0
 30 31  1  0
 32 30  2  0
M  END
$$$$
