FQR.pdb
     RDKit          3D

 32 32  0  0  1  0  0  0  0  0999 V2000
   26.9432  -21.6297   -9.0048 N   0  0  0  0  0  0  0  0  0  0  0  0
   26.4974  -20.2457   -9.1181 C   0  0  1  0  0  0  0  0  0  0  0  0
   27.7191  -19.4156   -8.7404 C   0  0  0  0  0  0  0  0  0  0  0  0
   27.8645  -19.3990   -7.2796 C   0  0  0  0  0  0  0  0  0  0  0  0
   26.7024  -19.3998   -6.5038 C   0  0  0  0  0  0  0  0  0  0  0  0
   26.7439  -19.3731   -5.1301 C   0  0  0  0  0  0  0  0  0  0  0  0
   27.9767  -19.3437   -4.5181 C   0  0  0  0  0  0  0  0  0  0  0  0
   29.1715  -19.3424   -5.2419 C   0  0  0  0  0  0  0  0  0  0  0  0
   29.0571  -19.3705   -6.5973 C   0  0  0  0  0  0  0  0  0  0  0  0
   26.1816  -20.0127  -10.5664 C   0  0  0  0  0  0  0  0  0  0  0  0
   27.0556  -19.5502  -11.3043 O   0  0  0  0  0  0  0  0  0  0  0  0
   26.6481  -23.7654  -14.2876 N   0  0  0  0  0  0  0  0  0  0  0  0
   25.7345  -23.0198  -15.1165 C   0  0  0  0  0  0  0  0  0  0  0  0
   25.5874  -23.3947  -16.2998 O   0  0  0  0  0  0  0  0  0  0  0  0
   25.0471  -21.8673  -14.4876 C   0  0  0  0  0  0  0  0  0  0  0  0
   25.3375  -21.6756  -13.0375 C   0  0  0  0  0  0  0  0  0  0  0  0
   24.5249  -20.5777  -12.3866 C   0  0  2  0  0  0  0  0  0  0  0  0
   24.9046  -20.3354  -11.0216 N   0  0  0  0  0  0  0  0  0  0  0  0
   23.0936  -20.8907  -12.5776 C   0  0  0  0  0  0  0  0  0  0  0  0
   22.4859  -21.5676  -11.6729 O   0  0  0  0  0  0  0  0  0  0  0  0
   22.0875  -25.0748  -15.7382 N   0  0  0  0  0  0  0  0  0  0  0  0
   22.1808  -25.7599  -14.4826 C   0  0  0  0  0  0  0  0  0  0  0  0
   23.0500  -26.6658  -14.2926 N   0  0  0  0  0  0  0  0  0  0  0  0
   21.3022  -25.4300  -13.4252 N   0  0  0  0  0  0  0  0  0  0  0  0
   20.3084  -24.4293  -13.5348 C   0  0  0  0  0  0  0  0  0  0  0  0
   20.7352  -23.1301  -14.1441 C   0  0  0  0  0  0  0  0  0  0  0  0
   20.5022  -22.0237  -13.1606 C   0  0  0  0  0  0  0  0  0  0  0  0
   20.8381  -20.6367  -13.6859 C   0  0  2  0  0  0  0  0  0  0  0  0
   22.3018  -20.5110  -13.6780 N   0  0  0  0  0  0  0  0  0  0  0  0
   20.3118  -19.6394  -12.7508 C   0  0  0  0  0  0  0  0  0  0  0  0
   19.0622  -19.0943  -12.9227 O   0  0  0  0  0  0  0  0  0  0  0  0
   20.9972  -19.2656  -11.7728 O   0  0  0  0  0  0  0  0  0  0  0  0
  2  1  1  6
  3  2  1  0
  3  4  1  0
  4  5  2  0
  5  6  1  0
  7  6  2  0
  8  7  1  0
  9  4  1  0
  9  8  2  0
 10 11  2  0
 10  2  1  0
 12 13  1  0
 13 14  2  0
 15 13  1  0
 15 16  1  0
 17 16  1  1
 17 18  1  0
 18 10  1  0
 19 29  1  0
 19 17  1  0
 20 19  2  0
 22 21  1  0
 22 23  2  0
 24 22  1  0
 25 24  1  0
 26 27  1  0
 26 25  1  0
 28 27  1  1
 28 29  1  0
 28 30  1  0
 30 31  1  0
 32 30  2  0
M  END
$$$$
