FQR.pdb
     RDKit          3D

 32 32  0  0  1  0  0  0  0  0999 V2000
   26.0969  -22.7712  -14.8476 N   0  0  0  0  0  0  0  0  0  0  0  0
   24.7132  -23.0673  -15.2008 C   0  0  1  0  0  0  0  0  0  0  0  0
   24.5485  -24.5527  -14.8998 C   0  0  0  0  0  0  0  0  0  0  0  0
   25.1914  -25.3392  -15.9596 C   0  0  0  0  0  0  0  0  0  0  0  0
   24.5070  -25.4967  -17.1676 C   0  0  0  0  0  0  0  0  0  0  0  0
   25.0277  -26.2262  -18.2099 C   0  0  0  0  0  0  0  0  0  0  0  0
   26.2614  -26.8127  -18.0394 C   0  0  0  0  0  0  0  0  0  0  0  0
   26.9916  -26.6888  -16.8550 C   0  0  0  0  0  0  0  0  0  0  0  0
   26.4175  -25.9526  -15.8653 C   0  0  0  0  0  0  0  0  0  0  0  0
   23.8508  -22.2825  -14.2565 C   0  0  0  0  0  0  0  0  0  0  0  0
   24.2298  -22.1174  -13.0939 O   0  0  0  0  0  0  0  0  0  0  0  0
   20.9654  -17.0684  -15.5587 N   0  0  0  0  0  0  0  0  0  0  0  0
   20.5337  -17.3040  -14.2038 C   0  0  0  0  0  0  0  0  0  0  0  0
   19.9979  -16.3545  -13.5926 O   0  0  0  0  0  0  0  0  0  0  0  0
   20.7657  -18.6601  -13.6527 C   0  0  0  0  0  0  0  0  0  0  0  0
   21.6091  -19.5493  -14.5023 C   0  0  0  0  0  0  0  0  0  0  0  0
   21.7080  -20.9717  -13.9962 C   0  0  2  0  0  0  0  0  0  0  0  0
   22.6498  -21.7649  -14.7379 N   0  0  0  0  0  0  0  0  0  0  0  0
   20.3433  -21.5353  -13.9398 C   0  0  0  0  0  0  0  0  0  0  0  0
   19.7083  -21.7203  -15.0391 O   0  0  0  0  0  0  0  0  0  0  0  0
   18.6690  -25.6493   -7.0806 N   0  0  0  0  0  0  0  0  0  0  0  0
   17.7921  -24.7132   -7.7204 C   0  0  0  0  0  0  0  0  0  0  0  0
   16.7609  -24.2694   -7.1274 N   0  0  0  0  0  0  0  0  0  0  0  0
   18.0681  -24.2613   -9.0314 N   0  0  0  0  0  0  0  0  0  0  0  0
   19.1069  -24.7985   -9.8273 C   0  0  0  0  0  0  0  0  0  0  0  0
   19.3604  -24.1212  -11.1381 C   0  0  0  0  0  0  0  0  0  0  0  0
   18.1546  -23.3172  -11.5194 C   0  0  0  0  0  0  0  0  0  0  0  0
   18.3131  -22.5202  -12.8048 C   0  0  2  0  0  0  0  0  0  0  0  0
   19.6467  -21.9046  -12.7735 N   0  0  0  0  0  0  0  0  0  0  0  0
   17.3326  -21.4318  -12.8073 C   0  0  0  0  0  0  0  0  0  0  0  0
   16.0119  -21.6662  -13.1053 O   0  0  0  0  0  0  0  0  0  0  0  0
   17.6852  -20.2622  -12.5355 O   0  0  0  0  0  0  0  0  0  0  0  0
  2  1  1  1
  3  2  1  0
  3  4  1  0
  4  5  2  0
  5  6  1  0
  7  6  2  0
  8  7  1  0
  9  4  1  0
  9  8  2  0
 10 11  2  0
 10  2  1  0
 12 13  1  0
 13 14  2  0
 15 13  1  0
 15 16  1  0
 17 16  1  6
 17 18  1  0
 18 10  1  0
 19 29  1  0
 19 17  1  0
 20 19  2  0
 22 21  1  0
 22 23  2  0
 24 22  1  0
 25 24  1  0
 26 27  1  0
 26 25  1  0
 28 27  1  1
 28 29  1  0
 28 30  1  0
 30 31  1  0
 32 30  2  0
M  END
$$$$
