FQR.pdb
     RDKit          3D

 32 32  0  0  1  0  0  0  0  0999 V2000
   27.3113  -18.4378   -8.4124 N   0  0  0  0  0  0  0  0  0  0  0  0
   27.2348  -19.8883   -8.5436 C   0  0  1  0  0  0  0  0  0  0  0  0
   26.5921  -20.3589   -7.2437 C   0  0  0  0  0  0  0  0  0  0  0  0
   27.4776  -20.0375   -6.1177 C   0  0  0  0  0  0  0  0  0  0  0  0
   28.2545  -21.0662   -5.5788 C   0  0  0  0  0  0  0  0  0  0  0  0
   29.1022  -20.8586   -4.5167 C   0  0  0  0  0  0  0  0  0  0  0  0
   29.1735  -19.5926   -3.9806 C   0  0  0  0  0  0  0  0  0  0  0  0
   28.4216  -18.5258   -4.4784 C   0  0  0  0  0  0  0  0  0  0  0  0
   27.6042  -18.8015   -5.5305 C   0  0  0  0  0  0  0  0  0  0  0  0
   26.2945  -20.1686   -9.6788 C   0  0  0  0  0  0  0  0  0  0  0  0
   25.1587  -19.6872   -9.6502 O   0  0  0  0  0  0  0  0  0  0  0  0
   28.4039  -20.2782  -14.9190 N   0  0  0  0  0  0  0  0  0  0  0  0
   27.1831  -20.9037  -15.3619 C   0  0  0  0  0  0  0  0  0  0  0  0
   26.7679  -20.6193  -16.5060 O   0  0  0  0  0  0  0  0  0  0  0  0
   26.5246  -21.8339  -14.4145 C   0  0  0  0  0  0  0  0  0  0  0  0
   27.0575  -21.7964  -13.0221 C   0  0  0  0  0  0  0  0  0  0  0  0
   26.1873  -21.0301  -12.0502 C   0  0  2  0  0  0  0  0  0  0  0  0
   26.7492  -20.9640  -10.7288 N   0  0  0  0  0  0  0  0  0  0  0  0
   24.8242  -21.5974  -12.1082 C   0  0  0  0  0  0  0  0  0  0  0  0
   24.5647  -22.6466  -11.4171 O   0  0  0  0  0  0  0  0  0  0  0  0
   17.4200  -21.9390  -12.0683 N   0  0  0  0  0  0  0  0  0  0  0  0
   17.2753  -20.8689  -11.1257 C   0  0  0  0  0  0  0  0  0  0  0  0
   16.3480  -20.8796  -10.2584 N   0  0  0  0  0  0  0  0  0  0  0  0
   18.1748  -19.7782  -11.1440 N   0  0  0  0  0  0  0  0  0  0  0  0
   19.1889  -19.6339  -12.1197 C   0  0  0  0  0  0  0  0  0  0  0  0
   20.0015  -20.8544  -12.4218 C   0  0  0  0  0  0  0  0  0  0  0  0
   21.4528  -20.4833  -12.4624 C   0  0  0  0  0  0  0  0  0  0  0  0
   22.3879  -21.6415  -12.7734 C   0  0  2  0  0  0  0  0  0  0  0  0
   23.7474  -21.0918  -12.8612 N   0  0  0  0  0  0  0  0  0  0  0  0
   22.0501  -22.1771  -14.0944 C   0  0  0  0  0  0  0  0  0  0  0  0
   21.0987  -23.1576  -14.2413 O   0  0  0  0  0  0  0  0  0  0  0  0
   22.6269  -21.7464  -15.1180 O   0  0  0  0  0  0  0  0  0  0  0  0
  2  1  1  1
  3  2  1  0
  3  4  1  0
  4  5  2  0
  5  6  1  0
  7  6  2  0
  8  7  1  0
  9  4  1  0
  9  8  2  0
 10 11  2  0
 10  2  1  0
 12 13  1  0
 13 14  2  0
 15 13  1  0
 15 16  1  0
 17 16  1  6
 17 18  1  0
 18 10  1  0
 19 29  1  0
 19 17  1  0
 20 19  2  0
 22 21  1  0
 22 23  2  0
 24 22  1  0
 25 24  1  0
 26 27  1  0
 26 25  1  0
 28 27  1  6
 28 29  1  0
 28 30  1  0
 30 31  1  0
 32 30  2  0
M  END
$$$$
