FQR.pdb
     RDKit          3D

 32 32  0  0  1  0  0  0  0  0999 V2000
   25.6932  -19.9813  -17.9544 N   0  0  0  0  0  0  0  0  0  0  0  0
   24.6493  -19.4314  -17.0972 C   0  0  1  0  0  0  0  0  0  0  0  0
   23.4050  -19.4002  -17.9775 C   0  0  0  0  0  0  0  0  0  0  0  0
   23.5280  -18.3136  -18.9570 C   0  0  0  0  0  0  0  0  0  0  0  0
   23.0458  -17.0512  -18.6016 C   0  0  0  0  0  0  0  0  0  0  0  0
   23.1088  -15.9794  -19.4600 C   0  0  0  0  0  0  0  0  0  0  0  0
   23.6663  -16.1752  -20.7033 C   0  0  0  0  0  0  0  0  0  0  0  0
   24.1653  -17.4139  -21.1130 C   0  0  0  0  0  0  0  0  0  0  0  0
   24.0717  -18.4306  -20.2137 C   0  0  0  0  0  0  0  0  0  0  0  0
   24.4356  -20.4218  -15.9903 C   0  0  0  0  0  0  0  0  0  0  0  0
   24.7488  -21.6013  -16.1716 O   0  0  0  0  0  0  0  0  0  0  0  0
   26.3462  -21.6238  -11.8501 N   0  0  0  0  0  0  0  0  0  0  0  0
   25.2831  -21.6789  -10.8783 C   0  0  0  0  0  0  0  0  0  0  0  0
   25.4079  -22.4803   -9.9273 O   0  0  0  0  0  0  0  0  0  0  0  0
   24.1291  -20.7746  -11.0953 C   0  0  0  0  0  0  0  0  0  0  0  0
   24.1856  -19.9718  -12.3509 C   0  0  0  0  0  0  0  0  0  0  0  0
   23.7335  -20.7239  -13.5834 C   0  0  2  0  0  0  0  0  0  0  0  0
   23.8916  -19.9624  -14.7923 N   0  0  0  0  0  0  0  0  0  0  0  0
   22.3606  -21.2148  -13.3443 C   0  0  0  0  0  0  0  0  0  0  0  0
   21.3927  -20.3731  -13.3718 O   0  0  0  0  0  0  0  0  0  0  0  0
   19.2614  -24.0876   -6.9499 N   0  0  0  0  0  0  0  0  0  0  0  0
   18.1069  -23.6723   -7.6911 C   0  0  0  0  0  0  0  0  0  0  0  0
   16.9353  -23.8555   -7.2374 N   0  0  0  0  0  0  0  0  0  0  0  0
   18.2571  -23.0413   -8.9474 N   0  0  0  0  0  0  0  0  0  0  0  0
   18.5063  -23.7564  -10.1423 C   0  0  0  0  0  0  0  0  0  0  0  0
   18.6344  -22.9420  -11.3919 C   0  0  0  0  0  0  0  0  0  0  0  0
   20.0791  -22.6177  -11.6236 C   0  0  0  0  0  0  0  0  0  0  0  0
   20.5899  -22.9845  -13.0082 C   0  0  2  0  0  0  0  0  0  0  0  0
   21.9906  -22.5482  -13.0850 N   0  0  0  0  0  0  0  0  0  0  0  0
   19.8405  -22.2156  -14.0048 C   0  0  0  0  0  0  0  0  0  0  0  0
   19.6508  -22.6972  -15.2778 O   0  0  0  0  0  0  0  0  0  0  0  0
   19.3573  -21.0996  -13.7103 O   0  0  0  0  0  0  0  0  0  0  0  0
  2  1  1  6
  3  2  1  0
  3  4  1  0
  4  5  2  0
  5  6  1  0
  7  6  2  0
  8  7  1  0
  9  4  1  0
  9  8  2  0
 10 11  2  0
 10  2  1  0
 12 13  1  0
 13 14  2  0
 15 13  1  0
 15 16  1  0
 17 16  1  1
 17 18  1  0
 18 10  1  0
 19 29  1  0
 19 17  1  0
 20 19  2  0
 22 21  1  0
 22 23  2  0
 24 22  1  0
 25 24  1  0
 26 27  1  0
 26 25  1  0
 28 27  1  1
 28 29  1  0
 28 30  1  0
 30 31  1  0
 32 30  2  0
M  END
$$$$
