FQR.pdb
     RDKit          3D

 32 32  0  0  1  0  0  0  0  0999 V2000
   28.3863  -20.5784  -11.1303 N   0  0  0  0  0  0  0  0  0  0  0  0
   26.9525  -20.8359  -11.1991 C   0  0  1  0  0  0  0  0  0  0  0  0
   26.3123  -19.6336  -10.5143 C   0  0  0  0  0  0  0  0  0  0  0  0
   26.5445  -19.7162   -9.0670 C   0  0  0  0  0  0  0  0  0  0  0  0
   27.3108  -18.7139   -8.4666 C   0  0  0  0  0  0  0  0  0  0  0  0
   27.5884  -18.7175   -7.1202 C   0  0  0  0  0  0  0  0  0  0  0  0
   27.0885  -19.7483   -6.3569 C   0  0  0  0  0  0  0  0  0  0  0  0
   26.3159  -20.7765   -6.9020 C   0  0  0  0  0  0  0  0  0  0  0  0
   26.0792  -20.7104   -8.2402 C   0  0  0  0  0  0  0  0  0  0  0  0
   26.5818  -20.8201  -12.6530 C   0  0  0  0  0  0  0  0  0  0  0  0
   27.0759  -19.9619  -13.3890 O   0  0  0  0  0  0  0  0  0  0  0  0
   24.7572  -26.1600  -15.4447 N   0  0  0  0  0  0  0  0  0  0  0  0
   24.6501  -25.2281  -16.5391 C   0  0  0  0  0  0  0  0  0  0  0  0
   24.4233  -25.6934  -17.6767 O   0  0  0  0  0  0  0  0  0  0  0  0
   24.8202  -23.7918  -16.2155 C   0  0  0  0  0  0  0  0  0  0  0  0
   25.1141  -23.4995  -14.7830 C   0  0  0  0  0  0  0  0  0  0  0  0
   25.3408  -22.0331  -14.4876 C   0  0  2  0  0  0  0  0  0  0  0  0
   25.6907  -21.7867  -13.1154 N   0  0  0  0  0  0  0  0  0  0  0  0
   24.1612  -21.2810  -14.9632 C   0  0  0  0  0  0  0  0  0  0  0  0
   23.1782  -21.1051  -14.1579 O   0  0  0  0  0  0  0  0  0  0  0  0
   18.5052  -17.2618  -18.5360 N   0  0  0  0  0  0  0  0  0  0  0  0
   18.4387  -17.2723  -17.1042 C   0  0  0  0  0  0  0  0  0  0  0  0
   17.3247  -17.2027  -16.4988 N   0  0  0  0  0  0  0  0  0  0  0  0
   19.6229  -17.3670  -16.3376 N   0  0  0  0  0  0  0  0  0  0  0  0
   20.6577  -18.2857  -16.6313 C   0  0  0  0  0  0  0  0  0  0  0  0
   21.9171  -17.7110  -17.2014 C   0  0  0  0  0  0  0  0  0  0  0  0
   23.0798  -18.5592  -16.7835 C   0  0  0  0  0  0  0  0  0  0  0  0
   22.7634  -20.0417  -16.6633 C   0  0  2  0  0  0  0  0  0  0  0  0
   23.9983  -20.7176  -16.2431 N   0  0  0  0  0  0  0  0  0  0  0  0
   22.4161  -20.5576  -17.9897 C   0  0  0  0  0  0  0  0  0  0  0  0
   21.1066  -20.7656  -18.3504 O   0  0  0  0  0  0  0  0  0  0  0  0
   23.3136  -20.8187  -18.8218 O   0  0  0  0  0  0  0  0  0  0  0  0
  2  1  1  6
  3  2  1  0
  3  4  1  0
  4  5  2  0
  5  6  1  0
  7  6  2  0
  8  7  1  0
  9  4  1  0
  9  8  2  0
 10 11  2  0
 10  2  1  0
 12 13  1  0
 13 14  2  0
 15 13  1  0
 15 16  1  0
 17 16  1  1
 17 18  1  0
 18 10  1  0
 19 29  1  0
 19 17  1  0
 20 19  2  0
 22 21  1  0
 22 23  2  0
 24 22  1  0
 25 24  1  0
 26 27  1  0
 26 25  1  0
 28 27  1  6
 28 29  1  0
 28 30  1  0
 30 31  1  0
 32 30  2  0
M  END
$$$$
