FQR.pdb
     RDKit          3D

 32 32  0  0  1  0  0  0  0  0999 V2000
   22.6947  -10.1433  -16.4580 N   0  0  0  0  0  0  0  0  0  0  0  0
   21.9210   -8.9145  -16.3230 C   0  0  1  0  0  0  0  0  0  0  0  0
   20.9851   -8.9147  -17.5265 C   0  0  0  0  0  0  0  0  0  0  0  0
   21.7619   -8.6711  -18.7482 C   0  0  0  0  0  0  0  0  0  0  0  0
   21.9411   -7.3479  -19.1596 C   0  0  0  0  0  0  0  0  0  0  0  0
   22.6439   -7.0277  -20.2968 C   0  0  0  0  0  0  0  0  0  0  0  0
   23.1791   -8.0552  -21.0403 C   0  0  0  0  0  0  0  0  0  0  0  0
   23.0331   -9.3962  -20.6775 C   0  0  0  0  0  0  0  0  0  0  0  0
   22.3268   -9.6414  -19.5408 C   0  0  0  0  0  0  0  0  0  0  0  0
   21.1033   -9.0561  -15.0729 C   0  0  0  0  0  0  0  0  0  0  0  0
   20.7325  -10.1795  -14.7223 O   0  0  0  0  0  0  0  0  0  0  0  0
   22.0507   -5.6688  -10.0067 N   0  0  0  0  0  0  0  0  0  0  0  0
   20.7829   -6.2630   -9.6643 C   0  0  0  0  0  0  0  0  0  0  0  0
   20.3713   -6.1163   -8.4933 O   0  0  0  0  0  0  0  0  0  0  0  0
   20.0763   -7.0002  -10.7384 C   0  0  0  0  0  0  0  0  0  0  0  0
   20.8148   -7.0910  -12.0308 C   0  0  0  0  0  0  0  0  0  0  0  0
   20.0714   -7.8426  -13.1133 C   0  0  2  0  0  0  0  0  0  0  0  0
   20.7984   -7.9031  -14.3519 N   0  0  0  0  0  0  0  0  0  0  0  0
   18.7164   -7.2644  -13.2264 C   0  0  0  0  0  0  0  0  0  0  0  0
   18.5876   -6.0934  -13.7344 O   0  0  0  0  0  0  0  0  0  0  0  0
   10.7996  -10.6311  -11.0968 N   0  0  0  0  0  0  0  0  0  0  0  0
   10.4517   -9.3003  -11.4996 C   0  0  0  0  0  0  0  0  0  0  0  0
    9.2479   -8.8979  -11.4649 N   0  0  0  0  0  0  0  0  0  0  0  0
   11.4539   -8.4054  -11.9402 N   0  0  0  0  0  0  0  0  0  0  0  0
   12.8301   -8.7328  -11.9427 C   0  0  0  0  0  0  0  0  0  0  0  0
   13.7730   -7.6453  -12.3543 C   0  0  0  0  0  0  0  0  0  0  0  0
   15.1684   -8.1905  -12.3929 C   0  0  0  0  0  0  0  0  0  0  0  0
   16.2167   -7.1974  -12.8698 C   0  0  2  0  0  0  0  0  0  0  0  0
   17.5159   -7.8819  -12.8268 N   0  0  0  0  0  0  0  0  0  0  0  0
   16.2797   -6.0863  -11.9172 C   0  0  0  0  0  0  0  0  0  0  0  0
   15.5953   -4.9166  -12.1439 O   0  0  0  0  0  0  0  0  0  0  0  0
   16.9631   -6.1859  -10.8735 O   0  0  0  0  0  0  0  0  0  0  0  0
  2  1  1  6
  3  2  1  0
  3  4  1  0
  4  5  2  0
  5  6  1  0
  7  6  2  0
  8  7  1  0
  9  4  1  0
  9  8  2  0
 10 11  2  0
 10  2  1  0
 12 13  1  0
 13 14  2  0
 15 13  1  0
 15 16  1  0
 17 16  1  1
 17 18  1  0
 18 10  1  0
 19 29  1  0
 19 17  1  0
 20 19  2  0
 22 21  1  0
 22 23  2  0
 24 22  1  0
 25 24  1  0
 26 27  1  0
 26 25  1  0
 28 27  1  1
 28 29  1  0
 28 30  1  0
 30 31  1  0
 32 30  2  0
M  END
$$$$
