FQR.pdb
     RDKit          3D

 32 32  0  0  1  0  0  0  0  0999 V2000
   28.3113  -20.6126   -8.2144 N   0  0  0  0  0  0  0  0  0  0  0  0
   26.8578  -20.5913   -8.0955 C   0  0  1  0  0  0  0  0  0  0  0  0
   26.5736  -19.5287   -7.0399 C   0  0  0  0  0  0  0  0  0  0  0  0
   27.3033  -19.8568   -5.8090 C   0  0  0  0  0  0  0  0  0  0  0  0
   28.2996  -18.9754   -5.3814 C   0  0  0  0  0  0  0  0  0  0  0  0
   29.0407  -19.2089   -4.2473 C   0  0  0  0  0  0  0  0  0  0  0  0
   28.7796  -20.3512   -3.5248 C   0  0  0  0  0  0  0  0  0  0  0  0
   27.7955  -21.2675   -3.9033 C   0  0  0  0  0  0  0  0  0  0  0  0
   27.0996  -20.9740   -5.0351 C   0  0  0  0  0  0  0  0  0  0  0  0
   26.3251  -20.1179   -9.4159 C   0  0  0  0  0  0  0  0  0  0  0  0
   26.6789  -19.0169   -9.8460 O   0  0  0  0  0  0  0  0  0  0  0  0
   28.4772  -21.0255  -14.1403 N   0  0  0  0  0  0  0  0  0  0  0  0
   27.1811  -20.9238  -14.7627 C   0  0  0  0  0  0  0  0  0  0  0  0
   27.1377  -20.9021  -16.0117 O   0  0  0  0  0  0  0  0  0  0  0  0
   26.0078  -20.8529  -13.8600 C   0  0  0  0  0  0  0  0  0  0  0  0
   26.3226  -20.9743  -12.4074 C   0  0  0  0  0  0  0  0  0  0  0  0
   25.1143  -20.8608  -11.5039 C   0  0  2  0  0  0  0  0  0  0  0  0
   25.4489  -20.9512  -10.1089 N   0  0  0  0  0  0  0  0  0  0  0  0
   24.1080  -21.8432  -11.9570 C   0  0  0  0  0  0  0  0  0  0  0  0
   24.1838  -23.0473  -11.5207 O   0  0  0  0  0  0  0  0  0  0  0  0
   18.2946  -23.3998   -6.9848 N   0  0  0  0  0  0  0  0  0  0  0  0
   18.9754  -23.9100   -8.1383 C   0  0  0  0  0  0  0  0  0  0  0  0
   19.5361  -25.0491   -8.1187 N   0  0  0  0  0  0  0  0  0  0  0  0
   19.0283  -23.1481   -9.3282 N   0  0  0  0  0  0  0  0  0  0  0  0
   19.9084  -22.0543   -9.5025 C   0  0  0  0  0  0  0  0  0  0  0  0
   19.8513  -21.3574  -10.8262 C   0  0  0  0  0  0  0  0  0  0  0  0
   21.2465  -21.1048  -11.3115 C   0  0  0  0  0  0  0  0  0  0  0  0
   21.6480  -21.9308  -12.5235 C   0  0  2  0  0  0  0  0  0  0  0  0
   23.0414  -21.5898  -12.8403 N   0  0  0  0  0  0  0  0  0  0  0  0
   20.8295  -21.5179  -13.6661 C   0  0  0  0  0  0  0  0  0  0  0  0
   19.8421  -22.3334  -14.1642 O   0  0  0  0  0  0  0  0  0  0  0  0
   21.0180  -20.4071  -14.2107 O   0  0  0  0  0  0  0  0  0  0  0  0
  2  1  1  6
  3  2  1  0
  3  4  1  0
  4  5  2  0
  5  6  1  0
  7  6  2  0
  8  7  1  0
  9  4  1  0
  9  8  2  0
 10 11  2  0
 10  2  1  0
 12 13  1  0
 13 14  2  0
 15 13  1  0
 15 16  1  0
 17 16  1  6
 17 18  1  0
 18 10  1  0
 19 29  1  0
 19 17  1  0
 20 19  2  0
 22 21  1  0
 22 23  2  0
 24 22  1  0
 25 24  1  0
 26 27  1  0
 26 25  1  0
 28 27  1  1
 28 29  1  0
 28 30  1  0
 30 31  1  0
 32 30  2  0
M  END
$$$$
