IIS.pdb
     RDKit          3D

 23 22  0  0  1  0  0  0  0  0999 V2000
    6.1437  -11.5884   27.9588 C   0  0  0  0  0  0  0  0  0  0  0  0
    5.7208  -12.7188   27.0865 C   0  0  0  0  0  0  0  0  0  0  0  0
    6.8412  -13.3778   26.3168 C   0  0  2  0  0  0  0  0  0  0  0  0
    7.6349  -12.2908   25.6749 C   0  0  0  0  0  0  0  0  0  0  0  0
    6.2687  -14.3968   25.3729 C   0  0  2  0  0  0  0  0  0  0  0  0
    5.7507  -15.4842   26.2223 N   0  0  0  0  0  0  0  0  0  0  0  0
    7.2828  -15.0187   24.4865 C   0  0  0  0  0  0  0  0  0  0  0  0
    7.8705  -16.1099   24.8058 O   0  0  0  0  0  0  0  0  0  0  0  0
    7.4673  -12.7163   19.6873 C   0  0  0  0  0  0  0  0  0  0  0  0
    7.2716  -13.9683   20.5489 C   0  0  0  0  0  0  0  0  0  0  0  0
    8.6351  -14.3532   21.0490 C   0  0  2  0  0  0  0  0  0  0  0  0
    9.2871  -15.2203   19.9699 C   0  0  0  0  0  0  0  0  0  0  0  0
    8.5829  -15.1676   22.3244 C   0  0  2  0  0  0  0  0  0  0  0  0
    7.6928  -14.4875   23.2349 N   0  0  0  0  0  0  0  0  0  0  0  0
    9.9611  -15.2552   22.8933 C   0  0  0  0  0  0  0  0  0  0  0  0
   10.3816  -14.4436   23.7494 O   0  0  0  0  0  0  0  0  0  0  0  0
   10.8065  -18.4250   24.5383 O   0  0  0  0  0  0  0  0  0  0  0  0
   11.5829  -17.2650   24.5866 C   0  0  0  0  0  0  0  0  0  0  0  0
   11.9032  -16.8659   23.1844 C   0  0  2  0  0  0  0  0  0  0  0  0
   10.8155  -16.2834   22.4530 N   0  0  0  0  0  0  0  0  0  0  0  0
   12.6526  -17.9107   22.4225 C   0  0  0  0  0  0  0  0  0  0  0  0
   12.0982  -18.4022   21.4157 O   0  0  0  0  0  0  0  0  0  0  0  0
   13.8977  -18.2947   22.8419 O   0  0  0  0  0  0  0  0  0  0  0  0
  1  2  1  0
  2  3  1  0
  3  5  1  0
  3  4  1  6
  5  7  1  0
  5  6  1  1
  7  8  2  0
  9 10  1  0
 10 11  1  0
 11 13  1  0
 11 12  1  6
 13 14  1  1
 14  7  1  0
 15 16  2  0
 15 13  1  0
 17 18  1  0
 19 18  1  1
 19 20  1  0
 19 21  1  0
 20 15  1  0
 21 23  1  0
 22 21  2  0
M  END
$$$$
