IIS.pdb
     RDKit          3D

 23 22  0  0  1  0  0  0  0  0999 V2000
   11.6887  -16.0591   30.7625 C   0  0  0  0  0  0  0  0  0  0  0  0
   10.4016  -16.5438   30.1914 C   0  0  0  0  0  0  0  0  0  0  0  0
   10.1428  -16.1204   28.7646 C   0  0  2  0  0  0  0  0  0  0  0  0
   10.3036  -14.6391   28.7076 C   0  0  0  0  0  0  0  0  0  0  0  0
    8.8028  -16.6374   28.3240 C   0  0  2  0  0  0  0  0  0  0  0  0
    8.8846  -18.1052   28.4291 N   0  0  0  0  0  0  0  0  0  0  0  0
    8.4939  -16.3463   26.9025 C   0  0  0  0  0  0  0  0  0  0  0  0
    8.6207  -17.2394   25.9946 O   0  0  0  0  0  0  0  0  0  0  0  0
    5.9696  -11.6566   25.9636 C   0  0  0  0  0  0  0  0  0  0  0  0
    6.1034  -13.1669   25.7415 C   0  0  0  0  0  0  0  0  0  0  0  0
    7.3497  -13.3642   24.9257 C   0  0  2  0  0  0  0  0  0  0  0  0
    6.9827  -13.1005   23.4638 C   0  0  0  0  0  0  0  0  0  0  0  0
    7.8921  -14.7749   25.0168 C   0  0  2  0  0  0  0  0  0  0  0  0
    8.0407  -15.0908   26.4175 N   0  0  0  0  0  0  0  0  0  0  0  0
    9.2104  -14.8271   24.3167 C   0  0  0  0  0  0  0  0  0  0  0  0
   10.2658  -14.4166   24.8515 O   0  0  0  0  0  0  0  0  0  0  0  0
   11.9841  -17.0961   23.8280 O   0  0  0  0  0  0  0  0  0  0  0  0
   10.6829  -17.3461   23.3864 C   0  0  0  0  0  0  0  0  0  0  0  0
   10.2785  -16.2265   22.4860 C   0  0  2  0  0  0  0  0  0  0  0  0
    9.2688  -15.3548   23.0132 N   0  0  0  0  0  0  0  0  0  0  0  0
   10.0308  -16.6543   21.0755 C   0  0  0  0  0  0  0  0  0  0  0  0
    8.8842  -17.0595   20.7864 O   0  0  0  0  0  0  0  0  0  0  0  0
   11.0463  -16.5950   20.1597 O   0  0  0  0  0  0  0  0  0  0  0  0
  1  2  1  0
  2  3  1  0
  3  5  1  0
  3  4  1  1
  5  7  1  0
  5  6  1  6
  7  8  2  0
  9 10  1  0
 10 11  1  0
 11 13  1  0
 11 12  1  6
 13 14  1  1
 14  7  1  0
 15 16  2  0
 15 13  1  0
 17 18  1  0
 19 18  1  1
 19 20  1  0
 19 21  1  0
 20 15  1  0
 21 23  1  0
 22 21  2  0
M  END
$$$$
