IIS.pdb
     RDKit          3D

 23 22  0  0  1  0  0  0  0  0999 V2000
   11.4534  -15.9894   30.8675 C   0  0  0  0  0  0  0  0  0  0  0  0
   10.1427  -16.4314   30.3157 C   0  0  0  0  0  0  0  0  0  0  0  0
    9.9317  -16.1135   28.8540 C   0  0  2  0  0  0  0  0  0  0  0  0
   10.1884  -14.6553   28.6778 C   0  0  0  0  0  0  0  0  0  0  0  0
    8.5675  -16.5801   28.4319 C   0  0  2  0  0  0  0  0  0  0  0  0
    8.5643  -18.0407   28.6283 N   0  0  0  0  0  0  0  0  0  0  0  0
    8.2859  -16.3609   26.9919 C   0  0  0  0  0  0  0  0  0  0  0  0
    8.3159  -17.3251   26.1508 O   0  0  0  0  0  0  0  0  0  0  0  0
    6.2180  -11.5643   25.7699 C   0  0  0  0  0  0  0  0  0  0  0  0
    6.1497  -13.0686   25.4857 C   0  0  0  0  0  0  0  0  0  0  0  0
    7.4394  -13.4276   24.8036 C   0  0  2  0  0  0  0  0  0  0  0  0
    7.2408  -13.1950   23.3042 C   0  0  0  0  0  0  0  0  0  0  0  0
    7.8201  -14.8802   24.9975 C   0  0  2  0  0  0  0  0  0  0  0  0
    7.9644  -15.1031   26.4164 N   0  0  0  0  0  0  0  0  0  0  0  0
    9.1072  -15.1372   24.2848 C   0  0  0  0  0  0  0  0  0  0  0  0
   10.1538  -14.5022   24.5491 O   0  0  0  0  0  0  0  0  0  0  0  0
   10.4774  -18.5290   23.5737 O   0  0  0  0  0  0  0  0  0  0  0  0
   10.5029  -17.9437   22.3059 C   0  0  0  0  0  0  0  0  0  0  0  0
   10.2732  -16.4781   22.4700 C   0  0  2  0  0  0  0  0  0  0  0  0
    9.1455  -16.1253   23.2832 N   0  0  0  0  0  0  0  0  0  0  0  0
   10.3566  -15.7134   21.1885 C   0  0  0  0  0  0  0  0  0  0  0  0
    9.2839  -15.3419   20.6653 O   0  0  0  0  0  0  0  0  0  0  0  0
   11.5797  -15.4500   20.6335 O   0  0  0  0  0  0  0  0  0  0  0  0
  1  2  1  0
  2  3  1  0
  3  5  1  0
  3  4  1  1
  5  7  1  0
  5  6  1  6
  7  8  2  0
  9 10  1  0
 10 11  1  0
 11 13  1  0
 11 12  1  6
 13 14  1  1
 14  7  1  0
 15 16  2  0
 15 13  1  0
 17 18  1  0
 19 18  1  6
 19 20  1  0
 19 21  1  0
 20 15  1  0
 21 23  1  0
 22 21  2  0
M  END
$$$$
