IIS.pdb
     RDKit          3D

 23 22  0  0  1  0  0  0  0  0999 V2000
   11.4964  -16.4402   30.7303 C   0  0  0  0  0  0  0  0  0  0  0  0
   10.1423  -16.7588   30.1986 C   0  0  0  0  0  0  0  0  0  0  0  0
    9.9087  -16.3362   28.7672 C   0  0  2  0  0  0  0  0  0  0  0  0
   10.2819  -14.8961   28.6656 C   0  0  0  0  0  0  0  0  0  0  0  0
    8.4961  -16.6619   28.3730 C   0  0  2  0  0  0  0  0  0  0  0  0
    8.3702  -18.1246   28.5034 N   0  0  0  0  0  0  0  0  0  0  0  0
    8.1900  -16.3504   26.9553 C   0  0  0  0  0  0  0  0  0  0  0  0
    8.3849  -17.2079   26.0254 O   0  0  0  0  0  0  0  0  0  0  0  0
    5.8774  -11.5133   26.0959 C   0  0  0  0  0  0  0  0  0  0  0  0
    5.8871  -13.0128   25.7805 C   0  0  0  0  0  0  0  0  0  0  0  0
    7.1730  -13.2819   25.0515 C   0  0  2  0  0  0  0  0  0  0  0  0
    6.9480  -12.9165   23.5827 C   0  0  0  0  0  0  0  0  0  0  0  0
    7.5834  -14.7384   25.1057 C   0  0  2  0  0  0  0  0  0  0  0  0
    7.6667  -15.1121   26.4976 N   0  0  0  0  0  0  0  0  0  0  0  0
    8.9092  -14.8876   24.4344 C   0  0  0  0  0  0  0  0  0  0  0  0
    9.9480  -14.3515   24.8837 O   0  0  0  0  0  0  0  0  0  0  0  0
   10.5220  -18.0496   23.3773 O   0  0  0  0  0  0  0  0  0  0  0  0
   11.1624  -16.8336   23.1292 C   0  0  0  0  0  0  0  0  0  0  0  0
   10.1759  -15.9154   22.4875 C   0  0  2  0  0  0  0  0  0  0  0  0
    8.9943  -15.6559   23.2581 N   0  0  0  0  0  0  0  0  0  0  0  0
    9.9033  -16.2393   21.0541 C   0  0  0  0  0  0  0  0  0  0  0  0
    8.7088  -16.3499   20.7028 O   0  0  0  0  0  0  0  0  0  0  0  0
   10.9476  -16.4057   20.1852 O   0  0  0  0  0  0  0  0  0  0  0  0
  1  2  1  0
  2  3  1  0
  3  5  1  0
  3  4  1  1
  5  7  1  0
  5  6  1  6
  7  8  2  0
  9 10  1  0
 10 11  1  0
 11 13  1  0
 11 12  1  6
 13 14  1  1
 14  7  1  0
 15 16  2  0
 15 13  1  0
 17 18  1  0
 19 18  1  1
 19 20  1  0
 19 21  1  0
 20 15  1  0
 21 23  1  0
 22 21  2  0
M  END
$$$$
