IIS.pdb
     RDKit          3D

 23 22  0  0  1  0  0  0  0  0999 V2000
    5.7056  -11.1458   26.9500 C   0  0  0  0  0  0  0  0  0  0  0  0
    6.2398  -12.3822   27.5853 C   0  0  0  0  0  0  0  0  0  0  0  0
    7.0984  -13.2371   26.6831 C   0  0  2  0  0  0  0  0  0  0  0  0
    8.1926  -12.3685   26.1620 C   0  0  0  0  0  0  0  0  0  0  0  0
    6.2364  -13.8812   25.6346 C   0  0  2  0  0  0  0  0  0  0  0  0
    5.3039  -14.7582   26.3649 N   0  0  0  0  0  0  0  0  0  0  0  0
    6.9887  -14.7645   24.7102 C   0  0  0  0  0  0  0  0  0  0  0  0
    7.3810  -15.9287   25.0693 O   0  0  0  0  0  0  0  0  0  0  0  0
    8.4918  -12.7866   19.6460 C   0  0  0  0  0  0  0  0  0  0  0  0
    8.6173  -13.2867   21.0891 C   0  0  0  0  0  0  0  0  0  0  0  0
    8.0302  -14.6696   21.1084 C   0  0  2  0  0  0  0  0  0  0  0  0
    6.5647  -14.5473   20.6853 C   0  0  0  0  0  0  0  0  0  0  0  0
    8.0606  -15.2997   22.4849 C   0  0  2  0  0  0  0  0  0  0  0  0
    7.3395  -14.4234   23.3770 N   0  0  0  0  0  0  0  0  0  0  0  0
    9.4839  -15.4426   22.9146 C   0  0  0  0  0  0  0  0  0  0  0  0
   10.1341  -14.4866   23.3957 O   0  0  0  0  0  0  0  0  0  0  0  0
   10.9059  -19.1804   23.6589 O   0  0  0  0  0  0  0  0  0  0  0  0
   11.7018  -18.0989   24.0432 C   0  0  0  0  0  0  0  0  0  0  0  0
   11.4877  -16.9966   23.0599 C   0  0  2  0  0  0  0  0  0  0  0  0
   10.1152  -16.6927   22.7744 N   0  0  0  0  0  0  0  0  0  0  0  0
   12.3479  -17.1066   21.8427 C   0  0  0  0  0  0  0  0  0  0  0  0
   11.7783  -17.1126   20.7300 O   0  0  0  0  0  0  0  0  0  0  0  0
   13.7068  -17.1995   21.9777 O   0  0  0  0  0  0  0  0  0  0  0  0
  1  2  1  0
  2  3  1  0
  3  5  1  0
  3  4  1  6
  5  7  1  0
  5  6  1  1
  7  8  2  0
  9 10  1  0
 10 11  1  0
 11 13  1  0
 11 12  1  1
 13 14  1  1
 14  7  1  0
 15 16  2  0
 15 13  1  0
 17 18  1  0
 19 18  1  6
 19 20  1  0
 19 21  1  0
 20 15  1  0
 21 23  1  0
 22 21  2  0
M  END
$$$$
