IIS.pdb
     RDKit          3D

 23 22  0  0  1  0  0  0  0  0999 V2000
    8.0249  -11.8817   28.5528 C   0  0  0  0  0  0  0  0  0  0  0  0
    7.0902  -12.1719   27.4304 C   0  0  0  0  0  0  0  0  0  0  0  0
    7.5114  -13.3134   26.5351 C   0  0  2  0  0  0  0  0  0  0  0  0
    8.9260  -13.0626   26.1358 C   0  0  0  0  0  0  0  0  0  0  0  0
    6.5377  -13.4439   25.3984 C   0  0  2  0  0  0  0  0  0  0  0  0
    5.2723  -13.8958   26.0038 N   0  0  0  0  0  0  0  0  0  0  0  0
    6.9143  -14.4867   24.4128 C   0  0  0  0  0  0  0  0  0  0  0  0
    6.6097  -15.7169   24.5919 O   0  0  0  0  0  0  0  0  0  0  0  0
    7.6940  -12.7226   19.6355 C   0  0  0  0  0  0  0  0  0  0  0  0
    7.1531  -13.9100   20.4390 C   0  0  0  0  0  0  0  0  0  0  0  0
    8.3532  -14.6384   20.9744 C   0  0  2  0  0  0  0  0  0  0  0  0
    8.6835  -15.7586   19.9857 C   0  0  0  0  0  0  0  0  0  0  0  0
    8.0976  -15.2761   22.3237 C   0  0  2  0  0  0  0  0  0  0  0  0
    7.6265  -14.2382   23.2095 N   0  0  0  0  0  0  0  0  0  0  0  0
    9.3756  -15.8643   22.8251 C   0  0  0  0  0  0  0  0  0  0  0  0
   10.3429  -15.1525   23.1801 O   0  0  0  0  0  0  0  0  0  0  0  0
    9.4892  -19.3940   24.7451 O   0  0  0  0  0  0  0  0  0  0  0  0
   10.4165  -19.4138   23.7009 C   0  0  0  0  0  0  0  0  0  0  0  0
   10.6665  -18.0039   23.2795 C   0  0  2  0  0  0  0  0  0  0  0  0
    9.4971  -17.2644   22.9013 N   0  0  0  0  0  0  0  0  0  0  0  0
   11.8075  -17.8593   22.3251 C   0  0  0  0  0  0  0  0  0  0  0  0
   11.5369  -17.5767   21.1379 O   0  0  0  0  0  0  0  0  0  0  0  0
   13.0901  -18.0402   22.7676 O   0  0  0  0  0  0  0  0  0  0  0  0
  1  2  1  0
  2  3  1  0
  3  5  1  0
  3  4  1  6
  5  7  1  0
  5  6  1  1
  7  8  2  0
  9 10  1  0
 10 11  1  0
 11 13  1  0
 11 12  1  6
 13 14  1  1
 14  7  1  0
 15 16  2  0
 15 13  1  0
 17 18  1  0
 19 18  1  6
 19 20  1  0
 19 21  1  0
 20 15  1  0
 21 23  1  0
 22 21  2  0
M  END
$$$$
