IIS.pdb
     RDKit          3D

 23 22  0  0  1  0  0  0  0  0999 V2000
    6.3057  -22.2935   25.5461 C   0  0  0  0  0  0  0  0  0  0  0  0
    5.5876  -21.0026   25.3575 C   0  0  0  0  0  0  0  0  0  0  0  0
    6.4633  -19.8475   24.9322 C   0  0  2  0  0  0  0  0  0  0  0  0
    7.5882  -19.7637   25.9074 C   0  0  0  0  0  0  0  0  0  0  0  0
    5.6280  -18.6049   24.8084 C   0  0  2  0  0  0  0  0  0  0  0  0
    4.6715  -18.8712   23.7193 N   0  0  0  0  0  0  0  0  0  0  0  0
    6.4017  -17.4104   24.3896 C   0  0  0  0  0  0  0  0  0  0  0  0
    6.8000  -17.2616   23.1824 O   0  0  0  0  0  0  0  0  0  0  0  0
    5.9899  -12.5251   26.8682 C   0  0  0  0  0  0  0  0  0  0  0  0
    6.1381  -13.5017   25.6967 C   0  0  0  0  0  0  0  0  0  0  0  0
    7.4832  -14.1517   25.8573 C   0  0  2  0  0  0  0  0  0  0  0  0
    8.5410  -13.0880   25.5557 C   0  0  0  0  0  0  0  0  0  0  0  0
    7.6976  -15.3001   24.8940 C   0  0  2  0  0  0  0  0  0  0  0  0
    6.7681  -16.3444   25.2534 N   0  0  0  0  0  0  0  0  0  0  0  0
    9.1077  -15.7754   25.0219 C   0  0  0  0  0  0  0  0  0  0  0  0
    9.6103  -16.0814   26.1274 O   0  0  0  0  0  0  0  0  0  0  0  0
   11.3776  -16.2419   21.4335 O   0  0  0  0  0  0  0  0  0  0  0  0
   11.3605  -17.2428   22.4074 C   0  0  0  0  0  0  0  0  0  0  0  0
   11.1375  -16.5929   23.7325 C   0  0  2  0  0  0  0  0  0  0  0  0
    9.8978  -15.8831   23.8621 N   0  0  0  0  0  0  0  0  0  0  0  0
   12.3237  -15.8333   24.2323 C   0  0  0  0  0  0  0  0  0  0  0  0
   13.4373  -16.3986   24.1792 O   0  0  0  0  0  0  0  0  0  0  0  0
   12.1603  -14.5677   24.7271 O   0  0  0  0  0  0  0  0  0  0  0  0
  1  2  1  0
  2  3  1  0
  3  5  1  0
  3  4  1  1
  5  7  1  0
  5  6  1  6
  7  8  2  0
  9 10  1  0
 10 11  1  0
 11 13  1  0
 11 12  1  6
 13 14  1  1
 14  7  1  0
 15 16  2  0
 15 13  1  0
 17 18  1  0
 19 18  1  6
 19 20  1  0
 19 21  1  0
 20 15  1  0
 21 23  1  0
 22 21  2  0
M  END
$$$$
