IIS.pdb
     RDKit          3D

 23 22  0  0  1  0  0  0  0  0999 V2000
    6.3108  -18.0784   18.9930 C   0  0  0  0  0  0  0  0  0  0  0  0
    6.3101  -16.6912   19.5347 C   0  0  0  0  0  0  0  0  0  0  0  0
    7.0610  -16.5188   20.8342 C   0  0  2  0  0  0  0  0  0  0  0  0
    6.4688  -17.4719   21.8161 C   0  0  0  0  0  0  0  0  0  0  0  0
    7.0283  -15.0736   21.2435 C   0  0  2  0  0  0  0  0  0  0  0  0
    7.6863  -14.3326   20.1525 N   0  0  0  0  0  0  0  0  0  0  0  0
    7.8176  -14.7864   22.4663 C   0  0  0  0  0  0  0  0  0  0  0  0
    9.0974  -14.7767   22.4488 O   0  0  0  0  0  0  0  0  0  0  0  0
    5.8608  -11.5400   26.3470 C   0  0  0  0  0  0  0  0  0  0  0  0
    6.8160  -12.1784   25.3330 C   0  0  0  0  0  0  0  0  0  0  0  0
    7.2114  -13.5096   25.9066 C   0  0  2  0  0  0  0  0  0  0  0  0
    8.0752  -13.2349   27.1395 C   0  0  0  0  0  0  0  0  0  0  0  0
    8.0337  -14.3411   24.9447 C   0  0  2  0  0  0  0  0  0  0  0  0
    7.2559  -14.5017   23.7392 N   0  0  0  0  0  0  0  0  0  0  0  0
    8.3159  -15.6647   25.5763 C   0  0  0  0  0  0  0  0  0  0  0  0
    7.4017  -16.4173   25.9839 O   0  0  0  0  0  0  0  0  0  0  0  0
   12.0288  -17.4115   24.8717 O   0  0  0  0  0  0  0  0  0  0  0  0
   10.9021  -18.1551   25.2296 C   0  0  0  0  0  0  0  0  0  0  0  0
   10.1091  -17.3501   26.2048 C   0  0  2  0  0  0  0  0  0  0  0  0
    9.6532  -16.0801   25.7184 N   0  0  0  0  0  0  0  0  0  0  0  0
   10.7206  -17.2910   27.5673 C   0  0  0  0  0  0  0  0  0  0  0  0
   10.8217  -16.1686   28.1082 O   0  0  0  0  0  0  0  0  0  0  0  0
   11.1471  -18.4432   28.1707 O   0  0  0  0  0  0  0  0  0  0  0  0
  1  2  1  0
  2  3  1  0
  3  5  1  0
  3  4  1  1
  5  7  1  0
  5  6  1  6
  7  8  2  0
  9 10  1  0
 10 11  1  0
 11 13  1  0
 11 12  1  1
 13 14  1  6
 14  7  1  0
 15 16  2  0
 15 13  1  0
 17 18  1  0
 19 18  1  6
 19 20  1  0
 19 21  1  0
 20 15  1  0
 21 23  1  0
 22 21  2  0
M  END
$$$$
