IIS.pdb
     RDKit          3D

 23 22  0  0  1  0  0  0  0  0999 V2000
    6.0606  -22.3013   25.0697 C   0  0  0  0  0  0  0  0  0  0  0  0
    5.4170  -20.9798   24.8304 C   0  0  0  0  0  0  0  0  0  0  0  0
    6.3803  -19.8321   24.6391 C   0  0  2  0  0  0  0  0  0  0  0  0
    7.3435  -19.8697   25.7768 C   0  0  0  0  0  0  0  0  0  0  0  0
    5.6099  -18.5506   24.4934 C   0  0  2  0  0  0  0  0  0  0  0  0
    4.8058  -18.7029   23.2676 N   0  0  0  0  0  0  0  0  0  0  0  0
    6.4715  -17.3634   24.2717 C   0  0  0  0  0  0  0  0  0  0  0  0
    7.0179  -17.1367   23.1367 O   0  0  0  0  0  0  0  0  0  0  0  0
    5.8472  -12.6517   27.0008 C   0  0  0  0  0  0  0  0  0  0  0  0
    6.1098  -13.5879   25.8165 C   0  0  0  0  0  0  0  0  0  0  0  0
    7.4294  -14.2526   26.0892 C   0  0  2  0  0  0  0  0  0  0  0  0
    8.5128  -13.1786   25.9699 C   0  0  0  0  0  0  0  0  0  0  0  0
    7.7524  -15.3449   25.0915 C   0  0  2  0  0  0  0  0  0  0  0  0
    6.7692  -16.3884   25.2603 N   0  0  0  0  0  0  0  0  0  0  0  0
    9.1267  -15.8581   25.3716 C   0  0  0  0  0  0  0  0  0  0  0  0
    9.4300  -16.3893   26.4644 O   0  0  0  0  0  0  0  0  0  0  0  0
   10.9349  -17.4726   22.3650 O   0  0  0  0  0  0  0  0  0  0  0  0
   11.9245  -16.7369   23.0209 C   0  0  0  0  0  0  0  0  0  0  0  0
   11.4049  -16.3654   24.3699 C   0  0  2  0  0  0  0  0  0  0  0  0
   10.1135  -15.7412   24.3749 N   0  0  0  0  0  0  0  0  0  0  0  0
   12.4137  -15.6734   25.2286 C   0  0  0  0  0  0  0  0  0  0  0  0
   12.0886  -14.5779   25.7352 O   0  0  0  0  0  0  0  0  0  0  0  0
   13.6411  -16.2451   25.4291 O   0  0  0  0  0  0  0  0  0  0  0  0
  1  2  1  0
  2  3  1  0
  3  5  1  0
  3  4  1  1
  5  7  1  0
  5  6  1  6
  7  8  2  0
  9 10  1  0
 10 11  1  0
 11 13  1  0
 11 12  1  6
 13 14  1  1
 14  7  1  0
 15 16  2  0
 15 13  1  0
 17 18  1  0
 19 18  1  6
 19 20  1  0
 19 21  1  0
 20 15  1  0
 21 23  1  0
 22 21  2  0
M  END
$$$$
