IIS.pdb
     RDKit          3D

 23 22  0  0  1  0  0  0  0  0999 V2000
    8.2537  -18.5619   19.7374 C   0  0  0  0  0  0  0  0  0  0  0  0
    8.1092  -17.1099   20.0346 C   0  0  0  0  0  0  0  0  0  0  0  0
    7.1121  -16.7825   21.1212 C   0  0  2  0  0  0  0  0  0  0  0  0
    5.7981  -17.3473   20.6995 C   0  0  0  0  0  0  0  0  0  0  0  0
    7.1207  -15.3025   21.3794 C   0  0  2  0  0  0  0  0  0  0  0  0
    7.7966  -14.6965   20.2183 N   0  0  0  0  0  0  0  0  0  0  0  0
    7.9206  -14.9131   22.5666 C   0  0  0  0  0  0  0  0  0  0  0  0
    9.1924  -14.7848   22.5029 O   0  0  0  0  0  0  0  0  0  0  0  0
    5.9190  -11.5850   26.2891 C   0  0  0  0  0  0  0  0  0  0  0  0
    6.9090  -12.2324   25.3149 C   0  0  0  0  0  0  0  0  0  0  0  0
    7.3455  -13.5212   25.9520 C   0  0  2  0  0  0  0  0  0  0  0  0
    8.2165  -13.1605   27.1573 C   0  0  0  0  0  0  0  0  0  0  0  0
    8.1775  -14.3811   25.0239 C   0  0  2  0  0  0  0  0  0  0  0  0
    7.3780  -14.6506   23.8525 N   0  0  0  0  0  0  0  0  0  0  0  0
    8.5287  -15.6484   25.7318 C   0  0  0  0  0  0  0  0  0  0  0  0
    7.6626  -16.3672   26.2809 O   0  0  0  0  0  0  0  0  0  0  0  0
   12.4637  -17.1827   25.2291 O   0  0  0  0  0  0  0  0  0  0  0  0
   11.3425  -17.9990   25.3941 C   0  0  0  0  0  0  0  0  0  0  0  0
   10.3840  -17.2900   26.2921 C   0  0  2  0  0  0  0  0  0  0  0  0
    9.8772  -16.0482   25.7836 N   0  0  0  0  0  0  0  0  0  0  0  0
   10.8384  -17.2199   27.7143 C   0  0  0  0  0  0  0  0  0  0  0  0
   10.8260  -16.1010   28.2714 O   0  0  0  0  0  0  0  0  0  0  0  0
   11.2501  -18.3586   28.3524 O   0  0  0  0  0  0  0  0  0  0  0  0
  1  2  1  0
  2  3  1  0
  3  5  1  0
  3  4  1  6
  5  7  1  0
  5  6  1  6
  7  8  2  0
  9 10  1  0
 10 11  1  0
 11 13  1  0
 11 12  1  1
 13 14  1  6
 14  7  1  0
 15 16  2  0
 15 13  1  0
 17 18  1  0
 19 18  1  6
 19 20  1  0
 19 21  1  0
 20 15  1  0
 21 23  1  0
 22 21  2  0
M  END
$$$$
