IIS.pdb
     RDKit          3D

 23 22  0  0  1  0  0  0  0  0999 V2000
    6.2912  -22.3118   25.2667 C   0  0  0  0  0  0  0  0  0  0  0  0
    5.5805  -21.0117   25.1173 C   0  0  0  0  0  0  0  0  0  0  0  0
    6.4627  -19.8494   24.7264 C   0  0  2  0  0  0  0  0  0  0  0  0
    7.6081  -19.8239   25.6808 C   0  0  0  0  0  0  0  0  0  0  0  0
    5.6417  -18.5922   24.6761 C   0  0  2  0  0  0  0  0  0  0  0  0
    4.6836  -18.7825   23.5725 N   0  0  0  0  0  0  0  0  0  0  0  0
    6.4294  -17.3839   24.3293 C   0  0  0  0  0  0  0  0  0  0  0  0
    6.8759  -17.1943   23.1449 O   0  0  0  0  0  0  0  0  0  0  0  0
    6.0509  -12.6718   27.1821 C   0  0  0  0  0  0  0  0  0  0  0  0
    6.1539  -13.5747   25.9483 C   0  0  0  0  0  0  0  0  0  0  0  0
    7.5101  -14.2187   26.0093 C   0  0  2  0  0  0  0  0  0  0  0  0
    8.5458  -13.1229   25.7486 C   0  0  0  0  0  0  0  0  0  0  0  0
    7.6980  -15.2897   24.9555 C   0  0  2  0  0  0  0  0  0  0  0  0
    6.7585  -16.3474   25.2426 N   0  0  0  0  0  0  0  0  0  0  0  0
    9.1028  -15.7914   25.0280 C   0  0  0  0  0  0  0  0  0  0  0  0
    9.5995  -16.2315   26.0900 O   0  0  0  0  0  0  0  0  0  0  0  0
   11.4999  -15.7563   21.4587 O   0  0  0  0  0  0  0  0  0  0  0  0
   11.3835  -16.9011   22.2503 C   0  0  0  0  0  0  0  0  0  0  0  0
   11.1307  -16.4662   23.6556 C   0  0  2  0  0  0  0  0  0  0  0  0
    9.8948  -15.7689   23.8646 N   0  0  0  0  0  0  0  0  0  0  0  0
   12.3100  -15.8117   24.2995 C   0  0  0  0  0  0  0  0  0  0  0  0
   12.1274  -14.7064   24.8539 O   0  0  0  0  0  0  0  0  0  0  0  0
   13.5323  -16.4265   24.2617 O   0  0  0  0  0  0  0  0  0  0  0  0
  1  2  1  0
  2  3  1  0
  3  5  1  0
  3  4  1  1
  5  7  1  0
  5  6  1  6
  7  8  2  0
  9 10  1  0
 10 11  1  0
 11 13  1  0
 11 12  1  6
 13 14  1  1
 14  7  1  0
 15 16  2  0
 15 13  1  0
 17 18  1  0
 19 18  1  6
 19 20  1  0
 19 21  1  0
 20 15  1  0
 21 23  1  0
 22 21  2  0
M  END
$$$$
