IIS.pdb
     RDKit          3D

 23 22  0  0  1  0  0  0  0  0999 V2000
    6.6829  -17.9694   18.7576 C   0  0  0  0  0  0  0  0  0  0  0  0
    6.7187  -16.5702   19.2663 C   0  0  0  0  0  0  0  0  0  0  0  0
    7.3452  -16.4090   20.6314 C   0  0  2  0  0  0  0  0  0  0  0  0
    6.6573  -17.3626   21.5484 C   0  0  0  0  0  0  0  0  0  0  0  0
    7.2833  -14.9655   21.0434 C   0  0  2  0  0  0  0  0  0  0  0  0
    8.0326  -14.2221   20.0147 N   0  0  0  0  0  0  0  0  0  0  0  0
    7.9687  -14.6868   22.3292 C   0  0  0  0  0  0  0  0  0  0  0  0
    9.2454  -14.6873   22.4200 O   0  0  0  0  0  0  0  0  0  0  0  0
    5.6233  -11.6137   26.2068 C   0  0  0  0  0  0  0  0  0  0  0  0
    6.6582  -12.1776   25.2274 C   0  0  0  0  0  0  0  0  0  0  0  0
    7.0453  -13.5299   25.7555 C   0  0  2  0  0  0  0  0  0  0  0  0
    7.7895  -13.3072   27.0738 C   0  0  0  0  0  0  0  0  0  0  0  0
    7.9743  -14.2788   24.8234 C   0  0  2  0  0  0  0  0  0  0  0  0
    7.3037  -14.3998   23.5508 N   0  0  0  0  0  0  0  0  0  0  0  0
    8.2554  -15.6245   25.4070 C   0  0  0  0  0  0  0  0  0  0  0  0
    7.3483  -16.3523   25.8715 O   0  0  0  0  0  0  0  0  0  0  0  0
   12.0746  -17.3373   24.7385 O   0  0  0  0  0  0  0  0  0  0  0  0
   10.9183  -18.1016   24.9100 C   0  0  0  0  0  0  0  0  0  0  0  0
   10.0287  -17.3831   25.8693 C   0  0  2  0  0  0  0  0  0  0  0  0
    9.5833  -16.0903   25.4360 N   0  0  0  0  0  0  0  0  0  0  0  0
   10.5251  -17.4099   27.2788 C   0  0  0  0  0  0  0  0  0  0  0  0
   10.8404  -18.5195   27.7604 O   0  0  0  0  0  0  0  0  0  0  0  0
   10.6153  -16.2435   27.9892 O   0  0  0  0  0  0  0  0  0  0  0  0
  1  2  1  0
  2  3  1  0
  3  5  1  0
  3  4  1  1
  5  7  1  0
  5  6  1  6
  7  8  2  0
  9 10  1  0
 10 11  1  0
 11 13  1  0
 11 12  1  1
 13 14  1  6
 14  7  1  0
 15 16  2  0
 15 13  1  0
 17 18  1  0
 19 18  1  6
 19 20  1  0
 19 21  1  0
 20 15  1  0
 21 23  1  0
 22 21  2  0
M  END
$$$$
