KIG.pdb
     RDKit          3D

 22 21  0  0  1  0  0  0  0  0999 V2000
   25.8133  -19.0549  -13.5580 N   0  0  0  0  0  0  0  0  0  0  0  0
   26.9628  -19.8824  -13.7083 C   0  0  1  0  0  0  0  0  0  0  0  0
   28.1747  -19.2161  -14.2542 C   0  0  0  0  0  0  0  0  0  0  0  0
   28.0564  -18.8051  -15.6786 C   0  0  0  0  0  0  0  0  0  0  0  0
   27.0161  -17.7786  -15.9724 C   0  0  0  0  0  0  0  0  0  0  0  0
   27.7216  -16.4490  -16.2940 C   0  0  0  0  0  0  0  0  0  0  0  0
   26.7466  -15.4689  -16.7170 N   0  0  0  0  0  0  0  0  0  0  0  0
   27.2296  -20.5899  -12.4261 C   0  0  0  0  0  0  0  0  0  0  0  0
   28.0609  -21.5598  -12.4801 O   0  0  0  0  0  0  0  0  0  0  0  0
   26.9522  -19.1051   -7.0587 C   0  0  0  0  0  0  0  0  0  0  0  0
   26.4724  -19.4826   -8.4088 C   0  0  0  0  0  0  0  0  0  0  0  0
   26.7779  -20.8640   -8.8902 C   0  0  2  0  0  0  0  0  0  0  0  0
   28.3090  -20.8875   -9.0776 C   0  0  0  0  0  0  0  0  0  0  0  0
   26.1863  -21.2043  -10.2486 C   0  0  2  0  0  0  0  0  0  0  0  0
   26.5983  -20.2054  -11.2302 N   0  0  0  0  0  0  0  0  0  0  0  0
   24.7100  -21.0972  -10.1208 C   0  0  0  0  0  0  0  0  0  0  0  0
   24.1734  -21.8681   -9.2395 O   0  0  0  0  0  0  0  0  0  0  0  0
   23.8782  -20.2448  -10.8581 N   0  0  0  0  0  0  0  0  0  0  0  0
   22.4500  -20.2063  -10.4878 C   0  0  0  0  0  0  0  0  0  0  0  0
   21.6369  -20.9637  -11.4406 C   0  0  0  0  0  0  0  0  0  0  0  0
   22.2036  -21.6099  -12.3519 O   0  0  0  0  0  0  0  0  0  0  0  0
   20.2736  -20.9548  -11.3222 O   0  0  0  0  0  0  0  0  0  0  0  0
  2  1  1  1
  3  2  1  0
  4  3  1  0
  5  4  1  0
  6  5  1  0
  7  6  1  0
  8  2  1  0
  8  9  2  0
 11 10  1  0
 12 11  1  0
 12 13  1  6
 14 15  1  6
 14 12  1  0
 15  8  1  0
 16 14  1  0
 17 16  2  0
 18 16  1  0
 19 18  1  0
 20 19  1  0
 20 22  1  0
 21 20  2  0
M  END
$$$$
