KIG.pdb
     RDKit          3D

 22 21  0  0  1  0  0  0  0  0999 V2000
   21.4371  -11.8329  -18.9078 N   0  0  0  0  0  0  0  0  0  0  0  0
   20.5113  -11.6172  -17.8471 C   0  0  1  0  0  0  0  0  0  0  0  0
   19.7018  -12.7971  -17.4429 C   0  0  0  0  0  0  0  0  0  0  0  0
   19.3941  -13.7364  -18.5541 C   0  0  0  0  0  0  0  0  0  0  0  0
   18.5599  -14.9176  -18.1917 C   0  0  0  0  0  0  0  0  0  0  0  0
   18.4016  -15.8030  -19.4407 C   0  0  0  0  0  0  0  0  0  0  0  0
   17.7495  -17.0422  -19.0810 N   0  0  0  0  0  0  0  0  0  0  0  0
   21.2191  -10.9902  -16.6975 C   0  0  0  0  0  0  0  0  0  0  0  0
   20.5657  -10.9266  -15.6004 O   0  0  0  0  0  0  0  0  0  0  0  0
   26.6386  -11.8861  -16.1488 C   0  0  0  0  0  0  0  0  0  0  0  0
   25.2002  -11.6250  -15.9070 C   0  0  0  0  0  0  0  0  0  0  0  0
   24.7532  -10.1994  -15.8672 C   0  0  2  0  0  0  0  0  0  0  0  0
   25.4359   -9.6062  -14.6174 C   0  0  0  0  0  0  0  0  0  0  0  0
   23.2596  -10.0120  -15.6550 C   0  0  2  0  0  0  0  0  0  0  0  0
   22.5306  -10.4994  -16.8220 N   0  0  0  0  0  0  0  0  0  0  0  0
   23.0106   -8.5497  -15.5731 C   0  0  0  0  0  0  0  0  0  0  0  0
   23.4899   -7.9641  -14.5308 O   0  0  0  0  0  0  0  0  0  0  0  0
   22.3198   -7.7769  -16.5152 N   0  0  0  0  0  0  0  0  0  0  0  0
   22.2940   -6.3164  -16.3042 C   0  0  0  0  0  0  0  0  0  0  0  0
   21.1449   -5.9209  -15.4883 C   0  0  0  0  0  0  0  0  0  0  0  0
   20.9672   -4.7088  -15.2268 O   0  0  0  0  0  0  0  0  0  0  0  0
   20.2841   -6.8784  -15.0245 O   0  0  0  0  0  0  0  0  0  0  0  0
  2  1  1  6
  3  2  1  0
  4  3  1  0
  5  4  1  0
  6  5  1  0
  7  6  1  0
  8  2  1  0
  8  9  2  0
 11 10  1  0
 12 11  1  0
 12 13  1  1
 14 15  1  6
 14 12  1  0
 15  8  1  0
 16 14  1  0
 17 16  2  0
 18 16  1  0
 19 18  1  0
 20 19  1  0
 20 22  1  0
 21 20  2  0
M  END
$$$$
