KIG.pdb
     RDKit          3D

 22 21  0  0  1  0  0  0  0  0999 V2000
   25.6467  -21.7944  -11.8272 N   0  0  0  0  0  0  0  0  0  0  0  0
   25.1170  -21.4272  -13.0974 C   0  0  1  0  0  0  0  0  0  0  0  0
   23.8990  -22.1625  -13.5292 C   0  0  0  0  0  0  0  0  0  0  0  0
   24.1731  -23.3560  -14.3731 C   0  0  0  0  0  0  0  0  0  0  0  0
   25.2862  -23.2137  -15.3545 C   0  0  0  0  0  0  0  0  0  0  0  0
   25.3383  -24.4861  -16.2189 C   0  0  0  0  0  0  0  0  0  0  0  0
   26.5018  -24.4465  -17.0762 N   0  0  0  0  0  0  0  0  0  0  0  0
   24.9391  -19.9502  -13.1469 C   0  0  0  0  0  0  0  0  0  0  0  0
   24.5712  -19.3902  -12.0580 O   0  0  0  0  0  0  0  0  0  0  0  0
   27.1195  -15.0096  -16.1340 C   0  0  0  0  0  0  0  0  0  0  0  0
   26.0780  -15.6725  -15.3146 C   0  0  0  0  0  0  0  0  0  0  0  0
   26.1308  -17.1617  -15.2015 C   0  0  2  0  0  0  0  0  0  0  0  0
   25.8875  -17.6756  -16.6356 C   0  0  0  0  0  0  0  0  0  0  0  0
   25.0291  -17.7694  -14.3482 C   0  0  2  0  0  0  0  0  0  0  0  0
   25.1654  -19.2226  -14.3284 N   0  0  0  0  0  0  0  0  0  0  0  0
   23.7395  -17.4682  -15.0215 C   0  0  0  0  0  0  0  0  0  0  0  0
   23.3653  -16.2366  -14.9753 O   0  0  0  0  0  0  0  0  0  0  0  0
   22.9227  -18.3900  -15.6886 N   0  0  0  0  0  0  0  0  0  0  0  0
   21.6390  -17.8945  -16.2224 C   0  0  0  0  0  0  0  0  0  0  0  0
   21.6844  -17.7747  -17.6805 C   0  0  0  0  0  0  0  0  0  0  0  0
   22.7433  -18.0597  -18.2861 O   0  0  0  0  0  0  0  0  0  0  0  0
   20.5726  -17.3543  -18.3588 O   0  0  0  0  0  0  0  0  0  0  0  0
  2  1  1  1
  3  2  1  0
  4  3  1  0
  5  4  1  0
  6  5  1  0
  7  6  1  0
  8  2  1  0
  8  9  2  0
 11 10  1  0
 12 11  1  0
 12 13  1  6
 14 15  1  6
 14 12  1  0
 15  8  1  0
 16 14  1  0
 17 16  2  0
 18 16  1  0
 19 18  1  0
 20 19  1  0
 20 22  1  0
 21 20  2  0
M  END
$$$$
