KIG.pdb
     RDKit          3D

 22 21  0  0  1  0  0  0  0  0999 V2000
   21.3981  -12.5915  -18.5909 N   0  0  0  0  0  0  0  0  0  0  0  0
   21.3677  -11.1779  -18.4194 C   0  0  1  0  0  0  0  0  0  0  0  0
   20.1769  -10.4826  -18.9757 C   0  0  0  0  0  0  0  0  0  0  0  0
   19.4178  -11.2778  -19.9773 C   0  0  0  0  0  0  0  0  0  0  0  0
   18.2226  -10.6082  -20.5651 C   0  0  0  0  0  0  0  0  0  0  0  0
   17.5726  -11.5714  -21.5744 C   0  0  0  0  0  0  0  0  0  0  0  0
   16.4673  -10.9136  -22.2346 N   0  0  0  0  0  0  0  0  0  0  0  0
   21.6004  -10.8520  -16.9857 C   0  0  0  0  0  0  0  0  0  0  0  0
   20.8351  -11.4354  -16.1439 O   0  0  0  0  0  0  0  0  0  0  0  0
   26.7749  -10.0455  -15.5925 C   0  0  0  0  0  0  0  0  0  0  0  0
   25.3558   -9.7153  -15.8623 C   0  0  0  0  0  0  0  0  0  0  0  0
   24.3338  -10.2096  -14.8903 C   0  0  2  0  0  0  0  0  0  0  0  0
   24.3265  -11.7417  -15.0699 C   0  0  0  0  0  0  0  0  0  0  0  0
   22.9139   -9.7491  -15.1787 C   0  0  2  0  0  0  0  0  0  0  0  0
   22.6066   -9.9529  -16.5911 N   0  0  0  0  0  0  0  0  0  0  0  0
   22.8730   -8.2837  -14.9375 C   0  0  0  0  0  0  0  0  0  0  0  0
   23.8387   -7.8125  -14.2274 O   0  0  0  0  0  0  0  0  0  0  0  0
   21.8979   -7.3970  -15.4118 N   0  0  0  0  0  0  0  0  0  0  0  0
   22.0058   -5.9858  -14.9933 C   0  0  0  0  0  0  0  0  0  0  0  0
   21.0674   -5.1419  -15.7349 C   0  0  0  0  0  0  0  0  0  0  0  0
   20.3223   -5.6641  -16.5958 O   0  0  0  0  0  0  0  0  0  0  0  0
   21.0181   -3.7986  -15.4774 O   0  0  0  0  0  0  0  0  0  0  0  0
  2  1  1  1
  3  2  1  0
  4  3  1  0
  5  4  1  0
  6  5  1  0
  7  6  1  0
  8  2  1  0
  8  9  2  0
 11 10  1  0
 12 11  1  0
 12 13  1  6
 14 15  1  6
 14 12  1  0
 15  8  1  0
 16 14  1  0
 17 16  2  0
 18 16  1  0
 19 18  1  0
 20 19  1  0
 20 22  1  0
 21 20  2  0
M  END
$$$$
