KIG.pdb
     RDKit          3D

 22 21  0  0  1  0  0  0  0  0999 V2000
   20.9023  -20.9196  -11.4673 N   0  0  0  0  0  0  0  0  0  0  0  0
   21.6596  -21.0622  -12.6651 C   0  0  1  0  0  0  0  0  0  0  0  0
   20.9450  -20.7346  -13.9271 C   0  0  0  0  0  0  0  0  0  0  0  0
   19.7079  -21.5289  -14.1524 C   0  0  0  0  0  0  0  0  0  0  0  0
   19.0060  -21.2823  -15.4443 C   0  0  0  0  0  0  0  0  0  0  0  0
   17.7020  -22.1000  -15.4531 C   0  0  0  0  0  0  0  0  0  0  0  0
   16.5967  -21.2519  -15.8394 N   0  0  0  0  0  0  0  0  0  0  0  0
   22.9421  -20.3193  -12.5266 C   0  0  0  0  0  0  0  0  0  0  0  0
   22.9065  -19.2630  -11.8073 O   0  0  0  0  0  0  0  0  0  0  0  0
   25.5446  -21.3703  -10.3216 C   0  0  0  0  0  0  0  0  0  0  0  0
   26.7249  -21.1073  -11.1779 C   0  0  0  0  0  0  0  0  0  0  0  0
   26.4947  -20.9625  -12.6475 C   0  0  2  0  0  0  0  0  0  0  0  0
   27.7861  -20.3140  -13.1875 C   0  0  0  0  0  0  0  0  0  0  0  0
   25.3654  -20.0151  -13.0191 C   0  0  2  0  0  0  0  0  0  0  0  0
   24.1190  -20.7628  -13.1550 N   0  0  0  0  0  0  0  0  0  0  0  0
   25.6831  -19.4626  -14.3611 C   0  0  0  0  0  0  0  0  0  0  0  0
   25.5969  -20.2976  -15.3380 O   0  0  0  0  0  0  0  0  0  0  0  0
   26.0538  -18.1414  -14.6421 N   0  0  0  0  0  0  0  0  0  0  0  0
   26.0934  -17.7370  -16.0610 C   0  0  0  0  0  0  0  0  0  0  0  0
   27.4471  -17.8531  -16.6056 C   0  0  0  0  0  0  0  0  0  0  0  0
   28.3510  -18.3556  -15.8987 O   0  0  0  0  0  0  0  0  0  0  0  0
   27.7046  -17.4122  -17.8753 O   0  0  0  0  0  0  0  0  0  0  0  0
  2  1  1  1
  3  2  1  0
  4  3  1  0
  5  4  1  0
  6  5  1  0
  7  6  1  0
  8  2  1  0
  8  9  2  0
 11 10  1  0
 12 11  1  0
 12 13  1  6
 14 15  1  6
 14 12  1  0
 15  8  1  0
 16 14  1  0
 17 16  2  0
 18 16  1  0
 19 18  1  0
 20 19  1  0
 20 22  1  0
 21 20  2  0
M  END
$$$$
