KIG.pdb
     RDKit          3D

 22 21  0  0  1  0  0  0  0  0999 V2000
   20.6719  -19.9307  -13.5735 N   0  0  0  0  0  0  0  0  0  0  0  0
   21.5280  -20.9457  -13.0581 C   0  0  1  0  0  0  0  0  0  0  0  0
   21.7032  -22.1451  -13.9192 C   0  0  0  0  0  0  0  0  0  0  0  0
   21.7591  -21.8487  -15.3755 C   0  0  0  0  0  0  0  0  0  0  0  0
   23.1213  -21.6300  -15.9403 C   0  0  0  0  0  0  0  0  0  0  0  0
   22.9824  -21.3331  -17.4442 C   0  0  0  0  0  0  0  0  0  0  0  0
   23.4347  -22.4727  -18.2104 N   0  0  0  0  0  0  0  0  0  0  0  0
   22.8259  -20.3367  -12.6575 C   0  0  0  0  0  0  0  0  0  0  0  0
   23.0818  -19.1834  -13.1465 O   0  0  0  0  0  0  0  0  0  0  0  0
   26.2779  -19.4488   -8.0860 C   0  0  0  0  0  0  0  0  0  0  0  0
   26.5005  -20.1896   -9.3498 C   0  0  0  0  0  0  0  0  0  0  0  0
   25.3239  -20.8740   -9.9668 C   0  0  2  0  0  0  0  0  0  0  0  0
   25.7800  -22.3329  -10.1751 C   0  0  0  0  0  0  0  0  0  0  0  0
   24.9429  -20.3555  -11.3442 C   0  0  2  0  0  0  0  0  0  0  0  0
   23.7118  -21.0003  -11.7907 N   0  0  0  0  0  0  0  0  0  0  0  0
   26.0143  -20.7797  -12.2818 C   0  0  0  0  0  0  0  0  0  0  0  0
   26.6208  -21.8728  -11.9712 O   0  0  0  0  0  0  0  0  0  0  0  0
   26.4038  -20.1075  -13.4474 N   0  0  0  0  0  0  0  0  0  0  0  0
   27.5284  -20.6783  -14.2139 C   0  0  0  0  0  0  0  0  0  0  0  0
   27.8319  -19.8640  -15.3918 C   0  0  0  0  0  0  0  0  0  0  0  0
   27.1212  -18.8641  -15.6450 O   0  0  0  0  0  0  0  0  0  0  0  0
   28.8846  -20.2061  -16.1966 O   0  0  0  0  0  0  0  0  0  0  0  0
  2  1  1  6
  3  2  1  0
  4  3  1  0
  5  4  1  0
  6  5  1  0
  7  6  1  0
  8  2  1  0
  8  9  2  0
 11 10  1  0
 12 11  1  0
 12 13  1  6
 14 15  1  6
 14 12  1  0
 15  8  1  0
 16 14  1  0
 17 16  2  0
 18 16  1  0
 19 18  1  0
 20 19  1  0
 20 22  1  0
 21 20  2  0
M  END
$$$$
