KIG.pdb
     RDKit          3D

 22 21  0  0  1  0  0  0  0  0999 V2000
   27.2311  -20.8684  -17.1590 N   0  0  0  0  0  0  0  0  0  0  0  0
   26.3297  -20.0399  -16.4312 C   0  0  1  0  0  0  0  0  0  0  0  0
   25.1690  -19.5145  -17.1978 C   0  0  0  0  0  0  0  0  0  0  0  0
   25.3680  -19.4967  -18.6716 C   0  0  0  0  0  0  0  0  0  0  0  0
   26.4708  -18.6238  -19.1659 C   0  0  0  0  0  0  0  0  0  0  0  0
   26.4341  -18.6181  -20.7046 C   0  0  0  0  0  0  0  0  0  0  0  0
   27.6045  -17.9423  -21.2182 N   0  0  0  0  0  0  0  0  0  0  0  0
   25.9193  -20.7388  -15.1827 C   0  0  0  0  0  0  0  0  0  0  0  0
   25.5925  -21.9687  -15.3069 O   0  0  0  0  0  0  0  0  0  0  0  0
   28.3151  -21.6213  -11.9446 C   0  0  0  0  0  0  0  0  0  0  0  0
   27.7242  -20.2972  -11.6394 C   0  0  0  0  0  0  0  0  0  0  0  0
   26.2359  -20.2117  -11.5336 C   0  0  2  0  0  0  0  0  0  0  0  0
   25.8720  -21.1192  -10.3404 C   0  0  0  0  0  0  0  0  0  0  0  0
   25.4848  -20.7742  -12.7297 C   0  0  2  0  0  0  0  0  0  0  0  0
   25.8961  -20.0752  -13.9435 N   0  0  0  0  0  0  0  0  0  0  0  0
   24.0456  -20.4679  -12.5246 C   0  0  0  0  0  0  0  0  0  0  0  0
   23.7924  -19.3085  -12.0240 O   0  0  0  0  0  0  0  0  0  0  0  0
   22.9712  -21.3137  -12.8284 N   0  0  0  0  0  0  0  0  0  0  0  0
   21.6150  -20.8250  -12.5119 C   0  0  0  0  0  0  0  0  0  0  0  0
   20.5957  -21.7897  -12.9278 C   0  0  0  0  0  0  0  0  0  0  0  0
   20.9481  -22.8386  -13.5149 O   0  0  0  0  0  0  0  0  0  0  0  0
   19.2766  -21.5322  -12.6698 O   0  0  0  0  0  0  0  0  0  0  0  0
  2  1  1  6
  3  2  1  0
  4  3  1  0
  5  4  1  0
  6  5  1  0
  7  6  1  0
  8  2  1  0
  8  9  2  0
 11 10  1  0
 12 11  1  0
 12 13  1  1
 14 15  1  6
 14 12  1  0
 15  8  1  0
 16 14  1  0
 17 16  2  0
 18 16  1  0
 19 18  1  0
 20 19  1  0
 20 22  1  0
 21 20  2  0
M  END
$$$$
