KIG.pdb
     RDKit          3D

 22 21  0  0  1  0  0  0  0  0999 V2000
   27.6214  -22.1893  -16.7344 N   0  0  0  0  0  0  0  0  0  0  0  0
   27.0529  -21.0634  -16.0727 C   0  0  1  0  0  0  0  0  0  0  0  0
   26.1375  -20.2245  -16.8906 C   0  0  0  0  0  0  0  0  0  0  0  0
   26.4382  -20.2339  -18.3471 C   0  0  0  0  0  0  0  0  0  0  0  0
   26.6197  -18.8963  -18.9798 C   0  0  0  0  0  0  0  0  0  0  0  0
   26.8185  -19.0968  -20.4928 C   0  0  0  0  0  0  0  0  0  0  0  0
   27.0403  -17.8179  -21.1296 N   0  0  0  0  0  0  0  0  0  0  0  0
   26.4313  -21.5069  -14.7950 C   0  0  0  0  0  0  0  0  0  0  0  0
   25.7281  -22.5733  -14.8509 O   0  0  0  0  0  0  0  0  0  0  0  0
   29.2687  -20.9025  -10.2293 C   0  0  0  0  0  0  0  0  0  0  0  0
   28.2590  -21.4730  -11.1515 C   0  0  0  0  0  0  0  0  0  0  0  0
   26.9095  -20.8315  -11.1821 C   0  0  2  0  0  0  0  0  0  0  0  0
   26.2009  -21.3414   -9.9102 C   0  0  0  0  0  0  0  0  0  0  0  0
   26.0331  -21.2602  -12.3480 C   0  0  2  0  0  0  0  0  0  0  0  0
   26.6134  -20.7871  -13.6011 N   0  0  0  0  0  0  0  0  0  0  0  0
   24.7282  -20.5677  -12.1906 C   0  0  0  0  0  0  0  0  0  0  0  0
   24.7574  -19.2895  -12.3471 O   0  0  0  0  0  0  0  0  0  0  0  0
   23.5012  -21.1772  -11.8988 N   0  0  0  0  0  0  0  0  0  0  0  0
   22.3078  -20.3099  -11.8578 C   0  0  0  0  0  0  0  0  0  0  0  0
   21.2881  -20.7698  -12.8019 C   0  0  0  0  0  0  0  0  0  0  0  0
   21.5799  -21.6602  -13.6333 O   0  0  0  0  0  0  0  0  0  0  0  0
   20.0346  -20.2219  -12.7624 O   0  0  0  0  0  0  0  0  0  0  0  0
  2  1  1  6
  3  2  1  0
  4  3  1  0
  5  4  1  0
  6  5  1  0
  7  6  1  0
  8  2  1  0
  8  9  2  0
 11 10  1  0
 12 11  1  0
 12 13  1  1
 14 15  1  6
 14 12  1  0
 15  8  1  0
 16 14  1  0
 17 16  2  0
 18 16  1  0
 19 18  1  0
 20 19  1  0
 20 22  1  0
 21 20  2  0
M  END
$$$$
