MLL.pdb
     RDKit          3D

 25 24  0  0  1  0  0  0  0  0999 V2000
    6.9549  -17.7982   27.9333 C   0  0  0  0  0  0  0  0  0  0  0  0
    6.2826  -19.2079   26.9969 S   0  0  0  0  0  0  0  0  0  0  0  0
    6.9499  -19.2240   25.3097 C   0  0  0  0  0  0  0  0  0  0  0  0
    5.9737  -18.5155   24.4263 C   0  0  0  0  0  0  0  0  0  0  0  0
    6.3548  -18.4872   22.9838 C   0  0  2  0  0  0  0  0  0  0  0  0
    6.5053  -19.8235   22.4719 N   0  0  0  0  0  0  0  0  0  0  0  0
    7.5886  -17.7087   22.7101 C   0  0  0  0  0  0  0  0  0  0  0  0
    8.6966  -18.2987   22.6135 O   0  0  0  0  0  0  0  0  0  0  0  0
    7.9266  -14.7495   19.5161 C   0  0  0  0  0  0  0  0  0  0  0  0
    7.3145  -14.1471   20.7366 C   0  0  2  0  0  0  0  0  0  0  0  0
    6.6900  -12.8044   20.4936 C   0  0  0  0  0  0  0  0  0  0  0  0
    8.3167  -14.1223   21.8662 C   0  0  0  0  0  0  0  0  0  0  0  0
    8.7668  -15.5068   22.2534 C   0  0  2  0  0  0  0  0  0  0  0  0
    7.5963  -16.3007   22.5458 N   0  0  0  0  0  0  0  0  0  0  0  0
    9.7084  -15.4728   23.4109 C   0  0  0  0  0  0  0  0  0  0  0  0
   10.7996  -14.8542   23.3016 O   0  0  0  0  0  0  0  0  0  0  0  0
    8.6657  -14.2125   29.1266 C   0  0  0  0  0  0  0  0  0  0  0  0
    9.7310  -14.6197   28.1296 C   0  0  2  0  0  0  0  0  0  0  0  0
   10.8398  -13.6171   28.1524 C   0  0  0  0  0  0  0  0  0  0  0  0
    9.2416  -15.0982   26.8304 C   0  0  0  0  0  0  0  0  0  0  0  0
   10.1795  -15.6986   25.8526 C   0  0  2  0  0  0  0  0  0  0  0  0
    9.4298  -16.1101   24.6395 N   0  0  0  0  0  0  0  0  0  0  0  0
   10.9443  -16.8689   26.2682 C   0  0  0  0  0  0  0  0  0  0  0  0
   11.6560  -16.8744   27.2950 O   0  0  0  0  0  0  0  0  0  0  0  0
   10.8840  -18.0385   25.4911 O   0  0  0  0  0  0  0  0  0  0  0  0
  2  3  1  0
  2  1  1  0
  3  4  1  0
  4  5  1  0
  5  6  1  1
  7  8  2  0
  7  5  1  0
 10  9  1  6
 10 12  1  0
 11 10  1  0
 13 12  1  1
 13 14  1  0
 14  7  1  0
 15 13  1  0
 16 15  2  0
 18 19  1  6
 18 17  1  0
 21 20  1  1
 20 18  1  0
 21 22  1  0
 22 15  1  0
 23 25  1  0
 23 21  1  0
 24 23  2  0
M  END
$$$$
