MLL.pdb
     RDKit          3D

 25 24  0  0  1  0  0  0  0  0999 V2000
    7.9003  -12.4908   18.0132 C   0  0  0  0  0  0  0  0  0  0  0  0
    7.3678  -14.1280   17.4197 S   0  0  0  0  0  0  0  0  0  0  0  0
    7.4911  -15.3554   18.7504 C   0  0  0  0  0  0  0  0  0  0  0  0
    8.7282  -15.0553   19.5344 C   0  0  0  0  0  0  0  0  0  0  0  0
    8.8923  -15.8799   20.7673 C   0  0  2  0  0  0  0  0  0  0  0  0
    7.7102  -16.6616   21.0167 N   0  0  0  0  0  0  0  0  0  0  0  0
    9.2250  -15.0837   21.9751 C   0  0  0  0  0  0  0  0  0  0  0  0
   10.3394  -14.5040   22.0595 O   0  0  0  0  0  0  0  0  0  0  0  0
    6.1820  -12.7300   26.8213 C   0  0  0  0  0  0  0  0  0  0  0  0
    7.4536  -12.8508   26.0496 C   0  0  2  0  0  0  0  0  0  0  0  0
    7.9607  -11.5411   25.5210 C   0  0  0  0  0  0  0  0  0  0  0  0
    7.3112  -13.8945   24.9672 C   0  0  0  0  0  0  0  0  0  0  0  0
    8.6141  -14.1543   24.2573 C   0  0  2  0  0  0  0  0  0  0  0  0
    8.3391  -14.9313   23.0713 N   0  0  0  0  0  0  0  0  0  0  0  0
    9.5950  -14.8424   25.1472 C   0  0  0  0  0  0  0  0  0  0  0  0
   10.7219  -14.3176   25.3470 O   0  0  0  0  0  0  0  0  0  0  0  0
   10.6121  -13.9519   28.2685 C   0  0  0  0  0  0  0  0  0  0  0  0
    9.5641  -15.0153   28.5252 C   0  0  2  0  0  0  0  0  0  0  0  0
    8.9755  -14.8127   29.8844 C   0  0  0  0  0  0  0  0  0  0  0  0
    9.9200  -16.3776   28.1083 C   0  0  0  0  0  0  0  0  0  0  0  0
   10.3221  -16.6505   26.7083 C   0  0  2  0  0  0  0  0  0  0  0  0
    9.3153  -16.0708   25.7846 N   0  0  0  0  0  0  0  0  0  0  0  0
   10.4851  -18.0419   26.3024 C   0  0  0  0  0  0  0  0  0  0  0  0
    9.7881  -18.5649   25.4072 O   0  0  0  0  0  0  0  0  0  0  0  0
   11.4605  -18.8310   26.9360 O   0  0  0  0  0  0  0  0  0  0  0  0
  2  3  1  0
  2  1  1  0
  3  4  1  0
  4  5  1  0
  5  6  1  1
  7  8  2  0
  7  5  1  0
 10  9  1  6
 10 12  1  0
 11 10  1  0
 13 12  1  1
 13 14  1  0
 14  7  1  0
 15 13  1  0
 16 15  2  0
 18 19  1  1
 18 17  1  0
 21 20  1  1
 20 18  1  0
 21 22  1  0
 22 15  1  0
 23 25  1  0
 23 21  1  0
 24 23  2  0
M  END
$$$$
