MLL.pdb
     RDKit          3D

 25 24  0  0  1  0  0  0  0  0999 V2000
    8.3449  -12.4961   18.3062 C   0  0  0  0  0  0  0  0  0  0  0  0
    7.4766  -13.9979   17.7527 S   0  0  0  0  0  0  0  0  0  0  0  0
    7.5520  -15.2817   19.0328 C   0  0  0  0  0  0  0  0  0  0  0  0
    8.0835  -14.6514   20.2800 C   0  0  0  0  0  0  0  0  0  0  0  0
    8.2978  -15.6033   21.4091 C   0  0  2  0  0  0  0  0  0  0  0  0
    7.0603  -16.2358   21.7821 N   0  0  0  0  0  0  0  0  0  0  0  0
    8.9158  -14.9777   22.6049 C   0  0  0  0  0  0  0  0  0  0  0  0
   10.0938  -14.5372   22.5468 O   0  0  0  0  0  0  0  0  0  0  0  0
    7.1320  -11.7002   24.7752 C   0  0  0  0  0  0  0  0  0  0  0  0
    6.5240  -12.9653   25.2821 C   0  0  2  0  0  0  0  0  0  0  0  0
    5.3471  -12.7444   26.1865 C   0  0  0  0  0  0  0  0  0  0  0  0
    7.5827  -13.8375   25.9142 C   0  0  0  0  0  0  0  0  0  0  0  0
    8.7348  -14.0962   24.9788 C   0  0  2  0  0  0  0  0  0  0  0  0
    8.2415  -14.8416   23.8444 N   0  0  0  0  0  0  0  0  0  0  0  0
    9.8468  -14.8167   25.6656 C   0  0  0  0  0  0  0  0  0  0  0  0
   10.9005  -14.1922   25.9573 O   0  0  0  0  0  0  0  0  0  0  0  0
   11.1521  -14.4229   28.6876 C   0  0  0  0  0  0  0  0  0  0  0  0
   10.2432  -15.6214   28.8678 C   0  0  2  0  0  0  0  0  0  0  0  0
    9.8341  -15.7215   30.3022 C   0  0  0  0  0  0  0  0  0  0  0  0
   10.6512  -16.8447   28.1654 C   0  0  0  0  0  0  0  0  0  0  0  0
   10.9186  -16.8167   26.7080 C   0  0  2  0  0  0  0  0  0  0  0  0
    9.7722  -16.1842   26.0088 N   0  0  0  0  0  0  0  0  0  0  0  0
   11.1504  -18.0874   26.0306 C   0  0  0  0  0  0  0  0  0  0  0  0
   10.4398  -18.4800   25.0809 O   0  0  0  0  0  0  0  0  0  0  0  0
   12.2105  -18.9069   26.4548 O   0  0  0  0  0  0  0  0  0  0  0  0
  2  3  1  0
  2  1  1  0
  3  4  1  0
  4  5  1  0
  5  6  1  1
  7  8  2  0
  7  5  1  0
 10  9  1  1
 10 12  1  0
 11 10  1  0
 13 12  1  1
 13 14  1  0
 14  7  1  0
 15 13  1  0
 16 15  2  0
 18 19  1  1
 18 17  1  0
 21 20  1  1
 20 18  1  0
 21 22  1  0
 22 15  1  0
 23 25  1  0
 23 21  1  0
 24 23  2  0
M  END
$$$$
