MLL.pdb
     RDKit          3D

 25 24  0  0  1  0  0  0  0  0999 V2000
   12.7926  -19.4513   17.4720 C   0  0  0  0  0  0  0  0  0  0  0  0
   11.1781  -20.2667   17.2610 S   0  0  0  0  0  0  0  0  0  0  0  0
   10.1682  -20.0693   18.7555 C   0  0  0  0  0  0  0  0  0  0  0  0
   10.4743  -18.7271   19.3387 C   0  0  0  0  0  0  0  0  0  0  0  0
    9.8017  -18.4529   20.6423 C   0  0  2  0  0  0  0  0  0  0  0  0
    8.3891  -18.7111   20.5491 N   0  0  0  0  0  0  0  0  0  0  0  0
   10.0224  -17.0745   21.1468 C   0  0  0  0  0  0  0  0  0  0  0  0
   11.1941  -16.6461   21.3154 O   0  0  0  0  0  0  0  0  0  0  0  0
    9.1072  -13.0492   19.6237 C   0  0  0  0  0  0  0  0  0  0  0  0
    7.8848  -13.7848   20.0619 C   0  0  2  0  0  0  0  0  0  0  0  0
    6.6050  -13.1352   19.6237 C   0  0  0  0  0  0  0  0  0  0  0  0
    7.9279  -14.0298   21.5516 C   0  0  0  0  0  0  0  0  0  0  0  0
    9.1318  -14.8394   21.9569 C   0  0  2  0  0  0  0  0  0  0  0  0
    8.9640  -16.1848   21.4595 N   0  0  0  0  0  0  0  0  0  0  0  0
    9.3298  -14.8233   23.4362 C   0  0  0  0  0  0  0  0  0  0  0  0
   10.4367  -14.4515   23.9073 O   0  0  0  0  0  0  0  0  0  0  0  0
    8.2012  -11.9927   26.5302 C   0  0  0  0  0  0  0  0  0  0  0  0
    7.1586  -13.0120   26.1192 C   0  0  2  0  0  0  0  0  0  0  0  0
    5.7962  -12.4779   26.4252 C   0  0  0  0  0  0  0  0  0  0  0  0
    7.4600  -14.4082   26.4601 C   0  0  0  0  0  0  0  0  0  0  0  0
    8.5855  -15.1127   25.8020 C   0  0  2  0  0  0  0  0  0  0  0  0
    8.3209  -15.2105   24.3448 N   0  0  0  0  0  0  0  0  0  0  0  0
    8.8975  -16.4668   26.2451 C   0  0  0  0  0  0  0  0  0  0  0  0
    9.1567  -16.7390   27.4366 O   0  0  0  0  0  0  0  0  0  0  0  0
    8.9088  -17.5105   25.3038 O   0  0  0  0  0  0  0  0  0  0  0  0
  2  3  1  0
  2  1  1  0
  3  4  1  0
  4  5  1  0
  5  6  1  6
  7  8  2  0
  7  5  1  0
 10  9  1  1
 10 12  1  0
 11 10  1  0
 13 12  1  1
 13 14  1  0
 14  7  1  0
 15 13  1  0
 16 15  2  0
 18 19  1  1
 18 17  1  0
 21 20  1  1
 20 18  1  0
 21 22  1  0
 22 15  1  0
 23 25  1  0
 23 21  1  0
 24 23  2  0
M  END
$$$$
