MLL.pdb
     RDKit          3D

 25 24  0  0  1  0  0  0  0  0999 V2000
   11.3499  -16.9464   17.8618 C   0  0  0  0  0  0  0  0  0  0  0  0
   10.6257  -18.6166   17.8191 S   0  0  0  0  0  0  0  0  0  0  0  0
    9.8990  -19.0335   19.4287 C   0  0  0  0  0  0  0  0  0  0  0  0
    9.5796  -17.7525   20.1304 C   0  0  0  0  0  0  0  0  0  0  0  0
    9.1729  -17.9154   21.5569 C   0  0  2  0  0  0  0  0  0  0  0  0
    7.8047  -18.3515   21.6484 N   0  0  0  0  0  0  0  0  0  0  0  0
    9.3586  -16.6888   22.3718 C   0  0  0  0  0  0  0  0  0  0  0  0
   10.4948  -16.1522   22.4518 O   0  0  0  0  0  0  0  0  0  0  0  0
    5.8378  -13.0469   25.9756 C   0  0  0  0  0  0  0  0  0  0  0  0
    7.1113  -13.2207   25.2172 C   0  0  2  0  0  0  0  0  0  0  0  0
    7.4642  -12.0409   24.3597 C   0  0  0  0  0  0  0  0  0  0  0  0
    7.0830  -14.5140   24.4375 C   0  0  0  0  0  0  0  0  0  0  0  0
    8.4406  -14.8771   23.8951 C   0  0  2  0  0  0  0  0  0  0  0  0
    8.3046  -16.0660   23.0864 N   0  0  0  0  0  0  0  0  0  0  0  0
    9.4342  -15.0717   24.9917 C   0  0  0  0  0  0  0  0  0  0  0  0
   10.1975  -14.1221   25.3094 O   0  0  0  0  0  0  0  0  0  0  0  0
   11.2600  -13.6592   28.3733 C   0  0  0  0  0  0  0  0  0  0  0  0
    9.8829  -14.2698   28.2130 C   0  0  2  0  0  0  0  0  0  0  0  0
    8.9458  -13.6427   29.1946 C   0  0  0  0  0  0  0  0  0  0  0  0
    9.8461  -15.7272   28.0372 C   0  0  0  0  0  0  0  0  0  0  0  0
   10.4867  -16.3548   26.8574 C   0  0  2  0  0  0  0  0  0  0  0  0
    9.5605  -16.2868   25.6995 N   0  0  0  0  0  0  0  0  0  0  0  0
   10.8955  -17.7509   26.9629 C   0  0  0  0  0  0  0  0  0  0  0  0
   11.7082  -18.1480   27.8247 O   0  0  0  0  0  0  0  0  0  0  0  0
   10.3600  -18.6916   26.0663 O   0  0  0  0  0  0  0  0  0  0  0  0
  2  3  1  0
  2  1  1  0
  3  4  1  0
  4  5  1  0
  5  6  1  6
  7  8  2  0
  7  5  1  0
 10  9  1  6
 10 12  1  0
 11 10  1  0
 13 12  1  1
 13 14  1  0
 14  7  1  0
 15 13  1  0
 16 15  2  0
 18 19  1  1
 18 17  1  0
 21 20  1  1
 20 18  1  0
 21 22  1  0
 22 15  1  0
 23 25  1  0
 23 21  1  0
 24 23  2  0
M  END
$$$$
