MLL.pdb
     RDKit          3D

 25 24  0  0  1  0  0  0  0  0999 V2000
   10.8143  -18.4890   16.5511 C   0  0  0  0  0  0  0  0  0  0  0  0
   10.5556  -20.1512   17.2482 S   0  0  0  0  0  0  0  0  0  0  0  0
    9.8754  -20.0358   18.9264 C   0  0  0  0  0  0  0  0  0  0  0  0
   10.1059  -18.6425   19.4171 C   0  0  0  0  0  0  0  0  0  0  0  0
    9.6551  -18.3996   20.8188 C   0  0  2  0  0  0  0  0  0  0  0  0
    8.2515  -18.6850   20.9575 N   0  0  0  0  0  0  0  0  0  0  0  0
    9.9323  -17.0239   21.3025 C   0  0  0  0  0  0  0  0  0  0  0  0
   11.1171  -16.6628   21.5278 O   0  0  0  0  0  0  0  0  0  0  0  0
    9.1076  -13.2389   19.4421 C   0  0  0  0  0  0  0  0  0  0  0  0
    7.8811  -13.8344   20.0490 C   0  0  2  0  0  0  0  0  0  0  0  0
    6.6082  -13.1922   19.5809 C   0  0  0  0  0  0  0  0  0  0  0  0
    7.9991  -13.8531   21.5547 C   0  0  0  0  0  0  0  0  0  0  0  0
    9.1368  -14.7229   22.0219 C   0  0  2  0  0  0  0  0  0  0  0  0
    8.9153  -16.0637   21.5329 N   0  0  0  0  0  0  0  0  0  0  0  0
    9.2709  -14.6975   23.5082 C   0  0  0  0  0  0  0  0  0  0  0  0
    9.9689  -13.8007   24.0503 O   0  0  0  0  0  0  0  0  0  0  0  0
    8.2020  -12.5259   26.8900 C   0  0  0  0  0  0  0  0  0  0  0  0
    7.1913  -13.3892   26.1633 C   0  0  2  0  0  0  0  0  0  0  0  0
    5.8179  -12.8461   26.3958 C   0  0  0  0  0  0  0  0  0  0  0  0
    7.4006  -14.8393   26.2618 C   0  0  0  0  0  0  0  0  0  0  0  0
    8.6790  -15.4425   25.8168 C   0  0  2  0  0  0  0  0  0  0  0  0
    8.6432  -15.6442   24.3467 N   0  0  0  0  0  0  0  0  0  0  0  0
    9.0648  -16.7274   26.3891 C   0  0  0  0  0  0  0  0  0  0  0  0
    9.1752  -17.7626   25.6983 O   0  0  0  0  0  0  0  0  0  0  0  0
    9.3244  -16.8136   27.7677 O   0  0  0  0  0  0  0  0  0  0  0  0
  2  3  1  0
  2  1  1  0
  3  4  1  0
  4  5  1  0
  5  6  1  6
  7  8  2  0
  7  5  1  0
 10  9  1  6
 10 12  1  0
 11 10  1  0
 13 12  1  1
 13 14  1  0
 14  7  1  0
 15 13  1  0
 16 15  2  0
 18 19  1  1
 18 17  1  0
 21 20  1  1
 20 18  1  0
 21 22  1  0
 22 15  1  0
 23 25  1  0
 23 21  1  0
 24 23  2  0
M  END
$$$$
