MLL.pdb
     RDKit          3D

 25 24  0  0  1  0  0  0  0  0999 V2000
    7.3093  -20.7998   21.6814 C   0  0  0  0  0  0  0  0  0  0  0  0
    8.2960  -20.4278   20.1969 S   0  0  0  0  0  0  0  0  0  0  0  0
    8.2276  -18.6545   19.8185 C   0  0  0  0  0  0  0  0  0  0  0  0
    8.8259  -17.9182   20.9740 C   0  0  0  0  0  0  0  0  0  0  0  0
    8.6337  -16.4390   20.9291 C   0  0  2  0  0  0  0  0  0  0  0  0
    9.3752  -15.8634   19.8384 N   0  0  0  0  0  0  0  0  0  0  0  0
    8.9986  -15.7535   22.1940 C   0  0  0  0  0  0  0  0  0  0  0  0
   10.1514  -15.2680   22.3370 O   0  0  0  0  0  0  0  0  0  0  0  0
    7.8117  -12.2952   24.9339 C   0  0  0  0  0  0  0  0  0  0  0  0
    6.6896  -13.2761   24.8568 C   0  0  2  0  0  0  0  0  0  0  0  0
    5.4647  -12.8461   25.6095 C   0  0  0  0  0  0  0  0  0  0  0  0
    7.1667  -14.6495   25.2659 C   0  0  0  0  0  0  0  0  0  0  0  0
    8.4427  -15.0368   24.5652 C   0  0  2  0  0  0  0  0  0  0  0  0
    8.1026  -15.6074   23.2828 N   0  0  0  0  0  0  0  0  0  0  0  0
    9.2537  -15.9823   25.3874 C   0  0  0  0  0  0  0  0  0  0  0  0
    9.6393  -17.0681   24.8797 O   0  0  0  0  0  0  0  0  0  0  0  0
   11.5127  -13.7105   28.2297 C   0  0  0  0  0  0  0  0  0  0  0  0
   10.6624  -14.6721   29.0343 C   0  0  2  0  0  0  0  0  0  0  0  0
   10.6146  -14.2187   30.4581 C   0  0  0  0  0  0  0  0  0  0  0  0
   10.8735  -16.0985   28.7566 C   0  0  0  0  0  0  0  0  0  0  0  0
   10.4955  -16.6687   27.4421 C   0  0  2  0  0  0  0  0  0  0  0  0
    9.6141  -15.7132   26.7256 N   0  0  0  0  0  0  0  0  0  0  0  0
    9.7961  -17.9485   27.4273 C   0  0  0  0  0  0  0  0  0  0  0  0
    8.5900  -18.0495   27.1174 O   0  0  0  0  0  0  0  0  0  0  0  0
   10.4971  -19.1168   27.7725 O   0  0  0  0  0  0  0  0  0  0  0  0
  2  3  1  0
  2  1  1  0
  3  4  1  0
  4  5  1  0
  5  6  1  6
  7  8  2  0
  7  5  1  0
 10  9  1  1
 10 12  1  0
 11 10  1  0
 13 12  1  1
 13 14  1  0
 14  7  1  0
 15 13  1  0
 16 15  2  0
 18 19  1  1
 18 17  1  0
 21 20  1  1
 20 18  1  0
 21 22  1  0
 22 15  1  0
 23 25  1  0
 23 21  1  0
 24 23  2  0
M  END
$$$$
