MLL.pdb
     RDKit          3D

 25 24  0  0  1  0  0  0  0  0999 V2000
    8.3849  -12.5378   18.3617 C   0  0  0  0  0  0  0  0  0  0  0  0
    7.3174  -13.9570   17.9588 S   0  0  0  0  0  0  0  0  0  0  0  0
    7.4598  -15.2394   19.2345 C   0  0  0  0  0  0  0  0  0  0  0  0
    8.0984  -14.6190   20.4356 C   0  0  0  0  0  0  0  0  0  0  0  0
    8.2857  -15.5515   21.5855 C   0  0  2  0  0  0  0  0  0  0  0  0
    7.0442  -16.1948   21.9252 N   0  0  0  0  0  0  0  0  0  0  0  0
    8.8541  -14.9005   22.7923 C   0  0  0  0  0  0  0  0  0  0  0  0
   10.0333  -14.4597   22.7733 O   0  0  0  0  0  0  0  0  0  0  0  0
    7.1917  -11.4455   24.9878 C   0  0  0  0  0  0  0  0  0  0  0  0
    6.4506  -12.6842   25.3668 C   0  0  2  0  0  0  0  0  0  0  0  0
    5.2304  -12.4215   26.1998 C   0  0  0  0  0  0  0  0  0  0  0  0
    7.3878  -13.6774   26.0120 C   0  0  0  0  0  0  0  0  0  0  0  0
    8.5800  -13.9779   25.1415 C   0  0  2  0  0  0  0  0  0  0  0  0
    8.1296  -14.7396   24.0001 N   0  0  0  0  0  0  0  0  0  0  0  0
    9.6423  -14.7028   25.8989 C   0  0  0  0  0  0  0  0  0  0  0  0
   10.3902  -14.0605   26.6820 O   0  0  0  0  0  0  0  0  0  0  0  0
   10.5514  -15.8272   30.4080 C   0  0  0  0  0  0  0  0  0  0  0  0
   10.8960  -15.6512   28.9434 C   0  0  2  0  0  0  0  0  0  0  0  0
   10.6676  -14.2275   28.5484 C   0  0  0  0  0  0  0  0  0  0  0  0
   10.4295  -16.7145   28.0444 C   0  0  0  0  0  0  0  0  0  0  0  0
   10.8740  -16.7477   26.6311 C   0  0  2  0  0  0  0  0  0  0  0  0
    9.8510  -16.0939   25.7773 N   0  0  0  0  0  0  0  0  0  0  0  0
   11.1302  -18.0495   26.0251 C   0  0  0  0  0  0  0  0  0  0  0  0
   12.0058  -18.8290   26.4569 O   0  0  0  0  0  0  0  0  0  0  0  0
   10.3681  -18.4503   24.9143 O   0  0  0  0  0  0  0  0  0  0  0  0
  2  3  1  0
  2  1  1  0
  3  4  1  0
  4  5  1  0
  5  6  1  1
  7  8  2  0
  7  5  1  0
 10  9  1  1
 10 12  1  0
 11 10  1  0
 13 12  1  1
 13 14  1  0
 14  7  1  0
 15 13  1  0
 16 15  2  0
 18 19  1  6
 18 17  1  0
 21 20  1  1
 20 18  1  0
 21 22  1  0
 22 15  1  0
 23 25  1  0
 23 21  1  0
 24 23  2  0
M  END
$$$$
