MLL.pdb
     RDKit          3D

 25 24  0  0  1  0  0  0  0  0999 V2000
    6.8688  -20.3129   28.0061 C   0  0  0  0  0  0  0  0  0  0  0  0
    6.8730  -21.6638   26.7850 S   0  0  0  0  0  0  0  0  0  0  0  0
    6.4510  -21.0303   25.1378 C   0  0  0  0  0  0  0  0  0  0  0  0
    6.8919  -19.6032   25.0713 C   0  0  0  0  0  0  0  0  0  0  0  0
    6.4410  -18.8746   23.8496 C   0  0  2  0  0  0  0  0  0  0  0  0
    6.6843  -19.6618   22.6699 N   0  0  0  0  0  0  0  0  0  0  0  0
    7.0644  -17.5369   23.6912 C   0  0  0  0  0  0  0  0  0  0  0  0
    8.0734  -17.3963   22.9514 O   0  0  0  0  0  0  0  0  0  0  0  0
    6.3737  -11.9808   26.3992 C   0  0  0  0  0  0  0  0  0  0  0  0
    7.1743  -12.8542   25.4917 C   0  0  2  0  0  0  0  0  0  0  0  0
    7.4761  -12.2226   24.1643 C   0  0  0  0  0  0  0  0  0  0  0  0
    6.5156  -14.2061   25.3520 C   0  0  0  0  0  0  0  0  0  0  0  0
    7.2976  -15.1257   24.4509 C   0  0  2  0  0  0  0  0  0  0  0  0
    6.5794  -16.3739   24.3406 N   0  0  0  0  0  0  0  0  0  0  0  0
    8.6864  -15.3360   24.9553 C   0  0  0  0  0  0  0  0  0  0  0  0
    9.6545  -14.8307   24.3286 O   0  0  0  0  0  0  0  0  0  0  0  0
   10.4364  -13.3506   28.0574 C   0  0  0  0  0  0  0  0  0  0  0  0
    9.8278  -14.6222   28.6123 C   0  0  2  0  0  0  0  0  0  0  0  0
    9.6576  -14.4854   30.0912 C   0  0  0  0  0  0  0  0  0  0  0  0
   10.3731  -15.8774   28.0798 C   0  0  0  0  0  0  0  0  0  0  0  0
   10.3658  -16.1368   26.6208 C   0  0  2  0  0  0  0  0  0  0  0  0
    8.9701  -16.0848   26.1182 N   0  0  0  0  0  0  0  0  0  0  0  0
   10.9157  -17.4023   26.1483 C   0  0  0  0  0  0  0  0  0  0  0  0
   12.1087  -17.7248   26.3318 O   0  0  0  0  0  0  0  0  0  0  0  0
   10.0798  -18.2988   25.4606 O   0  0  0  0  0  0  0  0  0  0  0  0
  2  3  1  0
  2  1  1  0
  3  4  1  0
  4  5  1  0
  5  6  1  6
  7  8  2  0
  7  5  1  0
 10  9  1  1
 10 12  1  0
 11 10  1  0
 13 12  1  1
 13 14  1  0
 14  7  1  0
 15 13  1  0
 16 15  2  0
 18 19  1  1
 18 17  1  0
 21 20  1  1
 20 18  1  0
 21 22  1  0
 22 15  1  0
 23 25  1  0
 23 21  1  0
 24 23  2  0
M  END
$$$$
