MLL.pdb
     RDKit          3D

 25 24  0  0  1  0  0  0  0  0999 V2000
    7.7755  -11.8476   20.1856 C   0  0  0  0  0  0  0  0  0  0  0  0
    8.3506  -12.6920   18.6782 S   0  0  0  0  0  0  0  0  0  0  0  0
    7.8725  -14.4421   18.7107 C   0  0  0  0  0  0  0  0  0  0  0  0
    7.2585  -14.7225   20.0447 C   0  0  0  0  0  0  0  0  0  0  0  0
    8.1263  -15.5078   20.9704 C   0  0  2  0  0  0  0  0  0  0  0  0
    8.6185  -16.6941   20.3215 N   0  0  0  0  0  0  0  0  0  0  0  0
    7.4564  -15.8790   22.2419 C   0  0  0  0  0  0  0  0  0  0  0  0
    6.3800  -15.3165   22.5737 O   0  0  0  0  0  0  0  0  0  0  0  0
    5.3141  -19.2687   24.0156 C   0  0  0  0  0  0  0  0  0  0  0  0
    6.7599  -19.5348   23.7587 C   0  0  2  0  0  0  0  0  0  0  0  0
    7.1262  -20.9876   23.8425 C   0  0  0  0  0  0  0  0  0  0  0  0
    7.6173  -18.6702   24.6524 C   0  0  0  0  0  0  0  0  0  0  0  0
    7.3876  -17.2017   24.4078 C   0  0  2  0  0  0  0  0  0  0  0  0
    7.9689  -16.8565   23.1315 N   0  0  0  0  0  0  0  0  0  0  0  0
    7.9520  -16.3681   25.5097 C   0  0  0  0  0  0  0  0  0  0  0  0
    7.5158  -16.5158   26.6815 O   0  0  0  0  0  0  0  0  0  0  0  0
    8.5092  -12.0893   24.6943 C   0  0  0  0  0  0  0  0  0  0  0  0
    7.6236  -12.8666   25.6464 C   0  0  2  0  0  0  0  0  0  0  0  0
    6.4157  -12.0502   25.9774 C   0  0  0  0  0  0  0  0  0  0  0  0
    8.3162  -13.5710   26.7329 C   0  0  0  0  0  0  0  0  0  0  0  0
    9.3905  -14.5452   26.4276 C   0  0  2  0  0  0  0  0  0  0  0  0
    8.9659  -15.4088   25.2976 N   0  0  0  0  0  0  0  0  0  0  0  0
    9.8134  -15.4519   27.4889 C   0  0  0  0  0  0  0  0  0  0  0  0
    9.6566  -16.6891   27.4153 O   0  0  0  0  0  0  0  0  0  0  0  0
   10.4214  -14.9230   28.6405 O   0  0  0  0  0  0  0  0  0  0  0  0
  2  3  1  0
  2  1  1  0
  3  4  1  0
  4  5  1  0
  5  6  1  6
  7  8  2  0
  7  5  1  0
 10  9  1  1
 10 12  1  0
 11 10  1  0
 13 12  1  1
 13 14  1  0
 14  7  1  0
 15 13  1  0
 16 15  2  0
 18 19  1  1
 18 17  1  0
 21 20  1  1
 20 18  1  0
 21 22  1  0
 22 15  1  0
 23 25  1  0
 23 21  1  0
 24 23  2  0
M  END
$$$$
