MLL.pdb
     RDKit          3D

 25 24  0  0  1  0  0  0  0  0999 V2000
    8.0958  -12.5201   18.4912 C   0  0  0  0  0  0  0  0  0  0  0  0
    7.3111  -14.0690   17.9425 S   0  0  0  0  0  0  0  0  0  0  0  0
    7.4104  -15.3264   19.2469 C   0  0  0  0  0  0  0  0  0  0  0  0
    8.0422  -14.6924   20.4444 C   0  0  0  0  0  0  0  0  0  0  0  0
    8.2010  -15.6053   21.6142 C   0  0  2  0  0  0  0  0  0  0  0  0
    6.9393  -16.1982   21.9707 N   0  0  0  0  0  0  0  0  0  0  0  0
    8.7949  -14.9478   22.8051 C   0  0  0  0  0  0  0  0  0  0  0  0
    9.9891  -14.5503   22.7746 O   0  0  0  0  0  0  0  0  0  0  0  0
    7.2367  -11.3870   25.1475 C   0  0  0  0  0  0  0  0  0  0  0  0
    6.4627  -12.6154   25.4925 C   0  0  2  0  0  0  0  0  0  0  0  0
    5.2903  -12.3525   26.3915 C   0  0  0  0  0  0  0  0  0  0  0  0
    7.3854  -13.6775   26.0420 C   0  0  0  0  0  0  0  0  0  0  0  0
    8.5498  -13.9449   25.1244 C   0  0  2  0  0  0  0  0  0  0  0  0
    8.0791  -14.7336   24.0098 N   0  0  0  0  0  0  0  0  0  0  0  0
    9.6681  -14.6243   25.8423 C   0  0  0  0  0  0  0  0  0  0  0  0
   10.4559  -13.9400   26.5468 O   0  0  0  0  0  0  0  0  0  0  0  0
   11.3355  -14.4390   28.6317 C   0  0  0  0  0  0  0  0  0  0  0  0
   10.3409  -15.5712   28.7859 C   0  0  2  0  0  0  0  0  0  0  0  0
   10.0241  -15.7582   30.2349 C   0  0  0  0  0  0  0  0  0  0  0  0
   10.5924  -16.7600   27.9614 C   0  0  0  0  0  0  0  0  0  0  0  0
   11.0021  -16.6148   26.5446 C   0  0  2  0  0  0  0  0  0  0  0  0
    9.8873  -16.0170   25.7681 N   0  0  0  0  0  0  0  0  0  0  0  0
   11.3964  -17.8175   25.8199 C   0  0  0  0  0  0  0  0  0  0  0  0
   12.3503  -18.5372   26.1847 O   0  0  0  0  0  0  0  0  0  0  0  0
   10.6822  -18.1887   24.6677 O   0  0  0  0  0  0  0  0  0  0  0  0
  2  3  1  0
  2  1  1  0
  3  4  1  0
  4  5  1  0
  5  6  1  1
  7  8  2  0
  7  5  1  0
 10  9  1  1
 10 12  1  0
 11 10  1  0
 13 12  1  1
 13 14  1  0
 14  7  1  0
 15 13  1  0
 16 15  2  0
 18 19  1  1
 18 17  1  0
 21 20  1  1
 20 18  1  0
 21 22  1  0
 22 15  1  0
 23 25  1  0
 23 21  1  0
 24 23  2  0
M  END
$$$$
