MLL.pdb
     RDKit          3D

 25 24  0  0  1  0  0  0  0  0999 V2000
   10.9096  -18.5547   16.4875 C   0  0  0  0  0  0  0  0  0  0  0  0
   10.0681  -20.1005   16.9549 S   0  0  0  0  0  0  0  0  0  0  0  0
    9.3415  -19.9508   18.6108 C   0  0  0  0  0  0  0  0  0  0  0  0
    9.8979  -18.7155   19.2430 C   0  0  0  0  0  0  0  0  0  0  0  0
    9.4214  -18.4668   20.6352 C   0  0  2  0  0  0  0  0  0  0  0  0
    7.9959  -18.6416   20.7230 N   0  0  0  0  0  0  0  0  0  0  0  0
    9.7908  -17.1282   21.1597 C   0  0  0  0  0  0  0  0  0  0  0  0
   11.0035  -16.8092   21.2728 O   0  0  0  0  0  0  0  0  0  0  0  0
    9.0297  -13.3364   19.4293 C   0  0  0  0  0  0  0  0  0  0  0  0
    7.8262  -13.8964   20.1113 C   0  0  2  0  0  0  0  0  0  0  0  0
    6.5443  -13.2271   19.7105 C   0  0  0  0  0  0  0  0  0  0  0  0
    8.0300  -13.9055   21.6078 C   0  0  0  0  0  0  0  0  0  0  0  0
    9.1465  -14.8286   22.0208 C   0  0  2  0  0  0  0  0  0  0  0  0
    8.8342  -16.1586   21.5524 N   0  0  0  0  0  0  0  0  0  0  0  0
    9.3590  -14.8043   23.4979 C   0  0  0  0  0  0  0  0  0  0  0  0
   10.2890  -14.1035   23.9768 O   0  0  0  0  0  0  0  0  0  0  0  0
    8.1610  -12.2931   26.6727 C   0  0  0  0  0  0  0  0  0  0  0  0
    7.1446  -13.2798   26.1360 C   0  0  2  0  0  0  0  0  0  0  0  0
    5.7664  -12.7787   26.4268 C   0  0  0  0  0  0  0  0  0  0  0  0
    7.4425  -14.6979   26.3741 C   0  0  0  0  0  0  0  0  0  0  0  0
    8.6942  -15.2969   25.8539 C   0  0  2  0  0  0  0  0  0  0  0  0
    8.5554  -15.5397   24.3961 N   0  0  0  0  0  0  0  0  0  0  0  0
    9.1390  -16.5605   26.4307 C   0  0  0  0  0  0  0  0  0  0  0  0
    9.2372  -16.7366   27.6637 O   0  0  0  0  0  0  0  0  0  0  0  0
    9.4711  -17.6252   25.5755 O   0  0  0  0  0  0  0  0  0  0  0  0
  2  3  1  0
  2  1  1  0
  3  4  1  0
  4  5  1  0
  5  6  1  6
  7  8  2  0
  7  5  1  0
 10  9  1  6
 10 12  1  0
 11 10  1  0
 13 12  1  1
 13 14  1  0
 14  7  1  0
 15 13  1  0
 16 15  2  0
 18 19  1  1
 18 17  1  0
 21 20  1  1
 20 18  1  0
 21 22  1  0
 22 15  1  0
 23 25  1  0
 23 21  1  0
 24 23  2  0
M  END
$$$$
