YVM.pdb
     RDKit          3D

 28 28  0  0  1  0  0  0  0  0999 V2000
    8.0111  -12.6427   16.3134 O   0  0  0  0  0  0  0  0  0  0  0  0
    7.9712  -13.1584   17.6033 C   0  0  0  0  0  0  0  0  0  0  0  0
    9.1554  -13.4872   18.1995 C   0  0  0  0  0  0  0  0  0  0  0  0
    9.1289  -14.0047   19.4911 C   0  0  0  0  0  0  0  0  0  0  0  0
    7.9411  -14.1812   20.1520 C   0  0  0  0  0  0  0  0  0  0  0  0
    7.8733  -14.7277   21.5240 C   0  0  0  0  0  0  0  0  0  0  0  0
    7.9109  -16.2618   21.5196 C   0  0  2  0  0  0  0  0  0  0  0  0
    6.5455  -16.6893   21.2731 N   0  0  0  0  0  0  0  0  0  0  0  0
    8.3659  -16.6619   22.8740 C   0  0  0  0  0  0  0  0  0  0  0  0
    7.5171  -16.6749   23.7982 O   0  0  0  0  0  0  0  0  0  0  0  0
    6.7693  -13.8392   19.5205 C   0  0  0  0  0  0  0  0  0  0  0  0
    6.7397  -13.3227   18.2418 C   0  0  0  0  0  0  0  0  0  0  0  0
   10.9566  -19.5515   23.6668 C   0  0  0  0  0  0  0  0  0  0  0  0
   11.2862  -18.2997   24.4491 C   0  0  2  0  0  0  0  0  0  0  0  0
   11.8806  -18.6290   25.7929 C   0  0  0  0  0  0  0  0  0  0  0  0
   10.1094  -17.3680   24.5481 C   0  0  2  0  0  0  0  0  0  0  0  0
    9.6972  -17.0319   23.1985 N   0  0  0  0  0  0  0  0  0  0  0  0
   10.3899  -16.1634   25.3584 C   0  0  0  0  0  0  0  0  0  0  0  0
   11.2734  -15.3766   24.9312 O   0  0  0  0  0  0  0  0  0  0  0  0
    6.8533  -11.7217   26.9069 C   0  0  0  0  0  0  0  0  0  0  0  0
    6.3901  -13.1477   27.9222 S   0  0  0  0  0  0  0  0  0  0  0  0
    7.6428  -14.4746   27.7823 C   0  0  0  0  0  0  0  0  0  0  0  0
    8.9353  -13.8076   27.4507 C   0  0  0  0  0  0  0  0  0  0  0  0
   10.1322  -14.6992   27.3967 C   0  0  2  0  0  0  0  0  0  0  0  0
    9.7371  -15.8490   26.5616 N   0  0  0  0  0  0  0  0  0  0  0  0
   10.5532  -15.1794   28.7364 C   0  0  0  0  0  0  0  0  0  0  0  0
   10.4629  -16.5153   29.0845 O   0  0  0  0  0  0  0  0  0  0  0  0
   11.0046  -14.3652   29.5880 O   0  0  0  0  0  0  0  0  0  0  0  0
  2 12  2  0
  2  1  1  0
  3  2  1  0
  4  5  1  0
  4  3  2  0
  5 11  2  0
  6  5  1  0
  7  6  1  0
  7  8  1  1
  9 10  2  0
  9  7  1  0
 11 12  1  0
 14 13  1  1
 14 16  1  0
 15 14  1  0
 16 17  1  6
 17  9  1  0
 18 19  2  0
 18 16  1  0
 20 21  1  0
 22 21  1  0
 23 22  1  0
 24 23  1  1
 24 25  1  0
 25 18  1  0
 26 24  1  0
 27 26  1  0
 28 26  2  0
M  END
$$$$
