YVM.pdb
     RDKit          3D

 28 28  0  0  1  0  0  0  0  0999 V2000
    5.0721  -10.2551   27.6791 O   0  0  0  0  0  0  0  0  0  0  0  0
    5.5888  -11.4950   27.3225 C   0  0  0  0  0  0  0  0  0  0  0  0
    5.0719  -12.1119   26.2188 C   0  0  0  0  0  0  0  0  0  0  0  0
    5.5808  -13.3539   25.8513 C   0  0  0  0  0  0  0  0  0  0  0  0
    6.5791  -13.9466   26.5799 C   0  0  0  0  0  0  0  0  0  0  0  0
    7.1448  -15.2644   26.2204 C   0  0  0  0  0  0  0  0  0  0  0  0
    6.3831  -15.9019   25.0506 C   0  0  2  0  0  0  0  0  0  0  0  0
    5.7439  -17.0865   25.5947 N   0  0  0  0  0  0  0  0  0  0  0  0
    7.4107  -16.2581   24.0414 C   0  0  0  0  0  0  0  0  0  0  0  0
    7.9535  -17.3862   24.1293 O   0  0  0  0  0  0  0  0  0  0  0  0
    7.0748  -13.2962   27.6845 C   0  0  0  0  0  0  0  0  0  0  0  0
    6.6060  -12.0646   28.0919 C   0  0  0  0  0  0  0  0  0  0  0  0
    7.2179  -14.9706   20.2962 C   0  0  0  0  0  0  0  0  0  0  0  0
    8.6480  -14.9511   20.7884 C   0  0  2  0  0  0  0  0  0  0  0  0
    9.6152  -15.3002   19.6883 C   0  0  0  0  0  0  0  0  0  0  0  0
    8.8353  -15.7995   22.0163 C   0  0  2  0  0  0  0  0  0  0  0  0
    7.8241  -15.4103   22.9807 N   0  0  0  0  0  0  0  0  0  0  0  0
   10.2002  -15.7126   22.5784 C   0  0  0  0  0  0  0  0  0  0  0  0
   10.6663  -14.5619   22.7802 O   0  0  0  0  0  0  0  0  0  0  0  0
   11.2330  -13.5449   27.2311 C   0  0  0  0  0  0  0  0  0  0  0  0
   11.4391  -15.2967   27.6405 S   0  0  0  0  0  0  0  0  0  0  0  0
   12.3724  -16.1620   26.3253 C   0  0  0  0  0  0  0  0  0  0  0  0
   11.4772  -16.2178   25.1333 C   0  0  0  0  0  0  0  0  0  0  0  0
   12.0923  -16.7540   23.8825 C   0  0  2  0  0  0  0  0  0  0  0  0
   10.9976  -16.8243   22.8966 N   0  0  0  0  0  0  0  0  0  0  0  0
   12.6846  -18.1025   24.0645 C   0  0  0  0  0  0  0  0  0  0  0  0
   13.9739  -18.2654   24.5391 O   0  0  0  0  0  0  0  0  0  0  0  0
   12.0121  -19.1327   23.7848 O   0  0  0  0  0  0  0  0  0  0  0  0
  2 12  2  0
  2  1  1  0
  3  2  1  0
  4  5  1  0
  4  3  2  0
  5 11  2  0
  6  5  1  0
  7  6  1  0
  7  8  1  1
  9 10  2  0
  9  7  1  0
 11 12  1  0
 14 13  1  6
 14 16  1  0
 15 14  1  0
 16 17  1  1
 17  9  1  0
 18 19  2  0
 18 16  1  0
 20 21  1  0
 22 21  1  0
 23 22  1  0
 24 23  1  1
 24 25  1  0
 25 18  1  0
 26 24  1  0
 27 26  1  0
 28 26  2  0
M  END
$$$$
