YVM.pdb
     RDKit          3D

 28 28  0  0  1  0  0  0  0  0999 V2000
   10.7097  -24.5627   20.5424 O   0  0  0  0  0  0  0  0  0  0  0  0
   10.6219  -23.1959   20.7779 C   0  0  0  0  0  0  0  0  0  0  0  0
   11.7766  -22.4662   20.7577 C   0  0  0  0  0  0  0  0  0  0  0  0
   11.7021  -21.0964   20.9920 C   0  0  0  0  0  0  0  0  0  0  0  0
   10.4971  -20.4912   21.2379 C   0  0  0  0  0  0  0  0  0  0  0  0
   10.3785  -19.0394   21.4909 C   0  0  0  0  0  0  0  0  0  0  0  0
    9.8015  -18.3029   20.2745 C   0  0  2  0  0  0  0  0  0  0  0  0
   10.7114  -18.5796   19.1776 N   0  0  0  0  0  0  0  0  0  0  0  0
    9.8069  -16.8625   20.6304 C   0  0  0  0  0  0  0  0  0  0  0  0
   10.8884  -16.2353   20.5223 O   0  0  0  0  0  0  0  0  0  0  0  0
    9.3562  -21.2573   21.2505 C   0  0  0  0  0  0  0  0  0  0  0  0
    9.3744  -22.6179   21.0244 C   0  0  0  0  0  0  0  0  0  0  0  0
    7.8137  -14.6055   18.8615 C   0  0  0  0  0  0  0  0  0  0  0  0
    7.5996  -14.1632   20.2920 C   0  0  2  0  0  0  0  0  0  0  0  0
    7.4438  -12.6687   20.3902 C   0  0  0  0  0  0  0  0  0  0  0  0
    8.6610  -14.6976   21.2142 C   0  0  2  0  0  0  0  0  0  0  0  0
    8.6716  -16.1424   21.0857 N   0  0  0  0  0  0  0  0  0  0  0  0
    8.4804  -14.2671   22.6173 C   0  0  0  0  0  0  0  0  0  0  0  0
    7.4401  -13.6142   22.8885 O   0  0  0  0  0  0  0  0  0  0  0  0
    7.3945  -10.9310   27.3706 C   0  0  0  0  0  0  0  0  0  0  0  0
    6.3199  -12.0544   26.4421 S   0  0  0  0  0  0  0  0  0  0  0  0
    7.0047  -13.7516   26.4433 C   0  0  0  0  0  0  0  0  0  0  0  0
    7.6006  -13.9721   25.0935 C   0  0  0  0  0  0  0  0  0  0  0  0
    9.0391  -14.3729   25.0753 C   0  0  2  0  0  0  0  0  0  0  0  0
    9.3897  -14.5401   23.6524 N   0  0  0  0  0  0  0  0  0  0  0  0
    9.2923  -15.6420   25.8019 C   0  0  0  0  0  0  0  0  0  0  0  0
    9.3127  -16.8582   25.1429 O   0  0  0  0  0  0  0  0  0  0  0  0
    9.4944  -15.6292   27.0473 O   0  0  0  0  0  0  0  0  0  0  0  0
  2 12  2  0
  2  1  1  0
  3  2  1  0
  4  5  1  0
  4  3  2  0
  5 11  2  0
  6  5  1  0
  7  6  1  0
  7  8  1  6
  9 10  2  0
  9  7  1  0
 11 12  1  0
 14 13  1  6
 14 16  1  0
 15 14  1  0
 16 17  1  1
 17  9  1  0
 18 19  2  0
 18 16  1  0
 20 21  1  0
 22 21  1  0
 23 22  1  0
 24 23  1  6
 24 25  1  0
 25 18  1  0
 26 24  1  0
 27 26  1  0
 28 26  2  0
M  END
$$$$
