YVM.pdb
     RDKit          3D

 28 28  0  0  1  0  0  0  0  0999 V2000
    7.3599  -12.0770   16.5295 O   0  0  0  0  0  0  0  0  0  0  0  0
    7.4957  -12.8597   17.6698 C   0  0  0  0  0  0  0  0  0  0  0  0
    6.5542  -13.8215   17.9034 C   0  0  0  0  0  0  0  0  0  0  0  0
    6.6790  -14.6120   19.0419 C   0  0  0  0  0  0  0  0  0  0  0  0
    7.7233  -14.4306   19.9109 C   0  0  0  0  0  0  0  0  0  0  0  0
    7.8891  -15.2506   21.1299 C   0  0  0  0  0  0  0  0  0  0  0  0
    8.8688  -16.4089   20.8983 C   0  0  2  0  0  0  0  0  0  0  0  0
    8.1659  -17.3573   20.0532 N   0  0  0  0  0  0  0  0  0  0  0  0
    9.1460  -16.9819   22.2386 C   0  0  0  0  0  0  0  0  0  0  0  0
    8.2212  -17.6062   22.8127 O   0  0  0  0  0  0  0  0  0  0  0  0
    8.6516  -13.4531   19.6434 C   0  0  0  0  0  0  0  0  0  0  0  0
    8.5747  -12.6427   18.5299 C   0  0  0  0  0  0  0  0  0  0  0  0
   11.6054  -19.4367   23.3506 C   0  0  0  0  0  0  0  0  0  0  0  0
   11.7829  -18.2536   24.2760 C   0  0  2  0  0  0  0  0  0  0  0  0
   12.1793  -18.6909   25.6613 C   0  0  0  0  0  0  0  0  0  0  0  0
   10.5808  -17.3493   24.2751 C   0  0  2  0  0  0  0  0  0  0  0  0
   10.3872  -16.8731   22.9187 N   0  0  0  0  0  0  0  0  0  0  0  0
   10.6913  -16.2367   25.2429 C   0  0  0  0  0  0  0  0  0  0  0  0
   11.1585  -15.1493   24.8171 O   0  0  0  0  0  0  0  0  0  0  0  0
    7.0358  -10.5881   27.0919 C   0  0  0  0  0  0  0  0  0  0  0  0
    7.4485  -12.2214   26.4276 S   0  0  0  0  0  0  0  0  0  0  0  0
    8.6880  -13.0546   27.4854 C   0  0  0  0  0  0  0  0  0  0  0  0
    9.0736  -14.3119   26.7812 C   0  0  0  0  0  0  0  0  0  0  0  0
   10.1391  -15.1254   27.4394 C   0  0  2  0  0  0  0  0  0  0  0  0
   10.3106  -16.3205   26.5922 N   0  0  0  0  0  0  0  0  0  0  0  0
    9.7773  -15.5409   28.8175 C   0  0  0  0  0  0  0  0  0  0  0  0
    9.4369  -16.8495   29.1099 O   0  0  0  0  0  0  0  0  0  0  0  0
    9.7746  -14.6952   29.7538 O   0  0  0  0  0  0  0  0  0  0  0  0
  2 12  2  0
  2  1  1  0
  3  2  1  0
  4  5  1  0
  4  3  2  0
  5 11  2  0
  6  5  1  0
  7  6  1  0
  7  8  1  6
  9 10  2  0
  9  7  1  0
 11 12  1  0
 14 13  1  6
 14 16  1  0
 15 14  1  0
 16 17  1  6
 17  9  1  0
 18 19  2  0
 18 16  1  0
 20 21  1  0
 22 21  1  0
 23 22  1  0
 24 23  1  6
 24 25  1  0
 25 18  1  0
 26 24  1  0
 27 26  1  0
 28 26  2  0
M  END
$$$$
