YVM.pdb
     RDKit          3D

 28 28  0  0  1  0  0  0  0  0999 V2000
    9.3074  -20.9516   30.4422 O   0  0  0  0  0  0  0  0  0  0  0  0
    8.7751  -20.1102   29.4726 C   0  0  0  0  0  0  0  0  0  0  0  0
    7.5324  -20.3994   28.9846 C   0  0  0  0  0  0  0  0  0  0  0  0
    6.9882  -19.5645   28.0133 C   0  0  0  0  0  0  0  0  0  0  0  0
    7.6829  -18.4753   27.5551 C   0  0  0  0  0  0  0  0  0  0  0  0
    7.1376  -17.5660   26.5248 C   0  0  0  0  0  0  0  0  0  0  0  0
    6.6856  -18.3376   25.2776 C   0  0  2  0  0  0  0  0  0  0  0  0
    7.1410  -19.7025   25.4714 N   0  0  0  0  0  0  0  0  0  0  0  0
    7.3740  -17.6963   24.1303 C   0  0  0  0  0  0  0  0  0  0  0  0
    8.3646  -18.2869   23.6356 O   0  0  0  0  0  0  0  0  0  0  0  0
    8.9307  -18.2155   28.0692 C   0  0  0  0  0  0  0  0  0  0  0  0
    9.5157  -19.0106   29.0327 C   0  0  0  0  0  0  0  0  0  0  0  0
    5.8501  -15.0312   21.3853 C   0  0  0  0  0  0  0  0  0  0  0  0
    7.0763  -14.5461   22.1263 C   0  0  2  0  0  0  0  0  0  0  0  0
    7.9088  -13.6262   21.2731 C   0  0  0  0  0  0  0  0  0  0  0  0
    7.8748  -15.6826   22.7038 C   0  0  2  0  0  0  0  0  0  0  0  0
    6.9897  -16.4586   23.5515 N   0  0  0  0  0  0  0  0  0  0  0  0
    9.0831  -15.2332   23.4280 C   0  0  0  0  0  0  0  0  0  0  0  0
    9.0484  -14.0887   23.9487 O   0  0  0  0  0  0  0  0  0  0  0  0
    8.7015  -13.7706   28.0314 C   0  0  0  0  0  0  0  0  0  0  0  0
   10.0649  -14.9204   28.3447 S   0  0  0  0  0  0  0  0  0  0  0  0
   11.2545  -14.9061   26.9538 C   0  0  0  0  0  0  0  0  0  0  0  0
   10.6717  -15.7686   25.8852 C   0  0  0  0  0  0  0  0  0  0  0  0
   11.3084  -15.6558   24.5391 C   0  0  2  0  0  0  0  0  0  0  0  0
   10.2529  -15.9981   23.5674 N   0  0  0  0  0  0  0  0  0  0  0  0
   12.4593  -16.5770   24.3676 C   0  0  0  0  0  0  0  0  0  0  0  0
   13.7266  -16.2364   24.8059 O   0  0  0  0  0  0  0  0  0  0  0  0
   12.2961  -17.6979   23.8121 O   0  0  0  0  0  0  0  0  0  0  0  0
  2 12  2  0
  2  1  1  0
  3  2  1  0
  4  5  1  0
  4  3  2  0
  5 11  2  0
  6  5  1  0
  7  6  1  0
  7  8  1  1
  9 10  2  0
  9  7  1  0
 11 12  1  0
 14 13  1  6
 14 16  1  0
 15 14  1  0
 16 17  1  1
 17  9  1  0
 18 19  2  0
 18 16  1  0
 20 21  1  0
 22 21  1  0
 23 22  1  0
 24 23  1  1
 24 25  1  0
 25 18  1  0
 26 24  1  0
 27 26  1  0
 28 26  2  0
M  END
$$$$
