YVM.pdb
     RDKit          3D

 28 28  0  0  1  0  0  0  0  0999 V2000
   13.4479  -23.4764   18.7169 O   0  0  0  0  0  0  0  0  0  0  0  0
   13.0871  -22.2523   19.2671 C   0  0  0  0  0  0  0  0  0  0  0  0
   11.7578  -22.0013   19.4569 C   0  0  0  0  0  0  0  0  0  0  0  0
   11.3835  -20.7791   20.0072 C   0  0  0  0  0  0  0  0  0  0  0  0
   12.3270  -19.8465   20.3518 C   0  0  0  0  0  0  0  0  0  0  0  0
   11.9677  -18.5379   20.9386 C   0  0  0  0  0  0  0  0  0  0  0  0
   11.3144  -17.6170   19.8993 C   0  0  2  0  0  0  0  0  0  0  0  0
   12.3857  -17.2006   19.0123 N   0  0  0  0  0  0  0  0  0  0  0  0
   10.7664  -16.4677   20.6610 C   0  0  0  0  0  0  0  0  0  0  0  0
   11.5597  -15.5561   20.9995 O   0  0  0  0  0  0  0  0  0  0  0  0
   13.6551  -20.1339   20.1465 C   0  0  0  0  0  0  0  0  0  0  0  0
   14.0797  -21.3293   19.6047 C   0  0  0  0  0  0  0  0  0  0  0  0
    7.6739  -14.4392   19.6665 C   0  0  0  0  0  0  0  0  0  0  0  0
    7.5638  -14.8100   21.1287 C   0  0  2  0  0  0  0  0  0  0  0  0
    6.8328  -13.7524   21.9128 C   0  0  0  0  0  0  0  0  0  0  0  0
    8.8999  -15.1558   21.7269 C   0  0  2  0  0  0  0  0  0  0  0  0
    9.4043  -16.3264   21.0345 N   0  0  0  0  0  0  0  0  0  0  0  0
    8.8451  -15.3582   23.1906 C   0  0  0  0  0  0  0  0  0  0  0  0
    8.5985  -16.5213   23.6010 O   0  0  0  0  0  0  0  0  0  0  0  0
    5.9843  -11.1682   26.5985 C   0  0  0  0  0  0  0  0  0  0  0  0
    7.1333  -11.6669   27.9061 S   0  0  0  0  0  0  0  0  0  0  0  0
    7.8498  -13.3116   27.5437 C   0  0  0  0  0  0  0  0  0  0  0  0
    8.2038  -13.3127   26.0945 C   0  0  0  0  0  0  0  0  0  0  0  0
    8.8490  -14.5589   25.5835 C   0  0  2  0  0  0  0  0  0  0  0  0
    9.0493  -14.3420   24.1385 N   0  0  0  0  0  0  0  0  0  0  0  0
    8.0136  -15.7674   25.7937 C   0  0  0  0  0  0  0  0  0  0  0  0
    8.3486  -16.7196   26.7398 O   0  0  0  0  0  0  0  0  0  0  0  0
    6.9730  -15.9460   25.1030 O   0  0  0  0  0  0  0  0  0  0  0  0
  2 12  2  0
  2  1  1  0
  3  2  1  0
  4  5  1  0
  4  3  2  0
  5 11  2  0
  6  5  1  0
  7  6  1  0
  7  8  1  6
  9 10  2  0
  9  7  1  0
 11 12  1  0
 14 13  1  6
 14 16  1  0
 15 14  1  0
 16 17  1  6
 17  9  1  0
 18 19  2  0
 18 16  1  0
 20 21  1  0
 22 21  1  0
 23 22  1  0
 24 23  1  6
 24 25  1  0
 25 18  1  0
 26 24  1  0
 27 26  1  0
 28 26  2  0
M  END
$$$$
