YVM.pdb
     RDKit          3D

 28 28  0  0  1  0  0  0  0  0999 V2000
    7.3438  -20.0245   30.1810 O   0  0  0  0  0  0  0  0  0  0  0  0
    7.4488  -19.9535   28.7971 C   0  0  0  0  0  0  0  0  0  0  0  0
    7.0504  -21.0372   28.0672 C   0  0  0  0  0  0  0  0  0  0  0  0
    7.1506  -20.9786   26.6804 C   0  0  0  0  0  0  0  0  0  0  0  0
    7.6381  -19.8584   26.0589 C   0  0  0  0  0  0  0  0  0  0  0  0
    7.7591  -19.7592   24.5888 C   0  0  0  0  0  0  0  0  0  0  0  0
    6.5775  -18.9932   23.9788 C   0  0  2  0  0  0  0  0  0  0  0  0
    5.8417  -19.9654   23.1906 N   0  0  0  0  0  0  0  0  0  0  0  0
    7.1744  -17.9415   23.1190 C   0  0  0  0  0  0  0  0  0  0  0  0
    7.7704  -18.3043   22.0760 O   0  0  0  0  0  0  0  0  0  0  0  0
    8.0294  -18.7872   26.8258 C   0  0  0  0  0  0  0  0  0  0  0  0
    7.9510  -18.7933   28.2029 C   0  0  0  0  0  0  0  0  0  0  0  0
    5.7395  -14.8975   21.5605 C   0  0  0  0  0  0  0  0  0  0  0  0
    6.9716  -14.4321   22.3042 C   0  0  2  0  0  0  0  0  0  0  0  0
    7.6753  -13.3235   21.5671 C   0  0  0  0  0  0  0  0  0  0  0  0
    7.8891  -15.5731   22.6489 C   0  0  2  0  0  0  0  0  0  0  0  0
    7.1184  -16.5501   23.3943 N   0  0  0  0  0  0  0  0  0  0  0  0
    9.0983  -15.1434   23.3834 C   0  0  0  0  0  0  0  0  0  0  0  0
    9.1863  -13.9247   23.6820 O   0  0  0  0  0  0  0  0  0  0  0  0
   10.2128  -13.0610   27.9147 C   0  0  0  0  0  0  0  0  0  0  0  0
    9.8701  -14.8101   28.2346 S   0  0  0  0  0  0  0  0  0  0  0  0
   10.3363  -15.8343   26.7913 C   0  0  0  0  0  0  0  0  0  0  0  0
   10.8209  -14.8937   25.7396 C   0  0  0  0  0  0  0  0  0  0  0  0
   11.3340  -15.5263   24.4879 C   0  0  2  0  0  0  0  0  0  0  0  0
   10.1416  -16.0037   23.7630 N   0  0  0  0  0  0  0  0  0  0  0  0
   12.2455  -16.6675   24.7514 C   0  0  0  0  0  0  0  0  0  0  0  0
   11.8677  -17.9698   24.4777 O   0  0  0  0  0  0  0  0  0  0  0  0
   13.3925  -16.4632   25.2357 O   0  0  0  0  0  0  0  0  0  0  0  0
  2 12  2  0
  2  1  1  0
  3  2  1  0
  4  5  1  0
  4  3  2  0
  5 11  2  0
  6  5  1  0
  7  6  1  0
  7  8  1  6
  9 10  2  0
  9  7  1  0
 11 12  1  0
 14 13  1  6
 14 16  1  0
 15 14  1  0
 16 17  1  1
 17  9  1  0
 18 19  2  0
 18 16  1  0
 20 21  1  0
 22 21  1  0
 23 22  1  0
 24 23  1  1
 24 25  1  0
 25 18  1  0
 26 24  1  0
 27 26  1  0
 28 26  2  0
M  END
$$$$
