YVM.pdb
     RDKit          3D

 28 28  0  0  1  0  0  0  0  0999 V2000
    8.1686  -12.7276   16.0757 O   0  0  0  0  0  0  0  0  0  0  0  0
    8.2321  -13.2329   17.3687 C   0  0  0  0  0  0  0  0  0  0  0  0
    7.3041  -12.7999   18.2728 C   0  0  0  0  0  0  0  0  0  0  0  0
    7.3569  -13.2984   19.5711 C   0  0  0  0  0  0  0  0  0  0  0  0
    8.3186  -14.2043   19.9362 C   0  0  0  0  0  0  0  0  0  0  0  0
    8.4062  -14.7559   21.3050 C   0  0  0  0  0  0  0  0  0  0  0  0
    8.2258  -16.2798   21.3087 C   0  0  2  0  0  0  0  0  0  0  0  0
    6.8256  -16.5122   21.0035 N   0  0  0  0  0  0  0  0  0  0  0  0
    8.5601  -16.7261   22.6836 C   0  0  0  0  0  0  0  0  0  0  0  0
    7.6592  -16.6669   23.5552 O   0  0  0  0  0  0  0  0  0  0  0  0
    9.2358  -14.6171   18.9997 C   0  0  0  0  0  0  0  0  0  0  0  0
    9.2280  -14.1546   17.7002 C   0  0  0  0  0  0  0  0  0  0  0  0
   10.4834  -19.9659   23.6071 C   0  0  0  0  0  0  0  0  0  0  0  0
   11.0666  -18.7994   24.3732 C   0  0  2  0  0  0  0  0  0  0  0  0
   11.5649  -19.2235   25.7294 C   0  0  0  0  0  0  0  0  0  0  0  0
   10.1157  -17.6358   24.4425 C   0  0  2  0  0  0  0  0  0  0  0  0
    9.8307  -17.2167   23.0834 N   0  0  0  0  0  0  0  0  0  0  0  0
   10.6224  -16.5214   25.2717 C   0  0  0  0  0  0  0  0  0  0  0  0
   11.4987  -15.7775   24.7610 O   0  0  0  0  0  0  0  0  0  0  0  0
    5.7894  -12.7313   27.4285 C   0  0  0  0  0  0  0  0  0  0  0  0
    7.5813  -12.5616   27.2310 S   0  0  0  0  0  0  0  0  0  0  0  0
    8.3865  -14.2050   27.2020 C   0  0  0  0  0  0  0  0  0  0  0  0
    9.8531  -13.9593   27.0830 C   0  0  0  0  0  0  0  0  0  0  0  0
   10.7342  -15.1297   27.3731 C   0  0  2  0  0  0  0  0  0  0  0  0
   10.1893  -16.2470   26.5794 N   0  0  0  0  0  0  0  0  0  0  0  0
   10.7450  -15.4999   28.8103 C   0  0  0  0  0  0  0  0  0  0  0  0
   11.3229  -14.6786   29.7618 O   0  0  0  0  0  0  0  0  0  0  0  0
   10.2210  -16.5832   29.1892 O   0  0  0  0  0  0  0  0  0  0  0  0
  2 12  2  0
  2  1  1  0
  3  2  1  0
  4  5  1  0
  4  3  2  0
  5 11  2  0
  6  5  1  0
  7  6  1  0
  7  8  1  1
  9 10  2  0
  9  7  1  0
 11 12  1  0
 14 13  1  1
 14 16  1  0
 15 14  1  0
 16 17  1  6
 17  9  1  0
 18 19  2  0
 18 16  1  0
 20 21  1  0
 22 21  1  0
 23 22  1  0
 24 23  1  1
 24 25  1  0
 25 18  1  0
 26 24  1  0
 27 26  1  0
 28 26  2  0
M  END
$$$$
