YVM.pdb
     RDKit          3D

 28 28  0  0  1  0  0  0  0  0999 V2000
    8.2969  -21.6338   30.0552 O   0  0  0  0  0  0  0  0  0  0  0  0
    8.1096  -20.7607   28.9903 C   0  0  0  0  0  0  0  0  0  0  0  0
    6.8336  -20.5499   28.5505 C   0  0  0  0  0  0  0  0  0  0  0  0
    6.6327  -19.6779   27.4847 C   0  0  0  0  0  0  0  0  0  0  0  0
    7.6913  -19.0435   26.8882 C   0  0  0  0  0  0  0  0  0  0  0  0
    7.5172  -18.1107   25.7545 C   0  0  0  0  0  0  0  0  0  0  0  0
    6.7046  -18.7506   24.6208 C   0  0  2  0  0  0  0  0  0  0  0  0
    7.0883  -20.1507   24.6019 N   0  0  0  0  0  0  0  0  0  0  0  0
    7.1251  -18.0586   23.3775 C   0  0  0  0  0  0  0  0  0  0  0  0
    7.8471  -18.6911   22.5692 O   0  0  0  0  0  0  0  0  0  0  0  0
    8.9611  -19.2800   27.3576 C   0  0  0  0  0  0  0  0  0  0  0  0
    9.2152  -20.1344   28.4102 C   0  0  0  0  0  0  0  0  0  0  0  0
    5.8528  -15.1563   20.9789 C   0  0  0  0  0  0  0  0  0  0  0  0
    6.9507  -14.6457   21.8854 C   0  0  2  0  0  0  0  0  0  0  0  0
    7.8384  -13.6584   21.1750 C   0  0  0  0  0  0  0  0  0  0  0  0
    7.7244  -15.7667   22.5237 C   0  0  2  0  0  0  0  0  0  0  0  0
    6.7671  -16.7278   23.0374 N   0  0  0  0  0  0  0  0  0  0  0  0
    8.6604  -15.3028   23.5703 C   0  0  0  0  0  0  0  0  0  0  0  0
    8.1788  -15.0666   24.7080 O   0  0  0  0  0  0  0  0  0  0  0  0
    9.7845  -12.6773   28.9065 C   0  0  0  0  0  0  0  0  0  0  0  0
   10.5677  -13.9591   27.8953 S   0  0  0  0  0  0  0  0  0  0  0  0
    9.6012  -14.2591   26.3703 C   0  0  0  0  0  0  0  0  0  0  0  0
   10.2073  -15.4508   25.7086 C   0  0  0  0  0  0  0  0  0  0  0  0
   11.0100  -15.1745   24.4800 C   0  0  2  0  0  0  0  0  0  0  0  0
   10.0379  -15.1126   23.3726 N   0  0  0  0  0  0  0  0  0  0  0  0
   12.0157  -16.2294   24.2001 C   0  0  0  0  0  0  0  0  0  0  0  0
   11.7545  -17.2565   23.3108 O   0  0  0  0  0  0  0  0  0  0  0  0
   13.1374  -16.2043   24.7772 O   0  0  0  0  0  0  0  0  0  0  0  0
  2 12  2  0
  2  1  1  0
  3  2  1  0
  4  5  1  0
  4  3  2  0
  5 11  2  0
  6  5  1  0
  7  6  1  0
  7  8  1  6
  9 10  2  0
  9  7  1  0
 11 12  1  0
 14 13  1  6
 14 16  1  0
 15 14  1  0
 16 17  1  1
 17  9  1  0
 18 19  2  0
 18 16  1  0
 20 21  1  0
 22 21  1  0
 23 22  1  0
 24 23  1  1
 24 25  1  0
 25 18  1  0
 26 24  1  0
 27 26  1  0
 28 26  2  0
M  END
$$$$
