YVM.pdb
     RDKit          3D

 28 28  0  0  1  0  0  0  0  0999 V2000
    8.8903  -20.6637   29.9518 O   0  0  0  0  0  0  0  0  0  0  0  0
    8.5222  -20.2995   28.6622 C   0  0  0  0  0  0  0  0  0  0  0  0
    7.5917  -21.0662   28.0201 C   0  0  0  0  0  0  0  0  0  0  0  0
    7.2145  -20.7121   26.7282 C   0  0  0  0  0  0  0  0  0  0  0  0
    7.7640  -19.6179   26.1121 C   0  0  0  0  0  0  0  0  0  0  0  0
    7.3884  -19.2107   24.7414 C   0  0  0  0  0  0  0  0  0  0  0  0
    6.1446  -18.3118   24.7438 C   0  0  2  0  0  0  0  0  0  0  0  0
    5.2531  -18.8690   23.7425 N   0  0  0  0  0  0  0  0  0  0  0  0
    6.6178  -16.9608   24.3536 C   0  0  0  0  0  0  0  0  0  0  0  0
    6.9097  -16.7664   23.1487 O   0  0  0  0  0  0  0  0  0  0  0  0
    8.6974  -18.8700   26.7889 C   0  0  0  0  0  0  0  0  0  0  0  0
    9.1061  -19.1772   28.0700 C   0  0  0  0  0  0  0  0  0  0  0  0
    5.2309  -13.5198   25.9317 C   0  0  0  0  0  0  0  0  0  0  0  0
    6.7399  -13.5561   25.8346 C   0  0  2  0  0  0  0  0  0  0  0  0
    7.3114  -12.1821   25.6042 C   0  0  0  0  0  0  0  0  0  0  0  0
    7.2176  -14.5604   24.8217 C   0  0  2  0  0  0  0  0  0  0  0  0
    6.7640  -15.8699   25.2499 N   0  0  0  0  0  0  0  0  0  0  0  0
    8.6809  -14.5215   24.6122 C   0  0  0  0  0  0  0  0  0  0  0  0
    9.2064  -13.3923   24.4369 O   0  0  0  0  0  0  0  0  0  0  0  0
   10.2589  -13.4707   29.0929 C   0  0  0  0  0  0  0  0  0  0  0  0
   11.3676  -14.8998   29.1778 S   0  0  0  0  0  0  0  0  0  0  0  0
   11.8725  -15.4262   27.4992 C   0  0  0  0  0  0  0  0  0  0  0  0
   10.6639  -15.3062   26.6329 C   0  0  0  0  0  0  0  0  0  0  0  0
   10.8576  -15.6565   25.1942 C   0  0  2  0  0  0  0  0  0  0  0  0
    9.5089  -15.6560   24.5973 N   0  0  0  0  0  0  0  0  0  0  0  0
   11.4843  -16.9885   25.0053 C   0  0  0  0  0  0  0  0  0  0  0  0
   12.8194  -17.2047   25.2963 O   0  0  0  0  0  0  0  0  0  0  0  0
   10.7994  -17.9547   24.5704 O   0  0  0  0  0  0  0  0  0  0  0  0
  2 12  2  0
  2  1  1  0
  3  2  1  0
  4  5  1  0
  4  3  2  0
  5 11  2  0
  6  5  1  0
  7  6  1  0
  7  8  1  6
  9 10  2  0
  9  7  1  0
 11 12  1  0
 14 13  1  6
 14 16  1  0
 15 14  1  0
 16 17  1  1
 17  9  1  0
 18 19  2  0
 18 16  1  0
 20 21  1  0
 22 21  1  0
 23 22  1  0
 24 23  1  1
 24 25  1  0
 25 18  1  0
 26 24  1  0
 27 26  1  0
 28 26  2  0
M  END
$$$$
