VRV.pdb
     RDKit          3D

 26 25  0  0  1  0  0  0  0  0999 V2000
   28.6653  -18.9778  -13.5167 C   0  0  0  0  0  0  0  0  0  0  0  0
   28.4526  -20.4711  -13.6395 C   0  0  1  0  0  0  0  0  0  0  0  0
   29.2675  -21.1222  -12.5308 C   0  0  0  0  0  0  0  0  0  0  0  0
   26.9756  -20.7390  -13.4553 C   0  0  2  0  0  0  0  0  0  0  0  0
   26.3122  -20.1564  -14.6083 N   0  0  0  0  0  0  0  0  0  0  0  0
   26.4559  -20.1712  -12.1959 C   0  0  0  0  0  0  0  0  0  0  0  0
   26.4878  -18.9144  -12.0701 O   0  0  0  0  0  0  0  0  0  0  0  0
   20.0579  -19.3676   -9.2922 N   0  0  0  0  0  0  0  0  0  0  0  0
   20.3487  -20.5559  -10.0194 C   0  0  0  0  0  0  0  0  0  0  0  0
   19.7389  -20.7707  -11.1531 N   0  0  0  0  0  0  0  0  0  0  0  0
   21.2745  -21.5231   -9.5617 N   0  0  0  0  0  0  0  0  0  0  0  0
   21.9820  -21.3254   -8.3258 C   0  0  0  0  0  0  0  0  0  0  0  0
   23.3182  -20.6425   -8.5103 C   0  0  0  0  0  0  0  0  0  0  0  0
   24.0266  -21.0645   -9.7390 C   0  0  0  0  0  0  0  0  0  0  0  0
   25.3736  -20.4103   -9.9106 C   0  0  2  0  0  0  0  0  0  0  0  0
   25.9325  -20.9551  -11.1409 N   0  0  0  0  0  0  0  0  0  0  0  0
   26.2242  -20.7562   -8.7506 C   0  0  0  0  0  0  0  0  0  0  0  0
   26.4667  -21.9612   -8.5346 O   0  0  0  0  0  0  0  0  0  0  0  0
   19.9247  -21.6253  -11.7173 C   0  0  0  0  0  0  0  0  0  0  0  0
   29.3357  -19.6855   -5.1480 C   0  0  1  0  0  0  0  0  0  0  0  0
   28.3984  -19.0902   -6.1753 C   0  0  0  0  0  0  0  0  0  0  0  0
   27.5878  -17.9931   -5.5446 C   0  0  2  0  0  0  0  0  0  0  0  0
   27.5507  -20.2076   -6.7324 N   0  0  0  0  0  0  0  0  0  0  0  0
   26.7803  -19.8066   -7.8711 C   0  0  0  0  0  0  0  0  0  0  0  0
   26.7150  -20.7393   -5.6287 O   0  0  0  0  0  0  0  0  0  0  0  0
   27.2296  -21.4318   -4.5365 O   0  0  0  0  0  0  0  0  0  0  0  0
  2  3  1  1
  2  1  1  0
  4  2  1  0
  4  5  1  6
  6  4  1  0
  6  7  2  0
  9  8  1  0
 10  9  2  0
 11  9  1  0
 12 13  1  0
 12 11  1  0
 13 14  1  0
 15 14  1  1
 15 16  1  0
 16  6  1  0
 17 15  1  0
 18 17  2  0
 20 19  1  6
 20 22  1  0
 21 20  1  0
 22 24  1  0
 22 23  1  1
 23 17  1  0
 24 25  1  0
 26 24  2  0
M  END
$$$$
