VRV.pdb
     RDKit          3D

 26 25  0  0  1  0  0  0  0  0999 V2000
   25.5572  -15.3037  -19.6372 C   0  0  0  0  0  0  0  0  0  0  0  0
   25.1689  -16.6924  -19.1779 C   0  0  1  0  0  0  0  0  0  0  0  0
   26.4655  -17.4505  -18.9307 C   0  0  0  0  0  0  0  0  0  0  0  0
   24.3749  -16.5453  -17.8991 C   0  0  2  0  0  0  0  0  0  0  0  0
   25.1258  -15.6281  -17.0602 N   0  0  0  0  0  0  0  0  0  0  0  0
   24.1618  -17.8385  -17.2200 C   0  0  0  0  0  0  0  0  0  0  0  0
   23.4260  -18.6845  -17.8024 O   0  0  0  0  0  0  0  0  0  0  0  0
   26.1243  -19.2671   -9.9380 N   0  0  0  0  0  0  0  0  0  0  0  0
   25.7946  -20.6500  -10.0051 C   0  0  0  0  0  0  0  0  0  0  0  0
   25.1720  -21.2028   -9.0001 N   0  0  0  0  0  0  0  0  0  0  0  0
   26.1180  -21.4580  -11.1206 N   0  0  0  0  0  0  0  0  0  0  0  0
   26.5556  -20.8575  -12.3515 C   0  0  0  0  0  0  0  0  0  0  0  0
   25.4530  -20.7418  -13.3794 C   0  0  0  0  0  0  0  0  0  0  0  0
   25.5078  -19.4845  -14.1578 C   0  0  0  0  0  0  0  0  0  0  0  0
   24.4648  -19.4036  -15.2427 C   0  0  2  0  0  0  0  0  0  0  0  0
   24.7333  -18.1693  -15.9689 N   0  0  0  0  0  0  0  0  0  0  0  0
   23.1253  -19.3620  -14.6160 C   0  0  0  0  0  0  0  0  0  0  0  0
   22.8468  -18.3918  -13.8821 O   0  0  0  0  0  0  0  0  0  0  0  0
   24.9657  -22.2227   -8.9826 C   0  0  0  0  0  0  0  0  0  0  0  0
   19.7891  -21.7236  -15.7985 C   0  0  1  0  0  0  0  0  0  0  0  0
   19.7145  -20.3604  -15.1470 C   0  0  0  0  0  0  0  0  0  0  0  0
   19.7390  -19.2926  -16.2041 C   0  0  1  0  0  0  0  0  0  0  0  0
   20.8577  -20.2510  -14.1678 N   0  0  0  0  0  0  0  0  0  0  0  0
   22.1402  -20.3526  -14.7969 C   0  0  0  0  0  0  0  0  0  0  0  0
   20.6513  -21.2703  -13.1106 O   0  0  0  0  0  0  0  0  0  0  0  0
   19.6412  -21.1973  -12.1558 O   0  0  0  0  0  0  0  0  0  0  0  0
  2  3  1  1
  2  1  1  0
  4  2  1  0
  4  5  1  1
  6  4  1  0
  6  7  2  0
  9  8  1  0
 10  9  2  0
 11  9  1  0
 12 13  1  0
 12 11  1  0
 13 14  1  0
 15 14  1  1
 15 16  1  0
 16  6  1  0
 17 15  1  0
 18 17  2  0
 20 19  1  6
 20 22  1  0
 21 20  1  0
 22 24  1  0
 22 23  1  6
 23 17  1  0
 24 25  1  0
 26 24  2  0
M  END
$$$$
