VRV.pdb
     RDKit          3D

 26 25  0  0  1  0  0  0  0  0999 V2000
   18.2061  -19.9391  -16.2339 C   0  0  0  0  0  0  0  0  0  0  0  0
   19.0946  -20.8423  -15.4063 C   0  0  1  0  0  0  0  0  0  0  0  0
   19.5619  -21.9605  -16.3273 C   0  0  0  0  0  0  0  0  0  0  0  0
   20.2641  -20.0142  -14.9226 C   0  0  2  0  0  0  0  0  0  0  0  0
   20.7148  -19.2434  -16.0679 N   0  0  0  0  0  0  0  0  0  0  0  0
   21.3532  -20.8477  -14.3769 C   0  0  0  0  0  0  0  0  0  0  0  0
   21.1384  -21.4363  -13.2798 O   0  0  0  0  0  0  0  0  0  0  0  0
   26.3436  -25.9373  -16.1409 N   0  0  0  0  0  0  0  0  0  0  0  0
   25.8511  -25.1734  -17.2360 C   0  0  0  0  0  0  0  0  0  0  0  0
   25.1225  -25.7634  -18.1439 N   0  0  0  0  0  0  0  0  0  0  0  0
   26.1220  -23.7928  -17.3861 N   0  0  0  0  0  0  0  0  0  0  0  0
   26.8028  -23.0678  -16.3477 C   0  0  0  0  0  0  0  0  0  0  0  0
   25.9050  -22.7174  -15.1828 C   0  0  0  0  0  0  0  0  0  0  0  0
   24.6091  -22.1354  -15.5969 C   0  0  0  0  0  0  0  0  0  0  0  0
   23.7306  -21.7394  -14.4380 C   0  0  2  0  0  0  0  0  0  0  0  0
   22.6050  -21.0156  -15.0142 N   0  0  0  0  0  0  0  0  0  0  0  0
   24.5044  -20.8665  -13.5281 C   0  0  0  0  0  0  0  0  0  0  0  0
   24.6896  -19.6791  -13.8647 O   0  0  0  0  0  0  0  0  0  0  0  0
   24.7050  -25.2325  -18.9357 C   0  0  0  0  0  0  0  0  0  0  0  0
   26.3894  -19.5178   -9.3017 C   0  0  1  0  0  0  0  0  0  0  0  0
   25.6980  -20.6516  -10.0259 C   0  0  0  0  0  0  0  0  0  0  0  0
   26.2579  -21.9659   -9.5592 C   0  0  2  0  0  0  0  0  0  0  0  0
   25.8692  -20.4279  -11.5085 N   0  0  0  0  0  0  0  0  0  0  0  0
   25.0471  -21.2931  -12.3001 C   0  0  0  0  0  0  0  0  0  0  0  0
   27.3124  -20.5549  -11.8249 O   0  0  0  0  0  0  0  0  0  0  0  0
   28.2459  -19.5509  -11.5839 O   0  0  0  0  0  0  0  0  0  0  0  0
  2  3  1  6
  2  1  1  0
  4  2  1  0
  4  5  1  6
  6  4  1  0
  6  7  2  0
  9  8  1  0
 10  9  2  0
 11  9  1  0
 12 13  1  0
 12 11  1  0
 13 14  1  0
 15 14  1  6
 15 16  1  0
 16  6  1  0
 17 15  1  0
 18 17  2  0
 20 19  1  1
 20 22  1  0
 21 20  1  0
 22 24  1  0
 22 23  1  6
 23 17  1  0
 24 25  1  0
 26 24  2  0
M  END
$$$$
