VRV.pdb
     RDKit          3D

 26 25  0  0  1  0  0  0  0  0999 V2000
   15.2470   -7.1376   -7.8327 C   0  0  0  0  0  0  0  0  0  0  0  0
   14.1430   -6.9247   -8.8456 C   0  0  1  0  0  0  0  0  0  0  0  0
   14.4791   -5.6445   -9.5972 C   0  0  0  0  0  0  0  0  0  0  0  0
   14.1418   -8.1159   -9.7775 C   0  0  2  0  0  0  0  0  0  0  0  0
   13.7761   -9.2635   -8.9662 N   0  0  0  0  0  0  0  0  0  0  0  0
   15.4501   -8.3178  -10.4304 C   0  0  0  0  0  0  0  0  0  0  0  0
   16.3177   -8.9826   -9.7967 O   0  0  0  0  0  0  0  0  0  0  0  0
   14.6369  -11.5071  -17.7774 N   0  0  0  0  0  0  0  0  0  0  0  0
   14.5219  -12.1964  -16.5376 C   0  0  0  0  0  0  0  0  0  0  0  0
   13.9331  -13.3608  -16.5117 N   0  0  0  0  0  0  0  0  0  0  0  0
   15.0187  -11.6687  -15.3224 N   0  0  0  0  0  0  0  0  0  0  0  0
   15.5826  -10.3467  -15.2799 C   0  0  0  0  0  0  0  0  0  0  0  0
   16.0687   -9.9536  -13.9034 C   0  0  0  0  0  0  0  0  0  0  0  0
   16.5378   -8.5523  -13.8262 C   0  0  0  0  0  0  0  0  0  0  0  0
   16.9856   -8.1438  -12.4462 C   0  0  2  0  0  0  0  0  0  0  0  0
   15.7726   -7.8104  -11.7110 N   0  0  0  0  0  0  0  0  0  0  0  0
   17.8701   -6.9635  -12.5606 C   0  0  0  0  0  0  0  0  0  0  0  0
   17.3565   -5.8297  -12.4689 O   0  0  0  0  0  0  0  0  0  0  0  0
   13.8439  -13.9058  -15.6296 C   0  0  0  0  0  0  0  0  0  0  0  0
   22.2705   -4.8202  -12.9574 C   0  0  1  0  0  0  0  0  0  0  0  0
   21.5402   -6.1388  -12.8298 C   0  0  0  0  0  0  0  0  0  0  0  0
   22.0161   -7.0858  -13.8953 C   0  0  2  0  0  0  0  0  0  0  0  0
   20.0593   -5.8580  -12.9053 N   0  0  0  0  0  0  0  0  0  0  0  0
   19.2615   -7.0393  -12.7668 C   0  0  0  0  0  0  0  0  0  0  0  0
   19.7975   -5.1302  -14.1706 O   0  0  0  0  0  0  0  0  0  0  0  0
   19.8664   -3.7454  -14.2920 O   0  0  0  0  0  0  0  0  0  0  0  0
  2  3  1  6
  2  1  1  0
  4  2  1  0
  4  5  1  1
  6  4  1  0
  6  7  2  0
  9  8  1  0
 10  9  2  0
 11  9  1  0
 12 13  1  0
 12 11  1  0
 13 14  1  0
 15 14  1  6
 15 16  1  0
 16  6  1  0
 17 15  1  0
 18 17  2  0
 20 19  1  1
 20 22  1  0
 21 20  1  0
 22 24  1  0
 22 23  1  6
 23 17  1  0
 24 25  1  0
 26 24  2  0
M  END
$$$$
