VRV.pdb
     RDKit          3D

 26 25  0  0  1  0  0  0  0  0999 V2000
   11.1295  -21.3240   -4.7510 C   0  0  0  0  0  0  0  0  0  0  0  0
   11.6378  -22.7462   -4.8459 C   0  0  1  0  0  0  0  0  0  0  0  0
   11.7863  -23.0603   -6.3279 C   0  0  0  0  0  0  0  0  0  0  0  0
   12.9761  -22.8011   -4.1436 C   0  0  2  0  0  0  0  0  0  0  0  0
   13.6756  -21.5826   -4.5108 N   0  0  0  0  0  0  0  0  0  0  0  0
   13.7556  -23.9980   -4.5157 C   0  0  0  0  0  0  0  0  0  0  0  0
   13.2746  -25.1235   -4.2020 O   0  0  0  0  0  0  0  0  0  0  0  0
   19.8483  -24.8664  -10.6912 N   0  0  0  0  0  0  0  0  0  0  0  0
   18.8212  -25.8440  -10.5694 C   0  0  0  0  0  0  0  0  0  0  0  0
   18.5050  -26.5647  -11.6106 N   0  0  0  0  0  0  0  0  0  0  0  0
   18.1204  -26.0677   -9.3608 N   0  0  0  0  0  0  0  0  0  0  0  0
   18.5634  -25.4535   -8.1386 C   0  0  0  0  0  0  0  0  0  0  0  0
   17.6984  -25.8069   -6.9500 C   0  0  0  0  0  0  0  0  0  0  0  0
   16.7513  -24.7335   -6.5754 C   0  0  0  0  0  0  0  0  0  0  0  0
   15.8649  -25.0938   -5.4109 C   0  0  2  0  0  0  0  0  0  0  0  0
   14.9949  -23.9449   -5.1958 N   0  0  0  0  0  0  0  0  0  0  0  0
   16.7122  -25.3389   -4.2231 C   0  0  0  0  0  0  0  0  0  0  0  0
   17.3597  -24.3817   -3.7520 O   0  0  0  0  0  0  0  0  0  0  0  0
   17.7220  -27.2495  -11.5806 C   0  0  0  0  0  0  0  0  0  0  0  0
   17.1712  -29.1505   -2.3455 C   0  0  1  0  0  0  0  0  0  0  0  0
   17.1378  -27.8797   -1.5256 C   0  0  0  0  0  0  0  0  0  0  0  0
   15.7509  -27.6597   -0.9900 C   0  0  1  0  0  0  0  0  0  0  0  0
   17.6206  -26.7496   -2.4016 N   0  0  0  0  0  0  0  0  0  0  0  0
   16.8340  -26.5902   -3.5876 C   0  0  0  0  0  0  0  0  0  0  0  0
   19.0576  -26.9776   -2.6886 O   0  0  0  0  0  0  0  0  0  0  0  0
   20.0770  -26.7143   -1.7782 O   0  0  0  0  0  0  0  0  0  0  0  0
  2  3  1  6
  2  1  1  0
  4  2  1  0
  4  5  1  6
  6  4  1  0
  6  7  2  0
  9  8  1  0
 10  9  2  0
 11  9  1  0
 12 13  1  0
 12 11  1  0
 13 14  1  0
 15 14  1  6
 15 16  1  0
 16  6  1  0
 17 15  1  0
 18 17  2  0
 20 19  1  1
 20 22  1  0
 21 20  1  0
 22 24  1  0
 22 23  1  6
 23 17  1  0
 24 25  1  0
 26 24  2  0
M  END
$$$$
