VRV.pdb
     RDKit          3D

 26 25  0  0  1  0  0  0  0  0999 V2000
   28.5312  -20.7457  -17.5617 C   0  0  0  0  0  0  0  0  0  0  0  0
   27.6339  -20.0575  -16.5561 C   0  0  1  0  0  0  0  0  0  0  0  0
   26.2018  -20.4061  -16.9363 C   0  0  0  0  0  0  0  0  0  0  0  0
   27.9792  -20.6018  -15.1879 C   0  0  2  0  0  0  0  0  0  0  0  0
   27.7768  -22.0379  -15.2612 N   0  0  0  0  0  0  0  0  0  0  0  0
   27.1558  -19.9995  -14.1211 C   0  0  0  0  0  0  0  0  0  0  0  0
   27.2492  -18.7509  -13.9520 O   0  0  0  0  0  0  0  0  0  0  0  0
   19.3397  -20.8553  -14.6277 N   0  0  0  0  0  0  0  0  0  0  0  0
   20.4883  -21.6756  -14.8099 C   0  0  0  0  0  0  0  0  0  0  0  0
   20.3459  -22.8552  -15.3498 N   0  0  0  0  0  0  0  0  0  0  0  0
   21.7869  -21.2662  -14.4252 N   0  0  0  0  0  0  0  0  0  0  0  0
   22.0105  -19.9409  -13.9146 C   0  0  0  0  0  0  0  0  0  0  0  0
   23.4678  -19.6518  -13.6339 C   0  0  0  0  0  0  0  0  0  0  0  0
   24.0392  -20.5048  -12.5684 C   0  0  0  0  0  0  0  0  0  0  0  0
   25.4685  -20.1667  -12.2300 C   0  0  2  0  0  0  0  0  0  0  0  0
   26.2815  -20.7423  -13.2933 N   0  0  0  0  0  0  0  0  0  0  0  0
   25.8071  -20.7742  -10.9243 C   0  0  0  0  0  0  0  0  0  0  0  0
   25.9718  -22.0103  -10.8731 O   0  0  0  0  0  0  0  0  0  0  0  0
   21.1538  -23.5005  -15.4681 C   0  0  0  0  0  0  0  0  0  0  0  0
   28.1091  -19.2819   -8.0477 C   0  0  1  0  0  0  0  0  0  0  0  0
   26.8233  -19.8082   -7.4495 C   0  0  0  0  0  0  0  0  0  0  0  0
   27.1192  -20.5155   -6.1569 C   0  0  2  0  0  0  0  0  0  0  0  0
   26.1652  -20.6989   -8.4749 N   0  0  0  0  0  0  0  0  0  0  0  0
   25.9566  -20.0419   -9.7302 C   0  0  0  0  0  0  0  0  0  0  0  0
   24.9110  -21.2249   -7.8836 O   0  0  0  0  0  0  0  0  0  0  0  0
   24.8661  -22.3022   -7.0034 O   0  0  0  0  0  0  0  0  0  0  0  0
  2  3  1  6
  2  1  1  0
  4  2  1  0
  4  5  1  6
  6  4  1  0
  6  7  2  0
  9  8  1  0
 10  9  2  0
 11  9  1  0
 12 13  1  0
 12 11  1  0
 13 14  1  0
 15 14  1  6
 15 16  1  0
 16  6  1  0
 17 15  1  0
 18 17  2  0
 20 19  1  1
 20 22  1  0
 21 20  1  0
 22 24  1  0
 22 23  1  6
 23 17  1  0
 24 25  1  0
 26 24  2  0
M  END
$$$$
