VRV.pdb
     RDKit          3D

 26 25  0  0  1  0  0  0  0  0999 V2000
   22.6628  -18.9835  -17.0461 C   0  0  0  0  0  0  0  0  0  0  0  0
   23.5456  -19.3003  -15.8586 C   0  0  1  0  0  0  0  0  0  0  0  0
   22.6259  -19.7820  -14.7453 C   0  0  0  0  0  0  0  0  0  0  0  0
   24.5042  -20.3915  -16.2799 C   0  0  2  0  0  0  0  0  0  0  0  0
   23.6831  -21.4800  -16.7798 N   0  0  0  0  0  0  0  0  0  0  0  0
   25.3670  -20.8391  -15.1690 C   0  0  0  0  0  0  0  0  0  0  0  0
   24.9085  -21.7332  -14.4031 O   0  0  0  0  0  0  0  0  0  0  0  0
   32.6691  -23.0699  -12.9490 N   0  0  0  0  0  0  0  0  0  0  0  0
   32.3261  -22.4288  -11.7256 C   0  0  0  0  0  0  0  0  0  0  0  0
   33.1437  -22.5176  -10.7122 N   0  0  0  0  0  0  0  0  0  0  0  0
   31.1268  -21.6970  -11.5579 N   0  0  0  0  0  0  0  0  0  0  0  0
   30.2104  -21.5409  -12.6548 C   0  0  0  0  0  0  0  0  0  0  0  0
   29.7261  -20.1188  -12.8247 C   0  0  0  0  0  0  0  0  0  0  0  0
   28.7914  -19.9503  -13.9594 C   0  0  0  0  0  0  0  0  0  0  0  0
   27.4684  -20.6429  -13.7560 C   0  0  2  0  0  0  0  0  0  0  0  0
   26.6614  -20.3226  -14.9261 N   0  0  0  0  0  0  0  0  0  0  0  0
   26.8380  -20.1174  -12.5250 C   0  0  0  0  0  0  0  0  0  0  0  0
   26.6371  -18.8884  -12.4430 O   0  0  0  0  0  0  0  0  0  0  0  0
   32.9476  -22.0350   -9.8112 C   0  0  0  0  0  0  0  0  0  0  0  0
   23.6083  -20.7287  -10.8916 C   0  0  1  0  0  0  0  0  0  0  0  0
   24.6255  -20.9667   -9.7975 C   0  0  0  0  0  0  0  0  0  0  0  0
   24.1104  -20.4124   -8.4990 C   0  0  2  0  0  0  0  0  0  0  0  0
   25.9290  -20.3427  -10.2323 N   0  0  0  0  0  0  0  0  0  0  0  0
   26.4482  -20.9207  -11.4354 C   0  0  0  0  0  0  0  0  0  0  0  0
   26.8770  -20.4287   -9.0952 O   0  0  0  0  0  0  0  0  0  0  0  0
   27.9739  -21.2851   -9.0689 O   0  0  0  0  0  0  0  0  0  0  0  0
  2  3  1  1
  2  1  1  0
  4  2  1  0
  4  5  1  1
  6  4  1  0
  6  7  2  0
  9  8  1  0
 10  9  2  0
 11  9  1  0
 12 13  1  0
 12 11  1  0
 13 14  1  0
 15 14  1  6
 15 16  1  0
 16  6  1  0
 17 15  1  0
 18 17  2  0
 20 19  1  1
 20 22  1  0
 21 20  1  0
 22 24  1  0
 22 23  1  6
 23 17  1  0
 24 25  1  0
 26 24  2  0
M  END
$$$$
