VRV.pdb
     RDKit          3D

 26 25  0  0  1  0  0  0  0  0999 V2000
   19.7836  -24.0597  -16.5331 C   0  0  0  0  0  0  0  0  0  0  0  0
   18.8914  -24.2475  -15.3253 C   0  0  1  0  0  0  0  0  0  0  0  0
   17.4799  -24.4633  -15.8527 C   0  0  0  0  0  0  0  0  0  0  0  0
   19.3834  -25.4674  -14.5788 C   0  0  2  0  0  0  0  0  0  0  0  0
   19.4858  -26.5298  -15.5635 N   0  0  0  0  0  0  0  0  0  0  0  0
   18.4832  -25.8483  -13.4728 C   0  0  0  0  0  0  0  0  0  0  0  0
   17.5034  -26.5948  -13.7539 O   0  0  0  0  0  0  0  0  0  0  0  0
   17.5702  -24.5764   -5.5992 N   0  0  0  0  0  0  0  0  0  0  0  0
   17.3516  -25.9674   -5.3926 C   0  0  0  0  0  0  0  0  0  0  0  0
   16.6447  -26.3524   -4.3653 N   0  0  0  0  0  0  0  0  0  0  0  0
   17.8740  -26.9584   -6.2569 N   0  0  0  0  0  0  0  0  0  0  0  0
   18.6465  -26.5840   -7.4102 C   0  0  0  0  0  0  0  0  0  0  0  0
   17.7930  -26.2511   -8.6129 C   0  0  0  0  0  0  0  0  0  0  0  0
   18.5818  -26.0023   -9.8399 C   0  0  0  0  0  0  0  0  0  0  0  0
   17.7333  -25.7077  -11.0502 C   0  0  2  0  0  0  0  0  0  0  0  0
   18.6634  -25.4241  -12.1353 N   0  0  0  0  0  0  0  0  0  0  0  0
   16.8862  -24.5289  -10.7647 C   0  0  0  0  0  0  0  0  0  0  0  0
   17.4483  -23.4337  -10.5593 O   0  0  0  0  0  0  0  0  0  0  0  0
   16.4953  -27.3606   -4.1549 C   0  0  0  0  0  0  0  0  0  0  0  0
   12.8200  -24.3367  -11.7554 C   0  0  1  0  0  0  0  0  0  0  0  0
   13.7376  -23.1366  -11.6769 C   0  0  0  0  0  0  0  0  0  0  0  0
   14.4145  -22.9299  -13.0026 C   0  0  1  0  0  0  0  0  0  0  0  0
   14.7091  -23.3688  -10.5456 N   0  0  0  0  0  0  0  0  0  0  0  0
   15.4790  -24.5650  -10.7105 C   0  0  0  0  0  0  0  0  0  0  0  0
   13.9437  -23.3458   -9.2756 O   0  0  0  0  0  0  0  0  0  0  0  0
   13.4520  -22.1814   -8.6927 O   0  0  0  0  0  0  0  0  0  0  0  0
  2  3  1  6
  2  1  1  0
  4  2  1  0
  4  5  1  6
  6  4  1  0
  6  7  2  0
  9  8  1  0
 10  9  2  0
 11  9  1  0
 12 13  1  0
 12 11  1  0
 13 14  1  0
 15 14  1  1
 15 16  1  0
 16  6  1  0
 17 15  1  0
 18 17  2  0
 20 19  1  6
 20 22  1  0
 21 20  1  0
 22 24  1  0
 22 23  1  6
 23 17  1  0
 24 25  1  0
 26 24  2  0
M  END
$$$$
