VRV.pdb
     RDKit          3D

 26 25  0  0  1  0  0  0  0  0999 V2000
   26.4281  -15.5457  -14.3082 C   0  0  0  0  0  0  0  0  0  0  0  0
   25.6382  -15.8418  -15.5646 C   0  0  1  0  0  0  0  0  0  0  0  0
   25.6049  -14.5535  -16.3748 C   0  0  0  0  0  0  0  0  0  0  0  0
   26.3658  -16.9351  -16.3148 C   0  0  2  0  0  0  0  0  0  0  0  0
   25.6611  -17.0993  -17.5739 N   0  0  0  0  0  0  0  0  0  0  0  0
   26.4091  -18.2012  -15.5573 C   0  0  0  0  0  0  0  0  0  0  0  0
   25.3084  -18.7775  -15.3281 O   0  0  0  0  0  0  0  0  0  0  0  0
   32.8961  -21.6652  -11.0551 N   0  0  0  0  0  0  0  0  0  0  0  0
   32.7192  -22.5573  -12.1498 C   0  0  0  0  0  0  0  0  0  0  0  0
   33.6827  -23.3819  -12.4578 N   0  0  0  0  0  0  0  0  0  0  0  0
   31.5368  -22.5868  -12.9263 N   0  0  0  0  0  0  0  0  0  0  0  0
   30.4401  -21.7105  -12.6155 C   0  0  0  0  0  0  0  0  0  0  0  0
   29.3363  -21.7531  -13.6477 C   0  0  0  0  0  0  0  0  0  0  0  0
   29.1067  -20.4517  -14.3134 C   0  0  0  0  0  0  0  0  0  0  0  0
   27.6641  -20.0154  -14.2983 C   0  0  2  0  0  0  0  0  0  0  0  0
   27.6054  -18.7896  -15.0838 N   0  0  0  0  0  0  0  0  0  0  0  0
   27.2564  -19.7609  -12.8991 C   0  0  0  0  0  0  0  0  0  0  0  0
   27.9394  -18.9673  -12.2200 O   0  0  0  0  0  0  0  0  0  0  0  0
   33.5864  -24.0636  -13.2383 C   0  0  0  0  0  0  0  0  0  0  0  0
   25.3821  -18.6197  -10.1161 C   0  0  1  0  0  0  0  0  0  0  0  0
   25.1384  -20.1116  -10.0599 C   0  0  0  0  0  0  0  0  0  0  0  0
   25.1596  -20.5739   -8.6301 C   0  0  2  0  0  0  0  0  0  0  0  0
   26.1834  -20.7848  -10.9157 N   0  0  0  0  0  0  0  0  0  0  0  0
   26.1404  -20.3604  -12.2828 C   0  0  0  0  0  0  0  0  0  0  0  0
   26.0231  -22.2510  -10.7615 O   0  0  0  0  0  0  0  0  0  0  0  0
   26.4329  -22.9572   -9.6343 O   0  0  0  0  0  0  0  0  0  0  0  0
  2  3  1  6
  2  1  1  0
  4  2  1  0
  4  5  1  6
  6  4  1  0
  6  7  2  0
  9  8  1  0
 10  9  2  0
 11  9  1  0
 12 13  1  0
 12 11  1  0
 13 14  1  0
 15 14  1  1
 15 16  1  0
 16  6  1  0
 17 15  1  0
 18 17  2  0
 20 19  1  1
 20 22  1  0
 21 20  1  0
 22 24  1  0
 22 23  1  1
 23 17  1  0
 24 25  1  0
 26 24  2  0
M  END
$$$$
