CQL.pdb
     RDKit          3D

 24 23  0  0  1  0  0  0  0  0999 V2000
   18.0234  -26.5710   -3.7689 N   0  0  0  0  0  0  0  0  0  0  0  0
   16.6776  -26.4682   -3.2974 C   0  0  1  0  0  0  0  0  0  0  0  0
   16.3968  -27.5570   -2.3073 C   0  0  0  0  0  0  0  0  0  0  0  0
   16.6460  -29.1366   -3.2220 S   0  0  0  0  0  0  0  0  0  0  0  0
   16.4320  -25.0840   -2.7276 C   0  0  0  0  0  0  0  0  0  0  0  0
   17.3181  -24.6592   -1.9777 O   0  0  0  0  0  0  0  0  0  0  0  0
   11.6611  -21.7466   -5.3150 N   0  0  0  0  0  0  0  0  0  0  0  0
   11.8517  -21.0187   -4.0861 C   0  0  0  0  0  0  0  0  0  0  0  0
   11.1307  -20.0097   -3.9388 O   0  0  0  0  0  0  0  0  0  0  0  0
   12.8533  -21.5128   -3.1246 C   0  0  0  0  0  0  0  0  0  0  0  0
   13.5521  -22.7691   -3.5299 C   0  0  0  0  0  0  0  0  0  0  0  0
   14.6568  -23.2133   -2.6208 C   0  0  2  0  0  0  0  0  0  0  0  0
   15.2825  -24.4066   -3.0594 N   0  0  0  0  0  0  0  0  0  0  0  0
   14.3496  -23.0805   -1.1769 C   0  0  0  0  0  0  0  0  0  0  0  0
   13.8066  -23.9644   -0.4951 O   0  0  0  0  0  0  0  0  0  0  0  0
   17.5834  -22.2465    3.4083 C   0  0  0  0  0  0  0  0  0  0  0  0
   16.0856  -21.9976    3.0877 C   0  0  1  0  0  0  0  0  0  0  0  0
   15.7939  -20.6509    3.7469 C   0  0  0  0  0  0  0  0  0  0  0  0
   15.8914  -22.0402    1.6214 C   0  0  0  0  0  0  0  0  0  0  0  0
   14.5612  -21.8307    1.0298 C   0  0  2  0  0  0  0  0  0  0  0  0
   14.6774  -21.8806   -0.4490 N   0  0  0  0  0  0  0  0  0  0  0  0
   13.7598  -20.6795    1.4306 C   0  0  0  0  0  0  0  0  0  0  0  0
   13.4356  -19.7155    0.7252 O   0  0  0  0  0  0  0  0  0  0  0  0
   13.2929  -20.6303    2.7560 O   0  0  0  0  0  0  0  0  0  0  0  0
  2  1  1  1
  2  3  1  0
  3  4  1  0
  5  2  1  0
  6  5  2  0
  7  8  1  0
  8 10  1  0
  9  8  2  0
 10 11  1  0
 12 11  1  6
 12 13  1  0
 13  5  1  0
 14 21  1  0
 14 12  1  0
 15 14  2  0
 17 16  1  6
 18 17  1  0
 20 19  1  1
 19 17  1  0
 20 22  1  0
 20 21  1  0
 22 24  1  0
 23 22  2  0
M  END
$$$$
