CQL.pdb
     RDKit          3D

 24 23  0  0  1  0  0  0  0  0999 V2000
   26.6365  -21.5379  -10.5127 N   0  0  0  0  0  0  0  0  0  0  0  0
   25.2671  -21.1734  -10.7018 C   0  0  1  0  0  0  0  0  0  0  0  0
   24.8286  -20.2444   -9.6112 C   0  0  0  0  0  0  0  0  0  0  0  0
   24.3599  -21.3263   -8.1956 S   0  0  0  0  0  0  0  0  0  0  0  0
   25.0743  -20.5813  -12.0850 C   0  0  0  0  0  0  0  0  0  0  0  0
   25.9647  -19.8077  -12.4547 O   0  0  0  0  0  0  0  0  0  0  0  0
   24.8621  -24.3018  -14.8419 N   0  0  0  0  0  0  0  0  0  0  0  0
   25.5923  -23.2794  -15.5477 C   0  0  0  0  0  0  0  0  0  0  0  0
   26.7168  -23.6159  -15.9740 O   0  0  0  0  0  0  0  0  0  0  0  0
   24.9679  -21.9543  -15.7091 C   0  0  0  0  0  0  0  0  0  0  0  0
   23.6320  -21.8020  -15.0588 C   0  0  0  0  0  0  0  0  0  0  0  0
   23.4982  -20.6356  -14.1283 C   0  0  2  0  0  0  0  0  0  0  0  0
   23.9632  -20.9202  -12.8205 N   0  0  0  0  0  0  0  0  0  0  0  0
   22.2255  -19.8884  -14.2656 C   0  0  0  0  0  0  0  0  0  0  0  0
   21.1801  -20.1742  -13.6601 O   0  0  0  0  0  0  0  0  0  0  0  0
   19.5667  -15.1143  -14.5151 C   0  0  0  0  0  0  0  0  0  0  0  0
   20.0639  -15.6277  -15.8925 C   0  0  1  0  0  0  0  0  0  0  0  0
   20.4723  -14.3525  -16.6275 C   0  0  0  0  0  0  0  0  0  0  0  0
   21.1491  -16.6107  -15.6791 C   0  0  0  0  0  0  0  0  0  0  0  0
   20.8496  -17.9823  -15.2401 C   0  0  2  0  0  0  0  0  0  0  0  0
   22.1194  -18.7432  -15.1341 N   0  0  0  0  0  0  0  0  0  0  0  0
   19.8505  -18.7720  -15.9516 C   0  0  0  0  0  0  0  0  0  0  0  0
   18.6244  -18.7486  -15.7834 O   0  0  0  0  0  0  0  0  0  0  0  0
   20.2983  -19.6669  -16.9393 O   0  0  0  0  0  0  0  0  0  0  0  0
  2  1  1  1
  2  3  1  0
  3  4  1  0
  5  2  1  0
  6  5  2  0
  7  8  1  0
  8 10  1  0
  9  8  2  0
 10 11  1  0
 12 11  1  6
 12 13  1  0
 13  5  1  0
 14 21  1  0
 14 12  1  0
 15 14  2  0
 17 16  1  1
 18 17  1  0
 20 19  1  6
 19 17  1  0
 20 22  1  0
 20 21  1  0
 22 24  1  0
 23 22  2  0
M  END
$$$$
