CQL.pdb
     RDKit          3D

 24 23  0  0  1  0  0  0  0  0999 V2000
   16.9515  -14.7705  -18.5216 N   0  0  0  0  0  0  0  0  0  0  0  0
   17.8279  -14.2335  -17.5277 C   0  0  1  0  0  0  0  0  0  0  0  0
   18.7656  -15.2967  -17.0428 C   0  0  0  0  0  0  0  0  0  0  0  0
   17.7763  -16.3466  -15.8968 S   0  0  0  0  0  0  0  0  0  0  0  0
   18.5548  -13.0211  -18.0777 C   0  0  0  0  0  0  0  0  0  0  0  0
   18.9097  -13.1114  -19.2583 O   0  0  0  0  0  0  0  0  0  0  0  0
   19.2051   -7.5324  -19.5416 N   0  0  0  0  0  0  0  0  0  0  0  0
   18.3659   -8.5601  -20.1040 C   0  0  0  0  0  0  0  0  0  0  0  0
   18.0712   -8.4170  -21.3090 O   0  0  0  0  0  0  0  0  0  0  0  0
   17.9374   -9.6709  -19.2355 C   0  0  0  0  0  0  0  0  0  0  0  0
   18.4278   -9.5968  -17.8267 C   0  0  0  0  0  0  0  0  0  0  0  0
   19.3931  -10.6691  -17.4237 C   0  0  2  0  0  0  0  0  0  0  0  0
   18.7742  -11.9338  -17.2652 N   0  0  0  0  0  0  0  0  0  0  0  0
   20.3827  -10.2476  -16.4039 C   0  0  0  0  0  0  0  0  0  0  0  0
   20.1658  -10.2429  -15.1816 O   0  0  0  0  0  0  0  0  0  0  0  0
   24.9302  -10.3039  -13.8392 C   0  0  0  0  0  0  0  0  0  0  0  0
   25.1424   -9.5321  -15.1686 C   0  0  1  0  0  0  0  0  0  0  0  0
   26.4999  -10.0288  -15.6622 C   0  0  0  0  0  0  0  0  0  0  0  0
   24.0023   -9.8029  -16.0722 C   0  0  0  0  0  0  0  0  0  0  0  0
   22.6554   -9.3015  -15.7591 C   0  0  2  0  0  0  0  0  0  0  0  0
   21.7029   -9.8077  -16.7786 N   0  0  0  0  0  0  0  0  0  0  0  0
   22.4429   -7.8749  -15.5400 C   0  0  0  0  0  0  0  0  0  0  0  0
   22.3018   -7.0011  -16.4052 O   0  0  0  0  0  0  0  0  0  0  0  0
   22.3905   -7.4122  -14.2132 O   0  0  0  0  0  0  0  0  0  0  0  0
  2  1  1  6
  2  3  1  0
  3  4  1  0
  5  2  1  0
  6  5  2  0
  7  8  1  0
  8 10  1  0
  9  8  2  0
 10 11  1  0
 12 11  1  1
 12 13  1  0
 13  5  1  0
 14 21  1  0
 14 12  1  0
 15 14  2  0
 17 16  1  1
 18 17  1  0
 20 19  1  6
 19 17  1  0
 20 22  1  0
 20 21  1  0
 22 24  1  0
 23 22  2  0
M  END
$$$$
