CQL.pdb
     RDKit          3D

 24 23  0  0  1  0  0  0  0  0999 V2000
   20.5439  -13.5559  -15.6395 N   0  0  0  0  0  0  0  0  0  0  0  0
   20.3615  -12.3892  -16.4456 C   0  0  1  0  0  0  0  0  0  0  0  0
   18.9269  -12.2726  -16.8616 C   0  0  0  0  0  0  0  0  0  0  0  0
   18.6904  -13.5299  -18.1872 S   0  0  0  0  0  0  0  0  0  0  0  0
   20.8548  -11.1626  -15.7017 C   0  0  0  0  0  0  0  0  0  0  0  0
   20.1561  -10.8120  -14.7442 O   0  0  0  0  0  0  0  0  0  0  0  0
   26.9222   -9.8429  -15.7050 N   0  0  0  0  0  0  0  0  0  0  0  0
   26.1132  -11.0332  -15.6329 C   0  0  0  0  0  0  0  0  0  0  0  0
   26.7420  -12.1106  -15.5745 O   0  0  0  0  0  0  0  0  0  0  0  0
   24.6468  -10.8871  -15.6298 C   0  0  0  0  0  0  0  0  0  0  0  0
   24.1519   -9.4798  -15.7027 C   0  0  0  0  0  0  0  0  0  0  0  0
   22.6642   -9.3237  -15.7830 C   0  0  2  0  0  0  0  0  0  0  0  0
   22.0027  -10.5310  -16.1184 N   0  0  0  0  0  0  0  0  0  0  0  0
   22.2163   -8.0781  -16.4499 C   0  0  0  0  0  0  0  0  0  0  0  0
   22.3287   -7.8591  -17.6666 O   0  0  0  0  0  0  0  0  0  0  0  0
   20.2431   -4.7055  -19.3185 C   0  0  0  0  0  0  0  0  0  0  0  0
   19.3385   -5.1411  -18.1353 C   0  0  1  0  0  0  0  0  0  0  0  0
   18.0548   -5.6121  -18.8161 C   0  0  0  0  0  0  0  0  0  0  0  0
   20.0459   -6.1678  -17.3383 C   0  0  0  0  0  0  0  0  0  0  0  0
   21.1045   -5.7898  -16.3896 C   0  0  2  0  0  0  0  0  0  0  0  0
   21.5974   -7.0108  -15.7049 N   0  0  0  0  0  0  0  0  0  0  0  0
   20.8638   -4.7316  -15.4147 C   0  0  0  0  0  0  0  0  0  0  0  0
   20.6153   -4.8708  -14.2102 O   0  0  0  0  0  0  0  0  0  0  0  0
   20.9101   -3.3995  -15.8624 O   0  0  0  0  0  0  0  0  0  0  0  0
  2  1  1  1
  2  3  1  0
  3  4  1  0
  5  2  1  0
  6  5  2  0
  7  8  1  0
  8 10  1  0
  9  8  2  0
 10 11  1  0
 12 11  1  6
 12 13  1  0
 13  5  1  0
 14 21  1  0
 14 12  1  0
 15 14  2  0
 17 16  1  6
 18 17  1  0
 20 19  1  1
 19 17  1  0
 20 22  1  0
 20 21  1  0
 22 24  1  0
 23 22  2  0
M  END
$$$$
