CQL.pdb
     RDKit          3D

 24 23  0  0  1  0  0  0  0  0999 V2000
   28.3213  -34.4906   -4.3271 N   0  0  0  0  0  0  0  0  0  0  0  0
   28.7176  -34.8861   -3.0116 C   0  0  1  0  0  0  0  0  0  0  0  0
   29.9546  -34.1452   -2.6044 C   0  0  0  0  0  0  0  0  0  0  0  0
   31.2945  -34.7755   -3.7006 S   0  0  0  0  0  0  0  0  0  0  0  0
   27.5698  -34.6827   -2.0410 C   0  0  0  0  0  0  0  0  0  0  0  0
   26.8871  -33.6713   -2.2384 O   0  0  0  0  0  0  0  0  0  0  0  0
   25.1374  -39.7628    0.6752 N   0  0  0  0  0  0  0  0  0  0  0  0
   24.5675  -38.7458    1.5222 C   0  0  0  0  0  0  0  0  0  0  0  0
   23.7597  -39.1512    2.3840 O   0  0  0  0  0  0  0  0  0  0  0  0
   24.9762  -37.3456    1.3116 C   0  0  0  0  0  0  0  0  0  0  0  0
   26.0611  -37.1489    0.3041 C   0  0  0  0  0  0  0  0  0  0  0  0
   26.4344  -35.7242    0.0298 C   0  0  2  0  0  0  0  0  0  0  0  0
   27.3622  -35.5946   -1.0331 N   0  0  0  0  0  0  0  0  0  0  0  0
   26.6528  -34.9056    1.2460 C   0  0  0  0  0  0  0  0  0  0  0  0
   27.7551  -34.7551    1.7968 O   0  0  0  0  0  0  0  0  0  0  0  0
   24.2167  -29.8669    3.5453 C   0  0  0  0  0  0  0  0  0  0  0  0
   25.1890  -31.0173    3.9185 C   0  0  1  0  0  0  0  0  0  0  0  0
   24.8464  -31.3216    5.3756 C   0  0  0  0  0  0  0  0  0  0  0  0
   24.9946  -32.1401    2.9745 C   0  0  0  0  0  0  0  0  0  0  0  0
   25.7995  -33.3663    3.0840 C   0  0  2  0  0  0  0  0  0  0  0  0
   25.5656  -34.2061    1.8829 N   0  0  0  0  0  0  0  0  0  0  0  0
   25.7197  -34.1836    4.2898 C   0  0  0  0  0  0  0  0  0  0  0  0
   24.9243  -35.1051    4.5138 O   0  0  0  0  0  0  0  0  0  0  0  0
   26.6300  -33.9181    5.3280 O   0  0  0  0  0  0  0  0  0  0  0  0
  2  1  1  6
  2  3  1  0
  3  4  1  0
  5  2  1  0
  6  5  2  0
  7  8  1  0
  8 10  1  0
  9  8  2  0
 10 11  1  0
 12 11  1  1
 12 13  1  0
 13  5  1  0
 14 21  1  0
 14 12  1  0
 15 14  2  0
 17 16  1  6
 18 17  1  0
 20 19  1  1
 19 17  1  0
 20 22  1  0
 20 21  1  0
 22 24  1  0
 23 22  2  0
M  END
$$$$
