CQL.pdb
     RDKit          3D

 24 23  0  0  1  0  0  0  0  0999 V2000
   16.3492  -11.9640  -17.1196 N   0  0  0  0  0  0  0  0  0  0  0  0
   16.7414  -11.3471  -15.8909 C   0  0  1  0  0  0  0  0  0  0  0  0
   17.2854  -12.3786  -14.9502 C   0  0  0  0  0  0  0  0  0  0  0  0
   15.8129  -13.1942  -14.2016 S   0  0  0  0  0  0  0  0  0  0  0  0
   17.7286  -10.2283  -16.1642 C   0  0  0  0  0  0  0  0  0  0  0  0
   18.6950  -10.5402  -16.8690 O   0  0  0  0  0  0  0  0  0  0  0  0
   15.6878   -4.3803  -16.5598 N   0  0  0  0  0  0  0  0  0  0  0  0
   17.0953   -4.1246  -16.3867 C   0  0  0  0  0  0  0  0  0  0  0  0
   17.4518   -2.9381  -16.5437 O   0  0  0  0  0  0  0  0  0  0  0  0
   17.9776   -5.2539  -16.0430 C   0  0  0  0  0  0  0  0  0  0  0  0
   17.3073   -6.5877  -15.9956 C   0  0  0  0  0  0  0  0  0  0  0  0
   18.1958   -7.7428  -15.6483 C   0  0  2  0  0  0  0  0  0  0  0  0
   17.5061   -8.9804  -15.6316 N   0  0  0  0  0  0  0  0  0  0  0  0
   19.1545   -7.4672  -14.5520 C   0  0  0  0  0  0  0  0  0  0  0  0
   18.8573   -7.4768  -13.3468 O   0  0  0  0  0  0  0  0  0  0  0  0
   23.5933   -8.1750  -15.7544 C   0  0  0  0  0  0  0  0  0  0  0  0
   22.6717   -8.9709  -14.7923 C   0  0  1  0  0  0  0  0  0  0  0  0
   23.4613  -10.2474  -14.5091 C   0  0  0  0  0  0  0  0  0  0  0  0
   22.3724   -8.1356  -13.6082 C   0  0  0  0  0  0  0  0  0  0  0  0
   21.5033   -6.9540  -13.7181 C   0  0  2  0  0  0  0  0  0  0  0  0
   20.5374   -7.1666  -14.8246 N   0  0  0  0  0  0  0  0  0  0  0  0
   22.0935   -5.6236  -13.8173 C   0  0  0  0  0  0  0  0  0  0  0  0
   22.8650   -5.0888  -13.0105 O   0  0  0  0  0  0  0  0  0  0  0  0
   21.7677   -4.8394  -14.9379 O   0  0  0  0  0  0  0  0  0  0  0  0
  2  1  1  6
  2  3  1  0
  3  4  1  0
  5  2  1  0
  6  5  2  0
  7  8  1  0
  8 10  1  0
  9  8  2  0
 10 11  1  0
 12 11  1  1
 12 13  1  0
 13  5  1  0
 14 21  1  0
 14 12  1  0
 15 14  2  0
 17 16  1  6
 18 17  1  0
 20 19  1  6
 19 17  1  0
 20 22  1  0
 20 21  1  0
 22 24  1  0
 23 22  2  0
M  END
$$$$
