CQL.pdb
     RDKit          3D

 24 23  0  0  1  0  0  0  0  0999 V2000
   17.4791  -19.0715  -16.5832 N   0  0  0  0  0  0  0  0  0  0  0  0
   17.8528  -18.0398  -15.6667 C   0  0  1  0  0  0  0  0  0  0  0  0
   19.3223  -18.1129  -15.3840 C   0  0  0  0  0  0  0  0  0  0  0  0
   19.5367  -19.5357  -14.2335 S   0  0  0  0  0  0  0  0  0  0  0  0
   17.4293  -16.6873  -16.2075 C   0  0  0  0  0  0  0  0  0  0  0  0
   17.6636  -16.5039  -17.4073 O   0  0  0  0  0  0  0  0  0  0  0  0
   12.5968  -13.9986  -13.4166 N   0  0  0  0  0  0  0  0  0  0  0  0
   12.6304  -14.9494  -14.4989 C   0  0  0  0  0  0  0  0  0  0  0  0
   11.5462  -15.5131  -14.7562 O   0  0  0  0  0  0  0  0  0  0  0  0
   13.9076  -15.1715  -15.1998 C   0  0  0  0  0  0  0  0  0  0  0  0
   15.0225  -14.2695  -14.7825 C   0  0  0  0  0  0  0  0  0  0  0  0
   16.3161  -14.4648  -15.5123 C   0  0  2  0  0  0  0  0  0  0  0  0
   16.8360  -15.7749  -15.3674 N   0  0  0  0  0  0  0  0  0  0  0  0
   17.2590  -13.3269  -15.3979 C   0  0  0  0  0  0  0  0  0  0  0  0
   18.0834  -13.1938  -14.4793 O   0  0  0  0  0  0  0  0  0  0  0  0
   20.9853   -9.9429  -17.4846 C   0  0  0  0  0  0  0  0  0  0  0  0
   19.5186   -9.4684  -17.6625 C   0  0  1  0  0  0  0  0  0  0  0  0
   19.5204   -8.7951  -19.0336 C   0  0  0  0  0  0  0  0  0  0  0  0
   18.6145  -10.6322  -17.5298 C   0  0  0  0  0  0  0  0  0  0  0  0
   18.1620  -11.0896  -16.2070 C   0  0  2  0  0  0  0  0  0  0  0  0
   17.2828  -12.2726  -16.3802 N   0  0  0  0  0  0  0  0  0  0  0  0
   17.5515  -10.1433  -15.2797 C   0  0  0  0  0  0  0  0  0  0  0  0
   16.3501   -9.8600  -15.1877 O   0  0  0  0  0  0  0  0  0  0  0  0
   18.3935   -9.4622  -14.3829 O   0  0  0  0  0  0  0  0  0  0  0  0
  2  1  1  6
  2  3  1  0
  3  4  1  0
  5  2  1  0
  6  5  2  0
  7  8  1  0
  8 10  1  0
  9  8  2  0
 10 11  1  0
 12 11  1  1
 12 13  1  0
 13  5  1  0
 14 21  1  0
 14 12  1  0
 15 14  2  0
 17 16  1  6
 18 17  1  0
 20 19  1  6
 19 17  1  0
 20 22  1  0
 20 21  1  0
 22 24  1  0
 23 22  2  0
M  END
$$$$
