CQL.pdb
     RDKit          3D

 24 23  0  0  1  0  0  0  0  0999 V2000
   27.8689  -19.1638  -16.1497 N   0  0  0  0  0  0  0  0  0  0  0  0
   27.0725  -18.7043  -15.0548 C   0  0  1  0  0  0  0  0  0  0  0  0
   26.5320  -17.3388  -15.3518 C   0  0  0  0  0  0  0  0  0  0  0  0
   25.4853  -17.5349  -16.8551 S   0  0  0  0  0  0  0  0  0  0  0  0
   25.9793  -19.7109  -14.7503 C   0  0  0  0  0  0  0  0  0  0  0  0
   25.8286  -20.5966  -15.5993 O   0  0  0  0  0  0  0  0  0  0  0  0
   24.5738  -21.2065   -8.8144 N   0  0  0  0  0  0  0  0  0  0  0  0
   25.7650  -21.2535   -9.6239 C   0  0  0  0  0  0  0  0  0  0  0  0
   26.8293  -21.4664   -9.0063 O   0  0  0  0  0  0  0  0  0  0  0  0
   25.6345  -21.0559  -11.0785 C   0  0  0  0  0  0  0  0  0  0  0  0
   24.3363  -20.4654  -11.5219 C   0  0  0  0  0  0  0  0  0  0  0  0
   24.1749  -20.3035  -13.0024 C   0  0  2  0  0  0  0  0  0  0  0  0
   25.2428  -19.5860  -13.5960 N   0  0  0  0  0  0  0  0  0  0  0  0
   22.7949  -19.9776  -13.4338 C   0  0  0  0  0  0  0  0  0  0  0  0
   22.2789  -18.8533  -13.3304 O   0  0  0  0  0  0  0  0  0  0  0  0
   19.4428  -20.6419  -18.1547 C   0  0  0  0  0  0  0  0  0  0  0  0
   19.2138  -20.4575  -16.6310 C   0  0  1  0  0  0  0  0  0  0  0  0
   18.0001  -21.3377  -16.3388 C   0  0  0  0  0  0  0  0  0  0  0  0
   20.4514  -20.8251  -15.9081 C   0  0  0  0  0  0  0  0  0  0  0  0
   20.5590  -20.6397  -14.4529 C   0  0  2  0  0  0  0  0  0  0  0  0
   21.9395  -20.9760  -14.0243 N   0  0  0  0  0  0  0  0  0  0  0  0
   19.5906  -21.2740  -13.5653 C   0  0  0  0  0  0  0  0  0  0  0  0
   19.7012  -22.3720  -13.0046 O   0  0  0  0  0  0  0  0  0  0  0  0
   18.3912  -20.5894  -13.3009 O   0  0  0  0  0  0  0  0  0  0  0  0
  2  1  1  6
  2  3  1  0
  3  4  1  0
  5  2  1  0
  6  5  2  0
  7  8  1  0
  8 10  1  0
  9  8  2  0
 10 11  1  0
 12 11  1  1
 12 13  1  0
 13  5  1  0
 14 21  1  0
 14 12  1  0
 15 14  2  0
 17 16  1  6
 18 17  1  0
 20 19  1  6
 19 17  1  0
 20 22  1  0
 20 21  1  0
 22 24  1  0
 23 22  2  0
M  END
$$$$
