CQL.pdb
     RDKit          3D

 24 23  0  0  1  0  0  0  0  0999 V2000
   17.9618  -12.9019  -15.9422 N   0  0  0  0  0  0  0  0  0  0  0  0
   18.4465  -12.5702  -17.2457 C   0  0  1  0  0  0  0  0  0  0  0  0
   17.6905  -13.3402  -18.2851 C   0  0  0  0  0  0  0  0  0  0  0  0
   17.7024  -15.0913  -17.7126 S   0  0  0  0  0  0  0  0  0  0  0  0
   18.3711  -11.0705  -17.4609 C   0  0  0  0  0  0  0  0  0  0  0  0
   18.8409  -10.6686  -18.5313 O   0  0  0  0  0  0  0  0  0  0  0  0
   13.5850   -7.9242  -16.2944 N   0  0  0  0  0  0  0  0  0  0  0  0
   14.4649   -6.8283  -15.9760 C   0  0  0  0  0  0  0  0  0  0  0  0
   13.9329   -5.6987  -15.9503 O   0  0  0  0  0  0  0  0  0  0  0  0
   15.8843   -7.1214  -15.7089 C   0  0  0  0  0  0  0  0  0  0  0  0
   16.2483   -8.5694  -15.7468 C   0  0  0  0  0  0  0  0  0  0  0  0
   17.5879   -8.8811  -16.3406 C   0  0  2  0  0  0  0  0  0  0  0  0
   17.8113  -10.2721  -16.4917 N   0  0  0  0  0  0  0  0  0  0  0  0
   18.6975   -8.0530  -15.8116 C   0  0  0  0  0  0  0  0  0  0  0  0
   18.7332   -6.8136  -15.8723 O   0  0  0  0  0  0  0  0  0  0  0  0
   23.5391  -10.8220  -14.6661 C   0  0  0  0  0  0  0  0  0  0  0  0
   22.2153  -10.0842  -14.3327 C   0  0  1  0  0  0  0  0  0  0  0  0
   22.1768  -10.0831  -12.8057 C   0  0  0  0  0  0  0  0  0  0  0  0
   22.2340   -8.7473  -14.9667 C   0  0  0  0  0  0  0  0  0  0  0  0
   21.0628   -7.8604  -14.8928 C   0  0  2  0  0  0  0  0  0  0  0  0
   19.8388   -8.6533  -15.1680 N   0  0  0  0  0  0  0  0  0  0  0  0
   21.0397   -6.6206  -15.6611 C   0  0  0  0  0  0  0  0  0  0  0  0
   20.6175   -6.4666  -16.8144 O   0  0  0  0  0  0  0  0  0  0  0  0
   21.5471   -5.4586  -15.0534 O   0  0  0  0  0  0  0  0  0  0  0  0
  2  1  1  1
  2  3  1  0
  3  4  1  0
  5  2  1  0
  6  5  2  0
  7  8  1  0
  8 10  1  0
  9  8  2  0
 10 11  1  0
 12 11  1  1
 12 13  1  0
 13  5  1  0
 14 21  1  0
 14 12  1  0
 15 14  2  0
 17 16  1  1
 18 17  1  0
 20 19  1  6
 19 17  1  0
 20 22  1  0
 20 21  1  0
 22 24  1  0
 23 22  2  0
M  END
$$$$
