CQL.pdb
     RDKit          3D

 24 23  0  0  1  0  0  0  0  0999 V2000
   27.5863  -20.9887   -9.3438 N   0  0  0  0  0  0  0  0  0  0  0  0
   26.2918  -20.9132   -9.9460 C   0  0  1  0  0  0  0  0  0  0  0  0
   25.5075  -19.7916   -9.3365 C   0  0  0  0  0  0  0  0  0  0  0  0
   24.4925  -20.5610   -8.0055 S   0  0  0  0  0  0  0  0  0  0  0  0
   26.4269  -20.7802  -11.4510 C   0  0  0  0  0  0  0  0  0  0  0  0
   27.3419  -20.0425  -11.8337 O   0  0  0  0  0  0  0  0  0  0  0  0
   23.8388  -25.3329  -14.9832 N   0  0  0  0  0  0  0  0  0  0  0  0
   24.1658  -24.3681  -16.0024 C   0  0  0  0  0  0  0  0  0  0  0  0
   23.9725  -24.7393  -17.1791 O   0  0  0  0  0  0  0  0  0  0  0  0
   24.6847  -23.0534  -15.5852 C   0  0  0  0  0  0  0  0  0  0  0  0
   24.8778  -22.8886  -14.1134 C   0  0  0  0  0  0  0  0  0  0  0  0
   25.3572  -21.5390  -13.6740 C   0  0  2  0  0  0  0  0  0  0  0  0
   25.5573  -21.4563  -12.2738 N   0  0  0  0  0  0  0  0  0  0  0  0
   24.6838  -20.4033  -14.3475 C   0  0  0  0  0  0  0  0  0  0  0  0
   23.6504  -19.8574  -13.9289 O   0  0  0  0  0  0  0  0  0  0  0  0
   27.6095  -16.4748  -16.9669 C   0  0  0  0  0  0  0  0  0  0  0  0
   26.5884  -17.1701  -16.0277 C   0  0  1  0  0  0  0  0  0  0  0  0
   26.0896  -16.0366  -15.1335 C   0  0  0  0  0  0  0  0  0  0  0  0
   25.5505  -17.8330  -16.8479 C   0  0  0  0  0  0  0  0  0  0  0  0
   24.5322  -18.6932  -16.2260 C   0  0  2  0  0  0  0  0  0  0  0  0
   25.2060  -19.8395  -15.5668 N   0  0  0  0  0  0  0  0  0  0  0  0
   23.3983  -19.1643  -17.0137 C   0  0  0  0  0  0  0  0  0  0  0  0
   23.1824  -20.3238  -17.3892 O   0  0  0  0  0  0  0  0  0  0  0  0
   22.4309  -18.2223  -17.4057 O   0  0  0  0  0  0  0  0  0  0  0  0
  2  1  1  1
  2  3  1  0
  3  4  1  0
  5  2  1  0
  6  5  2  0
  7  8  1  0
  8 10  1  0
  9  8  2  0
 10 11  1  0
 12 11  1  1
 12 13  1  0
 13  5  1  0
 14 21  1  0
 14 12  1  0
 15 14  2  0
 17 16  1  6
 18 17  1  0
 20 19  1  6
 19 17  1  0
 20 22  1  0
 20 21  1  0
 22 24  1  0
 23 22  2  0
M  END
$$$$
