CQL.pdb
     RDKit          3D

 24 23  0  0  1  0  0  0  0  0999 V2000
   18.1101  -14.8646  -17.7495 N   0  0  0  0  0  0  0  0  0  0  0  0
   17.6476  -13.8804  -16.8213 C   0  0  1  0  0  0  0  0  0  0  0  0
   17.8761  -14.3521  -15.4177 C   0  0  0  0  0  0  0  0  0  0  0  0
   16.7038  -15.7510  -15.1666 S   0  0  0  0  0  0  0  0  0  0  0  0
   18.3133  -12.5472  -17.1044 C   0  0  0  0  0  0  0  0  0  0  0  0
   19.3957  -12.6153  -17.6976 O   0  0  0  0  0  0  0  0  0  0  0  0
   14.6463   -7.4546  -17.4279 N   0  0  0  0  0  0  0  0  0  0  0  0
   15.9408   -6.8258  -17.3533 C   0  0  0  0  0  0  0  0  0  0  0  0
   15.9440   -5.5820  -17.4652 O   0  0  0  0  0  0  0  0  0  0  0  0
   17.1258   -7.6784  -17.1520 C   0  0  0  0  0  0  0  0  0  0  0  0
   16.8350   -9.1328  -16.9757 C   0  0  0  0  0  0  0  0  0  0  0  0
   18.0314  -10.0059  -16.7514 C   0  0  2  0  0  0  0  0  0  0  0  0
   17.7038  -11.3834  -16.6988 N   0  0  0  0  0  0  0  0  0  0  0  0
   18.9906   -9.4815  -15.7504 C   0  0  0  0  0  0  0  0  0  0  0  0
   18.8855   -9.6556  -14.5258 O   0  0  0  0  0  0  0  0  0  0  0  0
   24.1717  -10.6691  -15.5937 C   0  0  0  0  0  0  0  0  0  0  0  0
   22.7095  -10.3304  -15.1997 C   0  0  1  0  0  0  0  0  0  0  0  0
   22.6310  -10.7266  -13.7266 C   0  0  0  0  0  0  0  0  0  0  0  0
   22.4502   -8.9019  -15.4859 C   0  0  0  0  0  0  0  0  0  0  0  0
   21.1564   -8.2877  -15.1507 C   0  0  2  0  0  0  0  0  0  0  0  0
   20.1454   -8.7169  -16.1488 N   0  0  0  0  0  0  0  0  0  0  0  0
   21.0687   -6.8473  -14.9366 C   0  0  0  0  0  0  0  0  0  0  0  0
   20.5321   -6.0150  -15.6792 O   0  0  0  0  0  0  0  0  0  0  0  0
   21.6493   -6.3173  -13.7708 O   0  0  0  0  0  0  0  0  0  0  0  0
  2  1  1  6
  2  3  1  0
  3  4  1  0
  5  2  1  0
  6  5  2  0
  7  8  1  0
  8 10  1  0
  9  8  2  0
 10 11  1  0
 12 11  1  1
 12 13  1  0
 13  5  1  0
 14 21  1  0
 14 12  1  0
 15 14  2  0
 17 16  1  1
 18 17  1  0
 20 19  1  6
 19 17  1  0
 20 22  1  0
 20 21  1  0
 22 24  1  0
 23 22  2  0
M  END
$$$$
