PML.pdb
     RDKit          3D

 24 24  0  0  1  0  0  0  0  0999 V2000
    8.0927  -16.9487   19.7064 N   0  0  0  0  0  0  0  0  0  0  0  0
    8.1907  -17.0152   18.2387 C   0  0  0  0  0  0  0  0  0  0  0  0
    8.3612  -15.5716   17.7970 C   0  0  0  0  0  0  0  0  0  0  0  0
    8.6220  -14.8114   19.0896 C   0  0  0  0  0  0  0  0  0  0  0  0
    9.1136  -15.9515   19.9836 C   0  0  1  0  0  0  0  0  0  0  0  0
    9.1788  -15.5789   21.3951 C   0  0  0  0  0  0  0  0  0  0  0  0
   10.2207  -15.0286   21.8302 O   0  0  0  0  0  0  0  0  0  0  0  0
    6.4591  -12.0524   27.2423 C   0  0  0  0  0  0  0  0  0  0  0  0
    6.5068  -12.7065   25.5680 S   0  0  0  0  0  0  0  0  0  0  0  0
    6.6491  -14.4856   25.5164 C   0  0  0  0  0  0  0  0  0  0  0  0
    6.7521  -15.1049   24.1677 C   0  0  0  0  0  0  0  0  0  0  0  0
    8.1614  -15.2618   23.6750 C   0  0  2  0  0  0  0  0  0  0  0  0
    8.1232  -15.8017   22.3257 N   0  0  0  0  0  0  0  0  0  0  0  0
    8.9986  -16.0118   24.6056 C   0  0  0  0  0  0  0  0  0  0  0  0
    9.1695  -17.2757   24.4873 O   0  0  0  0  0  0  0  0  0  0  0  0
   11.1549  -13.4451   29.3417 C   0  0  0  0  0  0  0  0  0  0  0  0
   10.5021  -14.5794   28.5869 C   0  0  1  0  0  0  0  0  0  0  0  0
    9.0676  -14.2557   28.2202 C   0  0  0  0  0  0  0  0  0  0  0  0
   11.2896  -15.1601   27.4881 C   0  0  0  0  0  0  0  0  0  0  0  0
   10.6130  -16.1220   26.5543 C   0  0  2  0  0  0  0  0  0  0  0  0
    9.6865  -15.4146   25.6937 N   0  0  0  0  0  0  0  0  0  0  0  0
    9.9326  -17.2248   27.1970 C   0  0  0  0  0  0  0  0  0  0  0  0
   10.6155  -18.2784   27.7917 O   0  0  0  0  0  0  0  0  0  0  0  0
    8.6834  -17.2917   27.2537 O   0  0  0  0  0  0  0  0  0  0  0  0
  1  2  1  0
  3  2  1  0
  4  5  1  0
  4  3  1  0
  5  1  1  0
  5  6  1  1
  7  6  2  0
  8  9  1  0
  9 10  1  0
 10 11  1  0
 12 11  1  1
 12 13  1  0
 13  6  1  0
 14 15  2  0
 14 12  1  0
 17 16  1  6
 17 18  1  0
 20 19  1  1
 19 17  1  0
 20 21  1  0
 21 14  1  0
 22 23  1  0
 22 20  1  0
 24 22  2  0
M  END
$$$$
