PML.pdb
     RDKit          3D

 24 24  0  0  1  0  0  0  0  0999 V2000
    9.4172  -15.8678   19.6382 N   0  0  0  0  0  0  0  0  0  0  0  0
    9.2391  -16.8621   18.5670 C   0  0  0  0  0  0  0  0  0  0  0  0
    9.1780  -18.1987   19.2865 C   0  0  0  0  0  0  0  0  0  0  0  0
    9.0533  -17.8282   20.7575 C   0  0  0  0  0  0  0  0  0  0  0  0
    8.5064  -16.4046   20.6361 C   0  0  1  0  0  0  0  0  0  0  0  0
    8.5471  -15.6707   21.8991 C   0  0  0  0  0  0  0  0  0  0  0  0
    8.3690  -14.4274   21.8849 O   0  0  0  0  0  0  0  0  0  0  0  0
    7.1014  -11.7683   24.2839 C   0  0  0  0  0  0  0  0  0  0  0  0
    6.9019  -12.6929   25.8131 S   0  0  0  0  0  0  0  0  0  0  0  0
    6.5504  -14.4226   25.5432 C   0  0  0  0  0  0  0  0  0  0  0  0
    7.0719  -15.0177   24.2835 C   0  0  0  0  0  0  0  0  0  0  0  0
    8.4440  -15.6130   24.4131 C   0  0  2  0  0  0  0  0  0  0  0  0
    8.7793  -16.2804   23.1658 N   0  0  0  0  0  0  0  0  0  0  0  0
    8.5818  -16.4458   25.6033 C   0  0  0  0  0  0  0  0  0  0  0  0
    8.0756  -17.6209   25.6639 O   0  0  0  0  0  0  0  0  0  0  0  0
   10.6894  -14.0265   30.0981 C   0  0  0  0  0  0  0  0  0  0  0  0
   10.4981  -14.5232   28.6841 C   0  0  1  0  0  0  0  0  0  0  0  0
   10.8278  -13.4513   27.6646 C   0  0  0  0  0  0  0  0  0  0  0  0
   11.0744  -15.8424   28.3807 C   0  0  0  0  0  0  0  0  0  0  0  0
   10.5460  -16.5979   27.1954 C   0  0  2  0  0  0  0  0  0  0  0  0
    9.2810  -16.0353   26.7679 N   0  0  0  0  0  0  0  0  0  0  0  0
   10.4011  -18.0236   27.3918 C   0  0  0  0  0  0  0  0  0  0  0  0
    9.1684  -18.6624   27.3414 O   0  0  0  0  0  0  0  0  0  0  0  0
   11.3838  -18.7655   27.6194 O   0  0  0  0  0  0  0  0  0  0  0  0
  1  2  1  0
  3  2  1  0
  4  5  1  0
  4  3  1  0
  5  1  1  0
  5  6  1  1
  7  6  2  0
  8  9  1  0
  9 10  1  0
 10 11  1  0
 12 11  1  6
 12 13  1  0
 13  6  1  0
 14 15  2  0
 14 12  1  0
 17 16  1  1
 17 18  1  0
 20 19  1  1
 19 17  1  0
 20 21  1  0
 21 14  1  0
 22 23  1  0
 22 20  1  0
 24 22  2  0
M  END
$$$$
