PML.pdb
     RDKit          3D

 24 24  0  0  1  0  0  0  0  0999 V2000
    7.9737  -17.3376   20.1446 N   0  0  0  0  0  0  0  0  0  0  0  0
    7.9799  -17.7101   18.7200 C   0  0  0  0  0  0  0  0  0  0  0  0
    8.5983  -16.5171   18.0113 C   0  0  0  0  0  0  0  0  0  0  0  0
    9.1520  -15.6564   19.1379 C   0  0  0  0  0  0  0  0  0  0  0  0
    9.2779  -16.7034   20.2463 C   0  0  1  0  0  0  0  0  0  0  0  0
    9.5243  -16.1131   21.5601 C   0  0  0  0  0  0  0  0  0  0  0  0
   10.7025  -15.8208   21.8830 O   0  0  0  0  0  0  0  0  0  0  0  0
    5.3058  -12.5993   26.6171 C   0  0  0  0  0  0  0  0  0  0  0  0
    6.6084  -12.0562   25.5029 S   0  0  0  0  0  0  0  0  0  0  0  0
    7.8432  -13.3115   25.2067 C   0  0  0  0  0  0  0  0  0  0  0  0
    7.6543  -14.1568   23.9972 C   0  0  0  0  0  0  0  0  0  0  0  0
    8.7736  -15.1262   23.7501 C   0  0  2  0  0  0  0  0  0  0  0  0
    8.5018  -15.8428   22.5147 N   0  0  0  0  0  0  0  0  0  0  0  0
    9.0368  -15.9815   24.9027 C   0  0  0  0  0  0  0  0  0  0  0  0
    8.4224  -17.0930   25.0693 O   0  0  0  0  0  0  0  0  0  0  0  0
   10.3731  -13.7844   29.6324 C   0  0  0  0  0  0  0  0  0  0  0  0
   10.4716  -14.4170   28.2640 C   0  0  1  0  0  0  0  0  0  0  0  0
   11.4606  -13.6854   27.3787 C   0  0  0  0  0  0  0  0  0  0  0  0
   10.6082  -15.8817   28.2391 C   0  0  0  0  0  0  0  0  0  0  0  0
   10.4261  -16.5946   26.9300 C   0  0  2  0  0  0  0  0  0  0  0  0
    9.9825  -15.6639   25.9120 N   0  0  0  0  0  0  0  0  0  0  0  0
    9.5331  -17.7317   26.9699 C   0  0  0  0  0  0  0  0  0  0  0  0
    9.9421  -18.9871   27.4025 O   0  0  0  0  0  0  0  0  0  0  0  0
    8.3351  -17.6477   26.6151 O   0  0  0  0  0  0  0  0  0  0  0  0
  1  2  1  0
  3  2  1  0
  4  5  1  0
  4  3  1  0
  5  1  1  0
  5  6  1  1
  7  6  2  0
  8  9  1  0
  9 10  1  0
 10 11  1  0
 12 11  1  1
 12 13  1  0
 13  6  1  0
 14 15  2  0
 14 12  1  0
 17 16  1  1
 17 18  1  0
 20 19  1  1
 19 17  1  0
 20 21  1  0
 21 14  1  0
 22 23  1  0
 22 20  1  0
 24 22  2  0
M  END
$$$$
