PML.pdb
     RDKit          3D

 24 24  0  0  1  0  0  0  0  0999 V2000
    7.2958  -20.4506   22.0661 N   0  0  0  0  0  0  0  0  0  0  0  0
    6.1987  -21.3064   22.5479 C   0  0  0  0  0  0  0  0  0  0  0  0
    5.7517  -20.6649   23.8505 C   0  0  0  0  0  0  0  0  0  0  0  0
    6.4624  -19.3190   23.8698 C   0  0  0  0  0  0  0  0  0  0  0  0
    6.7502  -19.1396   22.3780 C   0  0  1  0  0  0  0  0  0  0  0  0
    7.6880  -18.0522   22.1071 C   0  0  0  0  0  0  0  0  0  0  0  0
    8.9182  -18.3046   22.0778 O   0  0  0  0  0  0  0  0  0  0  0  0
    6.3161  -12.5163   18.8301 C   0  0  0  0  0  0  0  0  0  0  0  0
    7.9580  -12.1570   19.4690 S   0  0  0  0  0  0  0  0  0  0  0  0
    8.5797  -13.4311   20.5547 C   0  0  0  0  0  0  0  0  0  0  0  0
    7.6721  -14.5798   20.8188 C   0  0  0  0  0  0  0  0  0  0  0  0
    8.2682  -15.6370   21.7023 C   0  0  2  0  0  0  0  0  0  0  0  0
    7.2946  -16.7035   21.8705 N   0  0  0  0  0  0  0  0  0  0  0  0
    8.7932  -15.0919   22.9499 C   0  0  0  0  0  0  0  0  0  0  0  0
    9.4623  -14.0000   22.9776 O   0  0  0  0  0  0  0  0  0  0  0  0
    8.3156  -12.0287   26.9385 C   0  0  0  0  0  0  0  0  0  0  0  0
    7.3005  -13.1052   26.6330 C   0  0  1  0  0  0  0  0  0  0  0  0
    5.8812  -12.5897   26.7635 C   0  0  0  0  0  0  0  0  0  0  0  0
    7.5459  -13.8963   25.4171 C   0  0  0  0  0  0  0  0  0  0  0  0
    8.5730  -14.9905   25.4712 C   0  0  2  0  0  0  0  0  0  0  0  0
    8.6038  -15.7093   24.2136 N   0  0  0  0  0  0  0  0  0  0  0  0
    8.4139  -15.9275   26.5616 C   0  0  0  0  0  0  0  0  0  0  0  0
    8.0052  -17.2405   26.3638 O   0  0  0  0  0  0  0  0  0  0  0  0
    8.6369  -15.6057   27.7511 O   0  0  0  0  0  0  0  0  0  0  0  0
  1  2  1  0
  3  2  1  0
  4  5  1  0
  4  3  1  0
  5  1  1  0
  5  6  1  1
  7  6  2  0
  8  9  1  0
  9 10  1  0
 10 11  1  0
 12 11  1  1
 12 13  1  0
 13  6  1  0
 14 15  2  0
 14 12  1  0
 17 16  1  6
 17 18  1  0
 20 19  1  6
 19 17  1  0
 20 21  1  0
 21 14  1  0
 22 23  1  0
 22 20  1  0
 24 22  2  0
M  END
$$$$
