PML.pdb
     RDKit          3D

 24 24  0  0  1  0  0  0  0  0999 V2000
    7.9174  -15.2861   17.9381 N   0  0  0  0  0  0  0  0  0  0  0  0
    8.4806  -14.3141   16.9862 C   0  0  0  0  0  0  0  0  0  0  0  0
    8.1461  -12.9554   17.5778 C   0  0  0  0  0  0  0  0  0  0  0  0
    7.6462  -13.2693   18.9808 C   0  0  0  0  0  0  0  0  0  0  0  0
    8.2755  -14.6474   19.1940 C   0  0  1  0  0  0  0  0  0  0  0  0
    7.7379  -15.3428   20.3613 C   0  0  0  0  0  0  0  0  0  0  0  0
    6.7797  -16.1399   20.2052 O   0  0  0  0  0  0  0  0  0  0  0  0
    7.7738  -20.0380   24.2674 C   0  0  0  0  0  0  0  0  0  0  0  0
    6.2129  -19.5745   23.5044 S   0  0  0  0  0  0  0  0  0  0  0  0
    6.1807  -17.8759   22.9550 C   0  0  0  0  0  0  0  0  0  0  0  0
    7.4810  -17.2897   22.5324 C   0  0  0  0  0  0  0  0  0  0  0  0
    7.6138  -15.8239   22.8285 C   0  0  2  0  0  0  0  0  0  0  0  0
    8.2353  -15.1748   21.6858 N   0  0  0  0  0  0  0  0  0  0  0  0
    8.2738  -15.5691   24.1047 C   0  0  0  0  0  0  0  0  0  0  0  0
    9.5219  -15.8020   24.2744 O   0  0  0  0  0  0  0  0  0  0  0  0
    5.8883  -11.6813   27.1337 C   0  0  0  0  0  0  0  0  0  0  0  0
    6.8808  -12.5594   26.4083 C   0  0  1  0  0  0  0  0  0  0  0  0
    7.8720  -11.7399   25.6063 C   0  0  0  0  0  0  0  0  0  0  0  0
    7.4917  -13.6356   27.2041 C   0  0  0  0  0  0  0  0  0  0  0  0
    8.2615  -14.7067   26.4863 C   0  0  2  0  0  0  0  0  0  0  0  0
    7.6037  -15.0448   25.2404 N   0  0  0  0  0  0  0  0  0  0  0  0
    8.4972  -15.9106   27.2527 C   0  0  0  0  0  0  0  0  0  0  0  0
    7.9757  -17.1443   26.8837 O   0  0  0  0  0  0  0  0  0  0  0  0
    9.1883  -15.9080   28.2969 O   0  0  0  0  0  0  0  0  0  0  0  0
  1  2  1  0
  3  2  1  0
  4  5  1  0
  4  3  1  0
  5  1  1  0
  5  6  1  1
  7  6  2  0
  8  9  1  0
  9 10  1  0
 10 11  1  0
 12 11  1  6
 12 13  1  0
 13  6  1  0
 14 15  2  0
 14 12  1  0
 17 16  1  1
 17 18  1  0
 20 19  1  1
 19 17  1  0
 20 21  1  0
 21 14  1  0
 22 23  1  0
 22 20  1  0
 24 22  2  0
M  END
$$$$
