PML.pdb
     RDKit          3D

 24 24  0  0  1  0  0  0  0  0999 V2000
    6.5019  -19.6589   23.8986 N   0  0  0  0  0  0  0  0  0  0  0  0
    5.5607  -20.7860   23.7897 C   0  0  0  0  0  0  0  0  0  0  0  0
    4.6999  -20.4554   22.5823 C   0  0  0  0  0  0  0  0  0  0  0  0
    5.4078  -19.2779   21.9273 C   0  0  0  0  0  0  0  0  0  0  0  0
    6.8176  -19.4558   22.4942 C   0  0  1  0  0  0  0  0  0  0  0  0
    7.6732  -18.2938   22.2640 C   0  0  0  0  0  0  0  0  0  0  0  0
    8.7787  -18.4580   21.6906 O   0  0  0  0  0  0  0  0  0  0  0  0
    6.5711  -12.6690   19.3372 C   0  0  0  0  0  0  0  0  0  0  0  0
    7.6716  -12.1877   20.6753 S   0  0  0  0  0  0  0  0  0  0  0  0
    8.4448  -13.5817   21.4800 C   0  0  0  0  0  0  0  0  0  0  0  0
    7.5576  -14.7240   21.8275 C   0  0  0  0  0  0  0  0  0  0  0  0
    8.2647  -15.8598   22.5083 C   0  0  2  0  0  0  0  0  0  0  0  0
    7.3326  -16.9661   22.6527 N   0  0  0  0  0  0  0  0  0  0  0  0
    8.9167  -15.4497   23.7476 C   0  0  0  0  0  0  0  0  0  0  0  0
    9.6386  -14.3934   23.8098 O   0  0  0  0  0  0  0  0  0  0  0  0
    6.3319  -12.5815   26.1402 C   0  0  0  0  0  0  0  0  0  0  0  0
    7.6465  -13.3199   26.0449 C   0  0  1  0  0  0  0  0  0  0  0  0
    8.7947  -12.4911   26.5850 C   0  0  0  0  0  0  0  0  0  0  0  0
    7.6375  -14.7151   26.5116 C   0  0  0  0  0  0  0  0  0  0  0  0
    8.8602  -15.5551   26.2778 C   0  0  2  0  0  0  0  0  0  0  0  0
    8.8018  -16.1679   24.9661 N   0  0  0  0  0  0  0  0  0  0  0  0
    9.1066  -16.5711   27.2773 C   0  0  0  0  0  0  0  0  0  0  0  0
    8.6803  -17.8848   27.1271 O   0  0  0  0  0  0  0  0  0  0  0  0
    9.7212  -16.3220   28.3395 O   0  0  0  0  0  0  0  0  0  0  0  0
  1  2  1  0
  3  2  1  0
  4  5  1  0
  4  3  1  0
  5  1  1  0
  5  6  1  1
  7  6  2  0
  8  9  1  0
  9 10  1  0
 10 11  1  0
 12 11  1  1
 12 13  1  0
 13  6  1  0
 14 15  2  0
 14 12  1  0
 17 16  1  1
 17 18  1  0
 20 19  1  1
 19 17  1  0
 20 21  1  0
 21 14  1  0
 22 23  1  0
 22 20  1  0
 24 22  2  0
M  END
$$$$
