PML.pdb
     RDKit          3D

 24 24  0  0  1  0  0  0  0  0999 V2000
    7.6034  -15.6019   19.8258 N   0  0  0  0  0  0  0  0  0  0  0  0
    7.5784  -15.4309   18.3635 C   0  0  0  0  0  0  0  0  0  0  0  0
    7.9123  -13.9657   18.1399 C   0  0  0  0  0  0  0  0  0  0  0  0
    8.3740  -13.4732   19.5041 C   0  0  0  0  0  0  0  0  0  0  0  0
    8.7706  -14.7999   20.1547 C   0  0  1  0  0  0  0  0  0  0  0  0
    8.9948  -14.6823   21.5938 C   0  0  0  0  0  0  0  0  0  0  0  0
   10.0786  -14.1958   22.0017 O   0  0  0  0  0  0  0  0  0  0  0  0
    6.4058  -10.9774   26.4320 C   0  0  0  0  0  0  0  0  0  0  0  0
    5.6788  -12.6205   26.3596 S   0  0  0  0  0  0  0  0  0  0  0  0
    6.8601  -13.8892   25.9317 C   0  0  0  0  0  0  0  0  0  0  0  0
    6.8405  -14.3671   24.5231 C   0  0  0  0  0  0  0  0  0  0  0  0
    8.1950  -14.7189   23.9799 C   0  0  2  0  0  0  0  0  0  0  0  0
    8.0517  -15.0891   22.5813 N   0  0  0  0  0  0  0  0  0  0  0  0
    8.8874  -15.7063   24.8013 C   0  0  0  0  0  0  0  0  0  0  0  0
    8.9917  -16.9299   24.4369 O   0  0  0  0  0  0  0  0  0  0  0  0
   10.2722  -13.9424   29.8865 C   0  0  0  0  0  0  0  0  0  0  0  0
   10.3388  -14.3673   28.4382 C   0  0  1  0  0  0  0  0  0  0  0  0
   11.2645  -13.4757   27.6350 C   0  0  0  0  0  0  0  0  0  0  0  0
   10.5270  -15.8063   28.1965 C   0  0  0  0  0  0  0  0  0  0  0  0
   10.2978  -16.3343   26.8094 C   0  0  2  0  0  0  0  0  0  0  0  0
    9.4984  -15.3986   26.0447 N   0  0  0  0  0  0  0  0  0  0  0  0
    9.6993  -17.6495   26.7450 C   0  0  0  0  0  0  0  0  0  0  0  0
   10.4471  -18.8157   26.8507 O   0  0  0  0  0  0  0  0  0  0  0  0
    8.4674  -17.8113   26.5895 O   0  0  0  0  0  0  0  0  0  0  0  0
  1  2  1  0
  3  2  1  0
  4  5  1  0
  4  3  1  0
  5  1  1  0
  5  6  1  1
  7  6  2  0
  8  9  1  0
  9 10  1  0
 10 11  1  0
 12 11  1  1
 12 13  1  0
 13  6  1  0
 14 15  2  0
 14 12  1  0
 17 16  1  1
 17 18  1  0
 20 19  1  1
 19 17  1  0
 20 21  1  0
 21 14  1  0
 22 23  1  0
 22 20  1  0
 24 22  2  0
M  END
$$$$
