PML.pdb
     RDKit          3D

 24 24  0  0  1  0  0  0  0  0999 V2000
    7.2544  -19.6063   22.5965 N   0  0  0  0  0  0  0  0  0  0  0  0
    6.5696  -20.8084   22.0924 C   0  0  0  0  0  0  0  0  0  0  0  0
    6.1034  -20.4309   20.6966 C   0  0  0  0  0  0  0  0  0  0  0  0
    6.8076  -19.1124   20.4091 C   0  0  0  0  0  0  0  0  0  0  0  0
    7.9713  -19.2018   21.3982 C   0  0  1  0  0  0  0  0  0  0  0  0
    8.6798  -17.9338   21.5579 C   0  0  0  0  0  0  0  0  0  0  0  0
    9.9349  -17.9291   21.5079 O   0  0  0  0  0  0  0  0  0  0  0  0
    6.6284  -12.2134   19.2829 C   0  0  0  0  0  0  0  0  0  0  0  0
    8.2794  -11.9102   19.9276 S   0  0  0  0  0  0  0  0  0  0  0  0
    8.7377  -13.0381   21.2337 C   0  0  0  0  0  0  0  0  0  0  0  0
    8.0082  -14.3338   21.2789 C   0  0  0  0  0  0  0  0  0  0  0  0
    8.7811  -15.4462   21.9260 C   0  0  2  0  0  0  0  0  0  0  0  0
    8.0323  -16.6826   21.7702 N   0  0  0  0  0  0  0  0  0  0  0  0
    9.1622  -15.1363   23.3000 C   0  0  0  0  0  0  0  0  0  0  0  0
   10.1181  -14.3262   23.5662 O   0  0  0  0  0  0  0  0  0  0  0  0
    5.7168  -13.0728   26.4583 C   0  0  0  0  0  0  0  0  0  0  0  0
    7.1302  -13.4273   26.0591 C   0  0  1  0  0  0  0  0  0  0  0  0
    8.0974  -12.3011   26.3644 C   0  0  0  0  0  0  0  0  0  0  0  0
    7.6026  -14.7576   26.4735 C   0  0  0  0  0  0  0  0  0  0  0  0
    8.8209  -15.3244   25.8028 C   0  0  2  0  0  0  0  0  0  0  0  0
    8.5137  -15.6893   24.4347 N   0  0  0  0  0  0  0  0  0  0  0  0
    9.4264  -16.4496   26.4806 C   0  0  0  0  0  0  0  0  0  0  0  0
    9.8892  -16.3722   27.7883 O   0  0  0  0  0  0  0  0  0  0  0  0
    9.5680  -17.5622   25.9237 O   0  0  0  0  0  0  0  0  0  0  0  0
  1  2  1  0
  3  2  1  0
  4  5  1  0
  4  3  1  0
  5  1  1  0
  5  6  1  1
  7  6  2  0
  8  9  1  0
  9 10  1  0
 10 11  1  0
 12 11  1  1
 12 13  1  0
 13  6  1  0
 14 15  2  0
 14 12  1  0
 17 16  1  1
 17 18  1  0
 20 19  1  1
 19 17  1  0
 20 21  1  0
 21 14  1  0
 22 23  1  0
 22 20  1  0
 24 22  2  0
M  END
$$$$
