PML.pdb
     RDKit          3D

 24 24  0  0  1  0  0  0  0  0999 V2000
    8.1181  -17.1262   20.0951 N   0  0  0  0  0  0  0  0  0  0  0  0
    8.0560  -17.2322   18.6278 C   0  0  0  0  0  0  0  0  0  0  0  0
    7.9745  -15.7959   18.1395 C   0  0  0  0  0  0  0  0  0  0  0  0
    8.2742  -14.9611   19.3765 C   0  0  0  0  0  0  0  0  0  0  0  0
    9.0170  -15.9915   20.2292 C   0  0  1  0  0  0  0  0  0  0  0  0
    9.1911  -15.5624   21.6152 C   0  0  0  0  0  0  0  0  0  0  0  0
   10.3122  -15.1292   21.9803 O   0  0  0  0  0  0  0  0  0  0  0  0
    6.2838  -11.2176   26.0170 C   0  0  0  0  0  0  0  0  0  0  0  0
    5.8481  -12.9306   26.3475 S   0  0  0  0  0  0  0  0  0  0  0  0
    7.1263  -14.0817   25.8687 C   0  0  0  0  0  0  0  0  0  0  0  0
    7.0506  -14.6201   24.4840 C   0  0  0  0  0  0  0  0  0  0  0  0
    8.3637  -15.1134   23.9492 C   0  0  2  0  0  0  0  0  0  0  0  0
    8.1584  -15.6031   22.5958 N   0  0  0  0  0  0  0  0  0  0  0  0
    9.0112  -16.0641   24.8471 C   0  0  0  0  0  0  0  0  0  0  0  0
    8.8866  -17.3292   24.6901 O   0  0  0  0  0  0  0  0  0  0  0  0
   11.6353  -14.5963   29.8794 C   0  0  0  0  0  0  0  0  0  0  0  0
   10.8307  -14.9681   28.6559 C   0  0  1  0  0  0  0  0  0  0  0  0
   10.1291  -13.7641   28.0599 C   0  0  0  0  0  0  0  0  0  0  0  0
   11.5143  -15.8182   27.6687 C   0  0  0  0  0  0  0  0  0  0  0  0
   10.6784  -16.5821   26.6823 C   0  0  2  0  0  0  0  0  0  0  0  0
    9.8238  -15.6749   25.9435 N   0  0  0  0  0  0  0  0  0  0  0  0
    9.8804  -17.6468   27.2495 C   0  0  0  0  0  0  0  0  0  0  0  0
   10.4459  -18.7618   27.8555 O   0  0  0  0  0  0  0  0  0  0  0  0
    8.6286  -17.6228   27.2259 O   0  0  0  0  0  0  0  0  0  0  0  0
  1  2  1  0
  3  2  1  0
  4  5  1  0
  4  3  1  0
  5  1  1  0
  5  6  1  1
  7  6  2  0
  8  9  1  0
  9 10  1  0
 10 11  1  0
 12 11  1  1
 12 13  1  0
 13  6  1  0
 14 15  2  0
 14 12  1  0
 17 16  1  1
 17 18  1  0
 20 19  1  1
 19 17  1  0
 20 21  1  0
 21 14  1  0
 22 23  1  0
 22 20  1  0
 24 22  2  0
M  END
$$$$
