PML.pdb
     RDKit          3D

 24 24  0  0  1  0  0  0  0  0999 V2000
    7.0437  -19.8484   23.2740 N   0  0  0  0  0  0  0  0  0  0  0  0
    5.8857  -20.7506   23.1596 C   0  0  0  0  0  0  0  0  0  0  0  0
    4.7801  -19.8882   22.5750 C   0  0  0  0  0  0  0  0  0  0  0  0
    5.4877  -18.6114   22.1439 C   0  0  0  0  0  0  0  0  0  0  0  0
    6.9243  -19.1227   22.0200 C   0  0  1  0  0  0  0  0  0  0  0  0
    7.9019  -18.0444   21.8895 C   0  0  0  0  0  0  0  0  0  0  0  0
    8.4690  -17.8698   20.7824 O   0  0  0  0  0  0  0  0  0  0  0  0
    7.7179  -12.1591   20.3800 C   0  0  0  0  0  0  0  0  0  0  0  0
    6.6324  -13.5289   20.8027 S   0  0  0  0  0  0  0  0  0  0  0  0
    7.3393  -14.6320   22.0159 C   0  0  0  0  0  0  0  0  0  0  0  0
    8.7054  -15.1466   21.7296 C   0  0  0  0  0  0  0  0  0  0  0  0
    9.2294  -16.0953   22.7684 C   0  0  2  0  0  0  0  0  0  0  0  0
    8.2608  -17.1640   22.9506 N   0  0  0  0  0  0  0  0  0  0  0  0
    9.6224  -15.4158   23.9985 C   0  0  0  0  0  0  0  0  0  0  0  0
    9.8916  -14.1637   24.0183 O   0  0  0  0  0  0  0  0  0  0  0  0
    6.3506  -12.9140   26.0419 C   0  0  0  0  0  0  0  0  0  0  0  0
    7.7281  -13.5248   25.9334 C   0  0  1  0  0  0  0  0  0  0  0  0
    8.7760  -12.6677   26.6149 C   0  0  0  0  0  0  0  0  0  0  0  0
    7.8241  -14.9589   26.2475 C   0  0  0  0  0  0  0  0  0  0  0  0
    9.1839  -15.5484   26.4897 C   0  0  2  0  0  0  0  0  0  0  0  0
    9.7294  -16.0703   25.2530 N   0  0  0  0  0  0  0  0  0  0  0  0
    9.2362  -16.5699   27.5123 C   0  0  0  0  0  0  0  0  0  0  0  0
    9.5985  -17.8828   27.2379 O   0  0  0  0  0  0  0  0  0  0  0  0
    8.9564  -16.3267   28.7084 O   0  0  0  0  0  0  0  0  0  0  0  0
  1  2  1  0
  3  2  1  0
  4  5  1  0
  4  3  1  0
  5  1  1  0
  5  6  1  1
  7  6  2  0
  8  9  1  0
  9 10  1  0
 10 11  1  0
 12 11  1  6
 12 13  1  0
 13  6  1  0
 14 15  2  0
 14 12  1  0
 17 16  1  1
 17 18  1  0
 20 19  1  6
 19 17  1  0
 20 21  1  0
 21 14  1  0
 22 23  1  0
 22 20  1  0
 24 22  2  0
M  END
$$$$
