PML.pdb
     RDKit          3D

 24 24  0  0  1  0  0  0  0  0999 V2000
    8.6794  -18.0564   20.5391 N   0  0  0  0  0  0  0  0  0  0  0  0
    8.2408  -18.5082   19.2081 C   0  0  0  0  0  0  0  0  0  0  0  0
    7.1941  -17.4934   18.7810 C   0  0  0  0  0  0  0  0  0  0  0  0
    7.3168  -16.3735   19.8045 C   0  0  0  0  0  0  0  0  0  0  0  0
    8.7383  -16.6215   20.3129 C   0  0  1  0  0  0  0  0  0  0  0  0
    9.0484  -15.8653   21.5243 C   0  0  0  0  0  0  0  0  0  0  0  0
   10.2247  -15.4634   21.7046 O   0  0  0  0  0  0  0  0  0  0  0  0
    6.4428  -11.1917   27.3662 C   0  0  0  0  0  0  0  0  0  0  0  0
    6.0551  -12.2122   25.9373 S   0  0  0  0  0  0  0  0  0  0  0  0
    7.4554  -13.1503   25.3478 C   0  0  0  0  0  0  0  0  0  0  0  0
    7.2314  -13.9905   24.1408 C   0  0  0  0  0  0  0  0  0  0  0  0
    8.4406  -14.7662   23.7052 C   0  0  2  0  0  0  0  0  0  0  0  0
    8.0909  -15.5484   22.5306 N   0  0  0  0  0  0  0  0  0  0  0  0
    9.0321  -15.5371   24.7939 C   0  0  0  0  0  0  0  0  0  0  0  0
    8.3843  -16.4696   25.3867 O   0  0  0  0  0  0  0  0  0  0  0  0
    9.3482  -13.8369   29.2415 C   0  0  0  0  0  0  0  0  0  0  0  0
   10.0525  -14.1830   27.9505 C   0  0  1  0  0  0  0  0  0  0  0  0
   11.3136  -13.3634   27.7635 C   0  0  0  0  0  0  0  0  0  0  0  0
   10.2183  -15.6179   27.6711 C   0  0  0  0  0  0  0  0  0  0  0  0
   10.9224  -16.0237   26.4082 C   0  0  2  0  0  0  0  0  0  0  0  0
   10.3516  -15.3280   25.2726 N   0  0  0  0  0  0  0  0  0  0  0  0
   10.9410  -17.4461   26.1464 C   0  0  0  0  0  0  0  0  0  0  0  0
   10.3883  -18.0010   24.9989 O   0  0  0  0  0  0  0  0  0  0  0  0
   11.4591  -18.2610   26.9436 O   0  0  0  0  0  0  0  0  0  0  0  0
  1  2  1  0
  3  2  1  0
  4  5  1  0
  4  3  1  0
  5  1  1  0
  5  6  1  1
  7  6  2  0
  8  9  1  0
  9 10  1  0
 10 11  1  0
 12 11  1  1
 12 13  1  0
 13  6  1  0
 14 15  2  0
 14 12  1  0
 17 16  1  1
 17 18  1  0
 20 19  1  1
 19 17  1  0
 20 21  1  0
 21 14  1  0
 22 23  1  0
 22 20  1  0
 24 22  2  0
M  END
$$$$
