PML.pdb
     RDKit          3D

 24 24  0  0  1  0  0  0  0  0999 V2000
    7.6991  -18.0699   21.0373 N   0  0  0  0  0  0  0  0  0  0  0  0
    7.4805  -18.6927   19.7211 C   0  0  0  0  0  0  0  0  0  0  0  0
    7.3681  -17.5256   18.7551 C   0  0  0  0  0  0  0  0  0  0  0  0
    7.8088  -16.3187   19.5711 C   0  0  0  0  0  0  0  0  0  0  0  0
    8.6231  -17.0107   20.6660 C   0  0  1  0  0  0  0  0  0  0  0  0
    8.9491  -16.1219   21.7791 C   0  0  0  0  0  0  0  0  0  0  0  0
   10.1045  -15.6339   21.8482 O   0  0  0  0  0  0  0  0  0  0  0  0
    6.2300  -10.9484   27.0402 C   0  0  0  0  0  0  0  0  0  0  0  0
    5.8446  -12.3007   25.9194 S   0  0  0  0  0  0  0  0  0  0  0  0
    7.2550  -13.3356   25.5618 C   0  0  0  0  0  0  0  0  0  0  0  0
    7.0712  -14.3671   24.5057 C   0  0  0  0  0  0  0  0  0  0  0  0
    8.3385  -14.7439   23.7947 C   0  0  2  0  0  0  0  0  0  0  0  0
    8.0299  -15.7660   22.8079 N   0  0  0  0  0  0  0  0  0  0  0  0
    9.4134  -15.0952   24.7168 C   0  0  0  0  0  0  0  0  0  0  0  0
   10.3929  -14.3009   24.9416 O   0  0  0  0  0  0  0  0  0  0  0  0
    9.3073  -14.3026   29.2853 C   0  0  0  0  0  0  0  0  0  0  0  0
    9.9148  -14.7185   27.9660 C   0  0  1  0  0  0  0  0  0  0  0  0
   11.1379  -13.8903   27.6268 C   0  0  0  0  0  0  0  0  0  0  0  0
   10.0908  -16.1652   27.7648 C   0  0  0  0  0  0  0  0  0  0  0  0
   10.4849  -16.6546   26.4009 C   0  0  2  0  0  0  0  0  0  0  0  0
    9.4593  -16.3188   25.4341 N   0  0  0  0  0  0  0  0  0  0  0  0
   10.7847  -18.0673   26.3192 C   0  0  0  0  0  0  0  0  0  0  0  0
   11.8288  -18.6507   27.0261 O   0  0  0  0  0  0  0  0  0  0  0  0
   10.1163  -18.8474   25.6031 O   0  0  0  0  0  0  0  0  0  0  0  0
  1  2  1  0
  3  2  1  0
  4  5  1  0
  4  3  1  0
  5  1  1  0
  5  6  1  1
  7  6  2  0
  8  9  1  0
  9 10  1  0
 10 11  1  0
 12 11  1  1
 12 13  1  0
 13  6  1  0
 14 15  2  0
 14 12  1  0
 17 16  1  1
 17 18  1  0
 20 19  1  1
 19 17  1  0
 20 21  1  0
 21 14  1  0
 22 23  1  0
 22 20  1  0
 24 22  2  0
M  END
$$$$
