SWL.pdb
     RDKit          3D

 29 30  0  0  1  0  0  0  0  0999 V2000
   27.4103  -19.2568  -14.4849 O   0  0  0  0  0  0  0  0  0  0  0  0
   28.5700  -19.1428  -13.7210 C   0  0  0  0  0  0  0  0  0  0  0  0
   28.8911  -20.4999  -13.1741 C   0  0  2  0  0  0  0  0  0  0  0  0
   29.2135  -21.4114  -14.2270 N   0  0  0  0  0  0  0  0  0  0  0  0
   27.7867  -21.0387  -12.3241 C   0  0  0  0  0  0  0  0  0  0  0  0
   27.1994  -22.1245  -12.6252 O   0  0  0  0  0  0  0  0  0  0  0  0
   27.3461  -20.3750  -11.1580 N   0  0  0  0  0  0  0  0  0  0  0  0
   26.1881  -20.8559  -10.4537 C   0  0  1  0  0  0  0  0  0  0  0  0
   26.1119  -20.2684   -9.0793 C   0  0  0  0  0  0  0  0  0  0  0  0
   27.3237  -20.3565   -8.2718 C   0  0  0  0  0  0  0  0  0  0  0  0
   28.6463  -20.3496   -8.7264 C   0  0  0  0  0  0  0  0  0  0  0  0
   29.4829  -20.4158   -7.6915 N   0  0  0  0  0  0  0  0  0  0  0  0
   28.7490  -20.4666   -6.5744 C   0  0  0  0  0  0  0  0  0  0  0  0
   29.1439  -20.5502   -5.2609 C   0  0  0  0  0  0  0  0  0  0  0  0
   28.2211  -20.6035   -4.2226 C   0  0  0  0  0  0  0  0  0  0  0  0
   26.8751  -20.5716   -4.5228 C   0  0  0  0  0  0  0  0  0  0  0  0
   26.5099  -20.4868   -5.8594 C   0  0  0  0  0  0  0  0  0  0  0  0
   27.4037  -20.4318   -6.9044 C   0  0  0  0  0  0  0  0  0  0  0  0
   24.9766  -20.4153  -11.1895 C   0  0  0  0  0  0  0  0  0  0  0  0
   24.9215  -19.2393  -11.6140 O   0  0  0  0  0  0  0  0  0  0  0  0
   22.7554  -24.3722  -13.5730 C   0  0  0  0  0  0  0  0  0  0  0  0
   22.1859  -23.1813  -12.9103 C   0  0  2  0  0  0  0  0  0  0  0  0
   20.6391  -23.3254  -13.0030 C   0  0  0  0  0  0  0  0  0  0  0  0
   22.5353  -21.8320  -13.3476 C   0  0  0  0  0  0  0  0  0  0  0  0
   22.7806  -20.7938  -12.3430 C   0  0  2  0  0  0  0  0  0  0  0  0
   23.8740  -21.2654  -11.4361 N   0  0  0  0  0  0  0  0  0  0  0  0
   21.6743  -20.4336  -11.4856 C   0  0  0  0  0  0  0  0  0  0  0  0
   20.5318  -19.8157  -12.0444 O   0  0  0  0  0  0  0  0  0  0  0  0
   21.6090  -20.6126  -10.2552 O   0  0  0  0  0  0  0  0  0  0  0  0
  1  2  1  0
  2  3  1  0
  3  4  1  6
  3  5  1  0
  5  6  2  0
  5  7  1  0
  7  8  1  0
  8 19  1  0
  8  9  1  1
 10  9  1  0
 10 11  2  0
 12 11  1  0
 13 12  1  0
 14 13  2  0
 15 14  1  0
 16 15  2  0
 16 17  1  0
 17 18  2  0
 18 13  1  0
 18 10  1  0
 19 20  2  0
 22 21  1  6
 22 24  1  0
 23 22  1  0
 25 24  1  6
 26 25  1  0
 26 19  1  0
 27 28  1  0
 27 25  1  0
 29 27  2  0
M  END
$$$$
