SWL.pdb
     RDKit          3D

 29 30  0  0  1  0  0  0  0  0999 V2000
   25.7244  -38.7814   -9.3676 O   0  0  0  0  0  0  0  0  0  0  0  0
   26.3561  -38.2762  -10.5021 C   0  0  0  0  0  0  0  0  0  0  0  0
   26.0652  -36.8083  -10.5706 C   0  0  2  0  0  0  0  0  0  0  0  0
   26.5734  -36.2432  -11.7812 N   0  0  0  0  0  0  0  0  0  0  0  0
   26.5916  -36.0753   -9.3797 C   0  0  0  0  0  0  0  0  0  0  0  0
   27.8252  -35.7874   -9.2812 O   0  0  0  0  0  0  0  0  0  0  0  0
   25.7536  -35.6715   -8.3171 N   0  0  0  0  0  0  0  0  0  0  0  0
   26.2950  -34.9010   -7.2301 C   0  0  1  0  0  0  0  0  0  0  0  0
   25.2964  -33.9069   -6.7257 C   0  0  0  0  0  0  0  0  0  0  0  0
   25.1378  -32.6925   -7.5184 C   0  0  0  0  0  0  0  0  0  0  0  0
   25.1135  -32.5888   -8.9129 C   0  0  0  0  0  0  0  0  0  0  0  0
   24.9201  -31.3202   -9.2711 N   0  0  0  0  0  0  0  0  0  0  0  0
   24.8179  -30.5907   -8.1546 C   0  0  0  0  0  0  0  0  0  0  0  0
   24.6236  -29.2396   -7.9968 C   0  0  0  0  0  0  0  0  0  0  0  0
   24.5532  -28.6536   -6.7381 C   0  0  0  0  0  0  0  0  0  0  0  0
   24.6824  -29.4527   -5.6211 C   0  0  0  0  0  0  0  0  0  0  0  0
   24.8775  -30.8133   -5.8153 C   0  0  0  0  0  0  0  0  0  0  0  0
   24.9498  -31.4168   -7.0500 C   0  0  0  0  0  0  0  0  0  0  0  0
   26.6026  -35.8246   -6.1097 C   0  0  0  0  0  0  0  0  0  0  0  0
   26.1754  -36.9998   -6.1603 O   0  0  0  0  0  0  0  0  0  0  0  0
   28.1558  -39.6356   -3.3775 C   0  0  0  0  0  0  0  0  0  0  0  0
   28.1782  -38.8898   -4.6523 C   0  0  2  0  0  0  0  0  0  0  0  0
   29.1094  -39.6872   -5.6108 C   0  0  0  0  0  0  0  0  0  0  0  0
   28.5829  -37.4870   -4.7015 C   0  0  0  0  0  0  0  0  0  0  0  0
   27.7811  -36.4843   -3.9949 C   0  0  2  0  0  0  0  0  0  0  0  0
   27.3604  -35.4388   -4.9800 N   0  0  0  0  0  0  0  0  0  0  0  0
   28.4198  -35.7785   -2.9075 C   0  0  0  0  0  0  0  0  0  0  0  0
   28.7600  -34.4153   -3.0658 O   0  0  0  0  0  0  0  0  0  0  0  0
   28.7189  -36.2549   -1.7967 O   0  0  0  0  0  0  0  0  0  0  0  0
  1  2  1  0
  2  3  1  0
  3  4  1  6
  3  5  1  0
  5  6  2  0
  5  7  1  0
  7  8  1  0
  8 19  1  0
  8  9  1  1
 10  9  1  0
 10 11  2  0
 12 11  1  0
 13 12  1  0
 14 13  2  0
 15 14  1  0
 16 15  2  0
 16 17  1  0
 17 18  2  0
 18 13  1  0
 18 10  1  0
 19 20  2  0
 22 21  1  1
 22 24  1  0
 23 22  1  0
 25 24  1  6
 26 25  1  0
 26 19  1  0
 27 28  1  0
 27 25  1  0
 29 27  2  0
M  END
$$$$
