SWL.pdb
     RDKit          3D

 29 30  0  0  1  0  0  0  0  0999 V2000
   21.6790  -21.6651  -12.3444 O   0  0  0  0  0  0  0  0  0  0  0  0
   22.4110  -22.4375  -11.4451 C   0  0  0  0  0  0  0  0  0  0  0  0
   22.6577  -21.6052  -10.2243 C   0  0  2  0  0  0  0  0  0  0  0  0
   21.5209  -20.7931   -9.9219 N   0  0  0  0  0  0  0  0  0  0  0  0
   23.8891  -20.7689  -10.3542 C   0  0  0  0  0  0  0  0  0  0  0  0
   23.8122  -19.5250  -10.6014 O   0  0  0  0  0  0  0  0  0  0  0  0
   25.1840  -21.3139  -10.2106 N   0  0  0  0  0  0  0  0  0  0  0  0
   26.3388  -20.4877  -10.4388 C   0  0  1  0  0  0  0  0  0  0  0  0
   27.4339  -20.8150   -9.4727 C   0  0  0  0  0  0  0  0  0  0  0  0
   27.2919  -20.2691   -8.1272 C   0  0  0  0  0  0  0  0  0  0  0  0
   26.2267  -19.5124   -7.6286 C   0  0  0  0  0  0  0  0  0  0  0  0
   26.4382  -19.2195   -6.3462 N   0  0  0  0  0  0  0  0  0  0  0  0
   27.6088  -19.7603   -5.9906 C   0  0  0  0  0  0  0  0  0  0  0  0
   28.2652  -19.7310   -4.7837 C   0  0  0  0  0  0  0  0  0  0  0  0
   29.4964  -20.3518   -4.6064 C   0  0  0  0  0  0  0  0  0  0  0  0
   30.0706  -21.0133   -5.6720 C   0  0  0  0  0  0  0  0  0  0  0  0
   29.3815  -21.0241   -6.8770 C   0  0  0  0  0  0  0  0  0  0  0  0
   28.1621  -20.4183   -7.0772 C   0  0  0  0  0  0  0  0  0  0  0  0
   26.8541  -20.7700  -11.8019 C   0  0  0  0  0  0  0  0  0  0  0  0
   27.2603  -21.9236  -12.0676 O   0  0  0  0  0  0  0  0  0  0  0  0
   25.9924  -23.0291  -14.9402 C   0  0  0  0  0  0  0  0  0  0  0  0
   25.3468  -21.7154  -14.7425 C   0  0  2  0  0  0  0  0  0  0  0  0
   24.0887  -21.7026  -15.6583 C   0  0  0  0  0  0  0  0  0  0  0  0
   26.0773  -20.4711  -14.9704 C   0  0  0  0  0  0  0  0  0  0  0  0
   27.2995  -20.2071  -14.2062 C   0  0  2  0  0  0  0  0  0  0  0  0
   26.9087  -19.7926  -12.8220 N   0  0  0  0  0  0  0  0  0  0  0  0
   28.1756  -19.1711  -14.7040 C   0  0  0  0  0  0  0  0  0  0  0  0
   28.9658  -19.4178  -15.8503 O   0  0  0  0  0  0  0  0  0  0  0  0
   28.3215  -18.0346  -14.2168 O   0  0  0  0  0  0  0  0  0  0  0  0
  1  2  1  0
  2  3  1  0
  3  4  1  6
  3  5  1  0
  5  6  2  0
  5  7  1  0
  7  8  1  0
  8 19  1  0
  8  9  1  1
 10  9  1  0
 10 11  2  0
 12 11  1  0
 13 12  1  0
 14 13  2  0
 15 14  1  0
 16 15  2  0
 16 17  1  0
 17 18  2  0
 18 13  1  0
 18 10  1  0
 19 20  2  0
 22 21  1  6
 22 24  1  0
 23 22  1  0
 25 24  1  6
 26 25  1  0
 26 19  1  0
 27 28  1  0
 27 25  1  0
 29 27  2  0
M  END
$$$$
