SWL.pdb
     RDKit          3D

 29 30  0  0  1  0  0  0  0  0999 V2000
   27.0780  -18.6829  -14.8755 O   0  0  0  0  0  0  0  0  0  0  0  0
   27.5110  -19.8349  -15.5287 C   0  0  0  0  0  0  0  0  0  0  0  0
   28.3516  -20.6165  -14.5662 C   0  0  2  0  0  0  0  0  0  0  0  0
   28.9041  -21.7751  -15.1951 N   0  0  0  0  0  0  0  0  0  0  0  0
   27.5936  -20.9908  -13.3341 C   0  0  0  0  0  0  0  0  0  0  0  0
   26.7721  -21.9601  -13.3404 O   0  0  0  0  0  0  0  0  0  0  0  0
   27.7509  -20.2933  -12.1162 N   0  0  0  0  0  0  0  0  0  0  0  0
   26.9378  -20.6395  -10.9817 C   0  0  1  0  0  0  0  0  0  0  0  0
   27.4355  -19.9705   -9.7388 C   0  0  0  0  0  0  0  0  0  0  0  0
   26.7376  -20.3050   -8.5022 C   0  0  0  0  0  0  0  0  0  0  0  0
   25.4864  -20.9167   -8.3751 C   0  0  0  0  0  0  0  0  0  0  0  0
   25.1929  -21.0879   -7.0867 N   0  0  0  0  0  0  0  0  0  0  0  0
   26.2126  -20.6066   -6.3672 C   0  0  0  0  0  0  0  0  0  0  0  0
   26.3812  -20.5452   -5.0049 C   0  0  0  0  0  0  0  0  0  0  0  0
   27.5215  -19.9917   -4.4340 C   0  0  0  0  0  0  0  0  0  0  0  0
   28.5069  -19.4921   -5.2600 C   0  0  0  0  0  0  0  0  0  0  0  0
   28.3055  -19.5696   -6.6313 C   0  0  0  0  0  0  0  0  0  0  0  0
   27.1867  -20.1132   -7.2202 C   0  0  0  0  0  0  0  0  0  0  0  0
   25.5593  -20.1464  -11.2261 C   0  0  0  0  0  0  0  0  0  0  0  0
   25.3946  -18.9499  -11.5544 O   0  0  0  0  0  0  0  0  0  0  0  0
   23.4523  -22.9389  -14.3682 C   0  0  0  0  0  0  0  0  0  0  0  0
   22.8349  -22.3754  -13.1504 C   0  0  2  0  0  0  0  0  0  0  0  0
   21.3598  -22.8711  -13.1368 C   0  0  0  0  0  0  0  0  0  0  0  0
   22.8240  -20.9356  -12.9042 C   0  0  0  0  0  0  0  0  0  0  0  0
   23.0884  -20.4375  -11.5515 C   0  0  2  0  0  0  0  0  0  0  0  0
   24.4150  -20.9681  -11.1056 N   0  0  0  0  0  0  0  0  0  0  0  0
   22.1430  -20.8004  -10.5205 C   0  0  0  0  0  0  0  0  0  0  0  0
   20.8116  -20.3307  -10.5989 O   0  0  0  0  0  0  0  0  0  0  0  0
   22.3770  -21.5113   -9.5254 O   0  0  0  0  0  0  0  0  0  0  0  0
  1  2  1  0
  2  3  1  0
  3  4  1  6
  3  5  1  0
  5  6  2  0
  5  7  1  0
  7  8  1  0
  8 19  1  0
  8  9  1  1
 10  9  1  0
 10 11  2  0
 12 11  1  0
 13 12  1  0
 14 13  2  0
 15 14  1  0
 16 15  2  0
 16 17  1  0
 17 18  2  0
 18 13  1  0
 18 10  1  0
 19 20  2  0
 22 21  1  6
 22 24  1  0
 23 22  1  0
 25 24  1  6
 26 25  1  0
 26 19  1  0
 27 28  1  0
 27 25  1  0
 29 27  2  0
M  END
$$$$
