SWL.pdb
     RDKit          3D

 29 30  0  0  1  0  0  0  0  0999 V2000
   21.7981   -8.1465  -20.7616 O   0  0  0  0  0  0  0  0  0  0  0  0
   22.1250   -9.4529  -20.4040 C   0  0  0  0  0  0  0  0  0  0  0  0
   20.8929  -10.0941  -19.8430 C   0  0  2  0  0  0  0  0  0  0  0  0
   19.8636  -10.1738  -20.8317 N   0  0  0  0  0  0  0  0  0  0  0  0
   20.4015   -9.3914  -18.6193 C   0  0  0  0  0  0  0  0  0  0  0  0
   19.2865   -8.7821  -18.6180 O   0  0  0  0  0  0  0  0  0  0  0  0
   21.1438   -9.3699  -17.4181 N   0  0  0  0  0  0  0  0  0  0  0  0
   20.5750   -8.7839  -16.2343 C   0  0  1  0  0  0  0  0  0  0  0  0
   20.3579   -9.8171  -15.1736 C   0  0  0  0  0  0  0  0  0  0  0  0
   19.2117  -10.7006  -15.3583 C   0  0  0  0  0  0  0  0  0  0  0  0
   17.8793  -10.4402  -15.0225 C   0  0  0  0  0  0  0  0  0  0  0  0
   17.1128  -11.4733  -15.3697 N   0  0  0  0  0  0  0  0  0  0  0  0
   17.9022  -12.4015  -15.9214 C   0  0  0  0  0  0  0  0  0  0  0  0
   17.5893  -13.6402  -16.4272 C   0  0  0  0  0  0  0  0  0  0  0  0
   18.5619  -14.4797  -16.9579 C   0  0  0  0  0  0  0  0  0  0  0  0
   19.8741  -14.0546  -16.9754 C   0  0  0  0  0  0  0  0  0  0  0  0
   20.1564  -12.7981  -16.4569 C   0  0  0  0  0  0  0  0  0  0  0  0
   19.2119  -11.9489  -15.9273 C   0  0  0  0  0  0  0  0  0  0  0  0
   21.5384   -7.7926  -15.6938 C   0  0  0  0  0  0  0  0  0  0  0  0
   22.7545   -8.0867  -15.6618 O   0  0  0  0  0  0  0  0  0  0  0  0
   20.6447   -2.5518  -16.5815 C   0  0  0  0  0  0  0  0  0  0  0  0
   20.8083   -3.7047  -15.6727 C   0  0  2  0  0  0  0  0  0  0  0  0
   20.2983   -3.2396  -14.2779 C   0  0  0  0  0  0  0  0  0  0  0  0
   22.1098   -4.3401  -15.4828 C   0  0  0  0  0  0  0  0  0  0  0  0
   22.1956   -5.5808  -14.7077 C   0  0  2  0  0  0  0  0  0  0  0  0
   21.1467   -6.5230  -15.2101 N   0  0  0  0  0  0  0  0  0  0  0  0
   21.9950   -5.4798  -13.2801 C   0  0  0  0  0  0  0  0  0  0  0  0
   20.9369   -6.1944  -12.6726 O   0  0  0  0  0  0  0  0  0  0  0  0
   22.6778   -4.8047  -12.4875 O   0  0  0  0  0  0  0  0  0  0  0  0
  1  2  1  0
  2  3  1  0
  3  4  1  6
  3  5  1  0
  5  6  2  0
  5  7  1  0
  7  8  1  0
  8 19  1  0
  8  9  1  1
 10  9  1  0
 10 11  2  0
 12 11  1  0
 13 12  1  0
 14 13  2  0
 15 14  1  0
 16 15  2  0
 16 17  1  0
 17 18  2  0
 18 13  1  0
 18 10  1  0
 19 20  2  0
 22 21  1  6
 22 24  1  0
 23 22  1  0
 25 24  1  6
 26 25  1  0
 26 19  1  0
 27 28  1  0
 27 25  1  0
 29 27  2  0
M  END
$$$$
