SWL.pdb
     RDKit          3D

 29 30  0  0  1  0  0  0  0  0999 V2000
   27.5863  -18.2622  -13.2401 O   0  0  0  0  0  0  0  0  0  0  0  0
   28.1792  -19.0693  -14.2088 C   0  0  0  0  0  0  0  0  0  0  0  0
   28.7005  -20.2955  -13.5241 C   0  0  2  0  0  0  0  0  0  0  0  0
   29.2970  -21.1910  -14.4651 N   0  0  0  0  0  0  0  0  0  0  0  0
   27.6417  -20.9877  -12.7288 C   0  0  0  0  0  0  0  0  0  0  0  0
   26.8269  -21.7902  -13.2827 O   0  0  0  0  0  0  0  0  0  0  0  0
   27.4959  -20.7861  -11.3387 N   0  0  0  0  0  0  0  0  0  0  0  0
   26.4433  -21.4560  -10.6237 C   0  0  1  0  0  0  0  0  0  0  0  0
   26.8606  -21.7695   -9.2210 C   0  0  0  0  0  0  0  0  0  0  0  0
   27.1711  -20.6263   -8.3694 C   0  0  0  0  0  0  0  0  0  0  0  0
   26.8143  -19.2908   -8.5816 C   0  0  0  0  0  0  0  0  0  0  0  0
   27.2494  -18.5382   -7.5720 N   0  0  0  0  0  0  0  0  0  0  0  0
   27.8803  -19.3394   -6.7065 C   0  0  0  0  0  0  0  0  0  0  0  0
   28.5054  -19.0403   -5.5199 C   0  0  0  0  0  0  0  0  0  0  0  0
   29.1236  -20.0207   -4.7523 C   0  0  0  0  0  0  0  0  0  0  0  0
   29.1071  -21.3264   -5.1969 C   0  0  0  0  0  0  0  0  0  0  0  0
   28.4673  -21.5947   -6.3992 C   0  0  0  0  0  0  0  0  0  0  0  0
   27.8478  -20.6426   -7.1761 C   0  0  0  0  0  0  0  0  0  0  0  0
   25.2769  -20.5416  -10.5429 C   0  0  0  0  0  0  0  0  0  0  0  0
   25.4797  -19.3108  -10.4414 O   0  0  0  0  0  0  0  0  0  0  0  0
   21.2858  -19.9946  -14.1235 C   0  0  0  0  0  0  0  0  0  0  0  0
   22.6013  -19.4376  -13.7481 C   0  0  2  0  0  0  0  0  0  0  0  0
   23.4288  -19.3427  -15.0627 C   0  0  0  0  0  0  0  0  0  0  0  0
   23.4375  -20.0849  -12.7403 C   0  0  0  0  0  0  0  0  0  0  0  0
   22.9296  -20.2306  -11.3734 C   0  0  2  0  0  0  0  0  0  0  0  0
   23.9385  -20.9962  -10.5756 N   0  0  0  0  0  0  0  0  0  0  0  0
   21.6742  -20.9273  -11.2089 C   0  0  0  0  0  0  0  0  0  0  0  0
   21.6171  -22.3227  -11.4304 O   0  0  0  0  0  0  0  0  0  0  0  0
   20.5874  -20.4166  -10.8800 O   0  0  0  0  0  0  0  0  0  0  0  0
  1  2  1  0
  2  3  1  0
  3  4  1  6
  3  5  1  0
  5  6  2  0
  5  7  1  0
  7  8  1  0
  8 19  1  0
  8  9  1  1
 10  9  1  0
 10 11  2  0
 12 11  1  0
 13 12  1  0
 14 13  2  0
 15 14  1  0
 16 15  2  0
 16 17  1  0
 17 18  2  0
 18 13  1  0
 18 10  1  0
 19 20  2  0
 22 21  1  6
 22 24  1  0
 23 22  1  0
 25 24  1  6
 26 25  1  0
 26 19  1  0
 27 28  1  0
 27 25  1  0
 29 27  2  0
M  END
$$$$
