SWL.pdb
     RDKit          3D

 29 30  0  0  1  0  0  0  0  0999 V2000
   28.1358  -20.9210  -19.4772 O   0  0  0  0  0  0  0  0  0  0  0  0
   27.4055  -21.1992  -20.6307 C   0  0  0  0  0  0  0  0  0  0  0  0
   26.8865  -19.9001  -21.1663 C   0  0  2  0  0  0  0  0  0  0  0  0
   27.9168  -18.9095  -21.1898 N   0  0  0  0  0  0  0  0  0  0  0  0
   25.6977  -19.4128  -20.4034 C   0  0  0  0  0  0  0  0  0  0  0  0
   25.6086  -18.1999  -20.0353 O   0  0  0  0  0  0  0  0  0  0  0  0
   24.6273  -20.2667  -20.0576 N   0  0  0  0  0  0  0  0  0  0  0  0
   23.4309  -19.7178  -19.4784 C   0  0  1  0  0  0  0  0  0  0  0  0
   22.2989  -20.6938  -19.5560 C   0  0  0  0  0  0  0  0  0  0  0  0
   20.9963  -20.2077  -19.1142 C   0  0  0  0  0  0  0  0  0  0  0  0
   20.6043  -18.8767  -18.9387 C   0  0  0  0  0  0  0  0  0  0  0  0
   19.3296  -18.8251  -18.5546 N   0  0  0  0  0  0  0  0  0  0  0  0
   18.8757  -20.0807  -18.4725 C   0  0  0  0  0  0  0  0  0  0  0  0
   17.6354  -20.5500  -18.1127 C   0  0  0  0  0  0  0  0  0  0  0  0
   17.3512  -21.9103  -18.0765 C   0  0  0  0  0  0  0  0  0  0  0  0
   18.3428  -22.8091  -18.4109 C   0  0  0  0  0  0  0  0  0  0  0  0
   19.5843  -22.3022  -18.7698 C   0  0  0  0  0  0  0  0  0  0  0  0
   19.8897  -20.9610  -18.8142 C   0  0  0  0  0  0  0  0  0  0  0  0
   23.6864  -19.4521  -18.0406 C   0  0  0  0  0  0  0  0  0  0  0  0
   24.3959  -20.2553  -17.3942 O   0  0  0  0  0  0  0  0  0  0  0  0
   26.5757  -17.5482  -15.3827 C   0  0  0  0  0  0  0  0  0  0  0  0
   25.5456  -16.7394  -16.0656 C   0  0  2  0  0  0  0  0  0  0  0  0
   25.9526  -15.2508  -15.8654 C   0  0  0  0  0  0  0  0  0  0  0  0
   24.1319  -16.8658  -15.7199 C   0  0  0  0  0  0  0  0  0  0  0  0
   23.4615  -18.1558  -15.9040 C   0  0  2  0  0  0  0  0  0  0  0  0
   23.1638  -18.3279  -17.3607 N   0  0  0  0  0  0  0  0  0  0  0  0
   22.2079  -18.3504  -15.2116 C   0  0  0  0  0  0  0  0  0  0  0  0
   21.0061  -18.4224  -15.9530 O   0  0  0  0  0  0  0  0  0  0  0  0
   22.0579  -18.4667  -13.9811 O   0  0  0  0  0  0  0  0  0  0  0  0
  1  2  1  0
  2  3  1  0
  3  4  1  1
  3  5  1  0
  5  6  2  0
  5  7  1  0
  7  8  1  0
  8 19  1  0
  8  9  1  1
 10  9  1  0
 10 11  2  0
 12 11  1  0
 13 12  1  0
 14 13  2  0
 15 14  1  0
 16 15  2  0
 16 17  1  0
 17 18  2  0
 18 13  1  0
 18 10  1  0
 19 20  2  0
 22 21  1  1
 22 24  1  0
 23 22  1  0
 25 24  1  6
 26 25  1  0
 26 19  1  0
 27 28  1  0
 27 25  1  0
 29 27  2  0
M  END
$$$$
