SWL.pdb
     RDKit          3D

 29 30  0  0  1  0  0  0  0  0999 V2000
   26.4981  -18.5566  -15.7324 O   0  0  0  0  0  0  0  0  0  0  0  0
   27.4479  -18.2971  -14.7466 C   0  0  0  0  0  0  0  0  0  0  0  0
   28.0454  -19.6070  -14.3329 C   0  0  2  0  0  0  0  0  0  0  0  0
   28.5367  -20.3249  -15.4671 N   0  0  0  0  0  0  0  0  0  0  0  0
   27.0832  -20.4414  -13.5515 C   0  0  0  0  0  0  0  0  0  0  0  0
   26.6934  -21.5702  -13.9855 O   0  0  0  0  0  0  0  0  0  0  0  0
   26.5654  -20.0211  -12.3066 N   0  0  0  0  0  0  0  0  0  0  0  0
   25.6467  -20.8647  -11.5907 C   0  0  1  0  0  0  0  0  0  0  0  0
   25.7227  -20.6141  -10.1171 C   0  0  0  0  0  0  0  0  0  0  0  0
   27.0210  -20.8384   -9.4906 C   0  0  0  0  0  0  0  0  0  0  0  0
   28.0965  -21.5671  -10.0086 C   0  0  0  0  0  0  0  0  0  0  0  0
   29.1246  -21.5236   -9.1623 N   0  0  0  0  0  0  0  0  0  0  0  0
   28.7551  -20.7901   -8.1066 C   0  0  0  0  0  0  0  0  0  0  0  0
   29.4547  -20.4617   -6.9705 C   0  0  0  0  0  0  0  0  0  0  0  0
   28.8909  -19.6863   -5.9637 C   0  0  0  0  0  0  0  0  0  0  0  0
   27.5952  -19.2371   -6.1128 C   0  0  0  0  0  0  0  0  0  0  0  0
   26.9164  -19.5865   -7.2722 C   0  0  0  0  0  0  0  0  0  0  0  0
   27.4525  -20.3515   -8.2828 C   0  0  0  0  0  0  0  0  0  0  0  0
   24.2676  -20.5287  -12.0246 C   0  0  0  0  0  0  0  0  0  0  0  0
   23.9288  -19.3253  -12.0838 O   0  0  0  0  0  0  0  0  0  0  0  0
   22.2988  -20.0092  -15.9488 C   0  0  0  0  0  0  0  0  0  0  0  0
   22.4732  -21.3577  -15.3717 C   0  0  2  0  0  0  0  0  0  0  0  0
   22.1360  -22.3675  -16.5068 C   0  0  0  0  0  0  0  0  0  0  0  0
   21.7420  -21.7697  -14.1762 C   0  0  0  0  0  0  0  0  0  0  0  0
   21.9836  -21.0701  -12.9114 C   0  0  2  0  0  0  0  0  0  0  0  0
   23.3112  -21.5086  -12.3771 N   0  0  0  0  0  0  0  0  0  0  0  0
   21.0302  -21.2870  -11.8471 C   0  0  0  0  0  0  0  0  0  0  0  0
   21.2865  -22.2798  -10.8735 O   0  0  0  0  0  0  0  0  0  0  0  0
   19.9602  -20.6723  -11.6819 O   0  0  0  0  0  0  0  0  0  0  0  0
  1  2  1  0
  2  3  1  0
  3  4  1  6
  3  5  1  0
  5  6  2  0
  5  7  1  0
  7  8  1  0
  8 19  1  0
  8  9  1  1
 10  9  1  0
 10 11  2  0
 12 11  1  0
 13 12  1  0
 14 13  2  0
 15 14  1  0
 16 15  2  0
 16 17  1  0
 17 18  2  0
 18 13  1  0
 18 10  1  0
 19 20  2  0
 22 21  1  6
 22 24  1  0
 23 22  1  0
 25 24  1  6
 26 25  1  0
 26 19  1  0
 27 28  1  0
 27 25  1  0
 29 27  2  0
M  END
$$$$
