SWL.pdb
     RDKit          3D

 29 30  0  0  1  0  0  0  0  0999 V2000
   29.9283  -21.6031  -15.0054 O   0  0  0  0  0  0  0  0  0  0  0  0
   28.8129  -22.1565  -15.6307 C   0  0  0  0  0  0  0  0  0  0  0  0
   27.7902  -21.0725  -15.7822 C   0  0  2  0  0  0  0  0  0  0  0  0
   28.2770  -20.0257  -16.6252 N   0  0  0  0  0  0  0  0  0  0  0  0
   27.3474  -20.5297  -14.4624 C   0  0  0  0  0  0  0  0  0  0  0  0
   27.5160  -19.3050  -14.1687 O   0  0  0  0  0  0  0  0  0  0  0  0
   26.7272  -21.3418  -13.4876 N   0  0  0  0  0  0  0  0  0  0  0  0
   25.6313  -20.8232  -12.7141 C   0  0  1  0  0  0  0  0  0  0  0  0
   24.3256  -21.3765  -13.1927 C   0  0  0  0  0  0  0  0  0  0  0  0
   23.3188  -20.3996  -13.5931 C   0  0  0  0  0  0  0  0  0  0  0  0
   23.5020  -19.0272  -13.7902 C   0  0  0  0  0  0  0  0  0  0  0  0
   22.3580  -18.4676  -14.1819 N   0  0  0  0  0  0  0  0  0  0  0  0
   21.4322  -19.4308  -14.2464 C   0  0  0  0  0  0  0  0  0  0  0  0
   20.1037  -19.3578  -14.5900 C   0  0  0  0  0  0  0  0  0  0  0  0
   19.2858  -20.4819  -14.5887 C   0  0  0  0  0  0  0  0  0  0  0  0
   19.8256  -21.7004  -14.2324 C   0  0  0  0  0  0  0  0  0  0  0  0
   21.1705  -21.7397  -13.8909 C   0  0  0  0  0  0  0  0  0  0  0  0
   22.0005  -20.6419  -13.8854 C   0  0  0  0  0  0  0  0  0  0  0  0
   25.8052  -21.2585  -11.3058 C   0  0  0  0  0  0  0  0  0  0  0  0
   25.9831  -22.4740  -11.0665 O   0  0  0  0  0  0  0  0  0  0  0  0
   28.9834  -20.5604   -8.0334 C   0  0  0  0  0  0  0  0  0  0  0  0
   27.9211  -19.5459   -8.1883 C   0  0  2  0  0  0  0  0  0  0  0  0
   28.2807  -18.3827   -7.2190 C   0  0  0  0  0  0  0  0  0  0  0  0
   26.5156  -19.8835   -7.9781 C   0  0  0  0  0  0  0  0  0  0  0  0
   25.8892  -20.9038   -8.8232 C   0  0  2  0  0  0  0  0  0  0  0  0
   25.7799  -20.3608  -10.2138 N   0  0  0  0  0  0  0  0  0  0  0  0
   24.5607  -21.3378   -8.4553 C   0  0  0  0  0  0  0  0  0  0  0  0
   24.3948  -22.2359   -7.3759 O   0  0  0  0  0  0  0  0  0  0  0  0
   23.4971  -20.9964   -9.0051 O   0  0  0  0  0  0  0  0  0  0  0  0
  1  2  1  0
  2  3  1  0
  3  4  1  6
  3  5  1  0
  5  6  2  0
  5  7  1  0
  7  8  1  0
  8 19  1  0
  8  9  1  6
 10  9  1  0
 10 11  2  0
 12 11  1  0
 13 12  1  0
 14 13  2  0
 15 14  1  0
 16 15  2  0
 16 17  1  0
 17 18  2  0
 18 13  1  0
 18 10  1  0
 19 20  2  0
 22 21  1  1
 22 24  1  0
 23 22  1  0
 25 24  1  1
 26 25  1  0
 26 19  1  0
 27 28  1  0
 27 25  1  0
 29 27  2  0
M  END
$$$$
