SWL.pdb
     RDKit          3D

 29 30  0  0  1  0  0  0  0  0999 V2000
   22.6345  -16.5812  -18.6425 O   0  0  0  0  0  0  0  0  0  0  0  0
   23.7768  -16.1379  -17.9792 C   0  0  0  0  0  0  0  0  0  0  0  0
   24.8596  -17.1466  -18.2116 C   0  0  2  0  0  0  0  0  0  0  0  0
   25.0897  -17.3355  -19.6097 N   0  0  0  0  0  0  0  0  0  0  0  0
   24.5673  -18.4491  -17.5402 C   0  0  0  0  0  0  0  0  0  0  0  0
   24.1353  -19.4440  -18.2020 O   0  0  0  0  0  0  0  0  0  0  0  0
   24.7542  -18.6360  -16.1529 N   0  0  0  0  0  0  0  0  0  0  0  0
   24.4389  -19.9037  -15.5514 C   0  0  1  0  0  0  0  0  0  0  0  0
   25.5528  -20.3721  -14.6684 C   0  0  0  0  0  0  0  0  0  0  0  0
   26.4976  -21.3105  -15.2642 C   0  0  0  0  0  0  0  0  0  0  0  0
   27.7352  -21.0129  -15.8437 C   0  0  0  0  0  0  0  0  0  0  0  0
   28.3273  -22.1344  -16.2521 N   0  0  0  0  0  0  0  0  0  0  0  0
   27.5156  -23.1561  -15.9587 C   0  0  0  0  0  0  0  0  0  0  0  0
   27.6724  -24.5024  -16.1850 C   0  0  0  0  0  0  0  0  0  0  0  0
   26.7006  -25.4240  -15.8126 C   0  0  0  0  0  0  0  0  0  0  0  0
   25.5504  -24.9714  -15.2003 C   0  0  0  0  0  0  0  0  0  0  0  0
   25.4232  -23.6057  -14.9862 C   0  0  0  0  0  0  0  0  0  0  0  0
   26.3707  -22.6742  -15.3446 C   0  0  0  0  0  0  0  0  0  0  0  0
   23.2399  -19.7295  -14.6941 C   0  0  0  0  0  0  0  0  0  0  0  0
   23.2026  -18.7668  -13.8954 O   0  0  0  0  0  0  0  0  0  0  0  0
   19.3485  -17.8524  -15.3098 C   0  0  0  0  0  0  0  0  0  0  0  0
   19.5804  -19.2547  -15.7118 C   0  0  2  0  0  0  0  0  0  0  0  0
   18.3878  -19.6509  -16.6297 C   0  0  0  0  0  0  0  0  0  0  0  0
   19.7465  -20.3100  -14.7156 C   0  0  0  0  0  0  0  0  0  0  0  0
   20.9435  -20.3160  -13.8702 C   0  0  2  0  0  0  0  0  0  0  0  0
   22.1298  -20.6042  -14.7362 N   0  0  0  0  0  0  0  0  0  0  0  0
   20.9855  -21.2819  -12.7961 C   0  0  0  0  0  0  0  0  0  0  0  0
   21.8192  -22.4179  -12.9124 O   0  0  0  0  0  0  0  0  0  0  0  0
   20.3420  -21.2263  -11.7316 O   0  0  0  0  0  0  0  0  0  0  0  0
  1  2  1  0
  2  3  1  0
  3  4  1  6
  3  5  1  0
  5  6  2  0
  5  7  1  0
  7  8  1  0
  8 19  1  0
  8  9  1  1
 10  9  1  0
 10 11  2  0
 12 11  1  0
 13 12  1  0
 14 13  2  0
 15 14  1  0
 16 15  2  0
 16 17  1  0
 17 18  2  0
 18 13  1  0
 18 10  1  0
 19 20  2  0
 22 21  1  1
 22 24  1  0
 23 22  1  0
 25 24  1  6
 26 25  1  0
 26 19  1  0
 27 28  1  0
 27 25  1  0
 29 27  2  0
M  END
$$$$
