SWL.pdb
     RDKit          3D

 29 30  0  0  1  0  0  0  0  0999 V2000
   33.9572  -37.5201   -6.0690 O   0  0  0  0  0  0  0  0  0  0  0  0
   33.2611  -37.5842   -7.2742 C   0  0  0  0  0  0  0  0  0  0  0  0
   32.9305  -36.1821   -7.6851 C   0  0  2  0  0  0  0  0  0  0  0  0
   34.1137  -35.4604   -8.0353 N   0  0  0  0  0  0  0  0  0  0  0  0
   32.1568  -35.4561   -6.6330 C   0  0  0  0  0  0  0  0  0  0  0  0
   32.6951  -34.5344   -5.9438 O   0  0  0  0  0  0  0  0  0  0  0  0
   30.8048  -35.7557   -6.3559 N   0  0  0  0  0  0  0  0  0  0  0  0
   30.0944  -35.0043   -5.3564 C   0  0  1  0  0  0  0  0  0  0  0  0
   28.6246  -34.9892   -5.6383 C   0  0  0  0  0  0  0  0  0  0  0  0
   28.1870  -34.1348   -6.7369 C   0  0  0  0  0  0  0  0  0  0  0  0
   28.7663  -34.0228   -8.0049 C   0  0  0  0  0  0  0  0  0  0  0  0
   28.0697  -33.1643   -8.7486 N   0  0  0  0  0  0  0  0  0  0  0  0
   27.0535  -32.7108   -8.0066 C   0  0  0  0  0  0  0  0  0  0  0  0
   26.0659  -31.8077   -8.3185 C   0  0  0  0  0  0  0  0  0  0  0  0
   25.0873  -31.4485   -7.3988 C   0  0  0  0  0  0  0  0  0  0  0  0
   25.1118  -32.0153   -6.1415 C   0  0  0  0  0  0  0  0  0  0  0  0
   26.1226  -32.9239   -5.8586 C   0  0  0  0  0  0  0  0  0  0  0  0
   27.1013  -33.2962   -6.7516 C   0  0  0  0  0  0  0  0  0  0  0  0
   30.2851  -35.6728   -4.0450 C   0  0  0  0  0  0  0  0  0  0  0  0
   30.7666  -36.8277   -4.0196 O   0  0  0  0  0  0  0  0  0  0  0  0
   33.7953  -36.5386   -0.1473 C   0  0  0  0  0  0  0  0  0  0  0  0
   32.3442  -36.6802   -0.3843 C   0  0  2  0  0  0  0  0  0  0  0  0
   32.0425  -38.2067   -0.3590 C   0  0  0  0  0  0  0  0  0  0  0  0
   31.7139  -36.1205   -1.5774 C   0  0  0  0  0  0  0  0  0  0  0  0
   30.2929  -35.7646   -1.5375 C   0  0  2  0  0  0  0  0  0  0  0  0
   29.9472  -35.0642   -2.8143 N   0  0  0  0  0  0  0  0  0  0  0  0
   29.8635  -34.8902   -0.4701 C   0  0  0  0  0  0  0  0  0  0  0  0
   29.8208  -35.3782    0.8563 O   0  0  0  0  0  0  0  0  0  0  0  0
   29.5103  -33.7023   -0.5898 O   0  0  0  0  0  0  0  0  0  0  0  0
  1  2  1  0
  2  3  1  0
  3  4  1  1
  3  5  1  0
  5  6  2  0
  5  7  1  0
  7  8  1  0
  8 19  1  0
  8  9  1  6
 10  9  1  0
 10 11  2  0
 12 11  1  0
 13 12  1  0
 14 13  2  0
 15 14  1  0
 16 15  2  0
 16 17  1  0
 17 18  2  0
 18 13  1  0
 18 10  1  0
 19 20  2  0
 22 21  1  6
 22 24  1  0
 23 22  1  0
 25 24  1  6
 26 25  1  0
 26 19  1  0
 27 28  1  0
 27 25  1  0
 29 27  2  0
M  END
$$$$
