SWL.pdb
     RDKit          3D

 29 30  0  0  1  0  0  0  0  0999 V2000
   25.5058  -20.4399  -16.3899 O   0  0  0  0  0  0  0  0  0  0  0  0
   26.7982  -20.0738  -16.0198 C   0  0  0  0  0  0  0  0  0  0  0  0
   27.3750  -21.1934  -15.2089 C   0  0  2  0  0  0  0  0  0  0  0  0
   27.5498  -22.3654  -16.0084 N   0  0  0  0  0  0  0  0  0  0  0  0
   26.5509  -21.4932  -13.9991 C   0  0  0  0  0  0  0  0  0  0  0  0
   25.8633  -22.5590  -13.9234 O   0  0  0  0  0  0  0  0  0  0  0  0
   26.4960  -20.6165  -12.8932 N   0  0  0  0  0  0  0  0  0  0  0  0
   25.6609  -20.9351  -11.7666 C   0  0  1  0  0  0  0  0  0  0  0  0
   26.0408  -20.1226  -10.5685 C   0  0  0  0  0  0  0  0  0  0  0  0
   27.2490  -20.5378   -9.8640 C   0  0  0  0  0  0  0  0  0  0  0  0
   28.2888  -21.3301  -10.3609 C   0  0  0  0  0  0  0  0  0  0  0  0
   29.2362  -21.4701   -9.4346 N   0  0  0  0  0  0  0  0  0  0  0  0
   28.8482  -20.7949   -8.3471 C   0  0  0  0  0  0  0  0  0  0  0  0
   29.4724  -20.6423   -7.1325 C   0  0  0  0  0  0  0  0  0  0  0  0
   28.9005  -19.9007   -6.1051 C   0  0  0  0  0  0  0  0  0  0  0  0
   27.6744  -19.3041   -6.3143 C   0  0  0  0  0  0  0  0  0  0  0  0
   27.0709  -19.4777   -7.5524 C   0  0  0  0  0  0  0  0  0  0  0  0
   27.6168  -20.2058   -8.5847 C   0  0  0  0  0  0  0  0  0  0  0  0
   24.2595  -20.5866  -12.1095 C   0  0  0  0  0  0  0  0  0  0  0  0
   24.0336  -19.5127  -12.7113 O   0  0  0  0  0  0  0  0  0  0  0  0
   19.8437  -22.9962  -15.0661 C   0  0  0  0  0  0  0  0  0  0  0  0
   20.3661  -21.8485  -14.2969 C   0  0  2  0  0  0  0  0  0  0  0  0
   20.4997  -20.6697  -15.3040 C   0  0  0  0  0  0  0  0  0  0  0  0
   21.6194  -21.9438  -13.5526 C   0  0  0  0  0  0  0  0  0  0  0  0
   21.8173  -21.1001  -12.3708 C   0  0  2  0  0  0  0  0  0  0  0  0
   23.1594  -21.4145  -11.7875 N   0  0  0  0  0  0  0  0  0  0  0  0
   20.8662  -21.2449  -11.2924 C   0  0  0  0  0  0  0  0  0  0  0  0
   21.2345  -21.9599  -10.1295 O   0  0  0  0  0  0  0  0  0  0  0  0
   19.7066  -20.7921  -11.2689 O   0  0  0  0  0  0  0  0  0  0  0  0
  1  2  1  0
  2  3  1  0
  3  4  1  6
  3  5  1  0
  5  6  2  0
  5  7  1  0
  7  8  1  0
  8 19  1  0
  8  9  1  1
 10  9  1  0
 10 11  2  0
 12 11  1  0
 13 12  1  0
 14 13  2  0
 15 14  1  0
 16 15  2  0
 16 17  1  0
 17 18  2  0
 18 13  1  0
 18 10  1  0
 19 20  2  0
 22 21  1  6
 22 24  1  0
 23 22  1  0
 25 24  1  6
 26 25  1  0
 26 19  1  0
 27 28  1  0
 27 25  1  0
 29 27  2  0
M  END
$$$$
