ADQ.pdb
     RDKit          3D

 23 22  0  0  1  0  0  0  0  0999 V2000
    8.3624  -12.4202   20.0467 C   0  0  0  0  0  0  0  0  0  0  0  0
    8.2786  -13.8568   19.5792 C   0  0  2  0  0  0  0  0  0  0  0  0
    7.0073  -14.0515   18.9421 N   0  0  0  0  0  0  0  0  0  0  0  0
    8.4830  -14.8016   20.7147 C   0  0  0  0  0  0  0  0  0  0  0  0
    7.4988  -15.0755   21.4393 O   0  0  0  0  0  0  0  0  0  0  0  0
    9.7619  -15.3543   20.9392 N   0  0  0  0  0  0  0  0  0  0  0  0
   10.0073  -16.2864   22.0217 C   0  0  1  0  0  0  0  0  0  0  0  0
   11.3304  -16.9822   21.8652 C   0  0  0  0  0  0  0  0  0  0  0  0
   11.2752  -17.8964   20.7091 C   0  0  0  0  0  0  0  0  0  0  0  0
   12.0381  -17.8094   19.6989 O   0  0  0  0  0  0  0  0  0  0  0  0
    9.9776  -15.6015   23.3413 C   0  0  0  0  0  0  0  0  0  0  0  0
   10.6472  -14.5467   23.4483 O   0  0  0  0  0  0  0  0  0  0  0  0
   10.3297  -18.9356   20.7020 O   0  0  0  0  0  0  0  0  0  0  0  0
    5.5684  -12.7039   25.4354 N   0  0  0  0  0  0  0  0  0  0  0  0
    6.4579  -12.6249   26.5609 C   0  0  0  0  0  0  0  0  0  0  0  0
    6.1731  -11.7695   27.4578 O   0  0  0  0  0  0  0  0  0  0  0  0
    7.6358  -13.4929   26.6778 C   0  0  0  0  0  0  0  0  0  0  0  0
    7.9006  -14.3786   25.5185 C   0  0  0  0  0  0  0  0  0  0  0  0
    9.1212  -15.2044   25.6535 C   0  0  2  0  0  0  0  0  0  0  0  0
    9.2569  -16.0635   24.4438 N   0  0  0  0  0  0  0  0  0  0  0  0
    9.3121  -16.0634   26.7920 C   0  0  0  0  0  0  0  0  0  0  0  0
    9.4186  -15.6340   27.9658 O   0  0  0  0  0  0  0  0  0  0  0  0
    9.3932  -17.4590   26.6695 O   0  0  0  0  0  0  0  0  0  0  0  0
  2  4  1  0
  2  3  1  0
  2  1  1  1
  4  5  2  0
  6  7  1  0
  6  4  1  0
  7 11  1  0
  7  8  1  6
  9  8  1  0
 10  9  2  0
 11 20  1  0
 11 12  2  0
 13  9  1  0
 14 15  1  0
 15 17  1  0
 16 15  2  0
 17 18  1  0
 19 18  1  1
 20 19  1  0
 21 19  1  0
 21 23  1  0
 22 21  2  0
M  END
$$$$
