ADQ.pdb
     RDKit          3D

 23 22  0  0  1  0  0  0  0  0999 V2000
    7.1786  -13.0483   18.8981 C   0  0  0  0  0  0  0  0  0  0  0  0
    8.5094  -13.2102   19.5996 C   0  0  2  0  0  0  0  0  0  0  0  0
    9.4855  -13.6172   18.6293 N   0  0  0  0  0  0  0  0  0  0  0  0
    8.4055  -14.1814   20.7264 C   0  0  0  0  0  0  0  0  0  0  0  0
    7.5027  -14.0050   21.5765 O   0  0  0  0  0  0  0  0  0  0  0  0
    9.3141  -15.2584   20.8036 N   0  0  0  0  0  0  0  0  0  0  0  0
    9.2084  -16.2689   21.8372 C   0  0  1  0  0  0  0  0  0  0  0  0
   10.1271  -17.4291   21.5746 C   0  0  0  0  0  0  0  0  0  0  0  0
    9.9772  -18.4317   22.6459 C   0  0  0  0  0  0  0  0  0  0  0  0
    8.8605  -18.7931   23.1281 O   0  0  0  0  0  0  0  0  0  0  0  0
    9.5178  -15.7048   23.1778 C   0  0  0  0  0  0  0  0  0  0  0  0
   10.5891  -15.0629   23.2897 O   0  0  0  0  0  0  0  0  0  0  0  0
   11.1254  -19.0388   23.1816 O   0  0  0  0  0  0  0  0  0  0  0  0
    5.3613  -12.4309   26.0411 N   0  0  0  0  0  0  0  0  0  0  0  0
    6.5161  -12.2876   26.8838 C   0  0  0  0  0  0  0  0  0  0  0  0
    6.4542  -11.4035   27.7958 O   0  0  0  0  0  0  0  0  0  0  0  0
    7.7094  -13.1243   26.7088 C   0  0  0  0  0  0  0  0  0  0  0  0
    7.6686  -14.0744   25.5712 C   0  0  0  0  0  0  0  0  0  0  0  0
    8.8621  -14.9427   25.4640 C   0  0  2  0  0  0  0  0  0  0  0  0
    8.6932  -15.8503   24.2945 N   0  0  0  0  0  0  0  0  0  0  0  0
    9.2802  -15.7664   26.5673 C   0  0  0  0  0  0  0  0  0  0  0  0
    9.0897  -17.0055   26.6099 O   0  0  0  0  0  0  0  0  0  0  0  0
    9.9389  -15.2365   27.6875 O   0  0  0  0  0  0  0  0  0  0  0  0
  2  4  1  0
  2  3  1  0
  2  1  1  6
  4  5  2  0
  6  7  1  0
  6  4  1  0
  7 11  1  0
  7  8  1  6
  9  8  1  0
 10  9  2  0
 11 20  1  0
 11 12  2  0
 13  9  1  0
 14 15  1  0
 15 17  1  0
 16 15  2  0
 17 18  1  0
 19 18  1  1
 20 19  1  0
 21 19  1  0
 21 23  1  0
 22 21  2  0
M  END
$$$$
