ADQ.pdb
     RDKit          3D

 23 22  0  0  1  0  0  0  0  0999 V2000
   12.9219  -15.1976   20.4247 C   0  0  0  0  0  0  0  0  0  0  0  0
   11.5787  -15.7147   19.9581 C   0  0  2  0  0  0  0  0  0  0  0  0
   11.1003  -14.8533   18.9145 N   0  0  0  0  0  0  0  0  0  0  0  0
   10.6155  -15.8024   21.0932 C   0  0  0  0  0  0  0  0  0  0  0  0
    9.8086  -14.8586   21.2569 O   0  0  0  0  0  0  0  0  0  0  0  0
   10.6386  -16.9306   21.9406 N   0  0  0  0  0  0  0  0  0  0  0  0
    9.6604  -17.1087   22.9952 C   0  0  1  0  0  0  0  0  0  0  0  0
    9.4633  -18.5607   23.3294 C   0  0  0  0  0  0  0  0  0  0  0  0
   10.7323  -19.1334   23.8163 C   0  0  0  0  0  0  0  0  0  0  0  0
   11.0073  -19.3084   25.0426 O   0  0  0  0  0  0  0  0  0  0  0  0
   10.0586  -16.3812   24.2295 C   0  0  0  0  0  0  0  0  0  0  0  0
   11.1573  -15.7773   24.2027 O   0  0  0  0  0  0  0  0  0  0  0  0
   11.7125  -19.5171   22.8857 O   0  0  0  0  0  0  0  0  0  0  0  0
    5.8761  -12.5747   25.6322 N   0  0  0  0  0  0  0  0  0  0  0  0
    6.8616  -12.2469   26.6249 C   0  0  0  0  0  0  0  0  0  0  0  0
    6.6719  -11.1802   27.2907 O   0  0  0  0  0  0  0  0  0  0  0  0
    8.0290  -13.1030   26.8676 C   0  0  0  0  0  0  0  0  0  0  0  0
    8.1429  -14.2983   25.9978 C   0  0  0  0  0  0  0  0  0  0  0  0
    9.3348  -15.1327   26.2679 C   0  0  2  0  0  0  0  0  0  0  0  0
    9.2874  -16.3371   25.3920 N   0  0  0  0  0  0  0  0  0  0  0  0
    9.6251  -15.6014   27.5970 C   0  0  0  0  0  0  0  0  0  0  0  0
    9.2951  -16.7384   28.0113 O   0  0  0  0  0  0  0  0  0  0  0  0
   10.3062  -14.8112   28.5356 O   0  0  0  0  0  0  0  0  0  0  0  0
  2  4  1  0
  2  3  1  0
  2  1  1  1
  4  5  2  0
  6  7  1  0
  6  4  1  0
  7 11  1  0
  7  8  1  1
  9  8  1  0
 10  9  2  0
 11 20  1  0
 11 12  2  0
 13  9  1  0
 14 15  1  0
 15 17  1  0
 16 15  2  0
 17 18  1  0
 19 18  1  1
 20 19  1  0
 21 19  1  0
 21 23  1  0
 22 21  2  0
M  END
$$$$
