ADQ.pdb
     RDKit          3D

 23 22  0  0  1  0  0  0  0  0999 V2000
    9.0114  -13.5083   19.9947 C   0  0  0  0  0  0  0  0  0  0  0  0
    7.7248  -14.1710   19.5534 C   0  0  2  0  0  0  0  0  0  0  0  0
    6.7690  -13.1446   19.2485 N   0  0  0  0  0  0  0  0  0  0  0  0
    7.2208  -15.1090   20.5975 C   0  0  0  0  0  0  0  0  0  0  0  0
    6.4459  -14.6578   21.4719 O   0  0  0  0  0  0  0  0  0  0  0  0
    7.6247  -16.4609   20.5726 N   0  0  0  0  0  0  0  0  0  0  0  0
    7.0688  -17.4368   21.4888 C   0  0  1  0  0  0  0  0  0  0  0  0
    6.9596  -18.7946   20.8536 C   0  0  0  0  0  0  0  0  0  0  0  0
    8.2650  -19.1828   20.2875 C   0  0  0  0  0  0  0  0  0  0  0  0
    9.2258  -19.6477   20.9737 O   0  0  0  0  0  0  0  0  0  0  0  0
    7.8908  -17.5483   22.7230 C   0  0  0  0  0  0  0  0  0  0  0  0
    9.0884  -17.1856   22.6418 O   0  0  0  0  0  0  0  0  0  0  0  0
    8.4830  -19.0396   18.9069 O   0  0  0  0  0  0  0  0  0  0  0  0
    5.9112  -14.3511   25.2744 N   0  0  0  0  0  0  0  0  0  0  0  0
    7.3360  -14.2123   25.1530 C   0  0  0  0  0  0  0  0  0  0  0  0
    7.7699  -13.0899   24.7419 O   0  0  0  0  0  0  0  0  0  0  0  0
    8.2512  -15.3084   25.4931 C   0  0  0  0  0  0  0  0  0  0  0  0
    7.6086  -16.5895   25.8729 C   0  0  0  0  0  0  0  0  0  0  0  0
    8.1750  -17.7760   25.1938 C   0  0  2  0  0  0  0  0  0  0  0  0
    7.4068  -18.0261   23.9419 N   0  0  0  0  0  0  0  0  0  0  0  0
    8.2771  -19.0401   25.8736 C   0  0  0  0  0  0  0  0  0  0  0  0
    7.3976  -19.9316   25.8012 O   0  0  0  0  0  0  0  0  0  0  0  0
    9.3807  -19.3702   26.6752 O   0  0  0  0  0  0  0  0  0  0  0  0
  2  4  1  0
  2  3  1  0
  2  1  1  1
  4  5  2  0
  6  7  1  0
  6  4  1  0
  7 11  1  0
  7  8  1  6
  9  8  1  0
 10  9  2  0
 11 20  1  0
 11 12  2  0
 13  9  1  0
 14 15  1  0
 15 17  1  0
 16 15  2  0
 17 18  1  0
 19 18  1  1
 20 19  1  0
 21 19  1  0
 21 23  1  0
 22 21  2  0
M  END
$$$$
