ADQ.pdb
     RDKit          3D

 23 22  0  0  1  0  0  0  0  0999 V2000
    7.8649  -22.8498   20.3596 C   0  0  0  0  0  0  0  0  0  0  0  0
    6.5439  -23.2455   20.9823 C   0  0  2  0  0  0  0  0  0  0  0  0
    5.4852  -22.7607   20.1433 N   0  0  0  0  0  0  0  0  0  0  0  0
    6.4325  -22.7262   22.3758 C   0  0  0  0  0  0  0  0  0  0  0  0
    5.9577  -21.5791   22.5420 O   0  0  0  0  0  0  0  0  0  0  0  0
    6.8589  -23.5297   23.4547 N   0  0  0  0  0  0  0  0  0  0  0  0
    6.6565  -23.1231   24.8311 C   0  0  1  0  0  0  0  0  0  0  0  0
    6.5443  -24.3082   25.7486 C   0  0  0  0  0  0  0  0  0  0  0  0
    6.3147  -23.8448   27.1299 C   0  0  0  0  0  0  0  0  0  0  0  0
    5.2111  -23.3783   27.5475 O   0  0  0  0  0  0  0  0  0  0  0  0
    7.7640  -22.2514   25.3051 C   0  0  0  0  0  0  0  0  0  0  0  0
    8.9265  -22.5749   24.9637 O   0  0  0  0  0  0  0  0  0  0  0  0
    7.3659  -23.9144   28.0595 O   0  0  0  0  0  0  0  0  0  0  0  0
    5.9004  -16.2870   25.3691 N   0  0  0  0  0  0  0  0  0  0  0  0
    7.1980  -16.8865   25.5145 C   0  0  0  0  0  0  0  0  0  0  0  0
    8.1879  -16.2272   25.0644 O   0  0  0  0  0  0  0  0  0  0  0  0
    7.3780  -18.1936   26.1577 C   0  0  0  0  0  0  0  0  0  0  0  0
    8.5898  -18.9476   25.7558 C   0  0  0  0  0  0  0  0  0  0  0  0
    8.7448  -20.2524   26.4364 C   0  0  2  0  0  0  0  0  0  0  0  0
    7.5791  -21.1149   26.0940 N   0  0  0  0  0  0  0  0  0  0  0  0
    8.9080  -20.3284   27.8640 C   0  0  0  0  0  0  0  0  0  0  0  0
    8.0544  -20.8421   28.6262 O   0  0  0  0  0  0  0  0  0  0  0  0
   10.0469  -19.8279   28.5133 O   0  0  0  0  0  0  0  0  0  0  0  0
  2  4  1  0
  2  3  1  0
  2  1  1  6
  4  5  2  0
  6  7  1  0
  6  4  1  0
  7 11  1  0
  7  8  1  1
  9  8  1  0
 10  9  2  0
 11 20  1  0
 11 12  2  0
 13  9  1  0
 14 15  1  0
 15 17  1  0
 16 15  2  0
 17 18  1  0
 19 18  1  1
 20 19  1  0
 21 19  1  0
 21 23  1  0
 22 21  2  0
M  END
$$$$
