ADQ.pdb
     RDKit          3D

 23 22  0  0  1  0  0  0  0  0999 V2000
    1.0921  -19.7179   22.7245 C   0  0  0  0  0  0  0  0  0  0  0  0
    1.9075  -19.3240   21.5124 C   0  0  2  0  0  0  0  0  0  0  0  0
    1.6912  -20.3021   20.4845 N   0  0  0  0  0  0  0  0  0  0  0  0
    3.3517  -19.1908   21.8594 C   0  0  0  0  0  0  0  0  0  0  0  0
    3.9720  -20.2209   22.2099 O   0  0  0  0  0  0  0  0  0  0  0  0
    3.9721  -17.9255   21.7846 N   0  0  0  0  0  0  0  0  0  0  0  0
    5.3931  -17.7612   22.0181 C   0  0  1  0  0  0  0  0  0  0  0  0
    5.9528  -16.6038   21.2397 C   0  0  0  0  0  0  0  0  0  0  0  0
    7.4253  -16.6166   21.3235 C   0  0  0  0  0  0  0  0  0  0  0  0
    8.0789  -16.3201   22.3698 O   0  0  0  0  0  0  0  0  0  0  0  0
    5.6828  -17.5544   23.4619 C   0  0  0  0  0  0  0  0  0  0  0  0
    5.0585  -16.6329   24.0395 O   0  0  0  0  0  0  0  0  0  0  0  0
    8.1729  -16.9764   20.1896 O   0  0  0  0  0  0  0  0  0  0  0  0
    9.2719  -21.9082   27.6943 N   0  0  0  0  0  0  0  0  0  0  0  0
    8.0713  -21.1563   27.4549 C   0  0  0  0  0  0  0  0  0  0  0  0
    7.0092  -21.5792   28.0120 O   0  0  0  0  0  0  0  0  0  0  0  0
    8.0674  -19.9529   26.6143 C   0  0  0  0  0  0  0  0  0  0  0  0
    6.7393  -19.3381   26.3762 C   0  0  0  0  0  0  0  0  0  0  0  0
    6.7893  -18.0526   25.6448 C   0  0  2  0  0  0  0  0  0  0  0  0
    6.5952  -18.3181   24.1916 N   0  0  0  0  0  0  0  0  0  0  0  0
    7.9292  -17.1814   25.7554 C   0  0  0  0  0  0  0  0  0  0  0  0
    8.6383  -16.8507   24.7750 O   0  0  0  0  0  0  0  0  0  0  0  0
    8.3337  -16.6326   26.9820 O   0  0  0  0  0  0  0  0  0  0  0  0
  2  4  1  0
  2  3  1  0
  2  1  1  1
  4  5  2  0
  6  7  1  0
  6  4  1  0
  7 11  1  0
  7  8  1  6
  9  8  1  0
 10  9  2  0
 11 20  1  0
 11 12  2  0
 13  9  1  0
 14 15  1  0
 15 17  1  0
 16 15  2  0
 17 18  1  0
 19 18  1  1
 20 19  1  0
 21 19  1  0
 21 23  1  0
 22 21  2  0
M  END
$$$$
