ADQ.pdb
     RDKit          3D

 23 22  0  0  1  0  0  0  0  0999 V2000
    8.3873  -12.3566   19.1167 C   0  0  0  0  0  0  0  0  0  0  0  0
    8.0989  -13.6324   18.3561 C   0  0  2  0  0  0  0  0  0  0  0  0
    6.6858  -13.7060   18.1159 N   0  0  0  0  0  0  0  0  0  0  0  0
    8.6002  -14.8237   19.1000 C   0  0  0  0  0  0  0  0  0  0  0  0
    7.7754  -15.7111   19.4180 O   0  0  0  0  0  0  0  0  0  0  0  0
    9.9711  -14.9181   19.4211 N   0  0  0  0  0  0  0  0  0  0  0  0
   10.5228  -16.0978   20.0572 C   0  0  1  0  0  0  0  0  0  0  0  0
   10.4399  -17.3013   19.1607 C   0  0  0  0  0  0  0  0  0  0  0  0
   11.4198  -17.1717   18.0661 C   0  0  0  0  0  0  0  0  0  0  0  0
   12.3148  -16.2735   18.0178 O   0  0  0  0  0  0  0  0  0  0  0  0
   11.9419  -15.8867   20.4484 C   0  0  0  0  0  0  0  0  0  0  0  0
   12.4948  -14.8401   20.0345 O   0  0  0  0  0  0  0  0  0  0  0  0
   11.3815  -18.0865   17.0004 O   0  0  0  0  0  0  0  0  0  0  0  0
    9.1857  -14.8379   25.2235 N   0  0  0  0  0  0  0  0  0  0  0  0
    9.7815  -16.1436   25.1575 C   0  0  0  0  0  0  0  0  0  0  0  0
    9.0666  -17.1204   25.5470 O   0  0  0  0  0  0  0  0  0  0  0  0
   11.1469  -16.3459   24.6581 C   0  0  0  0  0  0  0  0  0  0  0  0
   11.2849  -16.4528   23.1857 C   0  0  0  0  0  0  0  0  0  0  0  0
   12.6788  -16.6220   22.7186 C   0  0  2  0  0  0  0  0  0  0  0  0
   12.6742  -16.7759   21.2366 N   0  0  0  0  0  0  0  0  0  0  0  0
   13.5119  -17.6734   23.2391 C   0  0  0  0  0  0  0  0  0  0  0  0
   13.3603  -18.8818   22.9387 O   0  0  0  0  0  0  0  0  0  0  0  0
   14.5661  -17.4194   24.1299 O   0  0  0  0  0  0  0  0  0  0  0  0
  2  4  1  0
  2  3  1  0
  2  1  1  1
  4  5  2  0
  6  7  1  0
  6  4  1  0
  7 11  1  0
  7  8  1  6
  9  8  1  0
 10  9  2  0
 11 20  1  0
 11 12  2  0
 13  9  1  0
 14 15  1  0
 15 17  1  0
 16 15  2  0
 17 18  1  0
 19 18  1  1
 20 19  1  0
 21 19  1  0
 21 23  1  0
 22 21  2  0
M  END
$$$$
