ADQ.pdb
     RDKit          3D

 23 22  0  0  1  0  0  0  0  0999 V2000
    8.7314  -13.1621   17.5976 C   0  0  0  0  0  0  0  0  0  0  0  0
    7.7033  -13.6090   18.6137 C   0  0  2  0  0  0  0  0  0  0  0  0
    7.2124  -12.4484   19.3008 N   0  0  0  0  0  0  0  0  0  0  0  0
    8.2817  -14.6105   19.5551 C   0  0  0  0  0  0  0  0  0  0  0  0
    8.7728  -14.1954   20.6300 O   0  0  0  0  0  0  0  0  0  0  0  0
    8.2606  -15.9798   19.2147 N   0  0  0  0  0  0  0  0  0  0  0  0
    8.8772  -16.9825   20.0603 C   0  0  1  0  0  0  0  0  0  0  0  0
    8.5587  -18.3747   19.5923 C   0  0  0  0  0  0  0  0  0  0  0  0
    9.0066  -19.3513   20.6028 C   0  0  0  0  0  0  0  0  0  0  0  0
    9.6633  -19.0440   21.6441 O   0  0  0  0  0  0  0  0  0  0  0  0
   10.3543  -16.8167   20.1054 C   0  0  0  0  0  0  0  0  0  0  0  0
   10.9461  -16.7015   19.0059 O   0  0  0  0  0  0  0  0  0  0  0  0
    8.6993  -20.7108   20.4252 O   0  0  0  0  0  0  0  0  0  0  0  0
   13.9711  -14.6133   18.0525 N   0  0  0  0  0  0  0  0  0  0  0  0
   14.5808  -14.4411   19.3420 C   0  0  0  0  0  0  0  0  0  0  0  0
   15.8514  -14.4717   19.3842 O   0  0  0  0  0  0  0  0  0  0  0  0
   13.7797  -14.2321   20.5542 C   0  0  0  0  0  0  0  0  0  0  0  0
   12.4659  -14.9188   20.5841 C   0  0  0  0  0  0  0  0  0  0  0  0
   12.4827  -16.2287   21.2724 C   0  0  2  0  0  0  0  0  0  0  0  0
   11.0998  -16.7832   21.2849 N   0  0  0  0  0  0  0  0  0  0  0  0
   12.9887  -16.3543   22.6135 C   0  0  0  0  0  0  0  0  0  0  0  0
   14.1749  -16.0932   22.9269 O   0  0  0  0  0  0  0  0  0  0  0  0
   12.1823  -16.7822   23.6792 O   0  0  0  0  0  0  0  0  0  0  0  0
  2  4  1  0
  2  3  1  0
  2  1  1  6
  4  5  2  0
  6  7  1  0
  6  4  1  0
  7 11  1  0
  7  8  1  6
  9  8  1  0
 10  9  2  0
 11 20  1  0
 11 12  2  0
 13  9  1  0
 14 15  1  0
 15 17  1  0
 16 15  2  0
 17 18  1  0
 19 18  1  1
 20 19  1  0
 21 19  1  0
 21 23  1  0
 22 21  2  0
M  END
$$$$
