ADQ.pdb
     RDKit          3D

 23 22  0  0  1  0  0  0  0  0999 V2000
    8.1252  -12.2846   19.9611 C   0  0  0  0  0  0  0  0  0  0  0  0
    8.1223  -13.6533   19.3161 C   0  0  2  0  0  0  0  0  0  0  0  0
    6.8532  -13.8482   18.6748 N   0  0  0  0  0  0  0  0  0  0  0  0
    8.4085  -14.7183   20.3198 C   0  0  0  0  0  0  0  0  0  0  0  0
    7.4447  -15.2071   20.9531 O   0  0  0  0  0  0  0  0  0  0  0  0
    9.7389  -15.1412   20.5265 N   0  0  0  0  0  0  0  0  0  0  0  0
   10.0631  -16.1985   21.4633 C   0  0  1  0  0  0  0  0  0  0  0  0
   11.3723  -16.8556   21.1266 C   0  0  0  0  0  0  0  0  0  0  0  0
   11.6274  -17.9619   22.0680 C   0  0  0  0  0  0  0  0  0  0  0  0
   12.7728  -18.2476   22.5334 O   0  0  0  0  0  0  0  0  0  0  0  0
   10.1280  -15.6840   22.8571 C   0  0  0  0  0  0  0  0  0  0  0  0
   10.9349  -14.7505   23.0802 O   0  0  0  0  0  0  0  0  0  0  0  0
   10.5534  -18.7628   22.4912 O   0  0  0  0  0  0  0  0  0  0  0  0
    6.6365  -11.6720   27.0773 N   0  0  0  0  0  0  0  0  0  0  0  0
    6.6356  -12.9577   26.4363 C   0  0  0  0  0  0  0  0  0  0  0  0
    5.5530  -13.3176   25.8746 O   0  0  0  0  0  0  0  0  0  0  0  0
    7.8271  -13.8150   26.4216 C   0  0  0  0  0  0  0  0  0  0  0  0
    8.0356  -14.6065   25.1852 C   0  0  0  0  0  0  0  0  0  0  0  0
    9.2716  -15.4203   25.1882 C   0  0  2  0  0  0  0  0  0  0  0  0
    9.3523  -16.1772   23.9074 N   0  0  0  0  0  0  0  0  0  0  0  0
    9.5339  -16.3647   26.2417 C   0  0  0  0  0  0  0  0  0  0  0  0
    9.5241  -16.0570   27.4577 O   0  0  0  0  0  0  0  0  0  0  0  0
    9.8222  -17.7132   25.9814 O   0  0  0  0  0  0  0  0  0  0  0  0
  2  4  1  0
  2  3  1  0
  2  1  1  1
  4  5  2  0
  6  7  1  0
  6  4  1  0
  7 11  1  0
  7  8  1  6
  9  8  1  0
 10  9  2  0
 11 20  1  0
 11 12  2  0
 13  9  1  0
 14 15  1  0
 15 17  1  0
 16 15  2  0
 17 18  1  0
 19 18  1  1
 20 19  1  0
 21 19  1  0
 21 23  1  0
 22 21  2  0
M  END
$$$$
