ADQ.pdb
     RDKit          3D

 23 22  0  0  1  0  0  0  0  0999 V2000
    6.8796  -12.8425   19.2703 C   0  0  0  0  0  0  0  0  0  0  0  0
    8.2541  -13.0220   19.8768 C   0  0  2  0  0  0  0  0  0  0  0  0
    9.1611  -13.4100   18.8343 N   0  0  0  0  0  0  0  0  0  0  0  0
    8.2231  -14.0172   20.9870 C   0  0  0  0  0  0  0  0  0  0  0  0
    7.3906  -13.8488   21.9076 O   0  0  0  0  0  0  0  0  0  0  0  0
    9.1198  -15.1067   20.9710 N   0  0  0  0  0  0  0  0  0  0  0  0
    9.0190  -16.1877   21.9312 C   0  0  1  0  0  0  0  0  0  0  0  0
    9.7988  -17.3949   21.4911 C   0  0  0  0  0  0  0  0  0  0  0  0
    9.6116  -18.4870   22.4644 C   0  0  0  0  0  0  0  0  0  0  0  0
    8.6376  -18.5559   23.2748 O   0  0  0  0  0  0  0  0  0  0  0  0
    9.5030  -15.7656   23.2724 C   0  0  0  0  0  0  0  0  0  0  0  0
   10.5996  -15.1588   23.3147 O   0  0  0  0  0  0  0  0  0  0  0  0
   10.5549  -19.5270   22.5171 O   0  0  0  0  0  0  0  0  0  0  0  0
    7.2807  -11.6158   26.5650 N   0  0  0  0  0  0  0  0  0  0  0  0
    6.5236  -12.8196   26.3604 C   0  0  0  0  0  0  0  0  0  0  0  0
    5.2573  -12.7170   26.4162 O   0  0  0  0  0  0  0  0  0  0  0  0
    7.1759  -14.1069   26.0921 C   0  0  0  0  0  0  0  0  0  0  0  0
    8.6414  -14.0529   25.8731 C   0  0  0  0  0  0  0  0  0  0  0  0
    9.2817  -15.3794   25.7299 C   0  0  2  0  0  0  0  0  0  0  0  0
    8.8129  -16.0054   24.4617 N   0  0  0  0  0  0  0  0  0  0  0  0
    9.1506  -16.3797   26.7558 C   0  0  0  0  0  0  0  0  0  0  0  0
    9.4155  -16.1641   27.9628 O   0  0  0  0  0  0  0  0  0  0  0  0
    8.7115  -17.6830   26.4766 O   0  0  0  0  0  0  0  0  0  0  0  0
  2  4  1  0
  2  3  1  0
  2  1  1  6
  4  5  2  0
  6  7  1  0
  6  4  1  0
  7 11  1  0
  7  8  1  6
  9  8  1  0
 10  9  2  0
 11 20  1  0
 11 12  2  0
 13  9  1  0
 14 15  1  0
 15 17  1  0
 16 15  2  0
 17 18  1  0
 19 18  1  1
 20 19  1  0
 21 19  1  0
 21 23  1  0
 22 21  2  0
M  END
$$$$
