ADQ.pdb
     RDKit          3D

 23 22  0  0  1  0  0  0  0  0999 V2000
    8.1756  -12.4617   19.9052 C   0  0  0  0  0  0  0  0  0  0  0  0
    8.5359  -13.2075   18.6390 C   0  0  2  0  0  0  0  0  0  0  0  0
    7.3441  -13.8122   18.1157 N   0  0  0  0  0  0  0  0  0  0  0  0
    9.6045  -14.2150   18.8973 C   0  0  0  0  0  0  0  0  0  0  0  0
    9.2649  -15.4121   19.0405 O   0  0  0  0  0  0  0  0  0  0  0  0
   10.9508  -13.7988   18.9722 N   0  0  0  0  0  0  0  0  0  0  0  0
   12.0311  -14.7490   19.1477 C   0  0  1  0  0  0  0  0  0  0  0  0
   13.3289  -14.2195   18.6053 C   0  0  0  0  0  0  0  0  0  0  0  0
   14.2368  -15.3435   18.3089 C   0  0  0  0  0  0  0  0  0  0  0  0
   14.2331  -16.4440   18.9404 O   0  0  0  0  0  0  0  0  0  0  0  0
   12.2159  -15.0978   20.5814 C   0  0  0  0  0  0  0  0  0  0  0  0
   12.8195  -14.2621   21.2953 O   0  0  0  0  0  0  0  0  0  0  0  0
   15.1716  -15.2129   17.2680 O   0  0  0  0  0  0  0  0  0  0  0  0
    8.4096  -14.3038   23.7823 N   0  0  0  0  0  0  0  0  0  0  0  0
    9.1631  -15.4990   24.0427 C   0  0  0  0  0  0  0  0  0  0  0  0
    9.5234  -15.6991   25.2457 O   0  0  0  0  0  0  0  0  0  0  0  0
    9.4970  -16.4502   22.9757 C   0  0  0  0  0  0  0  0  0  0  0  0
   10.7610  -17.2038   23.1572 C   0  0  0  0  0  0  0  0  0  0  0  0
   11.9572  -16.5190   22.6187 C   0  0  2  0  0  0  0  0  0  0  0  0
   11.7609  -16.2833   21.1606 N   0  0  0  0  0  0  0  0  0  0  0  0
   13.2689  -17.0906   22.7704 C   0  0  0  0  0  0  0  0  0  0  0  0
   13.8632  -17.6998   21.8489 O   0  0  0  0  0  0  0  0  0  0  0  0
   13.9859  -17.0063   23.9738 O   0  0  0  0  0  0  0  0  0  0  0  0
  2  4  1  0
  2  3  1  0
  2  1  1  1
  4  5  2  0
  6  7  1  0
  6  4  1  0
  7 11  1  0
  7  8  1  1
  9  8  1  0
 10  9  2  0
 11 20  1  0
 11 12  2  0
 13  9  1  0
 14 15  1  0
 15 17  1  0
 16 15  2  0
 17 18  1  0
 19 18  1  6
 20 19  1  0
 21 19  1  0
 21 23  1  0
 22 21  2  0
M  END
$$$$
