ADQ.pdb
     RDKit          3D

 23 22  0  0  1  0  0  0  0  0999 V2000
    8.0916  -12.1351   19.8739 C   0  0  0  0  0  0  0  0  0  0  0  0
    8.6699  -13.2585   19.0416 C   0  0  2  0  0  0  0  0  0  0  0  0
    8.0545  -13.2240   17.7454 N   0  0  0  0  0  0  0  0  0  0  0  0
    8.4785  -14.5757   19.7140 C   0  0  0  0  0  0  0  0  0  0  0  0
    7.9566  -15.5045   19.0553 O   0  0  0  0  0  0  0  0  0  0  0  0
    8.8849  -14.7384   21.0556 N   0  0  0  0  0  0  0  0  0  0  0  0
    9.3086  -16.0254   21.5702 C   0  0  1  0  0  0  0  0  0  0  0  0
   10.4104  -16.6197   20.7385 C   0  0  0  0  0  0  0  0  0  0  0  0
   10.7317  -17.9709   21.2351 C   0  0  0  0  0  0  0  0  0  0  0  0
    9.8883  -18.9150   21.3189 O   0  0  0  0  0  0  0  0  0  0  0  0
    9.7743  -15.9172   22.9783 C   0  0  0  0  0  0  0  0  0  0  0  0
   10.7520  -15.1629   23.1961 O   0  0  0  0  0  0  0  0  0  0  0  0
   12.0449  -18.2555   21.6459 O   0  0  0  0  0  0  0  0  0  0  0  0
    5.3618  -14.0993   26.1552 N   0  0  0  0  0  0  0  0  0  0  0  0
    6.4890  -13.3270   25.7111 C   0  0  0  0  0  0  0  0  0  0  0  0
    6.2997  -12.0808   25.5429 O   0  0  0  0  0  0  0  0  0  0  0  0
    7.7999  -13.9414   25.4690 C   0  0  0  0  0  0  0  0  0  0  0  0
    7.8742  -15.4064   25.6849 C   0  0  0  0  0  0  0  0  0  0  0  0
    9.2046  -15.9927   25.4088 C   0  0  2  0  0  0  0  0  0  0  0  0
    9.1902  -16.5983   24.0475 N   0  0  0  0  0  0  0  0  0  0  0  0
    9.7786  -16.9747   26.2901 C   0  0  0  0  0  0  0  0  0  0  0  0
   10.1293  -16.7193   27.4671 O   0  0  0  0  0  0  0  0  0  0  0  0
    9.9892  -18.3037   25.8918 O   0  0  0  0  0  0  0  0  0  0  0  0
  2  4  1  0
  2  3  1  0
  2  1  1  1
  4  5  2  0
  6  7  1  0
  6  4  1  0
  7 11  1  0
  7  8  1  6
  9  8  1  0
 10  9  2  0
 11 20  1  0
 11 12  2  0
 13  9  1  0
 14 15  1  0
 15 17  1  0
 16 15  2  0
 17 18  1  0
 19 18  1  1
 20 19  1  0
 21 19  1  0
 21 23  1  0
 22 21  2  0
M  END
$$$$
