STA.pdb
     RDKit          3D

 19 18  0  0  1  0  0  0  0  0999 V2000
   14.8080  -10.6843  -15.6520 O   0  0  0  0  0  0  0  0  0  0  0  0
   16.1218  -10.2619  -15.5418 C   0  0  0  0  0  0  0  0  0  0  0  0
   16.8679  -10.5513  -16.8226 C   0  0  2  0  0  0  0  0  0  0  0  0
   16.9932  -11.9918  -16.9339 N   0  0  0  0  0  0  0  0  0  0  0  0
   18.2383   -9.9856  -16.8287 C   0  0  0  0  0  0  0  0  0  0  0  0
   19.2261  -10.7008  -16.5147 O   0  0  0  0  0  0  0  0  0  0  0  0
   19.7344   -7.7724  -19.6911 C   0  0  0  0  0  0  0  0  0  0  0  0
   19.9310   -7.0769  -18.3648 C   0  0  1  0  0  0  0  0  0  0  0  0
   18.8497   -6.1776  -18.2637 O   0  0  0  0  0  0  0  0  0  0  0  0
   19.8657   -8.0645  -17.1886 C   0  0  2  0  0  0  0  0  0  0  0  0
   18.5121   -8.6376  -17.1801 N   0  0  0  0  0  0  0  0  0  0  0  0
   20.1213   -7.3812  -15.9045 C   0  0  0  0  0  0  0  0  0  0  0  0
   19.2286   -6.6056  -15.4257 O   0  0  0  0  0  0  0  0  0  0  0  0
   22.4655   -7.7915  -13.0676 C   0  0  0  0  0  0  0  0  0  0  0  0
   21.4187   -6.9611  -13.7910 C   0  0  2  0  0  0  0  0  0  0  0  0
   21.2899   -7.5080  -15.1301 N   0  0  0  0  0  0  0  0  0  0  0  0
   21.8940   -5.5480  -13.8496 C   0  0  0  0  0  0  0  0  0  0  0  0
   21.9477   -4.8731  -12.7985 O   0  0  0  0  0  0  0  0  0  0  0  0
   22.2812   -4.9494  -15.0304 O   0  0  0  0  0  0  0  0  0  0  0  0
  1  2  1  0
  2  3  1  0
  3  4  1  1
  5  3  1  0
  6  5  2  0
  8  7  1  6
  8  9  1  0
  8 10  1  0
 10 11  1  1
 11  5  1  0
 12 10  1  0
 12 16  1  0
 13 12  2  0
 15 16  1  0
 15 14  1  1
 15 17  1  0
 17 18  2  0
 17 19  1  0
M  END
$$$$
