STA.pdb
     RDKit          3D

 19 18  0  0  1  0  0  0  0  0999 V2000
   21.2969  -13.0620  -17.4830 O   0  0  0  0  0  0  0  0  0  0  0  0
   20.8145  -12.7570  -16.2217 C   0  0  0  0  0  0  0  0  0  0  0  0
   19.5326  -11.9664  -16.3347 C   0  0  2  0  0  0  0  0  0  0  0  0
   18.7431  -12.5716  -17.3901 N   0  0  0  0  0  0  0  0  0  0  0  0
   19.7628  -10.5507  -16.7099 C   0  0  0  0  0  0  0  0  0  0  0  0
   19.9512  -10.2311  -17.9132 O   0  0  0  0  0  0  0  0  0  0  0  0
   17.4296   -8.0560  -16.8811 C   0  0  0  0  0  0  0  0  0  0  0  0
   18.4328   -7.4952  -15.9011 C   0  0  1  0  0  0  0  0  0  0  0  0
   17.9711   -7.9077  -14.6342 O   0  0  0  0  0  0  0  0  0  0  0  0
   19.8378   -8.0756  -16.1295 C   0  0  2  0  0  0  0  0  0  0  0  0
   19.7839   -9.4970  -15.7587 N   0  0  0  0  0  0  0  0  0  0  0  0
   20.8416   -7.3848  -15.2950 C   0  0  0  0  0  0  0  0  0  0  0  0
   21.0210   -7.7712  -14.0925 O   0  0  0  0  0  0  0  0  0  0  0  0
   23.4876   -4.7817  -15.7552 C   0  0  0  0  0  0  0  0  0  0  0  0
   22.6796   -5.7200  -14.8745 C   0  0  2  0  0  0  0  0  0  0  0  0
   21.6485   -6.3088  -15.7106 N   0  0  0  0  0  0  0  0  0  0  0  0
   22.0645   -4.9225  -13.7737 C   0  0  0  0  0  0  0  0  0  0  0  0
   20.9159   -4.4517  -13.9230 O   0  0  0  0  0  0  0  0  0  0  0  0
   22.7196   -4.6809  -12.5841 O   0  0  0  0  0  0  0  0  0  0  0  0
  1  2  1  0
  2  3  1  0
  3  4  1  6
  5  3  1  0
  6  5  2  0
  8  7  1  6
  8  9  1  0
  8 10  1  0
 10 11  1  1
 11  5  1  0
 12 10  1  0
 12 16  1  0
 13 12  2  0
 15 16  1  0
 15 14  1  6
 15 17  1  0
 17 18  2  0
 17 19  1  0
M  END
$$$$
