STA.pdb
     RDKit          3D

 19 18  0  0  1  0  0  0  0  0999 V2000
   21.5230  -11.4967  -19.3231 O   0  0  0  0  0  0  0  0  0  0  0  0
   20.8637  -10.4395  -18.7196 C   0  0  0  0  0  0  0  0  0  0  0  0
   20.6000  -10.7553  -17.2664 C   0  0  2  0  0  0  0  0  0  0  0  0
   19.6372  -11.8392  -17.2275 N   0  0  0  0  0  0  0  0  0  0  0  0
   20.0105   -9.6124  -16.5287 C   0  0  0  0  0  0  0  0  0  0  0  0
   18.8237   -9.2536  -16.7489 O   0  0  0  0  0  0  0  0  0  0  0  0
   19.0848   -9.4769  -13.2007 C   0  0  0  0  0  0  0  0  0  0  0  0
   20.0265   -8.3012  -13.3114 C   0  0  1  0  0  0  0  0  0  0  0  0
   21.2822   -8.8041  -12.9128 O   0  0  0  0  0  0  0  0  0  0  0  0
   20.1334   -7.7912  -14.7576 C   0  0  2  0  0  0  0  0  0  0  0  0
   20.7307   -8.8726  -15.5542 N   0  0  0  0  0  0  0  0  0  0  0  0
   20.9878   -6.5892  -14.8368 C   0  0  0  0  0  0  0  0  0  0  0  0
   22.2556   -6.7248  -14.7929 O   0  0  0  0  0  0  0  0  0  0  0  0
   20.5509   -2.9157  -15.4041 C   0  0  0  0  0  0  0  0  0  0  0  0
   21.4135   -4.1211  -15.0696 C   0  0  2  0  0  0  0  0  0  0  0  0
   20.5258   -5.2655  -14.9632 N   0  0  0  0  0  0  0  0  0  0  0  0
   22.0946   -3.8679  -13.7665 C   0  0  0  0  0  0  0  0  0  0  0  0
   23.0745   -3.0926  -13.7251 O   0  0  0  0  0  0  0  0  0  0  0  0
   21.6818   -4.4619  -12.5919 O   0  0  0  0  0  0  0  0  0  0  0  0
  1  2  1  0
  2  3  1  0
  3  4  1  6
  5  3  1  0
  6  5  2  0
  8  7  1  6
  8  9  1  0
  8 10  1  0
 10 11  1  6
 11  5  1  0
 12 10  1  0
 12 16  1  0
 13 12  2  0
 15 16  1  0
 15 14  1  1
 15 17  1  0
 17 18  2  0
 17 19  1  0
M  END
$$$$
