STA.pdb
     RDKit          3D

 19 18  0  0  1  0  0  0  0  0999 V2000
   26.9142  -12.3673  -15.8861 O   0  0  0  0  0  0  0  0  0  0  0  0
   26.0913  -11.2921  -16.1751 C   0  0  0  0  0  0  0  0  0  0  0  0
   24.7939  -11.7794  -16.7753 C   0  0  2  0  0  0  0  0  0  0  0  0
   25.0912  -12.2696  -18.1075 N   0  0  0  0  0  0  0  0  0  0  0  0
   23.7855  -10.7016  -16.9147 C   0  0  0  0  0  0  0  0  0  0  0  0
   23.5816  -10.1579  -18.0321 O   0  0  0  0  0  0  0  0  0  0  0  0
   19.5758   -8.7178  -15.3673 C   0  0  0  0  0  0  0  0  0  0  0  0
   20.7101   -9.7110  -15.2766 C   0  0  1  0  0  0  0  0  0  0  0  0
   20.2561  -10.8447  -15.9815 O   0  0  0  0  0  0  0  0  0  0  0  0
   21.9847   -9.1835  -15.9549 C   0  0  2  0  0  0  0  0  0  0  0  0
   23.0088  -10.2298  -15.8239 N   0  0  0  0  0  0  0  0  0  0  0  0
   22.4589   -7.9439  -15.3071 C   0  0  0  0  0  0  0  0  0  0  0  0
   22.8006   -7.9773  -14.0784 O   0  0  0  0  0  0  0  0  0  0  0  0
   23.1375   -4.3904  -16.2806 C   0  0  0  0  0  0  0  0  0  0  0  0
   23.0471   -5.4991  -15.2455 C   0  0  2  0  0  0  0  0  0  0  0  0
   22.5776   -6.6888  -15.9333 N   0  0  0  0  0  0  0  0  0  0  0  0
   22.0715   -5.0864  -14.1947 C   0  0  0  0  0  0  0  0  0  0  0  0
   20.8513   -5.2925  -14.3734 O   0  0  0  0  0  0  0  0  0  0  0  0
   22.4661   -4.4795  -13.0206 O   0  0  0  0  0  0  0  0  0  0  0  0
  1  2  1  0
  2  3  1  0
  3  4  1  6
  5  3  1  0
  6  5  2  0
  8  7  1  6
  8  9  1  0
  8 10  1  0
 10 11  1  1
 11  5  1  0
 12 10  1  0
 12 16  1  0
 13 12  2  0
 15 16  1  0
 15 14  1  6
 15 17  1  0
 17 18  2  0
 17 19  1  0
M  END
$$$$
