STA.pdb
     RDKit          3D

 19 18  0  0  1  0  0  0  0  0999 V2000
   16.2295  -11.5762  -13.8238 O   0  0  0  0  0  0  0  0  0  0  0  0
   17.3290  -10.8218  -14.1961 C   0  0  0  0  0  0  0  0  0  0  0  0
   17.0326  -10.0685  -15.4711 C   0  0  2  0  0  0  0  0  0  0  0  0
   16.8833  -11.0500  -16.5283 N   0  0  0  0  0  0  0  0  0  0  0  0
   18.1314   -9.1552  -15.8665 C   0  0  0  0  0  0  0  0  0  0  0  0
   19.1743   -9.6072  -16.4087 O   0  0  0  0  0  0  0  0  0  0  0  0
   18.1756   -6.5873  -18.4096 C   0  0  0  0  0  0  0  0  0  0  0  0
   18.5195   -5.8744  -17.1232 C   0  0  1  0  0  0  0  0  0  0  0  0
   17.2853   -5.4062  -16.6274 O   0  0  0  0  0  0  0  0  0  0  0  0
   19.1380   -6.8301  -16.0901 C   0  0  2  0  0  0  0  0  0  0  0  0
   18.0751   -7.7512  -15.6628 N   0  0  0  0  0  0  0  0  0  0  0  0
   19.6506   -6.0899  -14.9195 C   0  0  0  0  0  0  0  0  0  0  0  0
   18.8226   -5.5172  -14.1360 O   0  0  0  0  0  0  0  0  0  0  0  0
   22.7826   -5.7812  -12.9779 C   0  0  0  0  0  0  0  0  0  0  0  0
   21.4582   -5.1841  -13.4231 C   0  0  2  0  0  0  0  0  0  0  0  0
   21.0073   -5.9522  -14.5702 N   0  0  0  0  0  0  0  0  0  0  0  0
   21.6868   -3.7606  -13.8074 C   0  0  0  0  0  0  0  0  0  0  0  0
   21.7945   -3.4596  -15.0161 O   0  0  0  0  0  0  0  0  0  0  0  0
   21.7852   -2.7517  -12.8719 O   0  0  0  0  0  0  0  0  0  0  0  0
  1  2  1  0
  2  3  1  0
  3  4  1  6
  5  3  1  0
  6  5  2  0
  8  7  1  6
  8  9  1  0
  8 10  1  0
 10 11  1  1
 11  5  1  0
 12 10  1  0
 12 16  1  0
 13 12  2  0
 15 16  1  0
 15 14  1  6
 15 17  1  0
 17 18  2  0
 17 19  1  0
M  END
$$$$
