STA.pdb
     RDKit          3D

 19 18  0  0  1  0  0  0  0  0999 V2000
   18.8416   -8.7415  -20.8920 O   0  0  0  0  0  0  0  0  0  0  0  0
   18.8651   -8.3771  -19.5566 C   0  0  0  0  0  0  0  0  0  0  0  0
   19.0170   -9.6031  -18.6878 C   0  0  2  0  0  0  0  0  0  0  0  0
   17.7424  -10.2950  -18.6898 N   0  0  0  0  0  0  0  0  0  0  0  0
   19.3390   -9.2718  -17.2791 C   0  0  0  0  0  0  0  0  0  0  0  0
   18.4367   -9.2708  -16.4006 O   0  0  0  0  0  0  0  0  0  0  0  0
   22.6927   -9.0893  -13.6732 C   0  0  0  0  0  0  0  0  0  0  0  0
   22.1793   -9.4611  -15.0442 C   0  0  1  0  0  0  0  0  0  0  0  0
   21.7514  -10.7990  -14.9201 O   0  0  0  0  0  0  0  0  0  0  0  0
   20.9795   -8.5935  -15.4577 C   0  0  2  0  0  0  0  0  0  0  0  0
   20.6511   -8.9441  -16.8469 N   0  0  0  0  0  0  0  0  0  0  0  0
   21.3080   -7.1560  -15.3751 C   0  0  0  0  0  0  0  0  0  0  0  0
   22.1768   -6.6710  -16.1735 O   0  0  0  0  0  0  0  0  0  0  0  0
   19.9366   -4.0625  -13.8867 C   0  0  0  0  0  0  0  0  0  0  0  0
   21.1340   -4.8431  -14.4020 C   0  0  2  0  0  0  0  0  0  0  0  0
   20.7358   -6.2378  -14.4746 N   0  0  0  0  0  0  0  0  0  0  0  0
   22.2598   -4.6729  -13.4376 C   0  0  0  0  0  0  0  0  0  0  0  0
   22.3602   -5.4530  -12.4657 O   0  0  0  0  0  0  0  0  0  0  0  0
   23.2050   -3.6781  -13.5768 O   0  0  0  0  0  0  0  0  0  0  0  0
  1  2  1  0
  2  3  1  0
  3  4  1  1
  5  3  1  0
  6  5  2  0
  8  7  1  1
  8  9  1  0
  8 10  1  0
 10 11  1  6
 11  5  1  0
 12 10  1  0
 12 16  1  0
 13 12  2  0
 15 16  1  0
 15 14  1  1
 15 17  1  0
 17 18  2  0
 17 19  1  0
M  END
$$$$
