STA.pdb
     RDKit          3D

 19 18  0  0  1  0  0  0  0  0999 V2000
   15.6618  -11.8176  -14.1062 O   0  0  0  0  0  0  0  0  0  0  0  0
   16.7917  -11.0484  -14.3256 C   0  0  0  0  0  0  0  0  0  0  0  0
   17.1157  -11.0127  -15.8003 C   0  0  2  0  0  0  0  0  0  0  0  0
   17.5151  -12.3519  -16.1877 N   0  0  0  0  0  0  0  0  0  0  0  0
   18.2436  -10.1045  -16.1182 C   0  0  0  0  0  0  0  0  0  0  0  0
   19.4038  -10.5628  -16.2904 O   0  0  0  0  0  0  0  0  0  0  0  0
   18.2159   -7.5082  -18.9342 C   0  0  0  0  0  0  0  0  0  0  0  0
   18.6195   -6.8092  -17.6576 C   0  0  1  0  0  0  0  0  0  0  0  0
   17.4244   -6.2554  -17.1544 O   0  0  0  0  0  0  0  0  0  0  0  0
   19.1832   -7.7954  -16.6219 C   0  0  2  0  0  0  0  0  0  0  0  0
   18.0870   -8.6991  -16.2445 N   0  0  0  0  0  0  0  0  0  0  0  0
   19.6741   -7.0862  -15.4231 C   0  0  0  0  0  0  0  0  0  0  0  0
   18.8292   -6.5857  -14.6086 O   0  0  0  0  0  0  0  0  0  0  0  0
   22.7165   -6.9473  -13.3870 C   0  0  0  0  0  0  0  0  0  0  0  0
   21.4532   -6.2454  -13.8563 C   0  0  2  0  0  0  0  0  0  0  0  0
   21.0266   -6.9049  -15.0779 N   0  0  0  0  0  0  0  0  0  0  0  0
   21.7793   -4.8143  -14.1242 C   0  0  0  0  0  0  0  0  0  0  0  0
   21.9251   -4.4272  -15.3040 O   0  0  0  0  0  0  0  0  0  0  0  0
   21.9280   -3.8905  -13.1107 O   0  0  0  0  0  0  0  0  0  0  0  0
  1  2  1  0
  2  3  1  0
  3  4  1  1
  5  3  1  0
  6  5  2  0
  8  7  1  6
  8  9  1  0
  8 10  1  0
 10 11  1  1
 11  5  1  0
 12 10  1  0
 12 16  1  0
 13 12  2  0
 15 16  1  0
 15 14  1  6
 15 17  1  0
 17 18  2  0
 17 19  1  0
M  END
$$$$
