STA.pdb
     RDKit          3D

 19 18  0  0  1  0  0  0  0  0999 V2000
   14.7097   -9.8527  -16.2337 O   0  0  0  0  0  0  0  0  0  0  0  0
   15.8766   -9.6549  -15.5156 C   0  0  0  0  0  0  0  0  0  0  0  0
   16.9797  -10.5247  -16.0703 C   0  0  2  0  0  0  0  0  0  0  0  0
   16.6977  -11.8893  -15.6683 N   0  0  0  0  0  0  0  0  0  0  0  0
   18.3149  -10.1711  -15.5317 C   0  0  0  0  0  0  0  0  0  0  0  0
   18.7867  -10.7857  -14.5389 O   0  0  0  0  0  0  0  0  0  0  0  0
   21.5977  -10.4398  -17.1684 C   0  0  0  0  0  0  0  0  0  0  0  0
   21.4340   -8.9887  -16.7825 C   0  0  1  0  0  0  0  0  0  0  0  0
   20.8712   -8.3729  -17.9192 O   0  0  0  0  0  0  0  0  0  0  0  0
   20.4686   -8.8197  -15.5982 C   0  0  2  0  0  0  0  0  0  0  0  0
   19.1215   -9.1443  -16.0891 N   0  0  0  0  0  0  0  0  0  0  0  0
   20.4883   -7.4337  -15.0885 C   0  0  0  0  0  0  0  0  0  0  0  0
   19.7935   -6.5439  -15.6828 O   0  0  0  0  0  0  0  0  0  0  0  0
   21.7691   -5.5819  -12.1160 C   0  0  0  0  0  0  0  0  0  0  0  0
   21.2319   -5.5987  -13.5372 C   0  0  2  0  0  0  0  0  0  0  0  0
   21.2198   -6.9839  -13.9732 N   0  0  0  0  0  0  0  0  0  0  0  0
   22.1448   -4.7905  -14.3972 C   0  0  0  0  0  0  0  0  0  0  0  0
   23.0308   -5.3667  -15.0652 O   0  0  0  0  0  0  0  0  0  0  0  0
   22.0495   -3.4173  -14.4861 O   0  0  0  0  0  0  0  0  0  0  0  0
  1  2  1  0
  2  3  1  0
  3  4  1  1
  5  3  1  0
  6  5  2  0
  8  7  1  6
  8  9  1  0
  8 10  1  0
 10 11  1  6
 11  5  1  0
 12 10  1  0
 12 16  1  0
 13 12  2  0
 15 16  1  0
 15 14  1  1
 15 17  1  0
 17 18  2  0
 17 19  1  0
M  END
$$$$
