STA.pdb
     RDKit          3D

 19 18  0  0  1  0  0  0  0  0999 V2000
   13.0249  -11.8061  -14.1564 O   0  0  0  0  0  0  0  0  0  0  0  0
   13.6819  -11.5156  -12.9730 C   0  0  0  0  0  0  0  0  0  0  0  0
   15.1415  -11.2391  -13.2455 C   0  0  2  0  0  0  0  0  0  0  0  0
   15.7871  -12.5165  -13.4795 N   0  0  0  0  0  0  0  0  0  0  0  0
   15.8282  -10.5992  -12.0979 C   0  0  0  0  0  0  0  0  0  0  0  0
   16.2527  -11.2954  -11.1382 O   0  0  0  0  0  0  0  0  0  0  0  0
   18.9733   -8.7197  -11.8810 C   0  0  0  0  0  0  0  0  0  0  0  0
   17.8995   -7.7813  -11.3832 C   0  0  1  0  0  0  0  0  0  0  0  0
   17.5178   -7.0341  -12.5165 O   0  0  0  0  0  0  0  0  0  0  0  0
   16.6738   -8.5459  -10.8579 C   0  0  2  0  0  0  0  0  0  0  0  0
   16.0431   -9.1983  -12.0143 N   0  0  0  0  0  0  0  0  0  0  0  0
   15.7075   -7.6292  -10.2198 C   0  0  0  0  0  0  0  0  0  0  0  0
   14.8200   -7.0631  -10.9405 O   0  0  0  0  0  0  0  0  0  0  0  0
   14.8695   -6.3980   -6.7880 C   0  0  0  0  0  0  0  0  0  0  0  0
   14.8155   -6.2691   -8.3011 C   0  0  2  0  0  0  0  0  0  0  0  0
   15.6662   -7.3108   -8.8493 N   0  0  0  0  0  0  0  0  0  0  0  0
   15.3331   -4.9219   -8.6795 C   0  0  0  0  0  0  0  0  0  0  0  0
   16.5377   -4.7900   -8.9873 O   0  0  0  0  0  0  0  0  0  0  0  0
   14.5268   -3.8030   -8.7037 O   0  0  0  0  0  0  0  0  0  0  0  0
  1  2  1  0
  2  3  1  0
  3  4  1  1
  5  3  1  0
  6  5  2  0
  8  7  1  6
  8  9  1  0
  8 10  1  0
 10 11  1  6
 11  5  1  0
 12 10  1  0
 12 16  1  0
 13 12  2  0
 15 16  1  0
 15 14  1  1
 15 17  1  0
 17 18  2  0
 17 19  1  0
M  END
$$$$
