STA.pdb
     RDKit          3D

 19 18  0  0  1  0  0  0  0  0999 V2000
   18.2496  -13.5712  -17.9280 O   0  0  0  0  0  0  0  0  0  0  0  0
   18.8343  -12.9187  -16.8560 C   0  0  0  0  0  0  0  0  0  0  0  0
   19.1440  -11.4878  -17.2270 C   0  0  2  0  0  0  0  0  0  0  0  0
   20.1562  -11.5198  -18.2651 N   0  0  0  0  0  0  0  0  0  0  0  0
   19.6963  -10.7079  -16.0935 C   0  0  0  0  0  0  0  0  0  0  0  0
   19.0725  -10.6381  -15.0019 O   0  0  0  0  0  0  0  0  0  0  0  0
   22.8180  -11.2606  -14.2666 C   0  0  0  0  0  0  0  0  0  0  0  0
   22.8960   -9.8383  -14.7689 C   0  0  1  0  0  0  0  0  0  0  0  0
   23.6026   -9.9224  -15.9863 O   0  0  0  0  0  0  0  0  0  0  0  0
   21.5010   -9.2545  -15.0450 C   0  0  2  0  0  0  0  0  0  0  0  0
   20.9308  -10.0108  -16.1692 N   0  0  0  0  0  0  0  0  0  0  0  0
   21.5835   -7.8240  -15.4029 C   0  0  0  0  0  0  0  0  0  0  0  0
   22.0910   -7.4934  -16.5257 O   0  0  0  0  0  0  0  0  0  0  0  0
   19.9705   -4.6727  -14.7196 C   0  0  0  0  0  0  0  0  0  0  0  0
   21.3002   -5.3611  -14.9778 C   0  0  2  0  0  0  0  0  0  0  0  0
   21.1400   -6.7548  -14.6020 N   0  0  0  0  0  0  0  0  0  0  0  0
   22.3418   -4.7103  -14.1305 C   0  0  0  0  0  0  0  0  0  0  0  0
   22.6430   -5.2175  -13.0282 O   0  0  0  0  0  0  0  0  0  0  0  0
   22.9932   -3.5582  -14.5190 O   0  0  0  0  0  0  0  0  0  0  0  0
  1  2  1  0
  2  3  1  0
  3  4  1  6
  5  3  1  0
  6  5  2  0
  8  7  1  6
  8  9  1  0
  8 10  1  0
 10 11  1  6
 11  5  1  0
 12 10  1  0
 12 16  1  0
 13 12  2  0
 15 16  1  0
 15 14  1  1
 15 17  1  0
 17 18  2  0
 17 19  1  0
M  END
$$$$
