STA.pdb
     RDKit          3D

 19 18  0  0  1  0  0  0  0  0999 V2000
   14.0620   -5.9642   -8.0942 O   0  0  0  0  0  0  0  0  0  0  0  0
   15.2758   -6.5785   -8.3511 C   0  0  0  0  0  0  0  0  0  0  0  0
   15.0764   -7.7499   -9.2833 C   0  0  2  0  0  0  0  0  0  0  0  0
   14.5550   -8.8480   -8.4923 N   0  0  0  0  0  0  0  0  0  0  0  0
   16.3415   -8.2118   -9.9031 C   0  0  0  0  0  0  0  0  0  0  0  0
   17.1351   -8.9497   -9.2616 O   0  0  0  0  0  0  0  0  0  0  0  0
   16.9510  -10.4814  -12.6502 C   0  0  0  0  0  0  0  0  0  0  0  0
   17.5781   -9.1722  -13.0673 C   0  0  1  0  0  0  0  0  0  0  0  0
   16.5693   -8.5008  -13.7883 O   0  0  0  0  0  0  0  0  0  0  0  0
   17.9718   -8.3166  -11.8524 C   0  0  2  0  0  0  0  0  0  0  0  0
   16.7244   -7.8587  -11.2238 N   0  0  0  0  0  0  0  0  0  0  0  0
   18.7766   -7.1480  -12.2622 C   0  0  0  0  0  0  0  0  0  0  0  0
   18.1921   -6.1495  -12.7998 O   0  0  0  0  0  0  0  0  0  0  0  0
   22.2990   -5.9477  -11.9355 C   0  0  0  0  0  0  0  0  0  0  0  0
   20.9172   -5.8615  -12.5615 C   0  0  2  0  0  0  0  0  0  0  0  0
   20.1704   -7.0223  -12.1101 N   0  0  0  0  0  0  0  0  0  0  0  0
   21.0683   -5.8851  -14.0458 C   0  0  0  0  0  0  0  0  0  0  0  0
   20.9419   -6.9668  -14.6597 O   0  0  0  0  0  0  0  0  0  0  0  0
   21.3451   -4.7482  -14.7762 O   0  0  0  0  0  0  0  0  0  0  0  0
  1  2  1  0
  2  3  1  0
  3  4  1  1
  5  3  1  0
  6  5  2  0
  8  7  1  1
  8  9  1  0
  8 10  1  0
 10 11  1  6
 11  5  1  0
 12 10  1  0
 12 16  1  0
 13 12  2  0
 15 16  1  0
 15 14  1  1
 15 17  1  0
 17 18  2  0
 17 19  1  0
M  END
$$$$
