STA.pdb
     RDKit          3D

 19 18  0  0  1  0  0  0  0  0999 V2000
   25.2722  -13.0397  -15.8931 O   0  0  0  0  0  0  0  0  0  0  0  0
   24.8223  -11.7718  -16.2197 C   0  0  0  0  0  0  0  0  0  0  0  0
   23.3958  -11.8392  -16.7112 C   0  0  2  0  0  0  0  0  0  0  0  0
   23.4056  -12.5611  -17.9691 N   0  0  0  0  0  0  0  0  0  0  0  0
   22.8155  -10.5004  -16.9734 C   0  0  0  0  0  0  0  0  0  0  0  0
   22.9303   -9.9650  -18.1074 O   0  0  0  0  0  0  0  0  0  0  0  0
   19.3301   -9.5095  -16.9999 C   0  0  0  0  0  0  0  0  0  0  0  0
   19.9868   -8.6062  -15.9830 C   0  0  1  0  0  0  0  0  0  0  0  0
   19.8056   -9.2603  -14.7470 O   0  0  0  0  0  0  0  0  0  0  0  0
   21.4935   -8.4528  -16.2462 C   0  0  2  0  0  0  0  0  0  0  0  0
   22.1130   -9.7602  -15.9862 N   0  0  0  0  0  0  0  0  0  0  0  0
   22.0894   -7.4374  -15.3545 C   0  0  0  0  0  0  0  0  0  0  0  0
   22.4421   -7.7764  -14.1763 O   0  0  0  0  0  0  0  0  0  0  0  0
   23.1300   -3.8453  -15.5454 C   0  0  0  0  0  0  0  0  0  0  0  0
   22.8956   -5.1286  -14.7662 C   0  0  2  0  0  0  0  0  0  0  0  0
   22.3166   -6.0891  -15.6889 N   0  0  0  0  0  0  0  0  0  0  0  0
   21.9455   -4.8387  -13.6529 C   0  0  0  0  0  0  0  0  0  0  0  0
   20.7155   -4.9430  -13.8512 O   0  0  0  0  0  0  0  0  0  0  0  0
   22.3746   -4.4558  -12.3991 O   0  0  0  0  0  0  0  0  0  0  0  0
  1  2  1  0
  2  3  1  0
  3  4  1  6
  5  3  1  0
  6  5  2  0
  8  7  1  6
  8  9  1  0
  8 10  1  0
 10 11  1  1
 11  5  1  0
 12 10  1  0
 12 16  1  0
 13 12  2  0
 15 16  1  0
 15 14  1  6
 15 17  1  0
 17 18  2  0
 17 19  1  0
M  END
$$$$
