STA.pdb
     RDKit          3D

 19 18  0  0  1  0  0  0  0  0999 V2000
   15.4568  -10.7469  -15.6221 O   0  0  0  0  0  0  0  0  0  0  0  0
   16.6807  -10.1159  -15.4790 C   0  0  0  0  0  0  0  0  0  0  0  0
   17.7711  -10.9527  -16.1050 C   0  0  2  0  0  0  0  0  0  0  0  0
   17.7484  -12.2489  -15.4547 N   0  0  0  0  0  0  0  0  0  0  0  0
   19.1228  -10.3788  -15.9019 C   0  0  0  0  0  0  0  0  0  0  0  0
   19.9690  -10.9749  -15.1847 O   0  0  0  0  0  0  0  0  0  0  0  0
   22.9015   -7.8183  -17.5650 C   0  0  0  0  0  0  0  0  0  0  0  0
   21.5269   -8.4372  -17.6589 C   0  0  1  0  0  0  0  0  0  0  0  0
   21.7465   -9.7302  -18.1768 O   0  0  0  0  0  0  0  0  0  0  0  0
   20.8633   -8.5627  -16.2780 C   0  0  2  0  0  0  0  0  0  0  0  0
   19.5340   -9.1534  -16.4893 N   0  0  0  0  0  0  0  0  0  0  0  0
   20.7203   -7.2415  -15.6337 C   0  0  0  0  0  0  0  0  0  0  0  0
   19.9021   -6.3959  -16.1266 O   0  0  0  0  0  0  0  0  0  0  0  0
   21.9086   -5.5138  -12.5419 C   0  0  0  0  0  0  0  0  0  0  0  0
   21.2650   -5.4846  -13.9180 C   0  0  2  0  0  0  0  0  0  0  0  0
   21.4187   -6.8106  -14.4899 N   0  0  0  0  0  0  0  0  0  0  0  0
   21.9774   -4.4727  -14.7516 C   0  0  0  0  0  0  0  0  0  0  0  0
   22.9192   -4.8364  -15.4891 O   0  0  0  0  0  0  0  0  0  0  0  0
   21.6347   -3.1366  -14.7412 O   0  0  0  0  0  0  0  0  0  0  0  0
  1  2  1  0
  2  3  1  0
  3  4  1  1
  5  3  1  0
  6  5  2  0
  8  7  1  1
  8  9  1  0
  8 10  1  0
 10 11  1  6
 11  5  1  0
 12 10  1  0
 12 16  1  0
 13 12  2  0
 15 16  1  0
 15 14  1  1
 15 17  1  0
 17 18  2  0
 17 19  1  0
M  END
$$$$
