STA.pdb
     RDKit          3D

 19 18  0  0  1  0  0  0  0  0999 V2000
   15.9370  -12.0831  -15.0302 O   0  0  0  0  0  0  0  0  0  0  0  0
   15.4598  -10.8959  -14.5017 C   0  0  0  0  0  0  0  0  0  0  0  0
   15.2135  -11.0507  -13.0197 C   0  0  2  0  0  0  0  0  0  0  0  0
   14.0429  -11.8922  -12.8617 N   0  0  0  0  0  0  0  0  0  0  0  0
   14.9257   -9.7607  -12.3481 C   0  0  0  0  0  0  0  0  0  0  0  0
   13.7389   -9.3630  -12.2100 O   0  0  0  0  0  0  0  0  0  0  0  0
   16.3884   -6.3803   -9.0684 C   0  0  0  0  0  0  0  0  0  0  0  0
   16.6128   -7.6175   -9.9053 C   0  0  1  0  0  0  0  0  0  0  0  0
   16.3025   -8.6946   -9.0498 O   0  0  0  0  0  0  0  0  0  0  0  0
   15.6713   -7.6622  -11.1196 C   0  0  2  0  0  0  0  0  0  0  0  0
   15.9455   -8.9178  -11.8331 N   0  0  0  0  0  0  0  0  0  0  0  0
   15.9115   -6.5182  -12.0222 C   0  0  0  0  0  0  0  0  0  0  0  0
   17.0552   -6.3917  -12.5732 O   0  0  0  0  0  0  0  0  0  0  0  0
   13.9965   -3.5960  -13.3744 C   0  0  0  0  0  0  0  0  0  0  0  0
   15.2906   -4.3630  -13.1610 C   0  0  2  0  0  0  0  0  0  0  0  0
   14.9708   -5.5228  -12.3475 N   0  0  0  0  0  0  0  0  0  0  0  0
   16.2537   -3.4756  -12.4461 C   0  0  0  0  0  0  0  0  0  0  0  0
   16.8673   -2.5931  -13.0847 O   0  0  0  0  0  0  0  0  0  0  0  0
   16.4971   -3.5910  -11.0933 O   0  0  0  0  0  0  0  0  0  0  0  0
  1  2  1  0
  2  3  1  0
  3  4  1  6
  5  3  1  0
  6  5  2  0
  8  7  1  1
  8  9  1  0
  8 10  1  0
 10 11  1  6
 11  5  1  0
 12 10  1  0
 12 16  1  0
 13 12  2  0
 15 16  1  0
 15 14  1  1
 15 17  1  0
 17 18  2  0
 17 19  1  0
M  END
$$$$
