YWL.pdb
     RDKit          3D

 35 37  0  0  1  0  0  0  0  0999 V2000
   13.0411  -25.3180   19.9638 O   0  0  0  0  0  0  0  0  0  0  0  0
   12.7189  -24.0724   20.4845 C   0  0  0  0  0  0  0  0  0  0  0  0
   11.4721  -23.8286   21.0111 C   0  0  0  0  0  0  0  0  0  0  0  0
   11.1582  -22.5914   21.5260 C   0  0  0  0  0  0  0  0  0  0  0  0
   12.0658  -21.5524   21.5383 C   0  0  0  0  0  0  0  0  0  0  0  0
   11.7683  -20.2241   22.0791 C   0  0  0  0  0  0  0  0  0  0  0  0
   10.8794  -19.3875   21.1926 C   0  0  2  0  0  0  0  0  0  0  0  0
   11.4508  -19.2853   19.8778 N   0  0  0  0  0  0  0  0  0  0  0  0
   10.6864  -18.0634   21.8362 C   0  0  0  0  0  0  0  0  0  0  0  0
   11.5621  -17.1750   21.6753 O   0  0  0  0  0  0  0  0  0  0  0  0
   13.3191  -21.7950   21.0098 C   0  0  0  0  0  0  0  0  0  0  0  0
   13.6390  -23.0456   20.4884 C   0  0  0  0  0  0  0  0  0  0  0  0
    9.5608  -17.7226   22.6364 N   0  0  0  0  0  0  0  0  0  0  0  0
    9.3022  -16.4035   23.1535 C   0  0  1  0  0  0  0  0  0  0  0  0
    7.8788  -16.0977   23.4546 C   0  0  0  0  0  0  0  0  0  0  0  0
    7.5266  -14.7022   23.6607 C   0  0  0  0  0  0  0  0  0  0  0  0
    7.8698  -13.6573   22.8191 C   0  0  0  0  0  0  0  0  0  0  0  0
    7.3910  -12.5031   23.3235 N   0  0  0  0  0  0  0  0  0  0  0  0
    6.7307  -12.7472   24.4894 C   0  0  0  0  0  0  0  0  0  0  0  0
    6.0782  -11.9055   25.3564 C   0  0  0  0  0  0  0  0  0  0  0  0
    5.4786  -12.4149   26.4796 C   0  0  0  0  0  0  0  0  0  0  0  0
    5.5622  -13.7756   26.6875 C   0  0  0  0  0  0  0  0  0  0  0  0
    6.2180  -14.6122   25.8139 C   0  0  0  0  0  0  0  0  0  0  0  0
    6.8246  -14.1253   24.6854 C   0  0  0  0  0  0  0  0  0  0  0  0
   10.2222  -16.1633   24.3077 C   0  0  0  0  0  0  0  0  0  0  0  0
   11.3055  -15.5456   24.1540 O   0  0  0  0  0  0  0  0  0  0  0  0
    9.8227  -12.9548   27.3554 C   0  0  0  0  0  0  0  0  0  0  0  0
    9.9312  -14.4273   27.7628 C   0  0  2  0  0  0  0  0  0  0  0  0
    9.9464  -14.5823   29.2529 C   0  0  0  0  0  0  0  0  0  0  0  0
   11.1110  -15.0777   27.0976 C   0  0  0  0  0  0  0  0  0  0  0  0
   10.8242  -16.4855   26.7576 C   0  0  2  0  0  0  0  0  0  0  0  0
    9.9219  -16.6142   25.6188 N   0  0  0  0  0  0  0  0  0  0  0  0
   10.3867  -17.2750   27.8995 C   0  0  0  0  0  0  0  0  0  0  0  0
   11.3004  -17.5385   28.9517 O   0  0  0  0  0  0  0  0  0  0  0  0
    9.2587  -17.7705   28.0782 O   0  0  0  0  0  0  0  0  0  0  0  0
  2  1  1  0
  3  2  2  0
  4  3  1  0
  5  4  2  0
  5 11  1  0
  6  5  1  0
  7  6  1  0
  7  8  1  6
  9 13  1  0
  9  7  1  0
 10  9  2  0
 11 12  2  0
 12  2  1  0
 14 25  1  0
 14 13  1  0
 14 15  1  1
 16 17  2  0
 16 15  1  0
 18 17  1  0
 19 24  2  0
 19 18  1  0
 20 19  1  0
 21 22  1  0
 21 20  2  0
 22 23  2  0
 23 24  1  0
 24 16  1  0
 25 32  1  0
 26 25  2  0
 28 27  1  1
 28 30  1  0
 29 28  1  0
 31 33  1  0
 31 30  1  1
 32 31  1  0
 33 34  1  0
 35 33  2  0
M  END
$$$$
