YWL.pdb
     RDKit          3D

 35 37  0  0  1  0  0  0  0  0999 V2000
   12.5388  -23.9477   17.3131 O   0  0  0  0  0  0  0  0  0  0  0  0
   12.4101  -22.8556   18.1601 C   0  0  0  0  0  0  0  0  0  0  0  0
   11.2792  -22.6840   18.9235 C   0  0  0  0  0  0  0  0  0  0  0  0
   11.1571  -21.5992   19.7617 C   0  0  0  0  0  0  0  0  0  0  0  0
   12.1485  -20.6465   19.8742 C   0  0  0  0  0  0  0  0  0  0  0  0
   12.0546  -19.4808   20.7561 C   0  0  0  0  0  0  0  0  0  0  0  0
   11.0045  -18.4811   20.3393 C   0  0  2  0  0  0  0  0  0  0  0  0
   11.3659  -17.8816   19.0841 N   0  0  0  0  0  0  0  0  0  0  0  0
   10.8497  -17.4815   21.4264 C   0  0  0  0  0  0  0  0  0  0  0  0
   11.7763  -16.6559   21.6306 O   0  0  0  0  0  0  0  0  0  0  0  0
   13.2857  -20.8168   19.1082 C   0  0  0  0  0  0  0  0  0  0  0  0
   13.4116  -21.9132   18.2597 C   0  0  0  0  0  0  0  0  0  0  0  0
    9.7068  -17.3902   22.2684 N   0  0  0  0  0  0  0  0  0  0  0  0
    9.5753  -16.4598   23.3598 C   0  0  1  0  0  0  0  0  0  0  0  0
    8.1854  -16.1955   23.8166 C   0  0  0  0  0  0  0  0  0  0  0  0
    7.7623  -14.8067   23.8936 C   0  0  0  0  0  0  0  0  0  0  0  0
    7.8801  -13.8763   22.8746 C   0  0  0  0  0  0  0  0  0  0  0  0
    7.4001  -12.6900   23.2965 N   0  0  0  0  0  0  0  0  0  0  0  0
    6.9599  -12.8001   24.5807 C   0  0  0  0  0  0  0  0  0  0  0  0
    6.3928  -11.8800   25.4279 C   0  0  0  0  0  0  0  0  0  0  0  0
    6.0264  -12.2551   26.6951 C   0  0  0  0  0  0  0  0  0  0  0  0
    6.2500  -13.5649   27.0638 C   0  0  0  0  0  0  0  0  0  0  0  0
    6.8188  -14.4808   26.2089 C   0  0  0  0  0  0  0  0  0  0  0  0
    7.1931  -14.1283   24.9384 C   0  0  0  0  0  0  0  0  0  0  0  0
   10.4932  -16.8921   24.4583 C   0  0  0  0  0  0  0  0  0  0  0  0
   11.7361  -16.9428   24.2806 O   0  0  0  0  0  0  0  0  0  0  0  0
   10.2954  -15.2262   29.4842 C   0  0  0  0  0  0  0  0  0  0  0  0
   10.7884  -14.5284   28.2130 C   0  0  2  0  0  0  0  0  0  0  0  0
   10.5407  -13.0518   28.2690 C   0  0  0  0  0  0  0  0  0  0  0  0
   10.1982  -15.1718   26.9901 C   0  0  0  0  0  0  0  0  0  0  0  0
   10.4322  -16.6295   26.9872 C   0  0  2  0  0  0  0  0  0  0  0  0
   10.0136  -17.2617   25.7412 N   0  0  0  0  0  0  0  0  0  0  0  0
    9.8860  -17.3016   28.1570 C   0  0  0  0  0  0  0  0  0  0  0  0
    8.5022  -17.6094   28.1975 O   0  0  0  0  0  0  0  0  0  0  0  0
   10.5095  -17.6581   29.1739 O   0  0  0  0  0  0  0  0  0  0  0  0
  2  1  1  0
  3  2  2  0
  4  3  1  0
  5  4  2  0
  5 11  1  0
  6  5  1  0
  7  6  1  0
  7  8  1  6
  9 13  1  0
  9  7  1  0
 10  9  2  0
 11 12  2  0
 12  2  1  0
 14 25  1  0
 14 13  1  0
 14 15  1  1
 16 17  2  0
 16 15  1  0
 18 17  1  0
 19 24  2  0
 19 18  1  0
 20 19  1  0
 21 22  1  0
 21 20  2  0
 22 23  2  0
 23 24  1  0
 24 16  1  0
 25 32  1  0
 26 25  2  0
 28 27  1  1
 28 30  1  0
 29 28  1  0
 31 33  1  0
 31 30  1  6
 32 31  1  0
 33 34  1  0
 35 33  2  0
M  END
$$$$
