YWL.pdb
     RDKit          3D

 35 37  0  0  1  0  0  0  0  0999 V2000
   12.2034  -23.8660   18.2862 O   0  0  0  0  0  0  0  0  0  0  0  0
   12.0130  -22.6793   18.9805 C   0  0  0  0  0  0  0  0  0  0  0  0
   11.1438  -21.7208   18.5148 C   0  0  0  0  0  0  0  0  0  0  0  0
   10.9591  -20.5459   19.2074 C   0  0  0  0  0  0  0  0  0  0  0  0
   11.6272  -20.2777   20.3842 C   0  0  0  0  0  0  0  0  0  0  0  0
   11.4548  -19.0405   21.1490 C   0  0  0  0  0  0  0  0  0  0  0  0
   10.4517  -18.0858   20.5505 C   0  0  2  0  0  0  0  0  0  0  0  0
   10.9169  -17.6194   19.2731 N   0  0  0  0  0  0  0  0  0  0  0  0
   10.2232  -16.9794   21.5141 C   0  0  0  0  0  0  0  0  0  0  0  0
   10.8461  -15.8979   21.3580 O   0  0  0  0  0  0  0  0  0  0  0  0
   12.5010  -21.2392   20.8542 C   0  0  0  0  0  0  0  0  0  0  0  0
   12.6896  -22.4285   20.1554 C   0  0  0  0  0  0  0  0  0  0  0  0
    9.3335  -17.0577   22.6212 N   0  0  0  0  0  0  0  0  0  0  0  0
    8.8752  -15.9199   23.3759 C   0  0  1  0  0  0  0  0  0  0  0  0
    7.4362  -15.9324   23.7494 C   0  0  0  0  0  0  0  0  0  0  0  0
    6.9821  -14.9166   24.6852 C   0  0  0  0  0  0  0  0  0  0  0  0
    6.4038  -15.1657   25.9186 C   0  0  0  0  0  0  0  0  0  0  0  0
    6.0950  -13.9953   26.5107 N   0  0  0  0  0  0  0  0  0  0  0  0
    6.4535  -12.9597   25.7019 C   0  0  0  0  0  0  0  0  0  0  0  0
    6.3471  -11.6005   25.8664 C   0  0  0  0  0  0  0  0  0  0  0  0
    6.7979  -10.7574   24.8833 C   0  0  0  0  0  0  0  0  0  0  0  0
    7.3474  -11.3278   23.7545 C   0  0  0  0  0  0  0  0  0  0  0  0
    7.4502  -12.6908   23.5972 C   0  0  0  0  0  0  0  0  0  0  0  0
    7.0061  -13.5524   24.5662 C   0  0  0  0  0  0  0  0  0  0  0  0
    9.7932  -15.7288   24.5409 C   0  0  0  0  0  0  0  0  0  0  0  0
   10.6516  -14.8112   24.5444 O   0  0  0  0  0  0  0  0  0  0  0  0
   11.3033  -13.9122   27.1234 C   0  0  0  0  0  0  0  0  0  0  0  0
   10.2298  -14.7697   27.8003 C   0  0  2  0  0  0  0  0  0  0  0  0
    9.8161  -14.1879   29.1176 C   0  0  0  0  0  0  0  0  0  0  0  0
   10.6818  -16.1983   27.9110 C   0  0  0  0  0  0  0  0  0  0  0  0
   10.8713  -16.8040   26.5779 C   0  0  2  0  0  0  0  0  0  0  0  0
    9.7417  -16.5628   25.6873 N   0  0  0  0  0  0  0  0  0  0  0  0
   11.2393  -18.2112   26.6330 C   0  0  0  0  0  0  0  0  0  0  0  0
   12.4429  -18.5888   27.2810 O   0  0  0  0  0  0  0  0  0  0  0  0
   10.6005  -19.1703   26.1619 O   0  0  0  0  0  0  0  0  0  0  0  0
  2  1  1  0
  3  2  2  0
  4  3  1  0
  5  4  2  0
  5 11  1  0
  6  5  1  0
  7  6  1  0
  7  8  1  6
  9 13  1  0
  9  7  1  0
 10  9  2  0
 11 12  2  0
 12  2  1  0
 14 25  1  0
 14 13  1  0
 14 15  1  1
 16 17  2  0
 16 15  1  0
 18 17  1  0
 19 24  2  0
 19 18  1  0
 20 19  1  0
 21 22  1  0
 21 20  2  0
 22 23  2  0
 23 24  1  0
 24 16  1  0
 25 32  1  0
 26 25  2  0
 28 27  1  1
 28 30  1  0
 29 28  1  0
 31 33  1  0
 31 30  1  1
 32 31  1  0
 33 34  1  0
 35 33  2  0
M  END
$$$$
