YWL.pdb
     RDKit          3D

 35 37  0  0  1  0  0  0  0  0999 V2000
   14.4680  -22.3445   17.5676 O   0  0  0  0  0  0  0  0  0  0  0  0
   13.9750  -21.3602   18.4130 C   0  0  0  0  0  0  0  0  0  0  0  0
   14.3785  -20.0519   18.2836 C   0  0  0  0  0  0  0  0  0  0  0  0
   13.8864  -19.0800   19.1248 C   0  0  0  0  0  0  0  0  0  0  0  0
   12.9785  -19.3677   20.1229 C   0  0  0  0  0  0  0  0  0  0  0  0
   12.4320  -18.3603   21.0350 C   0  0  0  0  0  0  0  0  0  0  0  0
   11.2027  -17.6614   20.5093 C   0  0  2  0  0  0  0  0  0  0  0  0
   11.5049  -16.9981   19.2707 N   0  0  0  0  0  0  0  0  0  0  0  0
   10.7112  -16.7267   21.5531 C   0  0  0  0  0  0  0  0  0  0  0  0
   11.3782  -15.6905   21.8051 O   0  0  0  0  0  0  0  0  0  0  0  0
   12.5717  -20.6815   20.2549 C   0  0  0  0  0  0  0  0  0  0  0  0
   13.0680  -21.6663   19.4053 C   0  0  0  0  0  0  0  0  0  0  0  0
    9.5178  -16.9239   22.3016 N   0  0  0  0  0  0  0  0  0  0  0  0
    9.0421  -16.0256   23.3219 C   0  0  1  0  0  0  0  0  0  0  0  0
    7.6947  -16.3307   23.8712 C   0  0  0  0  0  0  0  0  0  0  0  0
    7.0753  -15.3218   24.7152 C   0  0  0  0  0  0  0  0  0  0  0  0
    6.1463  -15.5718   25.7113 C   0  0  0  0  0  0  0  0  0  0  0  0
    5.7778  -14.4068   26.2796 N   0  0  0  0  0  0  0  0  0  0  0  0
    6.4396  -13.3742   25.6873 C   0  0  0  0  0  0  0  0  0  0  0  0
    6.4034  -12.0211   25.9188 C   0  0  0  0  0  0  0  0  0  0  0  0
    7.1877  -11.1803   25.1713 C   0  0  0  0  0  0  0  0  0  0  0  0
    7.9909  -11.7469   24.2041 C   0  0  0  0  0  0  0  0  0  0  0  0
    8.0213  -13.1038   23.9783 C   0  0  0  0  0  0  0  0  0  0  0  0
    7.2459  -13.9629   24.7128 C   0  0  0  0  0  0  0  0  0  0  0  0
   10.1012  -15.9033   24.3705 C   0  0  0  0  0  0  0  0  0  0  0  0
   10.9094  -14.9411   24.3648 O   0  0  0  0  0  0  0  0  0  0  0  0
   11.3484  -14.1260   28.1113 C   0  0  0  0  0  0  0  0  0  0  0  0
    9.9798  -14.1929   27.4269 C   0  0  2  0  0  0  0  0  0  0  0  0
    9.0006  -13.2596   28.0709 C   0  0  0  0  0  0  0  0  0  0  0  0
    9.4826  -15.6096   27.3693 C   0  0  0  0  0  0  0  0  0  0  0  0
   10.5058  -16.5129   26.8062 C   0  0  2  0  0  0  0  0  0  0  0  0
   10.2452  -16.8551   25.4125 N   0  0  0  0  0  0  0  0  0  0  0  0
   10.7474  -17.6903   27.6271 C   0  0  0  0  0  0  0  0  0  0  0  0
   11.3748  -17.5389   28.8900 O   0  0  0  0  0  0  0  0  0  0  0  0
   10.4584  -18.8688   27.3482 O   0  0  0  0  0  0  0  0  0  0  0  0
  2  1  1  0
  3  2  2  0
  4  3  1  0
  5  4  2  0
  5 11  1  0
  6  5  1  0
  7  6  1  0
  7  8  1  6
  9 13  1  0
  9  7  1  0
 10  9  2  0
 11 12  2  0
 12  2  1  0
 14 25  1  0
 14 13  1  0
 14 15  1  1
 16 17  2  0
 16 15  1  0
 18 17  1  0
 19 24  2  0
 19 18  1  0
 20 19  1  0
 21 22  1  0
 21 20  2  0
 22 23  2  0
 23 24  1  0
 24 16  1  0
 25 32  1  0
 26 25  2  0
 28 27  1  1
 28 30  1  0
 29 28  1  0
 31 33  1  0
 31 30  1  1
 32 31  1  0
 33 34  1  0
 35 33  2  0
M  END
$$$$
