YWL.pdb
     RDKit          3D

 35 37  0  0  1  0  0  0  0  0999 V2000
   13.3234  -24.3717   18.3415 O   0  0  0  0  0  0  0  0  0  0  0  0
   13.0694  -23.2096   19.0568 C   0  0  0  0  0  0  0  0  0  0  0  0
   11.8538  -23.0082   19.6675 C   0  0  0  0  0  0  0  0  0  0  0  0
   11.6076  -21.8539   20.3755 C   0  0  0  0  0  0  0  0  0  0  0  0
   12.5544  -20.8588   20.5044 C   0  0  0  0  0  0  0  0  0  0  0  0
   12.3291  -19.6189   21.2508 C   0  0  0  0  0  0  0  0  0  0  0  0
   11.4976  -18.6011   20.5101 C   0  0  2  0  0  0  0  0  0  0  0  0
   12.1973  -18.1529   19.3374 N   0  0  0  0  0  0  0  0  0  0  0  0
   11.1741  -17.4910   21.4416 C   0  0  0  0  0  0  0  0  0  0  0  0
   12.0442  -16.6106   21.6648 O   0  0  0  0  0  0  0  0  0  0  0  0
   13.7765  -21.0589   19.8916 C   0  0  0  0  0  0  0  0  0  0  0  0
   14.0279  -22.2256   19.1749 C   0  0  0  0  0  0  0  0  0  0  0  0
    9.9272  -17.3504   22.1116 N   0  0  0  0  0  0  0  0  0  0  0  0
    9.5891  -16.2475   22.9737 C   0  0  1  0  0  0  0  0  0  0  0  0
    8.2681  -15.6139   22.7206 C   0  0  0  0  0  0  0  0  0  0  0  0
    7.9907  -14.3584   23.3993 C   0  0  0  0  0  0  0  0  0  0  0  0
    8.3881  -13.1064   22.9606 C   0  0  0  0  0  0  0  0  0  0  0  0
    7.9716  -12.1733   23.8392 N   0  0  0  0  0  0  0  0  0  0  0  0
    7.3001  -12.7700   24.8630 C   0  0  0  0  0  0  0  0  0  0  0  0
    6.6939  -12.2460   25.9782 C   0  0  0  0  0  0  0  0  0  0  0  0
    6.0690  -13.0797   26.8698 C   0  0  0  0  0  0  0  0  0  0  0  0
    6.0803  -14.4314   26.5969 C   0  0  0  0  0  0  0  0  0  0  0  0
    6.6902  -14.9486   25.4772 C   0  0  0  0  0  0  0  0  0  0  0  0
    7.3210  -14.1344   24.5728 C   0  0  0  0  0  0  0  0  0  0  0  0
    9.7806  -16.6839   24.3912 C   0  0  0  0  0  0  0  0  0  0  0  0
    9.3250  -17.7822   24.7972 O   0  0  0  0  0  0  0  0  0  0  0  0
    9.6104  -13.7494   26.6018 C   0  0  0  0  0  0  0  0  0  0  0  0
   10.1872  -14.3862   27.8698 C   0  0  2  0  0  0  0  0  0  0  0  0
   10.5288  -13.3488   28.8954 C   0  0  0  0  0  0  0  0  0  0  0  0
   11.3484  -15.2792   27.5356 C   0  0  0  0  0  0  0  0  0  0  0  0
   10.9387  -16.3743   26.6342 C   0  0  2  0  0  0  0  0  0  0  0  0
   10.4785  -15.8902   25.3376 N   0  0  0  0  0  0  0  0  0  0  0  0
    9.9940  -17.2983   27.2446 C   0  0  0  0  0  0  0  0  0  0  0  0
    8.8330  -17.6797   26.5251 O   0  0  0  0  0  0  0  0  0  0  0  0
   10.0810  -17.8213   28.3710 O   0  0  0  0  0  0  0  0  0  0  0  0
  2  1  1  0
  3  2  2  0
  4  3  1  0
  5  4  2  0
  5 11  1  0
  6  5  1  0
  7  6  1  0
  7  8  1  6
  9 13  1  0
  9  7  1  0
 10  9  2  0
 11 12  2  0
 12  2  1  0
 14 25  1  0
 14 13  1  0
 14 15  1  1
 16 17  2  0
 16 15  1  0
 18 17  1  0
 19 24  2  0
 19 18  1  0
 20 19  1  0
 21 22  1  0
 21 20  2  0
 22 23  2  0
 23 24  1  0
 24 16  1  0
 25 32  1  0
 26 25  2  0
 28 27  1  6
 28 30  1  0
 29 28  1  0
 31 33  1  0
 31 30  1  1
 32 31  1  0
 33 34  1  0
 35 33  2  0
M  END
$$$$
