YWL.pdb
     RDKit          3D

 35 37  0  0  1  0  0  0  0  0999 V2000
    7.5496  -13.4161   15.9892 O   0  0  0  0  0  0  0  0  0  0  0  0
    7.8308  -13.6432   17.3293 C   0  0  0  0  0  0  0  0  0  0  0  0
    8.9432  -14.3587   17.7057 C   0  0  0  0  0  0  0  0  0  0  0  0
    9.2169  -14.5809   19.0361 C   0  0  0  0  0  0  0  0  0  0  0  0
    8.4005  -14.1035   20.0405 C   0  0  0  0  0  0  0  0  0  0  0  0
    8.6606  -14.3184   21.4658 C   0  0  0  0  0  0  0  0  0  0  0  0
    9.2766  -15.6592   21.7802 C   0  0  2  0  0  0  0  0  0  0  0  0
    8.4048  -16.7159   21.3455 N   0  0  0  0  0  0  0  0  0  0  0  0
    9.5611  -15.7157   23.2364 C   0  0  0  0  0  0  0  0  0  0  0  0
   10.3516  -14.8741   23.7352 O   0  0  0  0  0  0  0  0  0  0  0  0
    7.2822  -13.3843   19.6648 C   0  0  0  0  0  0  0  0  0  0  0  0
    7.0032  -13.1583   18.3198 C   0  0  0  0  0  0  0  0  0  0  0  0
    8.9927  -16.6718   24.1231 N   0  0  0  0  0  0  0  0  0  0  0  0
    9.2678  -16.7329   25.5354 C   0  0  1  0  0  0  0  0  0  0  0  0
    8.0942  -16.5458   26.4287 C   0  0  0  0  0  0  0  0  0  0  0  0
    7.2484  -15.3888   26.1837 C   0  0  0  0  0  0  0  0  0  0  0  0
    5.9760  -15.4285   25.6386 C   0  0  0  0  0  0  0  0  0  0  0  0
    5.4929  -14.1742   25.5428 N   0  0  0  0  0  0  0  0  0  0  0  0
    6.4137  -13.2874   26.0126 C   0  0  0  0  0  0  0  0  0  0  0  0
    6.3819  -11.9189   26.1232 C   0  0  0  0  0  0  0  0  0  0  0  0
    7.4602  -11.2520   26.6459 C   0  0  0  0  0  0  0  0  0  0  0  0
    8.5458  -12.0039   27.0430 C   0  0  0  0  0  0  0  0  0  0  0  0
    8.5698  -13.3749   26.9287 C   0  0  0  0  0  0  0  0  0  0  0  0
    7.5040  -14.0623   26.4090 C   0  0  0  0  0  0  0  0  0  0  0  0
   10.0341  -17.9872   25.8105 C   0  0  0  0  0  0  0  0  0  0  0  0
    9.4470  -19.0388   26.1686 O   0  0  0  0  0  0  0  0  0  0  0  0
   13.2717  -19.7318   23.2956 C   0  0  0  0  0  0  0  0  0  0  0  0
   13.7355  -18.6240   24.2462 C   0  0  2  0  0  0  0  0  0  0  0  0
   15.0940  -18.1154   23.8713 C   0  0  0  0  0  0  0  0  0  0  0  0
   13.6594  -19.0827   25.6750 C   0  0  0  0  0  0  0  0  0  0  0  0
   12.2588  -19.1769   26.1324 C   0  0  2  0  0  0  0  0  0  0  0  0
   11.4454  -18.0531   25.6821 N   0  0  0  0  0  0  0  0  0  0  0  0
   12.1361  -19.4073   27.5644 C   0  0  0  0  0  0  0  0  0  0  0  0
   12.8352  -20.4906   28.1553 O   0  0  0  0  0  0  0  0  0  0  0  0
   11.4642  -18.7419   28.3742 O   0  0  0  0  0  0  0  0  0  0  0  0
  2  1  1  0
  3  2  2  0
  4  3  1  0
  5  4  2  0
  5 11  1  0
  6  5  1  0
  7  6  1  0
  7  8  1  1
  9 13  1  0
  9  7  1  0
 10  9  2  0
 11 12  2  0
 12  2  1  0
 14 25  1  0
 14 13  1  0
 14 15  1  1
 16 17  2  0
 16 15  1  0
 18 17  1  0
 19 24  2  0
 19 18  1  0
 20 19  1  0
 21 22  1  0
 21 20  2  0
 22 23  2  0
 23 24  1  0
 24 16  1  0
 25 32  1  0
 26 25  2  0
 28 27  1  6
 28 30  1  0
 29 28  1  0
 31 33  1  0
 31 30  1  1
 32 31  1  0
 33 34  1  0
 35 33  2  0
M  END
$$$$
