YWL.pdb
     RDKit          3D

 35 37  0  0  1  0  0  0  0  0999 V2000
   11.6375  -17.5874   14.1456 O   0  0  0  0  0  0  0  0  0  0  0  0
   11.2501  -17.1588   15.4077 C   0  0  0  0  0  0  0  0  0  0  0  0
    9.9227  -17.1279   15.7658 C   0  0  0  0  0  0  0  0  0  0  0  0
    9.5443  -16.7020   17.0188 C   0  0  0  0  0  0  0  0  0  0  0  0
   10.4649  -16.2919   17.9609 C   0  0  0  0  0  0  0  0  0  0  0  0
   10.1000  -15.8344   19.3036 C   0  0  0  0  0  0  0  0  0  0  0  0
   10.8873  -16.4926   20.4094 C   0  0  2  0  0  0  0  0  0  0  0  0
   10.8100  -17.9223   20.2855 N   0  0  0  0  0  0  0  0  0  0  0  0
   10.3681  -16.0030   21.7115 C   0  0  0  0  0  0  0  0  0  0  0  0
   10.3764  -14.7670   21.9442 O   0  0  0  0  0  0  0  0  0  0  0  0
   11.7992  -16.3221   17.6033 C   0  0  0  0  0  0  0  0  0  0  0  0
   12.1844  -16.7525   16.3366 C   0  0  0  0  0  0  0  0  0  0  0  0
    9.8527  -16.8485   22.7328 N   0  0  0  0  0  0  0  0  0  0  0  0
    9.3906  -16.3831   24.0151 C   0  0  1  0  0  0  0  0  0  0  0  0
    7.9419  -16.5775   24.2867 C   0  0  0  0  0  0  0  0  0  0  0  0
    7.0915  -15.3992   24.2399 C   0  0  0  0  0  0  0  0  0  0  0  0
    6.1555  -15.1260   23.2565 C   0  0  0  0  0  0  0  0  0  0  0  0
    5.5610  -13.9463   23.5224 N   0  0  0  0  0  0  0  0  0  0  0  0
    6.0766  -13.4167   24.6664 C   0  0  0  0  0  0  0  0  0  0  0  0
    5.7935  -12.2511   25.3350 C   0  0  0  0  0  0  0  0  0  0  0  0
    6.4652  -11.9481   26.4916 C   0  0  0  0  0  0  0  0  0  0  0  0
    7.4115  -12.8476   26.9356 C   0  0  0  0  0  0  0  0  0  0  0  0
    7.6894  -14.0135   26.2597 C   0  0  0  0  0  0  0  0  0  0  0  0
    7.0309  -14.3366   25.1018 C   0  0  0  0  0  0  0  0  0  0  0  0
   10.2791  -16.9587   25.0713 C   0  0  0  0  0  0  0  0  0  0  0  0
   11.0080  -17.9538   24.8320 O   0  0  0  0  0  0  0  0  0  0  0  0
   12.0860  -14.2116   27.5004 C   0  0  0  0  0  0  0  0  0  0  0  0
   10.9195  -14.7116   28.3578 C   0  0  2  0  0  0  0  0  0  0  0  0
   10.7277  -13.8555   29.5723 C   0  0  0  0  0  0  0  0  0  0  0  0
   11.0904  -16.1665   28.6920 C   0  0  0  0  0  0  0  0  0  0  0  0
   11.1211  -16.9957   27.4708 C   0  0  2  0  0  0  0  0  0  0  0  0
   10.3440  -16.4168   26.3807 N   0  0  0  0  0  0  0  0  0  0  0  0
   10.7776  -18.3891   27.7133 C   0  0  0  0  0  0  0  0  0  0  0  0
    9.6533  -18.9511   27.0565 O   0  0  0  0  0  0  0  0  0  0  0  0
   11.3746  -19.1878   28.4587 O   0  0  0  0  0  0  0  0  0  0  0  0
  2  1  1  0
  3  2  2  0
  4  3  1  0
  5  4  2  0
  5 11  1  0
  6  5  1  0
  7  6  1  0
  7  8  1  1
  9 13  1  0
  9  7  1  0
 10  9  2  0
 11 12  2  0
 12  2  1  0
 14 25  1  0
 14 13  1  0
 14 15  1  1
 16 17  2  0
 16 15  1  0
 18 17  1  0
 19 24  2  0
 19 18  1  0
 20 19  1  0
 21 22  1  0
 21 20  2  0
 22 23  2  0
 23 24  1  0
 24 16  1  0
 25 32  1  0
 26 25  2  0
 28 27  1  1
 28 30  1  0
 29 28  1  0
 31 33  1  0
 31 30  1  1
 32 31  1  0
 33 34  1  0
 35 33  2  0
M  END
$$$$
