YWL.pdb
     RDKit          3D

 35 37  0  0  1  0  0  0  0  0999 V2000
    8.0417  -14.5049   13.8384 O   0  0  0  0  0  0  0  0  0  0  0  0
    8.1415  -14.4289   15.2207 C   0  0  0  0  0  0  0  0  0  0  0  0
    7.4926  -13.4397   15.9218 C   0  0  0  0  0  0  0  0  0  0  0  0
    7.5953  -13.3692   17.2926 C   0  0  0  0  0  0  0  0  0  0  0  0
    8.3427  -14.2741   18.0176 C   0  0  0  0  0  0  0  0  0  0  0  0
    8.4735  -14.2317   19.4758 C   0  0  0  0  0  0  0  0  0  0  0  0
    9.3210  -15.3415   20.0468 C   0  0  2  0  0  0  0  0  0  0  0  0
    8.7686  -16.6184   19.6863 N   0  0  0  0  0  0  0  0  0  0  0  0
    9.4134  -15.1534   21.5168 C   0  0  0  0  0  0  0  0  0  0  0  0
    9.9185  -14.0918   21.9639 O   0  0  0  0  0  0  0  0  0  0  0  0
    8.9956  -15.2689   17.3154 C   0  0  0  0  0  0  0  0  0  0  0  0
    8.8934  -15.3423   15.9289 C   0  0  0  0  0  0  0  0  0  0  0  0
    8.9631  -16.1062   22.4722 N   0  0  0  0  0  0  0  0  0  0  0  0
    8.8168  -15.8373   23.8795 C   0  0  1  0  0  0  0  0  0  0  0  0
    7.5556  -16.3219   24.4998 C   0  0  0  0  0  0  0  0  0  0  0  0
    6.7898  -15.3674   25.2849 C   0  0  0  0  0  0  0  0  0  0  0  0
    5.5981  -15.6395   25.9358 C   0  0  0  0  0  0  0  0  0  0  0  0
    5.1620  -14.5234   26.5523 N   0  0  0  0  0  0  0  0  0  0  0  0
    6.0358  -13.5023   26.3313 C   0  0  0  0  0  0  0  0  0  0  0  0
    6.0273  -12.1940   26.7487 C   0  0  0  0  0  0  0  0  0  0  0  0
    7.0496  -11.3555   26.3847 C   0  0  0  0  0  0  0  0  0  0  0  0
    8.0568  -11.8783   25.6012 C   0  0  0  0  0  0  0  0  0  0  0  0
    8.0579  -13.1904   25.1870 C   0  0  0  0  0  0  0  0  0  0  0  0
    7.0466  -14.0462   25.5383 C   0  0  0  0  0  0  0  0  0  0  0  0
   10.0490  -16.3152   24.5792 C   0  0  0  0  0  0  0  0  0  0  0  0
   10.9401  -16.9488   23.9601 O   0  0  0  0  0  0  0  0  0  0  0  0
   11.5311  -13.7562   27.2643 C   0  0  0  0  0  0  0  0  0  0  0  0
   10.8128  -14.7645   28.1661 C   0  0  2  0  0  0  0  0  0  0  0  0
   10.6978  -14.2563   29.5708 C   0  0  0  0  0  0  0  0  0  0  0  0
   11.4715  -16.1127   28.0867 C   0  0  0  0  0  0  0  0  0  0  0  0
   11.3488  -16.6888   26.7329 C   0  0  2  0  0  0  0  0  0  0  0  0
   10.2721  -16.0798   25.9603 N   0  0  0  0  0  0  0  0  0  0  0  0
   11.2745  -18.1425   26.7315 C   0  0  0  0  0  0  0  0  0  0  0  0
   10.0755  -18.7755   26.3158 O   0  0  0  0  0  0  0  0  0  0  0  0
   12.1729  -18.9377   27.0638 O   0  0  0  0  0  0  0  0  0  0  0  0
  2  1  1  0
  3  2  2  0
  4  3  1  0
  5  4  2  0
  5 11  1  0
  6  5  1  0
  7  6  1  0
  7  8  1  1
  9 13  1  0
  9  7  1  0
 10  9  2  0
 11 12  2  0
 12  2  1  0
 14 25  1  0
 14 13  1  0
 14 15  1  1
 16 17  2  0
 16 15  1  0
 18 17  1  0
 19 24  2  0
 19 18  1  0
 20 19  1  0
 21 22  1  0
 21 20  2  0
 22 23  2  0
 23 24  1  0
 24 16  1  0
 25 32  1  0
 26 25  2  0
 28 27  1  6
 28 30  1  0
 29 28  1  0
 31 33  1  0
 31 30  1  1
 32 31  1  0
 33 34  1  0
 35 33  2  0
M  END
$$$$
