YWL.pdb
     RDKit          3D

 35 37  0  0  1  0  0  0  0  0999 V2000
   15.0806  -22.3276   18.2619 O   0  0  0  0  0  0  0  0  0  0  0  0
   14.4188  -21.3307   18.9653 C   0  0  0  0  0  0  0  0  0  0  0  0
   13.2567  -21.6018   19.6487 C   0  0  0  0  0  0  0  0  0  0  0  0
   12.6046  -20.6092   20.3443 C   0  0  0  0  0  0  0  0  0  0  0  0
   13.0788  -19.3144   20.3886 C   0  0  0  0  0  0  0  0  0  0  0  0
   12.4136  -18.2334   21.1194 C   0  0  0  0  0  0  0  0  0  0  0  0
   11.1361  -17.7548   20.4752 C   0  0  2  0  0  0  0  0  0  0  0  0
   11.3999  -17.2973   19.1385 N   0  0  0  0  0  0  0  0  0  0  0  0
   10.5438  -16.6984   21.3342 C   0  0  0  0  0  0  0  0  0  0  0  0
   10.7783  -15.4924   21.0649 O   0  0  0  0  0  0  0  0  0  0  0  0
   14.2463  -19.0397   19.7028 C   0  0  0  0  0  0  0  0  0  0  0  0
   14.9077  -20.0419   18.9984 C   0  0  0  0  0  0  0  0  0  0  0  0
    9.7149  -16.9587   22.4605 N   0  0  0  0  0  0  0  0  0  0  0  0
    8.9470  -15.9556   23.1521 C   0  0  1  0  0  0  0  0  0  0  0  0
    7.5683  -16.3542   23.5402 C   0  0  0  0  0  0  0  0  0  0  0  0
    6.8998  -15.5459   24.5469 C   0  0  0  0  0  0  0  0  0  0  0  0
    6.1900  -16.0402   25.6285 C   0  0  0  0  0  0  0  0  0  0  0  0
    5.6954  -15.0115   26.3448 N   0  0  0  0  0  0  0  0  0  0  0  0
    6.0572  -13.8315   25.7688 C   0  0  0  0  0  0  0  0  0  0  0  0
    5.8008  -12.5306   26.1266 C   0  0  0  0  0  0  0  0  0  0  0  0
    6.2951  -11.5037   25.3638 C   0  0  0  0  0  0  0  0  0  0  0  0
    7.0407  -11.8348   24.2521 C   0  0  0  0  0  0  0  0  0  0  0  0
    7.2930  -13.1408   23.9003 C   0  0  0  0  0  0  0  0  0  0  0  0
    6.8090  -14.1830   24.6474 C   0  0  0  0  0  0  0  0  0  0  0  0
    9.7648  -15.4433   24.2945 C   0  0  0  0  0  0  0  0  0  0  0  0
    9.5784  -14.2904   24.7580 O   0  0  0  0  0  0  0  0  0  0  0  0
    9.3741  -15.4159   29.4160 C   0  0  0  0  0  0  0  0  0  0  0  0
   10.6111  -15.2192   28.5344 C   0  0  2  0  0  0  0  0  0  0  0  0
   11.3610  -13.9789   28.9139 C   0  0  0  0  0  0  0  0  0  0  0  0
   10.2378  -15.2516   27.0793 C   0  0  0  0  0  0  0  0  0  0  0  0
   11.0684  -16.2195   26.3356 C   0  0  2  0  0  0  0  0  0  0  0  0
   10.7797  -16.2236   24.9060 N   0  0  0  0  0  0  0  0  0  0  0  0
   11.0420  -17.5579   26.9072 C   0  0  0  0  0  0  0  0  0  0  0  0
   12.0091  -17.9158   27.8809 O   0  0  0  0  0  0  0  0  0  0  0  0
   10.2396  -18.4708   26.6374 O   0  0  0  0  0  0  0  0  0  0  0  0
  2  1  1  0
  3  2  2  0
  4  3  1  0
  5  4  2  0
  5 11  1  0
  6  5  1  0
  7  6  1  0
  7  8  1  6
  9 13  1  0
  9  7  1  0
 10  9  2  0
 11 12  2  0
 12  2  1  0
 14 25  1  0
 14 13  1  0
 14 15  1  1
 16 17  2  0
 16 15  1  0
 18 17  1  0
 19 24  2  0
 19 18  1  0
 20 19  1  0
 21 22  1  0
 21 20  2  0
 22 23  2  0
 23 24  1  0
 24 16  1  0
 25 32  1  0
 26 25  2  0
 28 27  1  1
 28 30  1  0
 29 28  1  0
 31 33  1  0
 31 30  1  1
 32 31  1  0
 33 34  1  0
 35 33  2  0
M  END
$$$$
