YWL.pdb
     RDKit          3D

 35 37  0  0  1  0  0  0  0  0999 V2000
   14.4015  -20.0500   15.4317 O   0  0  0  0  0  0  0  0  0  0  0  0
   13.6216  -19.3615   16.3505 C   0  0  0  0  0  0  0  0  0  0  0  0
   14.1779  -18.4173   17.1813 C   0  0  0  0  0  0  0  0  0  0  0  0
   13.3997  -17.7377   18.0906 C   0  0  0  0  0  0  0  0  0  0  0  0
   12.0447  -17.9678   18.2101 C   0  0  0  0  0  0  0  0  0  0  0  0
   11.1850  -17.2633   19.1639 C   0  0  0  0  0  0  0  0  0  0  0  0
   11.5884  -17.4504   20.6055 C   0  0  2  0  0  0  0  0  0  0  0  0
   11.2338  -18.7707   21.0489 N   0  0  0  0  0  0  0  0  0  0  0  0
   10.9466  -16.3840   21.4152 C   0  0  0  0  0  0  0  0  0  0  0  0
   11.2862  -15.1879   21.2254 O   0  0  0  0  0  0  0  0  0  0  0  0
   11.4835  -18.9160   17.3764 C   0  0  0  0  0  0  0  0  0  0  0  0
   12.2686  -19.6048   16.4559 C   0  0  0  0  0  0  0  0  0  0  0  0
    9.9571  -16.6240   22.4085 N   0  0  0  0  0  0  0  0  0  0  0  0
    9.2397  -15.5882   23.1062 C   0  0  1  0  0  0  0  0  0  0  0  0
    7.7915  -15.4812   22.7872 C   0  0  0  0  0  0  0  0  0  0  0  0
    7.4282  -15.3093   21.3899 C   0  0  0  0  0  0  0  0  0  0  0  0
    6.8136  -16.2658   20.5992 C   0  0  0  0  0  0  0  0  0  0  0  0
    6.6383  -15.7720   19.3577 N   0  0  0  0  0  0  0  0  0  0  0  0
    7.1220  -14.5004   19.2937 C   0  0  0  0  0  0  0  0  0  0  0  0
    7.1663  -13.5971   18.2603 C   0  0  0  0  0  0  0  0  0  0  0  0
    7.7126  -12.3556   18.4630 C   0  0  0  0  0  0  0  0  0  0  0  0
    8.2005  -12.0695   19.7206 C   0  0  0  0  0  0  0  0  0  0  0  0
    8.1525  -12.9804   20.7508 C   0  0  0  0  0  0  0  0  0  0  0  0
    7.6115  -14.2268   20.5712 C   0  0  0  0  0  0  0  0  0  0  0  0
    9.5209  -15.7257   24.5684 C   0  0  0  0  0  0  0  0  0  0  0  0
   10.7002  -15.7889   24.9974 O   0  0  0  0  0  0  0  0  0  0  0  0
    9.1901  -12.6259   27.4263 C   0  0  0  0  0  0  0  0  0  0  0  0
    7.8990  -13.2973   26.9485 C   0  0  2  0  0  0  0  0  0  0  0  0
    6.7081  -12.4178   27.1789 C   0  0  0  0  0  0  0  0  0  0  0  0
    7.7464  -14.6579   27.5676 C   0  0  0  0  0  0  0  0  0  0  0  0
    8.6864  -15.6262   26.9688 C   0  0  2  0  0  0  0  0  0  0  0  0
    8.4834  -15.7902   25.5338 N   0  0  0  0  0  0  0  0  0  0  0  0
    8.7222  -16.9013   27.6698 C   0  0  0  0  0  0  0  0  0  0  0  0
    8.4753  -18.0971   26.9483 O   0  0  0  0  0  0  0  0  0  0  0  0
    8.9540  -17.0836   28.8794 O   0  0  0  0  0  0  0  0  0  0  0  0
  2  1  1  0
  3  2  2  0
  4  3  1  0
  5  4  2  0
  5 11  1  0
  6  5  1  0
  7  6  1  0
  7  8  1  1
  9 13  1  0
  9  7  1  0
 10  9  2  0
 11 12  2  0
 12  2  1  0
 14 25  1  0
 14 13  1  0
 14 15  1  1
 16 17  2  0
 16 15  1  0
 18 17  1  0
 19 24  2  0
 19 18  1  0
 20 19  1  0
 21 22  1  0
 21 20  2  0
 22 23  2  0
 23 24  1  0
 24 16  1  0
 25 32  1  0
 26 25  2  0
 28 27  1  1
 28 30  1  0
 29 28  1  0
 31 33  1  0
 31 30  1  1
 32 31  1  0
 33 34  1  0
 35 33  2  0
M  END
$$$$
