YWL.pdb
     RDKit          3D

 35 37  0  0  1  0  0  0  0  0999 V2000
   13.4743  -21.7902   16.7040 O   0  0  0  0  0  0  0  0  0  0  0  0
   13.1583  -20.9197   17.7379 C   0  0  0  0  0  0  0  0  0  0  0  0
   14.0302  -19.9252   18.1145 C   0  0  0  0  0  0  0  0  0  0  0  0
   13.7117  -19.0650   19.1406 C   0  0  0  0  0  0  0  0  0  0  0  0
   12.5202  -19.1580   19.8299 C   0  0  0  0  0  0  0  0  0  0  0  0
   12.1464  -18.2601   20.9250 C   0  0  0  0  0  0  0  0  0  0  0  0
   11.4407  -17.0054   20.4738 C   0  0  2  0  0  0  0  0  0  0  0  0
   12.3504  -16.1626   19.7474 N   0  0  0  0  0  0  0  0  0  0  0  0
   10.8684  -16.3330   21.6676 C   0  0  0  0  0  0  0  0  0  0  0  0
   11.5841  -15.5239   22.3120 O   0  0  0  0  0  0  0  0  0  0  0  0
   11.6426  -20.1564   19.4533 C   0  0  0  0  0  0  0  0  0  0  0  0
   11.9625  -21.0278   18.4158 C   0  0  0  0  0  0  0  0  0  0  0  0
    9.5442  -16.5431   22.1426 N   0  0  0  0  0  0  0  0  0  0  0  0
    8.9788  -15.8804   23.2895 C   0  0  1  0  0  0  0  0  0  0  0  0
    7.5526  -15.4798   23.1634 C   0  0  0  0  0  0  0  0  0  0  0  0
    6.9102  -14.9235   24.3431 C   0  0  0  0  0  0  0  0  0  0  0  0
    6.0329  -15.6025   25.1721 C   0  0  0  0  0  0  0  0  0  0  0  0
    5.6223  -14.7791   26.1566 N   0  0  0  0  0  0  0  0  0  0  0  0
    6.2050  -13.5568   26.0095 C   0  0  0  0  0  0  0  0  0  0  0  0
    6.1035  -12.4074   26.7542 C   0  0  0  0  0  0  0  0  0  0  0  0
    6.8133  -11.2927   26.3877 C   0  0  0  0  0  0  0  0  0  0  0  0
    7.6105  -11.3828   25.2661 C   0  0  0  0  0  0  0  0  0  0  0  0
    7.7066  -12.5382   24.5252 C   0  0  0  0  0  0  0  0  0  0  0  0
    7.0063  -13.6641   24.8725 C   0  0  0  0  0  0  0  0  0  0  0  0
    9.2607  -16.7133   24.4991 C   0  0  0  0  0  0  0  0  0  0  0  0
    8.9382  -17.9271   24.5385 O   0  0  0  0  0  0  0  0  0  0  0  0
   13.0424  -15.9748   26.8343 C   0  0  0  0  0  0  0  0  0  0  0  0
   11.8315  -15.1932   27.3526 C   0  0  2  0  0  0  0  0  0  0  0  0
   12.2433  -14.1267   28.3210 C   0  0  0  0  0  0  0  0  0  0  0  0
   10.7986  -16.1262   27.9185 C   0  0  0  0  0  0  0  0  0  0  0  0
   10.1819  -16.9477   26.8580 C   0  0  2  0  0  0  0  0  0  0  0  0
    9.8993  -16.1821   25.6492 N   0  0  0  0  0  0  0  0  0  0  0  0
    9.0246  -17.7026   27.3156 C   0  0  0  0  0  0  0  0  0  0  0  0
    9.1876  -18.6694   28.3404 O   0  0  0  0  0  0  0  0  0  0  0  0
    7.8545  -17.6014   26.9025 O   0  0  0  0  0  0  0  0  0  0  0  0
  2  1  1  0
  3  2  2  0
  4  3  1  0
  5  4  2  0
  5 11  1  0
  6  5  1  0
  7  6  1  0
  7  8  1  1
  9 13  1  0
  9  7  1  0
 10  9  2  0
 11 12  2  0
 12  2  1  0
 14 25  1  0
 14 13  1  0
 14 15  1  6
 16 17  2  0
 16 15  1  0
 18 17  1  0
 19 24  2  0
 19 18  1  0
 20 19  1  0
 21 22  1  0
 21 20  2  0
 22 23  2  0
 23 24  1  0
 24 16  1  0
 25 32  1  0
 26 25  2  0
 28 27  1  1
 28 30  1  0
 29 28  1  0
 31 33  1  0
 31 30  1  1
 32 31  1  0
 33 34  1  0
 35 33  2  0
M  END
$$$$
