YWL.pdb
     RDKit          3D

 35 37  0  0  1  0  0  0  0  0999 V2000
   14.3141  -18.5688   15.3114 O   0  0  0  0  0  0  0  0  0  0  0  0
   13.5809  -17.9670   16.3247 C   0  0  0  0  0  0  0  0  0  0  0  0
   13.0039  -16.7323   16.1407 C   0  0  0  0  0  0  0  0  0  0  0  0
   12.2780  -16.1403   17.1491 C   0  0  0  0  0  0  0  0  0  0  0  0
   12.0972  -16.7483   18.3742 C   0  0  0  0  0  0  0  0  0  0  0  0
   11.3302  -16.1502   19.4694 C   0  0  0  0  0  0  0  0  0  0  0  0
   10.1670  -16.9916   19.9328 C   0  0  2  0  0  0  0  0  0  0  0  0
    9.1439  -17.0162   18.9237 N   0  0  0  0  0  0  0  0  0  0  0  0
    9.6806  -16.4491   21.2266 C   0  0  0  0  0  0  0  0  0  0  0  0
    9.2395  -15.2719   21.2656 O   0  0  0  0  0  0  0  0  0  0  0  0
   12.6760  -17.9889   18.5615 C   0  0  0  0  0  0  0  0  0  0  0  0
   13.4107  -18.5897   17.5431 C   0  0  0  0  0  0  0  0  0  0  0  0
    9.6784  -17.1799   22.4470 N   0  0  0  0  0  0  0  0  0  0  0  0
    9.2723  -16.6365   23.7174 C   0  0  1  0  0  0  0  0  0  0  0  0
    7.9296  -17.0569   24.1978 C   0  0  0  0  0  0  0  0  0  0  0  0
    7.0811  -16.0321   24.7842 C   0  0  0  0  0  0  0  0  0  0  0  0
    5.8155  -16.2427   25.3056 C   0  0  0  0  0  0  0  0  0  0  0  0
    5.3165  -15.0727   25.7506 N   0  0  0  0  0  0  0  0  0  0  0  0
    6.2201  -14.0754   25.5405 C   0  0  0  0  0  0  0  0  0  0  0  0
    6.1716  -12.7324   25.8231 C   0  0  0  0  0  0  0  0  0  0  0  0
    7.2387  -11.9305   25.5083 C   0  0  0  0  0  0  0  0  0  0  0  0
    8.3304  -12.5247   24.9110 C   0  0  0  0  0  0  0  0  0  0  0  0
    8.3711  -13.8712   24.6311 C   0  0  0  0  0  0  0  0  0  0  0  0
    7.3163  -14.6916   24.9365 C   0  0  0  0  0  0  0  0  0  0  0  0
   10.3660  -16.8867   24.7061 C   0  0  0  0  0  0  0  0  0  0  0  0
   11.1703  -17.8400   24.5538 O   0  0  0  0  0  0  0  0  0  0  0  0
    9.9801  -13.5703   27.1363 C   0  0  0  0  0  0  0  0  0  0  0  0
   10.4239  -14.5539   28.2233 C   0  0  2  0  0  0  0  0  0  0  0  0
   10.5046  -13.8879   29.5629 C   0  0  0  0  0  0  0  0  0  0  0  0
   11.7053  -15.2348   27.8334 C   0  0  0  0  0  0  0  0  0  0  0  0
   11.4494  -16.3922   26.9533 C   0  0  2  0  0  0  0  0  0  0  0  0
   10.5492  -16.0703   25.8517 N   0  0  0  0  0  0  0  0  0  0  0  0
   11.0305  -17.5834   27.6774 C   0  0  0  0  0  0  0  0  0  0  0  0
   11.9199  -18.1781   28.6083 O   0  0  0  0  0  0  0  0  0  0  0  0
    9.9386  -18.1733   27.5789 O   0  0  0  0  0  0  0  0  0  0  0  0
  2  1  1  0
  3  2  2  0
  4  3  1  0
  5  4  2  0
  5 11  1  0
  6  5  1  0
  7  6  1  0
  7  8  1  6
  9 13  1  0
  9  7  1  0
 10  9  2  0
 11 12  2  0
 12  2  1  0
 14 25  1  0
 14 13  1  0
 14 15  1  1
 16 17  2  0
 16 15  1  0
 18 17  1  0
 19 24  2  0
 19 18  1  0
 20 19  1  0
 21 22  1  0
 21 20  2  0
 22 23  2  0
 23 24  1  0
 24 16  1  0
 25 32  1  0
 26 25  2  0
 28 27  1  6
 28 30  1  0
 29 28  1  0
 31 33  1  0
 31 30  1  1
 32 31  1  0
 33 34  1  0
 35 33  2  0
M  END
$$$$
