YMT.pdb
     RDKit          3D

 28 28  0  0  1  0  0  0  0  0999 V2000
   10.4399  -13.7735   30.7718 O   0  0  0  0  0  0  0  0  0  0  0  0
   10.2461  -14.5899   29.6658 C   0  0  0  0  0  0  0  0  0  0  0  0
    9.7013  -14.0727   28.4972 C   0  0  0  0  0  0  0  0  0  0  0  0
    9.4993  -14.8632   27.3853 C   0  0  0  0  0  0  0  0  0  0  0  0
    9.8255  -16.2032   27.3737 C   0  0  0  0  0  0  0  0  0  0  0  0
    9.5943  -17.0259   26.1566 C   0  0  0  0  0  0  0  0  0  0  0  0
    8.1511  -16.8014   25.7496 C   0  0  2  0  0  0  0  0  0  0  0  0
    7.3960  -17.8772   26.3510 N   0  0  0  0  0  0  0  0  0  0  0  0
    7.9583  -16.8331   24.2953 C   0  0  0  0  0  0  0  0  0  0  0  0
    7.6678  -17.9324   23.7702 O   0  0  0  0  0  0  0  0  0  0  0  0
   10.3702  -16.7159   28.5455 C   0  0  0  0  0  0  0  0  0  0  0  0
   10.5729  -15.9267   29.6583 C   0  0  0  0  0  0  0  0  0  0  0  0
    7.3650  -11.9800   17.9987 C   0  0  0  0  0  0  0  0  0  0  0  0
    7.5277  -12.2699   19.7704 S   0  0  0  0  0  0  0  0  0  0  0  0
    7.8697  -14.0601   20.0737 C   0  0  0  0  0  0  0  0  0  0  0  0
    7.9257  -14.2832   21.5279 C   0  0  0  0  0  0  0  0  0  0  0  0
    7.9862  -15.6909   22.0273 C   0  0  2  0  0  0  0  0  0  0  0  0
    8.0938  -15.6717   23.5125 N   0  0  0  0  0  0  0  0  0  0  0  0
    9.0813  -16.5212   21.5647 C   0  0  0  0  0  0  0  0  0  0  0  0
    9.6556  -17.3473   22.3183 O   0  0  0  0  0  0  0  0  0  0  0  0
    9.5808  -19.2072   21.1886 C   0  0  0  0  0  0  0  0  0  0  0  0
    9.8461  -18.7566   19.7833 C   0  0  1  0  0  0  0  0  0  0  0  0
    8.6653  -18.7239   19.0493 O   0  0  0  0  0  0  0  0  0  0  0  0
   10.5407  -17.4017   19.7703 C   0  0  2  0  0  0  0  0  0  0  0  0
    9.5554  -16.4456   20.2359 N   0  0  0  0  0  0  0  0  0  0  0  0
   10.9551  -17.0264   18.4125 C   0  0  0  0  0  0  0  0  0  0  0  0
   12.0643  -17.5855   17.8367 O   0  0  0  0  0  0  0  0  0  0  0  0
   10.2834  -16.1853   17.7788 O   0  0  0  0  0  0  0  0  0  0  0  0
  2  1  1  0
  3  2  2  0
  4  3  1  0
  5  4  2  0
  5 11  1  0
  6  7  1  0
  6  5  1  0
  7  9  1  0
  7  8  1  1
  9 18  1  0
 10  9  2  0
 11 12  2  0
 12  2  1  0
 14 15  1  0
 14 13  1  0
 16 15  1  0
 17 16  1  6
 17 19  1  0
 18 17  1  0
 19 20  2  0
 22 21  1  1
 22 24  1  0
 23 22  1  0
 24 26  1  0
 25 19  1  0
 24 25  1  6
 26 28  2  0
 26 27  1  0
M  END
$$$$
