YMT.pdb
     RDKit          3D

 28 28  0  0  1  0  0  0  0  0999 V2000
    7.8770  -20.2269   20.8872 O   0  0  0  0  0  0  0  0  0  0  0  0
    8.0341  -18.9300   20.4174 C   0  0  0  0  0  0  0  0  0  0  0  0
    9.2151  -18.2363   20.6501 C   0  0  0  0  0  0  0  0  0  0  0  0
    9.3952  -16.9475   20.1936 C   0  0  0  0  0  0  0  0  0  0  0  0
    8.4174  -16.2810   19.4850 C   0  0  0  0  0  0  0  0  0  0  0  0
    8.6460  -14.8913   19.0075 C   0  0  0  0  0  0  0  0  0  0  0  0
    7.8726  -13.9799   19.9403 C   0  0  2  0  0  0  0  0  0  0  0  0
    8.0699  -12.6383   19.4399 N   0  0  0  0  0  0  0  0  0  0  0  0
    8.3467  -14.0503   21.3272 C   0  0  0  0  0  0  0  0  0  0  0  0
    9.4774  -13.5754   21.5810 O   0  0  0  0  0  0  0  0  0  0  0  0
    7.2376  -16.9794   19.2550 C   0  0  0  0  0  0  0  0  0  0  0  0
    7.0559  -18.2684   19.7108 C   0  0  0  0  0  0  0  0  0  0  0  0
    7.8075  -11.9061   28.1011 C   0  0  0  0  0  0  0  0  0  0  0  0
    7.7486  -12.1222   26.3124 S   0  0  0  0  0  0  0  0  0  0  0  0
    6.7203  -13.6017   25.9035 C   0  0  0  0  0  0  0  0  0  0  0  0
    6.7017  -13.7654   24.4404 C   0  0  0  0  0  0  0  0  0  0  0  0
    7.8620  -14.4461   23.7884 C   0  0  2  0  0  0  0  0  0  0  0  0
    7.5623  -14.6303   22.3413 N   0  0  0  0  0  0  0  0  0  0  0  0
    8.2355  -15.7573   24.2823 C   0  0  0  0  0  0  0  0  0  0  0  0
    7.4459  -16.7346   24.2411 O   0  0  0  0  0  0  0  0  0  0  0  0
   10.6402  -18.0159   23.1198 C   0  0  0  0  0  0  0  0  0  0  0  0
   11.0144  -17.8205   24.5585 C   0  0  1  0  0  0  0  0  0  0  0  0
   12.0999  -16.9582   24.6685 O   0  0  0  0  0  0  0  0  0  0  0  0
    9.8254  -17.3150   25.3643 C   0  0  2  0  0  0  0  0  0  0  0  0
    9.5136  -16.0031   24.8320 N   0  0  0  0  0  0  0  0  0  0  0  0
   10.1632  -17.1774   26.7866 C   0  0  0  0  0  0  0  0  0  0  0  0
   10.4863  -18.2731   27.5413 O   0  0  0  0  0  0  0  0  0  0  0  0
   10.1539  -16.0434   27.3102 O   0  0  0  0  0  0  0  0  0  0  0  0
  2  1  1  0
  3  2  2  0
  4  3  1  0
  5  4  2  0
  5 11  1  0
  6  7  1  0
  6  5  1  0
  7  9  1  0
  7  8  1  6
  9 18  1  0
 10  9  2  0
 11 12  2  0
 12  2  1  0
 14 15  1  0
 14 13  1  0
 16 15  1  0
 17 16  1  1
 17 19  1  0
 18 17  1  0
 19 20  2  0
 22 21  1  6
 22 24  1  0
 23 22  1  0
 24 26  1  0
 25 19  1  0
 24 25  1  6
 26 28  2  0
 26 27  1  0
M  END
$$$$
