YMT.pdb
     RDKit          3D

 28 28  0  0  1  0  0  0  0  0999 V2000
    8.4838  -19.8706   15.4502 O   0  0  0  0  0  0  0  0  0  0  0  0
    8.7400  -19.4353   16.7434 C   0  0  0  0  0  0  0  0  0  0  0  0
    9.9777  -18.8964   17.0714 C   0  0  0  0  0  0  0  0  0  0  0  0
   10.2563  -18.4570   18.3486 C   0  0  0  0  0  0  0  0  0  0  0  0
    9.3258  -18.5286   19.3641 C   0  0  0  0  0  0  0  0  0  0  0  0
    9.6603  -18.0449   20.7299 C   0  0  0  0  0  0  0  0  0  0  0  0
    9.2440  -16.5881   20.7878 C   0  0  2  0  0  0  0  0  0  0  0  0
   10.1098  -15.8898   19.8648 N   0  0  0  0  0  0  0  0  0  0  0  0
    9.3973  -16.0050   22.1256 C   0  0  0  0  0  0  0  0  0  0  0  0
   10.5594  -15.8721   22.5733 O   0  0  0  0  0  0  0  0  0  0  0  0
    8.0889  -19.0688   19.0308 C   0  0  0  0  0  0  0  0  0  0  0  0
    7.8087  -19.5087   17.7540 C   0  0  0  0  0  0  0  0  0  0  0  0
    7.5078  -11.4900   27.7477 C   0  0  0  0  0  0  0  0  0  0  0  0
    7.8052  -12.1938   26.1150 S   0  0  0  0  0  0  0  0  0  0  0  0
    6.9920  -13.8487   25.9992 C   0  0  0  0  0  0  0  0  0  0  0  0
    7.1469  -14.3479   24.6228 C   0  0  0  0  0  0  0  0  0  0  0  0
    8.4031  -15.0778   24.2706 C   0  0  2  0  0  0  0  0  0  0  0  0
    8.2808  -15.6071   22.8840 N   0  0  0  0  0  0  0  0  0  0  0  0
    8.7736  -16.2129   25.0933 C   0  0  0  0  0  0  0  0  0  0  0  0
    7.9846  -17.1684   25.3046 O   0  0  0  0  0  0  0  0  0  0  0  0
   11.5903  -18.4687   24.5484 C   0  0  0  0  0  0  0  0  0  0  0  0
   11.7272  -17.9601   25.9523 C   0  0  1  0  0  0  0  0  0  0  0  0
   12.6900  -16.9587   26.0177 O   0  0  0  0  0  0  0  0  0  0  0  0
   10.3871  -17.4716   26.4851 C   0  0  2  0  0  0  0  0  0  0  0  0
   10.0480  -16.3033   25.6966 N   0  0  0  0  0  0  0  0  0  0  0  0
   10.4852  -17.0748   27.8954 C   0  0  0  0  0  0  0  0  0  0  0  0
   10.8210  -17.9865   28.8602 O   0  0  0  0  0  0  0  0  0  0  0  0
   10.2579  -15.8886   28.2140 O   0  0  0  0  0  0  0  0  0  0  0  0
  2  1  1  0
  3  2  2  0
  4  3  1  0
  5  4  2  0
  5 11  1  0
  6  7  1  0
  6  5  1  0
  7  9  1  0
  7  8  1  6
  9 18  1  0
 10  9  2  0
 11 12  2  0
 12  2  1  0
 14 15  1  0
 14 13  1  0
 16 15  1  0
 17 16  1  1
 17 19  1  0
 18 17  1  0
 19 20  2  0
 22 21  1  6
 22 24  1  0
 23 22  1  0
 24 26  1  0
 25 19  1  0
 24 25  1  6
 26 28  2  0
 26 27  1  0
M  END
$$$$
