YMT.pdb
     RDKit          3D

 28 28  0  0  1  0  0  0  0  0999 V2000
    7.2075  -13.8579   15.1586 O   0  0  0  0  0  0  0  0  0  0  0  0
    7.3698  -14.2909   16.4676 C   0  0  0  0  0  0  0  0  0  0  0  0
    7.8726  -15.5588   16.7313 C   0  0  0  0  0  0  0  0  0  0  0  0
    8.0432  -16.0117   18.0227 C   0  0  0  0  0  0  0  0  0  0  0  0
    7.7252  -15.2341   19.1166 C   0  0  0  0  0  0  0  0  0  0  0  0
    7.9225  -15.7546   20.4956 C   0  0  0  0  0  0  0  0  0  0  0  0
    8.9828  -14.8833   21.1401 C   0  0  2  0  0  0  0  0  0  0  0  0
   10.2264  -15.2191   20.4844 N   0  0  0  0  0  0  0  0  0  0  0  0
    9.1187  -15.1242   22.5812 C   0  0  0  0  0  0  0  0  0  0  0  0
   10.0435  -15.8787   22.9609 O   0  0  0  0  0  0  0  0  0  0  0  0
    7.2223  -13.9664   18.8474 C   0  0  0  0  0  0  0  0  0  0  0  0
    7.0511  -13.5119   17.5564 C   0  0  0  0  0  0  0  0  0  0  0  0
    6.8902  -10.7952   27.1122 C   0  0  0  0  0  0  0  0  0  0  0  0
    6.2917  -12.3917   27.6976 S   0  0  0  0  0  0  0  0  0  0  0  0
    7.4425  -13.7247   27.1386 C   0  0  0  0  0  0  0  0  0  0  0  0
    7.4900  -13.7114   25.6671 C   0  0  0  0  0  0  0  0  0  0  0  0
    8.4520  -14.6270   24.9807 C   0  0  2  0  0  0  0  0  0  0  0  0
    8.2433  -14.5307   23.5093 N   0  0  0  0  0  0  0  0  0  0  0  0
    8.3762  -16.0402   25.2966 C   0  0  0  0  0  0  0  0  0  0  0  0
    7.3288  -16.7095   25.1092 O   0  0  0  0  0  0  0  0  0  0  0  0
    9.8223  -18.9969   24.0163 C   0  0  0  0  0  0  0  0  0  0  0  0
   10.2732  -18.9430   25.4453 C   0  0  1  0  0  0  0  0  0  0  0  0
   11.5741  -18.4587   25.5294 O   0  0  0  0  0  0  0  0  0  0  0  0
    9.3179  -18.1049   26.2840 C   0  0  2  0  0  0  0  0  0  0  0  0
    9.4832  -16.7386   25.8284 N   0  0  0  0  0  0  0  0  0  0  0  0
    9.6611  -18.1698   27.7102 C   0  0  0  0  0  0  0  0  0  0  0  0
    9.5417  -19.3411   28.4091 O   0  0  0  0  0  0  0  0  0  0  0  0
   10.0667  -17.1399   28.2890 O   0  0  0  0  0  0  0  0  0  0  0  0
  2  1  1  0
  3  2  2  0
  4  3  1  0
  5  4  2  0
  5 11  1  0
  6  7  1  0
  6  5  1  0
  7  9  1  0
  7  8  1  6
  9 18  1  0
 10  9  2  0
 11 12  2  0
 12  2  1  0
 14 15  1  0
 14 13  1  0
 16 15  1  0
 17 16  1  1
 17 19  1  0
 18 17  1  0
 19 20  2  0
 22 21  1  6
 22 24  1  0
 23 22  1  0
 24 26  1  0
 25 19  1  0
 24 25  1  6
 26 28  2  0
 26 27  1  0
M  END
$$$$
