YMT.pdb
     RDKit          3D

 28 28  0  0  1  0  0  0  0  0999 V2000
    9.5120  -19.8458   29.8014 O   0  0  0  0  0  0  0  0  0  0  0  0
    8.8695  -20.0650   28.5903 C   0  0  0  0  0  0  0  0  0  0  0  0
    7.6113  -20.6531   28.5586 C   0  0  0  0  0  0  0  0  0  0  0  0
    6.9527  -20.8810   27.3685 C   0  0  0  0  0  0  0  0  0  0  0  0
    7.5050  -20.5390   26.1518 C   0  0  0  0  0  0  0  0  0  0  0  0
    6.7661  -20.7991   24.8877 C   0  0  0  0  0  0  0  0  0  0  0  0
    5.7270  -19.7024   24.7596 C   0  0  2  0  0  0  0  0  0  0  0  0
    4.7285  -20.2053   23.8436 N   0  0  0  0  0  0  0  0  0  0  0  0
    6.2814  -18.4523   24.2277 C   0  0  0  0  0  0  0  0  0  0  0  0
    6.4361  -18.3648   22.9879 O   0  0  0  0  0  0  0  0  0  0  0  0
    8.7641  -19.9510   26.1891 C   0  0  0  0  0  0  0  0  0  0  0  0
    9.4241  -19.7224   27.3783 C   0  0  0  0  0  0  0  0  0  0  0  0
    7.2320  -10.8444   26.2697 C   0  0  0  0  0  0  0  0  0  0  0  0
    6.6370  -12.5201   26.5657 S   0  0  0  0  0  0  0  0  0  0  0  0
    7.2042  -13.6266   25.1991 C   0  0  0  0  0  0  0  0  0  0  0  0
    6.7416  -14.9946   25.4857 C   0  0  0  0  0  0  0  0  0  0  0  0
    7.1582  -16.0922   24.5603 C   0  0  2  0  0  0  0  0  0  0  0  0
    6.6291  -17.3851   25.0764 N   0  0  0  0  0  0  0  0  0  0  0  0
    8.5794  -16.3004   24.3619 C   0  0  0  0  0  0  0  0  0  0  0  0
    9.3218  -16.7428   25.2749 O   0  0  0  0  0  0  0  0  0  0  0  0
    9.8218  -17.2673   20.6698 C   0  0  0  0  0  0  0  0  0  0  0  0
   10.7829  -16.3703   21.3910 C   0  0  1  0  0  0  0  0  0  0  0  0
   10.6707  -15.0628   20.9308 O   0  0  0  0  0  0  0  0  0  0  0  0
   10.5686  -16.4449   22.8967 C   0  0  2  0  0  0  0  0  0  0  0  0
    9.2016  -16.0198   23.1249 N   0  0  0  0  0  0  0  0  0  0  0  0
   11.4704  -15.5322   23.6108 C   0  0  0  0  0  0  0  0  0  0  0  0
   12.8277  -15.7062   23.5641 O   0  0  0  0  0  0  0  0  0  0  0  0
   10.9878  -14.5862   24.2684 O   0  0  0  0  0  0  0  0  0  0  0  0
  2  1  1  0
  3  2  2  0
  4  3  1  0
  5  4  2  0
  5 11  1  0
  6  7  1  0
  6  5  1  0
  7  9  1  0
  7  8  1  6
  9 18  1  0
 10  9  2  0
 11 12  2  0
 12  2  1  0
 14 15  1  0
 14 13  1  0
 16 15  1  0
 17 16  1  1
 17 19  1  0
 18 17  1  0
 19 20  2  0
 22 21  1  6
 22 24  1  0
 23 22  1  0
 24 26  1  0
 25 19  1  0
 24 25  1  6
 26 28  2  0
 26 27  1  0
M  END
$$$$
