YMT.pdb
     RDKit          3D

 28 28  0  0  1  0  0  0  0  0999 V2000
    0.3878  -19.8355   20.4316 O   0  0  0  0  0  0  0  0  0  0  0  0
    1.6326  -19.5167   20.9572 C   0  0  0  0  0  0  0  0  0  0  0  0
    1.7331  -18.8578   22.1761 C   0  0  0  0  0  0  0  0  0  0  0  0
    2.9578  -18.5305   22.7191 C   0  0  0  0  0  0  0  0  0  0  0  0
    4.1430  -18.8380   22.0843 C   0  0  0  0  0  0  0  0  0  0  0  0
    5.4462  -18.4701   22.6991 C   0  0  0  0  0  0  0  0  0  0  0  0
    5.8562  -17.1455   22.0856 C   0  0  2  0  0  0  0  0  0  0  0  0
    6.2797  -17.4458   20.7367 N   0  0  0  0  0  0  0  0  0  0  0  0
    6.9621  -16.5032   22.8051 C   0  0  0  0  0  0  0  0  0  0  0  0
    8.1297  -16.7880   22.4525 O   0  0  0  0  0  0  0  0  0  0  0  0
    4.0371  -19.4971   20.8649 C   0  0  0  0  0  0  0  0  0  0  0  0
    2.8130  -19.8252   20.3205 C   0  0  0  0  0  0  0  0  0  0  0  0
    6.1773  -11.9370   28.1349 C   0  0  0  0  0  0  0  0  0  0  0  0
    7.2175  -11.4415   26.7485 S   0  0  0  0  0  0  0  0  0  0  0  0
    8.1550  -12.9069   26.1262 C   0  0  0  0  0  0  0  0  0  0  0  0
    7.2843  -13.6612   25.2094 C   0  0  0  0  0  0  0  0  0  0  0  0
    7.8274  -14.9015   24.5756 C   0  0  2  0  0  0  0  0  0  0  0  0
    6.7252  -15.5976   23.8556 N   0  0  0  0  0  0  0  0  0  0  0  0
    8.4180  -15.8981   25.4478 C   0  0  0  0  0  0  0  0  0  0  0  0
    7.7184  -16.6306   26.1923 O   0  0  0  0  0  0  0  0  0  0  0  0
   10.5795  -18.5609   24.2580 C   0  0  0  0  0  0  0  0  0  0  0  0
   11.3135  -17.9369   25.4070 C   0  0  1  0  0  0  0  0  0  0  0  0
   12.3352  -17.1141   24.9453 O   0  0  0  0  0  0  0  0  0  0  0  0
   10.3561  -17.1722   26.3109 C   0  0  2  0  0  0  0  0  0  0  0  0
    9.8154  -16.0992   25.4999 N   0  0  0  0  0  0  0  0  0  0  0  0
   11.0586  -16.5857   27.4592 C   0  0  0  0  0  0  0  0  0  0  0  0
   11.1688  -15.2279   27.5968 O   0  0  0  0  0  0  0  0  0  0  0  0
   11.5609  -17.3399   28.3189 O   0  0  0  0  0  0  0  0  0  0  0  0
  2  1  1  0
  3  2  2  0
  4  3  1  0
  5  4  2  0
  5 11  1  0
  6  7  1  0
  6  5  1  0
  7  9  1  0
  7  8  1  6
  9 18  1  0
 10  9  2  0
 11 12  2  0
 12  2  1  0
 14 15  1  0
 14 13  1  0
 16 15  1  0
 17 16  1  1
 17 19  1  0
 18 17  1  0
 19 20  2  0
 22 21  1  6
 22 24  1  0
 23 22  1  0
 24 26  1  0
 25 19  1  0
 24 25  1  6
 26 28  2  0
 26 27  1  0
M  END
$$$$
