YMT.pdb
     RDKit          3D

 28 28  0  0  1  0  0  0  0  0999 V2000
   12.3204  -18.1732   31.4367 O   0  0  0  0  0  0  0  0  0  0  0  0
   11.2028  -17.9109   30.6559 C   0  0  0  0  0  0  0  0  0  0  0  0
   11.0415  -16.6692   30.0542 C   0  0  0  0  0  0  0  0  0  0  0  0
    9.9404  -16.3845   29.2740 C   0  0  0  0  0  0  0  0  0  0  0  0
    8.9450  -17.3126   29.0504 C   0  0  0  0  0  0  0  0  0  0  0  0
    7.7715  -16.9715   28.2031 C   0  0  0  0  0  0  0  0  0  0  0  0
    7.9867  -17.6577   26.8682 C   0  0  2  0  0  0  0  0  0  0  0  0
    9.4067  -17.9109   26.7753 N   0  0  0  0  0  0  0  0  0  0  0  0
    7.5701  -16.8311   25.7296 C   0  0  0  0  0  0  0  0  0  0  0  0
    6.3572  -16.8385   25.4175 O   0  0  0  0  0  0  0  0  0  0  0  0
    9.1111  -18.5535   29.6548 C   0  0  0  0  0  0  0  0  0  0  0  0
   10.2116  -18.8398   30.4353 C   0  0  0  0  0  0  0  0  0  0  0  0
    5.6575  -12.1361   26.7939 C   0  0  0  0  0  0  0  0  0  0  0  0
    6.1877  -12.9608   25.2811 S   0  0  0  0  0  0  0  0  0  0  0  0
    8.0157  -13.2246   25.3305 C   0  0  0  0  0  0  0  0  0  0  0  0
    8.4339  -13.8243   24.0526 C   0  0  0  0  0  0  0  0  0  0  0  0
    8.1147  -15.2639   23.8070 C   0  0  2  0  0  0  0  0  0  0  0  0
    8.4969  -16.0548   25.0096 N   0  0  0  0  0  0  0  0  0  0  0  0
    8.7650  -15.9144   22.6860 C   0  0  0  0  0  0  0  0  0  0  0  0
    9.9453  -16.3413   22.7566 O   0  0  0  0  0  0  0  0  0  0  0  0
    6.8471  -18.3455   20.1122 C   0  0  0  0  0  0  0  0  0  0  0  0
    7.6761  -17.2905   19.4430 C   0  0  1  0  0  0  0  0  0  0  0  0
    6.8734  -16.2418   19.0069 O   0  0  0  0  0  0  0  0  0  0  0  0
    8.7749  -16.7936   20.3726 C   0  0  2  0  0  0  0  0  0  0  0  0
    8.0988  -16.1057   21.4549 N   0  0  0  0  0  0  0  0  0  0  0  0
    9.6614  -15.8416   19.6915 C   0  0  0  0  0  0  0  0  0  0  0  0
   10.4998  -16.2545   18.6909 O   0  0  0  0  0  0  0  0  0  0  0  0
    9.6468  -14.6403   20.0334 O   0  0  0  0  0  0  0  0  0  0  0  0
  2  1  1  0
  3  2  2  0
  4  3  1  0
  5  4  2  0
  5 11  1  0
  6  7  1  0
  6  5  1  0
  7  9  1  0
  7  8  1  6
  9 18  1  0
 10  9  2  0
 11 12  2  0
 12  2  1  0
 14 15  1  0
 14 13  1  0
 16 15  1  0
 17 16  1  1
 17 19  1  0
 18 17  1  0
 19 20  2  0
 22 21  1  1
 22 24  1  0
 23 22  1  0
 24 26  1  0
 25 19  1  0
 24 25  1  1
 26 28  2  0
 26 27  1  0
M  END
$$$$
