YMT.pdb
     RDKit          3D

 28 28  0  0  1  0  0  0  0  0999 V2000
    3.9583  -25.0488   24.9546 O   0  0  0  0  0  0  0  0  0  0  0  0
    4.2670  -23.7549   24.5571 C   0  0  0  0  0  0  0  0  0  0  0  0
    5.5655  -23.4227   24.1919 C   0  0  0  0  0  0  0  0  0  0  0  0
    5.8969  -22.1447   23.7933 C   0  0  0  0  0  0  0  0  0  0  0  0
    4.9617  -21.1326   23.7363 C   0  0  0  0  0  0  0  0  0  0  0  0
    5.3543  -19.7657   23.3015 C   0  0  0  0  0  0  0  0  0  0  0  0
    6.5515  -19.3702   24.1436 C   0  0  2  0  0  0  0  0  0  0  0  0
    6.0785  -19.3191   25.5085 N   0  0  0  0  0  0  0  0  0  0  0  0
    7.0985  -18.0595   23.7750 C   0  0  0  0  0  0  0  0  0  0  0  0
    7.2378  -17.8084   22.5559 O   0  0  0  0  0  0  0  0  0  0  0  0
    3.6639  -21.4701   24.1030 C   0  0  0  0  0  0  0  0  0  0  0  0
    3.3308  -22.7477   24.5018 C   0  0  0  0  0  0  0  0  0  0  0  0
    7.6427  -12.1871   26.8339 C   0  0  0  0  0  0  0  0  0  0  0  0
    6.0522  -13.0056   26.6101 S   0  0  0  0  0  0  0  0  0  0  0  0
    6.2543  -14.4451   25.4696 C   0  0  0  0  0  0  0  0  0  0  0  0
    7.6854  -14.7832   25.3963 C   0  0  0  0  0  0  0  0  0  0  0  0
    8.1186  -15.8232   24.4137 C   0  0  2  0  0  0  0  0  0  0  0  0
    7.4562  -17.1131   24.7530 N   0  0  0  0  0  0  0  0  0  0  0  0
    9.5356  -16.1192   24.3299 C   0  0  0  0  0  0  0  0  0  0  0  0
   10.1516  -16.6975   25.2607 O   0  0  0  0  0  0  0  0  0  0  0  0
   10.7283  -17.4038   20.8975 C   0  0  0  0  0  0  0  0  0  0  0  0
   11.7740  -16.5021   21.4820 C   0  0  1  0  0  0  0  0  0  0  0  0
   11.7445  -15.2557   20.8659 O   0  0  0  0  0  0  0  0  0  0  0  0
   11.6000  -16.3759   22.9894 C   0  0  2  0  0  0  0  0  0  0  0  0
   10.2960  -15.7752   23.1900 N   0  0  0  0  0  0  0  0  0  0  0  0
   12.6188  -15.4941   23.5731 C   0  0  0  0  0  0  0  0  0  0  0  0
   12.2614  -14.3570   24.2468 O   0  0  0  0  0  0  0  0  0  0  0  0
   13.8262  -15.7897   23.4502 O   0  0  0  0  0  0  0  0  0  0  0  0
  2  1  1  0
  3  2  2  0
  4  3  1  0
  5  4  2  0
  5 11  1  0
  6  7  1  0
  6  5  1  0
  7  9  1  0
  7  8  1  1
  9 18  1  0
 10  9  2  0
 11 12  2  0
 12  2  1  0
 14 15  1  0
 14 13  1  0
 16 15  1  0
 17 16  1  1
 17 19  1  0
 18 17  1  0
 19 20  2  0
 22 21  1  6
 22 24  1  0
 23 22  1  0
 24 26  1  0
 25 19  1  0
 24 25  1  6
 26 28  2  0
 26 27  1  0
M  END
$$$$
