YMT.pdb
     RDKit          3D

 28 28  0  0  1  0  0  0  0  0999 V2000
    9.1748  -20.1657   29.7242 O   0  0  0  0  0  0  0  0  0  0  0  0
    8.4957  -20.1464   28.5134 C   0  0  0  0  0  0  0  0  0  0  0  0
    7.5239  -21.0999   28.2374 C   0  0  0  0  0  0  0  0  0  0  0  0
    6.8356  -21.1016   27.0423 C   0  0  0  0  0  0  0  0  0  0  0  0
    7.0739  -20.1615   26.0617 C   0  0  0  0  0  0  0  0  0  0  0  0
    6.3124  -20.1931   24.7847 C   0  0  0  0  0  0  0  0  0  0  0  0
    5.6942  -18.8191   24.6147 C   0  0  2  0  0  0  0  0  0  0  0  0
    4.6754  -18.9639   23.5996 N   0  0  0  0  0  0  0  0  0  0  0  0
    6.6649  -17.8079   24.1808 C   0  0  0  0  0  0  0  0  0  0  0  0
    7.2133  -17.9674   23.0661 O   0  0  0  0  0  0  0  0  0  0  0  0
    8.0473  -19.2096   26.3428 C   0  0  0  0  0  0  0  0  0  0  0  0
    8.7366  -19.2065   27.5374 C   0  0  0  0  0  0  0  0  0  0  0  0
    7.4722  -11.1493   25.9877 C   0  0  0  0  0  0  0  0  0  0  0  0
    6.2335  -12.3573   26.4937 S   0  0  0  0  0  0  0  0  0  0  0  0
    6.2631  -13.7943   25.3328 C   0  0  0  0  0  0  0  0  0  0  0  0
    7.6127  -14.3823   25.3544 C   0  0  0  0  0  0  0  0  0  0  0  0
    7.8694  -15.5987   24.5242 C   0  0  2  0  0  0  0  0  0  0  0  0
    6.9731  -16.6951   24.9850 N   0  0  0  0  0  0  0  0  0  0  0  0
    9.2092  -16.1530   24.5413 C   0  0  0  0  0  0  0  0  0  0  0  0
    9.6635  -16.7670   25.5397 O   0  0  0  0  0  0  0  0  0  0  0  0
   10.4974  -18.1398   21.4835 C   0  0  0  0  0  0  0  0  0  0  0  0
   11.5385  -17.1645   21.9451 C   0  0  1  0  0  0  0  0  0  0  0  0
   11.5536  -16.0411   21.1254 O   0  0  0  0  0  0  0  0  0  0  0  0
   11.3143  -16.7809   23.4015 C   0  0  2  0  0  0  0  0  0  0  0  0
   10.0721  -16.0340   23.4290 N   0  0  0  0  0  0  0  0  0  0  0  0
   12.3931  -15.9179   23.8991 C   0  0  0  0  0  0  0  0  0  0  0  0
   13.6839  -16.3704   23.9592 O   0  0  0  0  0  0  0  0  0  0  0  0
   12.1242  -14.7564   24.2717 O   0  0  0  0  0  0  0  0  0  0  0  0
  2  1  1  0
  3  2  2  0
  4  3  1  0
  5  4  2  0
  5 11  1  0
  6  7  1  0
  6  5  1  0
  7  9  1  0
  7  8  1  6
  9 18  1  0
 10  9  2  0
 11 12  2  0
 12  2  1  0
 14 15  1  0
 14 13  1  0
 16 15  1  0
 17 16  1  1
 17 19  1  0
 18 17  1  0
 19 20  2  0
 22 21  1  6
 22 24  1  0
 23 22  1  0
 24 26  1  0
 25 19  1  0
 24 25  1  6
 26 28  2  0
 26 27  1  0
M  END
$$$$
