LYR.pdb
     RDKit          3D

 32 32  0  0  1  0  0  0  0  0999 V2000
   10.2758  -18.7120   15.9403 C   0  0  0  0  0  0  0  0  0  0  0  0
    9.4980  -17.4479   16.2324 C   0  0  2  0  0  0  0  0  0  0  0  0
    9.5251  -16.5070   15.0511 C   0  0  0  0  0  0  0  0  0  0  0  0
   10.1433  -16.7565   17.4082 C   0  0  0  0  0  0  0  0  0  0  0  0
    9.9590  -17.6312   18.6392 C   0  0  2  0  0  0  0  0  0  0  0  0
    8.6377  -18.1805   18.7125 N   0  0  0  0  0  0  0  0  0  0  0  0
   10.2783  -16.8874   19.8778 C   0  0  0  0  0  0  0  0  0  0  0  0
   11.3986  -16.3761   20.1057 O   0  0  0  0  0  0  0  0  0  0  0  0
    7.1752  -11.4768   18.1223 O   0  0  0  0  0  0  0  0  0  0  0  0
    7.4788  -12.3466   19.1706 C   0  0  0  0  0  0  0  0  0  0  0  0
    8.6438  -12.2218   19.8991 C   0  0  0  0  0  0  0  0  0  0  0  0
    8.9215  -13.1097   20.9456 C   0  0  0  0  0  0  0  0  0  0  0  0
    8.0475  -14.1219   21.2727 C   0  0  0  0  0  0  0  0  0  0  0  0
    8.3121  -15.0749   22.3632 C   0  0  0  0  0  0  0  0  0  0  0  0
    9.4690  -15.9581   22.0705 C   0  0  2  0  0  0  0  0  0  0  0  0
    9.2773  -16.7398   20.8608 N   0  0  0  0  0  0  0  0  0  0  0  0
    9.7580  -16.8958   23.1599 C   0  0  0  0  0  0  0  0  0  0  0  0
    8.9377  -17.7893   23.4503 O   0  0  0  0  0  0  0  0  0  0  0  0
    6.8857  -14.2223   20.5235 C   0  0  0  0  0  0  0  0  0  0  0  0
    6.6083  -13.3457   19.4880 C   0  0  0  0  0  0  0  0  0  0  0  0
   16.2076  -21.1974   22.5923 N   0  0  0  0  0  0  0  0  0  0  0  0
   15.4459  -22.1882   23.2634 C   0  0  0  0  0  0  0  0  0  0  0  0
   15.6825  -23.4466   23.1163 N   0  0  0  0  0  0  0  0  0  0  0  0
   14.4085  -21.7694   24.1081 N   0  0  0  0  0  0  0  0  0  0  0  0
   14.1439  -20.3215   24.3476 C   0  0  0  0  0  0  0  0  0  0  0  0
   12.6942  -20.1348   24.1895 C   0  0  0  0  0  0  0  0  0  0  0  0
   12.0762  -18.8865   23.8013 C   0  0  0  0  0  0  0  0  0  0  0  0
   11.4505  -17.9446   24.7458 C   0  0  2  0  0  0  0  0  0  0  0  0
   10.9583  -16.7941   23.8823 N   0  0  0  0  0  0  0  0  0  0  0  0
   12.3554  -17.3344   25.7302 C   0  0  0  0  0  0  0  0  0  0  0  0
   12.5224  -17.9733   26.8492 O   0  0  0  0  0  0  0  0  0  0  0  0
   13.0685  -16.1658   25.6335 O   0  0  0  0  0  0  0  0  0  0  0  0
  2  3  1  6
  2  1  1  0
  4  2  1  0
  5  4  1  0
  5  6  1  1
  7  5  1  0
  8  7  2  0
  9 10  1  0
 10 11  2  0
 10 20  1  0
 11 12  1  0
 12 13  2  0
 13 14  1  0
 15 14  1  1
 15 16  1  0
 16  7  1  0
 17 15  1  0
 17 18  2  0
 19 13  1  0
 20 19  2  0
 21 22  1  0
 22 24  1  0
 23 22  2  0
 24 25  1  0
 25 26  1  0
 26 27  1  0
 28 29  1  0
 28 27  1  6
 29 17  1  0
 30 28  1  0
 31 30  2  0
 32 30  1  0
M  END
$$$$
