LYR.pdb
     RDKit          3D

 32 32  0  0  1  0  0  0  0  0999 V2000
    7.0198  -11.6843   27.4304 C   0  0  0  0  0  0  0  0  0  0  0  0
    6.3426  -11.8212   26.0847 C   0  0  2  0  0  0  0  0  0  0  0  0
    4.9241  -11.3047   26.1344 C   0  0  0  0  0  0  0  0  0  0  0  0
    6.3051  -13.2852   25.7208 C   0  0  0  0  0  0  0  0  0  0  0  0
    7.6422  -13.9069   26.0952 C   0  0  2  0  0  0  0  0  0  0  0  0
    8.6845  -12.9270   26.1749 N   0  0  0  0  0  0  0  0  0  0  0  0
    8.0162  -14.9827   25.1507 C   0  0  0  0  0  0  0  0  0  0  0  0
    7.2624  -15.9407   24.8631 O   0  0  0  0  0  0  0  0  0  0  0  0
    6.0538  -13.5111   19.1769 O   0  0  0  0  0  0  0  0  0  0  0  0
    7.1043  -13.9788   19.9676 C   0  0  0  0  0  0  0  0  0  0  0  0
    8.1102  -13.1407   20.4029 C   0  0  0  0  0  0  0  0  0  0  0  0
    9.1516  -13.6387   21.1954 C   0  0  0  0  0  0  0  0  0  0  0  0
    9.1996  -14.9660   21.5581 C   0  0  0  0  0  0  0  0  0  0  0  0
   10.2830  -15.5220   22.3853 C   0  0  0  0  0  0  0  0  0  0  0  0
    9.7936  -16.0117   23.6987 C   0  0  2  0  0  0  0  0  0  0  0  0
    9.2850  -14.9384   24.5357 N   0  0  0  0  0  0  0  0  0  0  0  0
   10.8276  -16.7151   24.4640 C   0  0  0  0  0  0  0  0  0  0  0  0
   11.6205  -16.0730   25.1814 O   0  0  0  0  0  0  0  0  0  0  0  0
    8.1756  -15.7835   21.1061 C   0  0  0  0  0  0  0  0  0  0  0  0
    7.1442  -15.2939   20.3223 C   0  0  0  0  0  0  0  0  0  0  0  0
    9.5423  -22.1755   30.1716 N   0  0  0  0  0  0  0  0  0  0  0  0
   10.9547  -22.0582   30.2334 C   0  0  0  0  0  0  0  0  0  0  0  0
   11.5915  -22.0659   31.3538 N   0  0  0  0  0  0  0  0  0  0  0  0
   11.6637  -21.9308   29.0308 N   0  0  0  0  0  0  0  0  0  0  0  0
   10.9593  -21.6732   27.7420 C   0  0  0  0  0  0  0  0  0  0  0  0
   11.6379  -20.5256   27.1224 C   0  0  0  0  0  0  0  0  0  0  0  0
   11.2739  -19.9654   25.8400 C   0  0  0  0  0  0  0  0  0  0  0  0
   11.9945  -18.8590   25.1863 C   0  0  2  0  0  0  0  0  0  0  0  0
   10.9318  -18.1141   24.3944 N   0  0  0  0  0  0  0  0  0  0  0  0
   13.0101  -19.2549   24.2004 C   0  0  0  0  0  0  0  0  0  0  0  0
   14.1468  -19.6785   24.6663 O   0  0  0  0  0  0  0  0  0  0  0  0
   12.9273  -19.2469   22.8306 O   0  0  0  0  0  0  0  0  0  0  0  0
  2  3  1  1
  2  1  1  0
  4  2  1  0
  5  4  1  0
  5  6  1  6
  7  5  1  0
  8  7  2  0
  9 10  1  0
 10 11  2  0
 10 20  1  0
 11 12  1  0
 12 13  2  0
 13 14  1  0
 15 14  1  6
 15 16  1  0
 16  7  1  0
 17 15  1  0
 17 18  2  0
 19 13  1  0
 20 19  2  0
 21 22  1  0
 22 24  1  0
 23 22  2  0
 24 25  1  0
 25 26  1  0
 26 27  1  0
 28 29  1  0
 28 27  1  6
 29 17  1  0
 30 28  1  0
 31 30  2  0
 32 30  1  0
M  END
$$$$
