LYR.pdb
     RDKit          3D

 32 32  0  0  1  0  0  0  0  0999 V2000
    7.6533  -12.5949   27.8530 C   0  0  0  0  0  0  0  0  0  0  0  0
    6.7479  -12.7172   26.6475 C   0  0  2  0  0  0  0  0  0  0  0  0
    5.6433  -11.6878   26.6898 C   0  0  0  0  0  0  0  0  0  0  0  0
    6.1216  -14.0901   26.6637 C   0  0  0  0  0  0  0  0  0  0  0  0
    7.1510  -15.0927   26.1640 C   0  0  2  0  0  0  0  0  0  0  0  0
    8.4639  -14.8040   26.6599 N   0  0  0  0  0  0  0  0  0  0  0  0
    7.1605  -15.1595   24.6859 C   0  0  0  0  0  0  0  0  0  0  0  0
    6.2618  -15.7170   24.0151 O   0  0  0  0  0  0  0  0  0  0  0  0
    8.6662  -13.3696   16.2784 O   0  0  0  0  0  0  0  0  0  0  0  0
    8.5816  -13.3315   17.6709 C   0  0  0  0  0  0  0  0  0  0  0  0
    9.6913  -13.0965   18.4564 C   0  0  0  0  0  0  0  0  0  0  0  0
    9.5756  -13.0640   19.8514 C   0  0  0  0  0  0  0  0  0  0  0  0
    8.3626  -13.2640   20.4711 C   0  0  0  0  0  0  0  0  0  0  0  0
    8.2083  -13.2415   21.9350 C   0  0  0  0  0  0  0  0  0  0  0  0
    8.3355  -14.5935   22.5352 C   0  0  2  0  0  0  0  0  0  0  0  0
    8.2321  -14.5684   23.9844 N   0  0  0  0  0  0  0  0  0  0  0  0
    9.6019  -15.2494   22.1951 C   0  0  0  0  0  0  0  0  0  0  0  0
   10.5928  -15.1216   22.9416 O   0  0  0  0  0  0  0  0  0  0  0  0
    7.2660  -13.4976   19.6563 C   0  0  0  0  0  0  0  0  0  0  0  0
    7.3772  -13.5303   18.2764 C   0  0  0  0  0  0  0  0  0  0  0  0
   10.7919  -20.5747   26.2914 N   0  0  0  0  0  0  0  0  0  0  0  0
   11.9638  -20.2233   25.5734 C   0  0  0  0  0  0  0  0  0  0  0  0
   12.9547  -19.6220   26.1371 N   0  0  0  0  0  0  0  0  0  0  0  0
   12.0300  -20.5467   24.2110 N   0  0  0  0  0  0  0  0  0  0  0  0
   10.9069  -20.2240   23.2847 C   0  0  0  0  0  0  0  0  0  0  0  0
   11.2888  -18.9873   22.5874 C   0  0  0  0  0  0  0  0  0  0  0  0
   10.3624  -18.1493   21.8591 C   0  0  0  0  0  0  0  0  0  0  0  0
   10.7684  -17.1056   20.9016 C   0  0  2  0  0  0  0  0  0  0  0  0
    9.7070  -16.0245   21.0285 N   0  0  0  0  0  0  0  0  0  0  0  0
   10.7563  -17.5005   19.4860 C   0  0  0  0  0  0  0  0  0  0  0  0
    9.6167  -17.4279   18.8660 O   0  0  0  0  0  0  0  0  0  0  0  0
   11.7978  -17.9386   18.7070 O   0  0  0  0  0  0  0  0  0  0  0  0
  2  3  1  1
  2  1  1  0
  4  2  1  0
  5  4  1  0
  5  6  1  6
  7  5  1  0
  8  7  2  0
  9 10  1  0
 10 11  2  0
 10 20  1  0
 11 12  1  0
 12 13  2  0
 13 14  1  0
 15 14  1  1
 15 16  1  0
 16  7  1  0
 17 15  1  0
 17 18  2  0
 19 13  1  0
 20 19  2  0
 21 22  1  0
 22 24  1  0
 23 22  2  0
 24 25  1  0
 25 26  1  0
 26 27  1  0
 28 29  1  0
 28 27  1  1
 29 17  1  0
 30 28  1  0
 31 30  2  0
 32 30  1  0
M  END
$$$$
