LYR.pdb
     RDKit          3D

 32 32  0  0  1  0  0  0  0  0999 V2000
    8.1011  -13.8674   18.4662 C   0  0  0  0  0  0  0  0  0  0  0  0
    7.1663  -13.3033   19.5132 C   0  0  2  0  0  0  0  0  0  0  0  0
    6.8136  -11.8662   19.2102 C   0  0  0  0  0  0  0  0  0  0  0  0
    7.8676  -13.3513   20.8485 C   0  0  0  0  0  0  0  0  0  0  0  0
    8.2558  -14.7941   21.1348 C   0  0  2  0  0  0  0  0  0  0  0  0
    7.1375  -15.6824   21.0193 N   0  0  0  0  0  0  0  0  0  0  0  0
    8.8840  -14.9256   22.4680 C   0  0  0  0  0  0  0  0  0  0  0  0
    9.9640  -14.3729   22.7790 O   0  0  0  0  0  0  0  0  0  0  0  0
    6.0178  -10.5993   27.0405 O   0  0  0  0  0  0  0  0  0  0  0  0
    6.4101  -11.9020   26.7293 C   0  0  0  0  0  0  0  0  0  0  0  0
    5.5548  -12.7843   26.1019 C   0  0  0  0  0  0  0  0  0  0  0  0
    5.9766  -14.0854   25.8023 C   0  0  0  0  0  0  0  0  0  0  0  0
    7.2445  -14.5154   26.1229 C   0  0  0  0  0  0  0  0  0  0  0  0
    7.7170  -15.8779   25.8267 C   0  0  0  0  0  0  0  0  0  0  0  0
    8.7771  -15.8926   24.7875 C   0  0  2  0  0  0  0  0  0  0  0  0
    8.2429  -15.7117   23.4484 N   0  0  0  0  0  0  0  0  0  0  0  0
    9.5555  -17.1351   24.7873 C   0  0  0  0  0  0  0  0  0  0  0  0
    8.9924  -18.2260   24.5675 O   0  0  0  0  0  0  0  0  0  0  0  0
    8.0812  -13.6072   26.7524 C   0  0  0  0  0  0  0  0  0  0  0  0
    7.6669  -12.3197   27.0500 C   0  0  0  0  0  0  0  0  0  0  0  0
   14.1362  -14.5941   20.3185 N   0  0  0  0  0  0  0  0  0  0  0  0
   13.9785  -15.9349   19.8829 C   0  0  0  0  0  0  0  0  0  0  0  0
   14.0499  -16.2606   18.6380 N   0  0  0  0  0  0  0  0  0  0  0  0
   13.7383  -16.9228   20.8480 N   0  0  0  0  0  0  0  0  0  0  0  0
   13.5520  -16.5702   22.2849 C   0  0  0  0  0  0  0  0  0  0  0  0
   13.3688  -17.8408   23.0017 C   0  0  0  0  0  0  0  0  0  0  0  0
   13.0719  -17.9385   24.4134 C   0  0  0  0  0  0  0  0  0  0  0  0
   11.7733  -18.3728   24.9574 C   0  0  2  0  0  0  0  0  0  0  0  0
   10.9379  -17.1048   25.0341 N   0  0  0  0  0  0  0  0  0  0  0  0
   11.8024  -18.9046   26.3272 C   0  0  0  0  0  0  0  0  0  0  0  0
   11.8596  -20.1965   26.4543 O   0  0  0  0  0  0  0  0  0  0  0  0
   11.7831  -18.2190   27.5159 O   0  0  0  0  0  0  0  0  0  0  0  0
  2  3  1  6
  2  1  1  0
  4  2  1  0
  5  4  1  0
  5  6  1  1
  7  5  1  0
  8  7  2  0
  9 10  1  0
 10 11  2  0
 10 20  1  0
 11 12  1  0
 12 13  2  0
 13 14  1  0
 15 14  1  1
 15 16  1  0
 16  7  1  0
 17 15  1  0
 17 18  2  0
 19 13  1  0
 20 19  2  0
 21 22  1  0
 22 24  1  0
 23 22  2  0
 24 25  1  0
 25 26  1  0
 26 27  1  0
 28 29  1  0
 28 27  1  1
 29 17  1  0
 30 28  1  0
 31 30  2  0
 32 30  1  0
M  END
$$$$
