LYR.pdb
     RDKit          3D

 32 32  0  0  1  0  0  0  0  0999 V2000
    6.8038  -13.9765   18.5464 C   0  0  0  0  0  0  0  0  0  0  0  0
    7.0300  -13.1192   19.7720 C   0  0  2  0  0  0  0  0  0  0  0  0
    6.9322  -11.6502   19.4341 C   0  0  0  0  0  0  0  0  0  0  0  0
    8.4182  -13.3974   20.2941 C   0  0  0  0  0  0  0  0  0  0  0  0
    8.4289  -14.7881   20.9108 C   0  0  2  0  0  0  0  0  0  0  0  0
    7.1037  -15.2788   21.1474 N   0  0  0  0  0  0  0  0  0  0  0  0
    9.2199  -14.8139   22.1610 C   0  0  0  0  0  0  0  0  0  0  0  0
   10.4418  -14.5432   22.2096 O   0  0  0  0  0  0  0  0  0  0  0  0
   11.1982  -15.4625   30.7242 O   0  0  0  0  0  0  0  0  0  0  0  0
   10.5133  -15.3573   29.5127 C   0  0  0  0  0  0  0  0  0  0  0  0
    9.9491  -16.4589   28.9031 C   0  0  0  0  0  0  0  0  0  0  0  0
    9.2678  -16.3224   27.6876 C   0  0  0  0  0  0  0  0  0  0  0  0
    9.1438  -15.0965   27.0734 C   0  0  0  0  0  0  0  0  0  0  0  0
    8.4388  -14.9200   25.7931 C   0  0  0  0  0  0  0  0  0  0  0  0
    9.2833  -15.2907   24.6298 C   0  0  2  0  0  0  0  0  0  0  0  0
    8.5758  -15.1600   23.3674 N   0  0  0  0  0  0  0  0  0  0  0  0
    9.7905  -16.6640   24.7104 C   0  0  0  0  0  0  0  0  0  0  0  0
    9.0281  -17.6264   24.4909 O   0  0  0  0  0  0  0  0  0  0  0  0
    9.7206  -14.0083   27.7093 C   0  0  0  0  0  0  0  0  0  0  0  0
   10.3950  -14.1401   28.9116 C   0  0  0  0  0  0  0  0  0  0  0  0
   16.4716  -19.4012   20.0989 N   0  0  0  0  0  0  0  0  0  0  0  0
   16.0984  -20.5170   20.8914 C   0  0  0  0  0  0  0  0  0  0  0  0
   16.6352  -21.6777   20.7311 N   0  0  0  0  0  0  0  0  0  0  0  0
   15.1149  -20.3348   21.8736 N   0  0  0  0  0  0  0  0  0  0  0  0
   14.4165  -19.0272   22.0346 C   0  0  0  0  0  0  0  0  0  0  0  0
   13.5352  -19.1706   23.2026 C   0  0  0  0  0  0  0  0  0  0  0  0
   12.6462  -18.1342   23.6782 C   0  0  0  0  0  0  0  0  0  0  0  0
   11.7528  -18.2801   24.8407 C   0  0  2  0  0  0  0  0  0  0  0  0
   11.1358  -16.9042   25.0349 N   0  0  0  0  0  0  0  0  0  0  0  0
   12.4129  -18.5954   26.1155 C   0  0  0  0  0  0  0  0  0  0  0  0
   12.7666  -17.5895   26.8580 O   0  0  0  0  0  0  0  0  0  0  0  0
   12.7105  -19.8247   26.6482 O   0  0  0  0  0  0  0  0  0  0  0  0
  2  3  1  6
  2  1  1  0
  4  2  1  0
  5  4  1  0
  5  6  1  1
  7  5  1  0
  8  7  2  0
  9 10  1  0
 10 11  2  0
 10 20  1  0
 11 12  1  0
 12 13  2  0
 13 14  1  0
 15 14  1  1
 15 16  1  0
 16  7  1  0
 17 15  1  0
 17 18  2  0
 19 13  1  0
 20 19  2  0
 21 22  1  0
 22 24  1  0
 23 22  2  0
 24 25  1  0
 25 26  1  0
 26 27  1  0
 28 29  1  0
 28 27  1  6
 29 17  1  0
 30 28  1  0
 31 30  2  0
 32 30  1  0
M  END
$$$$
