LYR.pdb
     RDKit          3D

 32 32  0  0  1  0  0  0  0  0999 V2000
    9.9777  -12.8392   18.7431 C   0  0  0  0  0  0  0  0  0  0  0  0
    8.4895  -12.9235   18.4858 C   0  0  2  0  0  0  0  0  0  0  0  0
    7.9193  -11.5680   18.1406 C   0  0  0  0  0  0  0  0  0  0  0  0
    7.8191  -13.4169   19.7445 C   0  0  0  0  0  0  0  0  0  0  0  0
    8.4413  -14.7511   20.1279 C   0  0  2  0  0  0  0  0  0  0  0  0
    8.6570  -15.5890   18.9858 N   0  0  0  0  0  0  0  0  0  0  0  0
    7.6196  -15.4554   21.1370 C   0  0  0  0  0  0  0  0  0  0  0  0
    7.2902  -14.9483   22.2337 O   0  0  0  0  0  0  0  0  0  0  0  0
    1.7557  -21.0921   24.4428 O   0  0  0  0  0  0  0  0  0  0  0  0
    2.6785  -20.4649   23.6045 C   0  0  0  0  0  0  0  0  0  0  0  0
    2.2962  -19.4806   22.7166 C   0  0  0  0  0  0  0  0  0  0  0  0
    3.2448  -18.8691   21.8879 C   0  0  0  0  0  0  0  0  0  0  0  0
    4.5723  -19.2305   21.9362 C   0  0  0  0  0  0  0  0  0  0  0  0
    5.5933  -18.6112   21.0751 C   0  0  0  0  0  0  0  0  0  0  0  0
    6.3227  -17.5171   21.7644 C   0  0  2  0  0  0  0  0  0  0  0  0
    7.1783  -16.7666   20.8611 N   0  0  0  0  0  0  0  0  0  0  0  0
    7.1608  -17.9991   22.8666 C   0  0  0  0  0  0  0  0  0  0  0  0
    8.1903  -18.6609   22.6265 O   0  0  0  0  0  0  0  0  0  0  0  0
    4.9265  -20.2219   22.8378 C   0  0  0  0  0  0  0  0  0  0  0  0
    3.9906  -20.8284   23.6588 C   0  0  0  0  0  0  0  0  0  0  0  0
    8.4895  -16.3781   30.1346 N   0  0  0  0  0  0  0  0  0  0  0  0
    9.6314  -15.5588   29.9417 C   0  0  0  0  0  0  0  0  0  0  0  0
   10.5618  -15.4654   30.8286 N   0  0  0  0  0  0  0  0  0  0  0  0
    9.7356  -14.8358   28.7452 N   0  0  0  0  0  0  0  0  0  0  0  0
    8.6262  -14.8268   27.7487 C   0  0  0  0  0  0  0  0  0  0  0  0
    8.6342  -16.1507   27.1095 C   0  0  0  0  0  0  0  0  0  0  0  0
    7.7865  -16.5178   25.9971 C   0  0  0  0  0  0  0  0  0  0  0  0
    7.8369  -17.8225   25.3143 C   0  0  2  0  0  0  0  0  0  0  0  0
    6.8103  -17.7192   24.1976 N   0  0  0  0  0  0  0  0  0  0  0  0
    7.4220  -18.9794   26.1202 C   0  0  0  0  0  0  0  0  0  0  0  0
    6.1518  -19.2516   26.1462 O   0  0  0  0  0  0  0  0  0  0  0  0
    8.1996  -19.8347   26.8600 O   0  0  0  0  0  0  0  0  0  0  0  0
  2  3  1  1
  2  1  1  0
  4  2  1  0
  5  4  1  0
  5  6  1  6
  7  5  1  0
  8  7  2  0
  9 10  1  0
 10 11  2  0
 10 20  1  0
 11 12  1  0
 12 13  2  0
 13 14  1  0
 15 14  1  6
 15 16  1  0
 16  7  1  0
 17 15  1  0
 17 18  2  0
 19 13  1  0
 20 19  2  0
 21 22  1  0
 22 24  1  0
 23 22  2  0
 24 25  1  0
 25 26  1  0
 26 27  1  0
 28 29  1  0
 28 27  1  1
 29 17  1  0
 30 28  1  0
 31 30  2  0
 32 30  1  0
M  END
$$$$
