LYR.pdb
     RDKit          3D

 32 32  0  0  1  0  0  0  0  0999 V2000
    7.4750  -14.4699   18.4448 C   0  0  0  0  0  0  0  0  0  0  0  0
    7.3527  -13.5835   19.6645 C   0  0  2  0  0  0  0  0  0  0  0  0
    7.1030  -12.1469   19.2703 C   0  0  0  0  0  0  0  0  0  0  0  0
    8.6517  -13.6496   20.4295 C   0  0  0  0  0  0  0  0  0  0  0  0
    8.7900  -15.0447   21.0202 C   0  0  2  0  0  0  0  0  0  0  0  0
    7.5173  -15.6769   21.2035 N   0  0  0  0  0  0  0  0  0  0  0  0
    9.5400  -15.0149   22.2953 C   0  0  0  0  0  0  0  0  0  0  0  0
   10.6673  -14.4838   22.4200 O   0  0  0  0  0  0  0  0  0  0  0  0
   10.9144  -15.0279   30.9849 O   0  0  0  0  0  0  0  0  0  0  0  0
   10.3450  -15.0714   29.7114 C   0  0  0  0  0  0  0  0  0  0  0  0
    9.9553  -16.2623   29.1340 C   0  0  0  0  0  0  0  0  0  0  0  0
    9.3868  -16.2748   27.8545 C   0  0  0  0  0  0  0  0  0  0  0  0
    9.2033  -15.1096   27.1445 C   0  0  0  0  0  0  0  0  0  0  0  0
    8.6137  -15.0889   25.7957 C   0  0  0  0  0  0  0  0  0  0  0  0
    9.5728  -15.5382   24.7553 C   0  0  2  0  0  0  0  0  0  0  0  0
    8.9660  -15.6123   23.4372 N   0  0  0  0  0  0  0  0  0  0  0  0
   10.1536  -16.8524   25.0475 C   0  0  0  0  0  0  0  0  0  0  0  0
   10.7958  -17.0322   26.1014 O   0  0  0  0  0  0  0  0  0  0  0  0
    9.6042  -13.9290   27.7501 C   0  0  0  0  0  0  0  0  0  0  0  0
   10.1667  -13.9135   29.0154 C   0  0  0  0  0  0  0  0  0  0  0  0
   16.3985  -18.2179   19.8753 N   0  0  0  0  0  0  0  0  0  0  0  0
   15.5177  -19.3131   19.6832 C   0  0  0  0  0  0  0  0  0  0  0  0
   15.7676  -20.2486   18.8327 N   0  0  0  0  0  0  0  0  0  0  0  0
   14.3448  -19.3643   20.4493 N   0  0  0  0  0  0  0  0  0  0  0  0
   13.5518  -18.1334   20.7315 C   0  0  0  0  0  0  0  0  0  0  0  0
   13.1603  -18.2095   22.1466 C   0  0  0  0  0  0  0  0  0  0  0  0
   11.8168  -17.9781   22.6286 C   0  0  0  0  0  0  0  0  0  0  0  0
   11.1788  -18.7565   23.7047 C   0  0  2  0  0  0  0  0  0  0  0  0
    9.9909  -17.9154   24.1440 N   0  0  0  0  0  0  0  0  0  0  0  0
   11.9884  -18.9513   24.9158 C   0  0  0  0  0  0  0  0  0  0  0  0
   11.9447  -18.0088   25.8091 O   0  0  0  0  0  0  0  0  0  0  0  0
   12.7961  -20.0098   25.2484 O   0  0  0  0  0  0  0  0  0  0  0  0
  2  3  1  6
  2  1  1  0
  4  2  1  0
  5  4  1  0
  5  6  1  1
  7  5  1  0
  8  7  2  0
  9 10  1  0
 10 11  2  0
 10 20  1  0
 11 12  1  0
 12 13  2  0
 13 14  1  0
 15 14  1  1
 15 16  1  0
 16  7  1  0
 17 15  1  0
 17 18  2  0
 19 13  1  0
 20 19  2  0
 21 22  1  0
 22 24  1  0
 23 22  2  0
 24 25  1  0
 25 26  1  0
 26 27  1  0
 28 29  1  0
 28 27  1  6
 29 17  1  0
 30 28  1  0
 31 30  2  0
 32 30  1  0
M  END
$$$$
