LYR.pdb
     RDKit          3D

 32 32  0  0  1  0  0  0  0  0999 V2000
    6.9196  -14.0222   18.5042 C   0  0  0  0  0  0  0  0  0  0  0  0
    7.2467  -13.2266   19.7485 C   0  0  2  0  0  0  0  0  0  0  0  0
    7.1884  -11.7420   19.4762 C   0  0  0  0  0  0  0  0  0  0  0  0
    8.6496  -13.5781   20.1794 C   0  0  0  0  0  0  0  0  0  0  0  0
    8.6255  -14.9637   20.8069 C   0  0  2  0  0  0  0  0  0  0  0  0
    7.2892  -15.4540   20.9708 N   0  0  0  0  0  0  0  0  0  0  0  0
    9.3431  -14.9786   22.1008 C   0  0  0  0  0  0  0  0  0  0  0  0
   10.5721  -14.7637   22.2103 O   0  0  0  0  0  0  0  0  0  0  0  0
   10.7203  -15.4280   30.8029 O   0  0  0  0  0  0  0  0  0  0  0  0
   10.1151  -15.3631   29.5470 C   0  0  0  0  0  0  0  0  0  0  0  0
    9.6121  -16.4887   28.9278 C   0  0  0  0  0  0  0  0  0  0  0  0
    9.0102  -16.3926   27.6673 C   0  0  0  0  0  0  0  0  0  0  0  0
    8.9052  -15.1833   27.0177 C   0  0  0  0  0  0  0  0  0  0  0  0
    8.2832  -15.0492   25.6901 C   0  0  0  0  0  0  0  0  0  0  0  0
    9.2399  -15.3278   24.5896 C   0  0  2  0  0  0  0  0  0  0  0  0
    8.6163  -15.2475   23.2796 N   0  0  0  0  0  0  0  0  0  0  0  0
    9.8638  -16.6500   24.7002 C   0  0  0  0  0  0  0  0  0  0  0  0
    9.2347  -17.6696   24.3533 O   0  0  0  0  0  0  0  0  0  0  0  0
    9.4192  -14.0703   27.6642 C   0  0  0  0  0  0  0  0  0  0  0  0
   10.0151  -14.1622   28.9110 C   0  0  0  0  0  0  0  0  0  0  0  0
   13.7636  -21.7640   22.4569 N   0  0  0  0  0  0  0  0  0  0  0  0
   13.7468  -21.1688   21.1694 C   0  0  0  0  0  0  0  0  0  0  0  0
   13.5442  -21.8602   20.1008 N   0  0  0  0  0  0  0  0  0  0  0  0
   13.9585  -19.7863   21.0740 N   0  0  0  0  0  0  0  0  0  0  0  0
   14.3149  -18.9746   22.2731 C   0  0  0  0  0  0  0  0  0  0  0  0
   13.0684  -18.7853   23.0293 C   0  0  0  0  0  0  0  0  0  0  0  0
   12.9666  -17.9996   24.2388 C   0  0  0  0  0  0  0  0  0  0  0  0
   11.8723  -18.1259   25.2173 C   0  0  2  0  0  0  0  0  0  0  0  0
   11.1716  -16.7768   25.1966 N   0  0  0  0  0  0  0  0  0  0  0  0
   12.2862  -18.3294   26.6128 C   0  0  0  0  0  0  0  0  0  0  0  0
   12.7920  -19.4882   26.9121 O   0  0  0  0  0  0  0  0  0  0  0  0
   12.2192  -17.4518   27.6658 O   0  0  0  0  0  0  0  0  0  0  0  0
  2  3  1  6
  2  1  1  0
  4  2  1  0
  5  4  1  0
  5  6  1  1
  7  5  1  0
  8  7  2  0
  9 10  1  0
 10 11  2  0
 10 20  1  0
 11 12  1  0
 12 13  2  0
 13 14  1  0
 15 14  1  1
 15 16  1  0
 16  7  1  0
 17 15  1  0
 17 18  2  0
 19 13  1  0
 20 19  2  0
 21 22  1  0
 22 24  1  0
 23 22  2  0
 24 25  1  0
 25 26  1  0
 26 27  1  0
 28 29  1  0
 28 27  1  6
 29 17  1  0
 30 28  1  0
 31 30  2  0
 32 30  1  0
M  END
$$$$
