WGD.pdb
     RDKit          3D

 27 28  0  0  1  0  0  0  0  0999 V2000
   26.3682  -22.4929  -12.2551 N   0  0  0  0  0  0  0  0  0  0  0  0
   25.6321  -21.3276  -11.8902 C   0  0  1  0  0  0  0  0  0  0  0  0
   26.5509  -20.2210  -11.4863 C   0  0  0  0  0  0  0  0  0  0  0  0
   27.5908  -20.6512  -10.5236 C   0  0  0  0  0  0  0  0  0  0  0  0
   28.7520  -21.3735  -10.8320 C   0  0  0  0  0  0  0  0  0  0  0  0
   29.4349  -21.6014   -9.7051 N   0  0  0  0  0  0  0  0  0  0  0  0
   28.7883  -21.0652   -8.6474 C   0  0  0  0  0  0  0  0  0  0  0  0
   29.0582  -21.0106   -7.2896 C   0  0  0  0  0  0  0  0  0  0  0  0
   28.2104  -20.3784   -6.4275 C   0  0  0  0  0  0  0  0  0  0  0  0
   27.0745  -19.7875   -6.9090 C   0  0  0  0  0  0  0  0  0  0  0  0
   26.8157  -19.8489   -8.2668 C   0  0  0  0  0  0  0  0  0  0  0  0
   27.6467  -20.4783   -9.1655 C   0  0  0  0  0  0  0  0  0  0  0  0
   24.7893  -20.9375  -13.0574 C   0  0  0  0  0  0  0  0  0  0  0  0
   24.9548  -21.4421  -14.2011 O   0  0  0  0  0  0  0  0  0  0  0  0
   23.7477  -19.9525  -12.8876 N   0  0  0  0  0  0  0  0  0  0  0  0
   22.9874  -19.5687  -14.0147 C   0  0  0  0  0  0  0  0  0  0  0  0
   21.6576  -20.2589  -14.0243 C   0  0  0  0  0  0  0  0  0  0  0  0
   20.8074  -19.9193  -14.9190 O   0  0  0  0  0  0  0  0  0  0  0  0
   21.3399  -21.2463  -13.0823 N   0  0  0  0  0  0  0  0  0  0  0  0
   20.0933  -21.9618  -13.0037 C   0  0  1  0  0  0  0  0  0  0  0  0
   20.1753  -23.4183  -12.6439 C   0  0  0  0  0  0  0  0  0  0  0  0
   18.8205  -24.0154  -12.7241 C   0  0  0  0  0  0  0  0  0  0  0  0
   18.2937  -24.4254  -13.8024 O   0  0  0  0  0  0  0  0  0  0  0  0
   18.9881  -21.2224  -12.4222 C   0  0  0  0  0  0  0  0  0  0  0  0
   17.7476  -21.2389  -13.0391 O   0  0  0  0  0  0  0  0  0  0  0  0
   18.0273  -24.1625  -11.5806 O   0  0  0  0  0  0  0  0  0  0  0  0
   19.1175  -20.5686  -11.3792 O   0  0  0  0  0  0  0  0  0  0  0  0
  2  1  1  6
  3  2  1  0
  3  4  1  0
  4  5  2  0
  6  5  1  0
  7  6  1  0
  8  7  2  0
  9  8  1  0
 10 11  1  0
 10  9  2  0
 11 12  2  0
 12  7  1  0
 12  4  1  0
 13 15  1  0
 13  2  1  0
 14 13  2  0
 16 15  1  0
 17 19  1  0
 17 16  1  0
 18 17  2  0
 20 19  1  0
 20 21  1  1
 22 21  1  0
 22 26  1  0
 23 22  2  0
 24 25  1  0
 24 20  1  0
 27 24  2  0
M  END
$$$$
