WGD.pdb
     RDKit          3D

 27 28  0  0  1  0  0  0  0  0999 V2000
   25.4985  -19.4869  -10.3775 N   0  0  0  0  0  0  0  0  0  0  0  0
   26.8255  -20.0007  -10.4663 C   0  0  1  0  0  0  0  0  0  0  0  0
   27.0709  -21.0296   -9.4112 C   0  0  0  0  0  0  0  0  0  0  0  0
   26.8258  -20.5260   -8.0403 C   0  0  0  0  0  0  0  0  0  0  0  0
   25.5718  -20.2783   -7.4645 C   0  0  0  0  0  0  0  0  0  0  0  0
   25.7473  -19.8067   -6.2256 N   0  0  0  0  0  0  0  0  0  0  0  0
   27.0641  -19.7244   -5.9365 C   0  0  0  0  0  0  0  0  0  0  0  0
   27.7734  -19.3171   -4.8182 C   0  0  0  0  0  0  0  0  0  0  0  0
   29.1373  -19.3473   -4.7993 C   0  0  0  0  0  0  0  0  0  0  0  0
   29.8184  -19.7868   -5.9013 C   0  0  0  0  0  0  0  0  0  0  0  0
   29.0990  -20.1905   -7.0120 C   0  0  0  0  0  0  0  0  0  0  0  0
   27.7239  -20.1730   -7.0676 C   0  0  0  0  0  0  0  0  0  0  0  0
   27.0031  -20.5694  -11.8337 C   0  0  0  0  0  0  0  0  0  0  0  0
   27.8228  -21.4977  -12.0714 O   0  0  0  0  0  0  0  0  0  0  0  0
   26.2190  -20.0510  -12.9294 N   0  0  0  0  0  0  0  0  0  0  0  0
   26.4410  -20.5668  -14.2257 C   0  0  0  0  0  0  0  0  0  0  0  0
   25.1911  -21.1794  -14.7799 C   0  0  0  0  0  0  0  0  0  0  0  0
   24.7563  -20.7511  -15.9052 O   0  0  0  0  0  0  0  0  0  0  0  0
   24.5055  -22.1898  -14.0927 N   0  0  0  0  0  0  0  0  0  0  0  0
   23.2147  -22.7195  -14.4470 C   0  0  1  0  0  0  0  0  0  0  0  0
   22.8890  -24.0947  -13.9368 C   0  0  0  0  0  0  0  0  0  0  0  0
   23.8389  -25.0688  -14.5258 C   0  0  0  0  0  0  0  0  0  0  0  0
   24.6960  -24.7702  -15.4117 O   0  0  0  0  0  0  0  0  0  0  0  0
   22.1254  -21.7606  -14.4364 C   0  0  0  0  0  0  0  0  0  0  0  0
   22.0550  -20.8088  -13.4320 O   0  0  0  0  0  0  0  0  0  0  0  0
   23.8403  -26.4094  -14.1244 O   0  0  0  0  0  0  0  0  0  0  0  0
   21.2449  -21.7638  -15.3063 O   0  0  0  0  0  0  0  0  0  0  0  0
  2  1  1  6
  3  2  1  0
  3  4  1  0
  4  5  2  0
  6  5  1  0
  7  6  1  0
  8  7  2  0
  9  8  1  0
 10 11  1  0
 10  9  2  0
 11 12  2  0
 12  7  1  0
 12  4  1  0
 13 15  1  0
 13  2  1  0
 14 13  2  0
 16 15  1  0
 17 19  1  0
 17 16  1  0
 18 17  2  0
 20 19  1  0
 20 21  1  1
 22 21  1  0
 22 26  1  0
 23 22  2  0
 24 25  1  0
 24 20  1  0
 27 24  2  0
M  END
$$$$
