WGD.pdb
     RDKit          3D

 27 28  0  0  1  0  0  0  0  0999 V2000
   25.9627  -19.2524   -9.8273 N   0  0  0  0  0  0  0  0  0  0  0  0
   27.1407  -20.0525   -9.8977 C   0  0  1  0  0  0  0  0  0  0  0  0
   27.0073  -21.2742   -9.0483 C   0  0  0  0  0  0  0  0  0  0  0  0
   26.7127  -20.9667   -7.6299 C   0  0  0  0  0  0  0  0  0  0  0  0
   25.4584  -21.0554   -7.0101 C   0  0  0  0  0  0  0  0  0  0  0  0
   25.5757  -20.6742   -5.7338 N   0  0  0  0  0  0  0  0  0  0  0  0
   26.8536  -20.3316   -5.4615 C   0  0  0  0  0  0  0  0  0  0  0  0
   27.5009  -19.8842   -4.3211 C   0  0  0  0  0  0  0  0  0  0  0  0
   28.8385  -19.6154   -4.3298 C   0  0  0  0  0  0  0  0  0  0  0  0
   29.5550  -19.7898   -5.4819 C   0  0  0  0  0  0  0  0  0  0  0  0
   28.8974  -20.2368   -6.6142 C   0  0  0  0  0  0  0  0  0  0  0  0
   27.5502  -20.5169   -6.6432 C   0  0  0  0  0  0  0  0  0  0  0  0
   27.3663  -20.4059  -11.3291 C   0  0  0  0  0  0  0  0  0  0  0  0
   28.1435  -21.3370  -11.6743 O   0  0  0  0  0  0  0  0  0  0  0  0
   26.6803  -19.6677  -12.3628 N   0  0  0  0  0  0  0  0  0  0  0  0
   26.9567  -19.9762  -13.7134 C   0  0  0  0  0  0  0  0  0  0  0  0
   25.7267  -20.4681  -14.4133 C   0  0  0  0  0  0  0  0  0  0  0  0
   25.7696  -20.6049  -15.6854 O   0  0  0  0  0  0  0  0  0  0  0  0
   24.5546  -20.7685  -13.7067 N   0  0  0  0  0  0  0  0  0  0  0  0
   23.3103  -21.1990  -14.2886 C   0  0  1  0  0  0  0  0  0  0  0  0
   22.2659  -21.7131  -13.3386 C   0  0  0  0  0  0  0  0  0  0  0  0
   21.1337  -22.2706  -14.1169 C   0  0  0  0  0  0  0  0  0  0  0  0
   19.9643  -21.7796  -14.1100 O   0  0  0  0  0  0  0  0  0  0  0  0
   22.8264  -20.3883  -15.3907 C   0  0  0  0  0  0  0  0  0  0  0  0
   22.5912  -19.0362  -15.2002 O   0  0  0  0  0  0  0  0  0  0  0  0
   21.2995  -23.4016  -14.9240 O   0  0  0  0  0  0  0  0  0  0  0  0
   22.6139  -20.8700  -16.5110 O   0  0  0  0  0  0  0  0  0  0  0  0
  2  1  1  6
  3  2  1  0
  3  4  1  0
  4  5  2  0
  6  5  1  0
  7  6  1  0
  8  7  2  0
  9  8  1  0
 10 11  1  0
 10  9  2  0
 11 12  2  0
 12  7  1  0
 12  4  1  0
 13 15  1  0
 13  2  1  0
 14 13  2  0
 16 15  1  0
 17 19  1  0
 17 16  1  0
 18 17  2  0
 20 19  1  0
 20 21  1  1
 22 21  1  0
 22 26  1  0
 23 22  2  0
 24 25  1  0
 24 20  1  0
 27 24  2  0
M  END
$$$$
