WGD.pdb
     RDKit          3D

 27 28  0  0  1  0  0  0  0  0999 V2000
   25.6615  -21.8560  -10.5217 N   0  0  0  0  0  0  0  0  0  0  0  0
   26.0449  -20.6172   -9.9292 C   0  0  1  0  0  0  0  0  0  0  0  0
   27.1691  -20.8125   -8.9648 C   0  0  0  0  0  0  0  0  0  0  0  0
   26.7406  -20.7347   -7.5493 C   0  0  0  0  0  0  0  0  0  0  0  0
   25.4909  -21.1190   -7.0436 C   0  0  0  0  0  0  0  0  0  0  0  0
   25.4611  -20.8789   -5.7284 N   0  0  0  0  0  0  0  0  0  0  0  0
   26.6351  -20.3497   -5.3209 C   0  0  0  0  0  0  0  0  0  0  0  0
   27.1207  -19.9345   -4.0915 C   0  0  0  0  0  0  0  0  0  0  0  0
   28.3833  -19.4329   -3.9656 C   0  0  0  0  0  0  0  0  0  0  0  0
   29.1853  -19.3375   -5.0696 C   0  0  0  0  0  0  0  0  0  0  0  0
   28.6891  -19.7551   -6.2917 C   0  0  0  0  0  0  0  0  0  0  0  0
   27.4213  -20.2649   -6.4570 C   0  0  0  0  0  0  0  0  0  0  0  0
   26.4263  -19.6850  -11.0293 C   0  0  0  0  0  0  0  0  0  0  0  0
   26.3776  -18.4324  -10.8924 O   0  0  0  0  0  0  0  0  0  0  0  0
   26.8670  -20.2189  -12.2961 N   0  0  0  0  0  0  0  0  0  0  0  0
   27.3547  -19.3253  -13.2756 C   0  0  0  0  0  0  0  0  0  0  0  0
   26.4726  -19.3243  -14.4867 C   0  0  0  0  0  0  0  0  0  0  0  0
   25.4351  -20.0740  -14.4787 O   0  0  0  0  0  0  0  0  0  0  0  0
   26.7674  -18.5331  -15.6049 N   0  0  0  0  0  0  0  0  0  0  0  0
   26.4995  -18.8829  -16.9753 C   0  0  1  0  0  0  0  0  0  0  0  0
   27.4842  -19.8033  -17.6392 C   0  0  0  0  0  0  0  0  0  0  0  0
   28.6621  -19.0181  -18.0801 C   0  0  0  0  0  0  0  0  0  0  0  0
   29.7554  -19.5388  -18.4571 O   0  0  0  0  0  0  0  0  0  0  0  0
   25.1021  -19.1036  -17.2985 C   0  0  0  0  0  0  0  0  0  0  0  0
   24.4073  -20.1334  -16.6849 O   0  0  0  0  0  0  0  0  0  0  0  0
   28.6296  -17.6193  -18.1043 O   0  0  0  0  0  0  0  0  0  0  0  0
   24.5010  -18.3932  -18.1147 O   0  0  0  0  0  0  0  0  0  0  0  0
  2  1  1  6
  3  2  1  0
  3  4  1  0
  4  5  2  0
  6  5  1  0
  7  6  1  0
  8  7  2  0
  9  8  1  0
 10 11  1  0
 10  9  2  0
 11 12  2  0
 12  7  1  0
 12  4  1  0
 13 15  1  0
 13  2  1  0
 14 13  2  0
 16 15  1  0
 17 19  1  0
 17 16  1  0
 18 17  2  0
 20 19  1  0
 20 21  1  1
 22 21  1  0
 22 26  1  0
 23 22  2  0
 24 25  1  0
 24 20  1  0
 27 24  2  0
M  END
$$$$
