WGD.pdb
     RDKit          3D

 27 28  0  0  1  0  0  0  0  0999 V2000
   24.5503  -22.3564  -12.9676 N   0  0  0  0  0  0  0  0  0  0  0  0
   24.3243  -21.6850  -14.2049 C   0  0  1  0  0  0  0  0  0  0  0  0
   24.1306  -22.6649  -15.3159 C   0  0  0  0  0  0  0  0  0  0  0  0
   25.2361  -23.6441  -15.4264 C   0  0  0  0  0  0  0  0  0  0  0  0
   25.2250  -24.9588  -14.9400 C   0  0  0  0  0  0  0  0  0  0  0  0
   26.4058  -25.5294  -15.2011 N   0  0  0  0  0  0  0  0  0  0  0  0
   27.2159  -24.6599  -15.8430 C   0  0  0  0  0  0  0  0  0  0  0  0
   28.5087  -24.7426  -16.3345 C   0  0  0  0  0  0  0  0  0  0  0  0
   29.0922  -23.6822  -16.9644 C   0  0  0  0  0  0  0  0  0  0  0  0
   28.3915  -22.5170  -17.1148 C   0  0  0  0  0  0  0  0  0  0  0  0
   27.1016  -22.4466  -16.6195 C   0  0  0  0  0  0  0  0  0  0  0  0
   26.4813  -23.4946  -15.9782 C   0  0  0  0  0  0  0  0  0  0  0  0
   23.1287  -20.8093  -14.0360 C   0  0  0  0  0  0  0  0  0  0  0  0
   22.4125  -20.4585  -15.0129 O   0  0  0  0  0  0  0  0  0  0  0  0
   22.7678  -20.3408  -12.7191 N   0  0  0  0  0  0  0  0  0  0  0  0
   21.6101  -20.8687  -12.1053 C   0  0  0  0  0  0  0  0  0  0  0  0
   20.3813  -20.5162  -12.8867 C   0  0  0  0  0  0  0  0  0  0  0  0
   20.0827  -19.2782  -13.0167 O   0  0  0  0  0  0  0  0  0  0  0  0
   19.5708  -21.5052  -13.4596 N   0  0  0  0  0  0  0  0  0  0  0  0
   18.4678  -21.2725  -14.3548 C   0  0  1  0  0  0  0  0  0  0  0  0
   18.2868  -22.2623  -15.4706 C   0  0  0  0  0  0  0  0  0  0  0  0
   17.8386  -23.5569  -14.9036 C   0  0  0  0  0  0  0  0  0  0  0  0
   17.6359  -23.7522  -13.6669 O   0  0  0  0  0  0  0  0  0  0  0  0
   17.2515  -20.7871  -13.7293 C   0  0  0  0  0  0  0  0  0  0  0  0
   17.1470  -20.7692  -12.3478 O   0  0  0  0  0  0  0  0  0  0  0  0
   17.6089  -24.6650  -15.7266 O   0  0  0  0  0  0  0  0  0  0  0  0
   16.2910  -20.3826  -14.3969 O   0  0  0  0  0  0  0  0  0  0  0  0
  2  1  1  1
  3  2  1  0
  3  4  1  0
  4  5  2  0
  6  5  1  0
  7  6  1  0
  8  7  2  0
  9  8  1  0
 10 11  1  0
 10  9  2  0
 11 12  2  0
 12  7  1  0
 12  4  1  0
 13 15  1  0
 13  2  1  0
 14 13  2  0
 16 15  1  0
 17 19  1  0
 17 16  1  0
 18 17  2  0
 20 19  1  0
 20 21  1  1
 22 21  1  0
 22 26  1  0
 23 22  2  0
 24 25  1  0
 24 20  1  0
 27 24  2  0
M  END
$$$$
