WGD.pdb
     RDKit          3D

 27 28  0  0  1  0  0  0  0  0999 V2000
   25.0506  -19.5106   -9.3066 N   0  0  0  0  0  0  0  0  0  0  0  0
   26.3095  -20.1265   -9.5685 C   0  0  1  0  0  0  0  0  0  0  0  0
   26.5567  -21.2573   -8.6241 C   0  0  0  0  0  0  0  0  0  0  0  0
   26.5376  -20.8422   -7.2026 C   0  0  0  0  0  0  0  0  0  0  0  0
   25.4457  -20.9413   -6.3291 C   0  0  0  0  0  0  0  0  0  0  0  0
   25.7948  -20.4440   -5.1379 N   0  0  0  0  0  0  0  0  0  0  0  0
   27.0746  -20.0129   -5.1657 C   0  0  0  0  0  0  0  0  0  0  0  0
   27.9088  -19.4342   -4.2229 C   0  0  0  0  0  0  0  0  0  0  0  0
   29.1946  -19.0980   -4.5316 C   0  0  0  0  0  0  0  0  0  0  0  0
   29.6708  -19.3354   -5.7918 C   0  0  0  0  0  0  0  0  0  0  0  0
   28.8282  -19.9135   -6.7245 C   0  0  0  0  0  0  0  0  0  0  0  0
   27.5261  -20.2647   -6.4497 C   0  0  0  0  0  0  0  0  0  0  0  0
   26.3029  -20.5915  -10.9856 C   0  0  0  0  0  0  0  0  0  0  0  0
   25.2502  -20.6088  -11.6797 O   0  0  0  0  0  0  0  0  0  0  0  0
   27.5326  -21.0388  -11.5954 N   0  0  0  0  0  0  0  0  0  0  0  0
   27.7425  -20.7790  -12.9681 C   0  0  0  0  0  0  0  0  0  0  0  0
   26.5651  -21.2201  -13.7830 C   0  0  0  0  0  0  0  0  0  0  0  0
   26.0044  -20.3608  -14.5483 O   0  0  0  0  0  0  0  0  0  0  0  0
   26.0791  -22.5325  -13.7141 N   0  0  0  0  0  0  0  0  0  0  0  0
   25.0085  -23.0743  -14.5094 C   0  0  1  0  0  0  0  0  0  0  0  0
   24.8362  -24.5666  -14.4781 C   0  0  0  0  0  0  0  0  0  0  0  0
   23.7958  -24.9561  -15.4601 C   0  0  0  0  0  0  0  0  0  0  0  0
   23.5277  -24.2888  -16.5048 O   0  0  0  0  0  0  0  0  0  0  0  0
   23.7866  -22.2913  -14.5227 C   0  0  0  0  0  0  0  0  0  0  0  0
   23.1222  -22.0308  -13.3351 O   0  0  0  0  0  0  0  0  0  0  0  0
   23.0315  -26.1145  -15.2813 O   0  0  0  0  0  0  0  0  0  0  0  0
   23.3113  -21.8416  -15.5733 O   0  0  0  0  0  0  0  0  0  0  0  0
  2  1  1  1
  3  2  1  0
  3  4  1  0
  4  5  2  0
  6  5  1  0
  7  6  1  0
  8  7  2  0
  9  8  1  0
 10 11  1  0
 10  9  2  0
 11 12  2  0
 12  7  1  0
 12  4  1  0
 13 15  1  0
 13  2  1  0
 14 13  2  0
 16 15  1  0
 17 19  1  0
 17 16  1  0
 18 17  2  0
 20 19  1  0
 20 21  1  1
 22 21  1  0
 22 26  1  0
 23 22  2  0
 24 25  1  0
 24 20  1  0
 27 24  2  0
M  END
$$$$
