WGD.pdb
     RDKit          3D

 27 28  0  0  1  0  0  0  0  0999 V2000
   27.4421  -22.1027  -13.4911 N   0  0  0  0  0  0  0  0  0  0  0  0
   26.4776  -21.1284  -13.0997 C   0  0  1  0  0  0  0  0  0  0  0  0
   27.1371  -19.9557  -12.4504 C   0  0  0  0  0  0  0  0  0  0  0  0
   27.9948  -20.3328  -11.3035 C   0  0  0  0  0  0  0  0  0  0  0  0
   29.3440  -20.7077  -11.3708 C   0  0  0  0  0  0  0  0  0  0  0  0
   29.7757  -21.0023  -10.1399 N   0  0  0  0  0  0  0  0  0  0  0  0
   28.7793  -20.8432   -9.2421 C   0  0  0  0  0  0  0  0  0  0  0  0
   28.6958  -21.0044   -7.8685 C   0  0  0  0  0  0  0  0  0  0  0  0
   27.5323  -20.7581   -7.1997 C   0  0  0  0  0  0  0  0  0  0  0  0
   26.4286  -20.3449   -7.8940 C   0  0  0  0  0  0  0  0  0  0  0  0
   26.5243  -20.1879   -9.2653 C   0  0  0  0  0  0  0  0  0  0  0  0
   27.6800  -20.4276   -9.9734 C   0  0  0  0  0  0  0  0  0  0  0  0
   25.7206  -20.7218  -14.3189 C   0  0  0  0  0  0  0  0  0  0  0  0
   26.2841  -20.5680  -15.4365 O   0  0  0  0  0  0  0  0  0  0  0  0
   24.2978  -20.4934  -14.2322 N   0  0  0  0  0  0  0  0  0  0  0  0
   23.4590  -21.5710  -13.8703 C   0  0  0  0  0  0  0  0  0  0  0  0
   22.0157  -21.1776  -13.9528 C   0  0  0  0  0  0  0  0  0  0  0  0
   21.7354  -19.9804  -14.3091 O   0  0  0  0  0  0  0  0  0  0  0  0
   20.9924  -22.0843  -13.6461 N   0  0  0  0  0  0  0  0  0  0  0  0
   19.5824  -21.8474  -13.8136 C   0  0  1  0  0  0  0  0  0  0  0  0
   18.7053  -23.0620  -13.9277 C   0  0  0  0  0  0  0  0  0  0  0  0
   18.6692  -23.7596  -12.6199 C   0  0  0  0  0  0  0  0  0  0  0  0
   19.2481  -23.3307  -11.5761 O   0  0  0  0  0  0  0  0  0  0  0  0
   19.0427  -20.7407  -13.0454 C   0  0  0  0  0  0  0  0  0  0  0  0
   19.7034  -20.3042  -11.9085 O   0  0  0  0  0  0  0  0  0  0  0  0
   17.9746  -24.9642  -12.4628 O   0  0  0  0  0  0  0  0  0  0  0  0
   17.9979  -20.1651  -13.3759 O   0  0  0  0  0  0  0  0  0  0  0  0
  2  1  1  6
  3  2  1  0
  3  4  1  0
  4  5  2  0
  6  5  1  0
  7  6  1  0
  8  7  2  0
  9  8  1  0
 10 11  1  0
 10  9  2  0
 11 12  2  0
 12  7  1  0
 12  4  1  0
 13 15  1  0
 13  2  1  0
 14 13  2  0
 16 15  1  0
 17 19  1  0
 17 16  1  0
 18 17  2  0
 20 19  1  0
 20 21  1  1
 22 21  1  0
 22 26  1  0
 23 22  2  0
 24 25  1  0
 24 20  1  0
 27 24  2  0
M  END
$$$$
