WGD.pdb
     RDKit          3D

 27 28  0  0  1  0  0  0  0  0999 V2000
   28.5775  -20.0982   -9.8603 N   0  0  0  0  0  0  0  0  0  0  0  0
   27.3421  -20.7898   -9.6930 C   0  0  1  0  0  0  0  0  0  0  0  0
   26.4818  -20.1075   -8.6800 C   0  0  0  0  0  0  0  0  0  0  0  0
   27.2485  -19.5749   -7.5304 C   0  0  0  0  0  0  0  0  0  0  0  0
   27.6769  -18.2500   -7.3675 C   0  0  0  0  0  0  0  0  0  0  0  0
   28.3616  -18.1517   -6.2231 N   0  0  0  0  0  0  0  0  0  0  0  0
   28.4156  -19.3507   -5.6035 C   0  0  0  0  0  0  0  0  0  0  0  0
   28.9816  -19.7888   -4.4172 C   0  0  0  0  0  0  0  0  0  0  0  0
   28.8715  -21.0902   -4.0224 C   0  0  0  0  0  0  0  0  0  0  0  0
   28.1914  -21.9793   -4.8087 C   0  0  0  0  0  0  0  0  0  0  0  0
   27.6309  -21.5299   -5.9911 C   0  0  0  0  0  0  0  0  0  0  0  0
   27.7223  -20.2258   -6.4217 C   0  0  0  0  0  0  0  0  0  0  0  0
   26.6715  -20.8528  -11.0238 C   0  0  0  0  0  0  0  0  0  0  0  0
   26.6202  -19.8566  -11.7953 O   0  0  0  0  0  0  0  0  0  0  0  0
   26.0575  -22.0859  -11.4557 N   0  0  0  0  0  0  0  0  0  0  0  0
   24.9028  -22.5410  -10.7809 C   0  0  0  0  0  0  0  0  0  0  0  0
   23.6670  -21.9158  -11.3522 C   0  0  0  0  0  0  0  0  0  0  0  0
   22.9285  -21.2172  -10.5740 O   0  0  0  0  0  0  0  0  0  0  0  0
   23.3159  -22.0877  -12.6977 N   0  0  0  0  0  0  0  0  0  0  0  0
   22.3995  -21.2611  -13.4388 C   0  0  1  0  0  0  0  0  0  0  0  0
   22.8890  -19.8943  -13.8257 C   0  0  0  0  0  0  0  0  0  0  0  0
   21.7968  -19.1637  -14.5125 C   0  0  0  0  0  0  0  0  0  0  0  0
   20.6557  -18.9565  -13.9991 O   0  0  0  0  0  0  0  0  0  0  0  0
   21.5980  -21.9557  -14.4294 C   0  0  0  0  0  0  0  0  0  0  0  0
   22.1832  -22.3903  -15.6076 O   0  0  0  0  0  0  0  0  0  0  0  0
   21.9715  -18.6490  -15.8020 O   0  0  0  0  0  0  0  0  0  0  0  0
   20.3926  -22.1765  -14.2551 O   0  0  0  0  0  0  0  0  0  0  0  0
  2  1  1  6
  3  2  1  0
  3  4  1  0
  4  5  2  0
  6  5  1  0
  7  6  1  0
  8  7  2  0
  9  8  1  0
 10 11  1  0
 10  9  2  0
 11 12  2  0
 12  7  1  0
 12  4  1  0
 13 15  1  0
 13  2  1  0
 14 13  2  0
 16 15  1  0
 17 19  1  0
 17 16  1  0
 18 17  2  0
 20 19  1  0
 20 21  1  6
 22 21  1  0
 22 26  1  0
 23 22  2  0
 24 25  1  0
 24 20  1  0
 27 24  2  0
M  END
$$$$
