WGD.pdb
     RDKit          3D

 27 28  0  0  1  0  0  0  0  0999 V2000
   25.2700  -21.1201   -9.8503 N   0  0  0  0  0  0  0  0  0  0  0  0
   26.5615  -20.5183   -9.8993 C   0  0  1  0  0  0  0  0  0  0  0  0
   27.4999  -21.1915   -8.9516 C   0  0  0  0  0  0  0  0  0  0  0  0
   27.1995  -20.9001   -7.5310 C   0  0  0  0  0  0  0  0  0  0  0  0
   26.0161  -21.2271   -6.8544 C   0  0  0  0  0  0  0  0  0  0  0  0
   26.0973  -20.7824   -5.5959 N   0  0  0  0  0  0  0  0  0  0  0  0
   27.2831  -20.1694   -5.3899 C   0  0  0  0  0  0  0  0  0  0  0  0
   27.8629  -19.5539   -4.2923 C   0  0  0  0  0  0  0  0  0  0  0  0
   29.1122  -19.0108   -4.3674 C   0  0  0  0  0  0  0  0  0  0  0  0
   29.8063  -19.0737   -5.5445 C   0  0  0  0  0  0  0  0  0  0  0  0
   29.2167  -19.6905   -6.6335 C   0  0  0  0  0  0  0  0  0  0  0  0
   27.9590  -20.2481   -6.5953 C   0  0  0  0  0  0  0  0  0  0  0  0
   27.0515  -20.6055  -11.3054 C   0  0  0  0  0  0  0  0  0  0  0  0
   28.1897  -20.1822  -11.6452 O   0  0  0  0  0  0  0  0  0  0  0  0
   26.2074  -21.1903  -12.3201 N   0  0  0  0  0  0  0  0  0  0  0  0
   25.9351  -20.4440  -13.4882 C   0  0  0  0  0  0  0  0  0  0  0  0
   24.4823  -20.0866  -13.5693 C   0  0  0  0  0  0  0  0  0  0  0  0
   23.9173  -19.6142  -12.5222 O   0  0  0  0  0  0  0  0  0  0  0  0
   23.7507  -20.2648  -14.7509 N   0  0  0  0  0  0  0  0  0  0  0  0
   22.3613  -19.9366  -14.9359 C   0  0  1  0  0  0  0  0  0  0  0  0
   21.9784  -19.3594  -16.2692 C   0  0  0  0  0  0  0  0  0  0  0  0
   22.4921  -17.9718  -16.3633 C   0  0  0  0  0  0  0  0  0  0  0  0
   23.0367  -17.3549  -15.3983 O   0  0  0  0  0  0  0  0  0  0  0  0
   21.4187  -20.8726  -14.3515 C   0  0  0  0  0  0  0  0  0  0  0  0
   20.2820  -20.3994  -13.7162 O   0  0  0  0  0  0  0  0  0  0  0  0
   22.4003  -17.2471  -17.5569 O   0  0  0  0  0  0  0  0  0  0  0  0
   21.5977  -22.0963  -14.4023 O   0  0  0  0  0  0  0  0  0  0  0  0
  2  1  1  6
  3  2  1  0
  3  4  1  0
  4  5  2  0
  6  5  1  0
  7  6  1  0
  8  7  2  0
  9  8  1  0
 10 11  1  0
 10  9  2  0
 11 12  2  0
 12  7  1  0
 12  4  1  0
 13 15  1  0
 13  2  1  0
 14 13  2  0
 16 15  1  0
 17 19  1  0
 17 16  1  0
 18 17  2  0
 20 19  1  0
 20 21  1  6
 22 21  1  0
 22 26  1  0
 23 22  2  0
 24 25  1  0
 24 20  1  0
 27 24  2  0
M  END
$$$$
