WGD.pdb
     RDKit          3D

 27 28  0  0  1  0  0  0  0  0999 V2000
   22.6935  -12.0639  -19.9214 N   0  0  0  0  0  0  0  0  0  0  0  0
   21.5163  -11.6173  -20.5904 C   0  0  1  0  0  0  0  0  0  0  0  0
   20.3318  -12.4342  -20.1883 C   0  0  0  0  0  0  0  0  0  0  0  0
   20.5216  -13.8849  -20.4177 C   0  0  0  0  0  0  0  0  0  0  0  0
   20.5509  -14.8791  -19.4298 C   0  0  0  0  0  0  0  0  0  0  0  0
   20.7680  -16.0638  -20.0109 N   0  0  0  0  0  0  0  0  0  0  0  0
   20.8865  -15.9162  -21.3483 C   0  0  0  0  0  0  0  0  0  0  0  0
   21.1054  -16.8010  -22.3918 C   0  0  0  0  0  0  0  0  0  0  0  0
   21.1735  -16.3649  -23.6828 C   0  0  0  0  0  0  0  0  0  0  0  0
   21.0232  -15.0326  -23.9544 C   0  0  0  0  0  0  0  0  0  0  0  0
   20.8053  -14.1589  -22.9040 C   0  0  0  0  0  0  0  0  0  0  0  0
   20.7317  -14.5621  -21.5901 C   0  0  0  0  0  0  0  0  0  0  0  0
   21.3226  -10.1762  -20.2578 C   0  0  0  0  0  0  0  0  0  0  0  0
   20.3818   -9.4961  -20.7502 O   0  0  0  0  0  0  0  0  0  0  0  0
   22.2328   -9.5261  -19.3452 N   0  0  0  0  0  0  0  0  0  0  0  0
   22.0261   -8.1628  -19.0377 C   0  0  0  0  0  0  0  0  0  0  0  0
   21.8891   -7.9617  -17.5593 C   0  0  0  0  0  0  0  0  0  0  0  0
   21.8450   -8.9989  -16.8103 O   0  0  0  0  0  0  0  0  0  0  0  0
   21.8055   -6.6794  -17.0008 N   0  0  0  0  0  0  0  0  0  0  0  0
   21.7912   -6.3756  -15.5938 C   0  0  1  0  0  0  0  0  0  0  0  0
   22.0510   -4.9459  -15.2118 C   0  0  0  0  0  0  0  0  0  0  0  0
   22.3529   -4.8777  -13.7618 C   0  0  0  0  0  0  0  0  0  0  0  0
   22.5830   -5.8957  -13.0412 O   0  0  0  0  0  0  0  0  0  0  0  0
   20.7791   -7.0692  -14.8186 C   0  0  0  0  0  0  0  0  0  0  0  0
   21.1481   -7.8001  -13.7009 O   0  0  0  0  0  0  0  0  0  0  0  0
   22.4012   -3.6505  -13.0910 O   0  0  0  0  0  0  0  0  0  0  0  0
   19.5808   -7.0293  -15.1260 O   0  0  0  0  0  0  0  0  0  0  0  0
  2  1  1  1
  3  2  1  0
  3  4  1  0
  4  5  2  0
  6  5  1  0
  7  6  1  0
  8  7  2  0
  9  8  1  0
 10 11  1  0
 10  9  2  0
 11 12  2  0
 12  7  1  0
 12  4  1  0
 13 15  1  0
 13  2  1  0
 14 13  2  0
 16 15  1  0
 17 19  1  0
 17 16  1  0
 18 17  2  0
 20 19  1  0
 20 21  1  6
 22 21  1  0
 22 26  1  0
 23 22  2  0
 24 25  1  0
 24 20  1  0
 27 24  2  0
M  END
$$$$
