WGD.pdb
     RDKit          3D

 27 28  0  0  1  0  0  0  0  0999 V2000
   27.0247  -22.2162  -13.5675 N   0  0  0  0  0  0  0  0  0  0  0  0
   26.2741  -21.0258  -13.3388 C   0  0  1  0  0  0  0  0  0  0  0  0
   27.1625  -19.9141  -12.8843 C   0  0  0  0  0  0  0  0  0  0  0  0
   27.8958  -20.2292  -11.6368 C   0  0  0  0  0  0  0  0  0  0  0  0
   29.2360  -20.6307  -11.5470 C   0  0  0  0  0  0  0  0  0  0  0  0
   29.5393  -20.8507  -10.2633 N   0  0  0  0  0  0  0  0  0  0  0  0
   28.4644  -20.6156   -9.4798 C   0  0  0  0  0  0  0  0  0  0  0  0
   28.2442  -20.6843   -8.1136 C   0  0  0  0  0  0  0  0  0  0  0  0
   27.0275  -20.3746   -7.5796 C   0  0  0  0  0  0  0  0  0  0  0  0
   26.0063  -19.9894   -8.4042 C   0  0  0  0  0  0  0  0  0  0  0  0
   26.2383  -19.9249   -9.7667 C   0  0  0  0  0  0  0  0  0  0  0  0
   27.4513  -20.2306  -10.3408 C   0  0  0  0  0  0  0  0  0  0  0  0
   25.5730  -20.6786  -14.6088 C   0  0  0  0  0  0  0  0  0  0  0  0
   26.1971  -20.4916  -15.6885 O   0  0  0  0  0  0  0  0  0  0  0  0
   24.1353  -20.5489  -14.6176 N   0  0  0  0  0  0  0  0  0  0  0  0
   23.5188  -19.9104  -15.7166 C   0  0  0  0  0  0  0  0  0  0  0  0
   22.0261  -19.9797  -15.6084 C   0  0  0  0  0  0  0  0  0  0  0  0
   21.3535  -18.9161  -15.8429 O   0  0  0  0  0  0  0  0  0  0  0  0
   21.3733  -21.1684  -15.2561 N   0  0  0  0  0  0  0  0  0  0  0  0
   20.4205  -21.3184  -14.1875 C   0  0  1  0  0  0  0  0  0  0  0  0
   20.9749  -21.6757  -12.8375 C   0  0  0  0  0  0  0  0  0  0  0  0
   19.8524  -21.9548  -11.9099 C   0  0  0  0  0  0  0  0  0  0  0  0
   18.7183  -22.3818  -12.2842 O   0  0  0  0  0  0  0  0  0  0  0  0
   19.3233  -20.3686  -14.1955 C   0  0  0  0  0  0  0  0  0  0  0  0
   19.5730  -19.0295  -14.4490 O   0  0  0  0  0  0  0  0  0  0  0  0
   19.9881  -21.7559  -10.5314 O   0  0  0  0  0  0  0  0  0  0  0  0
   18.1557  -20.7187  -13.9808 O   0  0  0  0  0  0  0  0  0  0  0  0
  2  1  1  6
  3  2  1  0
  3  4  1  0
  4  5  2  0
  6  5  1  0
  7  6  1  0
  8  7  2  0
  9  8  1  0
 10 11  1  0
 10  9  2  0
 11 12  2  0
 12  7  1  0
 12  4  1  0
 13 15  1  0
 13  2  1  0
 14 13  2  0
 16 15  1  0
 17 19  1  0
 17 16  1  0
 18 17  2  0
 20 19  1  0
 20 21  1  1
 22 21  1  0
 22 26  1  0
 23 22  2  0
 24 25  1  0
 24 20  1  0
 27 24  2  0
M  END
$$$$
