TNA.pdb
     RDKit          3D

 21 20  0  0  1  0  0  0  0  0999 V2000
    9.9057  -16.0628   17.7106 C   0  0  0  0  0  0  0  0  0  0  0  0
    9.5283  -14.6372   17.3744 C   0  0  1  0  0  0  0  0  0  0  0  0
    9.8750  -14.3547   16.0540 O   0  0  0  0  0  0  0  0  0  0  0  0
    8.0313  -14.5102   17.5898 C   0  0  2  0  0  0  0  0  0  0  0  0
    7.6952  -13.1424   17.2526 N   0  0  0  0  0  0  0  0  0  0  0  0
    7.6832  -14.7148   19.0402 C   0  0  0  0  0  0  0  0  0  0  0  0
    7.7741  -13.7394   19.7981 O   0  0  0  0  0  0  0  0  0  0  0  0
    4.6530  -18.3310   22.6226 N   0  0  0  0  0  0  0  0  0  0  0  0
    6.0314  -18.2726   22.2845 C   0  0  0  0  0  0  0  0  0  0  0  0
    6.8326  -18.6298   23.2096 O   0  0  0  0  0  0  0  0  0  0  0  0
    6.3996  -17.8264   20.9613 C   0  0  0  0  0  0  0  0  0  0  0  0
    6.8631  -16.4120   20.7907 C   0  0  2  0  0  0  0  0  0  0  0  0
    7.2676  -15.9654   19.5204 N   0  0  0  0  0  0  0  0  0  0  0  0
    7.7264  -16.0714   21.9304 C   0  0  0  0  0  0  0  0  0  0  0  0
    8.9848  -16.2361   21.9004 O   0  0  0  0  0  0  0  0  0  0  0  0
    7.6542  -13.7208   24.7361 C   0  0  0  0  0  0  0  0  0  0  0  0
    8.1434  -15.0654   24.2053 C   0  0  2  0  0  0  0  0  0  0  0  0
    7.2318  -15.5261   23.1662 N   0  0  0  0  0  0  0  0  0  0  0  0
    8.2759  -16.0728   25.2822 C   0  0  0  0  0  0  0  0  0  0  0  0
    7.4781  -17.0402   25.3280 O   0  0  0  0  0  0  0  0  0  0  0  0
    9.2464  -16.0215   26.2728 O   0  0  0  0  0  0  0  0  0  0  0  0
  2  1  1  6
  2  3  1  0
  2  4  1  0
  4  5  1  1
  6  4  1  0
  6 13  1  0
  7  6  2  0
  8  9  1  0
  9 10  2  0
 12 11  1  6
 11  9  1  0
 12 13  1  0
 12 14  1  0
 14 18  1  0
 15 14  2  0
 17 19  1  0
 17 16  1  1
 18 17  1  0
 19 21  1  0
 20 19  2  0
M  END
$$$$
