TNA.pdb
     RDKit          3D

 21 20  0  0  1  0  0  0  0  0999 V2000
    8.3331  -12.4439   20.9316 C   0  0  0  0  0  0  0  0  0  0  0  0
    7.6315  -13.3759   19.9688 C   0  0  1  0  0  0  0  0  0  0  0  0
    8.0322  -13.0968   18.6631 O   0  0  0  0  0  0  0  0  0  0  0  0
    8.0041  -14.7919   20.3683 C   0  0  2  0  0  0  0  0  0  0  0  0
    7.3437  -15.6609   19.4163 N   0  0  0  0  0  0  0  0  0  0  0  0
    7.4583  -15.1210   21.7323 C   0  0  0  0  0  0  0  0  0  0  0  0
    6.3153  -14.7299   22.0057 O   0  0  0  0  0  0  0  0  0  0  0  0
    7.4198  -16.9537   26.6805 N   0  0  0  0  0  0  0  0  0  0  0  0
    7.4382  -17.9921   25.7115 C   0  0  0  0  0  0  0  0  0  0  0  0
    7.1869  -19.1583   26.1610 O   0  0  0  0  0  0  0  0  0  0  0  0
    7.7316  -17.6510   24.3393 C   0  0  0  0  0  0  0  0  0  0  0  0
    7.9827  -16.2131   24.0015 C   0  0  2  0  0  0  0  0  0  0  0  0
    8.2144  -15.8474   22.6639 N   0  0  0  0  0  0  0  0  0  0  0  0
    8.8844  -15.6536   25.0184 C   0  0  0  0  0  0  0  0  0  0  0  0
   10.1436  -15.8059   24.9650 O   0  0  0  0  0  0  0  0  0  0  0  0
    8.7667  -13.1095   27.7668 C   0  0  0  0  0  0  0  0  0  0  0  0
    9.3699  -14.3563   27.1261 C   0  0  2  0  0  0  0  0  0  0  0  0
    8.4294  -14.8913   26.1502 N   0  0  0  0  0  0  0  0  0  0  0  0
    9.7312  -15.3793   28.1335 C   0  0  0  0  0  0  0  0  0  0  0  0
    9.1506  -16.4917   28.1237 O   0  0  0  0  0  0  0  0  0  0  0  0
   10.6925  -15.1899   29.1162 O   0  0  0  0  0  0  0  0  0  0  0  0
  2  1  1  1
  2  3  1  0
  2  4  1  0
  4  5  1  6
  6  4  1  0
  6 13  1  0
  7  6  2  0
  8  9  1  0
  9 10  2  0
 12 11  1  6
 11  9  1  0
 12 13  1  0
 12 14  1  0
 14 18  1  0
 15 14  2  0
 17 19  1  0
 17 16  1  1
 18 17  1  0
 19 21  1  0
 20 19  2  0
M  END
$$$$
