TNA.pdb
     RDKit          3D

 21 20  0  0  1  0  0  0  0  0999 V2000
    7.4222  -12.8952   19.9653 C   0  0  0  0  0  0  0  0  0  0  0  0
    8.1640  -14.2128   19.9283 C   0  0  1  0  0  0  0  0  0  0  0  0
    8.9836  -14.2629   18.8018 O   0  0  0  0  0  0  0  0  0  0  0  0
    8.9783  -14.3015   21.2060 C   0  0  2  0  0  0  0  0  0  0  0  0
    9.7439  -15.5268   21.1058 N   0  0  0  0  0  0  0  0  0  0  0  0
    8.0758  -14.4312   22.4041 C   0  0  0  0  0  0  0  0  0  0  0  0
    6.8705  -14.1934   22.2465 O   0  0  0  0  0  0  0  0  0  0  0  0
    6.0958  -17.4285   26.0505 N   0  0  0  0  0  0  0  0  0  0  0  0
    7.2240  -17.9360   25.3525 C   0  0  0  0  0  0  0  0  0  0  0  0
    7.5923  -19.1073   25.6954 O   0  0  0  0  0  0  0  0  0  0  0  0
    7.8416  -17.1080   24.3433 C   0  0  0  0  0  0  0  0  0  0  0  0
    8.0903  -15.6652   24.6611 C   0  0  2  0  0  0  0  0  0  0  0  0
    8.5786  -14.8103   23.6574 N   0  0  0  0  0  0  0  0  0  0  0  0
    8.7332  -15.5903   25.9807 C   0  0  0  0  0  0  0  0  0  0  0  0
    8.2727  -16.2000   26.9945 O   0  0  0  0  0  0  0  0  0  0  0  0
    9.3470  -13.6320   28.2716 C   0  0  0  0  0  0  0  0  0  0  0  0
   10.3628  -14.5538   27.6028 C   0  0  2  0  0  0  0  0  0  0  0  0
    9.9273  -14.8316   26.2403 N   0  0  0  0  0  0  0  0  0  0  0  0
   10.5610  -15.8078   28.3644 C   0  0  0  0  0  0  0  0  0  0  0  0
   10.0081  -16.8645   27.9741 O   0  0  0  0  0  0  0  0  0  0  0  0
   11.3357  -15.9003   29.5120 O   0  0  0  0  0  0  0  0  0  0  0  0
  2  1  1  1
  2  3  1  0
  2  4  1  0
  4  5  1  6
  6  4  1  0
  6 13  1  0
  7  6  2  0
  8  9  1  0
  9 10  2  0
 12 11  1  6
 11  9  1  0
 12 13  1  0
 12 14  1  0
 14 18  1  0
 15 14  2  0
 17 19  1  0
 17 16  1  1
 18 17  1  0
 19 21  1  0
 20 19  2  0
M  END
$$$$
