TNA.pdb
     RDKit          3D

 21 20  0  0  1  0  0  0  0  0999 V2000
    8.5235  -12.5953   19.3945 C   0  0  0  0  0  0  0  0  0  0  0  0
    7.9006  -13.6075   18.4588 C   0  0  1  0  0  0  0  0  0  0  0  0
    7.0218  -12.9673   17.5864 O   0  0  0  0  0  0  0  0  0  0  0  0
    9.0364  -14.2748   17.7050 C   0  0  2  0  0  0  0  0  0  0  0  0
    8.4107  -15.1678   16.7517 N   0  0  0  0  0  0  0  0  0  0  0  0
    9.8680  -15.1188   18.6338 C   0  0  0  0  0  0  0  0  0  0  0  0
    9.5240  -16.2960   18.8066 O   0  0  0  0  0  0  0  0  0  0  0  0
   14.3230  -15.6655   18.3368 N   0  0  0  0  0  0  0  0  0  0  0  0
   14.0210  -14.4913   19.0767 C   0  0  0  0  0  0  0  0  0  0  0  0
   14.4435  -13.4032   18.5640 O   0  0  0  0  0  0  0  0  0  0  0  0
   13.2834  -14.6235   20.3112 C   0  0  0  0  0  0  0  0  0  0  0  0
   11.8719  -15.1215   20.2468 C   0  0  2  0  0  0  0  0  0  0  0  0
   10.9960  -14.5942   19.2816 N   0  0  0  0  0  0  0  0  0  0  0  0
   11.3651  -15.2431   21.6210 C   0  0  0  0  0  0  0  0  0  0  0  0
   12.0306  -15.8108   22.5410 O   0  0  0  0  0  0  0  0  0  0  0  0
    8.5683  -13.8514   23.7211 C   0  0  0  0  0  0  0  0  0  0  0  0
    9.6221  -14.9114   23.4135 C   0  0  2  0  0  0  0  0  0  0  0  0
   10.0874  -14.7353   22.0440 N   0  0  0  0  0  0  0  0  0  0  0  0
    9.1094  -16.2835   23.6293 C   0  0  0  0  0  0  0  0  0  0  0  0
    8.8222  -17.0009   22.6407 O   0  0  0  0  0  0  0  0  0  0  0  0
    8.9176  -16.8483   24.8823 O   0  0  0  0  0  0  0  0  0  0  0  0
  2  1  1  1
  2  3  1  0
  2  4  1  0
  4  5  1  6
  6  4  1  0
  6 13  1  0
  7  6  2  0
  8  9  1  0
  9 10  2  0
 12 11  1  1
 11  9  1  0
 12 13  1  0
 12 14  1  0
 14 18  1  0
 15 14  2  0
 17 19  1  0
 17 16  1  6
 18 17  1  0
 19 21  1  0
 20 19  2  0
M  END
$$$$
