TNA.pdb
     RDKit          3D

 21 20  0  0  1  0  0  0  0  0999 V2000
    8.3064  -16.0584   17.9955 C   0  0  0  0  0  0  0  0  0  0  0  0
    8.5913  -14.5829   17.8231 C   0  0  1  0  0  0  0  0  0  0  0  0
    8.0738  -14.1400   16.6068 O   0  0  0  0  0  0  0  0  0  0  0  0
    7.9422  -13.8646   18.9919 C   0  0  2  0  0  0  0  0  0  0  0  0
    8.0481  -12.4502   18.6983 N   0  0  0  0  0  0  0  0  0  0  0  0
    8.7069  -14.1188   20.2637 C   0  0  0  0  0  0  0  0  0  0  0  0
    9.8237  -13.5958   20.3793 O   0  0  0  0  0  0  0  0  0  0  0  0
    6.9335  -17.8664   21.6157 N   0  0  0  0  0  0  0  0  0  0  0  0
    6.7446  -17.0332   22.7504 C   0  0  0  0  0  0  0  0  0  0  0  0
    5.5438  -16.9534   23.1711 O   0  0  0  0  0  0  0  0  0  0  0  0
    7.8935  -16.3655   23.3157 C   0  0  0  0  0  0  0  0  0  0  0  0
    8.7515  -15.5361   22.4100 C   0  0  2  0  0  0  0  0  0  0  0  0
    8.1752  -14.9183   21.2862 N   0  0  0  0  0  0  0  0  0  0  0  0
   10.0251  -16.2420   22.2110 C   0  0  0  0  0  0  0  0  0  0  0  0
   10.1343  -17.2351   21.4278 O   0  0  0  0  0  0  0  0  0  0  0  0
   13.4705  -15.7573   21.9012 C   0  0  0  0  0  0  0  0  0  0  0  0
   12.4762  -16.6306   22.6611 C   0  0  2  0  0  0  0  0  0  0  0  0
   11.2479  -15.8764   22.8746 N   0  0  0  0  0  0  0  0  0  0  0  0
   13.0317  -17.1174   23.9442 C   0  0  0  0  0  0  0  0  0  0  0  0
   12.4897  -16.7773   25.0236 O   0  0  0  0  0  0  0  0  0  0  0  0
   14.1410  -17.9455   24.0410 O   0  0  0  0  0  0  0  0  0  0  0  0
  2  1  1  1
  2  3  1  0
  2  4  1  0
  4  5  1  6
  6  4  1  0
  6 13  1  0
  7  6  2  0
  8  9  1  0
  9 10  2  0
 12 11  1  6
 11  9  1  0
 12 13  1  0
 12 14  1  0
 14 18  1  0
 15 14  2  0
 17 19  1  0
 17 16  1  1
 18 17  1  0
 19 21  1  0
 20 19  2  0
M  END
$$$$
