TNA.pdb
     RDKit          3D

 21 20  0  0  1  0  0  0  0  0999 V2000
    8.6277  -17.8286   19.2156 C   0  0  0  0  0  0  0  0  0  0  0  0
    7.9609  -18.9407   18.4369 C   0  0  1  0  0  0  0  0  0  0  0  0
    7.2001  -18.4024   17.4003 O   0  0  0  0  0  0  0  0  0  0  0  0
    9.0652  -19.8344   17.9028 C   0  0  2  0  0  0  0  0  0  0  0  0
    8.4038  -20.8671   17.1322 N   0  0  0  0  0  0  0  0  0  0  0  0
    9.7939  -20.5126   19.0322 C   0  0  0  0  0  0  0  0  0  0  0  0
    9.1976  -21.4059   19.6492 O   0  0  0  0  0  0  0  0  0  0  0  0
   14.8540  -19.3028   18.5017 N   0  0  0  0  0  0  0  0  0  0  0  0
   14.0686  -20.3909   18.9671 C   0  0  0  0  0  0  0  0  0  0  0  0
   13.9873  -21.3819   18.1693 O   0  0  0  0  0  0  0  0  0  0  0  0
   13.4458  -20.2872   20.2659 C   0  0  0  0  0  0  0  0  0  0  0  0
   11.9834  -20.5920   20.3802 C   0  0  2  0  0  0  0  0  0  0  0  0
   11.1044  -20.1497   19.3760 N   0  0  0  0  0  0  0  0  0  0  0  0
   11.5767  -20.3727   21.7754 C   0  0  0  0  0  0  0  0  0  0  0  0
   11.5969  -19.2235   22.3145 O   0  0  0  0  0  0  0  0  0  0  0  0
    9.3989  -22.0156   24.2514 C   0  0  0  0  0  0  0  0  0  0  0  0
   10.6141  -21.1335   23.9790 C   0  0  2  0  0  0  0  0  0  0  0  0
   11.1229  -21.4248   22.6451 N   0  0  0  0  0  0  0  0  0  0  0  0
   11.6697  -21.3107   25.0019 C   0  0  0  0  0  0  0  0  0  0  0  0
   12.7390  -21.8913   24.6955 O   0  0  0  0  0  0  0  0  0  0  0  0
   11.5572  -20.8685   26.3124 O   0  0  0  0  0  0  0  0  0  0  0  0
  2  1  1  6
  2  3  1  0
  2  4  1  0
  4  5  1  6
  6  4  1  0
  6 13  1  0
  7  6  2  0
  8  9  1  0
  9 10  2  0
 12 11  1  6
 11  9  1  0
 12 13  1  0
 12 14  1  0
 14 18  1  0
 15 14  2  0
 17 19  1  0
 17 16  1  1
 18 17  1  0
 19 21  1  0
 20 19  2  0
M  END
$$$$
