TNA.pdb
     RDKit          3D

 21 20  0  0  1  0  0  0  0  0999 V2000
    7.6673  -12.3066   20.1531 C   0  0  0  0  0  0  0  0  0  0  0  0
    7.8114  -13.6348   19.4439 C   0  0  1  0  0  0  0  0  0  0  0  0
    7.9755  -13.4253   18.0756 O   0  0  0  0  0  0  0  0  0  0  0  0
    9.0196  -14.3308   20.0433 C   0  0  2  0  0  0  0  0  0  0  0  0
    9.1733  -15.5675   19.3052 N   0  0  0  0  0  0  0  0  0  0  0  0
    8.7652  -14.6939   21.4820 C   0  0  0  0  0  0  0  0  0  0  0  0
    9.0949  -13.8746   22.3504 O   0  0  0  0  0  0  0  0  0  0  0  0
    6.1941  -16.9964   25.4864 N   0  0  0  0  0  0  0  0  0  0  0  0
    6.2676  -17.9404   24.4276 C   0  0  0  0  0  0  0  0  0  0  0  0
    5.9237  -19.1288   24.7353 O   0  0  0  0  0  0  0  0  0  0  0  0
    6.7128  -17.4894   23.1300 C   0  0  0  0  0  0  0  0  0  0  0  0
    7.8256  -16.4883   23.0678 C   0  0  2  0  0  0  0  0  0  0  0  0
    8.1731  -15.9165   21.8313 N   0  0  0  0  0  0  0  0  0  0  0  0
    8.9229  -16.9686   23.9195 C   0  0  0  0  0  0  0  0  0  0  0  0
    8.7217  -17.4502   25.0767 O   0  0  0  0  0  0  0  0  0  0  0  0
   12.6700  -17.4935   23.5977 C   0  0  0  0  0  0  0  0  0  0  0  0
   11.3327  -17.5921   24.3262 C   0  0  2  0  0  0  0  0  0  0  0  0
   10.3058  -16.9393   23.5247 N   0  0  0  0  0  0  0  0  0  0  0  0
   11.3966  -17.0100   25.6861 C   0  0  0  0  0  0  0  0  0  0  0  0
   12.2375  -17.4467   26.5088 O   0  0  0  0  0  0  0  0  0  0  0  0
   10.5690  -15.9877   26.1283 O   0  0  0  0  0  0  0  0  0  0  0  0
  2  1  1  1
  2  3  1  0
  2  4  1  0
  4  5  1  6
  6  4  1  0
  6 13  1  0
  7  6  2  0
  8  9  1  0
  9 10  2  0
 12 11  1  6
 11  9  1  0
 12 13  1  0
 12 14  1  0
 14 18  1  0
 15 14  2  0
 17 19  1  0
 17 16  1  6
 18 17  1  0
 19 21  1  0
 20 19  2  0
M  END
$$$$
