TNA.pdb
     RDKit          3D

 21 20  0  0  1  0  0  0  0  0999 V2000
    4.3424  -21.3382   22.4014 C   0  0  0  0  0  0  0  0  0  0  0  0
    3.4238  -21.7015   21.2559 C   0  0  1  0  0  0  0  0  0  0  0  0
    3.9214  -21.1748   20.0650 O   0  0  0  0  0  0  0  0  0  0  0  0
    3.3569  -23.2168   21.2023 C   0  0  2  0  0  0  0  0  0  0  0  0
    2.5089  -23.5380   20.0729 N   0  0  0  0  0  0  0  0  0  0  0  0
    2.6898  -23.7639   22.4361 C   0  0  0  0  0  0  0  0  0  0  0  0
    1.4800  -24.0217   22.3712 O   0  0  0  0  0  0  0  0  0  0  0  0
    1.5863  -27.5999   26.4608 N   0  0  0  0  0  0  0  0  0  0  0  0
    1.7387  -26.2123   26.1988 C   0  0  0  0  0  0  0  0  0  0  0  0
    1.3498  -25.4376   27.1336 O   0  0  0  0  0  0  0  0  0  0  0  0
    2.3038  -25.8065   24.9333 C   0  0  0  0  0  0  0  0  0  0  0  0
    3.0520  -24.5100   24.8711 C   0  0  2  0  0  0  0  0  0  0  0  0
    3.4106  -23.9779   23.6201 N   0  0  0  0  0  0  0  0  0  0  0  0
    4.0844  -24.5254   25.9171 C   0  0  0  0  0  0  0  0  0  0  0  0
    4.8047  -25.5459   26.1433 O   0  0  0  0  0  0  0  0  0  0  0  0
    5.8696  -24.8646   27.9966 C   0  0  0  0  0  0  0  0  0  0  0  0
    5.5041  -23.4166   27.6824 C   0  0  2  0  0  0  0  0  0  0  0  0
    4.3705  -23.4007   26.7671 N   0  0  0  0  0  0  0  0  0  0  0  0
    6.6497  -22.6631   27.1241 C   0  0  0  0  0  0  0  0  0  0  0  0
    6.5593  -22.1540   25.9808 O   0  0  0  0  0  0  0  0  0  0  0  0
    7.8506  -22.4750   27.7937 O   0  0  0  0  0  0  0  0  0  0  0  0
  2  1  1  1
  2  3  1  0
  2  4  1  0
  4  5  1  6
  6  4  1  0
  6 13  1  0
  7  6  2  0
  8  9  1  0
  9 10  2  0
 12 11  1  6
 11  9  1  0
 12 13  1  0
 12 14  1  0
 14 18  1  0
 15 14  2  0
 17 19  1  0
 17 16  1  6
 18 17  1  0
 19 21  1  0
 20 19  2  0
M  END
$$$$
