TNA.pdb
     RDKit          3D

 21 20  0  0  1  0  0  0  0  0999 V2000
    8.6607  -16.1593   17.7918 C   0  0  0  0  0  0  0  0  0  0  0  0
    8.8238  -14.6682   17.5977 C   0  0  1  0  0  0  0  0  0  0  0  0
    8.3421  -14.2988   16.3427 O   0  0  0  0  0  0  0  0  0  0  0  0
    8.0457  -13.9868   18.7085 C   0  0  2  0  0  0  0  0  0  0  0  0
    8.0110  -12.5802   18.3651 N   0  0  0  0  0  0  0  0  0  0  0  0
    8.7721  -14.1120   20.0212 C   0  0  0  0  0  0  0  0  0  0  0  0
    9.7680  -13.3975   20.1995 O   0  0  0  0  0  0  0  0  0  0  0  0
    7.2891  -13.3481   23.4431 N   0  0  0  0  0  0  0  0  0  0  0  0
    7.1121  -14.6732   23.9230 C   0  0  0  0  0  0  0  0  0  0  0  0
    6.2057  -14.8131   24.8085 O   0  0  0  0  0  0  0  0  0  0  0  0
    7.9486  -15.7201   23.3848 C   0  0  0  0  0  0  0  0  0  0  0  0
    8.8738  -15.3820   22.2559 C   0  0  2  0  0  0  0  0  0  0  0  0
    8.3378  -15.0047   21.0121 N   0  0  0  0  0  0  0  0  0  0  0  0
    9.9663  -16.3651   22.2479 C   0  0  0  0  0  0  0  0  0  0  0  0
    9.8163  -17.5412   21.7940 O   0  0  0  0  0  0  0  0  0  0  0  0
   13.6557  -16.4481   22.3400 C   0  0  0  0  0  0  0  0  0  0  0  0
   12.3312  -17.1046   22.7187 C   0  0  2  0  0  0  0  0  0  0  0  0
   11.2875  -16.0882   22.7447 N   0  0  0  0  0  0  0  0  0  0  0  0
   12.4141  -17.8158   24.0146 C   0  0  0  0  0  0  0  0  0  0  0  0
   11.7396  -17.4072   24.9906 O   0  0  0  0  0  0  0  0  0  0  0  0
   13.2077  -18.9330   24.2331 O   0  0  0  0  0  0  0  0  0  0  0  0
  2  1  1  1
  2  3  1  0
  2  4  1  0
  4  5  1  6
  6  4  1  0
  6 13  1  0
  7  6  2  0
  8  9  1  0
  9 10  2  0
 12 11  1  1
 11  9  1  0
 12 13  1  0
 12 14  1  0
 14 18  1  0
 15 14  2  0
 17 19  1  0
 17 16  1  1
 18 17  1  0
 19 21  1  0
 20 19  2  0
M  END
$$$$
