TNA.pdb
     RDKit          3D

 21 20  0  0  1  0  0  0  0  0999 V2000
    1.7626  -19.7790   18.7825 C   0  0  0  0  0  0  0  0  0  0  0  0
    1.9644  -19.9032   20.2764 C   0  0  1  0  0  0  0  0  0  0  0  0
    1.8338  -21.2363   20.6624 O   0  0  0  0  0  0  0  0  0  0  0  0
    3.3536  -19.3746   20.5835 C   0  0  2  0  0  0  0  0  0  0  0  0
    4.2758  -20.2604   19.9033 N   0  0  0  0  0  0  0  0  0  0  0  0
    3.6444  -19.4678   22.0577 C   0  0  0  0  0  0  0  0  0  0  0  0
    2.9384  -18.8026   22.8279 O   0  0  0  0  0  0  0  0  0  0  0  0
    3.0428  -22.3494   23.6279 N   0  0  0  0  0  0  0  0  0  0  0  0
    4.2463  -22.8181   24.2189 C   0  0  0  0  0  0  0  0  0  0  0  0
    4.2237  -24.0326   24.6058 O   0  0  0  0  0  0  0  0  0  0  0  0
    5.3616  -21.9074   24.3296 C   0  0  0  0  0  0  0  0  0  0  0  0
    5.1848  -20.5029   23.8390 C   0  0  2  0  0  0  0  0  0  0  0  0
    4.6776  -20.2807   22.5467 N   0  0  0  0  0  0  0  0  0  0  0  0
    6.3640  -19.7241   24.2426 C   0  0  0  0  0  0  0  0  0  0  0  0
    7.4197  -19.6790   23.5390 O   0  0  0  0  0  0  0  0  0  0  0  0
    7.2297  -16.7698   26.1631 C   0  0  0  0  0  0  0  0  0  0  0  0
    7.6263  -18.1994   25.8057 C   0  0  2  0  0  0  0  0  0  0  0  0
    6.4285  -18.9508   25.4538 N   0  0  0  0  0  0  0  0  0  0  0  0
    8.3666  -18.8616   26.9036 C   0  0  0  0  0  0  0  0  0  0  0  0
    7.8500  -19.8373   27.4999 O   0  0  0  0  0  0  0  0  0  0  0  0
    9.6263  -18.4683   27.3329 O   0  0  0  0  0  0  0  0  0  0  0  0
  2  1  1  6
  2  3  1  0
  2  4  1  0
  4  5  1  6
  6  4  1  0
  6 13  1  0
  7  6  2  0
  8  9  1  0
  9 10  2  0
 12 11  1  6
 11  9  1  0
 12 13  1  0
 12 14  1  0
 14 18  1  0
 15 14  2  0
 17 19  1  0
 17 16  1  1
 18 17  1  0
 19 21  1  0
 20 19  2  0
M  END
$$$$
