TNA.pdb
     RDKit          3D

 21 20  0  0  1  0  0  0  0  0999 V2000
    7.6582  -12.0051   18.7816 C   0  0  0  0  0  0  0  0  0  0  0  0
    8.1966  -13.3181   19.3049 C   0  0  1  0  0  0  0  0  0  0  0  0
    7.1397  -14.1597   19.6485 O   0  0  0  0  0  0  0  0  0  0  0  0
    9.0455  -13.9226   18.2016 C   0  0  2  0  0  0  0  0  0  0  0  0
    8.1409  -14.1836   17.1010 N   0  0  0  0  0  0  0  0  0  0  0  0
    9.6194  -15.2450   18.6358 C   0  0  0  0  0  0  0  0  0  0  0  0
    9.6148  -16.1729   17.8153 O   0  0  0  0  0  0  0  0  0  0  0  0
   11.8445  -19.3285   20.9232 N   0  0  0  0  0  0  0  0  0  0  0  0
   12.6436  -18.2411   20.4801 C   0  0  0  0  0  0  0  0  0  0  0  0
   13.8946  -18.3655   20.6916 O   0  0  0  0  0  0  0  0  0  0  0  0
   11.9923  -17.1186   19.8466 C   0  0  0  0  0  0  0  0  0  0  0  0
   10.8195  -16.4934   20.5381 C   0  0  2  0  0  0  0  0  0  0  0  0
   10.1444  -15.4238   19.9241 N   0  0  0  0  0  0  0  0  0  0  0  0
   11.1491  -16.3521   21.9634 C   0  0  0  0  0  0  0  0  0  0  0  0
   12.1098  -15.6278   22.3683 O   0  0  0  0  0  0  0  0  0  0  0  0
    9.1704  -16.2578   24.9568 C   0  0  0  0  0  0  0  0  0  0  0  0
   10.5542  -16.5861   24.4032 C   0  0  2  0  0  0  0  0  0  0  0  0
   10.4222  -17.0107   23.0156 N   0  0  0  0  0  0  0  0  0  0  0  0
   11.2460  -17.6156   25.2115 C   0  0  0  0  0  0  0  0  0  0  0  0
   11.3532  -18.7843   24.7673 O   0  0  0  0  0  0  0  0  0  0  0  0
   11.7991  -17.3737   26.4610 O   0  0  0  0  0  0  0  0  0  0  0  0
  2  1  1  6
  2  3  1  0
  2  4  1  0
  4  5  1  6
  6  4  1  0
  6 13  1  0
  7  6  2  0
  8  9  1  0
  9 10  2  0
 12 11  1  6
 11  9  1  0
 12 13  1  0
 12 14  1  0
 14 18  1  0
 15 14  2  0
 17 19  1  0
 17 16  1  1
 18 17  1  0
 19 21  1  0
 20 19  2  0
M  END
$$$$
