TNA.pdb
     RDKit          3D

 21 20  0  0  1  0  0  0  0  0999 V2000
    9.5991  -17.2392   16.2993 C   0  0  0  0  0  0  0  0  0  0  0  0
    8.1635  -17.3355   15.8328 C   0  0  1  0  0  0  0  0  0  0  0  0
    8.1090  -17.2282   14.4440 O   0  0  0  0  0  0  0  0  0  0  0  0
    7.6317  -18.6771   16.3027 C   0  0  2  0  0  0  0  0  0  0  0  0
    6.2876  -18.7802   15.7729 N   0  0  0  0  0  0  0  0  0  0  0  0
    7.5277  -18.7120   17.8042 C   0  0  0  0  0  0  0  0  0  0  0  0
    6.5100  -18.2330   18.3229 O   0  0  0  0  0  0  0  0  0  0  0  0
   10.2051  -21.3223   22.6843 N   0  0  0  0  0  0  0  0  0  0  0  0
    9.0922  -20.6737   22.0859 C   0  0  0  0  0  0  0  0  0  0  0  0
    8.2510  -20.1744   22.9034 O   0  0  0  0  0  0  0  0  0  0  0  0
    9.0083  -20.6352   20.6447 C   0  0  0  0  0  0  0  0  0  0  0  0
    8.7574  -19.3155   19.9815 C   0  0  2  0  0  0  0  0  0  0  0  0
    8.5454  -19.2689   18.5924 N   0  0  0  0  0  0  0  0  0  0  0  0
    9.6857  -18.3304   20.5542 C   0  0  0  0  0  0  0  0  0  0  0  0
   10.8926  -18.2345   20.1723 O   0  0  0  0  0  0  0  0  0  0  0  0
    9.4433  -15.2168   22.6494 C   0  0  0  0  0  0  0  0  0  0  0  0
   10.2401  -16.3611   22.0293 C   0  0  2  0  0  0  0  0  0  0  0  0
    9.3165  -17.3964   21.5840 N   0  0  0  0  0  0  0  0  0  0  0  0
   11.2444  -16.9113   22.9677 C   0  0  0  0  0  0  0  0  0  0  0  0
   11.0434  -18.0260   23.5077 O   0  0  0  0  0  0  0  0  0  0  0  0
   12.4249  -16.2634   23.3027 O   0  0  0  0  0  0  0  0  0  0  0  0
  2  1  1  6
  2  3  1  0
  2  4  1  0
  4  5  1  6
  6  4  1  0
  6 13  1  0
  7  6  2  0
  8  9  1  0
  9 10  2  0
 12 11  1  6
 11  9  1  0
 12 13  1  0
 12 14  1  0
 14 18  1  0
 15 14  2  0
 17 19  1  0
 17 16  1  1
 18 17  1  0
 19 21  1  0
 20 19  2  0
M  END
$$$$
