TNA.pdb
     RDKit          3D

 21 20  0  0  1  0  0  0  0  0999 V2000
    8.6244  -12.5219   19.7424 C   0  0  0  0  0  0  0  0  0  0  0  0
    7.8164  -13.3935   18.8068 C   0  0  1  0  0  0  0  0  0  0  0  0
    7.4856  -12.6754   17.6586 O   0  0  0  0  0  0  0  0  0  0  0  0
    8.6724  -14.6016   18.4731 C   0  0  2  0  0  0  0  0  0  0  0  0
    7.9175  -15.3687   17.5039 N   0  0  0  0  0  0  0  0  0  0  0  0
    8.8613  -15.4715   19.6872 C   0  0  0  0  0  0  0  0  0  0  0  0
    7.8855  -16.1194   20.0898 O   0  0  0  0  0  0  0  0  0  0  0  0
   11.5016  -18.2970   19.7699 N   0  0  0  0  0  0  0  0  0  0  0  0
   12.4348  -17.6937   20.6545 C   0  0  0  0  0  0  0  0  0  0  0  0
   13.6346  -18.1104   20.5442 O   0  0  0  0  0  0  0  0  0  0  0  0
   11.9614  -16.6893   21.5779 C   0  0  0  0  0  0  0  0  0  0  0  0
   10.5320  -16.2512   21.4812 C   0  0  2  0  0  0  0  0  0  0  0  0
   10.0993  -15.5501   20.3419 N   0  0  0  0  0  0  0  0  0  0  0  0
   10.1240  -15.7243   22.7912 C   0  0  0  0  0  0  0  0  0  0  0  0
    9.7559  -14.5201   22.9525 O   0  0  0  0  0  0  0  0  0  0  0  0
    8.0475  -15.6559   24.9635 C   0  0  0  0  0  0  0  0  0  0  0  0
    9.5114  -16.0011   25.2221 C   0  0  2  0  0  0  0  0  0  0  0  0
   10.1027  -16.5142   23.9932 N   0  0  0  0  0  0  0  0  0  0  0  0
    9.6663  -16.9688   26.3318 C   0  0  0  0  0  0  0  0  0  0  0  0
    9.2369  -16.6765   27.4741 O   0  0  0  0  0  0  0  0  0  0  0  0
   10.2704  -18.2106   26.1951 O   0  0  0  0  0  0  0  0  0  0  0  0
  2  1  1  1
  2  3  1  0
  2  4  1  0
  4  5  1  6
  6  4  1  0
  6 13  1  0
  7  6  2  0
  8  9  1  0
  9 10  2  0
 12 11  1  1
 11  9  1  0
 12 13  1  0
 12 14  1  0
 14 18  1  0
 15 14  2  0
 17 19  1  0
 17 16  1  6
 18 17  1  0
 19 21  1  0
 20 19  2  0
M  END
$$$$
