QQL.pdb
     RDKit          3D

 27 26  0  0  1  0  0  0  0  0999 V2000
   11.1453  -11.8606  -11.5671 N   0  0  0  0  0  0  0  0  0  0  0  0
   12.3862  -11.4330  -12.1276 C   0  0  0  0  0  0  0  0  0  0  0  0
   13.0667  -10.6312  -11.4964 O   0  0  0  0  0  0  0  0  0  0  0  0
   12.7874  -11.9659  -13.4301 C   0  0  0  0  0  0  0  0  0  0  0  0
   14.1231  -11.4769  -13.8577 C   0  0  0  0  0  0  0  0  0  0  0  0
   14.6506  -12.1555  -15.0767 C   0  0  2  0  0  0  0  0  0  0  0  0
   14.9665  -13.5271  -14.9745 N   0  0  0  0  0  0  0  0  0  0  0  0
   15.7891  -11.2959  -15.5746 C   0  0  0  0  0  0  0  0  0  0  0  0
   16.8178  -11.9179  -15.8866 O   0  0  0  0  0  0  0  0  0  0  0  0
   15.3187   -5.2576  -17.3468 N   0  0  0  0  0  0  0  0  0  0  0  0
   16.5833   -5.6312  -17.8515 C   0  0  0  0  0  0  0  0  0  0  0  0
   17.3140   -4.7921  -18.4194 O   0  0  0  0  0  0  0  0  0  0  0  0
   17.0482   -7.0190  -17.7095 C   0  0  0  0  0  0  0  0  0  0  0  0
   16.0277   -7.8936  -17.0209 C   0  0  0  0  0  0  0  0  0  0  0  0
   16.6429   -8.9789  -16.2214 C   0  0  2  0  0  0  0  0  0  0  0  0
   15.6998   -9.9156  -15.6770 N   0  0  0  0  0  0  0  0  0  0  0  0
   17.7371   -8.6648  -15.3293 C   0  0  0  0  0  0  0  0  0  0  0  0
   17.4203   -8.2871  -14.1589 O   0  0  0  0  0  0  0  0  0  0  0  0
   22.0975  -10.2280  -12.8643 C   0  0  0  0  0  0  0  0  0  0  0  0
   22.4280   -9.5609  -14.1647 C   0  0  1  0  0  0  0  0  0  0  0  0
   23.5354  -10.3865  -14.7888 C   0  0  0  0  0  0  0  0  0  0  0  0
   21.3231   -9.2364  -15.0452 C   0  0  0  0  0  0  0  0  0  0  0  0
   20.2041   -8.3584  -14.7296 C   0  0  2  0  0  0  0  0  0  0  0  0
   19.1027   -8.7371  -15.6317 N   0  0  0  0  0  0  0  0  0  0  0  0
   20.4482   -6.9413  -14.7362 C   0  0  0  0  0  0  0  0  0  0  0  0
   20.2045   -6.0407  -15.7472 O   0  0  0  0  0  0  0  0  0  0  0  0
   20.9659   -6.4189  -13.6816 O   0  0  0  0  0  0  0  0  0  0  0  0
  2  3  2  0
  2  1  1  0
  4  2  1  0
  5  4  1  0
  5  6  1  0
  6  8  1  0
  6  7  1  1
  8  9  2  0
 10 11  1  0
 11 13  1  0
 12 11  2  0
 13 14  1  0
 15 14  1  1
 16 15  1  0
 16  8  1  0
 17 24  1  0
 17 15  1  0
 18 17  2  0
 20 19  1  1
 20 21  1  0
 22 20  1  0
 23 22  1  6
 23 24  1  0
 25 26  1  0
 25 23  1  0
 27 25  2  0
M  END
$$$$
