QQL.pdb
     RDKit          3D

 27 26  0  0  1  0  0  0  0  0999 V2000
   31.5196  -22.0582  -18.2414 N   0  0  0  0  0  0  0  0  0  0  0  0
   31.1091  -21.6497  -19.5458 C   0  0  0  0  0  0  0  0  0  0  0  0
   31.9074  -21.7600  -20.4706 O   0  0  0  0  0  0  0  0  0  0  0  0
   29.7586  -21.1141  -19.7197 C   0  0  0  0  0  0  0  0  0  0  0  0
   29.0243  -20.9943  -18.4341 C   0  0  0  0  0  0  0  0  0  0  0  0
   28.5046  -22.2921  -17.9146 C   0  0  2  0  0  0  0  0  0  0  0  0
   28.6509  -23.4295  -18.7371 N   0  0  0  0  0  0  0  0  0  0  0  0
   27.0832  -22.0279  -17.4750 C   0  0  0  0  0  0  0  0  0  0  0  0
   26.8252  -20.8397  -17.2223 O   0  0  0  0  0  0  0  0  0  0  0  0
   22.1300  -25.3057  -19.2100 N   0  0  0  0  0  0  0  0  0  0  0  0
   22.8371  -24.2820  -19.8775 C   0  0  0  0  0  0  0  0  0  0  0  0
   22.6732  -24.0903  -21.1011 O   0  0  0  0  0  0  0  0  0  0  0  0
   23.7755  -23.4319  -19.1299 C   0  0  0  0  0  0  0  0  0  0  0  0
   23.8237  -23.7899  -17.6637 C   0  0  0  0  0  0  0  0  0  0  0  0
   24.7759  -22.9534  -16.8961 C   0  0  2  0  0  0  0  0  0  0  0  0
   26.1333  -23.0318  -17.3590 N   0  0  0  0  0  0  0  0  0  0  0  0
   24.6517  -22.8828  -15.4568 C   0  0  0  0  0  0  0  0  0  0  0  0
   25.3755  -23.6838  -14.7880 O   0  0  0  0  0  0  0  0  0  0  0  0
   25.9552  -22.0491  -10.7386 C   0  0  0  0  0  0  0  0  0  0  0  0
   25.9249  -20.9912  -11.7994 C   0  0  1  0  0  0  0  0  0  0  0  0
   27.3307  -20.4285  -11.8694 C   0  0  0  0  0  0  0  0  0  0  0  0
   25.3330  -21.3449  -13.0745 C   0  0  0  0  0  0  0  0  0  0  0  0
   23.9391  -21.7014  -13.3036 C   0  0  2  0  0  0  0  0  0  0  0  0
   23.8150  -22.0212  -14.7364 N   0  0  0  0  0  0  0  0  0  0  0  0
   22.9339  -20.7709  -12.8662 C   0  0  0  0  0  0  0  0  0  0  0  0
   22.1277  -19.9651  -13.6364 O   0  0  0  0  0  0  0  0  0  0  0  0
   22.7444  -20.6466  -11.6006 O   0  0  0  0  0  0  0  0  0  0  0  0
  2  3  2  0
  2  1  1  0
  4  2  1  0
  5  4  1  0
  5  6  1  0
  6  8  1  0
  6  7  1  6
  8  9  2  0
 10 11  1  0
 11 13  1  0
 12 11  2  0
 13 14  1  0
 15 14  1  1
 16 15  1  0
 16  8  1  0
 17 24  1  0
 17 15  1  0
 18 17  2  0
 20 19  1  1
 20 21  1  0
 22 20  1  0
 23 22  1  6
 23 24  1  0
 25 26  1  0
 25 23  1  0
 27 25  2  0
M  END
$$$$
