QQL.pdb
     RDKit          3D

 27 26  0  0  1  0  0  0  0  0999 V2000
   17.4543  -15.5902  -16.9830 N   0  0  0  0  0  0  0  0  0  0  0  0
   17.9222  -16.8816  -16.5949 C   0  0  0  0  0  0  0  0  0  0  0  0
   17.1197  -17.8088  -16.5649 O   0  0  0  0  0  0  0  0  0  0  0  0
   19.3344  -17.0394  -16.2460 C   0  0  0  0  0  0  0  0  0  0  0  0
   20.0939  -15.7680  -16.3595 C   0  0  0  0  0  0  0  0  0  0  0  0
   20.7187  -15.5574  -17.6973 C   0  0  2  0  0  0  0  0  0  0  0  0
   21.6298  -16.5342  -18.1528 N   0  0  0  0  0  0  0  0  0  0  0  0
   21.2765  -14.1532  -17.6824 C   0  0  0  0  0  0  0  0  0  0  0  0
   22.4614  -14.0638  -17.3214 O   0  0  0  0  0  0  0  0  0  0  0  0
   21.4346  -11.4428  -22.8950 N   0  0  0  0  0  0  0  0  0  0  0  0
   20.5802  -11.1707  -21.8044 C   0  0  0  0  0  0  0  0  0  0  0  0
   19.6664  -10.3252  -21.9086 O   0  0  0  0  0  0  0  0  0  0  0  0
   20.7639  -11.8863  -20.5330 C   0  0  0  0  0  0  0  0  0  0  0  0
   20.6416  -10.9683  -19.3402 C   0  0  0  0  0  0  0  0  0  0  0  0
   20.9004  -11.6559  -18.0535 C   0  0  2  0  0  0  0  0  0  0  0  0
   20.5272  -13.0429  -18.0421 N   0  0  0  0  0  0  0  0  0  0  0  0
   20.6193  -10.9642  -16.8148 C   0  0  0  0  0  0  0  0  0  0  0  0
   19.7469  -11.4931  -16.0585 O   0  0  0  0  0  0  0  0  0  0  0  0
   22.9275   -9.3964  -12.1595 C   0  0  0  0  0  0  0  0  0  0  0  0
   21.7391  -10.1528  -12.6701 C   0  0  1  0  0  0  0  0  0  0  0  0
   20.5378   -9.5881  -11.9383 C   0  0  0  0  0  0  0  0  0  0  0  0
   21.5927  -10.2696  -14.1075 C   0  0  0  0  0  0  0  0  0  0  0  0
   21.1265   -9.2250  -15.0099 C   0  0  2  0  0  0  0  0  0  0  0  0
   21.2137   -9.7752  -16.3737 N   0  0  0  0  0  0  0  0  0  0  0  0
   21.7455   -7.9313  -14.9060 C   0  0  0  0  0  0  0  0  0  0  0  0
   21.4360   -6.9070  -14.0414 O   0  0  0  0  0  0  0  0  0  0  0  0
   22.7091   -7.6629  -15.7139 O   0  0  0  0  0  0  0  0  0  0  0  0
  2  3  2  0
  2  1  1  0
  4  2  1  0
  5  4  1  0
  5  6  1  0
  6  8  1  0
  6  7  1  1
  8  9  2  0
 10 11  1  0
 11 13  1  0
 12 11  2  0
 13 14  1  0
 15 14  1  6
 16 15  1  0
 16  8  1  0
 17 24  1  0
 17 15  1  0
 18 17  2  0
 20 19  1  6
 20 21  1  0
 22 20  1  0
 23 22  1  1
 23 24  1  0
 25 26  1  0
 25 23  1  0
 27 25  2  0
M  END
$$$$
