QQL.pdb
     RDKit          3D

 27 26  0  0  1  0  0  0  0  0999 V2000
   26.3610  -13.9536  -15.0113 N   0  0  0  0  0  0  0  0  0  0  0  0
   25.8550  -14.9026  -15.9496 C   0  0  0  0  0  0  0  0  0  0  0  0
   26.3751  -16.0125  -15.9957 O   0  0  0  0  0  0  0  0  0  0  0  0
   24.7439  -14.5074  -16.8159 C   0  0  0  0  0  0  0  0  0  0  0  0
   24.3053  -13.1087  -16.5761 C   0  0  0  0  0  0  0  0  0  0  0  0
   22.8938  -12.9923  -16.1089 C   0  0  2  0  0  0  0  0  0  0  0  0
   22.0159  -14.0542  -16.4144 N   0  0  0  0  0  0  0  0  0  0  0  0
   22.4094  -11.6386  -16.5739 C   0  0  0  0  0  0  0  0  0  0  0  0
   22.7910  -11.3067  -17.7082 O   0  0  0  0  0  0  0  0  0  0  0  0
   16.5017  -11.1963  -15.0323 N   0  0  0  0  0  0  0  0  0  0  0  0
   17.2604  -10.0342  -15.2921 C   0  0  0  0  0  0  0  0  0  0  0  0
   16.7052   -8.9893  -15.6928 O   0  0  0  0  0  0  0  0  0  0  0  0
   18.7169  -10.0496  -15.0906 C   0  0  0  0  0  0  0  0  0  0  0  0
   19.4710   -9.7517  -16.3646 C   0  0  0  0  0  0  0  0  0  0  0  0
   20.9296   -9.6023  -16.1506 C   0  0  2  0  0  0  0  0  0  0  0  0
   21.6004  -10.8223  -15.7975 N   0  0  0  0  0  0  0  0  0  0  0  0
   21.4243   -8.4383  -15.4488 C   0  0  0  0  0  0  0  0  0  0  0  0
   21.7472   -8.6078  -14.2324 O   0  0  0  0  0  0  0  0  0  0  0  0
   23.8766   -3.2499  -15.4991 C   0  0  0  0  0  0  0  0  0  0  0  0
   22.4538   -3.4954  -15.9001 C   0  0  1  0  0  0  0  0  0  0  0  0
   22.1474   -2.4896  -16.9919 C   0  0  0  0  0  0  0  0  0  0  0  0
   22.0713   -4.8631  -16.1900 C   0  0  0  0  0  0  0  0  0  0  0  0
   22.0393   -5.9651  -15.2375 C   0  0  2  0  0  0  0  0  0  0  0  0
   21.5796   -7.1518  -15.9799 N   0  0  0  0  0  0  0  0  0  0  0  0
   21.3032   -5.7691  -14.0180 C   0  0  0  0  0  0  0  0  0  0  0  0
   20.0781   -6.2897  -13.6706 O   0  0  0  0  0  0  0  0  0  0  0  0
   21.8247   -5.0107  -13.1201 O   0  0  0  0  0  0  0  0  0  0  0  0
  2  3  2  0
  2  1  1  0
  4  2  1  0
  5  4  1  0
  5  6  1  0
  6  8  1  0
  6  7  1  6
  8  9  2  0
 10 11  1  0
 11 13  1  0
 12 11  2  0
 13 14  1  0
 15 14  1  1
 16 15  1  0
 16  8  1  0
 17 24  1  0
 17 15  1  0
 18 17  2  0
 20 19  1  6
 20 21  1  0
 22 20  1  0
 23 22  1  6
 23 24  1  0
 25 26  1  0
 25 23  1  0
 27 25  2  0
M  END
$$$$
