QQL.pdb
     RDKit          3D

 27 26  0  0  1  0  0  0  0  0999 V2000
   21.2574  -13.7541  -17.5441 N   0  0  0  0  0  0  0  0  0  0  0  0
   21.1674  -12.5099  -18.2376 C   0  0  0  0  0  0  0  0  0  0  0  0
   22.1895  -11.8478  -18.3842 O   0  0  0  0  0  0  0  0  0  0  0  0
   19.8613  -12.0789  -18.7370 C   0  0  0  0  0  0  0  0  0  0  0  0
   19.3700  -10.8517  -18.0597 C   0  0  0  0  0  0  0  0  0  0  0  0
   18.7760  -11.1031  -16.7150 C   0  0  2  0  0  0  0  0  0  0  0  0
   17.5937  -11.8715  -16.6575 N   0  0  0  0  0  0  0  0  0  0  0  0
   18.6665   -9.7523  -16.0467 C   0  0  0  0  0  0  0  0  0  0  0  0
   18.1292   -8.8691  -16.7348 O   0  0  0  0  0  0  0  0  0  0  0  0
   17.0952   -8.9524  -10.1973 N   0  0  0  0  0  0  0  0  0  0  0  0
   17.4981   -7.6363  -10.5123 C   0  0  0  0  0  0  0  0  0  0  0  0
   17.3204   -6.7054   -9.6985 O   0  0  0  0  0  0  0  0  0  0  0  0
   18.1328   -7.3546  -11.8085 C   0  0  0  0  0  0  0  0  0  0  0  0
   18.3222   -8.6053  -12.6334 C   0  0  0  0  0  0  0  0  0  0  0  0
   18.9690   -8.3425  -13.9403 C   0  0  2  0  0  0  0  0  0  0  0  0
   19.1302   -9.5093  -14.7622 N   0  0  0  0  0  0  0  0  0  0  0  0
   20.0843   -7.4237  -14.0036 C   0  0  0  0  0  0  0  0  0  0  0  0
   21.2159   -7.8853  -13.6586 O   0  0  0  0  0  0  0  0  0  0  0  0
   23.1489   -3.5084  -16.4894 C   0  0  0  0  0  0  0  0  0  0  0  0
   21.8019   -3.1421  -15.9446 C   0  0  1  0  0  0  0  0  0  0  0  0
   21.2000   -2.1677  -16.9374 C   0  0  0  0  0  0  0  0  0  0  0  0
   20.9330   -4.2275  -15.5345 C   0  0  0  0  0  0  0  0  0  0  0  0
   21.1754   -5.1513  -14.4342 C   0  0  2  0  0  0  0  0  0  0  0  0
   20.0347   -6.0832  -14.4061 N   0  0  0  0  0  0  0  0  0  0  0  0
   21.4474   -4.5873  -13.1398 C   0  0  0  0  0  0  0  0  0  0  0  0
   20.5836   -4.4335  -12.0802 O   0  0  0  0  0  0  0  0  0  0  0  0
   22.6374   -4.1559  -12.9136 O   0  0  0  0  0  0  0  0  0  0  0  0
  2  3  2  0
  2  1  1  0
  4  2  1  0
  5  4  1  0
  5  6  1  0
  6  8  1  0
  6  7  1  6
  8  9  2  0
 10 11  1  0
 11 13  1  0
 12 11  2  0
 13 14  1  0
 15 14  1  1
 16 15  1  0
 16  8  1  0
 17 24  1  0
 17 15  1  0
 18 17  2  0
 20 19  1  6
 20 21  1  0
 22 20  1  0
 23 22  1  6
 23 24  1  0
 25 26  1  0
 25 23  1  0
 27 25  2  0
M  END
$$$$
