QQL.pdb
     RDKit          3D

 27 26  0  0  1  0  0  0  0  0999 V2000
   29.4891  -18.3072  -18.9442 N   0  0  0  0  0  0  0  0  0  0  0  0
   28.3185  -17.9704  -18.2004 C   0  0  0  0  0  0  0  0  0  0  0  0
   27.2715  -17.7841  -18.8118 O   0  0  0  0  0  0  0  0  0  0  0  0
   28.4213  -17.8580  -16.7451 C   0  0  0  0  0  0  0  0  0  0  0  0
   27.3771  -18.6433  -16.0387 C   0  0  0  0  0  0  0  0  0  0  0  0
   27.8332  -19.9940  -15.6005 C   0  0  2  0  0  0  0  0  0  0  0  0
   28.3442  -20.8623  -16.5887 N   0  0  0  0  0  0  0  0  0  0  0  0
   26.6967  -20.5783  -14.7942 C   0  0  0  0  0  0  0  0  0  0  0  0
   25.8742  -21.2385  -15.4499 O   0  0  0  0  0  0  0  0  0  0  0  0
   26.2148  -20.5706   -8.4013 N   0  0  0  0  0  0  0  0  0  0  0  0
   24.9880  -21.1258   -8.8259 C   0  0  0  0  0  0  0  0  0  0  0  0
   24.1932  -21.6189   -7.9978 O   0  0  0  0  0  0  0  0  0  0  0  0
   24.6388  -21.1256  -10.2543 C   0  0  0  0  0  0  0  0  0  0  0  0
   25.7867  -20.6655  -11.1209 C   0  0  0  0  0  0  0  0  0  0  0  0
   25.4558  -20.6652  -12.5652 C   0  0  2  0  0  0  0  0  0  0  0  0
   26.5741  -20.3944  -13.4250 N   0  0  0  0  0  0  0  0  0  0  0  0
   24.2188  -20.0586  -13.0056 C   0  0  0  0  0  0  0  0  0  0  0  0
   24.2983  -18.8696  -13.4442 O   0  0  0  0  0  0  0  0  0  0  0  0
   21.2700  -17.9318  -16.3626 C   0  0  0  0  0  0  0  0  0  0  0  0
   21.2358  -19.4064  -16.0990 C   0  0  1  0  0  0  0  0  0  0  0  0
   21.3738  -20.0765  -17.4515 C   0  0  0  0  0  0  0  0  0  0  0  0
   22.1091  -19.9167  -15.0606 C   0  0  0  0  0  0  0  0  0  0  0  0
   21.7491  -20.1298  -13.6650 C   0  0  2  0  0  0  0  0  0  0  0  0
   22.9513  -20.6541  -12.9940 N   0  0  0  0  0  0  0  0  0  0  0  0
   20.5842  -20.9276  -13.3930 C   0  0  0  0  0  0  0  0  0  0  0  0
   19.2810  -20.5101  -13.2517 O   0  0  0  0  0  0  0  0  0  0  0  0
   20.7474  -22.1951  -13.2510 O   0  0  0  0  0  0  0  0  0  0  0  0
  2  3  2  0
  2  1  1  0
  4  2  1  0
  5  4  1  0
  5  6  1  0
  6  8  1  0
  6  7  1  6
  8  9  2  0
 10 11  1  0
 11 13  1  0
 12 11  2  0
 13 14  1  0
 15 14  1  1
 16 15  1  0
 16  8  1  0
 17 24  1  0
 17 15  1  0
 18 17  2  0
 20 19  1  6
 20 21  1  0
 22 20  1  0
 23 22  1  6
 23 24  1  0
 25 26  1  0
 25 23  1  0
 27 25  2  0
M  END
$$$$
