QQL.pdb
     RDKit          3D

 27 26  0  0  1  0  0  0  0  0999 V2000
   14.7141  -13.8493  -18.3781 N   0  0  0  0  0  0  0  0  0  0  0  0
   16.0232  -14.3455  -18.1004 C   0  0  0  0  0  0  0  0  0  0  0  0
   16.4090  -15.3431  -18.7007 O   0  0  0  0  0  0  0  0  0  0  0  0
   16.8423  -13.6457  -17.1102 C   0  0  0  0  0  0  0  0  0  0  0  0
   16.1267  -12.5045  -16.4842 C   0  0  0  0  0  0  0  0  0  0  0  0
   16.2506  -12.4582  -14.9986 C   0  0  2  0  0  0  0  0  0  0  0  0
   15.7729  -13.5679  -14.2694 N   0  0  0  0  0  0  0  0  0  0  0  0
   15.6564  -11.1367  -14.5701 C   0  0  0  0  0  0  0  0  0  0  0  0
   14.7588  -10.7013  -15.3096 O   0  0  0  0  0  0  0  0  0  0  0  0
   14.1277   -9.6182   -8.9861 N   0  0  0  0  0  0  0  0  0  0  0  0
   13.2935  -10.0362  -10.0457 C   0  0  0  0  0  0  0  0  0  0  0  0
   12.1754  -10.5423   -9.8124 O   0  0  0  0  0  0  0  0  0  0  0  0
   13.7406   -9.8763  -11.4374 C   0  0  0  0  0  0  0  0  0  0  0  0
   15.1171   -9.2618  -11.5260 C   0  0  0  0  0  0  0  0  0  0  0  0
   15.6310   -9.1943  -12.9141 C   0  0  2  0  0  0  0  0  0  0  0  0
   16.0776  -10.4549  -13.4381 N   0  0  0  0  0  0  0  0  0  0  0  0
   16.4543   -8.0722  -13.3080 C   0  0  0  0  0  0  0  0  0  0  0  0
   17.6823   -8.3193  -13.5172 O   0  0  0  0  0  0  0  0  0  0  0  0
   18.9112   -5.8632  -17.2486 C   0  0  0  0  0  0  0  0  0  0  0  0
   18.3440   -5.2231  -16.0182 C   0  0  1  0  0  0  0  0  0  0  0  0
   17.7594   -3.8987  -16.4673 C   0  0  0  0  0  0  0  0  0  0  0  0
   17.4780   -6.0343  -15.1856 C   0  0  0  0  0  0  0  0  0  0  0  0
   16.8711   -5.6259  -13.9256 C   0  0  2  0  0  0  0  0  0  0  0  0
   16.0286   -6.7490  -13.4791 N   0  0  0  0  0  0  0  0  0  0  0  0
   16.1636   -4.3743  -13.9029 C   0  0  0  0  0  0  0  0  0  0  0  0
   16.6787   -3.1086  -13.7438 O   0  0  0  0  0  0  0  0  0  0  0  0
   14.8854   -4.4074  -14.0387 O   0  0  0  0  0  0  0  0  0  0  0  0
  2  3  2  0
  2  1  1  0
  4  2  1  0
  5  4  1  0
  5  6  1  0
  6  8  1  0
  6  7  1  1
  8  9  2  0
 10 11  1  0
 11 13  1  0
 12 11  2  0
 13 14  1  0
 15 14  1  1
 16 15  1  0
 16  8  1  0
 17 24  1  0
 17 15  1  0
 18 17  2  0
 20 19  1  6
 20 21  1  0
 22 20  1  0
 23 22  1  6
 23 24  1  0
 25 26  1  0
 25 23  1  0
 27 25  2  0
M  END
$$$$
