QQL.pdb
     RDKit          3D

 27 26  0  0  1  0  0  0  0  0999 V2000
   26.9496  -18.0431  -18.7116 N   0  0  0  0  0  0  0  0  0  0  0  0
   28.3041  -17.9341  -18.2749 C   0  0  0  0  0  0  0  0  0  0  0  0
   29.1163  -17.3956  -19.0199 O   0  0  0  0  0  0  0  0  0  0  0  0
   28.6628  -18.4732  -16.9628 C   0  0  0  0  0  0  0  0  0  0  0  0
   27.4799  -18.9479  -16.2001 C   0  0  0  0  0  0  0  0  0  0  0  0
   27.7054  -20.2333  -15.4781 C   0  0  2  0  0  0  0  0  0  0  0  0
   28.3116  -21.2867  -16.1954 N   0  0  0  0  0  0  0  0  0  0  0  0
   26.3808  -20.5978  -14.8489 C   0  0  0  0  0  0  0  0  0  0  0  0
   25.5695  -21.1434  -15.6147 O   0  0  0  0  0  0  0  0  0  0  0  0
   25.2256  -20.4480   -8.5680 N   0  0  0  0  0  0  0  0  0  0  0  0
   24.0078  -20.9299   -9.0954 C   0  0  0  0  0  0  0  0  0  0  0  0
   23.0698  -21.2525   -8.3360 O   0  0  0  0  0  0  0  0  0  0  0  0
   23.8377  -21.0547  -10.5507 C   0  0  0  0  0  0  0  0  0  0  0  0
   25.0946  -20.6898  -11.3041 C   0  0  0  0  0  0  0  0  0  0  0  0
   24.8977  -20.6534  -12.7722 C   0  0  2  0  0  0  0  0  0  0  0  0
   26.0858  -20.3441  -13.5177 N   0  0  0  0  0  0  0  0  0  0  0  0
   23.6971  -20.0507  -13.3084 C   0  0  0  0  0  0  0  0  0  0  0  0
   23.7119  -18.7881  -13.4444 O   0  0  0  0  0  0  0  0  0  0  0  0
   22.0367  -19.8484  -18.0086 C   0  0  0  0  0  0  0  0  0  0  0  0
   22.0522  -19.4273  -16.5707 C   0  0  1  0  0  0  0  0  0  0  0  0
   21.7203  -17.9483  -16.5643 C   0  0  0  0  0  0  0  0  0  0  0  0
   21.3000  -20.2369  -15.6326 C   0  0  0  0  0  0  0  0  0  0  0  0
   21.2945  -20.0882  -14.1833 C   0  0  2  0  0  0  0  0  0  0  0  0
   22.5288  -20.7226  -13.6889 N   0  0  0  0  0  0  0  0  0  0  0  0
   20.1293  -20.5409  -13.4726 C   0  0  0  0  0  0  0  0  0  0  0  0
   18.9312  -19.8874  -13.2992 O   0  0  0  0  0  0  0  0  0  0  0  0
   20.1833  -21.6959  -12.9101 O   0  0  0  0  0  0  0  0  0  0  0  0
  2  3  2  0
  2  1  1  0
  4  2  1  0
  5  4  1  0
  5  6  1  0
  6  8  1  0
  6  7  1  6
  8  9  2  0
 10 11  1  0
 11 13  1  0
 12 11  2  0
 13 14  1  0
 15 14  1  1
 16 15  1  0
 16  8  1  0
 17 24  1  0
 17 15  1  0
 18 17  2  0
 20 19  1  6
 20 21  1  0
 22 20  1  0
 23 22  1  6
 23 24  1  0
 25 26  1  0
 25 23  1  0
 27 25  2  0
M  END
$$$$
