QQL.pdb
     RDKit          3D

 27 26  0  0  1  0  0  0  0  0999 V2000
   25.5849  -16.8132  -18.2290 N   0  0  0  0  0  0  0  0  0  0  0  0
   24.9680  -18.0820  -18.4448 C   0  0  0  0  0  0  0  0  0  0  0  0
   25.5799  -19.0926  -18.1150 O   0  0  0  0  0  0  0  0  0  0  0  0
   23.6377  -18.1198  -19.0532 C   0  0  0  0  0  0  0  0  0  0  0  0
   23.1231  -16.7654  -19.3802 C   0  0  0  0  0  0  0  0  0  0  0  0
   22.3637  -16.1252  -18.2676 C   0  0  2  0  0  0  0  0  0  0  0  0
   21.0423  -16.5659  -18.0417 N   0  0  0  0  0  0  0  0  0  0  0  0
   22.4889  -14.6343  -18.4791 C   0  0  0  0  0  0  0  0  0  0  0  0
   23.3798  -14.2906  -19.2730 O   0  0  0  0  0  0  0  0  0  0  0  0
   19.0592   -9.5424  -19.4472 N   0  0  0  0  0  0  0  0  0  0  0  0
   18.5198  -10.3884  -18.4537 C   0  0  0  0  0  0  0  0  0  0  0  0
   17.4175  -10.1276  -17.9271 O   0  0  0  0  0  0  0  0  0  0  0  0
   19.2588  -11.5878  -18.0323 C   0  0  0  0  0  0  0  0  0  0  0  0
   20.5532  -11.7551  -18.7918 C   0  0  0  0  0  0  0  0  0  0  0  0
   21.6529  -12.2814  -17.9496 C   0  0  2  0  0  0  0  0  0  0  0  0
   21.6744  -13.7131  -17.8374 N   0  0  0  0  0  0  0  0  0  0  0  0
   21.9945  -11.5932  -16.7242 C   0  0  0  0  0  0  0  0  0  0  0  0
   21.2225  -11.7863  -15.7346 O   0  0  0  0  0  0  0  0  0  0  0  0
   26.2259   -8.9886  -16.6602 C   0  0  0  0  0  0  0  0  0  0  0  0
   25.8784  -10.2773  -15.9791 C   0  0  1  0  0  0  0  0  0  0  0  0
   27.1895  -10.8568  -15.4863 C   0  0  0  0  0  0  0  0  0  0  0  0
   24.8072  -10.2457  -15.0031 C   0  0  0  0  0  0  0  0  0  0  0  0
   23.3969  -10.0119  -15.2846 C   0  0  2  0  0  0  0  0  0  0  0  0
   23.0879  -10.7404  -16.5273 N   0  0  0  0  0  0  0  0  0  0  0  0
   22.9447   -8.6477  -15.3285 C   0  0  0  0  0  0  0  0  0  0  0  0
   22.7670   -7.7761  -14.2791 O   0  0  0  0  0  0  0  0  0  0  0  0
   22.6541   -8.1508  -16.4783 O   0  0  0  0  0  0  0  0  0  0  0  0
  2  3  2  0
  2  1  1  0
  4  2  1  0
  5  4  1  0
  5  6  1  0
  6  8  1  0
  6  7  1  6
  8  9  2  0
 10 11  1  0
 11 13  1  0
 12 11  2  0
 13 14  1  0
 15 14  1  1
 16 15  1  0
 16  8  1  0
 17 24  1  0
 17 15  1  0
 18 17  2  0
 20 19  1  1
 20 21  1  0
 22 20  1  0
 23 22  1  6
 23 24  1  0
 25 26  1  0
 25 23  1  0
 27 25  2  0
M  END
$$$$
