QQL.pdb
     RDKit          3D

 27 26  0  0  1  0  0  0  0  0999 V2000
   13.6102  -13.9215  -16.9021 N   0  0  0  0  0  0  0  0  0  0  0  0
   14.5818  -13.0095  -16.3910 C   0  0  0  0  0  0  0  0  0  0  0  0
   14.3658  -11.8066  -16.4959 O   0  0  0  0  0  0  0  0  0  0  0  0
   15.7919  -13.5498  -15.7705 C   0  0  0  0  0  0  0  0  0  0  0  0
   16.9789  -12.6844  -15.9903 C   0  0  0  0  0  0  0  0  0  0  0  0
   17.7821  -13.0577  -17.1902 C   0  0  2  0  0  0  0  0  0  0  0  0
   18.3118  -14.3648  -17.2397 N   0  0  0  0  0  0  0  0  0  0  0  0
   18.8144  -11.9672  -17.3587 C   0  0  0  0  0  0  0  0  0  0  0  0
   19.9507  -12.2532  -16.9472 O   0  0  0  0  0  0  0  0  0  0  0  0
   18.0726   -6.6961  -20.8064 N   0  0  0  0  0  0  0  0  0  0  0  0
   19.4546   -6.6858  -20.5175 C   0  0  0  0  0  0  0  0  0  0  0  0
   20.1787   -5.7465  -20.9097 O   0  0  0  0  0  0  0  0  0  0  0  0
   20.0508   -7.7882  -19.7483 C   0  0  0  0  0  0  0  0  0  0  0  0
   19.0418   -8.8616  -19.4164 C   0  0  0  0  0  0  0  0  0  0  0  0
   19.3927   -9.6266  -18.1969 C   0  0  2  0  0  0  0  0  0  0  0  0
   18.5219  -10.7367  -17.9278 N   0  0  0  0  0  0  0  0  0  0  0  0
   19.8124   -8.9115  -17.0118 C   0  0  0  0  0  0  0  0  0  0  0  0
   18.9107   -8.6660  -16.1519 O   0  0  0  0  0  0  0  0  0  0  0  0
   24.3747  -10.1878  -14.2573 C   0  0  0  0  0  0  0  0  0  0  0  0
   22.9746   -9.7451  -14.5561 C   0  0  1  0  0  0  0  0  0  0  0  0
   22.1632  -10.0577  -13.3145 C   0  0  0  0  0  0  0  0  0  0  0  0
   22.7996   -8.4101  -15.0929 C   0  0  0  0  0  0  0  0  0  0  0  0
   21.5346   -7.8010  -15.4819 C   0  0  2  0  0  0  0  0  0  0  0  0
   21.1094   -8.4675  -16.7250 N   0  0  0  0  0  0  0  0  0  0  0  0
   21.4926   -6.3680  -15.5928 C   0  0  0  0  0  0  0  0  0  0  0  0
   21.2082   -5.6086  -16.7040 O   0  0  0  0  0  0  0  0  0  0  0  0
   21.7566   -5.6788  -14.5398 O   0  0  0  0  0  0  0  0  0  0  0  0
  2  3  2  0
  2  1  1  0
  4  2  1  0
  5  4  1  0
  5  6  1  0
  6  8  1  0
  6  7  1  1
  8  9  2  0
 10 11  1  0
 11 13  1  0
 12 11  2  0
 13 14  1  0
 15 14  1  6
 16 15  1  0
 16  8  1  0
 17 24  1  0
 17 15  1  0
 18 17  2  0
 20 19  1  1
 20 21  1  0
 22 20  1  0
 23 22  1  6
 23 24  1  0
 25 26  1  0
 25 23  1  0
 27 25  2  0
M  END
$$$$
