QQL.pdb
     RDKit          3D

 27 26  0  0  1  0  0  0  0  0999 V2000
   15.0058  -13.6364  -14.2047 N   0  0  0  0  0  0  0  0  0  0  0  0
   14.0067  -12.9971  -14.9985 C   0  0  0  0  0  0  0  0  0  0  0  0
   13.2183  -13.6999  -15.6222 O   0  0  0  0  0  0  0  0  0  0  0  0
   13.9714  -11.5347  -15.0361 C   0  0  0  0  0  0  0  0  0  0  0  0
   15.2928  -10.9422  -15.3661 C   0  0  0  0  0  0  0  0  0  0  0  0
   15.5809  -10.8903  -16.8286 C   0  0  2  0  0  0  0  0  0  0  0  0
   15.5858  -12.1114  -17.5361 N   0  0  0  0  0  0  0  0  0  0  0  0
   16.8520  -10.0868  -16.9765 C   0  0  0  0  0  0  0  0  0  0  0  0
   17.9016  -10.7390  -16.8530 O   0  0  0  0  0  0  0  0  0  0  0  0
   18.8383   -6.9806  -20.8335 N   0  0  0  0  0  0  0  0  0  0  0  0
   19.4217   -6.0268  -19.9714 C   0  0  0  0  0  0  0  0  0  0  0  0
   20.3920   -5.3372  -20.3503 O   0  0  0  0  0  0  0  0  0  0  0  0
   18.8857   -5.8402  -18.6148 C   0  0  0  0  0  0  0  0  0  0  0  0
   17.6783   -6.7092  -18.3553 C   0  0  0  0  0  0  0  0  0  0  0  0
   17.9646   -7.8361  -17.4368 C   0  0  2  0  0  0  0  0  0  0  0  0
   16.8541   -8.7232  -17.2299 N   0  0  0  0  0  0  0  0  0  0  0  0
   18.7498   -7.5941  -16.2464 C   0  0  0  0  0  0  0  0  0  0  0  0
   18.1087   -7.2339  -15.2111 O   0  0  0  0  0  0  0  0  0  0  0  0
   21.7672   -9.5223  -12.4791 C   0  0  0  0  0  0  0  0  0  0  0  0
   22.5907   -9.0085  -13.6206 C   0  0  1  0  0  0  0  0  0  0  0  0
   23.6846  -10.0341  -13.8422 C   0  0  0  0  0  0  0  0  0  0  0  0
   21.8837   -8.5866  -14.8136 C   0  0  0  0  0  0  0  0  0  0  0  0
   20.9216   -7.4959  -14.8999 C   0  0  2  0  0  0  0  0  0  0  0  0
   20.1398   -7.7185  -16.1285 N   0  0  0  0  0  0  0  0  0  0  0  0
   21.4290   -6.1531  -14.8153 C   0  0  0  0  0  0  0  0  0  0  0  0
   21.9111   -5.3602  -15.8309 O   0  0  0  0  0  0  0  0  0  0  0  0
   21.4562   -5.5961  -13.6567 O   0  0  0  0  0  0  0  0  0  0  0  0
  2  3  2  0
  2  1  1  0
  4  2  1  0
  5  4  1  0
  5  6  1  0
  6  8  1  0
  6  7  1  1
  8  9  2  0
 10 11  1  0
 11 13  1  0
 12 11  2  0
 13 14  1  0
 15 14  1  1
 16 15  1  0
 16  8  1  0
 17 24  1  0
 17 15  1  0
 18 17  2  0
 20 19  1  1
 20 21  1  0
 22 20  1  0
 23 22  1  6
 23 24  1  0
 25 26  1  0
 25 23  1  0
 27 25  2  0
M  END
$$$$
