QQL.pdb
     RDKit          3D

 27 26  0  0  1  0  0  0  0  0999 V2000
   18.0968  -18.2786  -12.5131 N   0  0  0  0  0  0  0  0  0  0  0  0
   17.5448  -19.4535  -11.9199 C   0  0  0  0  0  0  0  0  0  0  0  0
   16.5124  -19.3476  -11.2659 O   0  0  0  0  0  0  0  0  0  0  0  0
   18.2368  -20.7280  -12.1143 C   0  0  0  0  0  0  0  0  0  0  0  0
   19.5370  -20.5682  -12.8144 C   0  0  0  0  0  0  0  0  0  0  0  0
   19.8019  -21.6188  -13.8393 C   0  0  2  0  0  0  0  0  0  0  0  0
   19.4576  -22.9483  -13.5146 N   0  0  0  0  0  0  0  0  0  0  0  0
   21.2423  -21.4400  -14.2594 C   0  0  0  0  0  0  0  0  0  0  0  0
   22.0543  -22.1740  -13.6728 O   0  0  0  0  0  0  0  0  0  0  0  0
   23.0832  -18.5687  -19.6264 N   0  0  0  0  0  0  0  0  0  0  0  0
   24.3162  -18.8654  -19.0058 C   0  0  0  0  0  0  0  0  0  0  0  0
   25.3942  -18.6519  -19.5998 O   0  0  0  0  0  0  0  0  0  0  0  0
   24.3362  -19.4308  -17.6485 C   0  0  0  0  0  0  0  0  0  0  0  0
   22.9455  -19.6761  -17.1135 C   0  0  0  0  0  0  0  0  0  0  0  0
   22.9455  -20.2641  -15.7534 C   0  0  2  0  0  0  0  0  0  0  0  0
   21.6355  -20.5260  -15.2257 N   0  0  0  0  0  0  0  0  0  0  0  0
   23.8839  -19.7688  -14.7705 C   0  0  0  0  0  0  0  0  0  0  0  0
   23.6141  -18.6422  -14.2502 O   0  0  0  0  0  0  0  0  0  0  0  0
   25.7419  -22.0359  -10.4166 C   0  0  0  0  0  0  0  0  0  0  0  0
   25.3463  -21.0242  -11.4487 C   0  0  1  0  0  0  0  0  0  0  0  0
   24.6686  -19.8985  -10.6930 C   0  0  0  0  0  0  0  0  0  0  0  0
   26.3605  -20.6124  -12.3990 C   0  0  0  0  0  0  0  0  0  0  0  0
   26.1456  -19.7826  -13.5771 C   0  0  2  0  0  0  0  0  0  0  0  0
   25.0533  -20.4092  -14.3416 N   0  0  0  0  0  0  0  0  0  0  0  0
   27.2867  -19.4899  -14.4017 C   0  0  0  0  0  0  0  0  0  0  0  0
   27.4881  -19.8167  -15.7227 O   0  0  0  0  0  0  0  0  0  0  0  0
   28.2636  -18.8489  -13.8649 O   0  0  0  0  0  0  0  0  0  0  0  0
  2  3  2  0
  2  1  1  0
  4  2  1  0
  5  4  1  0
  5  6  1  0
  6  8  1  0
  6  7  1  1
  8  9  2  0
 10 11  1  0
 11 13  1  0
 12 11  2  0
 13 14  1  0
 15 14  1  6
 16 15  1  0
 16  8  1  0
 17 24  1  0
 17 15  1  0
 18 17  2  0
 20 19  1  1
 20 21  1  0
 22 20  1  0
 23 22  1  1
 23 24  1  0
 25 26  1  0
 25 23  1  0
 27 25  2  0
M  END
$$$$
