QQL.pdb
     RDKit          3D

 27 26  0  0  1  0  0  0  0  0999 V2000
   24.3254  -20.9598   -9.7447 N   0  0  0  0  0  0  0  0  0  0  0  0
   24.8605  -20.4993   -8.5043 C   0  0  0  0  0  0  0  0  0  0  0  0
   24.2440  -20.7491   -7.4736 O   0  0  0  0  0  0  0  0  0  0  0  0
   26.1154  -19.7469   -8.5188 C   0  0  0  0  0  0  0  0  0  0  0  0
   26.6192  -19.5076   -9.8954 C   0  0  0  0  0  0  0  0  0  0  0  0
   27.3507  -20.6689  -10.4790 C   0  0  2  0  0  0  0  0  0  0  0  0
   28.7215  -20.7987  -10.1695 N   0  0  0  0  0  0  0  0  0  0  0  0
   27.0522  -20.6501  -11.9601 C   0  0  0  0  0  0  0  0  0  0  0  0
   27.9427  -20.1519  -12.6680 O   0  0  0  0  0  0  0  0  0  0  0  0
   24.8309  -25.1338  -16.9417 N   0  0  0  0  0  0  0  0  0  0  0  0
   24.3238  -24.4131  -15.8385 C   0  0  0  0  0  0  0  0  0  0  0  0
   23.4930  -24.9358  -15.0658 O   0  0  0  0  0  0  0  0  0  0  0  0
   24.7748  -23.0351  -15.5933 C   0  0  0  0  0  0  0  0  0  0  0  0
   25.0864  -22.7889  -14.1364 C   0  0  0  0  0  0  0  0  0  0  0  0
   25.5314  -21.4014  -13.8676 C   0  0  2  0  0  0  0  0  0  0  0  0
   25.8740  -21.1487  -12.4958 N   0  0  0  0  0  0  0  0  0  0  0  0
   24.8447  -20.3030  -14.5111 C   0  0  0  0  0  0  0  0  0  0  0  0
   23.8635  -19.8030  -13.8788 O   0  0  0  0  0  0  0  0  0  0  0  0
   27.5625  -16.5618  -17.5723 C   0  0  0  0  0  0  0  0  0  0  0  0
   26.6039  -17.1808  -16.6011 C   0  0  1  0  0  0  0  0  0  0  0  0
   26.2859  -16.1037  -15.5831 C   0  0  0  0  0  0  0  0  0  0  0  0
   25.4560  -17.8748  -17.1506 C   0  0  0  0  0  0  0  0  0  0  0  0
   24.4560  -18.6137  -16.3911 C   0  0  2  0  0  0  0  0  0  0  0  0
   25.1572  -19.7430  -15.7561 N   0  0  0  0  0  0  0  0  0  0  0  0
   23.2692  -19.0333  -17.0861 C   0  0  0  0  0  0  0  0  0  0  0  0
   22.9132  -20.3054  -17.4703 O   0  0  0  0  0  0  0  0  0  0  0  0
   22.4150  -18.1287  -17.4108 O   0  0  0  0  0  0  0  0  0  0  0  0
  2  3  2  0
  2  1  1  0
  4  2  1  0
  5  4  1  0
  5  6  1  0
  6  8  1  0
  6  7  1  6
  8  9  2  0
 10 11  1  0
 11 13  1  0
 12 11  2  0
 13 14  1  0
 15 14  1  1
 16 15  1  0
 16  8  1  0
 17 24  1  0
 17 15  1  0
 18 17  2  0
 20 19  1  6
 20 21  1  0
 22 20  1  0
 23 22  1  6
 23 24  1  0
 25 26  1  0
 25 23  1  0
 27 25  2  0
M  END
$$$$
