IDI.pdb
     RDKit          3D

 25 24  0  0  1  0  0  0  0  0999 V2000
    7.3870  -11.7535   19.2957 C   0  0  0  0  0  0  0  0  0  0  0  0
    7.4893  -13.2677   19.2950 C   0  0  0  0  0  0  0  0  0  0  0  0
    7.6886  -13.8391   20.6433 C   0  0  2  0  0  0  0  0  0  0  0  0
    8.9119  -13.3052   21.3531 C   0  0  0  0  0  0  0  0  0  0  0  0
    7.8305  -15.3434   20.5696 C   0  0  2  0  0  0  0  0  0  0  0  0
    6.6208  -15.8987   19.9277 N   0  0  0  0  0  0  0  0  0  0  0  0
    7.9879  -16.0022   21.8799 C   0  0  0  0  0  0  0  0  0  0  0  0
    6.9474  -16.1541   22.5986 O   0  0  0  0  0  0  0  0  0  0  0  0
    9.2235  -16.4700   22.3625 N   0  0  0  0  0  0  0  0  0  0  0  0
    9.3346  -17.0016   23.7276 C   0  0  1  0  0  0  0  0  0  0  0  0
   10.2902  -18.1433   23.7587 C   0  0  0  0  0  0  0  0  0  0  0  0
   10.5109  -18.7535   25.0727 C   0  0  0  0  0  0  0  0  0  0  0  0
    9.7263  -18.5922   26.0257 O   0  0  0  0  0  0  0  0  0  0  0  0
    9.6856  -15.9181   24.6639 C   0  0  0  0  0  0  0  0  0  0  0  0
   10.8188  -15.3288   24.5934 O   0  0  0  0  0  0  0  0  0  0  0  0
   11.6368  -19.5434   25.2689 O   0  0  0  0  0  0  0  0  0  0  0  0
    6.0516  -12.5010   26.9090 C   0  0  0  0  0  0  0  0  0  0  0  0
    6.9752  -13.7260   26.8986 C   0  0  0  0  0  0  0  0  0  0  0  0
    8.3113  -13.2596   26.4390 C   0  0  2  0  0  0  0  0  0  0  0  0
    8.3411  -12.7823   25.0265 C   0  0  0  0  0  0  0  0  0  0  0  0
    9.3288  -14.3753   26.5966 C   0  0  2  0  0  0  0  0  0  0  0  0
    8.8389  -15.4316   25.6909 N   0  0  0  0  0  0  0  0  0  0  0  0
    9.3677  -14.9308   27.9537 C   0  0  0  0  0  0  0  0  0  0  0  0
    9.8971  -14.2870   29.0689 O   0  0  0  0  0  0  0  0  0  0  0  0
    8.8916  -16.0954   28.1834 O   0  0  0  0  0  0  0  0  0  0  0  0
  2  1  1  0
  3  2  1  0
  3  5  1  0
  3  4  1  6
  5  6  1  1
  7  5  1  0
  7  8  2  0
  9  7  1  0
 10  9  1  0
 10 11  1  6
 12 16  1  0
 12 11  1  0
 13 12  2  0
 14 10  1  0
 15 14  2  0
 18 17  1  0
 19 18  1  0
 19 20  1  6
 21 19  1  0
 21 22  1  6
 22 14  1  0
 23 24  1  0
 23 21  1  0
 25 23  2  0
M  END
$$$$
