IDI.pdb
     RDKit          3D

 25 24  0  0  1  0  0  0  0  0999 V2000
    7.3443  -11.9394   19.4836 C   0  0  0  0  0  0  0  0  0  0  0  0
    7.3987  -13.4560   19.5053 C   0  0  0  0  0  0  0  0  0  0  0  0
    7.7527  -14.0077   20.8298 C   0  0  2  0  0  0  0  0  0  0  0  0
    9.0858  -13.5224   21.3519 C   0  0  0  0  0  0  0  0  0  0  0  0
    7.8104  -15.5185   20.7803 C   0  0  2  0  0  0  0  0  0  0  0  0
    6.4949  -16.0249   20.3370 N   0  0  0  0  0  0  0  0  0  0  0  0
    8.1260  -16.1556   22.0727 C   0  0  0  0  0  0  0  0  0  0  0  0
    7.1871  -16.2680   22.9260 O   0  0  0  0  0  0  0  0  0  0  0  0
    9.4043  -16.6442   22.3979 N   0  0  0  0  0  0  0  0  0  0  0  0
    9.6693  -17.2022   23.7310 C   0  0  1  0  0  0  0  0  0  0  0  0
   10.7359  -18.2384   23.6520 C   0  0  0  0  0  0  0  0  0  0  0  0
   11.1496  -18.8252   24.9296 C   0  0  0  0  0  0  0  0  0  0  0  0
   12.3453  -18.9445   25.2553 O   0  0  0  0  0  0  0  0  0  0  0  0
    9.9761  -16.1167   24.6804 C   0  0  0  0  0  0  0  0  0  0  0  0
   10.9667  -15.3314   24.4843 O   0  0  0  0  0  0  0  0  0  0  0  0
   10.1752  -19.2668   25.8158 O   0  0  0  0  0  0  0  0  0  0  0  0
    6.5214  -12.8222   26.3676 C   0  0  0  0  0  0  0  0  0  0  0  0
    7.8036  -13.5404   25.9273 C   0  0  0  0  0  0  0  0  0  0  0  0
    8.4750  -14.0283   27.1623 C   0  0  2  0  0  0  0  0  0  0  0  0
    8.8520  -12.9502   28.1213 C   0  0  0  0  0  0  0  0  0  0  0  0
    9.7232  -14.8108   26.7954 C   0  0  2  0  0  0  0  0  0  0  0  0
    9.2341  -15.8365   25.8547 N   0  0  0  0  0  0  0  0  0  0  0  0
   10.3254  -15.5028   27.9401 C   0  0  0  0  0  0  0  0  0  0  0  0
   10.0778  -16.8252   28.2985 O   0  0  0  0  0  0  0  0  0  0  0  0
   11.1485  -14.8869   28.7008 O   0  0  0  0  0  0  0  0  0  0  0  0
  2  1  1  0
  3  2  1  0
  3  5  1  0
  3  4  1  6
  5  6  1  1
  7  5  1  0
  7  8  2  0
  9  7  1  0
 10  9  1  0
 10 11  1  6
 12 16  1  0
 12 11  1  0
 13 12  2  0
 14 10  1  0
 15 14  2  0
 18 17  1  0
 19 18  1  0
 19 20  1  1
 21 19  1  0
 21 22  1  6
 22 14  1  0
 23 24  1  0
 23 21  1  0
 25 23  2  0
M  END
$$$$
