IDI.pdb
     RDKit          3D

 25 24  0  0  1  0  0  0  0  0999 V2000
    7.4714  -11.9071   18.4454 C   0  0  0  0  0  0  0  0  0  0  0  0
    7.9293  -13.3516   18.5287 C   0  0  0  0  0  0  0  0  0  0  0  0
    7.8892  -13.8976   19.9014 C   0  0  2  0  0  0  0  0  0  0  0  0
    8.8101  -13.1839   20.8647 C   0  0  0  0  0  0  0  0  0  0  0  0
    8.2774  -15.3597   19.9057 C   0  0  2  0  0  0  0  0  0  0  0  0
    7.3490  -16.0950   19.0219 N   0  0  0  0  0  0  0  0  0  0  0  0
    8.2312  -15.9952   21.2359 C   0  0  0  0  0  0  0  0  0  0  0  0
    7.0871  -16.2276   21.7452 O   0  0  0  0  0  0  0  0  0  0  0  0
    9.3839  -16.3567   21.9565 N   0  0  0  0  0  0  0  0  0  0  0  0
    9.2709  -16.8805   23.3245 C   0  0  1  0  0  0  0  0  0  0  0  0
   10.1235  -18.0910   23.4837 C   0  0  0  0  0  0  0  0  0  0  0  0
   11.5502  -17.9064   23.2040 C   0  0  0  0  0  0  0  0  0  0  0  0
   12.0271  -16.8113   22.8529 O   0  0  0  0  0  0  0  0  0  0  0  0
    9.5761  -15.8167   24.2987 C   0  0  0  0  0  0  0  0  0  0  0  0
   10.5070  -14.9680   24.0763 O   0  0  0  0  0  0  0  0  0  0  0  0
   12.4087  -18.9908   23.3340 O   0  0  0  0  0  0  0  0  0  0  0  0
    6.6365  -11.9864   27.2331 C   0  0  0  0  0  0  0  0  0  0  0  0
    7.5975  -13.1516   27.5029 C   0  0  0  0  0  0  0  0  0  0  0  0
    8.2818  -13.4576   26.2176 C   0  0  2  0  0  0  0  0  0  0  0  0
    7.3649  -13.8854   25.1221 C   0  0  0  0  0  0  0  0  0  0  0  0
    9.3214  -14.5429   26.4330 C   0  0  2  0  0  0  0  0  0  0  0  0
    8.8952  -15.6261   25.5268 N   0  0  0  0  0  0  0  0  0  0  0  0
    9.3219  -15.0758   27.7997 C   0  0  0  0  0  0  0  0  0  0  0  0
    9.9227  -14.4664   28.8979 O   0  0  0  0  0  0  0  0  0  0  0  0
    8.7390  -16.1851   28.0552 O   0  0  0  0  0  0  0  0  0  0  0  0
  2  1  1  0
  3  2  1  0
  3  5  1  0
  3  4  1  1
  5  6  1  6
  7  5  1  0
  7  8  2  0
  9  7  1  0
 10  9  1  0
 10 11  1  6
 12 16  1  0
 12 11  1  0
 13 12  2  0
 14 10  1  0
 15 14  2  0
 18 17  1  0
 19 18  1  0
 19 20  1  6
 21 19  1  0
 21 22  1  6
 22 14  1  0
 23 24  1  0
 23 21  1  0
 25 23  2  0
M  END
$$$$
