IDI.pdb
     RDKit          3D

 25 24  0  0  1  0  0  0  0  0999 V2000
    5.3367  -11.3027   26.1042 C   0  0  0  0  0  0  0  0  0  0  0  0
    5.2296  -12.7088   25.5430 C   0  0  0  0  0  0  0  0  0  0  0  0
    6.5352  -13.3917   25.4284 C   0  0  2  0  0  0  0  0  0  0  0  0
    7.5246  -12.6639   24.5471 C   0  0  0  0  0  0  0  0  0  0  0  0
    6.3617  -14.7824   24.8590 C   0  0  2  0  0  0  0  0  0  0  0  0
    5.3659  -15.5047   25.6777 N   0  0  0  0  0  0  0  0  0  0  0  0
    7.5974  -15.5876   24.8388 C   0  0  0  0  0  0  0  0  0  0  0  0
    7.7955  -16.3980   25.8012 O   0  0  0  0  0  0  0  0  0  0  0  0
    8.5537  -15.5039   23.8108 N   0  0  0  0  0  0  0  0  0  0  0  0
    9.6757  -16.4511   23.7610 C   0  0  1  0  0  0  0  0  0  0  0  0
   10.4125  -16.3084   22.4747 C   0  0  0  0  0  0  0  0  0  0  0  0
   11.3951  -17.3561   22.1840 C   0  0  0  0  0  0  0  0  0  0  0  0
   11.6137  -18.3030   22.9622 O   0  0  0  0  0  0  0  0  0  0  0  0
   10.5324  -16.2812   24.9488 C   0  0  0  0  0  0  0  0  0  0  0  0
   11.5948  -15.5707   24.8978 O   0  0  0  0  0  0  0  0  0  0  0  0
   12.1131  -17.2965   20.9962 O   0  0  0  0  0  0  0  0  0  0  0  0
   10.3877  -13.2271   28.4622 C   0  0  0  0  0  0  0  0  0  0  0  0
   10.9721  -14.2945   27.5278 C   0  0  0  0  0  0  0  0  0  0  0  0
   10.7304  -15.6146   28.1703 C   0  0  2  0  0  0  0  0  0  0  0  0
   11.3194  -15.7494   29.5337 C   0  0  0  0  0  0  0  0  0  0  0  0
   11.2802  -16.7237   27.2914 C   0  0  2  0  0  0  0  0  0  0  0  0
   10.2763  -16.8558   26.2187 N   0  0  0  0  0  0  0  0  0  0  0  0
   11.3701  -18.0143   27.9828 C   0  0  0  0  0  0  0  0  0  0  0  0
   10.4925  -19.0809   27.8075 O   0  0  0  0  0  0  0  0  0  0  0  0
   12.3100  -18.2269   28.8237 O   0  0  0  0  0  0  0  0  0  0  0  0
  2  1  1  0
  3  2  1  0
  3  5  1  0
  3  4  1  6
  5  6  1  1
  7  5  1  0
  7  8  2  0
  9  7  1  0
 10  9  1  0
 10 11  1  6
 12 16  1  0
 12 11  1  0
 13 12  2  0
 14 10  1  0
 15 14  2  0
 18 17  1  0
 19 18  1  0
 19 20  1  1
 21 19  1  0
 21 22  1  6
 22 14  1  0
 23 24  1  0
 23 21  1  0
 25 23  2  0
M  END
$$$$
