IDI.pdb
     RDKit          3D

 25 24  0  0  1  0  0  0  0  0999 V2000
    7.3113  -11.7489   18.8780 C   0  0  0  0  0  0  0  0  0  0  0  0
    7.5390  -13.2473   18.7975 C   0  0  0  0  0  0  0  0  0  0  0  0
    7.8543  -13.8600   20.1049 C   0  0  2  0  0  0  0  0  0  0  0  0
    9.0493  -13.2399   20.7924 C   0  0  0  0  0  0  0  0  0  0  0  0
    8.1411  -15.3369   19.9466 C   0  0  2  0  0  0  0  0  0  0  0  0
    6.9627  -15.9810   19.3300 N   0  0  0  0  0  0  0  0  0  0  0  0
    8.4266  -16.0380   21.2125 C   0  0  0  0  0  0  0  0  0  0  0  0
    7.4411  -16.3427   21.9596 O   0  0  0  0  0  0  0  0  0  0  0  0
    9.7261  -16.3856   21.6235 N   0  0  0  0  0  0  0  0  0  0  0  0
    9.9439  -17.0492   22.9161 C   0  0  1  0  0  0  0  0  0  0  0  0
   11.2035  -17.8428   22.8810 C   0  0  0  0  0  0  0  0  0  0  0  0
   11.5295  -18.5746   24.1082 C   0  0  0  0  0  0  0  0  0  0  0  0
   12.7003  -18.7387   24.4984 O   0  0  0  0  0  0  0  0  0  0  0  0
    9.9071  -16.0564   24.0054 C   0  0  0  0  0  0  0  0  0  0  0  0
   10.7674  -15.1115   24.0640 O   0  0  0  0  0  0  0  0  0  0  0  0
   10.4973  -19.1078   24.8697 O   0  0  0  0  0  0  0  0  0  0  0  0
    6.5699  -12.2382   26.7090 C   0  0  0  0  0  0  0  0  0  0  0  0
    7.8207  -13.0879   26.9685 C   0  0  0  0  0  0  0  0  0  0  0  0
    7.8323  -14.1687   25.9459 C   0  0  2  0  0  0  0  0  0  0  0  0
    6.6268  -15.0463   25.9684 C   0  0  0  0  0  0  0  0  0  0  0  0
    9.0669  -15.0340   26.1248 C   0  0  2  0  0  0  0  0  0  0  0  0
    8.9521  -16.0404   25.0523 N   0  0  0  0  0  0  0  0  0  0  0  0
    9.0895  -15.7458   27.4072 C   0  0  0  0  0  0  0  0  0  0  0  0
    9.5329  -15.2109   28.6137 O   0  0  0  0  0  0  0  0  0  0  0  0
    8.6811  -16.9559   27.4758 O   0  0  0  0  0  0  0  0  0  0  0  0
  2  1  1  0
  3  2  1  0
  3  5  1  0
  3  4  1  6
  5  6  1  1
  7  5  1  0
  7  8  2  0
  9  7  1  0
 10  9  1  0
 10 11  1  6
 12 16  1  0
 12 11  1  0
 13 12  2  0
 14 10  1  0
 15 14  2  0
 18 17  1  0
 19 18  1  0
 19 20  1  1
 21 19  1  0
 21 22  1  6
 22 14  1  0
 23 24  1  0
 23 21  1  0
 25 23  2  0
M  END
$$$$
