IDI.pdb
     RDKit          3D

 25 24  0  0  1  0  0  0  0  0999 V2000
    8.2712  -11.6998   19.9702 C   0  0  0  0  0  0  0  0  0  0  0  0
    8.7292  -13.1447   20.0471 C   0  0  0  0  0  0  0  0  0  0  0  0
    7.7478  -14.0978   19.4880 C   0  0  2  0  0  0  0  0  0  0  0  0
    6.3634  -13.9590   20.0792 C   0  0  0  0  0  0  0  0  0  0  0  0
    8.1967  -15.5236   19.7204 C   0  0  2  0  0  0  0  0  0  0  0  0
    7.3377  -16.4228   18.9222 N   0  0  0  0  0  0  0  0  0  0  0  0
    8.1220  -15.9608   21.1272 C   0  0  0  0  0  0  0  0  0  0  0  0
    6.9673  -16.1072   21.6445 O   0  0  0  0  0  0  0  0  0  0  0  0
    9.2587  -16.2256   21.9121 N   0  0  0  0  0  0  0  0  0  0  0  0
    9.1126  -16.6974   23.2958 C   0  0  1  0  0  0  0  0  0  0  0  0
    9.9349  -17.9200   23.5119 C   0  0  0  0  0  0  0  0  0  0  0  0
   11.3671  -17.7815   23.2335 C   0  0  0  0  0  0  0  0  0  0  0  0
   11.8146  -17.6467   22.0796 O   0  0  0  0  0  0  0  0  0  0  0  0
    9.4264  -15.6064   24.2366 C   0  0  0  0  0  0  0  0  0  0  0  0
   10.5048  -14.9281   24.1215 O   0  0  0  0  0  0  0  0  0  0  0  0
   12.2650  -17.8003   24.2934 O   0  0  0  0  0  0  0  0  0  0  0  0
    5.7343  -12.5969   27.1038 C   0  0  0  0  0  0  0  0  0  0  0  0
    6.7139  -13.7451   26.8284 C   0  0  0  0  0  0  0  0  0  0  0  0
    7.9378  -13.1404   26.2365 C   0  0  2  0  0  0  0  0  0  0  0  0
    7.7580  -12.6290   24.8472 C   0  0  0  0  0  0  0  0  0  0  0  0
    9.0668  -14.1554   26.2386 C   0  0  2  0  0  0  0  0  0  0  0  0
    8.5991  -15.2068   25.3156 N   0  0  0  0  0  0  0  0  0  0  0  0
    9.2815  -14.7742   27.5512 C   0  0  0  0  0  0  0  0  0  0  0  0
    9.8781  -14.1506   28.6438 O   0  0  0  0  0  0  0  0  0  0  0  0
    8.9103  -15.9801   27.7597 O   0  0  0  0  0  0  0  0  0  0  0  0
  2  1  1  0
  3  2  1  0
  3  5  1  0
  3  4  1  1
  5  6  1  6
  7  5  1  0
  7  8  2  0
  9  7  1  0
 10  9  1  0
 10 11  1  1
 12 16  1  0
 12 11  1  0
 13 12  2  0
 14 10  1  0
 15 14  2  0
 18 17  1  0
 19 18  1  0
 19 20  1  6
 21 19  1  0
 21 22  1  6
 22 14  1  0
 23 24  1  0
 23 21  1  0
 25 23  2  0
M  END
$$$$
