IDI.pdb
     RDKit          3D

 25 24  0  0  1  0  0  0  0  0999 V2000
    8.0989  -11.7050   20.2244 C   0  0  0  0  0  0  0  0  0  0  0  0
    8.5808  -13.1428   20.1630 C   0  0  0  0  0  0  0  0  0  0  0  0
    7.5233  -14.0956   19.7655 C   0  0  2  0  0  0  0  0  0  0  0  0
    6.2670  -13.9893   20.5997 C   0  0  0  0  0  0  0  0  0  0  0  0
    8.0195  -15.5203   19.8769 C   0  0  2  0  0  0  0  0  0  0  0  0
    7.0454  -16.4106   19.2118 N   0  0  0  0  0  0  0  0  0  0  0  0
    8.1911  -15.9958   21.2625 C   0  0  0  0  0  0  0  0  0  0  0  0
    7.1476  -16.3361   21.9087 O   0  0  0  0  0  0  0  0  0  0  0  0
    9.4448  -16.0936   21.8927 N   0  0  0  0  0  0  0  0  0  0  0  0
    9.5610  -16.7015   23.2253 C   0  0  1  0  0  0  0  0  0  0  0  0
   10.6276  -17.7407   23.2253 C   0  0  0  0  0  0  0  0  0  0  0  0
   10.8663  -18.4083   24.5079 C   0  0  0  0  0  0  0  0  0  0  0  0
    9.9408  -18.7451   25.2694 O   0  0  0  0  0  0  0  0  0  0  0  0
    9.7643  -15.6532   24.2419 C   0  0  0  0  0  0  0  0  0  0  0  0
   10.8576  -14.9911   24.2950 O   0  0  0  0  0  0  0  0  0  0  0  0
   12.1729  -18.6787   24.8945 O   0  0  0  0  0  0  0  0  0  0  0  0
    5.9176  -12.4990   26.5277 C   0  0  0  0  0  0  0  0  0  0  0  0
    6.8329  -13.7267   26.4334 C   0  0  0  0  0  0  0  0  0  0  0  0
    8.2143  -13.2230   26.2055 C   0  0  2  0  0  0  0  0  0  0  0  0
    8.4095  -12.5424   24.8931 C   0  0  0  0  0  0  0  0  0  0  0  0
    9.2045  -14.3690   26.3108 C   0  0  2  0  0  0  0  0  0  0  0  0
    8.8091  -15.2798   25.2198 N   0  0  0  0  0  0  0  0  0  0  0  0
    9.0968  -15.1081   27.5733 C   0  0  0  0  0  0  0  0  0  0  0  0
    9.5139  -14.6383   28.8158 O   0  0  0  0  0  0  0  0  0  0  0  0
    8.5877  -16.2813   27.5876 O   0  0  0  0  0  0  0  0  0  0  0  0
  2  1  1  0
  3  2  1  0
  3  5  1  0
  3  4  1  1
  5  6  1  1
  7  5  1  0
  7  8  2  0
  9  7  1  0
 10  9  1  0
 10 11  1  6
 12 16  1  0
 12 11  1  0
 13 12  2  0
 14 10  1  0
 15 14  2  0
 18 17  1  0
 19 18  1  0
 19 20  1  6
 21 19  1  0
 21 22  1  6
 22 14  1  0
 23 24  1  0
 23 21  1  0
 25 23  2  0
M  END
$$$$
