IDI.pdb
     RDKit          3D

 25 24  0  0  1  0  0  0  0  0999 V2000
    7.4709  -11.7129   18.7715 C   0  0  0  0  0  0  0  0  0  0  0  0
    7.7879  -13.1942   18.6792 C   0  0  0  0  0  0  0  0  0  0  0  0
    7.9124  -13.8471   19.9991 C   0  0  2  0  0  0  0  0  0  0  0  0
    8.9877  -13.2445   20.8744 C   0  0  0  0  0  0  0  0  0  0  0  0
    8.2321  -15.3170   19.8393 C   0  0  2  0  0  0  0  0  0  0  0  0
    7.1664  -15.9445   19.0304 N   0  0  0  0  0  0  0  0  0  0  0  0
    8.3279  -16.0582   21.1109 C   0  0  0  0  0  0  0  0  0  0  0  0
    7.2472  -16.3097   21.7362 O   0  0  0  0  0  0  0  0  0  0  0  0
    9.5479  -16.4995   21.6544 N   0  0  0  0  0  0  0  0  0  0  0  0
    9.5839  -17.1408   22.9757 C   0  0  1  0  0  0  0  0  0  0  0  0
   10.7138  -18.1082   23.0473 C   0  0  0  0  0  0  0  0  0  0  0  0
   12.0454  -17.5520   22.7916 C   0  0  0  0  0  0  0  0  0  0  0  0
   12.2387  -16.3361   22.6072 O   0  0  0  0  0  0  0  0  0  0  0  0
    9.6232  -16.1146   24.0336 C   0  0  0  0  0  0  0  0  0  0  0  0
   10.3598  -15.0755   23.9153 O   0  0  0  0  0  0  0  0  0  0  0  0
   13.1380  -18.4091   22.7525 O   0  0  0  0  0  0  0  0  0  0  0  0
    6.5400  -12.2970   26.8033 C   0  0  0  0  0  0  0  0  0  0  0  0
    7.7958  -13.1388   27.0648 C   0  0  0  0  0  0  0  0  0  0  0  0
    7.7787  -14.2608   26.0878 C   0  0  2  0  0  0  0  0  0  0  0  0
    6.5947  -15.1595   26.2076 C   0  0  0  0  0  0  0  0  0  0  0  0
    9.0387  -15.0943   26.2382 C   0  0  2  0  0  0  0  0  0  0  0  0
    8.8763  -16.1653   25.2368 N   0  0  0  0  0  0  0  0  0  0  0  0
    9.1559  -15.7270   27.5564 C   0  0  0  0  0  0  0  0  0  0  0  0
    9.5888  -15.0898   28.7162 O   0  0  0  0  0  0  0  0  0  0  0  0
    8.8494  -16.9597   27.7052 O   0  0  0  0  0  0  0  0  0  0  0  0
  2  1  1  0
  3  2  1  0
  3  5  1  0
  3  4  1  1
  5  6  1  6
  7  5  1  0
  7  8  2  0
  9  7  1  0
 10  9  1  0
 10 11  1  6
 12 16  1  0
 12 11  1  0
 13 12  2  0
 14 10  1  0
 15 14  2  0
 18 17  1  0
 19 18  1  0
 19 20  1  1
 21 19  1  0
 21 22  1  6
 22 14  1  0
 23 24  1  0
 23 21  1  0
 25 23  2  0
M  END
$$$$
