IDI.pdb
     RDKit          3D

 25 24  0  0  1  0  0  0  0  0999 V2000
    7.4148  -11.8773   20.5355 C   0  0  0  0  0  0  0  0  0  0  0  0
    7.2804  -13.3888   20.5114 C   0  0  0  0  0  0  0  0  0  0  0  0
    8.3178  -14.0534   19.6953 C   0  0  2  0  0  0  0  0  0  0  0  0
    8.2572  -13.6941   18.2281 C   0  0  0  0  0  0  0  0  0  0  0  0
    8.1939  -15.5576   19.7968 C   0  0  2  0  0  0  0  0  0  0  0  0
    6.8498  -15.9514   19.3259 N   0  0  0  0  0  0  0  0  0  0  0  0
    8.3665  -16.0892   21.1618 C   0  0  0  0  0  0  0  0  0  0  0  0
    7.3182  -16.3773   21.8254 O   0  0  0  0  0  0  0  0  0  0  0  0
    9.6257  -16.2946   21.7541 N   0  0  0  0  0  0  0  0  0  0  0  0
    9.7330  -16.9615   23.0589 C   0  0  1  0  0  0  0  0  0  0  0  0
   10.8162  -17.9828   23.0269 C   0  0  0  0  0  0  0  0  0  0  0  0
   11.0554  -18.6970   24.2840 C   0  0  0  0  0  0  0  0  0  0  0  0
   10.1328  -19.1860   24.9619 O   0  0  0  0  0  0  0  0  0  0  0  0
    9.9049  -15.9583   24.1255 C   0  0  0  0  0  0  0  0  0  0  0  0
   10.9527  -15.2263   24.1777 O   0  0  0  0  0  0  0  0  0  0  0  0
   12.3594  -18.8374   24.7423 O   0  0  0  0  0  0  0  0  0  0  0  0
    5.9755  -13.1873   26.6775 C   0  0  0  0  0  0  0  0  0  0  0  0
    6.9535  -14.3526   26.4794 C   0  0  0  0  0  0  0  0  0  0  0  0
    8.3084  -13.7603   26.3142 C   0  0  2  0  0  0  0  0  0  0  0  0
    8.4699  -12.9342   25.0831 C   0  0  0  0  0  0  0  0  0  0  0  0
    9.3539  -14.8610   26.3016 C   0  0  2  0  0  0  0  0  0  0  0  0
    8.9655  -15.7050   25.1558 N   0  0  0  0  0  0  0  0  0  0  0  0
    9.3227  -15.6979   27.5059 C   0  0  0  0  0  0  0  0  0  0  0  0
    8.9501  -17.0389   27.5412 O   0  0  0  0  0  0  0  0  0  0  0  0
    9.6537  -15.2040   28.6383 O   0  0  0  0  0  0  0  0  0  0  0  0
  2  1  1  0
  3  2  1  0
  3  5  1  0
  3  4  1  6
  5  6  1  1
  7  5  1  0
  7  8  2  0
  9  7  1  0
 10  9  1  0
 10 11  1  6
 12 16  1  0
 12 11  1  0
 13 12  2  0
 14 10  1  0
 15 14  2  0
 18 17  1  0
 19 18  1  0
 19 20  1  6
 21 19  1  0
 21 22  1  6
 22 14  1  0
 23 24  1  0
 23 21  1  0
 25 23  2  0
M  END
$$$$
