IDI.pdb
     RDKit          3D

 25 24  0  0  1  0  0  0  0  0999 V2000
    8.1036  -11.8645   20.1383 C   0  0  0  0  0  0  0  0  0  0  0  0
    7.6842  -13.1618   20.8050 C   0  0  0  0  0  0  0  0  0  0  0  0
    8.0883  -14.3641   20.0466 C   0  0  2  0  0  0  0  0  0  0  0  0
    7.5675  -14.3892   18.6277 C   0  0  0  0  0  0  0  0  0  0  0  0
    7.5923  -15.6185   20.7314 C   0  0  2  0  0  0  0  0  0  0  0  0
    6.1246  -15.6902   20.5753 N   0  0  0  0  0  0  0  0  0  0  0  0
    7.8954  -15.6820   22.1736 C   0  0  0  0  0  0  0  0  0  0  0  0
    7.6410  -14.6540   22.8811 O   0  0  0  0  0  0  0  0  0  0  0  0
    8.4425  -16.8188   22.7955 N   0  0  0  0  0  0  0  0  0  0  0  0
    9.8531  -16.8344   23.2063 C   0  0  1  0  0  0  0  0  0  0  0  0
   10.7251  -16.4384   22.0659 C   0  0  0  0  0  0  0  0  0  0  0  0
   11.6752  -17.4558   21.6076 C   0  0  0  0  0  0  0  0  0  0  0  0
   11.7558  -18.5814   22.1334 O   0  0  0  0  0  0  0  0  0  0  0  0
   10.0388  -15.9958   24.4046 C   0  0  0  0  0  0  0  0  0  0  0  0
   11.2099  -15.6988   24.8248 O   0  0  0  0  0  0  0  0  0  0  0  0
   12.5210  -17.1592   20.5463 O   0  0  0  0  0  0  0  0  0  0  0  0
    5.9202  -13.0697   26.8733 C   0  0  0  0  0  0  0  0  0  0  0  0
    6.8957  -14.2049   26.5360 C   0  0  0  0  0  0  0  0  0  0  0  0
    8.2521  -13.6002   26.4447 C   0  0  2  0  0  0  0  0  0  0  0  0
    8.4478  -12.7100   25.2644 C   0  0  0  0  0  0  0  0  0  0  0  0
    9.3030  -14.6953   26.4071 C   0  0  2  0  0  0  0  0  0  0  0  0
    8.9858  -15.4483   25.1789 N   0  0  0  0  0  0  0  0  0  0  0  0
    9.2074  -15.6233   27.5392 C   0  0  0  0  0  0  0  0  0  0  0  0
    9.6270  -15.3494   28.8382 O   0  0  0  0  0  0  0  0  0  0  0  0
    8.7080  -16.7887   27.3722 O   0  0  0  0  0  0  0  0  0  0  0  0
  2  1  1  0
  3  2  1  0
  3  5  1  0
  3  4  1  6
  5  6  1  1
  7  5  1  0
  7  8  2  0
  9  7  1  0
 10  9  1  0
 10 11  1  6
 12 16  1  0
 12 11  1  0
 13 12  2  0
 14 10  1  0
 15 14  2  0
 18 17  1  0
 19 18  1  0
 19 20  1  6
 21 19  1  0
 21 22  1  6
 22 14  1  0
 23 24  1  0
 23 21  1  0
 25 23  2  0
M  END
$$$$
