IDI.pdb
     RDKit          3D

 25 24  0  0  1  0  0  0  0  0999 V2000
    7.2125  -11.5420   19.1214 C   0  0  0  0  0  0  0  0  0  0  0  0
    7.6723  -12.9750   18.9253 C   0  0  0  0  0  0  0  0  0  0  0  0
    7.8759  -13.7009   20.1964 C   0  0  2  0  0  0  0  0  0  0  0  0
    8.8631  -13.0316   21.1253 C   0  0  0  0  0  0  0  0  0  0  0  0
    8.3813  -15.1026   19.9352 C   0  0  2  0  0  0  0  0  0  0  0  0
    7.3877  -15.8131   19.1035 N   0  0  0  0  0  0  0  0  0  0  0  0
    8.6038  -15.9035   21.1537 C   0  0  0  0  0  0  0  0  0  0  0  0
    7.5823  -16.3738   21.7518 O   0  0  0  0  0  0  0  0  0  0  0  0
    9.8822  -16.1721   21.6752 N   0  0  0  0  0  0  0  0  0  0  0  0
   10.0289  -16.8195   22.9860 C   0  0  1  0  0  0  0  0  0  0  0  0
   11.3099  -17.5766   23.0451 C   0  0  0  0  0  0  0  0  0  0  0  0
   11.4686  -18.6385   22.0477 C   0  0  0  0  0  0  0  0  0  0  0  0
   10.5316  -19.3859   21.7110 O   0  0  0  0  0  0  0  0  0  0  0  0
    9.8887  -15.8200   24.0607 C   0  0  0  0  0  0  0  0  0  0  0  0
   10.7495  -14.8850   24.2061 O   0  0  0  0  0  0  0  0  0  0  0  0
   12.7096  -18.8234   21.4512 O   0  0  0  0  0  0  0  0  0  0  0  0
    7.2450  -11.6957   26.1549 C   0  0  0  0  0  0  0  0  0  0  0  0
    7.2727  -13.0305   26.9109 C   0  0  0  0  0  0  0  0  0  0  0  0
    7.4417  -14.1032   25.8937 C   0  0  2  0  0  0  0  0  0  0  0  0
    6.4070  -15.1753   25.9563 C   0  0  0  0  0  0  0  0  0  0  0  0
    8.8118  -14.7408   26.0402 C   0  0  2  0  0  0  0  0  0  0  0  0
    8.8283  -15.7869   25.0002 N   0  0  0  0  0  0  0  0  0  0  0  0
    9.0055  -15.3959   27.3383 C   0  0  0  0  0  0  0  0  0  0  0  0
    9.4310  -14.7605   28.5017 O   0  0  0  0  0  0  0  0  0  0  0  0
    8.7803  -16.6486   27.4639 O   0  0  0  0  0  0  0  0  0  0  0  0
  2  1  1  0
  3  2  1  0
  3  5  1  0
  3  4  1  1
  5  6  1  6
  7  5  1  0
  7  8  2  0
  9  7  1  0
 10  9  1  0
 10 11  1  6
 12 16  1  0
 12 11  1  0
 13 12  2  0
 14 10  1  0
 15 14  2  0
 18 17  1  0
 19 18  1  0
 19 20  1  1
 21 19  1  0
 21 22  1  6
 22 14  1  0
 23 24  1  0
 23 21  1  0
 25 23  2  0
M  END
$$$$
