IDI.pdb
     RDKit          3D

 25 24  0  0  1  0  0  0  0  0999 V2000
    7.4543  -11.7772   20.4608 C   0  0  0  0  0  0  0  0  0  0  0  0
    7.4601  -13.2897   20.3361 C   0  0  0  0  0  0  0  0  0  0  0  0
    8.4828  -13.7931   19.3955 C   0  0  2  0  0  0  0  0  0  0  0  0
    8.3220  -13.2676   17.9872 C   0  0  0  0  0  0  0  0  0  0  0  0
    8.4416  -15.3034   19.3208 C   0  0  2  0  0  0  0  0  0  0  0  0
    7.1268  -15.7118   18.7839 N   0  0  0  0  0  0  0  0  0  0  0  0
    8.6279  -15.9797   20.6183 C   0  0  0  0  0  0  0  0  0  0  0  0
    7.6040  -16.4953   21.1733 O   0  0  0  0  0  0  0  0  0  0  0  0
    9.8754  -16.0835   21.2598 N   0  0  0  0  0  0  0  0  0  0  0  0
   10.0107  -16.8596   22.5000 C   0  0  1  0  0  0  0  0  0  0  0  0
   11.2513  -17.6823   22.4590 C   0  0  0  0  0  0  0  0  0  0  0  0
   11.5337  -18.4690   23.6628 C   0  0  0  0  0  0  0  0  0  0  0  0
   12.6869  -18.6238   24.1058 O   0  0  0  0  0  0  0  0  0  0  0  0
    9.9414  -15.9616   23.6672 C   0  0  0  0  0  0  0  0  0  0  0  0
   10.8419  -15.0761   23.8705 O   0  0  0  0  0  0  0  0  0  0  0  0
   10.4788  -19.0674   24.3401 O   0  0  0  0  0  0  0  0  0  0  0  0
    6.7402  -12.0601   26.1926 C   0  0  0  0  0  0  0  0  0  0  0  0
    8.0288  -12.8823   26.3242 C   0  0  0  0  0  0  0  0  0  0  0  0
    7.7702  -14.2015   25.6865 C   0  0  2  0  0  0  0  0  0  0  0  0
    6.5999  -14.9349   26.2489 C   0  0  0  0  0  0  0  0  0  0  0  0
    9.0005  -15.0827   25.8085 C   0  0  2  0  0  0  0  0  0  0  0  0
    8.9112  -15.9789   24.6401 N   0  0  0  0  0  0  0  0  0  0  0  0
    8.9931  -15.9170   27.0150 C   0  0  0  0  0  0  0  0  0  0  0  0
    9.4465  -15.5172   28.2692 O   0  0  0  0  0  0  0  0  0  0  0  0
    8.5459  -17.1141   26.9638 O   0  0  0  0  0  0  0  0  0  0  0  0
  2  1  1  0
  3  2  1  0
  3  5  1  0
  3  4  1  6
  5  6  1  1
  7  5  1  0
  7  8  2  0
  9  7  1  0
 10  9  1  0
 10 11  1  6
 12 16  1  0
 12 11  1  0
 13 12  2  0
 14 10  1  0
 15 14  2  0
 18 17  1  0
 19 18  1  0
 19 20  1  1
 21 19  1  0
 21 22  1  6
 22 14  1  0
 23 24  1  0
 23 21  1  0
 25 23  2  0
M  END
$$$$
