IDI.pdb
     RDKit          3D

 25 24  0  0  1  0  0  0  0  0999 V2000
    7.4429  -11.4549   18.7443 C   0  0  0  0  0  0  0  0  0  0  0  0
    7.7674  -12.9323   18.6212 C   0  0  0  0  0  0  0  0  0  0  0  0
    7.9245  -13.6054   19.9275 C   0  0  2  0  0  0  0  0  0  0  0  0
    8.9376  -12.9426   20.8329 C   0  0  0  0  0  0  0  0  0  0  0  0
    8.3599  -15.0418   19.7386 C   0  0  2  0  0  0  0  0  0  0  0  0
    7.3583  -15.7299   18.8978 N   0  0  0  0  0  0  0  0  0  0  0  0
    8.4945  -15.8044   20.9939 C   0  0  0  0  0  0  0  0  0  0  0  0
    7.4304  -16.2338   21.5466 O   0  0  0  0  0  0  0  0  0  0  0  0
    9.7347  -16.0796   21.5979 N   0  0  0  0  0  0  0  0  0  0  0  0
    9.7942  -16.7958   22.8794 C   0  0  1  0  0  0  0  0  0  0  0  0
   11.0028  -17.6644   22.9274 C   0  0  0  0  0  0  0  0  0  0  0  0
   11.2461  -18.3473   24.2011 C   0  0  0  0  0  0  0  0  0  0  0  0
   10.3227  -18.7757   24.9178 O   0  0  0  0  0  0  0  0  0  0  0  0
    9.7168  -15.8373   23.9970 C   0  0  0  0  0  0  0  0  0  0  0  0
   10.6013  -14.9250   24.1440 O   0  0  0  0  0  0  0  0  0  0  0  0
   12.5550  -18.5267   24.6308 O   0  0  0  0  0  0  0  0  0  0  0  0
    7.5100  -11.8838   26.4989 C   0  0  0  0  0  0  0  0  0  0  0  0
    7.2072  -13.2343   27.1610 C   0  0  0  0  0  0  0  0  0  0  0  0
    7.3175  -14.2728   26.1011 C   0  0  2  0  0  0  0  0  0  0  0  0
    6.3766  -15.4181   26.2654 C   0  0  0  0  0  0  0  0  0  0  0  0
    8.7359  -14.8120   26.0536 C   0  0  2  0  0  0  0  0  0  0  0  0
    8.6950  -15.8216   24.9788 N   0  0  0  0  0  0  0  0  0  0  0  0
    9.1351  -15.4906   27.2913 C   0  0  0  0  0  0  0  0  0  0  0  0
    9.7177  -14.8710   28.3936 O   0  0  0  0  0  0  0  0  0  0  0  0
    8.9560  -16.7506   27.4178 O   0  0  0  0  0  0  0  0  0  0  0  0
  2  1  1  0
  3  2  1  0
  3  5  1  0
  3  4  1  1
  5  6  1  6
  7  5  1  0
  7  8  2  0
  9  7  1  0
 10  9  1  0
 10 11  1  6
 12 16  1  0
 12 11  1  0
 13 12  2  0
 14 10  1  0
 15 14  2  0
 18 17  1  0
 19 18  1  0
 19 20  1  1
 21 19  1  0
 21 22  1  6
 22 14  1  0
 23 24  1  0
 23 21  1  0
 25 23  2  0
M  END
$$$$
