IDI.pdb
     RDKit          3D

 25 24  0  0  1  0  0  0  0  0999 V2000
    7.3256  -11.7598   19.0814 C   0  0  0  0  0  0  0  0  0  0  0  0
    7.5780  -13.2560   19.0514 C   0  0  0  0  0  0  0  0  0  0  0  0
    7.7236  -13.8497   20.3969 C   0  0  2  0  0  0  0  0  0  0  0  0
    8.9106  -13.3193   21.1683 C   0  0  0  0  0  0  0  0  0  0  0  0
    7.8809  -15.3513   20.3033 C   0  0  2  0  0  0  0  0  0  0  0  0
    6.6832  -15.9090   19.6414 N   0  0  0  0  0  0  0  0  0  0  0  0
    8.0315  -16.0273   21.6057 C   0  0  0  0  0  0  0  0  0  0  0  0
    6.9863  -16.1941   22.3142 O   0  0  0  0  0  0  0  0  0  0  0  0
    9.2657  -16.4955   22.0914 N   0  0  0  0  0  0  0  0  0  0  0  0
    9.3585  -17.0934   23.4303 C   0  0  1  0  0  0  0  0  0  0  0  0
   10.3112  -18.2378   23.4175 C   0  0  0  0  0  0  0  0  0  0  0  0
   10.5697  -18.8658   24.7163 C   0  0  0  0  0  0  0  0  0  0  0  0
    9.6558  -19.1851   25.4989 O   0  0  0  0  0  0  0  0  0  0  0  0
    9.7000  -16.0578   24.4226 C   0  0  0  0  0  0  0  0  0  0  0  0
   10.8101  -15.4253   24.3582 O   0  0  0  0  0  0  0  0  0  0  0  0
   11.8827  -19.1171   25.0943 O   0  0  0  0  0  0  0  0  0  0  0  0
    6.2790  -12.6274   26.7441 C   0  0  0  0  0  0  0  0  0  0  0  0
    7.1007  -13.9230   26.7372 C   0  0  0  0  0  0  0  0  0  0  0  0
    8.5117  -13.5418   26.4585 C   0  0  2  0  0  0  0  0  0  0  0  0
    8.7199  -12.8897   25.1336 C   0  0  0  0  0  0  0  0  0  0  0  0
    9.4028  -14.7682   26.5419 C   0  0  2  0  0  0  0  0  0  0  0  0
    8.8679  -15.6658   25.5006 N   0  0  0  0  0  0  0  0  0  0  0  0
    9.3033  -15.4650   27.8289 C   0  0  0  0  0  0  0  0  0  0  0  0
    9.8327  -15.0064   29.0322 O   0  0  0  0  0  0  0  0  0  0  0  0
    8.6931  -16.5864   27.9051 O   0  0  0  0  0  0  0  0  0  0  0  0
  2  1  1  0
  3  2  1  0
  3  5  1  0
  3  4  1  6
  5  6  1  1
  7  5  1  0
  7  8  2  0
  9  7  1  0
 10  9  1  0
 10 11  1  6
 12 16  1  0
 12 11  1  0
 13 12  2  0
 14 10  1  0
 15 14  2  0
 18 17  1  0
 19 18  1  0
 19 20  1  6
 21 19  1  0
 21 22  1  6
 22 14  1  0
 23 24  1  0
 23 21  1  0
 25 23  2  0
M  END
$$$$
