IDI.pdb
     RDKit          3D

 25 24  0  0  1  0  0  0  0  0999 V2000
    7.2992  -11.6615   18.9656 C   0  0  0  0  0  0  0  0  0  0  0  0
    7.7935  -13.0929   18.8636 C   0  0  0  0  0  0  0  0  0  0  0  0
    7.8654  -13.7792   20.1705 C   0  0  2  0  0  0  0  0  0  0  0  0
    8.7900  -13.1056   21.1588 C   0  0  0  0  0  0  0  0  0  0  0  0
    8.3477  -15.2028   19.9996 C   0  0  2  0  0  0  0  0  0  0  0  0
    7.4207  -15.9070   19.0894 N   0  0  0  0  0  0  0  0  0  0  0  0
    8.4182  -15.9736   21.2552 C   0  0  0  0  0  0  0  0  0  0  0  0
    7.3405  -16.4858   21.7007 O   0  0  0  0  0  0  0  0  0  0  0  0
    9.6128  -16.1698   21.9715 N   0  0  0  0  0  0  0  0  0  0  0  0
    9.5985  -16.8729   23.2615 C   0  0  1  0  0  0  0  0  0  0  0  0
   10.5689  -18.0022   23.2425 C   0  0  0  0  0  0  0  0  0  0  0  0
   10.7632  -18.6965   24.5184 C   0  0  0  0  0  0  0  0  0  0  0  0
    9.8127  -19.0336   25.2484 O   0  0  0  0  0  0  0  0  0  0  0  0
    9.8330  -15.9173   24.3595 C   0  0  0  0  0  0  0  0  0  0  0  0
   10.9689  -15.3472   24.5043 O   0  0  0  0  0  0  0  0  0  0  0  0
   12.0549  -18.9930   24.9349 O   0  0  0  0  0  0  0  0  0  0  0  0
    5.8734  -13.0199   26.8284 C   0  0  0  0  0  0  0  0  0  0  0  0
    6.8680  -14.1832   26.7220 C   0  0  0  0  0  0  0  0  0  0  0  0
    8.2081  -13.5881   26.4692 C   0  0  2  0  0  0  0  0  0  0  0  0
    8.3047  -12.8138   25.1983 C   0  0  0  0  0  0  0  0  0  0  0  0
    9.2624  -14.6804   26.4542 C   0  0  2  0  0  0  0  0  0  0  0  0
    8.8650  -15.5404   25.3234 N   0  0  0  0  0  0  0  0  0  0  0  0
    9.2548  -15.5039   27.6681 C   0  0  0  0  0  0  0  0  0  0  0  0
    9.7224  -15.0982   28.9152 O   0  0  0  0  0  0  0  0  0  0  0  0
    8.7938  -16.6962   27.6309 O   0  0  0  0  0  0  0  0  0  0  0  0
  2  1  1  0
  3  2  1  0
  3  5  1  0
  3  4  1  1
  5  6  1  6
  7  5  1  0
  7  8  2  0
  9  7  1  0
 10  9  1  0
 10 11  1  6
 12 16  1  0
 12 11  1  0
 13 12  2  0
 14 10  1  0
 15 14  2  0
 18 17  1  0
 19 18  1  0
 19 20  1  6
 21 19  1  0
 21 22  1  6
 22 14  1  0
 23 24  1  0
 23 21  1  0
 25 23  2  0
M  END
$$$$
