IDI.pdb
     RDKit          3D

 25 24  0  0  1  0  0  0  0  0999 V2000
    7.5073  -11.8114   18.7680 C   0  0  0  0  0  0  0  0  0  0  0  0
    7.7017  -13.3157   18.8190 C   0  0  0  0  0  0  0  0  0  0  0  0
    7.9206  -13.8291   20.1874 C   0  0  2  0  0  0  0  0  0  0  0  0
    9.1769  -13.2988   20.8399 C   0  0  0  0  0  0  0  0  0  0  0  0
    8.0179  -15.3387   20.1816 C   0  0  2  0  0  0  0  0  0  0  0  0
    6.7923  -15.8864   19.5639 N   0  0  0  0  0  0  0  0  0  0  0  0
    8.1559  -15.9423   21.5204 C   0  0  0  0  0  0  0  0  0  0  0  0
    7.1317  -15.9520   22.2774 O   0  0  0  0  0  0  0  0  0  0  0  0
    9.3557  -16.5064   21.9901 N   0  0  0  0  0  0  0  0  0  0  0  0
    9.4156  -17.1210   23.3233 C   0  0  1  0  0  0  0  0  0  0  0  0
   10.4006  -18.2379   23.3309 C   0  0  0  0  0  0  0  0  0  0  0  0
   10.5597  -18.9379   24.6086 C   0  0  0  0  0  0  0  0  0  0  0  0
   11.6416  -19.4388   24.9670 O   0  0  0  0  0  0  0  0  0  0  0  0
    9.6900  -16.0909   24.3418 C   0  0  0  0  0  0  0  0  0  0  0  0
   10.7896  -15.4374   24.3372 O   0  0  0  0  0  0  0  0  0  0  0  0
    9.4653  -19.0502   25.4569 O   0  0  0  0  0  0  0  0  0  0  0  0
    5.8774  -13.1390   26.9211 C   0  0  0  0  0  0  0  0  0  0  0  0
    6.8729  -14.3009   26.8084 C   0  0  0  0  0  0  0  0  0  0  0  0
    8.1894  -13.7119   26.4425 C   0  0  2  0  0  0  0  0  0  0  0  0
    8.2040  -13.0163   25.1235 C   0  0  0  0  0  0  0  0  0  0  0  0
    9.2535  -14.7947   26.4328 C   0  0  2  0  0  0  0  0  0  0  0  0
    8.8003  -15.7268   25.3830 N   0  0  0  0  0  0  0  0  0  0  0  0
    9.3266  -15.5407   27.6937 C   0  0  0  0  0  0  0  0  0  0  0  0
    9.8640  -15.0551   28.8828 O   0  0  0  0  0  0  0  0  0  0  0  0
    8.8758  -16.7358   27.7584 O   0  0  0  0  0  0  0  0  0  0  0  0
  2  1  1  0
  3  2  1  0
  3  5  1  0
  3  4  1  6
  5  6  1  1
  7  5  1  0
  7  8  2  0
  9  7  1  0
 10  9  1  0
 10 11  1  6
 12 16  1  0
 12 11  1  0
 13 12  2  0
 14 10  1  0
 15 14  2  0
 18 17  1  0
 19 18  1  0
 19 20  1  6
 21 19  1  0
 21 22  1  6
 22 14  1  0
 23 24  1  0
 23 21  1  0
 25 23  2  0
M  END
$$$$
