IDI.pdb
     RDKit          3D

 25 24  0  0  1  0  0  0  0  0999 V2000
    7.1037  -11.7769   19.3547 C   0  0  0  0  0  0  0  0  0  0  0  0
    7.3806  -13.2686   19.3171 C   0  0  0  0  0  0  0  0  0  0  0  0
    7.7435  -13.8276   20.6361 C   0  0  2  0  0  0  0  0  0  0  0  0
    8.9153  -13.1299   21.2884 C   0  0  0  0  0  0  0  0  0  0  0  0
    8.1013  -15.2924   20.5147 C   0  0  2  0  0  0  0  0  0  0  0  0
    6.9797  -15.9975   19.8601 N   0  0  0  0  0  0  0  0  0  0  0  0
    8.3631  -15.9611   21.8031 C   0  0  0  0  0  0  0  0  0  0  0  0
    7.3807  -16.1319   22.5955 O   0  0  0  0  0  0  0  0  0  0  0  0
    9.6364  -16.4184   22.1880 N   0  0  0  0  0  0  0  0  0  0  0  0
    9.8445  -17.0028   23.5198 C   0  0  1  0  0  0  0  0  0  0  0  0
   10.9820  -17.9634   23.4879 C   0  0  0  0  0  0  0  0  0  0  0  0
   10.8323  -19.0974   22.5716 C   0  0  0  0  0  0  0  0  0  0  0  0
   11.7680  -19.5141   21.8641 O   0  0  0  0  0  0  0  0  0  0  0  0
   10.0096  -15.9324   24.5202 C   0  0  0  0  0  0  0  0  0  0  0  0
   11.0119  -15.1388   24.4756 O   0  0  0  0  0  0  0  0  0  0  0  0
    9.6017  -19.7361   22.4846 O   0  0  0  0  0  0  0  0  0  0  0  0
    6.6141  -12.4177   25.6826 C   0  0  0  0  0  0  0  0  0  0  0  0
    7.8957  -13.2340   25.4703 C   0  0  0  0  0  0  0  0  0  0  0  0
    8.2493  -13.8381   26.7833 C   0  0  2  0  0  0  0  0  0  0  0  0
    8.4932  -12.8450   27.8687 C   0  0  0  0  0  0  0  0  0  0  0  0
    9.4843  -14.7084   26.6342 C   0  0  2  0  0  0  0  0  0  0  0  0
    9.1108  -15.6763   25.5854 N   0  0  0  0  0  0  0  0  0  0  0  0
    9.8048  -15.4652   27.8492 C   0  0  0  0  0  0  0  0  0  0  0  0
    9.5612  -16.8232   28.0358 O   0  0  0  0  0  0  0  0  0  0  0  0
   10.3511  -14.8773   28.8450 O   0  0  0  0  0  0  0  0  0  0  0  0
  2  1  1  0
  3  2  1  0
  3  5  1  0
  3  4  1  6
  5  6  1  1
  7  5  1  0
  7  8  2  0
  9  7  1  0
 10  9  1  0
 10 11  1  6
 12 16  1  0
 12 11  1  0
 13 12  2  0
 14 10  1  0
 15 14  2  0
 18 17  1  0
 19 18  1  0
 19 20  1  1
 21 19  1  0
 21 22  1  6
 22 14  1  0
 23 24  1  0
 23 21  1  0
 25 23  2  0
M  END
$$$$
