GVG.pdb
     RDKit          3D

 16 15  0  0  1  0  0  0  0  0999 V2000
    7.0958  -17.9419   17.5329 N   0  0  0  0  0  0  0  0  0  0  0  0
    6.5991  -17.2403   18.7034 C   0  0  0  0  0  0  0  0  0  0  0  0
    7.6851  -16.4875   19.3866 C   0  0  0  0  0  0  0  0  0  0  0  0
    8.8606  -16.7195   19.0177 O   0  0  0  0  0  0  0  0  0  0  0  0
    7.6071  -12.7417   19.9102 C   0  0  0  0  0  0  0  0  0  0  0  0
    8.0693  -13.3273   21.2248 C   0  0  1  0  0  0  0  0  0  0  0  0
    6.9278  -13.1590   22.1975 C   0  0  0  0  0  0  0  0  0  0  0  0
    8.4457  -14.7970   21.0657 C   0  0  2  0  0  0  0  0  0  0  0  0
    7.4113  -15.5433   20.4147 N   0  0  0  0  0  0  0  0  0  0  0  0
    8.8830  -15.3848   22.3379 C   0  0  0  0  0  0  0  0  0  0  0  0
    8.0352  -15.7763   23.1783 O   0  0  0  0  0  0  0  0  0  0  0  0
   10.2590  -15.5359   22.6723 N   0  0  0  0  0  0  0  0  0  0  0  0
   10.7146  -16.2721   23.8159 C   0  0  0  0  0  0  0  0  0  0  0  0
   12.1805  -16.1913   23.9675 C   0  0  0  0  0  0  0  0  0  0  0  0
   12.6996  -16.0189   25.2417 O   0  0  0  0  0  0  0  0  0  0  0  0
   12.9557  -16.2740   22.9820 O   0  0  0  0  0  0  0  0  0  0  0  0
  2  3  1  0
  2  1  1  0
  3  9  1  0
  4  3  2  0
  6  5  1  6
  7  6  1  0
  8  6  1  0
  8  9  1  1
 10 11  2  0
 10  8  1  0
 12 10  1  0
 13 14  1  0
 13 12  1  0
 14 15  1  0
 16 14  2  0
M  END
$$$$
