GVG.pdb
     RDKit          3D

 16 15  0  0  1  0  0  0  0  0999 V2000
    8.7229  -17.9132   16.8225 N   0  0  0  0  0  0  0  0  0  0  0  0
    7.8319  -17.5459   17.9089 C   0  0  0  0  0  0  0  0  0  0  0  0
    8.4531  -16.5301   18.8007 C   0  0  0  0  0  0  0  0  0  0  0  0
    9.7022  -16.4291   18.7685 O   0  0  0  0  0  0  0  0  0  0  0  0
    8.1220  -12.6510   21.8238 C   0  0  0  0  0  0  0  0  0  0  0  0
    7.3990  -13.6268   20.9240 C   0  0  1  0  0  0  0  0  0  0  0  0
    7.0837  -12.8853   19.6479 C   0  0  0  0  0  0  0  0  0  0  0  0
    8.2590  -14.8563   20.6489 C   0  0  2  0  0  0  0  0  0  0  0  0
    7.6718  -15.7048   19.6561 N   0  0  0  0  0  0  0  0  0  0  0  0
    8.6116  -15.5590   21.8888 C   0  0  0  0  0  0  0  0  0  0  0  0
    7.7175  -16.1035   22.5833 O   0  0  0  0  0  0  0  0  0  0  0  0
    9.9545  -15.6547   22.3528 N   0  0  0  0  0  0  0  0  0  0  0  0
   10.3349  -16.4109   23.5107 C   0  0  0  0  0  0  0  0  0  0  0  0
   11.7677  -16.2445   23.8238 C   0  0  0  0  0  0  0  0  0  0  0  0
   12.2601  -16.8368   24.9768 O   0  0  0  0  0  0  0  0  0  0  0  0
   12.5383  -15.5879   23.0795 O   0  0  0  0  0  0  0  0  0  0  0  0
  2  3  1  0
  2  1  1  0
  3  9  1  0
  4  3  2  0
  6  5  1  1
  7  6  1  0
  8  6  1  0
  8  9  1  6
 10 11  2  0
 10  8  1  0
 12 10  1  0
 13 14  1  0
 13 12  1  0
 14 15  1  0
 16 14  2  0
M  END
$$$$
