GVG.pdb
     RDKit          3D

 16 15  0  0  1  0  0  0  0  0999 V2000
    5.6219  -17.4684   22.6748 N   0  0  0  0  0  0  0  0  0  0  0  0
    5.6089  -17.0728   24.0721 C   0  0  0  0  0  0  0  0  0  0  0  0
    6.4571  -15.8731   24.3046 C   0  0  0  0  0  0  0  0  0  0  0  0
    7.1792  -15.4909   23.3537 O   0  0  0  0  0  0  0  0  0  0  0  0
    7.6736  -12.0325   27.2276 C   0  0  0  0  0  0  0  0  0  0  0  0
    6.6910  -13.1117   26.8348 C   0  0  1  0  0  0  0  0  0  0  0  0
    5.4743  -12.4084   26.2846 C   0  0  0  0  0  0  0  0  0  0  0  0
    7.2986  -14.0530   25.7994 C   0  0  2  0  0  0  0  0  0  0  0  0
    6.4556  -15.1830   25.5485 N   0  0  0  0  0  0  0  0  0  0  0  0
    8.6799  -14.4144   26.1408 C   0  0  0  0  0  0  0  0  0  0  0  0
    9.5688  -13.5287   26.2018 O   0  0  0  0  0  0  0  0  0  0  0  0
    9.0693  -15.7569   26.4130 N   0  0  0  0  0  0  0  0  0  0  0  0
   10.3999  -16.1272   26.8000 C   0  0  0  0  0  0  0  0  0  0  0  0
   10.9750  -17.1304   25.8829 C   0  0  0  0  0  0  0  0  0  0  0  0
   12.2259  -17.6498   26.1799 O   0  0  0  0  0  0  0  0  0  0  0  0
   10.3647  -17.5178   24.8550 O   0  0  0  0  0  0  0  0  0  0  0  0
  2  3  1  0
  2  1  1  0
  3  9  1  0
  4  3  2  0
  6  5  1  6
  7  6  1  0
  8  6  1  0
  8  9  1  1
 10 11  2  0
 10  8  1  0
 12 10  1  0
 13 14  1  0
 13 12  1  0
 14 15  1  0
 16 14  2  0
M  END
$$$$
