GVG.pdb
     RDKit          3D

 16 15  0  0  1  0  0  0  0  0999 V2000
    8.5183  -17.9917   16.7370 N   0  0  0  0  0  0  0  0  0  0  0  0
    7.6426  -17.5348   17.8017 C   0  0  0  0  0  0  0  0  0  0  0  0
    8.3033  -16.4998   18.6414 C   0  0  0  0  0  0  0  0  0  0  0  0
    9.5483  -16.3918   18.5409 O   0  0  0  0  0  0  0  0  0  0  0  0
    8.1255  -12.6382   21.7096 C   0  0  0  0  0  0  0  0  0  0  0  0
    7.3954  -13.5526   20.7527 C   0  0  1  0  0  0  0  0  0  0  0  0
    7.1928  -12.7705   19.4780 C   0  0  0  0  0  0  0  0  0  0  0  0
    8.1952  -14.8261   20.4968 C   0  0  2  0  0  0  0  0  0  0  0  0
    7.5630  -15.6644   19.5231 N   0  0  0  0  0  0  0  0  0  0  0  0
    8.5216  -15.5213   21.7480 C   0  0  0  0  0  0  0  0  0  0  0  0
    7.6081  -16.0221   22.4501 O   0  0  0  0  0  0  0  0  0  0  0  0
    9.8600  -15.6578   22.2149 N   0  0  0  0  0  0  0  0  0  0  0  0
   10.1975  -16.2649   23.4698 C   0  0  0  0  0  0  0  0  0  0  0  0
   11.6582  -16.3195   23.6736 C   0  0  0  0  0  0  0  0  0  0  0  0
   12.1329  -16.6973   24.9205 O   0  0  0  0  0  0  0  0  0  0  0  0
   12.4680  -16.0354   22.7556 O   0  0  0  0  0  0  0  0  0  0  0  0
  2  3  1  0
  2  1  1  0
  3  9  1  0
  4  3  2  0
  6  5  1  1
  7  6  1  0
  8  6  1  0
  8  9  1  6
 10 11  2  0
 10  8  1  0
 12 10  1  0
 13 14  1  0
 13 12  1  0
 14 15  1  0
 16 14  2  0
M  END
$$$$
