GVG.pdb
     RDKit          3D

 16 15  0  0  1  0  0  0  0  0999 V2000
    3.9673  -18.4867   21.0341 N   0  0  0  0  0  0  0  0  0  0  0  0
    4.3860  -17.2982   21.7561 C   0  0  0  0  0  0  0  0  0  0  0  0
    5.7503  -16.8678   21.3484 C   0  0  0  0  0  0  0  0  0  0  0  0
    6.5210  -17.7531   20.9082 O   0  0  0  0  0  0  0  0  0  0  0  0
    7.0783  -12.6314   21.3044 C   0  0  0  0  0  0  0  0  0  0  0  0
    7.4759  -13.7466   20.3647 C   0  0  1  0  0  0  0  0  0  0  0  0
    8.8454  -13.3975   19.8353 C   0  0  0  0  0  0  0  0  0  0  0  0
    7.4902  -15.0902   21.0869 C   0  0  2  0  0  0  0  0  0  0  0  0
    6.1711  -15.5128   21.4501 N   0  0  0  0  0  0  0  0  0  0  0  0
    8.4377  -15.0922   22.2082 C   0  0  0  0  0  0  0  0  0  0  0  0
    8.1144  -14.5834   23.3104 O   0  0  0  0  0  0  0  0  0  0  0  0
    9.7400  -15.6587   22.1020 N   0  0  0  0  0  0  0  0  0  0  0  0
   10.6577  -15.7333   23.2018 C   0  0  0  0  0  0  0  0  0  0  0  0
   11.9412  -16.3413   22.8004 C   0  0  0  0  0  0  0  0  0  0  0  0
   12.9575  -16.4093   23.7413 O   0  0  0  0  0  0  0  0  0  0  0  0
   12.1296  -16.7914   21.6424 O   0  0  0  0  0  0  0  0  0  0  0  0
  2  3  1  0
  2  1  1  0
  3  9  1  0
  4  3  2  0
  6  5  1  1
  7  6  1  0
  8  6  1  0
  8  9  1  1
 10 11  2  0
 10  8  1  0
 12 10  1  0
 13 14  1  0
 13 12  1  0
 14 15  1  0
 16 14  2  0
M  END
$$$$
