GVG.pdb
     RDKit          3D

 16 15  0  0  1  0  0  0  0  0999 V2000
    4.7669  -19.1059   21.6662 N   0  0  0  0  0  0  0  0  0  0  0  0
    5.0391  -17.9182   22.4563 C   0  0  0  0  0  0  0  0  0  0  0  0
    6.2618  -17.2177   21.9798 C   0  0  0  0  0  0  0  0  0  0  0  0
    7.0658  -17.8814   21.2835 O   0  0  0  0  0  0  0  0  0  0  0  0
    8.7503  -13.1435   20.9122 C   0  0  0  0  0  0  0  0  0  0  0  0
    7.4718  -13.7825   21.4038 C   0  0  1  0  0  0  0  0  0  0  0  0
    6.5185  -13.7966   20.2338 C   0  0  0  0  0  0  0  0  0  0  0  0
    7.7306  -15.1942   21.9208 C   0  0  2  0  0  0  0  0  0  0  0  0
    6.5163  -15.8542   22.2954 N   0  0  0  0  0  0  0  0  0  0  0  0
    8.7549  -15.2065   22.9724 C   0  0  0  0  0  0  0  0  0  0  0  0
    8.4836  -14.7854   24.1245 O   0  0  0  0  0  0  0  0  0  0  0  0
   10.0758  -15.6858   22.7414 N   0  0  0  0  0  0  0  0  0  0  0  0
   11.0565  -15.8213   23.7793 C   0  0  0  0  0  0  0  0  0  0  0  0
   12.3824  -16.1722   23.2340 C   0  0  0  0  0  0  0  0  0  0  0  0
   13.4447  -16.2897   24.1174 O   0  0  0  0  0  0  0  0  0  0  0  0
   12.5659  -16.3636   22.0057 O   0  0  0  0  0  0  0  0  0  0  0  0
  2  3  1  0
  2  1  1  0
  3  9  1  0
  4  3  2  0
  6  5  1  6
  7  6  1  0
  8  6  1  0
  8  9  1  1
 10 11  2  0
 10  8  1  0
 12 10  1  0
 13 14  1  0
 13 12  1  0
 14 15  1  0
 16 14  2  0
M  END
$$$$
