GVG.pdb
     RDKit          3D

 16 15  0  0  1  0  0  0  0  0999 V2000
    5.1642  -18.3830   24.4470 N   0  0  0  0  0  0  0  0  0  0  0  0
    5.3611  -17.3487   25.4473 C   0  0  0  0  0  0  0  0  0  0  0  0
    6.3571  -16.3399   24.9964 C   0  0  0  0  0  0  0  0  0  0  0  0
    6.9161  -16.5426   23.8928 O   0  0  0  0  0  0  0  0  0  0  0  0
    6.0240  -12.4431   25.6687 C   0  0  0  0  0  0  0  0  0  0  0  0
    7.4436  -12.8755   25.9558 C   0  0  1  0  0  0  0  0  0  0  0  0
    7.6143  -12.8294   27.4546 C   0  0  0  0  0  0  0  0  0  0  0  0
    7.7078  -14.2768   25.4139 C   0  0  2  0  0  0  0  0  0  0  0  0
    6.6682  -15.1921   25.7769 N   0  0  0  0  0  0  0  0  0  0  0  0
    9.0538  -14.7476   25.7630 C   0  0  0  0  0  0  0  0  0  0  0  0
    9.3614  -14.9497   26.9642 O   0  0  0  0  0  0  0  0  0  0  0  0
   10.0529  -14.9920   24.7781 N   0  0  0  0  0  0  0  0  0  0  0  0
   11.3816  -15.4286   25.0965 C   0  0  0  0  0  0  0  0  0  0  0  0
   12.2116  -15.5765   23.8851 C   0  0  0  0  0  0  0  0  0  0  0  0
   13.5353  -15.9598   24.0398 O   0  0  0  0  0  0  0  0  0  0  0  0
   11.7516  -15.3659   22.7349 O   0  0  0  0  0  0  0  0  0  0  0  0
  2  3  1  0
  2  1  1  0
  3  9  1  0
  4  3  2  0
  6  5  1  1
  7  6  1  0
  8  6  1  0
  8  9  1  1
 10 11  2  0
 10  8  1  0
 12 10  1  0
 13 14  1  0
 13 12  1  0
 14 15  1  0
 16 14  2  0
M  END
$$$$
