GVG.pdb
     RDKit          3D

 16 15  0  0  1  0  0  0  0  0999 V2000
    7.9514  -18.3345   17.1890 N   0  0  0  0  0  0  0  0  0  0  0  0
    7.1689  -17.7146   18.2437 C   0  0  0  0  0  0  0  0  0  0  0  0
    7.9768  -16.7293   19.0114 C   0  0  0  0  0  0  0  0  0  0  0  0
    9.2170  -16.7413   18.8288 O   0  0  0  0  0  0  0  0  0  0  0  0
    8.3132  -12.5837   21.6360 C   0  0  0  0  0  0  0  0  0  0  0  0
    7.4246  -13.5777   20.9239 C   0  0  1  0  0  0  0  0  0  0  0  0
    7.0427  -12.9487   19.6062 C   0  0  0  0  0  0  0  0  0  0  0  0
    8.1485  -14.9036   20.7123 C   0  0  2  0  0  0  0  0  0  0  0  0
    7.3770  -15.8095   19.9157 N   0  0  0  0  0  0  0  0  0  0  0  0
    8.6047  -15.4803   21.9830 C   0  0  0  0  0  0  0  0  0  0  0  0
    7.7695  -15.8657   22.8387 O   0  0  0  0  0  0  0  0  0  0  0  0
    9.9855  -15.6271   22.2989 N   0  0  0  0  0  0  0  0  0  0  0  0
   10.4551  -16.1810   23.5359 C   0  0  0  0  0  0  0  0  0  0  0  0
   11.9282  -16.1487   23.6230 C   0  0  0  0  0  0  0  0  0  0  0  0
   12.5231  -16.5320   24.8155 O   0  0  0  0  0  0  0  0  0  0  0  0
   12.6431  -15.7871   22.6550 O   0  0  0  0  0  0  0  0  0  0  0  0
  2  3  1  0
  2  1  1  0
  3  9  1  0
  4  3  2  0
  6  5  1  6
  7  6  1  0
  8  6  1  0
  8  9  1  1
 10 11  2  0
 10  8  1  0
 12 10  1  0
 13 14  1  0
 13 12  1  0
 14 15  1  0
 16 14  2  0
M  END
$$$$
