GVG.pdb
     RDKit          3D

 16 15  0  0  1  0  0  0  0  0999 V2000
    5.8292  -17.9722   23.0810 N   0  0  0  0  0  0  0  0  0  0  0  0
    5.7167  -17.3421   24.3845 C   0  0  0  0  0  0  0  0  0  0  0  0
    6.5757  -16.1313   24.4782 C   0  0  0  0  0  0  0  0  0  0  0  0
    7.3859  -15.9318   23.5426 O   0  0  0  0  0  0  0  0  0  0  0  0
    7.7238  -11.8813   26.7998 C   0  0  0  0  0  0  0  0  0  0  0  0
    6.7419  -13.0067   26.5674 C   0  0  1  0  0  0  0  0  0  0  0  0
    5.5476  -12.4009   25.8714 C   0  0  0  0  0  0  0  0  0  0  0  0
    7.3685  -14.1128   25.7242 C   0  0  2  0  0  0  0  0  0  0  0  0
    6.4887  -15.2330   25.5778 N   0  0  0  0  0  0  0  0  0  0  0  0
    8.7049  -14.4747   26.2125 C   0  0  0  0  0  0  0  0  0  0  0  0
    9.6411  -13.6380   26.1721 O   0  0  0  0  0  0  0  0  0  0  0  0
    8.9969  -15.7635   26.7435 N   0  0  0  0  0  0  0  0  0  0  0  0
   10.2957  -16.1425   27.2195 C   0  0  0  0  0  0  0  0  0  0  0  0
   11.0221  -16.9605   26.2287 C   0  0  0  0  0  0  0  0  0  0  0  0
   12.2282  -17.5308   26.6066 O   0  0  0  0  0  0  0  0  0  0  0  0
   10.5778  -17.1480   25.0683 O   0  0  0  0  0  0  0  0  0  0  0  0
  2  3  1  0
  2  1  1  0
  3  9  1  0
  4  3  2  0
  6  5  1  6
  7  6  1  0
  8  6  1  0
  8  9  1  1
 10 11  2  0
 10  8  1  0
 12 10  1  0
 13 14  1  0
 13 12  1  0
 14 15  1  0
 16 14  2  0
M  END
$$$$
