GVG.pdb
     RDKit          3D

 16 15  0  0  1  0  0  0  0  0999 V2000
    7.2094  -18.0197   17.2670 N   0  0  0  0  0  0  0  0  0  0  0  0
    6.7467  -17.4351   18.5132 C   0  0  0  0  0  0  0  0  0  0  0  0
    7.8163  -16.6346   19.1675 C   0  0  0  0  0  0  0  0  0  0  0  0
    9.0025  -16.9592   18.9243 O   0  0  0  0  0  0  0  0  0  0  0  0
    7.5895  -12.7385   19.6658 C   0  0  0  0  0  0  0  0  0  0  0  0
    8.1229  -13.3533   20.9394 C   0  0  1  0  0  0  0  0  0  0  0  0
    7.0188  -13.2515   21.9634 C   0  0  0  0  0  0  0  0  0  0  0  0
    8.5338  -14.8051   20.7146 C   0  0  2  0  0  0  0  0  0  0  0  0
    7.5158  -15.5465   20.0330 N   0  0  0  0  0  0  0  0  0  0  0  0
    8.9886  -15.4381   21.9587 C   0  0  0  0  0  0  0  0  0  0  0  0
    8.1541  -15.9177   22.7661 O   0  0  0  0  0  0  0  0  0  0  0  0
   10.3673  -15.5362   22.3018 N   0  0  0  0  0  0  0  0  0  0  0  0
   10.8444  -16.2627   23.4428 C   0  0  0  0  0  0  0  0  0  0  0  0
   12.3176  -16.2370   23.5282 C   0  0  0  0  0  0  0  0  0  0  0  0
   12.8997  -16.0947   24.7787 O   0  0  0  0  0  0  0  0  0  0  0  0
   13.0440  -16.3398   22.5080 O   0  0  0  0  0  0  0  0  0  0  0  0
  2  3  1  0
  2  1  1  0
  3  9  1  0
  4  3  2  0
  6  5  1  6
  7  6  1  0
  8  6  1  0
  8  9  1  1
 10 11  2  0
 10  8  1  0
 12 10  1  0
 13 14  1  0
 13 12  1  0
 14 15  1  0
 16 14  2  0
M  END
$$$$
