GVG.pdb
     RDKit          3D

 16 15  0  0  1  0  0  0  0  0999 V2000
    4.4396  -18.4038   20.6445 N   0  0  0  0  0  0  0  0  0  0  0  0
    4.8272  -17.3923   21.6117 C   0  0  0  0  0  0  0  0  0  0  0  0
    6.1221  -16.7584   21.2450 C   0  0  0  0  0  0  0  0  0  0  0  0
    6.9037  -17.4283   20.5295 O   0  0  0  0  0  0  0  0  0  0  0  0
    8.9092  -12.8549   20.4475 C   0  0  0  0  0  0  0  0  0  0  0  0
    7.5921  -13.4011   20.9490 C   0  0  1  0  0  0  0  0  0  0  0  0
    6.6100  -13.2733   19.8102 C   0  0  0  0  0  0  0  0  0  0  0  0
    7.7364  -14.8537   21.3919 C   0  0  2  0  0  0  0  0  0  0  0  0
    6.4672  -15.4496   21.6825 N   0  0  0  0  0  0  0  0  0  0  0  0
    8.7142  -14.9942   22.4779 C   0  0  0  0  0  0  0  0  0  0  0  0
    8.4264  -14.6162   23.6409 O   0  0  0  0  0  0  0  0  0  0  0  0
   10.0071  -15.5534   22.2691 N   0  0  0  0  0  0  0  0  0  0  0  0
   10.9899  -15.6725   23.3070 C   0  0  0  0  0  0  0  0  0  0  0  0
   12.2453  -16.2634   22.8037 C   0  0  0  0  0  0  0  0  0  0  0  0
   13.3549  -16.2523   23.6351 O   0  0  0  0  0  0  0  0  0  0  0  0
   12.3285  -16.7682   21.6559 O   0  0  0  0  0  0  0  0  0  0  0  0
  2  3  1  0
  2  1  1  0
  3  9  1  0
  4  3  2  0
  6  5  1  6
  7  6  1  0
  8  6  1  0
  8  9  1  1
 10 11  2  0
 10  8  1  0
 12 10  1  0
 13 14  1  0
 13 12  1  0
 14 15  1  0
 16 14  2  0
M  END
$$$$
