GVG.pdb
     RDKit          3D

 16 15  0  0  1  0  0  0  0  0999 V2000
    5.4686  -18.7987   24.5982 N   0  0  0  0  0  0  0  0  0  0  0  0
    5.6447  -17.8592   25.6915 C   0  0  0  0  0  0  0  0  0  0  0  0
    6.2899  -16.6015   25.2278 C   0  0  0  0  0  0  0  0  0  0  0  0
    6.6736  -16.5623   24.0350 O   0  0  0  0  0  0  0  0  0  0  0  0
    7.7233  -11.9280   26.0850 C   0  0  0  0  0  0  0  0  0  0  0  0
    6.9550  -13.1345   26.5734 C   0  0  1  0  0  0  0  0  0  0  0  0
    5.4904  -12.7879   26.4620 C   0  0  0  0  0  0  0  0  0  0  0  0
    7.2936  -14.3697   25.7446 C   0  0  2  0  0  0  0  0  0  0  0  0
    6.4680  -15.4866   26.0931 N   0  0  0  0  0  0  0  0  0  0  0  0
    8.7307  -14.6676   25.7789 C   0  0  0  0  0  0  0  0  0  0  0  0
    9.3162  -14.8336   26.8780 O   0  0  0  0  0  0  0  0  0  0  0  0
    9.5122  -14.7801   24.5937 N   0  0  0  0  0  0  0  0  0  0  0  0
   10.9203  -15.0532   24.6027 C   0  0  0  0  0  0  0  0  0  0  0  0
   11.4278  -15.3433   23.2475 C   0  0  0  0  0  0  0  0  0  0  0  0
   12.7993  -15.4408   23.0677 O   0  0  0  0  0  0  0  0  0  0  0  0
   10.6557  -15.5014   22.2688 O   0  0  0  0  0  0  0  0  0  0  0  0
  2  3  1  0
  2  1  1  0
  3  9  1  0
  4  3  2  0
  6  5  1  6
  7  6  1  0
  8  6  1  0
  8  9  1  1
 10 11  2  0
 10  8  1  0
 12 10  1  0
 13 14  1  0
 13 12  1  0
 14 15  1  0
 16 14  2  0
M  END
$$$$
