GVG.pdb
     RDKit          3D

 16 15  0  0  1  0  0  0  0  0999 V2000
    6.4675  -18.4727   18.2127 N   0  0  0  0  0  0  0  0  0  0  0  0
    6.1543  -17.5780   19.3129 C   0  0  0  0  0  0  0  0  0  0  0  0
    7.3474  -16.7946   19.7321 C   0  0  0  0  0  0  0  0  0  0  0  0
    8.4689  -17.2279   19.3771 O   0  0  0  0  0  0  0  0  0  0  0  0
    7.5274  -12.9440   19.5636 C   0  0  0  0  0  0  0  0  0  0  0  0
    8.1157  -13.3544   20.8941 C   0  0  1  0  0  0  0  0  0  0  0  0
    7.1220  -12.9401   21.9518 C   0  0  0  0  0  0  0  0  0  0  0  0
    8.3722  -14.8575   20.9374 C   0  0  2  0  0  0  0  0  0  0  0  0
    7.2306  -15.6045   20.5025 N   0  0  0  0  0  0  0  0  0  0  0  0
    8.8887  -15.2813   22.2447 C   0  0  0  0  0  0  0  0  0  0  0  0
    8.1059  -15.4313   23.2157 O   0  0  0  0  0  0  0  0  0  0  0  0
   10.2716  -15.5368   22.4691 N   0  0  0  0  0  0  0  0  0  0  0  0
   10.7901  -16.0214   23.7156 C   0  0  0  0  0  0  0  0  0  0  0  0
   12.2605  -16.1451   23.6831 C   0  0  0  0  0  0  0  0  0  0  0  0
   12.9068  -16.5891   24.8267 O   0  0  0  0  0  0  0  0  0  0  0  0
   12.9284  -15.8612   22.6572 O   0  0  0  0  0  0  0  0  0  0  0  0
  2  3  1  0
  2  1  1  0
  3  9  1  0
  4  3  2  0
  6  5  1  6
  7  6  1  0
  8  6  1  0
  8  9  1  1
 10 11  2  0
 10  8  1  0
 12 10  1  0
 13 14  1  0
 13 12  1  0
 14 15  1  0
 16 14  2  0
M  END
$$$$
