YER.pdb
     RDKit          3D

 33 33  0  0  1  0  0  0  0  0999 V2000
   27.3993  -14.7027  -22.1310 O   0  0  0  0  0  0  0  0  0  0  0  0
   26.1638  -14.1493  -21.7884 C   0  0  0  0  0  0  0  0  0  0  0  0
   25.4262  -13.5003  -22.7289 C   0  0  0  0  0  0  0  0  0  0  0  0
   24.2073  -12.9464  -22.4191 C   0  0  0  0  0  0  0  0  0  0  0  0
   23.7181  -13.0491  -21.1266 C   0  0  0  0  0  0  0  0  0  0  0  0
   22.4084  -12.4725  -20.7353 C   0  0  0  0  0  0  0  0  0  0  0  0
   21.4384  -13.5806  -20.3589 C   0  0  2  0  0  0  0  0  0  0  0  0
   21.2207  -14.4356  -21.5088 N   0  0  0  0  0  0  0  0  0  0  0  0
   20.1350  -12.9857  -19.8989 C   0  0  0  0  0  0  0  0  0  0  0  0
   19.3236  -12.5627  -20.7435 O   0  0  0  0  0  0  0  0  0  0  0  0
   24.4772  -13.7052  -20.2014 C   0  0  0  0  0  0  0  0  0  0  0  0
   25.7031  -14.2674  -20.4950 C   0  0  0  0  0  0  0  0  0  0  0  0
   19.8209  -12.8998  -18.5347 N   0  0  0  0  0  0  0  0  0  0  0  0
   18.5730  -12.3109  -18.0159 C   0  0  1  0  0  0  0  0  0  0  0  0
   18.1374  -13.1196  -16.8463 C   0  0  0  0  0  0  0  0  0  0  0  0
   17.5970  -14.4392  -17.2775 C   0  0  0  0  0  0  0  0  0  0  0  0
   17.1576  -15.2043  -16.0778 C   0  0  0  0  0  0  0  0  0  0  0  0
   17.6102  -16.3582  -15.8878 O   0  0  0  0  0  0  0  0  0  0  0  0
   18.8778  -10.8941  -17.7304 C   0  0  0  0  0  0  0  0  0  0  0  0
   20.0698  -10.4643  -17.5744 O   0  0  0  0  0  0  0  0  0  0  0  0
   16.2511  -14.6366  -15.1785 O   0  0  0  0  0  0  0  0  0  0  0  0
   13.5875   -4.0054  -18.5823 N   0  0  0  0  0  0  0  0  0  0  0  0
   14.8408   -3.3991  -18.3058 C   0  0  0  0  0  0  0  0  0  0  0  0
   15.0150   -2.1443  -18.5374 N   0  0  0  0  0  0  0  0  0  0  0  0
   15.8873   -4.2101  -17.7723 N   0  0  0  0  0  0  0  0  0  0  0  0
   15.5368   -5.6273  -17.5047 C   0  0  0  0  0  0  0  0  0  0  0  0
   16.7331   -6.3852  -17.0774 C   0  0  0  0  0  0  0  0  0  0  0  0
   16.9649   -7.7578  -17.4812 C   0  0  0  0  0  0  0  0  0  0  0  0
   18.1816   -8.5260  -17.1451 C   0  0  2  0  0  0  0  0  0  0  0  0
   17.8445   -9.9332  -17.6146 N   0  0  0  0  0  0  0  0  0  0  0  0
   18.2977   -8.7146  -15.6676 C   0  0  0  0  0  0  0  0  0  0  0  0
   19.1024   -8.0285  -14.8046 O   0  0  0  0  0  0  0  0  0  0  0  0
   17.5683   -9.6220  -15.1353 O   0  0  0  0  0  0  0  0  0  0  0  0
  2  1  1  0
  3  2  2  0
  4  3  1  0
  5 11  1  0
  5  4  2  0
  6  5  1  0
  7  6  1  0
  7  8  1  6
  9  7  1  0
  9 13  1  0
 10  9  2  0
 11 12  2  0
 12  2  1  0
 14 15  1  1
 14 13  1  0
 16 17  1  0
 16 15  1  0
 17 21  1  0
 18 17  2  0
 19 14  1  0
 20 19  2  0
 23 24  2  0
 23 22  1  0
 25 23  1  0
 26 25  1  0
 26 27  1  0
 27 28  1  0
 29 28  1  1
 29 30  1  0
 30 19  1  0
 31 32  1  0
 31 29  1  0
 33 31  2  0
M  END
$$$$
