YER.pdb
     RDKit          3D

 33 33  0  0  1  0  0  0  0  0999 V2000
   28.8834  -20.1467   -3.5640 O   0  0  0  0  0  0  0  0  0  0  0  0
   28.3875  -20.0367   -4.8647 C   0  0  0  0  0  0  0  0  0  0  0  0
   27.2110  -20.6336   -5.1956 C   0  0  0  0  0  0  0  0  0  0  0  0
   26.7000  -20.5415   -6.4680 C   0  0  0  0  0  0  0  0  0  0  0  0
   27.3931  -19.8286   -7.4334 C   0  0  0  0  0  0  0  0  0  0  0  0
   26.8889  -19.6938   -8.8220 C   0  0  0  0  0  0  0  0  0  0  0  0
   27.1972  -20.9522   -9.6170 C   0  0  2  0  0  0  0  0  0  0  0  0
   28.6330  -21.0832   -9.7655 N   0  0  0  0  0  0  0  0  0  0  0  0
   26.5390  -20.8783  -10.9681 C   0  0  0  0  0  0  0  0  0  0  0  0
   27.0571  -20.1856  -11.8640 O   0  0  0  0  0  0  0  0  0  0  0  0
   28.5710  -19.2389   -7.0761 C   0  0  0  0  0  0  0  0  0  0  0  0
   29.0987  -19.3211   -5.8034 C   0  0  0  0  0  0  0  0  0  0  0  0
   25.3519  -21.5765  -11.2333 N   0  0  0  0  0  0  0  0  0  0  0  0
   24.6392  -21.5226  -12.5227 C   0  0  1  0  0  0  0  0  0  0  0  0
   24.5600  -22.9073  -13.0594 C   0  0  0  0  0  0  0  0  0  0  0  0
   23.7668  -22.9500  -14.3196 C   0  0  0  0  0  0  0  0  0  0  0  0
   23.7963  -24.3332  -14.8705 C   0  0  0  0  0  0  0  0  0  0  0  0
   23.1508  -24.5906  -15.9143 O   0  0  0  0  0  0  0  0  0  0  0  0
   23.3417  -20.8735  -12.2455 C   0  0  0  0  0  0  0  0  0  0  0  0
   22.6532  -21.1292  -11.2012 O   0  0  0  0  0  0  0  0  0  0  0  0
   24.5368  -25.3279  -14.2263 O   0  0  0  0  0  0  0  0  0  0  0  0
   22.7442  -16.0313  -18.3138 N   0  0  0  0  0  0  0  0  0  0  0  0
   21.6911  -16.9208  -18.6529 C   0  0  0  0  0  0  0  0  0  0  0  0
   21.1638  -16.8776  -19.8270 N   0  0  0  0  0  0  0  0  0  0  0  0
   21.2403  -17.8501  -17.6677 N   0  0  0  0  0  0  0  0  0  0  0  0
   21.9918  -17.8538  -16.3879 C   0  0  0  0  0  0  0  0  0  0  0  0
   21.3809  -18.8021  -15.4310 C   0  0  0  0  0  0  0  0  0  0  0  0
   21.1778  -18.4699  -14.0348 C   0  0  0  0  0  0  0  0  0  0  0  0
   21.3756  -19.4194  -12.9201 C   0  0  2  0  0  0  0  0  0  0  0  0
   22.7941  -19.9230  -13.1406 N   0  0  0  0  0  0  0  0  0  0  0  0
   20.5722  -20.6609  -13.1329 C   0  0  0  0  0  0  0  0  0  0  0  0
   20.9306  -21.7687  -13.8450 O   0  0  0  0  0  0  0  0  0  0  0  0
   19.4112  -20.7048  -12.5955 O   0  0  0  0  0  0  0  0  0  0  0  0
  2  1  1  0
  3  2  2  0
  4  3  1  0
  5 11  1  0
  5  4  2  0
  6  5  1  0
  7  6  1  0
  7  8  1  6
  9  7  1  0
  9 13  1  0
 10  9  2  0
 11 12  2  0
 12  2  1  0
 14 15  1  1
 14 13  1  0
 16 17  1  0
 16 15  1  0
 17 21  1  0
 18 17  2  0
 19 14  1  0
 20 19  2  0
 23 24  2  0
 23 22  1  0
 25 23  1  0
 26 25  1  0
 26 27  1  0
 27 28  1  0
 29 28  1  6
 29 30  1  0
 30 19  1  0
 31 32  1  0
 31 29  1  0
 33 31  2  0
M  END
$$$$
