YER.pdb
     RDKit          3D

 33 33  0  0  1  0  0  0  0  0999 V2000
   39.8180  -13.5262  -16.8859 O   0  0  0  0  0  0  0  0  0  0  0  0
   38.6015  -12.8779  -16.6628 C   0  0  0  0  0  0  0  0  0  0  0  0
   38.3909  -12.2120  -15.4957 C   0  0  0  0  0  0  0  0  0  0  0  0
   37.2033  -11.5655  -15.2500 C   0  0  0  0  0  0  0  0  0  0  0  0
   36.2005  -11.5907  -16.2061 C   0  0  0  0  0  0  0  0  0  0  0  0
   34.8995  -10.9094  -15.9966 C   0  0  0  0  0  0  0  0  0  0  0  0
   34.7921   -9.6930  -16.9019 C   0  0  2  0  0  0  0  0  0  0  0  0
   35.7800   -8.7110  -16.5012 N   0  0  0  0  0  0  0  0  0  0  0  0
   33.4092   -9.1070  -16.8100 C   0  0  0  0  0  0  0  0  0  0  0  0
   33.2266   -8.0713  -16.1430 O   0  0  0  0  0  0  0  0  0  0  0  0
   36.4365  -12.2656  -17.3687 C   0  0  0  0  0  0  0  0  0  0  0  0
   37.6229  -12.9201  -17.6320 C   0  0  0  0  0  0  0  0  0  0  0  0
   32.3239   -9.7092  -17.4630 N   0  0  0  0  0  0  0  0  0  0  0  0
   30.9619   -9.1451  -17.4812 C   0  0  1  0  0  0  0  0  0  0  0  0
   31.0334   -7.7980  -18.1070 C   0  0  0  0  0  0  0  0  0  0  0  0
   31.4306   -7.8919  -19.5397 C   0  0  0  0  0  0  0  0  0  0  0  0
   31.3192   -6.5465  -20.1683 C   0  0  0  0  0  0  0  0  0  0  0  0
   30.3590   -6.3082  -20.9388 O   0  0  0  0  0  0  0  0  0  0  0  0
   30.1209  -10.1311  -18.1898 C   0  0  0  0  0  0  0  0  0  0  0  0
   30.5570  -10.8369  -19.1602 O   0  0  0  0  0  0  0  0  0  0  0  0
   32.2772   -5.5659  -19.8980 O   0  0  0  0  0  0  0  0  0  0  0  0
   26.1776  -16.4286  -16.7452 N   0  0  0  0  0  0  0  0  0  0  0  0
   25.6298  -15.6507  -15.6919 C   0  0  0  0  0  0  0  0  0  0  0  0
   24.5493  -16.0316  -15.1037 N   0  0  0  0  0  0  0  0  0  0  0  0
   26.3019  -14.4506  -15.3103 N   0  0  0  0  0  0  0  0  0  0  0  0
   27.1432  -13.8180  -16.3566 C   0  0  0  0  0  0  0  0  0  0  0  0
   26.3293  -12.9167  -17.2011 C   0  0  0  0  0  0  0  0  0  0  0  0
   26.8059  -11.6162  -17.6284 C   0  0  0  0  0  0  0  0  0  0  0  0
   27.9577  -11.4114  -18.5310 C   0  0  2  0  0  0  0  0  0  0  0  0
   28.7707  -10.3408  -17.8190 N   0  0  0  0  0  0  0  0  0  0  0  0
   27.5357  -10.7001  -19.7753 C   0  0  0  0  0  0  0  0  0  0  0  0
   27.2491  -11.2528  -20.9898 O   0  0  0  0  0  0  0  0  0  0  0  0
   27.4299   -9.4259  -19.7125 O   0  0  0  0  0  0  0  0  0  0  0  0
  2  1  1  0
  3  2  2  0
  4  3  1  0
  5 11  1  0
  5  4  2  0
  6  5  1  0
  7  6  1  0
  7  8  1  1
  9  7  1  0
  9 13  1  0
 10  9  2  0
 11 12  2  0
 12  2  1  0
 14 15  1  6
 14 13  1  0
 16 17  1  0
 16 15  1  0
 17 21  1  0
 18 17  2  0
 19 14  1  0
 20 19  2  0
 23 24  2  0
 23 22  1  0
 25 23  1  0
 26 25  1  0
 26 27  1  0
 27 28  1  0
 29 28  1  1
 29 30  1  0
 30 19  1  0
 31 32  1  0
 31 29  1  0
 33 31  2  0
M  END
$$$$
