YER.pdb
     RDKit          3D

 33 33  0  0  1  0  0  0  0  0999 V2000
   15.2653  -21.1765   -9.4969 O   0  0  0  0  0  0  0  0  0  0  0  0
   16.3863  -20.8787  -10.2745 C   0  0  0  0  0  0  0  0  0  0  0  0
   16.5047  -19.6540  -10.8542 C   0  0  0  0  0  0  0  0  0  0  0  0
   17.5972  -19.3344  -11.6243 C   0  0  0  0  0  0  0  0  0  0  0  0
   18.5976  -20.2741  -11.8156 C   0  0  0  0  0  0  0  0  0  0  0  0
   19.7999  -19.9843  -12.6349 C   0  0  0  0  0  0  0  0  0  0  0  0
   19.4656  -20.0913  -14.1139 C   0  0  2  0  0  0  0  0  0  0  0  0
   19.1215  -21.4639  -14.4275 N   0  0  0  0  0  0  0  0  0  0  0  0
   20.6441  -19.6491  -14.9384 C   0  0  0  0  0  0  0  0  0  0  0  0
   21.6588  -20.3692  -14.9909 O   0  0  0  0  0  0  0  0  0  0  0  0
   18.4551  -21.4954  -11.2232 C   0  0  0  0  0  0  0  0  0  0  0  0
   17.3651  -21.8333  -10.4468 C   0  0  0  0  0  0  0  0  0  0  0  0
   20.6175  -18.4392  -15.6473 N   0  0  0  0  0  0  0  0  0  0  0  0
   21.7117  -17.9752  -16.5194 C   0  0  1  0  0  0  0  0  0  0  0  0
   21.2207  -16.7960  -17.2809 C   0  0  0  0  0  0  0  0  0  0  0  0
   21.5766  -15.5249  -16.5906 C   0  0  0  0  0  0  0  0  0  0  0  0
   21.8399  -14.4711  -17.6094 C   0  0  0  0  0  0  0  0  0  0  0  0
   20.9024  -13.7208  -17.9707 O   0  0  0  0  0  0  0  0  0  0  0  0
   22.8637  -17.7224  -15.6301 C   0  0  0  0  0  0  0  0  0  0  0  0
   22.7478  -17.1298  -14.5052 O   0  0  0  0  0  0  0  0  0  0  0  0
   23.1194  -14.3258  -18.1521 O   0  0  0  0  0  0  0  0  0  0  0  0
   28.4631  -20.8506  -11.1192 N   0  0  0  0  0  0  0  0  0  0  0  0
   27.2162  -21.4391  -11.4569 C   0  0  0  0  0  0  0  0  0  0  0  0
   26.4488  -21.8996  -10.5309 N   0  0  0  0  0  0  0  0  0  0  0  0
   26.8444  -21.5049  -12.8335 N   0  0  0  0  0  0  0  0  0  0  0  0
   27.6771  -20.7084  -13.7688 C   0  0  0  0  0  0  0  0  0  0  0  0
   27.0912  -19.3651  -13.9687 C   0  0  0  0  0  0  0  0  0  0  0  0
   25.9276  -19.1446  -14.8044 C   0  0  0  0  0  0  0  0  0  0  0  0
   25.3351  -17.8165  -15.0660 C   0  0  2  0  0  0  0  0  0  0  0  0
   24.1697  -18.1324  -15.9914 N   0  0  0  0  0  0  0  0  0  0  0  0
   26.2221  -17.0064  -15.9544 C   0  0  0  0  0  0  0  0  0  0  0  0
   27.0912  -16.0216  -15.5835 O   0  0  0  0  0  0  0  0  0  0  0  0
   26.1700  -17.2491  -17.2103 O   0  0  0  0  0  0  0  0  0  0  0  0
  2  1  1  0
  3  2  2  0
  4  3  1  0
  5 11  1  0
  5  4  2  0
  6  5  1  0
  7  6  1  0
  7  8  1  6
  9  7  1  0
  9 13  1  0
 10  9  2  0
 11 12  2  0
 12  2  1  0
 14 15  1  1
 14 13  1  0
 16 17  1  0
 16 15  1  0
 17 21  1  0
 18 17  2  0
 19 14  1  0
 20 19  2  0
 23 24  2  0
 23 22  1  0
 25 23  1  0
 26 25  1  0
 26 27  1  0
 27 28  1  0
 29 28  1  6
 29 30  1  0
 30 19  1  0
 31 32  1  0
 31 29  1  0
 33 31  2  0
M  END
$$$$
