YER.pdb
     RDKit          3D

 33 33  0  0  1  0  0  0  0  0999 V2000
   29.1174  -27.9668  -16.8757 O   0  0  0  0  0  0  0  0  0  0  0  0
   28.6743  -26.6713  -16.6012 C   0  0  0  0  0  0  0  0  0  0  0  0
   27.3414  -26.4038  -16.5612 C   0  0  0  0  0  0  0  0  0  0  0  0
   26.8778  -25.1380  -16.2935 C   0  0  0  0  0  0  0  0  0  0  0  0
   27.7817  -24.1139  -16.0598 C   0  0  0  0  0  0  0  0  0  0  0  0
   27.3391  -22.7292  -15.7641 C   0  0  0  0  0  0  0  0  0  0  0  0
   27.3192  -21.9009  -17.0385 C   0  0  2  0  0  0  0  0  0  0  0  0
   28.6810  -21.6044  -17.4364 N   0  0  0  0  0  0  0  0  0  0  0  0
   26.5551  -20.6253  -16.8081 C   0  0  0  0  0  0  0  0  0  0  0  0
   27.0176  -19.7663  -16.0342 O   0  0  0  0  0  0  0  0  0  0  0  0
   29.1137  -24.4082  -16.1056 C   0  0  0  0  0  0  0  0  0  0  0  0
   29.5966  -25.6733  -16.3728 C   0  0  0  0  0  0  0  0  0  0  0  0
   25.3308  -20.3897  -17.4505 N   0  0  0  0  0  0  0  0  0  0  0  0
   24.5039  -19.1901  -17.2255 C   0  0  1  0  0  0  0  0  0  0  0  0
   24.9653  -18.1340  -18.1653 C   0  0  0  0  0  0  0  0  0  0  0  0
   24.0962  -16.9268  -18.0848 C   0  0  0  0  0  0  0  0  0  0  0  0
   24.5532  -15.9262  -19.0887 C   0  0  0  0  0  0  0  0  0  0  0  0
   25.4999  -16.2183  -19.8573 O   0  0  0  0  0  0  0  0  0  0  0  0
   23.1019  -19.6228  -17.3947 C   0  0  0  0  0  0  0  0  0  0  0  0
   22.7268  -20.3846  -18.3482 O   0  0  0  0  0  0  0  0  0  0  0  0
   23.9294  -14.6783  -19.1675 O   0  0  0  0  0  0  0  0  0  0  0  0
   18.0695  -22.9853  -11.6052 N   0  0  0  0  0  0  0  0  0  0  0  0
   18.9712  -23.5593  -12.5393 C   0  0  0  0  0  0  0  0  0  0  0  0
   19.5214  -24.6964  -12.2891 N   0  0  0  0  0  0  0  0  0  0  0  0
   19.2464  -22.8482  -13.7461 N   0  0  0  0  0  0  0  0  0  0  0  0
   18.6892  -21.4752  -13.8310 C   0  0  0  0  0  0  0  0  0  0  0  0
   19.0053  -20.8680  -15.1423 C   0  0  0  0  0  0  0  0  0  0  0  0
   20.3227  -20.3537  -15.4598 C   0  0  0  0  0  0  0  0  0  0  0  0
   20.6576  -19.6527  -16.7168 C   0  0  2  0  0  0  0  0  0  0  0  0
   22.0940  -19.2049  -16.4924 N   0  0  0  0  0  0  0  0  0  0  0  0
   19.9382  -18.3460  -16.8023 C   0  0  0  0  0  0  0  0  0  0  0  0
   18.6580  -18.1301  -17.2232 O   0  0  0  0  0  0  0  0  0  0  0  0
   20.5840  -17.2992  -16.4474 O   0  0  0  0  0  0  0  0  0  0  0  0
  2  1  1  0
  3  2  2  0
  4  3  1  0
  5 11  1  0
  5  4  2  0
  6  5  1  0
  7  6  1  0
  7  8  1  1
  9  7  1  0
  9 13  1  0
 10  9  2  0
 11 12  2  0
 12  2  1  0
 14 15  1  6
 14 13  1  0
 16 17  1  0
 16 15  1  0
 17 21  1  0
 18 17  2  0
 19 14  1  0
 20 19  2  0
 23 24  2  0
 23 22  1  0
 25 23  1  0
 26 25  1  0
 26 27  1  0
 27 28  1  0
 29 28  1  1
 29 30  1  0
 30 19  1  0
 31 32  1  0
 31 29  1  0
 33 31  2  0
M  END
$$$$
