YER.pdb
     RDKit          3D

 33 33  0  0  1  0  0  0  0  0999 V2000
   16.7373  -18.8826   -9.8989 O   0  0  0  0  0  0  0  0  0  0  0  0
   17.9193  -19.1271  -10.6012 C   0  0  0  0  0  0  0  0  0  0  0  0
   18.2227  -18.3843  -11.6994 C   0  0  0  0  0  0  0  0  0  0  0  0
   19.3789  -18.6036  -12.4091 C   0  0  0  0  0  0  0  0  0  0  0  0
   20.2534  -19.5984  -12.0012 C   0  0  0  0  0  0  0  0  0  0  0  0
   21.5165  -19.8785  -12.7269 C   0  0  0  0  0  0  0  0  0  0  0  0
   21.2291  -20.6590  -13.9993 C   0  0  2  0  0  0  0  0  0  0  0  0
   20.7718  -21.9893  -13.6502 N   0  0  0  0  0  0  0  0  0  0  0  0
   22.4731  -20.7410  -14.8417 C   0  0  0  0  0  0  0  0  0  0  0  0
   23.3032  -21.6428  -14.6210 O   0  0  0  0  0  0  0  0  0  0  0  0
   19.9261  -20.3296  -10.8962 C   0  0  0  0  0  0  0  0  0  0  0  0
   18.7696  -20.1229  -10.1718 C   0  0  0  0  0  0  0  0  0  0  0  0
   22.7122  -19.8178  -15.8701 N   0  0  0  0  0  0  0  0  0  0  0  0
   23.8722  -19.8830  -16.7776 C   0  0  1  0  0  0  0  0  0  0  0  0
   23.5319  -19.1231  -18.0098 C   0  0  0  0  0  0  0  0  0  0  0  0
   24.6661  -19.1305  -18.9756 C   0  0  0  0  0  0  0  0  0  0  0  0
   24.2784  -18.3648  -20.1926 C   0  0  0  0  0  0  0  0  0  0  0  0
   23.1852  -17.7508  -20.2074 O   0  0  0  0  0  0  0  0  0  0  0  0
   25.0220  -19.3648  -16.0088 C   0  0  0  0  0  0  0  0  0  0  0  0
   24.9310  -18.3582  -15.2288 O   0  0  0  0  0  0  0  0  0  0  0  0
   25.1280  -18.3355  -21.3016 O   0  0  0  0  0  0  0  0  0  0  0  0
   30.5674  -22.6632  -10.9397 N   0  0  0  0  0  0  0  0  0  0  0  0
   30.1508  -21.5268  -10.1980 C   0  0  0  0  0  0  0  0  0  0  0  0
   30.6341  -21.3105   -9.0241 N   0  0  0  0  0  0  0  0  0  0  0  0
   29.1935  -20.6445  -10.7834 N   0  0  0  0  0  0  0  0  0  0  0  0
   28.4520  -21.1766  -11.9538 C   0  0  0  0  0  0  0  0  0  0  0  0
   28.3439  -20.1472  -13.0105 C   0  0  0  0  0  0  0  0  0  0  0  0
   27.7298  -20.4180  -14.2952 C   0  0  0  0  0  0  0  0  0  0  0  0
   27.4632  -19.3872  -15.3198 C   0  0  2  0  0  0  0  0  0  0  0  0
   26.2979  -19.9708  -16.1044 N   0  0  0  0  0  0  0  0  0  0  0  0
   28.5474  -19.3692  -16.3476 C   0  0  0  0  0  0  0  0  0  0  0  0
   29.7158  -18.6649  -16.3083 O   0  0  0  0  0  0  0  0  0  0  0  0
   28.3741  -20.0884  -17.3923 O   0  0  0  0  0  0  0  0  0  0  0  0
  2  1  1  0
  3  2  2  0
  4  3  1  0
  5 11  1  0
  5  4  2  0
  6  5  1  0
  7  6  1  0
  7  8  1  1
  9  7  1  0
  9 13  1  0
 10  9  2  0
 11 12  2  0
 12  2  1  0
 14 15  1  6
 14 13  1  0
 16 17  1  0
 16 15  1  0
 17 21  1  0
 18 17  2  0
 19 14  1  0
 20 19  2  0
 23 24  2  0
 23 22  1  0
 25 23  1  0
 26 25  1  0
 26 27  1  0
 27 28  1  0
 29 28  1  1
 29 30  1  0
 30 19  1  0
 31 32  1  0
 31 29  1  0
 33 31  2  0
M  END
$$$$
