YER.pdb
     RDKit          3D

 33 33  0  0  1  0  0  0  0  0999 V2000
    9.8575  -19.9430   -3.4490 O   0  0  0  0  0  0  0  0  0  0  0  0
   10.7966  -19.8462   -4.4778 C   0  0  0  0  0  0  0  0  0  0  0  0
   10.7276  -18.8182   -5.3657 C   0  0  0  0  0  0  0  0  0  0  0  0
   11.6387  -18.6988   -6.3876 C   0  0  0  0  0  0  0  0  0  0  0  0
   12.6468  -19.6406   -6.5186 C   0  0  0  0  0  0  0  0  0  0  0  0
   13.6587  -19.5614   -7.6005 C   0  0  0  0  0  0  0  0  0  0  0  0
   13.0430  -19.9770   -8.9267 C   0  0  2  0  0  0  0  0  0  0  0  0
   12.7913  -21.4043   -8.9096 N   0  0  0  0  0  0  0  0  0  0  0  0
   13.9741  -19.6265  -10.0556 C   0  0  0  0  0  0  0  0  0  0  0  0
   14.4954  -18.4961  -10.0902 O   0  0  0  0  0  0  0  0  0  0  0  0
   12.6943  -20.6624   -5.6150 C   0  0  0  0  0  0  0  0  0  0  0  0
   11.7879  -20.7976   -4.5828 C   0  0  0  0  0  0  0  0  0  0  0  0
   14.2629  -20.5524  -11.0687 N   0  0  0  0  0  0  0  0  0  0  0  0
   15.1438  -20.2654  -12.2154 C   0  0  1  0  0  0  0  0  0  0  0  0
   15.8606  -21.5202  -12.5666 C   0  0  0  0  0  0  0  0  0  0  0  0
   16.6991  -21.3367  -13.7841 C   0  0  0  0  0  0  0  0  0  0  0  0
   17.4270  -22.6034  -14.0732 C   0  0  0  0  0  0  0  0  0  0  0  0
   17.2055  -23.6127  -13.3630 O   0  0  0  0  0  0  0  0  0  0  0  0
   14.2717  -19.7148  -13.2728 C   0  0  0  0  0  0  0  0  0  0  0  0
   13.1470  -20.2362  -13.5783 O   0  0  0  0  0  0  0  0  0  0  0  0
   18.3447  -22.6591  -15.1255 O   0  0  0  0  0  0  0  0  0  0  0  0
   12.3192  -11.6017  -14.3396 N   0  0  0  0  0  0  0  0  0  0  0  0
   11.8758  -12.6660  -13.5115 C   0  0  0  0  0  0  0  0  0  0  0  0
   11.2870  -12.4116  -12.3948 N   0  0  0  0  0  0  0  0  0  0  0  0
   12.0998  -14.0068  -13.9468 N   0  0  0  0  0  0  0  0  0  0  0  0
   12.9121  -14.1612  -15.1793 C   0  0  0  0  0  0  0  0  0  0  0  0
   12.9937  -15.5852  -15.5711 C   0  0  0  0  0  0  0  0  0  0  0  0
   13.5873  -16.5914  -14.7130 C   0  0  0  0  0  0  0  0  0  0  0  0
   13.7142  -18.0185  -15.0746 C   0  0  2  0  0  0  0  0  0  0  0  0
   14.6502  -18.5652  -14.0073 N   0  0  0  0  0  0  0  0  0  0  0  0
   14.5332  -18.1801  -16.3137 C   0  0  0  0  0  0  0  0  0  0  0  0
   14.0825  -18.2884  -17.5974 O   0  0  0  0  0  0  0  0  0  0  0  0
   15.8045  -18.2280  -16.1716 O   0  0  0  0  0  0  0  0  0  0  0  0
  2  1  1  0
  3  2  2  0
  4  3  1  0
  5 11  1  0
  5  4  2  0
  6  5  1  0
  7  6  1  0
  7  8  1  1
  9  7  1  0
  9 13  1  0
 10  9  2  0
 11 12  2  0
 12  2  1  0
 14 15  1  6
 14 13  1  0
 16 17  1  0
 16 15  1  0
 17 21  1  0
 18 17  2  0
 19 14  1  0
 20 19  2  0
 23 24  2  0
 23 22  1  0
 25 23  1  0
 26 25  1  0
 26 27  1  0
 27 28  1  0
 29 28  1  1
 29 30  1  0
 30 19  1  0
 31 32  1  0
 31 29  1  0
 33 31  2  0
M  END
$$$$
