YER.pdb
     RDKit          3D

 33 33  0  0  1  0  0  0  0  0999 V2000
   29.1932  -21.8386  -22.1157 O   0  0  0  0  0  0  0  0  0  0  0  0
   28.4981  -22.0430  -20.9220 C   0  0  0  0  0  0  0  0  0  0  0  0
   29.1535  -22.5113  -19.8261 C   0  0  0  0  0  0  0  0  0  0  0  0
   28.4939  -22.7216  -18.6389 C   0  0  0  0  0  0  0  0  0  0  0  0
   27.1371  -22.4527  -18.5534 C   0  0  0  0  0  0  0  0  0  0  0  0
   26.3742  -22.6587  -17.2980 C   0  0  0  0  0  0  0  0  0  0  0  0
   25.8307  -21.3329  -16.7904 C   0  0  2  0  0  0  0  0  0  0  0  0
   26.9377  -20.4471  -16.4891 N   0  0  0  0  0  0  0  0  0  0  0  0
   24.9959  -21.5595  -15.5591 C   0  0  0  0  0  0  0  0  0  0  0  0
   24.1534  -22.4766  -15.5514 O   0  0  0  0  0  0  0  0  0  0  0  0
   26.5026  -21.9836  -19.6670 C   0  0  0  0  0  0  0  0  0  0  0  0
   27.1492  -21.7666  -20.8670 C   0  0  0  0  0  0  0  0  0  0  0  0
   25.1516  -20.7540  -14.4216 N   0  0  0  0  0  0  0  0  0  0  0  0
   24.2826  -20.8356  -13.2336 C   0  0  1  0  0  0  0  0  0  0  0  0
   24.9244  -20.0541  -12.1431 C   0  0  0  0  0  0  0  0  0  0  0  0
   26.0812  -20.7920  -11.5630 C   0  0  0  0  0  0  0  0  0  0  0  0
   25.5834  -21.7705  -10.5568 C   0  0  0  0  0  0  0  0  0  0  0  0
   25.4174  -22.9663  -10.8955 O   0  0  0  0  0  0  0  0  0  0  0  0
   22.9549  -20.3527  -13.6647 C   0  0  0  0  0  0  0  0  0  0  0  0
   22.7897  -19.2388  -14.2664 O   0  0  0  0  0  0  0  0  0  0  0  0
   25.3068  -21.3536   -9.2520 O   0  0  0  0  0  0  0  0  0  0  0  0
   15.7359  -24.2878  -15.7663 N   0  0  0  0  0  0  0  0  0  0  0  0
   15.6691  -23.1339  -16.5903 C   0  0  0  0  0  0  0  0  0  0  0  0
   14.8354  -23.0892  -17.5707 N   0  0  0  0  0  0  0  0  0  0  0  0
   16.5418  -22.0410  -16.3044 N   0  0  0  0  0  0  0  0  0  0  0  0
   17.8509  -22.3970  -15.7026 C   0  0  0  0  0  0  0  0  0  0  0  0
   18.6984  -21.1935  -15.5564 C   0  0  0  0  0  0  0  0  0  0  0  0
   20.0257  -21.2472  -14.9765 C   0  0  0  0  0  0  0  0  0  0  0  0
   20.4254  -20.5209  -13.7533 C   0  0  2  0  0  0  0  0  0  0  0  0
   21.7866  -21.1157  -13.4255 N   0  0  0  0  0  0  0  0  0  0  0  0
   19.6073  -20.9628  -12.5838 C   0  0  0  0  0  0  0  0  0  0  0  0
   19.8004  -22.0683  -11.8069 O   0  0  0  0  0  0  0  0  0  0  0  0
   18.6049  -20.2341  -12.2632 O   0  0  0  0  0  0  0  0  0  0  0  0
  2  1  1  0
  3  2  2  0
  4  3  1  0
  5 11  1  0
  5  4  2  0
  6  5  1  0
  7  6  1  0
  7  8  1  1
  9  7  1  0
  9 13  1  0
 10  9  2  0
 11 12  2  0
 12  2  1  0
 14 15  1  1
 14 13  1  0
 16 17  1  0
 16 15  1  0
 17 21  1  0
 18 17  2  0
 19 14  1  0
 20 19  2  0
 23 24  2  0
 23 22  1  0
 25 23  1  0
 26 25  1  0
 26 27  1  0
 27 28  1  0
 29 28  1  6
 29 30  1  0
 30 19  1  0
 31 32  1  0
 31 29  1  0
 33 31  2  0
M  END
$$$$
