YER.pdb
     RDKit          3D

 33 33  0  0  1  0  0  0  0  0999 V2000
   14.3172  -22.3436  -10.0359 O   0  0  0  0  0  0  0  0  0  0  0  0
   14.2316  -22.1908   -8.6505 C   0  0  0  0  0  0  0  0  0  0  0  0
   13.6024  -21.1057   -8.1247 C   0  0  0  0  0  0  0  0  0  0  0  0
   13.5037  -20.9303   -6.7652 C   0  0  0  0  0  0  0  0  0  0  0  0
   14.0540  -21.8738   -5.9123 C   0  0  0  0  0  0  0  0  0  0  0  0
   13.9762  -21.7379   -4.4371 C   0  0  0  0  0  0  0  0  0  0  0  0
   13.1283  -22.8550   -3.8509 C   0  0  2  0  0  0  0  0  0  0  0  0
   11.7595  -22.7025   -4.3024 N   0  0  0  0  0  0  0  0  0  0  0  0
   13.1885  -22.8088   -2.3481 C   0  0  0  0  0  0  0  0  0  0  0  0
   12.3662  -22.1123   -1.7240 O   0  0  0  0  0  0  0  0  0  0  0  0
   14.6800  -22.9535   -6.4648 C   0  0  0  0  0  0  0  0  0  0  0  0
   14.7881  -23.1455   -7.8273 C   0  0  0  0  0  0  0  0  0  0  0  0
   14.1560  -23.5369   -1.6405 N   0  0  0  0  0  0  0  0  0  0  0  0
   14.2391  -23.5766   -0.1691 C   0  0  1  0  0  0  0  0  0  0  0  0
   14.9150  -24.8438    0.2166 C   0  0  0  0  0  0  0  0  0  0  0  0
   14.9671  -24.9952    1.6977 C   0  0  0  0  0  0  0  0  0  0  0  0
   15.6592  -26.2697    2.0359 C   0  0  0  0  0  0  0  0  0  0  0  0
   14.9815  -27.2494    2.4274 O   0  0  0  0  0  0  0  0  0  0  0  0
   14.9343  -22.3374    0.2344 C   0  0  0  0  0  0  0  0  0  0  0  0
   15.9233  -21.8598   -0.4165 O   0  0  0  0  0  0  0  0  0  0  0  0
   17.0482  -26.3654    1.9160 O   0  0  0  0  0  0  0  0  0  0  0  0
   10.1085  -16.1488    2.8126 N   0  0  0  0  0  0  0  0  0  0  0  0
   10.1736  -16.4789    1.4336 C   0  0  0  0  0  0  0  0  0  0  0  0
    9.3165  -15.9823    0.6107 N   0  0  0  0  0  0  0  0  0  0  0  0
   11.2020  -17.3654    0.9929 N   0  0  0  0  0  0  0  0  0  0  0  0
   12.0949  -17.8996    2.0512 C   0  0  0  0  0  0  0  0  0  0  0  0
   13.1801  -18.7082    1.4541 C   0  0  0  0  0  0  0  0  0  0  0  0
   14.1091  -19.4738    2.2615 C   0  0  0  0  0  0  0  0  0  0  0  0
   15.2088  -20.2912    1.7084 C   0  0  2  0  0  0  0  0  0  0  0  0
   14.5286  -21.6119    1.3805 N   0  0  0  0  0  0  0  0  0  0  0  0
   16.1618  -20.6956    2.7857 C   0  0  0  0  0  0  0  0  0  0  0  0
   17.1377  -19.9328    3.3588 O   0  0  0  0  0  0  0  0  0  0  0  0
   16.0675  -21.8924    3.2301 O   0  0  0  0  0  0  0  0  0  0  0  0
  2  1  1  0
  3  2  2  0
  4  3  1  0
  5 11  1  0
  5  4  2  0
  6  5  1  0
  7  6  1  0
  7  8  1  1
  9  7  1  0
  9 13  1  0
 10  9  2  0
 11 12  2  0
 12  2  1  0
 14 15  1  6
 14 13  1  0
 16 17  1  0
 16 15  1  0
 17 21  1  0
 18 17  2  0
 19 14  1  0
 20 19  2  0
 23 24  2  0
 23 22  1  0
 25 23  1  0
 26 25  1  0
 26 27  1  0
 27 28  1  0
 29 28  1  1
 29 30  1  0
 30 19  1  0
 31 32  1  0
 31 29  1  0
 33 31  2  0
M  END
$$$$
