YER.pdb
     RDKit          3D

 33 33  0  0  1  0  0  0  0  0999 V2000
   27.8469  -27.7919  -18.1132 O   0  0  0  0  0  0  0  0  0  0  0  0
   26.9654  -26.8707  -17.5437 C   0  0  0  0  0  0  0  0  0  0  0  0
   26.3392  -25.9545  -18.3300 C   0  0  0  0  0  0  0  0  0  0  0  0
   25.4671  -25.0365  -17.7959 C   0  0  0  0  0  0  0  0  0  0  0  0
   25.2190  -25.0416  -16.4325 C   0  0  0  0  0  0  0  0  0  0  0  0
   24.2862  -24.0762  -15.8012 C   0  0  0  0  0  0  0  0  0  0  0  0
   24.9496  -22.7150  -15.6688 C   0  0  2  0  0  0  0  0  0  0  0  0
   26.0640  -22.8147  -14.7475 N   0  0  0  0  0  0  0  0  0  0  0  0
   23.9515  -21.7052  -15.1706 C   0  0  0  0  0  0  0  0  0  0  0  0
   23.7226  -21.6224  -13.9493 O   0  0  0  0  0  0  0  0  0  0  0  0
   25.8597  -25.9710  -15.6653 C   0  0  0  0  0  0  0  0  0  0  0  0
   26.7383  -26.9000  -16.1848 C   0  0  0  0  0  0  0  0  0  0  0  0
   23.2753  -20.8573  -16.0599 N   0  0  0  0  0  0  0  0  0  0  0  0
   22.2544  -19.8785  -15.6439 C   0  0  1  0  0  0  0  0  0  0  0  0
   22.2709  -18.7575  -16.6210 C   0  0  0  0  0  0  0  0  0  0  0  0
   21.1152  -17.8422  -16.4075 C   0  0  0  0  0  0  0  0  0  0  0  0
   21.1532  -16.7586  -17.4283 C   0  0  0  0  0  0  0  0  0  0  0  0
   21.5055  -17.0332  -18.6000 O   0  0  0  0  0  0  0  0  0  0  0  0
   20.9835  -20.6261  -15.5562 C   0  0  0  0  0  0  0  0  0  0  0  0
   20.8635  -21.8300  -15.9638 O   0  0  0  0  0  0  0  0  0  0  0  0
   20.7989  -15.4532  -17.0774 O   0  0  0  0  0  0  0  0  0  0  0  0
   18.6113  -25.0656   -9.7068 N   0  0  0  0  0  0  0  0  0  0  0  0
   17.9146  -25.5701  -10.8360 C   0  0  0  0  0  0  0  0  0  0  0  0
   17.5402  -26.8019  -10.8651 N   0  0  0  0  0  0  0  0  0  0  0  0
   17.6463  -24.6843  -11.9228 N   0  0  0  0  0  0  0  0  0  0  0  0
   18.1796  -23.3063  -11.7829 C   0  0  0  0  0  0  0  0  0  0  0  0
   17.8524  -22.5002  -12.9792 C   0  0  0  0  0  0  0  0  0  0  0  0
   18.8418  -21.6888  -13.6602 C   0  0  0  0  0  0  0  0  0  0  0  0
   18.5579  -20.8632  -14.8523 C   0  0  2  0  0  0  0  0  0  0  0  0
   19.8219  -20.0311  -15.0073 N   0  0  0  0  0  0  0  0  0  0  0  0
   17.5376  -19.8171  -14.5414 C   0  0  0  0  0  0  0  0  0  0  0  0
   17.7289  -18.4677  -14.4683 O   0  0  0  0  0  0  0  0  0  0  0  0
   16.3432  -20.2161  -14.3110 O   0  0  0  0  0  0  0  0  0  0  0  0
  2  1  1  0
  3  2  2  0
  4  3  1  0
  5 11  1  0
  5  4  2  0
  6  5  1  0
  7  6  1  0
  7  8  1  1
  9  7  1  0
  9 13  1  0
 10  9  2  0
 11 12  2  0
 12  2  1  0
 14 15  1  6
 14 13  1  0
 16 17  1  0
 16 15  1  0
 17 21  1  0
 18 17  2  0
 19 14  1  0
 20 19  2  0
 23 24  2  0
 23 22  1  0
 25 23  1  0
 26 25  1  0
 26 27  1  0
 27 28  1  0
 29 28  1  1
 29 30  1  0
 30 19  1  0
 31 32  1  0
 31 29  1  0
 33 31  2  0
M  END
$$$$
