YER.pdb
     RDKit          3D

 33 33  0  0  1  0  0  0  0  0999 V2000
   32.4819  -22.3286  -11.3228 O   0  0  0  0  0  0  0  0  0  0  0  0
   31.1435  -21.9409  -11.4138 C   0  0  0  0  0  0  0  0  0  0  0  0
   30.5319  -21.3566  -10.3488 C   0  0  0  0  0  0  0  0  0  0  0  0
   29.2159  -20.9654  -10.4110 C   0  0  0  0  0  0  0  0  0  0  0  0
   28.4965  -21.1684  -11.5779 C   0  0  0  0  0  0  0  0  0  0  0  0
   27.0746  -20.7647  -11.7031 C   0  0  0  0  0  0  0  0  0  0  0  0
   26.8242  -20.1400  -13.0661 C   0  0  2  0  0  0  0  0  0  0  0  0
   27.6059  -18.9254  -13.1854 N   0  0  0  0  0  0  0  0  0  0  0  0
   25.3598  -19.8342  -13.2279 C   0  0  0  0  0  0  0  0  0  0  0  0
   24.8836  -18.8183  -12.6874 O   0  0  0  0  0  0  0  0  0  0  0  0
   29.1331  -21.7565  -12.6323 C   0  0  0  0  0  0  0  0  0  0  0  0
   30.4537  -22.1554  -12.5873 C   0  0  0  0  0  0  0  0  0  0  0  0
   24.5238  -20.6752  -13.9767 N   0  0  0  0  0  0  0  0  0  0  0  0
   23.0766  -20.4526  -14.1474 C   0  0  1  0  0  0  0  0  0  0  0  0
   22.7879  -20.4198  -15.6059 C   0  0  0  0  0  0  0  0  0  0  0  0
   21.3210  -20.3781  -15.8620 C   0  0  0  0  0  0  0  0  0  0  0  0
   21.0528  -19.4975  -17.0326 C   0  0  0  0  0  0  0  0  0  0  0  0
   21.9053  -19.4204  -17.9490 O   0  0  0  0  0  0  0  0  0  0  0  0
   22.4055  -21.5293  -13.3910 C   0  0  0  0  0  0  0  0  0  0  0  0
   22.9088  -22.6953  -13.2603 O   0  0  0  0  0  0  0  0  0  0  0  0
   19.8628  -18.7684  -17.1023 O   0  0  0  0  0  0  0  0  0  0  0  0
   19.0328  -25.2995   -7.9085 N   0  0  0  0  0  0  0  0  0  0  0  0
   17.6806  -24.9147   -8.1046 C   0  0  0  0  0  0  0  0  0  0  0  0
   16.7296  -25.7388   -7.8308 N   0  0  0  0  0  0  0  0  0  0  0  0
   17.4105  -23.6065   -8.6080 N   0  0  0  0  0  0  0  0  0  0  0  0
   18.5769  -22.8680   -9.1530 C   0  0  0  0  0  0  0  0  0  0  0  0
   18.3451  -22.5048  -10.5680 C   0  0  0  0  0  0  0  0  0  0  0  0
   19.3360  -21.8029  -11.3594 C   0  0  0  0  0  0  0  0  0  0  0  0
   20.4787  -22.4590  -12.0280 C   0  0  2  0  0  0  0  0  0  0  0  0
   21.1532  -21.3131  -12.7670 N   0  0  0  0  0  0  0  0  0  0  0  0
   20.0098  -23.3187  -13.1564 C   0  0  0  0  0  0  0  0  0  0  0  0
   19.8030  -24.6677  -13.1408 O   0  0  0  0  0  0  0  0  0  0  0  0
   19.7742  -22.7394  -14.2734 O   0  0  0  0  0  0  0  0  0  0  0  0
  2  1  1  0
  3  2  2  0
  4  3  1  0
  5 11  1  0
  5  4  2  0
  6  5  1  0
  7  6  1  0
  7  8  1  1
  9  7  1  0
  9 13  1  0
 10  9  2  0
 11 12  2  0
 12  2  1  0
 14 15  1  6
 14 13  1  0
 16 17  1  0
 16 15  1  0
 17 21  1  0
 18 17  2  0
 19 14  1  0
 20 19  2  0
 23 24  2  0
 23 22  1  0
 25 23  1  0
 26 25  1  0
 26 27  1  0
 27 28  1  0
 29 28  1  6
 29 30  1  0
 30 19  1  0
 31 32  1  0
 31 29  1  0
 33 31  2  0
M  END
$$$$
