YER.pdb
     RDKit          3D

 33 33  0  0  1  0  0  0  0  0999 V2000
   20.1973  -21.0880  -24.7303 O   0  0  0  0  0  0  0  0  0  0  0  0
   20.3308  -21.2654  -23.3516 C   0  0  0  0  0  0  0  0  0  0  0  0
   19.8885  -22.4118  -22.7685 C   0  0  0  0  0  0  0  0  0  0  0  0
   20.0072  -22.6125  -21.4142 C   0  0  0  0  0  0  0  0  0  0  0  0
   20.5874  -21.6315  -20.6258 C   0  0  0  0  0  0  0  0  0  0  0  0
   20.7437  -21.7941  -19.1595 C   0  0  0  0  0  0  0  0  0  0  0  0
   22.2026  -22.0410  -18.8113 C   0  0  2  0  0  0  0  0  0  0  0  0
   22.5855  -23.3622  -19.2680 N   0  0  0  0  0  0  0  0  0  0  0  0
   22.4003  -21.9273  -17.3239 C   0  0  0  0  0  0  0  0  0  0  0  0
   22.2366  -22.9318  -16.6064 O   0  0  0  0  0  0  0  0  0  0  0  0
   21.0232  -20.4905  -21.2349 C   0  0  0  0  0  0  0  0  0  0  0  0
   20.9120  -20.2724  -22.5933 C   0  0  0  0  0  0  0  0  0  0  0  0
   22.7649  -20.7082  -16.7341 N   0  0  0  0  0  0  0  0  0  0  0  0
   23.0294  -20.5407  -15.2935 C   0  0  1  0  0  0  0  0  0  0  0  0
   23.9373  -19.3746  -15.1279 C   0  0  0  0  0  0  0  0  0  0  0  0
   24.9501  -19.3235  -16.2191 C   0  0  0  0  0  0  0  0  0  0  0  0
   25.7297  -18.0598  -16.1053 C   0  0  0  0  0  0  0  0  0  0  0  0
   25.4836  -17.2713  -15.1619 O   0  0  0  0  0  0  0  0  0  0  0  0
   21.7073  -20.4133  -14.6474 C   0  0  0  0  0  0  0  0  0  0  0  0
   20.7617  -19.7155  -15.1463 O   0  0  0  0  0  0  0  0  0  0  0  0
   26.7225  -17.7627  -17.0427 O   0  0  0  0  0  0  0  0  0  0  0  0
   18.4910  -24.8752   -7.6973 N   0  0  0  0  0  0  0  0  0  0  0  0
   17.3173  -24.3299   -8.2804 C   0  0  0  0  0  0  0  0  0  0  0  0
   16.1573  -24.6983   -7.8593 N   0  0  0  0  0  0  0  0  0  0  0  0
   17.4591  -23.3759   -9.3326 N   0  0  0  0  0  0  0  0  0  0  0  0
   18.8104  -23.2744   -9.9379 C   0  0  0  0  0  0  0  0  0  0  0  0
   18.8728  -22.1339  -10.8779 C   0  0  0  0  0  0  0  0  0  0  0  0
   20.0175  -21.8993  -11.7355 C   0  0  0  0  0  0  0  0  0  0  0  0
   20.1033  -20.8016  -12.7209 C   0  0  2  0  0  0  0  0  0  0  0  0
   21.4247  -21.0699  -13.4253 N   0  0  0  0  0  0  0  0  0  0  0  0
   20.3764  -19.4996  -12.0409 C   0  0  0  0  0  0  0  0  0  0  0  0
   19.4689  -18.5466  -11.6789 O   0  0  0  0  0  0  0  0  0  0  0  0
   21.5966  -19.2304  -11.7625 O   0  0  0  0  0  0  0  0  0  0  0  0
  2  1  1  0
  3  2  2  0
  4  3  1  0
  5 11  1  0
  5  4  2  0
  6  5  1  0
  7  6  1  0
  7  8  1  1
  9  7  1  0
  9 13  1  0
 10  9  2  0
 11 12  2  0
 12  2  1  0
 14 15  1  6
 14 13  1  0
 16 17  1  0
 16 15  1  0
 17 21  1  0
 18 17  2  0
 19 14  1  0
 20 19  2  0
 23 24  2  0
 23 22  1  0
 25 23  1  0
 26 25  1  0
 26 27  1  0
 27 28  1  0
 29 28  1  1
 29 30  1  0
 30 19  1  0
 31 32  1  0
 31 29  1  0
 33 31  2  0
M  END
$$$$
