YER.pdb
     RDKit          3D

 33 33  0  0  1  0  0  0  0  0999 V2000
   24.4019  -14.0047  -20.6751 O   0  0  0  0  0  0  0  0  0  0  0  0
   23.9774  -15.1615  -20.0181 C   0  0  0  0  0  0  0  0  0  0  0  0
   23.6618  -15.1145  -18.6960 C   0  0  0  0  0  0  0  0  0  0  0  0
   23.2415  -16.2377  -18.0249 C   0  0  0  0  0  0  0  0  0  0  0  0
   23.1361  -17.4410  -18.7042 C   0  0  0  0  0  0  0  0  0  0  0  0
   22.6861  -18.6845  -18.0321 C   0  0  0  0  0  0  0  0  0  0  0  0
   23.8858  -19.4900  -17.5602 C   0  0  2  0  0  0  0  0  0  0  0  0
   24.4820  -20.1673  -18.6944 N   0  0  0  0  0  0  0  0  0  0  0  0
   23.4541  -20.4920  -16.5240 C   0  0  0  0  0  0  0  0  0  0  0  0
   23.1711  -21.6526  -16.8757 O   0  0  0  0  0  0  0  0  0  0  0  0
   23.4585  -17.4618  -20.0303 C   0  0  0  0  0  0  0  0  0  0  0  0
   23.8822  -16.3437  -20.7198 C   0  0  0  0  0  0  0  0  0  0  0  0
   23.3651  -20.1389  -15.1695 N   0  0  0  0  0  0  0  0  0  0  0  0
   23.0628  -21.0966  -14.0903 C   0  0  1  0  0  0  0  0  0  0  0  0
   23.8491  -20.6987  -12.8924 C   0  0  0  0  0  0  0  0  0  0  0  0
   23.5674  -21.6012  -11.7413 C   0  0  0  0  0  0  0  0  0  0  0  0
   24.4426  -21.2237  -10.5971 C   0  0  0  0  0  0  0  0  0  0  0  0
   25.0889  -20.1504  -10.6485 O   0  0  0  0  0  0  0  0  0  0  0  0
   21.5954  -21.0739  -13.9233 C   0  0  0  0  0  0  0  0  0  0  0  0
   20.9055  -20.0061  -14.0411 O   0  0  0  0  0  0  0  0  0  0  0  0
   24.5377  -22.0610   -9.4823 O   0  0  0  0  0  0  0  0  0  0  0  0
   16.5417  -25.3415   -9.6229 N   0  0  0  0  0  0  0  0  0  0  0  0
   15.5149  -25.4287  -10.5992 C   0  0  0  0  0  0  0  0  0  0  0  0
   14.2806  -25.4714  -10.2345 N   0  0  0  0  0  0  0  0  0  0  0  0
   15.8862  -25.4681  -11.9769 N   0  0  0  0  0  0  0  0  0  0  0  0
   17.3375  -25.3427  -12.2611 C   0  0  0  0  0  0  0  0  0  0  0  0
   17.6856  -23.9386  -12.5698 C   0  0  0  0  0  0  0  0  0  0  0  0
   19.0124  -23.5472  -13.0028 C   0  0  0  0  0  0  0  0  0  0  0  0
   19.3626  -22.1929  -13.4788 C   0  0  2  0  0  0  0  0  0  0  0  0
   20.8760  -22.2549  -13.6196 N   0  0  0  0  0  0  0  0  0  0  0  0
   19.1967  -21.1879  -12.3857 C   0  0  0  0  0  0  0  0  0  0  0  0
   18.1521  -20.3293  -12.2001 O   0  0  0  0  0  0  0  0  0  0  0  0
   20.1346  -21.1080  -11.5182 O   0  0  0  0  0  0  0  0  0  0  0  0
  2  1  1  0
  3  2  2  0
  4  3  1  0
  5 11  1  0
  5  4  2  0
  6  5  1  0
  7  6  1  0
  7  8  1  6
  9  7  1  0
  9 13  1  0
 10  9  2  0
 11 12  2  0
 12  2  1  0
 14 15  1  1
 14 13  1  0
 16 17  1  0
 16 15  1  0
 17 21  1  0
 18 17  2  0
 19 14  1  0
 20 19  2  0
 23 24  2  0
 23 22  1  0
 25 23  1  0
 26 25  1  0
 26 27  1  0
 27 28  1  0
 29 28  1  1
 29 30  1  0
 30 19  1  0
 31 32  1  0
 31 29  1  0
 33 31  2  0
M  END
$$$$
