YER.pdb
     RDKit          3D

 33 33  0  0  1  0  0  0  0  0999 V2000
   29.8206  -27.1627  -17.5099 O   0  0  0  0  0  0  0  0  0  0  0  0
   29.2229  -26.0228  -16.9685 C   0  0  0  0  0  0  0  0  0  0  0  0
   27.9098  -26.0475  -16.6148 C   0  0  0  0  0  0  0  0  0  0  0  0
   27.2964  -24.9401  -16.0799 C   0  0  0  0  0  0  0  0  0  0  0  0
   28.0258  -23.7761  -15.8962 C   0  0  0  0  0  0  0  0  0  0  0  0
   27.4171  -22.5514  -15.3216 C   0  0  0  0  0  0  0  0  0  0  0  0
   26.7955  -21.7077  -16.4227 C   0  0  2  0  0  0  0  0  0  0  0  0
   27.8469  -21.0371  -17.1614 N   0  0  0  0  0  0  0  0  0  0  0  0
   25.8546  -20.6975  -15.8243 C   0  0  0  0  0  0  0  0  0  0  0  0
   26.3031  -19.6091  -15.4179 O   0  0  0  0  0  0  0  0  0  0  0  0
   29.3415  -23.7771  -16.2590 C   0  0  0  0  0  0  0  0  0  0  0  0
   29.9734  -24.8798  -16.7974 C   0  0  0  0  0  0  0  0  0  0  0  0
   24.4816  -20.9629  -15.7167 N   0  0  0  0  0  0  0  0  0  0  0  0
   23.5052  -20.0162  -15.1478 C   0  0  1  0  0  0  0  0  0  0  0  0
   22.8352  -19.3171  -16.2765 C   0  0  0  0  0  0  0  0  0  0  0  0
   22.9516  -17.8386  -16.1372 C   0  0  0  0  0  0  0  0  0  0  0  0
   22.2548  -17.1825  -17.2781 C   0  0  0  0  0  0  0  0  0  0  0  0
   22.9042  -16.4269  -18.0395 O   0  0  0  0  0  0  0  0  0  0  0  0
   22.6179  -20.8168  -14.2798 C   0  0  0  0  0  0  0  0  0  0  0  0
   21.9753  -21.8350  -14.7044 O   0  0  0  0  0  0  0  0  0  0  0  0
   20.8929  -17.4110  -17.4917 O   0  0  0  0  0  0  0  0  0  0  0  0
   18.5839  -23.8451   -8.8369 N   0  0  0  0  0  0  0  0  0  0  0  0
   17.9181  -23.0693   -9.8216 C   0  0  0  0  0  0  0  0  0  0  0  0
   16.8070  -23.4822  -10.3250 N   0  0  0  0  0  0  0  0  0  0  0  0
   18.5088  -21.8363  -10.2319 N   0  0  0  0  0  0  0  0  0  0  0  0
   19.6779  -21.3818   -9.4386 C   0  0  0  0  0  0  0  0  0  0  0  0
   20.2473  -20.1451  -10.0167 C   0  0  0  0  0  0  0  0  0  0  0  0
   20.6951  -20.0688  -11.3932 C   0  0  0  0  0  0  0  0  0  0  0  0
   21.3461  -21.1815  -12.1154 C   0  0  2  0  0  0  0  0  0  0  0  0
   22.4367  -20.4851  -12.9154 N   0  0  0  0  0  0  0  0  0  0  0  0
   20.4571  -21.7030  -13.1971 C   0  0  0  0  0  0  0  0  0  0  0  0
   19.8992  -20.9980  -14.2239 O   0  0  0  0  0  0  0  0  0  0  0  0
   20.1737  -22.9510  -13.1695 O   0  0  0  0  0  0  0  0  0  0  0  0
  2  1  1  0
  3  2  2  0
  4  3  1  0
  5 11  1  0
  5  4  2  0
  6  5  1  0
  7  6  1  0
  7  8  1  1
  9  7  1  0
  9 13  1  0
 10  9  2  0
 11 12  2  0
 12  2  1  0
 14 15  1  6
 14 13  1  0
 16 17  1  0
 16 15  1  0
 17 21  1  0
 18 17  2  0
 19 14  1  0
 20 19  2  0
 23 24  2  0
 23 22  1  0
 25 23  1  0
 26 25  1  0
 26 27  1  0
 27 28  1  0
 29 28  1  1
 29 30  1  0
 30 19  1  0
 31 32  1  0
 31 29  1  0
 33 31  2  0
M  END
$$$$
