YER.pdb
     RDKit          3D

 33 33  0  0  1  0  0  0  0  0999 V2000
   26.0583   -9.0006  -25.3456 O   0  0  0  0  0  0  0  0  0  0  0  0
   25.2995   -9.1268  -24.1801 C   0  0  0  0  0  0  0  0  0  0  0  0
   24.9977  -10.3617  -23.6967 C   0  0  0  0  0  0  0  0  0  0  0  0
   24.2528  -10.5149  -22.5521 C   0  0  0  0  0  0  0  0  0  0  0  0
   23.7995   -9.3933  -21.8760 C   0  0  0  0  0  0  0  0  0  0  0  0
   22.9936   -9.4978  -20.6349 C   0  0  0  0  0  0  0  0  0  0  0  0
   23.8893   -9.3630  -19.4143 C   0  0  2  0  0  0  0  0  0  0  0  0
   24.7496  -10.5259  -19.3227 N   0  0  0  0  0  0  0  0  0  0  0  0
   23.0480   -9.2393  -18.1729 C   0  0  0  0  0  0  0  0  0  0  0  0
   22.6463  -10.2699  -17.6008 O   0  0  0  0  0  0  0  0  0  0  0  0
   24.1158   -8.1656  -22.3814 C   0  0  0  0  0  0  0  0  0  0  0  0
   24.8628   -7.9934  -23.5292 C   0  0  0  0  0  0  0  0  0  0  0  0
   22.7090   -7.9822  -17.6514 N   0  0  0  0  0  0  0  0  0  0  0  0
   21.8299   -7.7885  -16.4840 C   0  0  1  0  0  0  0  0  0  0  0  0
   22.2085   -6.5053  -15.8345 C   0  0  0  0  0  0  0  0  0  0  0  0
   21.2764   -6.1714  -14.7215 C   0  0  0  0  0  0  0  0  0  0  0  0
   21.7325   -4.9177  -14.0598 C   0  0  0  0  0  0  0  0  0  0  0  0
   22.3262   -4.0473  -14.7399 O   0  0  0  0  0  0  0  0  0  0  0  0
   20.4469   -7.8564  -16.9982 C   0  0  0  0  0  0  0  0  0  0  0  0
   20.0597   -7.1979  -18.0212 O   0  0  0  0  0  0  0  0  0  0  0  0
   21.4983   -4.7203  -12.6964 O   0  0  0  0  0  0  0  0  0  0  0  0
   14.0416  -11.4929  -13.8656 N   0  0  0  0  0  0  0  0  0  0  0  0
   13.1605  -11.0867  -14.9017 C   0  0  0  0  0  0  0  0  0  0  0  0
   11.8917  -11.0378  -14.6867 N   0  0  0  0  0  0  0  0  0  0  0  0
   13.7147  -10.7402  -16.1707 N   0  0  0  0  0  0  0  0  0  0  0  0
   15.1763  -10.9508  -16.3191 C   0  0  0  0  0  0  0  0  0  0  0  0
   15.9203   -9.7521  -15.8745 C   0  0  0  0  0  0  0  0  0  0  0  0
   17.3569   -9.6327  -16.0249 C   0  0  0  0  0  0  0  0  0  0  0  0
   18.0220   -8.5798  -16.8201 C   0  0  2  0  0  0  0  0  0  0  0  0
   19.4722   -8.6680  -16.3691 N   0  0  0  0  0  0  0  0  0  0  0  0
   17.6311   -7.2222  -16.3336 C   0  0  0  0  0  0  0  0  0  0  0  0
   18.0932   -6.5736  -15.2253 O   0  0  0  0  0  0  0  0  0  0  0  0
   16.7616   -6.5829  -17.0221 O   0  0  0  0  0  0  0  0  0  0  0  0
  2  1  1  0
  3  2  2  0
  4  3  1  0
  5 11  1  0
  5  4  2  0
  6  5  1  0
  7  6  1  0
  7  8  1  1
  9  7  1  0
  9 13  1  0
 10  9  2  0
 11 12  2  0
 12  2  1  0
 14 15  1  6
 14 13  1  0
 16 17  1  0
 16 15  1  0
 17 21  1  0
 18 17  2  0
 19 14  1  0
 20 19  2  0
 23 24  2  0
 23 22  1  0
 25 23  1  0
 26 25  1  0
 26 27  1  0
 27 28  1  0
 29 28  1  1
 29 30  1  0
 30 19  1  0
 31 32  1  0
 31 29  1  0
 33 31  2  0
M  END
$$$$
