GWT.pdb
     RDKit          3D

 26 27  0  0  1  0  0  0  0  0999 V2000
    9.0266  -16.6810   17.9591 N   0  0  0  0  0  0  0  0  0  0  0  0
    7.9741  -16.6533   18.9703 C   0  0  0  0  0  0  0  0  0  0  0  0
    8.5822  -16.2846   20.2802 C   0  0  0  0  0  0  0  0  0  0  0  0
    9.8119  -16.3051   20.4631 O   0  0  0  0  0  0  0  0  0  0  0  0
    7.7190  -15.8961   21.3554 N   0  0  0  0  0  0  0  0  0  0  0  0
    8.1908  -15.5418   22.6564 C   0  0  1  0  0  0  0  0  0  0  0  0
    7.0798  -15.0248   23.5457 C   0  0  0  0  0  0  0  0  0  0  0  0
    7.5157  -14.6657   24.8974 C   0  0  0  0  0  0  0  0  0  0  0  0
    8.3208  -15.3731   25.7829 C   0  0  0  0  0  0  0  0  0  0  0  0
    8.4605  -14.6628   26.9180 N   0  0  0  0  0  0  0  0  0  0  0  0
    7.7763  -13.5210   26.8026 C   0  0  0  0  0  0  0  0  0  0  0  0
    7.6133  -12.4823   27.6762 C   0  0  0  0  0  0  0  0  0  0  0  0
    6.8455  -11.3775   27.3363 C   0  0  0  0  0  0  0  0  0  0  0  0
    6.2443  -11.3412   26.0954 C   0  0  0  0  0  0  0  0  0  0  0  0
    6.4244  -12.3900   25.2465 C   0  0  0  0  0  0  0  0  0  0  0  0
    7.1817  -13.5048   25.5521 C   0  0  0  0  0  0  0  0  0  0  0  0
    8.8965  -16.6099   23.3661 C   0  0  0  0  0  0  0  0  0  0  0  0
    8.2556  -17.6683   23.6157 O   0  0  0  0  0  0  0  0  0  0  0  0
   11.8073  -18.5263   22.1225 C   0  0  0  0  0  0  0  0  0  0  0  0
   12.1858  -18.0350   23.5023 C   0  0  1  0  0  0  0  0  0  0  0  0
   12.9928  -16.8894   23.4039 O   0  0  0  0  0  0  0  0  0  0  0  0
   10.9263  -17.7481   24.3022 C   0  0  2  0  0  0  0  0  0  0  0  0
   10.2488  -16.5676   23.8053 N   0  0  0  0  0  0  0  0  0  0  0  0
   11.3461  -17.4922   25.6925 C   0  0  0  0  0  0  0  0  0  0  0  0
   11.2082  -16.3764   26.2413 O   0  0  0  0  0  0  0  0  0  0  0  0
   11.9121  -18.5165   26.4184 O   0  0  0  0  0  0  0  0  0  0  0  0
  2  1  1  0
  3  2  1  0
  4  3  2  0
  5  3  1  0
  6  5  1  0
  7  8  1  0
  6  7  1  1
  8  9  2  0
  9 10  1  0
 11 10  1  0
 12 11  2  0
 13 12  1  0
 14 15  1  0
 14 13  2  0
 15 16  2  0
 16  8  1  0
 16 11  1  0
 17  6  1  0
 17 23  1  0
 18 17  2  0
 20 19  1  6
 20 21  1  0
 22 20  1  0
 22 23  1  6
 22 24  1  0
 24 25  2  0
 24 26  1  0
M  END
$$$$
