GWT.pdb
     RDKit          3D

 26 27  0  0  1  0  0  0  0  0999 V2000
    6.2055  -15.5842   19.9858 N   0  0  0  0  0  0  0  0  0  0  0  0
    6.4178  -16.3538   21.2080 C   0  0  0  0  0  0  0  0  0  0  0  0
    7.6575  -15.8600   21.8720 C   0  0  0  0  0  0  0  0  0  0  0  0
    8.4326  -15.0665   21.3103 O   0  0  0  0  0  0  0  0  0  0  0  0
    7.9585  -16.3169   23.1959 N   0  0  0  0  0  0  0  0  0  0  0  0
    9.1265  -15.9244   23.9186 C   0  0  1  0  0  0  0  0  0  0  0  0
    8.8710  -15.8278   25.4080 C   0  0  0  0  0  0  0  0  0  0  0  0
    7.6886  -15.0380   25.7604 C   0  0  0  0  0  0  0  0  0  0  0  0
    6.3811  -15.4556   25.9811 C   0  0  0  0  0  0  0  0  0  0  0  0
    5.6197  -14.3864   26.2805 N   0  0  0  0  0  0  0  0  0  0  0  0
    6.3838  -13.2906   26.2625 C   0  0  0  0  0  0  0  0  0  0  0  0
    6.0757  -11.9799   26.4989 C   0  0  0  0  0  0  0  0  0  0  0  0
    7.0485  -10.9932   26.4236 C   0  0  0  0  0  0  0  0  0  0  0  0
    8.3405  -11.3555   26.1046 C   0  0  0  0  0  0  0  0  0  0  0  0
    8.6176  -12.6682   25.8744 C   0  0  0  0  0  0  0  0  0  0  0  0
    7.6743  -13.6760   25.9408 C   0  0  0  0  0  0  0  0  0  0  0  0
   10.2983  -16.7742   23.7013 C   0  0  0  0  0  0  0  0  0  0  0  0
   10.2188  -17.9819   24.0599 O   0  0  0  0  0  0  0  0  0  0  0  0
   12.6372  -16.7715   20.4722 C   0  0  0  0  0  0  0  0  0  0  0  0
   13.4812  -16.8580   21.7246 C   0  0  1  0  0  0  0  0  0  0  0  0
   14.0881  -15.6183   21.9861 O   0  0  0  0  0  0  0  0  0  0  0  0
   12.6140  -17.2980   22.8919 C   0  0  2  0  0  0  0  0  0  0  0  0
   11.5296  -16.3641   23.1189 N   0  0  0  0  0  0  0  0  0  0  0  0
   13.4747  -17.3104   24.0892 C   0  0  0  0  0  0  0  0  0  0  0  0
   13.3408  -16.4868   25.0215 O   0  0  0  0  0  0  0  0  0  0  0  0
   14.4649  -18.2621   24.1900 O   0  0  0  0  0  0  0  0  0  0  0  0
  2  1  1  0
  3  2  1  0
  4  3  2  0
  5  3  1  0
  6  5  1  0
  7  8  1  0
  6  7  1  1
  8  9  2  0
  9 10  1  0
 11 10  1  0
 12 11  2  0
 13 12  1  0
 14 15  1  0
 14 13  2  0
 15 16  2  0
 16  8  1  0
 16 11  1  0
 17  6  1  0
 17 23  1  0
 18 17  2  0
 20 19  1  6
 20 21  1  0
 22 20  1  0
 22 23  1  1
 22 24  1  0
 24 25  2  0
 24 26  1  0
M  END
$$$$
