GWT.pdb
     RDKit          3D

 26 27  0  0  1  0  0  0  0  0999 V2000
    4.3738  -19.7874   22.7383 N   0  0  0  0  0  0  0  0  0  0  0  0
    5.7477  -19.4328   23.0816 C   0  0  0  0  0  0  0  0  0  0  0  0
    5.9341  -17.9722   22.8508 C   0  0  0  0  0  0  0  0  0  0  0  0
    5.0710  -17.2812   22.2817 O   0  0  0  0  0  0  0  0  0  0  0  0
    7.1450  -17.3528   23.3002 N   0  0  0  0  0  0  0  0  0  0  0  0
    7.5226  -16.0186   22.9565 C   0  0  1  0  0  0  0  0  0  0  0  0
    8.3093  -15.3451   24.0611 C   0  0  0  0  0  0  0  0  0  0  0  0
    7.4977  -14.9462   25.2137 C   0  0  0  0  0  0  0  0  0  0  0  0
    6.7555  -15.7338   26.0863 C   0  0  0  0  0  0  0  0  0  0  0  0
    6.1650  -14.9434   27.0023 N   0  0  0  0  0  0  0  0  0  0  0  0
    6.4959  -13.6724   26.7570 C   0  0  0  0  0  0  0  0  0  0  0  0
    6.1516  -12.5169   27.4011 C   0  0  0  0  0  0  0  0  0  0  0  0
    6.6227  -11.2876   26.9626 C   0  0  0  0  0  0  0  0  0  0  0  0
    7.4497  -11.2469   25.8594 C   0  0  0  0  0  0  0  0  0  0  0  0
    7.7754  -12.4137   25.2383 C   0  0  0  0  0  0  0  0  0  0  0  0
    7.3247  -13.6542   25.6478 C   0  0  0  0  0  0  0  0  0  0  0  0
    8.2751  -15.8954   21.7070 C   0  0  0  0  0  0  0  0  0  0  0  0
    9.0793  -16.8235   21.4154 O   0  0  0  0  0  0  0  0  0  0  0  0
    6.8048  -13.8088   18.4984 C   0  0  0  0  0  0  0  0  0  0  0  0
    8.3148  -13.7620   18.5765 C   0  0  1  0  0  0  0  0  0  0  0  0
    8.7366  -12.5084   19.0499 O   0  0  0  0  0  0  0  0  0  0  0  0
    8.8116  -14.8805   19.4768 C   0  0  2  0  0  0  0  0  0  0  0  0
    8.1850  -14.8187   20.7818 N   0  0  0  0  0  0  0  0  0  0  0  0
   10.2630  -14.6848   19.6486 C   0  0  0  0  0  0  0  0  0  0  0  0
   10.7716  -14.3553   20.7432 O   0  0  0  0  0  0  0  0  0  0  0  0
   11.0946  -14.8700   18.5666 O   0  0  0  0  0  0  0  0  0  0  0  0
  2  1  1  0
  3  2  1  0
  4  3  2  0
  5  3  1  0
  6  5  1  0
  7  8  1  0
  6  7  1  1
  8  9  2  0
  9 10  1  0
 11 10  1  0
 12 11  2  0
 13 12  1  0
 14 15  1  0
 14 13  2  0
 15 16  2  0
 16  8  1  0
 16 11  1  0
 17  6  1  0
 17 23  1  0
 18 17  2  0
 20 19  1  1
 20 21  1  0
 22 20  1  0
 22 23  1  1
 22 24  1  0
 24 25  2  0
 24 26  1  0
M  END
$$$$
