GWT.pdb
     RDKit          3D

 26 27  0  0  1  0  0  0  0  0999 V2000
    8.3869  -12.8202   17.8335 N   0  0  0  0  0  0  0  0  0  0  0  0
    7.6774  -13.8846   18.5368 C   0  0  0  0  0  0  0  0  0  0  0  0
    8.1227  -13.8944   19.9592 C   0  0  0  0  0  0  0  0  0  0  0  0
    9.1325  -13.2744   20.3360 O   0  0  0  0  0  0  0  0  0  0  0  0
    7.3606  -14.6418   20.9145 N   0  0  0  0  0  0  0  0  0  0  0  0
    7.7415  -14.7915   22.2831 C   0  0  1  0  0  0  0  0  0  0  0  0
    6.5446  -14.9739   23.1924 C   0  0  0  0  0  0  0  0  0  0  0  0
    6.8614  -14.8882   24.6201 C   0  0  0  0  0  0  0  0  0  0  0  0
    7.1571  -15.9041   25.5219 C   0  0  0  0  0  0  0  0  0  0  0  0
    7.3839  -15.3666   26.7351 N   0  0  0  0  0  0  0  0  0  0  0  0
    7.2465  -14.0401   26.6549 C   0  0  0  0  0  0  0  0  0  0  0  0
    7.3757  -13.0671   27.6063 C   0  0  0  0  0  0  0  0  0  0  0  0
    7.1847  -11.7295   27.2900 C   0  0  0  0  0  0  0  0  0  0  0  0
    6.8603  -11.3924   25.9925 C   0  0  0  0  0  0  0  0  0  0  0  0
    6.7383  -12.3828   25.0665 C   0  0  0  0  0  0  0  0  0  0  0  0
    6.9215  -13.7236   25.3466 C   0  0  0  0  0  0  0  0  0  0  0  0
    8.6920  -15.8741   22.5416 C   0  0  0  0  0  0  0  0  0  0  0  0
    8.3807  -17.0318   22.1466 O   0  0  0  0  0  0  0  0  0  0  0  0
   13.2137  -17.6152   23.2022 C   0  0  0  0  0  0  0  0  0  0  0  0
   12.2686  -16.4668   22.9265 C   0  0  1  0  0  0  0  0  0  0  0  0
   12.3222  -16.1107   21.5686 O   0  0  0  0  0  0  0  0  0  0  0  0
   10.8584  -16.8612   23.3317 C   0  0  2  0  0  0  0  0  0  0  0  0
    9.9451  -15.7438   23.2022 N   0  0  0  0  0  0  0  0  0  0  0  0
   10.9111  -17.2558   24.7516 C   0  0  0  0  0  0  0  0  0  0  0  0
   10.3612  -16.5880   25.6554 O   0  0  0  0  0  0  0  0  0  0  0  0
   11.5903  -18.4016   25.1016 O   0  0  0  0  0  0  0  0  0  0  0  0
  2  1  1  0
  3  2  1  0
  4  3  2  0
  5  3  1  0
  6  5  1  0
  7  8  1  0
  6  7  1  1
  8  9  2  0
  9 10  1  0
 11 10  1  0
 12 11  2  0
 13 12  1  0
 14 15  1  0
 14 13  2  0
 15 16  2  0
 16  8  1  0
 16 11  1  0
 17  6  1  0
 17 23  1  0
 18 17  2  0
 20 19  1  6
 20 21  1  0
 22 20  1  0
 22 23  1  1
 22 24  1  0
 24 25  2  0
 24 26  1  0
M  END
$$$$
