GWT.pdb
     RDKit          3D

 26 27  0  0  1  0  0  0  0  0999 V2000
    5.6351  -16.2552   20.4055 N   0  0  0  0  0  0  0  0  0  0  0  0
    6.0995  -16.9976   21.5736 C   0  0  0  0  0  0  0  0  0  0  0  0
    7.3169  -16.3264   22.1110 C   0  0  0  0  0  0  0  0  0  0  0  0
    7.8973  -15.4205   21.4877 O   0  0  0  0  0  0  0  0  0  0  0  0
    7.8276  -16.7418   23.3833 N   0  0  0  0  0  0  0  0  0  0  0  0
    9.0156  -16.2063   23.9687 C   0  0  1  0  0  0  0  0  0  0  0  0
    8.8566  -15.9526   25.4529 C   0  0  0  0  0  0  0  0  0  0  0  0
    7.6710  -15.1651   25.7999 C   0  0  0  0  0  0  0  0  0  0  0  0
    6.3632  -15.5852   26.0142 C   0  0  0  0  0  0  0  0  0  0  0  0
    5.5984  -14.5176   26.3103 N   0  0  0  0  0  0  0  0  0  0  0  0
    6.3605  -13.4203   26.2962 C   0  0  0  0  0  0  0  0  0  0  0  0
    6.0488  -12.1103   26.5314 C   0  0  0  0  0  0  0  0  0  0  0  0
    7.0201  -11.1217   26.4611 C   0  0  0  0  0  0  0  0  0  0  0  0
    8.3143  -11.4815   26.1482 C   0  0  0  0  0  0  0  0  0  0  0  0
    8.5950  -12.7937   25.9190 C   0  0  0  0  0  0  0  0  0  0  0  0
    7.6532  -13.8031   25.9806 C   0  0  0  0  0  0  0  0  0  0  0  0
   10.2202  -17.0113   23.7603 C   0  0  0  0  0  0  0  0  0  0  0  0
   10.1795  -18.2244   24.1067 O   0  0  0  0  0  0  0  0  0  0  0  0
   12.3295  -17.1329   20.4814 C   0  0  0  0  0  0  0  0  0  0  0  0
   13.2780  -17.0574   21.6574 C   0  0  1  0  0  0  0  0  0  0  0  0
   13.8120  -15.7626   21.7665 O   0  0  0  0  0  0  0  0  0  0  0  0
   12.5445  -17.4538   22.9276 C   0  0  2  0  0  0  0  0  0  0  0  0
   11.4438  -16.5515   23.1991 N   0  0  0  0  0  0  0  0  0  0  0  0
   13.5126  -17.3522   24.0353 C   0  0  0  0  0  0  0  0  0  0  0  0
   13.4081  -16.4970   24.9425 O   0  0  0  0  0  0  0  0  0  0  0  0
   14.5736  -18.2290   24.0776 O   0  0  0  0  0  0  0  0  0  0  0  0
  2  1  1  0
  3  2  1  0
  4  3  2  0
  5  3  1  0
  6  5  1  0
  7  8  1  0
  6  7  1  1
  8  9  2  0
  9 10  1  0
 11 10  1  0
 12 11  2  0
 13 12  1  0
 14 15  1  0
 14 13  2  0
 15 16  2  0
 16  8  1  0
 16 11  1  0
 17  6  1  0
 17 23  1  0
 18 17  2  0
 20 19  1  6
 20 21  1  0
 22 20  1  0
 22 23  1  1
 22 24  1  0
 24 25  2  0
 24 26  1  0
M  END
$$$$
