GWT.pdb
     RDKit          3D

 26 27  0  0  1  0  0  0  0  0999 V2000
    6.0962  -16.1185   19.7749 N   0  0  0  0  0  0  0  0  0  0  0  0
    6.1621  -16.6639   21.1274 C   0  0  0  0  0  0  0  0  0  0  0  0
    7.4235  -16.1957   21.7685 C   0  0  0  0  0  0  0  0  0  0  0  0
    8.2118  -15.4302   21.1864 O   0  0  0  0  0  0  0  0  0  0  0  0
    7.7304  -16.6443   23.0938 N   0  0  0  0  0  0  0  0  0  0  0  0
    8.9088  -16.2588   23.8034 C   0  0  1  0  0  0  0  0  0  0  0  0
    8.6578  -16.1099   25.2891 C   0  0  0  0  0  0  0  0  0  0  0  0
    7.5534  -15.2060   25.6200 C   0  0  0  0  0  0  0  0  0  0  0  0
    6.2100  -15.4937   25.8327 C   0  0  0  0  0  0  0  0  0  0  0  0
    5.5519  -14.3528   26.1113 N   0  0  0  0  0  0  0  0  0  0  0  0
    6.4176  -13.3353   26.0874 C   0  0  0  0  0  0  0  0  0  0  0  0
    6.2343  -11.9982   26.3045 C   0  0  0  0  0  0  0  0  0  0  0  0
    7.2978  -11.1101   26.2268 C   0  0  0  0  0  0  0  0  0  0  0  0
    8.5519  -11.5986   25.9252 C   0  0  0  0  0  0  0  0  0  0  0  0
    8.7040  -12.9347   25.7140 C   0  0  0  0  0  0  0  0  0  0  0  0
    7.6680  -13.8466   25.7834 C   0  0  0  0  0  0  0  0  0  0  0  0
   10.0588  -17.1438   23.6117 C   0  0  0  0  0  0  0  0  0  0  0  0
    9.9187  -18.3593   23.9215 O   0  0  0  0  0  0  0  0  0  0  0  0
   12.2619  -17.5695   20.4025 C   0  0  0  0  0  0  0  0  0  0  0  0
   13.1604  -17.4005   21.6077 C   0  0  1  0  0  0  0  0  0  0  0  0
   13.6675  -16.0912   21.6539 O   0  0  0  0  0  0  0  0  0  0  0  0
   12.3827  -17.7292   22.8708 C   0  0  2  0  0  0  0  0  0  0  0  0
   11.3313  -16.7600   23.1047 N   0  0  0  0  0  0  0  0  0  0  0  0
   13.3350  -17.6618   23.9947 C   0  0  0  0  0  0  0  0  0  0  0  0
   13.2828  -16.7662   24.8668 O   0  0  0  0  0  0  0  0  0  0  0  0
   14.3213  -18.6179   24.0926 O   0  0  0  0  0  0  0  0  0  0  0  0
  2  1  1  0
  3  2  1  0
  4  3  2  0
  5  3  1  0
  6  5  1  0
  7  8  1  0
  6  7  1  1
  8  9  2  0
  9 10  1  0
 11 10  1  0
 12 11  2  0
 13 12  1  0
 14 15  1  0
 14 13  2  0
 15 16  2  0
 16  8  1  0
 16 11  1  0
 17  6  1  0
 17 23  1  0
 18 17  2  0
 20 19  1  6
 20 21  1  0
 22 20  1  0
 22 23  1  1
 22 24  1  0
 24 25  2  0
 24 26  1  0
M  END
$$$$
