GWT.pdb
     RDKit          3D

 26 27  0  0  1  0  0  0  0  0999 V2000
    6.1110  -16.2191   19.6566 N   0  0  0  0  0  0  0  0  0  0  0  0
    6.2398  -16.7520   21.0096 C   0  0  0  0  0  0  0  0  0  0  0  0
    7.4784  -16.1958   21.6243 C   0  0  0  0  0  0  0  0  0  0  0  0
    8.2837  -15.5079   20.9729 O   0  0  0  0  0  0  0  0  0  0  0  0
    7.7425  -16.4652   23.0062 N   0  0  0  0  0  0  0  0  0  0  0  0
    8.9000  -15.9892   23.6949 C   0  0  1  0  0  0  0  0  0  0  0  0
    8.6785  -15.8999   25.1901 C   0  0  0  0  0  0  0  0  0  0  0  0
    7.5413  -15.0607   25.5757 C   0  0  0  0  0  0  0  0  0  0  0  0
    6.2096  -15.4110   25.7666 C   0  0  0  0  0  0  0  0  0  0  0  0
    5.5096  -14.3155   26.1162 N   0  0  0  0  0  0  0  0  0  0  0  0
    6.3368  -13.2672   26.1595 C   0  0  0  0  0  0  0  0  0  0  0  0
    6.1041  -11.9545   26.4614 C   0  0  0  0  0  0  0  0  0  0  0  0
    7.1338  -11.0244   26.4431 C   0  0  0  0  0  0  0  0  0  0  0  0
    8.4052  -11.4457   26.1137 C   0  0  0  0  0  0  0  0  0  0  0  0
    8.6068  -12.7590   25.8176 C   0  0  0  0  0  0  0  0  0  0  0  0
    7.6054  -13.7112   25.8261 C   0  0  0  0  0  0  0  0  0  0  0  0
   10.1207  -16.7588   23.4501 C   0  0  0  0  0  0  0  0  0  0  0  0
   10.0228  -18.0169   23.4234 O   0  0  0  0  0  0  0  0  0  0  0  0
   14.6323  -17.1872   21.5299 C   0  0  0  0  0  0  0  0  0  0  0  0
   13.3972  -16.3567   21.8005 C   0  0  1  0  0  0  0  0  0  0  0  0
   12.6808  -16.1520   20.6096 O   0  0  0  0  0  0  0  0  0  0  0  0
   12.5367  -17.0513   22.8424 C   0  0  2  0  0  0  0  0  0  0  0  0
   11.4191  -16.2180   23.2374 N   0  0  0  0  0  0  0  0  0  0  0  0
   13.3880  -17.2778   24.0249 C   0  0  0  0  0  0  0  0  0  0  0  0
   14.3389  -18.0909   24.0225 O   0  0  0  0  0  0  0  0  0  0  0  0
   13.1310  -16.5704   25.1782 O   0  0  0  0  0  0  0  0  0  0  0  0
  2  1  1  0
  3  2  1  0
  4  3  2  0
  5  3  1  0
  6  5  1  0
  7  8  1  0
  6  7  1  1
  8  9  2  0
  9 10  1  0
 11 10  1  0
 12 11  2  0
 13 12  1  0
 14 15  1  0
 14 13  2  0
 15 16  2  0
 16  8  1  0
 16 11  1  0
 17  6  1  0
 17 23  1  0
 18 17  2  0
 20 19  1  6
 20 21  1  0
 22 20  1  0
 22 23  1  1
 22 24  1  0
 24 25  2  0
 24 26  1  0
M  END
$$$$
