GWT.pdb
     RDKit          3D

 26 27  0  0  1  0  0  0  0  0999 V2000
    5.9952  -15.4785   20.0283 N   0  0  0  0  0  0  0  0  0  0  0  0
    6.2055  -16.2742   21.2340 C   0  0  0  0  0  0  0  0  0  0  0  0
    7.4326  -15.7811   21.9215 C   0  0  0  0  0  0  0  0  0  0  0  0
    8.1335  -14.8720   21.4436 O   0  0  0  0  0  0  0  0  0  0  0  0
    7.8095  -16.3761   23.1689 N   0  0  0  0  0  0  0  0  0  0  0  0
    8.9816  -16.0057   23.8967 C   0  0  1  0  0  0  0  0  0  0  0  0
    8.7142  -15.8735   25.3811 C   0  0  0  0  0  0  0  0  0  0  0  0
    7.5836  -15.0013   25.7084 C   0  0  0  0  0  0  0  0  0  0  0  0
    6.2350  -15.3139   25.8362 C   0  0  0  0  0  0  0  0  0  0  0  0
    5.5497  -14.1977   26.1476 N   0  0  0  0  0  0  0  0  0  0  0  0
    6.4027  -13.1724   26.2267 C   0  0  0  0  0  0  0  0  0  0  0  0
    6.1923  -11.8522   26.5121 C   0  0  0  0  0  0  0  0  0  0  0  0
    7.2472  -10.9510   26.5399 C   0  0  0  0  0  0  0  0  0  0  0  0
    8.5207  -11.4088   26.2737 C   0  0  0  0  0  0  0  0  0  0  0  0
    8.6997  -12.7287   25.9926 C   0  0  0  0  0  0  0  0  0  0  0  0
    7.6730  -13.6529   25.9565 C   0  0  0  0  0  0  0  0  0  0  0  0
   10.1290  -16.8946   23.7074 C   0  0  0  0  0  0  0  0  0  0  0  0
   10.0116  -18.0905   24.0936 O   0  0  0  0  0  0  0  0  0  0  0  0
   12.2111  -17.4034   20.4500 C   0  0  0  0  0  0  0  0  0  0  0  0
   13.1661  -17.2460   21.6125 C   0  0  1  0  0  0  0  0  0  0  0  0
   13.7325  -15.9604   21.6034 O   0  0  0  0  0  0  0  0  0  0  0  0
   12.4284  -17.5080   22.9147 C   0  0  2  0  0  0  0  0  0  0  0  0
   11.3755  -16.5348   23.1241 N   0  0  0  0  0  0  0  0  0  0  0  0
   13.4123  -17.3696   24.0043 C   0  0  0  0  0  0  0  0  0  0  0  0
   13.3731  -16.4302   24.8297 O   0  0  0  0  0  0  0  0  0  0  0  0
   14.4144  -18.3069   24.1222 O   0  0  0  0  0  0  0  0  0  0  0  0
  2  1  1  0
  3  2  1  0
  4  3  2  0
  5  3  1  0
  6  5  1  0
  7  8  1  0
  6  7  1  1
  8  9  2  0
  9 10  1  0
 11 10  1  0
 12 11  2  0
 13 12  1  0
 14 15  1  0
 14 13  2  0
 15 16  2  0
 16  8  1  0
 16 11  1  0
 17  6  1  0
 17 23  1  0
 18 17  2  0
 20 19  1  6
 20 21  1  0
 22 20  1  0
 22 23  1  1
 22 24  1  0
 24 25  2  0
 24 26  1  0
M  END
$$$$
