GWT.pdb
     RDKit          3D

 26 27  0  0  1  0  0  0  0  0999 V2000
    4.5825  -20.0094   23.8759 N   0  0  0  0  0  0  0  0  0  0  0  0
    6.0041  -19.7261   24.0484 C   0  0  0  0  0  0  0  0  0  0  0  0
    6.2948  -18.3819   23.4737 C   0  0  0  0  0  0  0  0  0  0  0  0
    5.6197  -17.9041   22.5453 O   0  0  0  0  0  0  0  0  0  0  0  0
    7.3849  -17.6239   24.0114 N   0  0  0  0  0  0  0  0  0  0  0  0
    7.8386  -16.3902   23.4521 C   0  0  1  0  0  0  0  0  0  0  0  0
    8.4488  -15.4797   24.4968 C   0  0  0  0  0  0  0  0  0  0  0  0
    7.4701  -14.8632   25.3958 C   0  0  0  0  0  0  0  0  0  0  0  0
    6.4501  -15.4559   26.1313 C   0  0  0  0  0  0  0  0  0  0  0  0
    5.7925  -14.5054   26.8216 N   0  0  0  0  0  0  0  0  0  0  0  0
    6.3473  -13.3180   26.5619 C   0  0  0  0  0  0  0  0  0  0  0  0
    6.0390  -12.0666   27.0174 C   0  0  0  0  0  0  0  0  0  0  0  0
    6.7655  -10.9582   26.6059 C   0  0  0  0  0  0  0  0  0  0  0  0
    7.8110  -11.1376   25.7244 C   0  0  0  0  0  0  0  0  0  0  0  0
    8.0947  -12.3954   25.2879 C   0  0  0  0  0  0  0  0  0  0  0  0
    7.3927  -13.5204   25.6767 C   0  0  0  0  0  0  0  0  0  0  0  0
    8.7858  -16.5289   22.3448 C   0  0  0  0  0  0  0  0  0  0  0  0
    9.5933  -17.4982   22.3845 O   0  0  0  0  0  0  0  0  0  0  0  0
    7.8562  -15.3839   18.5507 C   0  0  0  0  0  0  0  0  0  0  0  0
    9.3215  -15.1705   18.8599 C   0  0  1  0  0  0  0  0  0  0  0  0
    9.5772  -13.8061   19.0756 O   0  0  0  0  0  0  0  0  0  0  0  0
    9.7097  -15.9970   20.0742 C   0  0  2  0  0  0  0  0  0  0  0  0
    8.8832  -15.6667   21.2176 N   0  0  0  0  0  0  0  0  0  0  0  0
   11.1079  -15.6586   20.3985 C   0  0  0  0  0  0  0  0  0  0  0  0
   11.4318  -15.0917   21.4657 O   0  0  0  0  0  0  0  0  0  0  0  0
   12.0983  -15.9760   19.4958 O   0  0  0  0  0  0  0  0  0  0  0  0
  2  1  1  0
  3  2  1  0
  4  3  2  0
  5  3  1  0
  6  5  1  0
  7  8  1  0
  6  7  1  1
  8  9  2  0
  9 10  1  0
 11 10  1  0
 12 11  2  0
 13 12  1  0
 14 15  1  0
 14 13  2  0
 15 16  2  0
 16  8  1  0
 16 11  1  0
 17  6  1  0
 17 23  1  0
 18 17  2  0
 20 19  1  1
 20 21  1  0
 22 20  1  0
 22 23  1  1
 22 24  1  0
 24 25  2  0
 24 26  1  0
M  END
$$$$
