GWT.pdb
     RDKit          3D

 26 27  0  0  1  0  0  0  0  0999 V2000
    4.9973  -19.3695   22.6059 N   0  0  0  0  0  0  0  0  0  0  0  0
    6.0339  -19.3399   23.6333 C   0  0  0  0  0  0  0  0  0  0  0  0
    6.9056  -18.1545   23.3957 C   0  0  0  0  0  0  0  0  0  0  0  0
    7.0006  -17.6223   22.2760 O   0  0  0  0  0  0  0  0  0  0  0  0
    7.6529  -17.6178   24.4937 N   0  0  0  0  0  0  0  0  0  0  0  0
    8.6255  -16.5810   24.3534 C   0  0  1  0  0  0  0  0  0  0  0  0
    8.8031  -15.7878   25.6308 C   0  0  0  0  0  0  0  0  0  0  0  0
    7.6157  -15.0294   26.0322 C   0  0  0  0  0  0  0  0  0  0  0  0
    6.3713  -15.4906   26.4462 C   0  0  0  0  0  0  0  0  0  0  0  0
    5.5768  -14.4379   26.7167 N   0  0  0  0  0  0  0  0  0  0  0  0
    6.2587  -13.3108   26.4938 C   0  0  0  0  0  0  0  0  0  0  0  0
    5.8906  -12.0008   26.6237 C   0  0  0  0  0  0  0  0  0  0  0  0
    6.7806  -10.9769   26.3316 C   0  0  0  0  0  0  0  0  0  0  0  0
    8.0515  -11.3014   25.9051 C   0  0  0  0  0  0  0  0  0  0  0  0
    8.3897  -12.6145   25.7851 C   0  0  0  0  0  0  0  0  0  0  0  0
    7.5294  -13.6586   26.0673 C   0  0  0  0  0  0  0  0  0  0  0  0
    9.9418  -17.0307   23.8976 C   0  0  0  0  0  0  0  0  0  0  0  0
   10.3869  -18.1118   24.3732 O   0  0  0  0  0  0  0  0  0  0  0  0
   13.8317  -16.8393   20.8108 C   0  0  0  0  0  0  0  0  0  0  0  0
   12.5007  -16.2531   21.2268 C   0  0  1  0  0  0  0  0  0  0  0  0
   11.5628  -16.3979   20.1909 O   0  0  0  0  0  0  0  0  0  0  0  0
   12.0204  -16.9347   22.4969 C   0  0  2  0  0  0  0  0  0  0  0  0
   10.7746  -16.3582   22.9606 N   0  0  0  0  0  0  0  0  0  0  0  0
   13.0504  -16.7049   23.5268 C   0  0  0  0  0  0  0  0  0  0  0  0
   12.8430  -15.9989   24.5387 O   0  0  0  0  0  0  0  0  0  0  0  0
   14.2892  -17.2868   23.3739 O   0  0  0  0  0  0  0  0  0  0  0  0
  2  1  1  0
  3  2  1  0
  4  3  2  0
  5  3  1  0
  6  5  1  0
  7  8  1  0
  6  7  1  1
  8  9  2  0
  9 10  1  0
 11 10  1  0
 12 11  2  0
 13 12  1  0
 14 15  1  0
 14 13  2  0
 15 16  2  0
 16  8  1  0
 16 11  1  0
 17  6  1  0
 17 23  1  0
 18 17  2  0
 20 19  1  6
 20 21  1  0
 22 20  1  0
 22 23  1  1
 22 24  1  0
 24 25  2  0
 24 26  1  0
M  END
$$$$
