GWT.pdb
     RDKit          3D

 26 27  0  0  1  0  0  0  0  0999 V2000
    5.4631  -18.8994   21.4276 N   0  0  0  0  0  0  0  0  0  0  0  0
    6.2943  -19.0659   22.6160 C   0  0  0  0  0  0  0  0  0  0  0  0
    7.2542  -17.9280   22.6886 C   0  0  0  0  0  0  0  0  0  0  0  0
    7.5911  -17.2867   21.6780 O   0  0  0  0  0  0  0  0  0  0  0  0
    7.8006  -17.5679   23.9629 N   0  0  0  0  0  0  0  0  0  0  0  0
    8.8384  -16.6007   24.1307 C   0  0  1  0  0  0  0  0  0  0  0  0
    8.8366  -15.9960   25.5189 C   0  0  0  0  0  0  0  0  0  0  0  0
    7.6297  -15.2274   25.8332 C   0  0  0  0  0  0  0  0  0  0  0  0
    6.3441  -15.6768   26.1128 C   0  0  0  0  0  0  0  0  0  0  0  0
    5.5457  -14.6178   26.3438 N   0  0  0  0  0  0  0  0  0  0  0  0
    6.2646  -13.4979   26.2248 C   0  0  0  0  0  0  0  0  0  0  0  0
    5.9082  -12.1857   26.3649 C   0  0  0  0  0  0  0  0  0  0  0  0
    6.8390  -11.1709   26.1930 C   0  0  0  0  0  0  0  0  0  0  0  0
    8.1387  -11.5068   25.8764 C   0  0  0  0  0  0  0  0  0  0  0  0
    8.4644  -12.8219   25.7433 C   0  0  0  0  0  0  0  0  0  0  0  0
    7.5637  -13.8570   25.9074 C   0  0  0  0  0  0  0  0  0  0  0  0
   10.1868  -17.0888   23.8371 C   0  0  0  0  0  0  0  0  0  0  0  0
   10.5013  -18.2322   24.2695 O   0  0  0  0  0  0  0  0  0  0  0  0
   14.5132  -16.8424   21.3948 C   0  0  0  0  0  0  0  0  0  0  0  0
   13.1801  -16.1943   21.6966 C   0  0  1  0  0  0  0  0  0  0  0  0
   12.4219  -16.0755   20.5199 O   0  0  0  0  0  0  0  0  0  0  0  0
   12.4417  -17.0144   22.7409 C   0  0  2  0  0  0  0  0  0  0  0  0
   11.1855  -16.3900   23.1038 N   0  0  0  0  0  0  0  0  0  0  0  0
   13.2999  -17.0620   23.9391 C   0  0  0  0  0  0  0  0  0  0  0  0
   13.0034  -16.4721   25.0019 O   0  0  0  0  0  0  0  0  0  0  0  0
   14.4733  -17.7813   23.8919 O   0  0  0  0  0  0  0  0  0  0  0  0
  2  1  1  0
  3  2  1  0
  4  3  2  0
  5  3  1  0
  6  5  1  0
  7  8  1  0
  6  7  1  1
  8  9  2  0
  9 10  1  0
 11 10  1  0
 12 11  2  0
 13 12  1  0
 14 15  1  0
 14 13  2  0
 15 16  2  0
 16  8  1  0
 16 11  1  0
 17  6  1  0
 17 23  1  0
 18 17  2  0
 20 19  1  6
 20 21  1  0
 22 20  1  0
 22 23  1  1
 22 24  1  0
 24 25  2  0
 24 26  1  0
M  END
$$$$
