GWT.pdb
     RDKit          3D

 26 27  0  0  1  0  0  0  0  0999 V2000
    5.7983  -17.7235   20.4626 N   0  0  0  0  0  0  0  0  0  0  0  0
    6.2814  -18.0679   21.7964 C   0  0  0  0  0  0  0  0  0  0  0  0
    7.3913  -17.1399   22.1549 C   0  0  0  0  0  0  0  0  0  0  0  0
    7.8520  -16.3208   21.3408 O   0  0  0  0  0  0  0  0  0  0  0  0
    7.9384  -17.1988   23.4775 N   0  0  0  0  0  0  0  0  0  0  0  0
    9.0739  -16.4393   23.8953 C   0  0  1  0  0  0  0  0  0  0  0  0
    8.9827  -16.0289   25.3499 C   0  0  0  0  0  0  0  0  0  0  0  0
    7.7683  -15.2805   25.6836 C   0  0  0  0  0  0  0  0  0  0  0  0
    6.4802  -15.7470   25.9202 C   0  0  0  0  0  0  0  0  0  0  0  0
    5.6745  -14.7031   26.1917 N   0  0  0  0  0  0  0  0  0  0  0  0
    6.3911  -13.5767   26.1403 C   0  0  0  0  0  0  0  0  0  0  0  0
    6.0279  -12.2742   26.3405 C   0  0  0  0  0  0  0  0  0  0  0  0
    6.9576  -11.2494   26.2343 C   0  0  0  0  0  0  0  0  0  0  0  0
    8.2633  -11.5653   25.9216 C   0  0  0  0  0  0  0  0  0  0  0  0
    8.5956  -12.8711   25.7277 C   0  0  0  0  0  0  0  0  0  0  0  0
    7.6963  -13.9157   25.8255 C   0  0  0  0  0  0  0  0  0  0  0  0
   10.3650  -17.0931   23.6759 C   0  0  0  0  0  0  0  0  0  0  0  0
   10.5044  -18.2710   24.1076 O   0  0  0  0  0  0  0  0  0  0  0  0
   12.1381  -17.2952   20.2894 C   0  0  0  0  0  0  0  0  0  0  0  0
   13.1966  -16.9735   21.3211 C   0  0  1  0  0  0  0  0  0  0  0  0
   13.5679  -15.6218   21.2287 O   0  0  0  0  0  0  0  0  0  0  0  0
   12.6698  -17.3009   22.7081 C   0  0  2  0  0  0  0  0  0  0  0  0
   11.4881  -16.5211   23.0162 N   0  0  0  0  0  0  0  0  0  0  0  0
   13.7284  -16.9395   23.6690 C   0  0  0  0  0  0  0  0  0  0  0  0
   13.6142  -15.9816   24.4656 O   0  0  0  0  0  0  0  0  0  0  0  0
   14.8887  -17.6809   23.6945 O   0  0  0  0  0  0  0  0  0  0  0  0
  2  1  1  0
  3  2  1  0
  4  3  2  0
  5  3  1  0
  6  5  1  0
  7  8  1  0
  6  7  1  1
  8  9  2  0
  9 10  1  0
 11 10  1  0
 12 11  2  0
 13 12  1  0
 14 15  1  0
 14 13  2  0
 15 16  2  0
 16  8  1  0
 16 11  1  0
 17  6  1  0
 17 23  1  0
 18 17  2  0
 20 19  1  6
 20 21  1  0
 22 20  1  0
 22 23  1  1
 22 24  1  0
 24 25  2  0
 24 26  1  0
M  END
$$$$
