GWT.pdb
     RDKit          3D

 26 27  0  0  1  0  0  0  0  0999 V2000
    5.9125  -15.2161   20.2124 N   0  0  0  0  0  0  0  0  0  0  0  0
    6.2248  -16.2038   21.2409 C   0  0  0  0  0  0  0  0  0  0  0  0
    7.4637  -15.7764   21.9507 C   0  0  0  0  0  0  0  0  0  0  0  0
    8.2323  -14.9224   21.4751 O   0  0  0  0  0  0  0  0  0  0  0  0
    7.7719  -16.3707   23.2172 N   0  0  0  0  0  0  0  0  0  0  0  0
    8.9332  -16.0407   23.9809 C   0  0  1  0  0  0  0  0  0  0  0  0
    8.6377  -15.9610   25.4638 C   0  0  0  0  0  0  0  0  0  0  0  0
    7.5077  -15.0919   25.8012 C   0  0  0  0  0  0  0  0  0  0  0  0
    6.1777  -15.4229   26.0346 C   0  0  0  0  0  0  0  0  0  0  0  0
    5.4849  -14.3022   26.3115 N   0  0  0  0  0  0  0  0  0  0  0  0
    6.3151  -13.2563   26.2666 C   0  0  0  0  0  0  0  0  0  0  0  0
    6.0894  -11.9242   26.4737 C   0  0  0  0  0  0  0  0  0  0  0  0
    7.1209  -11.0013   26.3735 C   0  0  0  0  0  0  0  0  0  0  0  0
    8.3868  -11.4499   26.0596 C   0  0  0  0  0  0  0  0  0  0  0  0
    8.5815  -12.7821   25.8587 C   0  0  0  0  0  0  0  0  0  0  0  0
    7.5781  -13.7279   25.9505 C   0  0  0  0  0  0  0  0  0  0  0  0
   10.0748  -16.9346   23.7809 C   0  0  0  0  0  0  0  0  0  0  0  0
    9.9712  -18.1187   24.2057 O   0  0  0  0  0  0  0  0  0  0  0  0
   12.5344  -17.1551   20.5447 C   0  0  0  0  0  0  0  0  0  0  0  0
   13.2998  -17.1572   21.8495 C   0  0  1  0  0  0  0  0  0  0  0  0
   13.8641  -15.8919   22.0821 O   0  0  0  0  0  0  0  0  0  0  0  0
   12.3700  -17.5567   22.9829 C   0  0  2  0  0  0  0  0  0  0  0  0
   11.3014  -16.5920   23.1472 N   0  0  0  0  0  0  0  0  0  0  0  0
   13.1758  -17.5723   24.2178 C   0  0  0  0  0  0  0  0  0  0  0  0
   12.9763  -16.7740   25.1603 O   0  0  0  0  0  0  0  0  0  0  0  0
   14.1874  -18.4982   24.3436 O   0  0  0  0  0  0  0  0  0  0  0  0
  2  1  1  0
  3  2  1  0
  4  3  2  0
  5  3  1  0
  6  5  1  0
  7  8  1  0
  6  7  1  1
  8  9  2  0
  9 10  1  0
 11 10  1  0
 12 11  2  0
 13 12  1  0
 14 15  1  0
 14 13  2  0
 15 16  2  0
 16  8  1  0
 16 11  1  0
 17  6  1  0
 17 23  1  0
 18 17  2  0
 20 19  1  6
 20 21  1  0
 22 20  1  0
 22 23  1  1
 22 24  1  0
 24 25  2  0
 24 26  1  0
M  END
$$$$
