YYI.pdb
     RDKit          3D

 33 34  0  0  1  0  0  0  0  0999 V2000
    8.6453  -13.0507   15.6376 O   0  0  0  0  0  0  0  0  0  0  0  0
    8.2787  -13.3769   16.9491 C   0  0  0  0  0  0  0  0  0  0  0  0
    7.0608  -12.9337   17.4625 C   0  0  0  0  0  0  0  0  0  0  0  0
    6.6817  -13.2510   18.7684 C   0  0  0  0  0  0  0  0  0  0  0  0
    7.5228  -14.0075   19.5472 C   0  0  0  0  0  0  0  0  0  0  0  0
    7.1649  -14.3703   20.9390 C   0  0  0  0  0  0  0  0  0  0  0  0
    6.9465  -15.8644   20.9719 C   0  0  2  0  0  0  0  0  0  0  0  0
    5.7499  -16.1691   20.2364 N   0  0  0  0  0  0  0  0  0  0  0  0
    6.8007  -16.3776   22.3663 C   0  0  0  0  0  0  0  0  0  0  0  0
    5.8150  -16.0484   23.0405 O   0  0  0  0  0  0  0  0  0  0  0  0
    8.7268  -14.4364   19.0162 C   0  0  0  0  0  0  0  0  0  0  0  0
    9.1091  -14.1291   17.7314 C   0  0  0  0  0  0  0  0  0  0  0  0
    8.6705  -20.0009   30.1103 O   0  0  0  0  0  0  0  0  0  0  0  0
    8.5890  -19.7429   28.7510 C   0  0  0  0  0  0  0  0  0  0  0  0
    9.7430  -19.6011   27.9995 C   0  0  0  0  0  0  0  0  0  0  0  0
    9.6726  -19.3455   26.6526 C   0  0  0  0  0  0  0  0  0  0  0  0
    8.4189  -19.2357   26.0787 C   0  0  0  0  0  0  0  0  0  0  0  0
    8.3811  -18.9568   24.6089 C   0  0  0  0  0  0  0  0  0  0  0  0
    7.8504  -17.5929   24.3117 C   0  0  2  0  0  0  0  0  0  0  0  0
    7.7819  -17.2444   22.9375 N   0  0  0  0  0  0  0  0  0  0  0  0
    8.6479  -16.6172   25.1362 C   0  0  0  0  0  0  0  0  0  0  0  0
    9.8592  -16.4644   24.8541 O   0  0  0  0  0  0  0  0  0  0  0  0
    7.2737  -19.3783   26.8348 C   0  0  0  0  0  0  0  0  0  0  0  0
    7.3447  -19.6357   28.1905 C   0  0  0  0  0  0  0  0  0  0  0  0
    6.5429  -12.0136   26.2459 C   0  0  0  0  0  0  0  0  0  0  0  0
    7.5830  -13.0569   26.0815 C   0  0  0  0  0  0  0  0  0  0  0  0
    8.1057  -13.7186   27.2887 C   0  0  2  0  0  0  0  0  0  0  0  0
    8.6342  -12.8019   28.3624 C   0  0  0  0  0  0  0  0  0  0  0  0
    8.8900  -14.9450   27.0299 C   0  0  2  0  0  0  0  0  0  0  0  0
    8.1050  -15.8829   26.1889 N   0  0  0  0  0  0  0  0  0  0  0  0
    9.3837  -15.7113   28.1617 C   0  0  0  0  0  0  0  0  0  0  0  0
   10.7506  -15.6456   28.5047 O   0  0  0  0  0  0  0  0  0  0  0  0
    8.7082  -16.4611   28.9073 O   0  0  0  0  0  0  0  0  0  0  0  0
  2  3  2  0
  2  1  1  0
  4  3  1  0
  5  4  2  0
  6  5  1  0
  7  6  1  0
  7  8  1  6
  9 10  2  0
  9  7  1  0
 11  5  1  0
 11 12  2  0
 12  2  1  0
 14 13  1  0
 15 14  2  0
 16 15  1  0
 17 23  1  0
 17 16  2  0
 18 17  1  0
 19 18  1  6
 19 20  1  0
 20  9  1  0
 21 30  1  0
 21 19  1  0
 22 21  2  0
 23 24  2  0
 24 14  1  0
 26 27  1  0
 26 25  1  0
 27 28  1  6
 27 29  1  0
 29 30  1  1
 29 31  1  0
 31 32  1  0
 33 31  2  0
M  END
$$$$
