YYI.pdb
     RDKit          3D

 33 34  0  0  1  0  0  0  0  0999 V2000
    9.0541  -12.4961   16.6904 O   0  0  0  0  0  0  0  0  0  0  0  0
    8.3378  -13.1491   17.7009 C   0  0  0  0  0  0  0  0  0  0  0  0
    7.3169  -14.0380   17.3680 C   0  0  0  0  0  0  0  0  0  0  0  0
    6.5939  -14.6966   18.3647 C   0  0  0  0  0  0  0  0  0  0  0  0
    6.8984  -14.4603   19.6829 C   0  0  0  0  0  0  0  0  0  0  0  0
    6.1597  -15.1350   20.7765 C   0  0  0  0  0  0  0  0  0  0  0  0
    6.8381  -16.4612   21.0255 C   0  0  2  0  0  0  0  0  0  0  0  0
    6.2381  -17.4502   20.1724 N   0  0  0  0  0  0  0  0  0  0  0  0
    6.7017  -16.9011   22.4457 C   0  0  0  0  0  0  0  0  0  0  0  0
    5.5754  -16.9957   22.9525 O   0  0  0  0  0  0  0  0  0  0  0  0
    7.9160  -13.5737   19.9896 C   0  0  0  0  0  0  0  0  0  0  0  0
    8.6336  -12.9203   19.0153 C   0  0  0  0  0  0  0  0  0  0  0  0
    5.4171  -23.0131   22.9810 O   0  0  0  0  0  0  0  0  0  0  0  0
    6.1482  -21.9558   23.4991 C   0  0  0  0  0  0  0  0  0  0  0  0
    5.8112  -21.4127   24.7271 C   0  0  0  0  0  0  0  0  0  0  0  0
    6.5293  -20.3654   25.2486 C   0  0  0  0  0  0  0  0  0  0  0  0
    7.5917  -19.8769   24.5099 C   0  0  0  0  0  0  0  0  0  0  0  0
    8.3512  -18.7355   25.1097 C   0  0  0  0  0  0  0  0  0  0  0  0
    7.8405  -17.4140   24.6374 C   0  0  2  0  0  0  0  0  0  0  0  0
    7.8520  -17.2155   23.2321 N   0  0  0  0  0  0  0  0  0  0  0  0
    8.5903  -16.3515   25.3967 C   0  0  0  0  0  0  0  0  0  0  0  0
    9.7447  -16.0577   25.0077 O   0  0  0  0  0  0  0  0  0  0  0  0
    7.9210  -20.4239   23.2869 C   0  0  0  0  0  0  0  0  0  0  0  0
    7.1982  -21.4781   22.7621 C   0  0  0  0  0  0  0  0  0  0  0  0
    6.0823  -11.9902   26.7616 C   0  0  0  0  0  0  0  0  0  0  0  0
    7.1406  -12.9899   26.4821 C   0  0  0  0  0  0  0  0  0  0  0  0
    7.9037  -13.5354   27.6171 C   0  0  2  0  0  0  0  0  0  0  0  0
    8.4424  -12.5210   28.5934 C   0  0  0  0  0  0  0  0  0  0  0  0
    8.8043  -14.6567   27.2736 C   0  0  2  0  0  0  0  0  0  0  0  0
    8.0637  -15.6860   26.5020 N   0  0  0  0  0  0  0  0  0  0  0  0
    9.4936  -15.3538   28.3463 C   0  0  0  0  0  0  0  0  0  0  0  0
   10.6618  -14.7928   28.9042 O   0  0  0  0  0  0  0  0  0  0  0  0
    9.1593  -16.4479   28.8617 O   0  0  0  0  0  0  0  0  0  0  0  0
  2  3  2  0
  2  1  1  0
  4  3  1  0
  5  4  2  0
  6  5  1  0
  7  6  1  0
  7  8  1  6
  9 10  2  0
  9  7  1  0
 11  5  1  0
 11 12  2  0
 12  2  1  0
 14 13  1  0
 15 14  2  0
 16 15  1  0
 17 23  1  0
 17 16  2  0
 18 17  1  0
 19 18  1  6
 19 20  1  0
 20  9  1  0
 21 30  1  0
 21 19  1  0
 22 21  2  0
 23 24  2  0
 24 14  1  0
 26 27  1  0
 26 25  1  0
 27 28  1  6
 27 29  1  0
 29 30  1  1
 29 31  1  0
 31 32  1  0
 33 31  2  0
M  END
$$$$
