YYI.pdb
     RDKit          3D

 33 34  0  0  1  0  0  0  0  0999 V2000
    7.5925  -12.3085   16.3212 O   0  0  0  0  0  0  0  0  0  0  0  0
    7.6383  -12.9966   17.5399 C   0  0  0  0  0  0  0  0  0  0  0  0
    8.4926  -12.5635   18.5527 C   0  0  0  0  0  0  0  0  0  0  0  0
    8.5491  -13.2395   19.7732 C   0  0  0  0  0  0  0  0  0  0  0  0
    7.7518  -14.3406   19.9688 C   0  0  0  0  0  0  0  0  0  0  0  0
    7.7760  -15.0913   21.2466 C   0  0  0  0  0  0  0  0  0  0  0  0
    8.8995  -16.0966   21.1560 C   0  0  2  0  0  0  0  0  0  0  0  0
    8.5729  -17.0585   20.1392 N   0  0  0  0  0  0  0  0  0  0  0  0
    9.1143  -16.8131   22.4481 C   0  0  0  0  0  0  0  0  0  0  0  0
    8.2115  -17.5226   22.9128 O   0  0  0  0  0  0  0  0  0  0  0  0
    6.9115  -14.7522   18.9491 C   0  0  0  0  0  0  0  0  0  0  0  0
    6.8487  -14.0932   17.7437 C   0  0  0  0  0  0  0  0  0  0  0  0
   11.3621  -22.5524   21.1447 O   0  0  0  0  0  0  0  0  0  0  0  0
   11.4650  -21.4552   21.9852 C   0  0  0  0  0  0  0  0  0  0  0  0
   11.0366  -21.5426   23.2988 C   0  0  0  0  0  0  0  0  0  0  0  0
   11.1344  -20.4614   24.1390 C   0  0  0  0  0  0  0  0  0  0  0  0
   11.6712  -19.2925   23.6306 C   0  0  0  0  0  0  0  0  0  0  0  0
   11.7622  -18.1353   24.5751 C   0  0  0  0  0  0  0  0  0  0  0  0
   10.5872  -17.2214   24.4549 C   0  0  2  0  0  0  0  0  0  0  0  0
   10.3472  -16.6934   23.1595 N   0  0  0  0  0  0  0  0  0  0  0  0
   10.7400  -16.1609   25.5131 C   0  0  0  0  0  0  0  0  0  0  0  0
   11.7269  -15.3926   25.4345 O   0  0  0  0  0  0  0  0  0  0  0  0
   12.0958  -19.2137   22.3203 C   0  0  0  0  0  0  0  0  0  0  0  0
   11.9973  -20.3021   21.4747 C   0  0  0  0  0  0  0  0  0  0  0  0
    7.4506  -12.5578   26.2268 C   0  0  0  0  0  0  0  0  0  0  0  0
    8.6241  -13.4559   26.3457 C   0  0  0  0  0  0  0  0  0  0  0  0
    8.9317  -14.0324   27.6653 C   0  0  2  0  0  0  0  0  0  0  0  0
    8.8948  -13.0709   28.8258 C   0  0  0  0  0  0  0  0  0  0  0  0
   10.0333  -15.0187   27.6664 C   0  0  2  0  0  0  0  0  0  0  0  0
    9.8420  -15.9962   26.5659 N   0  0  0  0  0  0  0  0  0  0  0  0
   10.2798  -15.7903   28.8729 C   0  0  0  0  0  0  0  0  0  0  0  0
   11.0191  -15.2159   29.9284 O   0  0  0  0  0  0  0  0  0  0  0  0
    9.8960  -16.9630   29.1006 O   0  0  0  0  0  0  0  0  0  0  0  0
  2  3  2  0
  2  1  1  0
  4  3  1  0
  5  4  2  0
  6  5  1  0
  7  6  1  0
  7  8  1  6
  9 10  2  0
  9  7  1  0
 11  5  1  0
 11 12  2  0
 12  2  1  0
 14 13  1  0
 15 14  2  0
 16 15  1  0
 17 23  1  0
 17 16  2  0
 18 17  1  0
 19 18  1  6
 19 20  1  0
 20  9  1  0
 21 30  1  0
 21 19  1  0
 22 21  2  0
 23 24  2  0
 24 14  1  0
 26 27  1  0
 26 25  1  0
 27 28  1  1
 27 29  1  0
 29 30  1  6
 29 31  1  0
 31 32  1  0
 33 31  2  0
M  END
$$$$
