YYI.pdb
     RDKit          3D

 33 34  0  0  1  0  0  0  0  0999 V2000
    8.2107  -13.6864   14.4107 O   0  0  0  0  0  0  0  0  0  0  0  0
    7.8471  -14.0013   15.7258 C   0  0  0  0  0  0  0  0  0  0  0  0
    8.1930  -13.1431   16.7685 C   0  0  0  0  0  0  0  0  0  0  0  0
    7.8373  -13.4439   18.0849 C   0  0  0  0  0  0  0  0  0  0  0  0
    7.1403  -14.5982   18.3456 C   0  0  0  0  0  0  0  0  0  0  0  0
    6.7403  -14.9608   19.7259 C   0  0  0  0  0  0  0  0  0  0  0  0
    8.0040  -15.0708   20.5458 C   0  0  2  0  0  0  0  0  0  0  0  0
    8.8687  -16.0381   19.9275 N   0  0  0  0  0  0  0  0  0  0  0  0
    7.7249  -15.4988   21.9486 C   0  0  0  0  0  0  0  0  0  0  0  0
    6.9652  -14.8227   22.6559 O   0  0  0  0  0  0  0  0  0  0  0  0
    6.8079  -15.4350   17.2945 C   0  0  0  0  0  0  0  0  0  0  0  0
    7.1536  -15.1476   15.9948 C   0  0  0  0  0  0  0  0  0  0  0  0
    7.4822  -20.0599   29.3716 O   0  0  0  0  0  0  0  0  0  0  0  0
    7.7878  -19.6717   28.0767 C   0  0  0  0  0  0  0  0  0  0  0  0
    6.7868  -19.5735   27.1253 C   0  0  0  0  0  0  0  0  0  0  0  0
    7.0795  -19.1898   25.8402 C   0  0  0  0  0  0  0  0  0  0  0  0
    8.3982  -18.9075   25.5329 C   0  0  0  0  0  0  0  0  0  0  0  0
    8.6795  -18.4925   24.1229 C   0  0  0  0  0  0  0  0  0  0  0  0
    8.1608  -17.1235   23.8285 C   0  0  2  0  0  0  0  0  0  0  0  0
    8.3211  -16.6785   22.4902 N   0  0  0  0  0  0  0  0  0  0  0  0
    8.7667  -16.1915   24.8443 C   0  0  0  0  0  0  0  0  0  0  0  0
    9.9870  -15.9258   24.7414 O   0  0  0  0  0  0  0  0  0  0  0  0
    9.3898  -19.0078   26.4869 C   0  0  0  0  0  0  0  0  0  0  0  0
    9.0950  -19.3940   27.7804 C   0  0  0  0  0  0  0  0  0  0  0  0
    6.3203  -11.7637   25.9110 C   0  0  0  0  0  0  0  0  0  0  0  0
    7.3008  -12.8721   25.8231 C   0  0  0  0  0  0  0  0  0  0  0  0
    7.7361  -13.5203   27.0715 C   0  0  2  0  0  0  0  0  0  0  0  0
    8.0857  -12.5910   28.2058 C   0  0  0  0  0  0  0  0  0  0  0  0
    8.6237  -14.6879   26.8838 C   0  0  2  0  0  0  0  0  0  0  0  0
    8.0388  -15.6161   25.8840 N   0  0  0  0  0  0  0  0  0  0  0  0
    8.9780  -15.4903   28.0424 C   0  0  0  0  0  0  0  0  0  0  0  0
   10.1114  -15.1456   28.8086 O   0  0  0  0  0  0  0  0  0  0  0  0
    8.3680  -16.5024   28.4644 O   0  0  0  0  0  0  0  0  0  0  0  0
  2  3  2  0
  2  1  1  0
  4  3  1  0
  5  4  2  0
  6  5  1  0
  7  6  1  0
  7  8  1  6
  9 10  2  0
  9  7  1  0
 11  5  1  0
 11 12  2  0
 12  2  1  0
 14 13  1  0
 15 14  2  0
 16 15  1  0
 17 23  1  0
 17 16  2  0
 18 17  1  0
 19 18  1  6
 19 20  1  0
 20  9  1  0
 21 30  1  0
 21 19  1  0
 22 21  2  0
 23 24  2  0
 24 14  1  0
 26 27  1  0
 26 25  1  0
 27 28  1  1
 27 29  1  0
 29 30  1  6
 29 31  1  0
 31 32  1  0
 33 31  2  0
M  END
$$$$
