YYI.pdb
     RDKit          3D

 33 34  0  0  1  0  0  0  0  0999 V2000
   16.3073  -16.1038   15.7199 O   0  0  0  0  0  0  0  0  0  0  0  0
   15.4856  -15.6290   16.7495 C   0  0  0  0  0  0  0  0  0  0  0  0
   15.9187  -15.6949   18.0728 C   0  0  0  0  0  0  0  0  0  0  0  0
   15.1103  -15.2253   19.1101 C   0  0  0  0  0  0  0  0  0  0  0  0
   13.8784  -14.6951   18.8144 C   0  0  0  0  0  0  0  0  0  0  0  0
   12.9844  -14.1838   19.8803 C   0  0  0  0  0  0  0  0  0  0  0  0
   12.3817  -15.3821   20.5745 C   0  0  2  0  0  0  0  0  0  0  0  0
   11.5637  -16.0945   19.6317 N   0  0  0  0  0  0  0  0  0  0  0  0
   11.5403  -14.9868   21.7428 C   0  0  0  0  0  0  0  0  0  0  0  0
   12.0760  -14.4938   22.7450 O   0  0  0  0  0  0  0  0  0  0  0  0
   13.4695  -14.6399   17.4933 C   0  0  0  0  0  0  0  0  0  0  0  0
   14.2583  -15.0997   16.4649 C   0  0  0  0  0  0  0  0  0  0  0  0
    7.5755  -13.4718   16.5368 O   0  0  0  0  0  0  0  0  0  0  0  0
    7.6294  -13.7135   17.9005 C   0  0  0  0  0  0  0  0  0  0  0  0
    7.8542  -12.6711   18.7834 C   0  0  0  0  0  0  0  0  0  0  0  0
    7.9093  -12.9005   20.1357 C   0  0  0  0  0  0  0  0  0  0  0  0
    7.7338  -14.1985   20.5803 C   0  0  0  0  0  0  0  0  0  0  0  0
    7.8003  -14.4105   22.0601 C   0  0  0  0  0  0  0  0  0  0  0  0
    9.2083  -14.4700   22.5541 C   0  0  2  0  0  0  0  0  0  0  0  0
   10.1236  -15.1683   21.7239 N   0  0  0  0  0  0  0  0  0  0  0  0
    9.1617  -14.9947   23.9649 C   0  0  0  0  0  0  0  0  0  0  0  0
   10.1301  -14.7381   24.7177 O   0  0  0  0  0  0  0  0  0  0  0  0
    7.5102  -15.2316   19.6937 C   0  0  0  0  0  0  0  0  0  0  0  0
    7.4548  -15.0006   18.3325 C   0  0  0  0  0  0  0  0  0  0  0  0
    6.2610  -12.8743   27.3900 C   0  0  0  0  0  0  0  0  0  0  0  0
    6.6973  -13.8407   26.3540 C   0  0  0  0  0  0  0  0  0  0  0  0
    7.8580  -14.6992   26.6441 C   0  0  2  0  0  0  0  0  0  0  0  0
    9.1819  -13.9902   26.7751 C   0  0  0  0  0  0  0  0  0  0  0  0
    7.8727  -15.9849   25.9139 C   0  0  2  0  0  0  0  0  0  0  0  0
    8.1005  -15.7455   24.4668 N   0  0  0  0  0  0  0  0  0  0  0  0
    6.7175  -16.8605   26.0162 C   0  0  0  0  0  0  0  0  0  0  0  0
    6.3953  -17.4468   27.2584 O   0  0  0  0  0  0  0  0  0  0  0  0
    5.9334  -17.1735   25.0880 O   0  0  0  0  0  0  0  0  0  0  0  0
  2  3  2  0
  2  1  1  0
  4  3  1  0
  5  4  2  0
  6  5  1  0
  7  6  1  0
  7  8  1  6
  9 10  2  0
  9  7  1  0
 11  5  1  0
 11 12  2  0
 12  2  1  0
 14 13  1  0
 15 14  2  0
 16 15  1  0
 17 23  1  0
 17 16  2  0
 18 17  1  0
 19 18  1  6
 19 20  1  0
 20  9  1  0
 21 30  1  0
 21 19  1  0
 22 21  2  0
 23 24  2  0
 24 14  1  0
 26 27  1  0
 26 25  1  0
 27 28  1  6
 27 29  1  0
 29 30  1  6
 29 31  1  0
 31 32  1  0
 33 31  2  0
M  END
$$$$
