YYI.pdb
     RDKit          3D

 33 34  0  0  1  0  0  0  0  0999 V2000
    9.1096  -13.8561   14.9952 O   0  0  0  0  0  0  0  0  0  0  0  0
    8.7301  -14.0578   16.3279 C   0  0  0  0  0  0  0  0  0  0  0  0
    9.1596  -15.1951   17.0099 C   0  0  0  0  0  0  0  0  0  0  0  0
    8.7892  -15.4098   18.3390 C   0  0  0  0  0  0  0  0  0  0  0  0
    7.9940  -14.4864   18.9724 C   0  0  0  0  0  0  0  0  0  0  0  0
    7.5744  -14.6697   20.3821 C   0  0  0  0  0  0  0  0  0  0  0  0
    6.9978  -16.0605   20.5021 C   0  0  2  0  0  0  0  0  0  0  0  0
    5.7279  -16.0897   19.8296 N   0  0  0  0  0  0  0  0  0  0  0  0
    6.7999  -16.4627   21.9262 C   0  0  0  0  0  0  0  0  0  0  0  0
    5.7659  -16.1268   22.5199 O   0  0  0  0  0  0  0  0  0  0  0  0
    7.5797  -13.3648   18.2753 C   0  0  0  0  0  0  0  0  0  0  0  0
    7.9391  -13.1445   16.9664 C   0  0  0  0  0  0  0  0  0  0  0  0
    8.4239  -19.3076   30.0416 O   0  0  0  0  0  0  0  0  0  0  0  0
    8.3915  -19.1764   28.6623 C   0  0  0  0  0  0  0  0  0  0  0  0
    9.5718  -19.0953   27.9433 C   0  0  0  0  0  0  0  0  0  0  0  0
    9.5500  -18.9652   26.5769 C   0  0  0  0  0  0  0  0  0  0  0  0
    8.3179  -18.9185   25.9501 C   0  0  0  0  0  0  0  0  0  0  0  0
    8.3332  -18.7764   24.4605 C   0  0  0  0  0  0  0  0  0  0  0  0
    7.8012  -17.4526   24.0194 C   0  0  2  0  0  0  0  0  0  0  0  0
    7.7861  -17.2307   22.6175 N   0  0  0  0  0  0  0  0  0  0  0  0
    8.5534  -16.3951   24.7832 C   0  0  0  0  0  0  0  0  0  0  0  0
    9.7725  -16.2475   24.5335 O   0  0  0  0  0  0  0  0  0  0  0  0
    7.1463  -19.0000   26.6741 C   0  0  0  0  0  0  0  0  0  0  0  0
    7.1683  -19.1310   28.0494 C   0  0  0  0  0  0  0  0  0  0  0  0
    5.9538  -11.8900   27.4247 C   0  0  0  0  0  0  0  0  0  0  0  0
    6.5343  -13.1957   27.0303 C   0  0  0  0  0  0  0  0  0  0  0  0
    7.7081  -13.1985   26.1412 C   0  0  2  0  0  0  0  0  0  0  0  0
    7.4609  -12.7387   24.7270 C   0  0  0  0  0  0  0  0  0  0  0  0
    8.6031  -14.3641   26.3042 C   0  0  2  0  0  0  0  0  0  0  0  0
    7.9610  -15.5805   25.7463 N   0  0  0  0  0  0  0  0  0  0  0  0
    9.0657  -14.7095   27.6378 C   0  0  0  0  0  0  0  0  0  0  0  0
    8.7145  -15.9569   28.1957 O   0  0  0  0  0  0  0  0  0  0  0  0
    9.7741  -13.9978   28.3900 O   0  0  0  0  0  0  0  0  0  0  0  0
  2  3  2  0
  2  1  1  0
  4  3  1  0
  5  4  2  0
  6  5  1  0
  7  6  1  0
  7  8  1  6
  9 10  2  0
  9  7  1  0
 11  5  1  0
 11 12  2  0
 12  2  1  0
 14 13  1  0
 15 14  2  0
 16 15  1  0
 17 23  1  0
 17 16  2  0
 18 17  1  0
 19 18  1  6
 19 20  1  0
 20  9  1  0
 21 30  1  0
 21 19  1  0
 22 21  2  0
 23 24  2  0
 24 14  1  0
 26 27  1  0
 26 25  1  0
 27 28  1  6
 27 29  1  0
 29 30  1  1
 29 31  1  0
 31 32  1  0
 33 31  2  0
M  END
$$$$
