YYI.pdb
     RDKit          3D

 33 34  0  0  1  0  0  0  0  0999 V2000
    8.9552  -13.0810   15.6020 O   0  0  0  0  0  0  0  0  0  0  0  0
    8.5122  -13.4112   16.8886 C   0  0  0  0  0  0  0  0  0  0  0  0
    7.2686  -12.9648   17.3329 C   0  0  0  0  0  0  0  0  0  0  0  0
    6.8134  -13.2861   18.6134 C   0  0  0  0  0  0  0  0  0  0  0  0
    7.6051  -14.0496   19.4359 C   0  0  0  0  0  0  0  0  0  0  0  0
    7.1659  -14.4169   20.8030 C   0  0  0  0  0  0  0  0  0  0  0  0
    7.0384  -15.9212   20.8452 C   0  0  2  0  0  0  0  0  0  0  0  0
    5.8812  -16.3045   20.0839 N   0  0  0  0  0  0  0  0  0  0  0  0
    6.8895  -16.4308   22.2406 C   0  0  0  0  0  0  0  0  0  0  0  0
    5.8715  -16.1529   22.8892 O   0  0  0  0  0  0  0  0  0  0  0  0
    8.8359  -14.4816   18.9732 C   0  0  0  0  0  0  0  0  0  0  0  0
    9.2929  -14.1705   17.7141 C   0  0  0  0  0  0  0  0  0  0  0  0
    8.3655  -19.7680   30.1101 O   0  0  0  0  0  0  0  0  0  0  0  0
    8.4437  -19.5300   28.7470 C   0  0  0  0  0  0  0  0  0  0  0  0
    7.2972  -19.5458   27.9711 C   0  0  0  0  0  0  0  0  0  0  0  0
    7.3645  -19.3112   26.6202 C   0  0  0  0  0  0  0  0  0  0  0  0
    8.6074  -19.0609   26.0673 C   0  0  0  0  0  0  0  0  0  0  0  0
    8.6421  -18.8097   24.5925 C   0  0  0  0  0  0  0  0  0  0  0  0
    8.0017  -17.5100   24.2311 C   0  0  2  0  0  0  0  0  0  0  0  0
    7.9047  -17.2361   22.8418 N   0  0  0  0  0  0  0  0  0  0  0  0
    8.7169  -16.4331   25.0035 C   0  0  0  0  0  0  0  0  0  0  0  0
    9.9075  -16.1866   24.6999 O   0  0  0  0  0  0  0  0  0  0  0  0
    9.7451  -19.0470   26.8476 C   0  0  0  0  0  0  0  0  0  0  0  0
    9.6773  -19.2831   28.2073 C   0  0  0  0  0  0  0  0  0  0  0  0
    6.3831  -11.8378   25.6063 C   0  0  0  0  0  0  0  0  0  0  0  0
    7.3844  -12.9308   25.5844 C   0  0  0  0  0  0  0  0  0  0  0  0
    7.8933  -13.4378   26.8698 C   0  0  2  0  0  0  0  0  0  0  0  0
    8.2751  -12.3895   27.8836 C   0  0  0  0  0  0  0  0  0  0  0  0
    8.7973  -14.6027   26.7596 C   0  0  2  0  0  0  0  0  0  0  0  0
    8.1206  -15.7047   26.0309 N   0  0  0  0  0  0  0  0  0  0  0  0
    9.3455  -15.1799   27.9754 C   0  0  0  0  0  0  0  0  0  0  0  0
    8.5229  -15.9738   28.8022 O   0  0  0  0  0  0  0  0  0  0  0  0
   10.5193  -15.0513   28.3996 O   0  0  0  0  0  0  0  0  0  0  0  0
  2  3  2  0
  2  1  1  0
  4  3  1  0
  5  4  2  0
  6  5  1  0
  7  6  1  0
  7  8  1  6
  9 10  2  0
  9  7  1  0
 11  5  1  0
 11 12  2  0
 12  2  1  0
 14 13  1  0
 15 14  2  0
 16 15  1  0
 17 23  1  0
 17 16  2  0
 18 17  1  0
 19 18  1  6
 19 20  1  0
 20  9  1  0
 21 30  1  0
 21 19  1  0
 22 21  2  0
 23 24  2  0
 24 14  1  0
 26 27  1  0
 26 25  1  0
 27 28  1  6
 27 29  1  0
 29 30  1  1
 29 31  1  0
 31 32  1  0
 33 31  2  0
M  END
$$$$
