YYI.pdb
     RDKit          3D

 33 34  0  0  1  0  0  0  0  0999 V2000
    8.4460  -12.6844   16.1644 O   0  0  0  0  0  0  0  0  0  0  0  0
    8.0213  -13.2126   17.3897 C   0  0  0  0  0  0  0  0  0  0  0  0
    8.7232  -12.9158   18.5569 C   0  0  0  0  0  0  0  0  0  0  0  0
    8.3116  -13.4352   19.7860 C   0  0  0  0  0  0  0  0  0  0  0  0
    7.2037  -14.2452   19.8361 C   0  0  0  0  0  0  0  0  0  0  0  0
    6.7277  -14.8203   21.1165 C   0  0  0  0  0  0  0  0  0  0  0  0
    7.1924  -16.2566   21.1643 C   0  0  2  0  0  0  0  0  0  0  0  0
    6.1773  -17.0866   20.5759 N   0  0  0  0  0  0  0  0  0  0  0  0
    7.4429  -16.7169   22.5623 C   0  0  0  0  0  0  0  0  0  0  0  0
    6.4859  -16.9102   23.3246 O   0  0  0  0  0  0  0  0  0  0  0  0
    6.5225  -14.5261   18.6644 C   0  0  0  0  0  0  0  0  0  0  0  0
    6.9199  -14.0195   17.4493 C   0  0  0  0  0  0  0  0  0  0  0  0
   11.1300  -19.2797   30.0006 O   0  0  0  0  0  0  0  0  0  0  0  0
   10.9121  -19.0138   28.6579 C   0  0  0  0  0  0  0  0  0  0  0  0
    9.7738  -19.4904   28.0303 C   0  0  0  0  0  0  0  0  0  0  0  0
    9.5491  -19.2324   26.7008 C   0  0  0  0  0  0  0  0  0  0  0  0
   10.4920  -18.4861   26.0174 C   0  0  0  0  0  0  0  0  0  0  0  0
   10.2136  -18.2248   24.5704 C   0  0  0  0  0  0  0  0  0  0  0  0
    9.1104  -17.2360   24.3826 C   0  0  2  0  0  0  0  0  0  0  0  0
    8.7719  -16.9387   23.0367 N   0  0  0  0  0  0  0  0  0  0  0  0
    9.4648  -16.0168   25.1924 C   0  0  0  0  0  0  0  0  0  0  0  0
   10.4350  -15.3216   24.8109 O   0  0  0  0  0  0  0  0  0  0  0  0
   11.6237  -18.0149   26.6504 C   0  0  0  0  0  0  0  0  0  0  0  0
   11.8498  -18.2747   27.9885 C   0  0  0  0  0  0  0  0  0  0  0  0
    6.1830  -12.2821   26.1400 C   0  0  0  0  0  0  0  0  0  0  0  0
    7.4166  -13.1017   26.0787 C   0  0  0  0  0  0  0  0  0  0  0  0
    8.0194  -13.5525   27.3443 C   0  0  2  0  0  0  0  0  0  0  0  0
    8.1532  -12.5026   28.4178 C   0  0  0  0  0  0  0  0  0  0  0  0
    9.1607  -14.4796   27.1888 C   0  0  2  0  0  0  0  0  0  0  0  0
    8.7692  -15.6299   26.3363 N   0  0  0  0  0  0  0  0  0  0  0  0
    9.7787  -15.0342   28.3814 C   0  0  0  0  0  0  0  0  0  0  0  0
   10.8758  -14.3709   28.9704 O   0  0  0  0  0  0  0  0  0  0  0  0
    9.4380  -16.0830   28.9800 O   0  0  0  0  0  0  0  0  0  0  0  0
  2  3  2  0
  2  1  1  0
  4  3  1  0
  5  4  2  0
  6  5  1  0
  7  6  1  0
  7  8  1  1
  9 10  2  0
  9  7  1  0
 11  5  1  0
 11 12  2  0
 12  2  1  0
 14 13  1  0
 15 14  2  0
 16 15  1  0
 17 23  1  0
 17 16  2  0
 18 17  1  0
 19 18  1  6
 19 20  1  0
 20  9  1  0
 21 30  1  0
 21 19  1  0
 22 21  2  0
 23 24  2  0
 24 14  1  0
 26 27  1  0
 26 25  1  0
 27 28  1  6
 27 29  1  0
 29 30  1  6
 29 31  1  0
 31 32  1  0
 33 31  2  0
M  END
$$$$
