YYI.pdb
     RDKit          3D

 33 34  0  0  1  0  0  0  0  0999 V2000
    9.0538  -13.5324   15.6919 O   0  0  0  0  0  0  0  0  0  0  0  0
    8.4907  -13.8740   16.9276 C   0  0  0  0  0  0  0  0  0  0  0  0
    7.4282  -13.1300   17.4384 C   0  0  0  0  0  0  0  0  0  0  0  0
    6.8565  -13.4587   18.6693 C   0  0  0  0  0  0  0  0  0  0  0  0
    7.3521  -14.5266   19.3765 C   0  0  0  0  0  0  0  0  0  0  0  0
    6.7790  -14.9146   20.6871 C   0  0  0  0  0  0  0  0  0  0  0  0
    6.9833  -16.4028   20.8441 C   0  0  2  0  0  0  0  0  0  0  0  0
    6.0711  -17.0856   19.9681 N   0  0  0  0  0  0  0  0  0  0  0  0
    6.7385  -16.8561   22.2454 C   0  0  0  0  0  0  0  0  0  0  0  0
    5.5992  -16.7761   22.7251 O   0  0  0  0  0  0  0  0  0  0  0  0
    8.4074  -15.2507   18.8496 C   0  0  0  0  0  0  0  0  0  0  0  0
    8.9771  -14.9349   17.6385 C   0  0  0  0  0  0  0  0  0  0  0  0
    4.6297  -22.8139   23.0925 O   0  0  0  0  0  0  0  0  0  0  0  0
    5.4822  -21.8325   23.5732 C   0  0  0  0  0  0  0  0  0  0  0  0
    6.6111  -21.4785   22.8542 C   0  0  0  0  0  0  0  0  0  0  0  0
    7.4615  -20.5077   23.3220 C   0  0  0  0  0  0  0  0  0  0  0  0
    7.1527  -19.9016   24.5263 C   0  0  0  0  0  0  0  0  0  0  0  0
    8.1021  -18.8484   25.0047 C   0  0  0  0  0  0  0  0  0  0  0  0
    7.7638  -17.5004   24.4583 C   0  0  2  0  0  0  0  0  0  0  0  0
    7.7994  -17.3820   23.0444 N   0  0  0  0  0  0  0  0  0  0  0  0
    8.6437  -16.5022   25.1634 C   0  0  0  0  0  0  0  0  0  0  0  0
    9.8581  -16.4713   24.8557 O   0  0  0  0  0  0  0  0  0  0  0  0
    6.0256  -20.2602   25.2367 C   0  0  0  0  0  0  0  0  0  0  0  0
    5.1698  -21.2373   24.7657 C   0  0  0  0  0  0  0  0  0  0  0  0
    7.0519  -11.3809   27.2067 C   0  0  0  0  0  0  0  0  0  0  0  0
    7.2701  -12.8206   26.9289 C   0  0  0  0  0  0  0  0  0  0  0  0
    8.5673  -13.2353   26.3690 C   0  0  2  0  0  0  0  0  0  0  0  0
    8.8092  -12.8629   24.9284 C   0  0  0  0  0  0  0  0  0  0  0  0
    9.0154  -14.5827   26.7815 C   0  0  2  0  0  0  0  0  0  0  0  0
    8.1734  -15.6193   26.1335 N   0  0  0  0  0  0  0  0  0  0  0  0
    9.0562  -14.9027   28.1984 C   0  0  0  0  0  0  0  0  0  0  0  0
    9.9616  -14.2232   29.0404 O   0  0  0  0  0  0  0  0  0  0  0  0
    8.3492  -15.7520   28.7927 O   0  0  0  0  0  0  0  0  0  0  0  0
  2  3  2  0
  2  1  1  0
  4  3  1  0
  5  4  2  0
  6  5  1  0
  7  6  1  0
  7  8  1  6
  9 10  2  0
  9  7  1  0
 11  5  1  0
 11 12  2  0
 12  2  1  0
 14 13  1  0
 15 14  2  0
 16 15  1  0
 17 23  1  0
 17 16  2  0
 18 17  1  0
 19 18  1  6
 19 20  1  0
 20  9  1  0
 21 30  1  0
 21 19  1  0
 22 21  2  0
 23 24  2  0
 24 14  1  0
 26 27  1  0
 26 25  1  0
 27 28  1  6
 27 29  1  0
 29 30  1  6
 29 31  1  0
 31 32  1  0
 33 31  2  0
M  END
$$$$
