YYI.pdb
     RDKit          3D

 33 34  0  0  1  0  0  0  0  0999 V2000
   16.5274  -18.6137   16.2195 O   0  0  0  0  0  0  0  0  0  0  0  0
   15.9275  -17.9521   17.2981 C   0  0  0  0  0  0  0  0  0  0  0  0
   16.4702  -18.0704   18.5766 C   0  0  0  0  0  0  0  0  0  0  0  0
   15.8830  -17.4165   19.6619 C   0  0  0  0  0  0  0  0  0  0  0  0
   14.7605  -16.6519   19.4583 C   0  0  0  0  0  0  0  0  0  0  0  0
   14.1013  -15.9389   20.5781 C   0  0  0  0  0  0  0  0  0  0  0  0
   12.8444  -15.3059   20.0299 C   0  0  2  0  0  0  0  0  0  0  0  0
   13.2165  -14.1983   19.1930 N   0  0  0  0  0  0  0  0  0  0  0  0
   11.9479  -14.8110   21.1164 C   0  0  0  0  0  0  0  0  0  0  0  0
   12.1640  -13.7064   21.6337 O   0  0  0  0  0  0  0  0  0  0  0  0
   14.2394  -16.5492   18.1802 C   0  0  0  0  0  0  0  0  0  0  0  0
   14.8104  -17.1891   17.1052 C   0  0  0  0  0  0  0  0  0  0  0  0
    6.8763  -12.9796   17.5398 O   0  0  0  0  0  0  0  0  0  0  0  0
    7.2751  -13.5761   18.7256 C   0  0  0  0  0  0  0  0  0  0  0  0
    7.6817  -14.8994   18.7363 C   0  0  0  0  0  0  0  0  0  0  0  0
    8.0785  -15.4990   19.9057 C   0  0  0  0  0  0  0  0  0  0  0  0
    8.0576  -14.7405   21.0621 C   0  0  0  0  0  0  0  0  0  0  0  0
    8.4966  -15.4271   22.3172 C   0  0  0  0  0  0  0  0  0  0  0  0
    9.9457  -15.2030   22.6000 C   0  0  2  0  0  0  0  0  0  0  0  0
   10.8418  -15.5925   21.5705 N   0  0  0  0  0  0  0  0  0  0  0  0
   10.2438  -15.8489   23.9272 C   0  0  0  0  0  0  0  0  0  0  0  0
   10.9392  -16.8913   23.9285 O   0  0  0  0  0  0  0  0  0  0  0  0
    7.6509  -13.4223   21.0429 C   0  0  0  0  0  0  0  0  0  0  0  0
    7.2516  -12.8188   19.8657 C   0  0  0  0  0  0  0  0  0  0  0  0
    9.6579  -12.5189   28.1744 C   0  0  0  0  0  0  0  0  0  0  0  0
   10.0957  -13.5618   27.2161 C   0  0  0  0  0  0  0  0  0  0  0  0
    9.8174  -14.9706   27.5416 C   0  0  2  0  0  0  0  0  0  0  0  0
   10.1686  -15.4019   28.9427 C   0  0  0  0  0  0  0  0  0  0  0  0
   10.1375  -15.9285   26.4616 C   0  0  2  0  0  0  0  0  0  0  0  0
    9.7860  -15.3447   25.1430 N   0  0  0  0  0  0  0  0  0  0  0  0
    9.5435  -17.2541   26.5038 C   0  0  0  0  0  0  0  0  0  0  0  0
   10.1875  -18.2838   27.2218 O   0  0  0  0  0  0  0  0  0  0  0  0
    8.4747  -17.6112   25.9519 O   0  0  0  0  0  0  0  0  0  0  0  0
  2  3  2  0
  2  1  1  0
  4  3  1  0
  5  4  2  0
  6  5  1  0
  7  6  1  0
  7  8  1  6
  9 10  2  0
  9  7  1  0
 11  5  1  0
 11 12  2  0
 12  2  1  0
 14 13  1  0
 15 14  2  0
 16 15  1  0
 17 23  1  0
 17 16  2  0
 18 17  1  0
 19 18  1  6
 19 20  1  0
 20  9  1  0
 21 30  1  0
 21 19  1  0
 22 21  2  0
 23 24  2  0
 24 14  1  0
 26 27  1  0
 26 25  1  0
 27 28  1  1
 27 29  1  0
 29 30  1  6
 29 31  1  0
 31 32  1  0
 33 31  2  0
M  END
$$$$
