YYI.pdb
     RDKit          3D

 33 34  0  0  1  0  0  0  0  0999 V2000
    8.0675  -12.5182   16.0519 O   0  0  0  0  0  0  0  0  0  0  0  0
    8.0478  -13.1594   17.2965 C   0  0  0  0  0  0  0  0  0  0  0  0
    8.9227  -12.7536   18.3031 C   0  0  0  0  0  0  0  0  0  0  0  0
    8.9147  -13.3836   19.5492 C   0  0  0  0  0  0  0  0  0  0  0  0
    8.0331  -14.4119   19.7765 C   0  0  0  0  0  0  0  0  0  0  0  0
    7.9866  -15.1115   21.0824 C   0  0  0  0  0  0  0  0  0  0  0  0
    8.9807  -16.2469   21.0195 C   0  0  2  0  0  0  0  0  0  0  0  0
    8.5425  -17.1850   20.0228 N   0  0  0  0  0  0  0  0  0  0  0  0
    9.1045  -16.9547   22.3282 C   0  0  0  0  0  0  0  0  0  0  0  0
    8.1767  -17.6719   22.7272 O   0  0  0  0  0  0  0  0  0  0  0  0
    7.1739  -14.7977   18.7624 C   0  0  0  0  0  0  0  0  0  0  0  0
    7.1742  -14.1835   17.5320 C   0  0  0  0  0  0  0  0  0  0  0  0
   11.4149  -16.9183   30.7622 O   0  0  0  0  0  0  0  0  0  0  0  0
   11.4655  -16.8251   29.3803 C   0  0  0  0  0  0  0  0  0  0  0  0
   11.5680  -15.5868   28.7699 C   0  0  0  0  0  0  0  0  0  0  0  0
   11.6188  -15.4842   27.4019 C   0  0  0  0  0  0  0  0  0  0  0  0
   11.5644  -16.6517   26.6623 C   0  0  0  0  0  0  0  0  0  0  0  0
   11.6223  -16.5011   25.1745 C   0  0  0  0  0  0  0  0  0  0  0  0
   10.2804  -16.6727   24.5422 C   0  0  2  0  0  0  0  0  0  0  0  0
   10.2786  -16.8180   23.1303 N   0  0  0  0  0  0  0  0  0  0  0  0
    9.4134  -15.5410   25.0271 C   0  0  0  0  0  0  0  0  0  0  0  0
    9.7627  -14.3717   24.7424 O   0  0  0  0  0  0  0  0  0  0  0  0
   11.4622  -17.8819   27.2784 C   0  0  0  0  0  0  0  0  0  0  0  0
   11.4111  -17.9850   28.6554 C   0  0  0  0  0  0  0  0  0  0  0  0
    5.5483  -11.6080   26.3448 C   0  0  0  0  0  0  0  0  0  0  0  0
    6.3820  -12.6743   26.9493 C   0  0  0  0  0  0  0  0  0  0  0  0
    6.9198  -13.7245   26.0682 C   0  0  2  0  0  0  0  0  0  0  0  0
    5.9864  -14.2204   24.9934 C   0  0  0  0  0  0  0  0  0  0  0  0
    7.7316  -14.7513   26.7559 C   0  0  2  0  0  0  0  0  0  0  0  0
    8.2508  -15.7330   25.7710 N   0  0  0  0  0  0  0  0  0  0  0  0
    7.1246  -15.5183   27.8307 C   0  0  0  0  0  0  0  0  0  0  0  0
    6.8627  -14.8955   29.0693 O   0  0  0  0  0  0  0  0  0  0  0  0
    6.7891  -16.7266   27.7885 O   0  0  0  0  0  0  0  0  0  0  0  0
  2  3  2  0
  2  1  1  0
  4  3  1  0
  5  4  2  0
  6  5  1  0
  7  6  1  0
  7  8  1  6
  9 10  2  0
  9  7  1  0
 11  5  1  0
 11 12  2  0
 12  2  1  0
 14 13  1  0
 15 14  2  0
 16 15  1  0
 17 23  1  0
 17 16  2  0
 18 17  1  0
 19 18  1  6
 19 20  1  0
 20  9  1  0
 21 30  1  0
 21 19  1  0
 22 21  2  0
 23 24  2  0
 24 14  1  0
 26 27  1  0
 26 25  1  0
 27 28  1  1
 27 29  1  0
 29 30  1  6
 29 31  1  0
 31 32  1  0
 33 31  2  0
M  END
$$$$
