YYI.pdb
     RDKit          3D

 33 34  0  0  1  0  0  0  0  0999 V2000
    7.0908  -11.7841   17.0849 O   0  0  0  0  0  0  0  0  0  0  0  0
    7.1026  -12.7752   18.0739 C   0  0  0  0  0  0  0  0  0  0  0  0
    6.1056  -13.7493   18.0957 C   0  0  0  0  0  0  0  0  0  0  0  0
    6.1043  -14.7439   19.0758 C   0  0  0  0  0  0  0  0  0  0  0  0
    7.0984  -14.7549   20.0233 C   0  0  0  0  0  0  0  0  0  0  0  0
    7.1401  -15.7898   21.0835 C   0  0  0  0  0  0  0  0  0  0  0  0
    8.2506  -16.7506   20.7303 C   0  0  2  0  0  0  0  0  0  0  0  0
    7.6645  -17.9898   20.2986 N   0  0  0  0  0  0  0  0  0  0  0  0
    9.1481  -17.0195   21.8928 C   0  0  0  0  0  0  0  0  0  0  0  0
    9.0158  -18.0676   22.5396 O   0  0  0  0  0  0  0  0  0  0  0  0
    8.0778  -13.7778   19.9818 C   0  0  0  0  0  0  0  0  0  0  0  0
    8.0878  -12.7942   19.0208 C   0  0  0  0  0  0  0  0  0  0  0  0
   14.4997  -14.9288   18.2850 O   0  0  0  0  0  0  0  0  0  0  0  0
   13.9469  -15.0438   19.5508 C   0  0  0  0  0  0  0  0  0  0  0  0
   12.8298  -14.3006   19.8921 C   0  0  0  0  0  0  0  0  0  0  0  0
   12.2751  -14.4076   21.1432 C   0  0  0  0  0  0  0  0  0  0  0  0
   12.8669  -15.2764   22.0421 C   0  0  0  0  0  0  0  0  0  0  0  0
   12.2352  -15.3668   23.3957 C   0  0  0  0  0  0  0  0  0  0  0  0
   11.0219  -16.2375   23.3897 C   0  0  2  0  0  0  0  0  0  0  0  0
   10.1598  -16.0853   22.2725 N   0  0  0  0  0  0  0  0  0  0  0  0
   10.3274  -16.0397   24.7112 C   0  0  0  0  0  0  0  0  0  0  0  0
   10.9944  -16.2204   25.7565 O   0  0  0  0  0  0  0  0  0  0  0  0
   13.9801  -16.0134   21.6940 C   0  0  0  0  0  0  0  0  0  0  0  0
   14.5383  -15.9057   20.4346 C   0  0  0  0  0  0  0  0  0  0  0  0
    5.8835  -12.5415   25.3637 C   0  0  0  0  0  0  0  0  0  0  0  0
    6.6608  -13.7952   25.2165 C   0  0  0  0  0  0  0  0  0  0  0  0
    7.7692  -14.0440   26.1534 C   0  0  2  0  0  0  0  0  0  0  0  0
    8.7799  -12.9331   26.2837 C   0  0  0  0  0  0  0  0  0  0  0  0
    8.3091  -15.4201   26.1195 C   0  0  2  0  0  0  0  0  0  0  0  0
    8.9890  -15.6681   24.8235 N   0  0  0  0  0  0  0  0  0  0  0  0
    7.4000  -16.5334   26.3345 C   0  0  0  0  0  0  0  0  0  0  0  0
    6.6593  -16.6067   27.5330 O   0  0  0  0  0  0  0  0  0  0  0  0
    7.1838  -17.4839   25.5445 O   0  0  0  0  0  0  0  0  0  0  0  0
  2  3  2  0
  2  1  1  0
  4  3  1  0
  5  4  2  0
  6  5  1  0
  7  6  1  0
  7  8  1  1
  9 10  2  0
  9  7  1  0
 11  5  1  0
 11 12  2  0
 12  2  1  0
 14 13  1  0
 15 14  2  0
 16 15  1  0
 17 23  1  0
 17 16  2  0
 18 17  1  0
 19 18  1  6
 19 20  1  0
 20  9  1  0
 21 30  1  0
 21 19  1  0
 22 21  2  0
 23 24  2  0
 24 14  1  0
 26 27  1  0
 26 25  1  0
 27 28  1  6
 27 29  1  0
 29 30  1  6
 29 31  1  0
 31 32  1  0
 33 31  2  0
M  END
$$$$
