QMD.pdb
     RDKit          3D

 26 25  0  0  1  0  0  0  0  0999 V2000
    8.4077  -19.3252   19.1781 N   0  0  0  0  0  0  0  0  0  0  0  0
    7.5694  -18.4378   18.4035 C   0  0  0  0  0  0  0  0  0  0  0  0
    7.2065  -18.7959   17.2763 O   0  0  0  0  0  0  0  0  0  0  0  0
    7.1551  -17.1314   18.9401 C   0  0  0  0  0  0  0  0  0  0  0  0
    7.7135  -16.8863   20.2883 C   0  0  0  0  0  0  0  0  0  0  0  0
    7.1657  -15.6495   20.9699 C   0  0  2  0  0  0  0  0  0  0  0  0
    7.1814  -14.5246   20.0179 N   0  0  0  0  0  0  0  0  0  0  0  0
    8.0986  -15.2898   22.0699 C   0  0  0  0  0  0  0  0  0  0  0  0
    9.2436  -14.7854   21.8385 O   0  0  0  0  0  0  0  0  0  0  0  0
    6.3340  -10.6154   26.4641 C   0  0  0  0  0  0  0  0  0  0  0  0
    6.8557  -12.3054   26.8588 S   0  0  0  0  0  0  0  0  0  0  0  0
    7.6228  -13.0799   25.3964 C   0  0  0  0  0  0  0  0  0  0  0  0
    7.8719  -14.5445   25.6717 C   0  0  0  0  0  0  0  0  0  0  0  0
    8.5665  -15.2167   24.5061 C   0  0  2  0  0  0  0  0  0  0  0  0
    7.6827  -15.5240   23.4181 N   0  0  0  0  0  0  0  0  0  0  0  0
    9.1421  -16.4837   25.0219 C   0  0  0  0  0  0  0  0  0  0  0  0
    8.3696  -17.4466   25.2280 O   0  0  0  0  0  0  0  0  0  0  0  0
   10.5383  -16.6178   25.2820 N   0  0  0  0  0  0  0  0  0  0  0  0
   11.0370  -17.8362   25.8229 C   0  0  1  0  0  0  0  0  0  0  0  0
   12.5499  -17.9593   25.6715 C   0  0  0  0  0  0  0  0  0  0  0  0
   12.9156  -17.6821   24.2609 C   0  0  0  0  0  0  0  0  0  0  0  0
   13.9761  -17.0759   23.9800 O   0  0  0  0  0  0  0  0  0  0  0  0
   10.6520  -17.9992   27.2642 C   0  0  0  0  0  0  0  0  0  0  0  0
   10.0666  -17.0530   27.8363 O   0  0  0  0  0  0  0  0  0  0  0  0
   12.0428  -18.1154   23.2652 O   0  0  0  0  0  0  0  0  0  0  0  0
   10.9181  -19.1474   27.9768 O   0  0  0  0  0  0  0  0  0  0  0  0
  2  1  1  0
  3  2  2  0
  4  2  1  0
  5  4  1  0
  6  5  1  0
  6  7  1  6
  8  6  1  0
  9  8  2  0
 11 10  1  0
 11 12  1  0
 14 13  1  1
 13 12  1  0
 14 15  1  0
 15  8  1  0
 16 18  1  0
 16 14  1  0
 17 16  2  0
 19 18  1  0
 19 20  1  1
 20 21  1  0
 21 22  2  0
 23 26  1  0
 23 19  1  0
 24 23  2  0
 25 21  1  0
M  END
$$$$
