QMD.pdb
     RDKit          3D

 26 25  0  0  1  0  0  0  0  0999 V2000
    6.2527  -12.6077   18.2234 N   0  0  0  0  0  0  0  0  0  0  0  0
    7.3206  -13.4487   17.7311 C   0  0  0  0  0  0  0  0  0  0  0  0
    7.0628  -14.2881   16.8596 O   0  0  0  0  0  0  0  0  0  0  0  0
    8.6895  -13.3144   18.2552 C   0  0  0  0  0  0  0  0  0  0  0  0
    8.7063  -13.1923   19.7297 C   0  0  0  0  0  0  0  0  0  0  0  0
    9.3389  -14.3704   20.4414 C   0  0  2  0  0  0  0  0  0  0  0  0
    8.4517  -15.5411   20.3229 N   0  0  0  0  0  0  0  0  0  0  0  0
    9.4132  -14.0368   21.8880 C   0  0  0  0  0  0  0  0  0  0  0  0
    9.4621  -12.8325   22.2957 O   0  0  0  0  0  0  0  0  0  0  0  0
    7.9940  -12.2025   27.5277 C   0  0  0  0  0  0  0  0  0  0  0  0
    7.1894  -12.4332   25.9204 S   0  0  0  0  0  0  0  0  0  0  0  0
    6.9775  -14.2120   25.5776 C   0  0  0  0  0  0  0  0  0  0  0  0
    7.4498  -14.5169   24.1751 C   0  0  0  0  0  0  0  0  0  0  0  0
    8.9120  -14.9100   24.1564 C   0  0  2  0  0  0  0  0  0  0  0  0
    9.4302  -15.1100   22.8333 N   0  0  0  0  0  0  0  0  0  0  0  0
    9.0234  -16.1855   24.9071 C   0  0  0  0  0  0  0  0  0  0  0  0
    7.9704  -16.7904   25.2100 O   0  0  0  0  0  0  0  0  0  0  0  0
   10.2906  -16.7225   25.2822 N   0  0  0  0  0  0  0  0  0  0  0  0
   10.3527  -17.9941   25.9185 C   0  0  1  0  0  0  0  0  0  0  0  0
   11.7154  -18.6588   25.7501 C   0  0  0  0  0  0  0  0  0  0  0  0
   12.2798  -18.2703   24.4345 C   0  0  0  0  0  0  0  0  0  0  0  0
   11.7217  -18.6201   23.3681 O   0  0  0  0  0  0  0  0  0  0  0  0
   10.0059  -17.9002   27.3757 C   0  0  0  0  0  0  0  0  0  0  0  0
    9.7658  -16.7721   27.8605 O   0  0  0  0  0  0  0  0  0  0  0  0
   13.4463  -17.5087   24.4262 O   0  0  0  0  0  0  0  0  0  0  0  0
    9.9422  -19.0056   28.1948 O   0  0  0  0  0  0  0  0  0  0  0  0
  2  1  1  0
  3  2  2  0
  4  2  1  0
  5  4  1  0
  6  5  1  0
  6  7  1  1
  8  6  1  0
  9  8  2  0
 11 10  1  0
 11 12  1  0
 14 13  1  6
 13 12  1  0
 14 15  1  0
 15  8  1  0
 16 18  1  0
 16 14  1  0
 17 16  2  0
 19 18  1  0
 19 20  1  1
 20 21  1  0
 21 22  2  0
 23 26  1  0
 23 19  1  0
 24 23  2  0
 25 21  1  0
M  END
$$$$
