QMD.pdb
     RDKit          3D

 26 25  0  0  1  0  0  0  0  0999 V2000
   10.1128  -20.1313   23.0462 N   0  0  0  0  0  0  0  0  0  0  0  0
   10.4965  -20.0687   21.6537 C   0  0  0  0  0  0  0  0  0  0  0  0
   11.3764  -20.8361   21.2445 O   0  0  0  0  0  0  0  0  0  0  0  0
    9.8574  -19.1107   20.7372 C   0  0  0  0  0  0  0  0  0  0  0  0
    8.8078  -18.3165   21.4132 C   0  0  0  0  0  0  0  0  0  0  0  0
    8.6900  -16.8919   20.9119 C   0  0  2  0  0  0  0  0  0  0  0  0
    9.6503  -16.6840   19.8135 N   0  0  0  0  0  0  0  0  0  0  0  0
    9.1048  -15.9888   22.0172 C   0  0  0  0  0  0  0  0  0  0  0  0
   10.2793  -15.5032   22.0799 O   0  0  0  0  0  0  0  0  0  0  0  0
    6.6471  -11.6258   28.1821 C   0  0  0  0  0  0  0  0  0  0  0  0
    6.1923  -12.5445   26.6878 S   0  0  0  0  0  0  0  0  0  0  0  0
    7.6823  -13.2611   25.9175 C   0  0  0  0  0  0  0  0  0  0  0  0
    7.2797  -14.1296   24.7484 C   0  0  0  0  0  0  0  0  0  0  0  0
    8.4875  -14.7467   24.0752 C   0  0  2  0  0  0  0  0  0  0  0  0
    8.1465  -15.6680   23.0292 N   0  0  0  0  0  0  0  0  0  0  0  0
    9.2375  -15.4787   25.1260 C   0  0  0  0  0  0  0  0  0  0  0  0
    9.6191  -14.8440   26.1349 O   0  0  0  0  0  0  0  0  0  0  0  0
    9.5252  -16.8707   25.0050 N   0  0  0  0  0  0  0  0  0  0  0  0
   10.2543  -17.5282   26.0356 C   0  0  1  0  0  0  0  0  0  0  0  0
    9.8199  -18.9794   26.2152 C   0  0  0  0  0  0  0  0  0  0  0  0
    9.3737  -19.1773   27.6160 C   0  0  0  0  0  0  0  0  0  0  0  0
    9.5012  -18.2643   28.4652 O   0  0  0  0  0  0  0  0  0  0  0  0
   11.7339  -17.4633   25.7931 C   0  0  0  0  0  0  0  0  0  0  0  0
   12.4999  -17.9825   26.6351 O   0  0  0  0  0  0  0  0  0  0  0  0
    8.8127  -20.4073   27.9527 O   0  0  0  0  0  0  0  0  0  0  0  0
   12.2767  -16.8563   24.6824 O   0  0  0  0  0  0  0  0  0  0  0  0
  2  1  1  0
  3  2  2  0
  4  2  1  0
  5  4  1  0
  6  5  1  0
  6  7  1  6
  8  6  1  0
  9  8  2  0
 11 10  1  0
 11 12  1  0
 14 13  1  1
 13 12  1  0
 14 15  1  0
 15  8  1  0
 16 18  1  0
 16 14  1  0
 17 16  2  0
 19 18  1  0
 19 20  1  6
 20 21  1  0
 21 22  2  0
 23 26  1  0
 23 19  1  0
 24 23  2  0
 25 21  1  0
M  END
$$$$
