QMD.pdb
     RDKit          3D

 26 25  0  0  1  0  0  0  0  0999 V2000
    6.0276  -19.1507   20.0051 N   0  0  0  0  0  0  0  0  0  0  0  0
    7.3950  -18.7607   19.7441 C   0  0  0  0  0  0  0  0  0  0  0  0
    8.2127  -19.6343   19.4298 O   0  0  0  0  0  0  0  0  0  0  0  0
    7.8118  -17.3532   19.8512 C   0  0  0  0  0  0  0  0  0  0  0  0
    6.6877  -16.4729   20.2399 C   0  0  0  0  0  0  0  0  0  0  0  0
    7.0325  -14.9979   20.2536 C   0  0  2  0  0  0  0  0  0  0  0  0
    7.8180  -14.6730   19.0498 N   0  0  0  0  0  0  0  0  0  0  0  0
    7.9200  -14.7527   21.4205 C   0  0  0  0  0  0  0  0  0  0  0  0
    9.1831  -14.6665   21.2944 O   0  0  0  0  0  0  0  0  0  0  0  0
    5.8767  -12.1671   27.4893 C   0  0  0  0  0  0  0  0  0  0  0  0
    6.9830  -11.3363   26.3189 S   0  0  0  0  0  0  0  0  0  0  0  0
    7.0200  -12.2481   24.7396 C   0  0  0  0  0  0  0  0  0  0  0  0
    7.3564  -13.6980   25.0002 C   0  0  0  0  0  0  0  0  0  0  0  0
    8.1370  -14.3005   23.8511 C   0  0  2  0  0  0  0  0  0  0  0  0
    7.3219  -14.6131   22.7121 N   0  0  0  0  0  0  0  0  0  0  0  0
    8.7461  -15.5557   24.3571 C   0  0  0  0  0  0  0  0  0  0  0  0
    8.0215  -16.5718   24.4512 O   0  0  0  0  0  0  0  0  0  0  0  0
   10.1211  -15.6199   24.7317 N   0  0  0  0  0  0  0  0  0  0  0  0
   10.6973  -16.8762   25.0717 C   0  0  1  0  0  0  0  0  0  0  0  0
   12.1745  -16.9543   24.6989 C   0  0  0  0  0  0  0  0  0  0  0  0
   12.6692  -18.3239   24.9813 C   0  0  0  0  0  0  0  0  0  0  0  0
   13.8825  -18.6084   24.8473 O   0  0  0  0  0  0  0  0  0  0  0  0
   10.5202  -17.1890   26.5288 C   0  0  0  0  0  0  0  0  0  0  0  0
   10.8139  -18.3360   26.9329 O   0  0  0  0  0  0  0  0  0  0  0  0
   11.7426  -19.2777   25.3969 O   0  0  0  0  0  0  0  0  0  0  0  0
   10.0487  -16.2634   27.4332 O   0  0  0  0  0  0  0  0  0  0  0  0
  2  1  1  0
  3  2  2  0
  4  2  1  0
  5  4  1  0
  6  5  1  0
  6  7  1  6
  8  6  1  0
  9  8  2  0
 11 10  1  0
 11 12  1  0
 14 13  1  1
 13 12  1  0
 14 15  1  0
 15  8  1  0
 16 18  1  0
 16 14  1  0
 17 16  2  0
 19 18  1  0
 19 20  1  1
 20 21  1  0
 21 22  2  0
 23 26  1  0
 23 19  1  0
 24 23  2  0
 25 21  1  0
M  END
$$$$
