QMD.pdb
     RDKit          3D

 26 25  0  0  1  0  0  0  0  0999 V2000
    8.3854  -12.3432   17.2411 N   0  0  0  0  0  0  0  0  0  0  0  0
    8.0291  -13.6390   16.7082 C   0  0  0  0  0  0  0  0  0  0  0  0
    7.7506  -13.7315   15.5063 O   0  0  0  0  0  0  0  0  0  0  0  0
    7.9946  -14.8279   17.5752 C   0  0  0  0  0  0  0  0  0  0  0  0
    8.3144  -14.4951   18.9810 C   0  0  0  0  0  0  0  0  0  0  0  0
    8.3021  -15.6858   19.9174 C   0  0  2  0  0  0  0  0  0  0  0  0
    6.9189  -16.1729   20.0633 N   0  0  0  0  0  0  0  0  0  0  0  0
    8.7299  -15.2094   21.2589 C   0  0  0  0  0  0  0  0  0  0  0  0
    9.9050  -14.7694   21.4696 O   0  0  0  0  0  0  0  0  0  0  0  0
    6.9959  -11.5545   27.8359 C   0  0  0  0  0  0  0  0  0  0  0  0
    6.2957  -12.3791   26.3820 S   0  0  0  0  0  0  0  0  0  0  0  0
    7.4797  -13.6022   25.7270 C   0  0  0  0  0  0  0  0  0  0  0  0
    7.0631  -14.0142   24.3343 C   0  0  0  0  0  0  0  0  0  0  0  0
    8.1564  -14.7969   23.6380 C   0  0  2  0  0  0  0  0  0  0  0  0
    7.7833  -15.2545   22.3301 N   0  0  0  0  0  0  0  0  0  0  0  0
    8.4473  -15.9779   24.4885 C   0  0  0  0  0  0  0  0  0  0  0  0
    7.5065  -16.7542   24.7690 O   0  0  0  0  0  0  0  0  0  0  0  0
    9.7603  -16.2365   24.9827 N   0  0  0  0  0  0  0  0  0  0  0  0
    9.9956  -17.3951   25.7752 C   0  0  1  0  0  0  0  0  0  0  0  0
   10.9256  -18.3882   25.0853 C   0  0  0  0  0  0  0  0  0  0  0  0
   12.1451  -17.6724   24.6370 C   0  0  0  0  0  0  0  0  0  0  0  0
   12.9989  -18.2456   23.9205 O   0  0  0  0  0  0  0  0  0  0  0  0
   10.5406  -17.0383   27.1272 C   0  0  0  0  0  0  0  0  0  0  0  0
   10.9099  -15.8602   27.3299 O   0  0  0  0  0  0  0  0  0  0  0  0
   12.3076  -16.3486   25.0397 O   0  0  0  0  0  0  0  0  0  0  0  0
   10.6480  -17.9560   28.1486 O   0  0  0  0  0  0  0  0  0  0  0  0
  2  1  1  0
  3  2  2  0
  4  2  1  0
  5  4  1  0
  6  5  1  0
  6  7  1  1
  8  6  1  0
  9  8  2  0
 11 10  1  0
 11 12  1  0
 14 13  1  1
 13 12  1  0
 14 15  1  0
 15  8  1  0
 16 18  1  0
 16 14  1  0
 17 16  2  0
 19 18  1  0
 19 20  1  6
 20 21  1  0
 21 22  2  0
 23 26  1  0
 23 19  1  0
 24 23  2  0
 25 21  1  0
M  END
$$$$
