QMD.pdb
     RDKit          3D

 26 25  0  0  1  0  0  0  0  0999 V2000
    9.3404  -13.4173   16.4970 N   0  0  0  0  0  0  0  0  0  0  0  0
    8.0547  -13.9144   16.9329 C   0  0  0  0  0  0  0  0  0  0  0  0
    7.4451  -14.7064   16.2038 O   0  0  0  0  0  0  0  0  0  0  0  0
    7.4768  -13.4877   18.2176 C   0  0  0  0  0  0  0  0  0  0  0  0
    8.4470  -13.6128   19.3278 C   0  0  0  0  0  0  0  0  0  0  0  0
    8.3278  -14.9034   20.1118 C   0  0  2  0  0  0  0  0  0  0  0  0
    6.9021  -15.2245   20.3022 N   0  0  0  0  0  0  0  0  0  0  0  0
    8.8949  -14.6637   21.4647 C   0  0  0  0  0  0  0  0  0  0  0  0
   10.0944  -14.2718   21.6279 O   0  0  0  0  0  0  0  0  0  0  0  0
    6.9981  -11.9368   27.4407 C   0  0  0  0  0  0  0  0  0  0  0  0
    5.9904  -12.2512   25.9677 S   0  0  0  0  0  0  0  0  0  0  0  0
    7.0449  -12.8518   24.6061 C   0  0  0  0  0  0  0  0  0  0  0  0
    7.5393  -14.2435   24.9250 C   0  0  0  0  0  0  0  0  0  0  0  0
    8.5802  -14.7038   23.9262 C   0  0  2  0  0  0  0  0  0  0  0  0
    8.0568  -14.8849   22.6023 N   0  0  0  0  0  0  0  0  0  0  0  0
    9.0969  -16.0067   24.4141 C   0  0  0  0  0  0  0  0  0  0  0  0
    8.4439  -17.0413   24.1502 O   0  0  0  0  0  0  0  0  0  0  0  0
   10.3057  -16.0956   25.1665 N   0  0  0  0  0  0  0  0  0  0  0  0
   10.8085  -17.3746   25.5369 C   0  0  1  0  0  0  0  0  0  0  0  0
   12.3058  -17.5047   25.2760 C   0  0  0  0  0  0  0  0  0  0  0  0
   12.7470  -18.8629   25.6772 C   0  0  0  0  0  0  0  0  0  0  0  0
   13.3540  -19.0474   26.7582 O   0  0  0  0  0  0  0  0  0  0  0  0
   10.5101  -17.6905   26.9734 C   0  0  0  0  0  0  0  0  0  0  0  0
   10.3221  -16.7415   27.7666 O   0  0  0  0  0  0  0  0  0  0  0  0
   12.4658  -19.9199   24.8142 O   0  0  0  0  0  0  0  0  0  0  0  0
   10.4357  -18.9813   27.4481 O   0  0  0  0  0  0  0  0  0  0  0  0
  2  1  1  0
  3  2  2  0
  4  2  1  0
  5  4  1  0
  6  5  1  0
  6  7  1  1
  8  6  1  0
  9  8  2  0
 11 10  1  0
 11 12  1  0
 14 13  1  1
 13 12  1  0
 14 15  1  0
 15  8  1  0
 16 18  1  0
 16 14  1  0
 17 16  2  0
 19 18  1  0
 19 20  1  1
 20 21  1  0
 21 22  2  0
 23 26  1  0
 23 19  1  0
 24 23  2  0
 25 21  1  0
M  END
$$$$
