QMD.pdb
     RDKit          3D

 26 25  0  0  1  0  0  0  0  0999 V2000
    9.2035  -12.4261   17.8327 N   0  0  0  0  0  0  0  0  0  0  0  0
    8.1282  -13.3767   17.6590 C   0  0  0  0  0  0  0  0  0  0  0  0
    7.5972  -13.4770   16.5462 O   0  0  0  0  0  0  0  0  0  0  0  0
    7.6689  -14.2098   18.7822 C   0  0  0  0  0  0  0  0  0  0  0  0
    8.5218  -14.0409   19.9794 C   0  0  0  0  0  0  0  0  0  0  0  0
    8.8660  -15.3378   20.6824 C   0  0  2  0  0  0  0  0  0  0  0  0
    7.7318  -16.2708   20.5601 N   0  0  0  0  0  0  0  0  0  0  0  0
    9.0181  -15.0396   22.1306 C   0  0  0  0  0  0  0  0  0  0  0  0
   10.0444  -14.4416   22.5868 O   0  0  0  0  0  0  0  0  0  0  0  0
    6.8968  -11.7811   27.5543 C   0  0  0  0  0  0  0  0  0  0  0  0
    7.8089  -12.4636   26.1450 S   0  0  0  0  0  0  0  0  0  0  0  0
    6.6606  -13.3106   25.0089 C   0  0  0  0  0  0  0  0  0  0  0  0
    6.8499  -14.8056   25.1196 C   0  0  0  0  0  0  0  0  0  0  0  0
    8.1242  -15.2545   24.4359 C   0  0  2  0  0  0  0  0  0  0  0  0
    7.9743  -15.4432   23.0213 N   0  0  0  0  0  0  0  0  0  0  0  0
    8.5070  -16.5506   25.0493 C   0  0  0  0  0  0  0  0  0  0  0  0
    7.7664  -17.5409   24.8562 O   0  0  0  0  0  0  0  0  0  0  0  0
    9.6857  -16.6820   25.8420 N   0  0  0  0  0  0  0  0  0  0  0  0
   10.0611  -17.9641   26.3331 C   0  0  1  0  0  0  0  0  0  0  0  0
   10.6166  -18.8641   25.2338 C   0  0  0  0  0  0  0  0  0  0  0  0
   11.8966  -18.2938   24.7473 C   0  0  0  0  0  0  0  0  0  0  0  0
   12.9650  -18.4885   25.3731 O   0  0  0  0  0  0  0  0  0  0  0  0
   11.0512  -17.8573   27.4559 C   0  0  0  0  0  0  0  0  0  0  0  0
   11.5579  -16.7399   27.7005 O   0  0  0  0  0  0  0  0  0  0  0  0
   11.8690  -17.5372   23.5778 O   0  0  0  0  0  0  0  0  0  0  0  0
   11.4201  -18.9396   28.2237 O   0  0  0  0  0  0  0  0  0  0  0  0
  2  1  1  0
  3  2  2  0
  4  2  1  0
  5  4  1  0
  6  5  1  0
  6  7  1  1
  8  6  1  0
  9  8  2  0
 11 10  1  0
 11 12  1  0
 14 13  1  1
 13 12  1  0
 14 15  1  0
 15  8  1  0
 16 18  1  0
 16 14  1  0
 17 16  2  0
 19 18  1  0
 19 20  1  6
 20 21  1  0
 21 22  2  0
 23 26  1  0
 23 19  1  0
 24 23  2  0
 25 21  1  0
M  END
$$$$
