QMD.pdb
     RDKit          3D

 26 25  0  0  1  0  0  0  0  0999 V2000
    9.5900  -14.1102   16.6407 N   0  0  0  0  0  0  0  0  0  0  0  0
    8.2246  -13.6756   16.8327 C   0  0  0  0  0  0  0  0  0  0  0  0
    7.4774  -13.6105   15.8488 O   0  0  0  0  0  0  0  0  0  0  0  0
    7.7287  -13.3142   18.1706 C   0  0  0  0  0  0  0  0  0  0  0  0
    8.7173  -13.6229   19.2274 C   0  0  0  0  0  0  0  0  0  0  0  0
    8.4557  -14.9231   19.9592 C   0  0  2  0  0  0  0  0  0  0  0  0
    7.0089  -15.2030   19.9474 N   0  0  0  0  0  0  0  0  0  0  0  0
    8.8398  -14.7256   21.3816 C   0  0  0  0  0  0  0  0  0  0  0  0
   10.0286  -14.4212   21.7178 O   0  0  0  0  0  0  0  0  0  0  0  0
    6.0861  -11.4516   26.4827 C   0  0  0  0  0  0  0  0  0  0  0  0
    7.6652  -12.3355   26.3885 S   0  0  0  0  0  0  0  0  0  0  0  0
    7.3715  -14.1065   26.0659 C   0  0  0  0  0  0  0  0  0  0  0  0
    6.9763  -14.2987   24.6202 C   0  0  0  0  0  0  0  0  0  0  0  0
    8.1643  -14.6957   23.7695 C   0  0  2  0  0  0  0  0  0  0  0  0
    7.8345  -14.8866   22.3860 N   0  0  0  0  0  0  0  0  0  0  0  0
    8.6751  -15.9773   24.3164 C   0  0  0  0  0  0  0  0  0  0  0  0
    8.0128  -17.0185   24.1071 O   0  0  0  0  0  0  0  0  0  0  0  0
    9.8882  -16.0390   25.0644 N   0  0  0  0  0  0  0  0  0  0  0  0
   10.4123  -17.3057   25.4474 C   0  0  1  0  0  0  0  0  0  0  0  0
   11.8083  -17.5483   24.8822 C   0  0  0  0  0  0  0  0  0  0  0  0
   12.2745  -18.8890   25.3132 C   0  0  0  0  0  0  0  0  0  0  0  0
   11.5420  -19.8971   25.1784 O   0  0  0  0  0  0  0  0  0  0  0  0
   10.4289  -17.4685   26.9392 C   0  0  0  0  0  0  0  0  0  0  0  0
   10.8254  -18.5548   27.4166 O   0  0  0  0  0  0  0  0  0  0  0  0
   13.5472  -18.9870   25.8713 O   0  0  0  0  0  0  0  0  0  0  0  0
   10.0260  -16.4699   27.7980 O   0  0  0  0  0  0  0  0  0  0  0  0
  2  1  1  0
  3  2  2  0
  4  2  1  0
  5  4  1  0
  6  5  1  0
  6  7  1  1
  8  6  1  0
  9  8  2  0
 11 10  1  0
 11 12  1  0
 14 13  1  1
 13 12  1  0
 14 15  1  0
 15  8  1  0
 16 18  1  0
 16 14  1  0
 17 16  2  0
 19 18  1  0
 19 20  1  1
 20 21  1  0
 21 22  2  0
 23 26  1  0
 23 19  1  0
 24 23  2  0
 25 21  1  0
M  END
$$$$
