QMD.pdb
     RDKit          3D

 26 25  0  0  1  0  0  0  0  0999 V2000
    7.6540  -14.8811   17.3486 N   0  0  0  0  0  0  0  0  0  0  0  0
    8.2686  -13.7776   18.0520 C   0  0  0  0  0  0  0  0  0  0  0  0
    9.0826  -13.0676   17.4488 O   0  0  0  0  0  0  0  0  0  0  0  0
    7.9375  -13.5015   19.4593 C   0  0  0  0  0  0  0  0  0  0  0  0
    7.0846  -14.5602   20.0434 C   0  0  0  0  0  0  0  0  0  0  0  0
    7.8489  -15.6136   20.8185 C   0  0  2  0  0  0  0  0  0  0  0  0
    6.8957  -16.5815   21.3898 N   0  0  0  0  0  0  0  0  0  0  0  0
    8.5099  -14.9386   21.9661 C   0  0  0  0  0  0  0  0  0  0  0  0
    9.5141  -14.1740   21.8050 O   0  0  0  0  0  0  0  0  0  0  0  0
    6.7764  -11.6594   27.5645 C   0  0  0  0  0  0  0  0  0  0  0  0
    5.6681  -12.3163   26.2901 S   0  0  0  0  0  0  0  0  0  0  0  0
    6.6420  -13.0215   24.9185 C   0  0  0  0  0  0  0  0  0  0  0  0
    7.5745  -14.0831   25.4536 C   0  0  0  0  0  0  0  0  0  0  0  0
    8.5846  -14.5103   24.4096 C   0  0  2  0  0  0  0  0  0  0  0  0
    7.9913  -15.1661   23.2794 N   0  0  0  0  0  0  0  0  0  0  0  0
    9.5140  -15.4578   25.0736 C   0  0  0  0  0  0  0  0  0  0  0  0
   10.0517  -15.1079   26.1482 O   0  0  0  0  0  0  0  0  0  0  0  0
    9.7990  -16.7390   24.5146 N   0  0  0  0  0  0  0  0  0  0  0  0
   10.7989  -17.5576   25.1112 C   0  0  1  0  0  0  0  0  0  0  0  0
   10.3272  -18.9949   25.3084 C   0  0  0  0  0  0  0  0  0  0  0  0
    9.6960  -19.1139   26.6456 C   0  0  0  0  0  0  0  0  0  0  0  0
   10.0860  -18.4074   27.6046 O   0  0  0  0  0  0  0  0  0  0  0  0
   12.0722  -17.5415   24.3171 C   0  0  0  0  0  0  0  0  0  0  0  0
   12.1130  -16.8603   23.2685 O   0  0  0  0  0  0  0  0  0  0  0  0
    8.6616  -20.0347   26.7972 O   0  0  0  0  0  0  0  0  0  0  0  0
   13.1926  -18.2457   24.6992 O   0  0  0  0  0  0  0  0  0  0  0  0
  2  1  1  0
  3  2  2  0
  4  2  1  0
  5  4  1  0
  6  5  1  0
  6  7  1  1
  8  6  1  0
  9  8  2  0
 11 10  1  0
 11 12  1  0
 14 13  1  1
 13 12  1  0
 14 15  1  0
 15  8  1  0
 16 18  1  0
 16 14  1  0
 17 16  2  0
 19 18  1  0
 19 20  1  6
 20 21  1  0
 21 22  2  0
 23 26  1  0
 23 19  1  0
 24 23  2  0
 25 21  1  0
M  END
$$$$
