QMD.pdb
     RDKit          3D

 26 25  0  0  1  0  0  0  0  0999 V2000
    7.6972  -12.0713   18.9954 N   0  0  0  0  0  0  0  0  0  0  0  0
    7.5274  -13.4899   18.7742 C   0  0  0  0  0  0  0  0  0  0  0  0
    7.2779  -13.8875   17.6296 O   0  0  0  0  0  0  0  0  0  0  0  0
    7.6458  -14.4465   19.8866 C   0  0  0  0  0  0  0  0  0  0  0  0
    9.0211  -14.9772   20.0139 C   0  0  0  0  0  0  0  0  0  0  0  0
    9.1905  -15.9995   21.1188 C   0  0  2  0  0  0  0  0  0  0  0  0
    7.9641  -16.8102   21.2208 N   0  0  0  0  0  0  0  0  0  0  0  0
    9.3203  -15.2600   22.4017 C   0  0  0  0  0  0  0  0  0  0  0  0
   10.2883  -14.4637   22.6204 O   0  0  0  0  0  0  0  0  0  0  0  0
    5.8920  -11.0866   25.4252 C   0  0  0  0  0  0  0  0  0  0  0  0
    5.9740  -12.3099   26.7597 S   0  0  0  0  0  0  0  0  0  0  0  0
    7.3664  -13.4530   26.4744 C   0  0  0  0  0  0  0  0  0  0  0  0
    7.1657  -14.1779   25.1640 C   0  0  0  0  0  0  0  0  0  0  0  0
    8.4501  -14.8203   24.6840 C   0  0  2  0  0  0  0  0  0  0  0  0
    8.3225  -15.4612   23.4064 N   0  0  0  0  0  0  0  0  0  0  0  0
    8.8216  -15.8434   25.6928 C   0  0  0  0  0  0  0  0  0  0  0  0
    8.8845  -15.4980   26.8941 O   0  0  0  0  0  0  0  0  0  0  0  0
    9.1035  -17.1912   25.3200 N   0  0  0  0  0  0  0  0  0  0  0  0
    9.4184  -18.1462   26.3274 C   0  0  1  0  0  0  0  0  0  0  0  0
    8.6873  -19.4687   26.1188 C   0  0  0  0  0  0  0  0  0  0  0  0
    7.2258  -19.2149   26.1209 C   0  0  0  0  0  0  0  0  0  0  0  0
    6.7752  -18.0594   26.3022 O   0  0  0  0  0  0  0  0  0  0  0  0
   10.8970  -18.3876   26.4168 C   0  0  0  0  0  0  0  0  0  0  0  0
   11.6385  -17.8778   25.5477 O   0  0  0  0  0  0  0  0  0  0  0  0
    6.3765  -20.3003   25.9168 O   0  0  0  0  0  0  0  0  0  0  0  0
   11.4646  -19.1461   27.4165 O   0  0  0  0  0  0  0  0  0  0  0  0
  2  1  1  0
  3  2  2  0
  4  2  1  0
  5  4  1  0
  6  5  1  0
  6  7  1  1
  8  6  1  0
  9  8  2  0
 11 10  1  0
 11 12  1  0
 14 13  1  1
 13 12  1  0
 14 15  1  0
 15  8  1  0
 16 18  1  0
 16 14  1  0
 17 16  2  0
 19 18  1  0
 19 20  1  6
 20 21  1  0
 21 22  2  0
 23 26  1  0
 23 19  1  0
 24 23  2  0
 25 21  1  0
M  END
$$$$
