QMD.pdb
     RDKit          3D

 26 25  0  0  1  0  0  0  0  0999 V2000
    8.8125  -12.2785   18.3073 N   0  0  0  0  0  0  0  0  0  0  0  0
    8.0975  -13.4905   17.9758 C   0  0  0  0  0  0  0  0  0  0  0  0
    7.7481  -13.6728   16.8030 O   0  0  0  0  0  0  0  0  0  0  0  0
    7.7866  -14.4903   19.0103 C   0  0  0  0  0  0  0  0  0  0  0  0
    8.3765  -14.1317   20.3191 C   0  0  0  0  0  0  0  0  0  0  0  0
    9.0156  -15.2946   21.0496 C   0  0  2  0  0  0  0  0  0  0  0  0
    8.1210  -16.4634   20.9760 N   0  0  0  0  0  0  0  0  0  0  0  0
    9.1163  -14.9250   22.4859 C   0  0  0  0  0  0  0  0  0  0  0  0
    9.8843  -13.9922   22.8848 O   0  0  0  0  0  0  0  0  0  0  0  0
    6.2474  -11.2611   26.8910 C   0  0  0  0  0  0  0  0  0  0  0  0
    7.4192  -12.4352   26.1614 S   0  0  0  0  0  0  0  0  0  0  0  0
    6.5316  -13.6299   25.1071 C   0  0  0  0  0  0  0  0  0  0  0  0
    7.0048  -15.0303   25.4203 C   0  0  0  0  0  0  0  0  0  0  0  0
    8.3697  -15.3003   24.8228 C   0  0  2  0  0  0  0  0  0  0  0  0
    8.3226  -15.6474   23.4312 N   0  0  0  0  0  0  0  0  0  0  0  0
    8.9507  -16.4393   25.5763 C   0  0  0  0  0  0  0  0  0  0  0  0
    8.6857  -16.5423   26.7951 O   0  0  0  0  0  0  0  0  0  0  0  0
    9.7923  -17.4014   24.9430 N   0  0  0  0  0  0  0  0  0  0  0  0
   10.4331  -18.3989   25.7305 C   0  0  1  0  0  0  0  0  0  0  0  0
   11.6109  -19.0406   25.0038 C   0  0  0  0  0  0  0  0  0  0  0  0
   11.2407  -19.2529   23.5831 C   0  0  0  0  0  0  0  0  0  0  0  0
   10.1306  -19.7473   23.2761 O   0  0  0  0  0  0  0  0  0  0  0  0
   10.8844  -17.8527   27.0535 C   0  0  0  0  0  0  0  0  0  0  0  0
   10.5462  -18.4571   28.0953 O   0  0  0  0  0  0  0  0  0  0  0  0
   12.1658  -18.8868   22.6079 O   0  0  0  0  0  0  0  0  0  0  0  0
   11.6541  -16.7157   27.1619 O   0  0  0  0  0  0  0  0  0  0  0  0
  2  1  1  0
  3  2  2  0
  4  2  1  0
  5  4  1  0
  6  5  1  0
  6  7  1  1
  8  6  1  0
  9  8  2  0
 11 10  1  0
 11 12  1  0
 14 13  1  1
 13 12  1  0
 14 15  1  0
 15  8  1  0
 16 18  1  0
 16 14  1  0
 17 16  2  0
 19 18  1  0
 19 20  1  6
 20 21  1  0
 21 22  2  0
 23 26  1  0
 23 19  1  0
 24 23  2  0
 25 21  1  0
M  END
$$$$
