QMD.pdb
     RDKit          3D

 26 25  0  0  1  0  0  0  0  0999 V2000
    8.4994  -12.4738   17.6083 N   0  0  0  0  0  0  0  0  0  0  0  0
    7.6170  -13.6183   17.5668 C   0  0  0  0  0  0  0  0  0  0  0  0
    6.6316  -13.5825   16.8197 O   0  0  0  0  0  0  0  0  0  0  0  0
    7.8804  -14.8046   18.3973 C   0  0  0  0  0  0  0  0  0  0  0  0
    9.1478  -14.6804   19.1508 C   0  0  0  0  0  0  0  0  0  0  0  0
    9.4336  -15.8439   20.0777 C   0  0  2  0  0  0  0  0  0  0  0  0
    8.2537  -16.7255   20.1265 N   0  0  0  0  0  0  0  0  0  0  0  0
    9.6130  -15.2960   21.4477 C   0  0  0  0  0  0  0  0  0  0  0  0
   10.5661  -14.5023   21.7318 O   0  0  0  0  0  0  0  0  0  0  0  0
    6.8566  -11.8962   27.6995 C   0  0  0  0  0  0  0  0  0  0  0  0
    6.4998  -12.7124   26.1214 S   0  0  0  0  0  0  0  0  0  0  0  0
    7.8834  -13.8065   25.6572 C   0  0  0  0  0  0  0  0  0  0  0  0
    7.6812  -14.3069   24.2459 C   0  0  0  0  0  0  0  0  0  0  0  0
    8.8304  -15.1866   23.8004 C   0  0  2  0  0  0  0  0  0  0  0  0
    8.6813  -15.6820   22.4619 N   0  0  0  0  0  0  0  0  0  0  0  0
    8.8732  -16.3415   24.7315 C   0  0  0  0  0  0  0  0  0  0  0  0
    8.4052  -17.4354   24.3431 O   0  0  0  0  0  0  0  0  0  0  0  0
    9.4298  -16.2252   26.0398 N   0  0  0  0  0  0  0  0  0  0  0  0
   10.2678  -17.2612   26.5399 C   0  0  1  0  0  0  0  0  0  0  0  0
   11.5371  -17.4289   25.7106 C   0  0  0  0  0  0  0  0  0  0  0  0
   11.4775  -18.7291   24.9990 C   0  0  0  0  0  0  0  0  0  0  0  0
   10.4832  -19.4825   25.1208 O   0  0  0  0  0  0  0  0  0  0  0  0
   10.6238  -17.0367   27.9805 C   0  0  0  0  0  0  0  0  0  0  0  0
   11.0295  -15.9046   28.3255 O   0  0  0  0  0  0  0  0  0  0  0  0
   12.5602  -19.0819   24.1963 O   0  0  0  0  0  0  0  0  0  0  0  0
   10.5203  -18.0269   28.9322 O   0  0  0  0  0  0  0  0  0  0  0  0
  2  1  1  0
  3  2  2  0
  4  2  1  0
  5  4  1  0
  6  5  1  0
  6  7  1  1
  8  6  1  0
  9  8  2  0
 11 10  1  0
 11 12  1  0
 14 13  1  1
 13 12  1  0
 14 15  1  0
 15  8  1  0
 16 18  1  0
 16 14  1  0
 17 16  2  0
 19 18  1  0
 19 20  1  6
 20 21  1  0
 21 22  2  0
 23 26  1  0
 23 19  1  0
 24 23  2  0
 25 21  1  0
M  END
$$$$
