QMD.pdb
     RDKit          3D

 26 25  0  0  1  0  0  0  0  0999 V2000
    9.5702  -18.4756   17.3152 N   0  0  0  0  0  0  0  0  0  0  0  0
    9.1889  -17.0818   17.3636 C   0  0  0  0  0  0  0  0  0  0  0  0
    8.2821  -16.6873   16.6202 O   0  0  0  0  0  0  0  0  0  0  0  0
    9.8652  -16.1458   18.2762 C   0  0  0  0  0  0  0  0  0  0  0  0
    8.9473  -15.6274   19.3146 C   0  0  0  0  0  0  0  0  0  0  0  0
    8.7091  -16.5845   20.4642 C   0  0  2  0  0  0  0  0  0  0  0  0
    7.2634  -16.8419   20.5887 N   0  0  0  0  0  0  0  0  0  0  0  0
    9.1293  -15.9006   21.7153 C   0  0  0  0  0  0  0  0  0  0  0  0
   10.3459  -15.6027   21.9392 O   0  0  0  0  0  0  0  0  0  0  0  0
    7.1008  -10.8113   26.1081 C   0  0  0  0  0  0  0  0  0  0  0  0
    6.5848  -12.4912   26.5506 S   0  0  0  0  0  0  0  0  0  0  0  0
    7.8175  -13.6990   25.9604 C   0  0  0  0  0  0  0  0  0  0  0  0
    7.3812  -14.2559   24.6252 C   0  0  0  0  0  0  0  0  0  0  0  0
    8.5046  -15.0108   23.9463 C   0  0  2  0  0  0  0  0  0  0  0  0
    8.1271  -15.5768   22.6828 N   0  0  0  0  0  0  0  0  0  0  0  0
    8.8964  -16.1118   24.8611 C   0  0  0  0  0  0  0  0  0  0  0  0
    8.0451  -16.9871   25.1361 O   0  0  0  0  0  0  0  0  0  0  0  0
   10.2059  -16.1858   25.4221 N   0  0  0  0  0  0  0  0  0  0  0  0
   10.5727  -17.3202   26.1995 C   0  0  1  0  0  0  0  0  0  0  0  0
   11.9610  -17.8415   25.8420 C   0  0  0  0  0  0  0  0  0  0  0  0
   12.0481  -19.2735   26.2192 C   0  0  0  0  0  0  0  0  0  0  0  0
   11.0715  -19.8601   26.7416 O   0  0  0  0  0  0  0  0  0  0  0  0
   10.4983  -17.0296   27.6700 C   0  0  0  0  0  0  0  0  0  0  0  0
   10.8224  -15.8895   28.0701 O   0  0  0  0  0  0  0  0  0  0  0  0
   13.2475  -19.9389   25.9750 O   0  0  0  0  0  0  0  0  0  0  0  0
   10.0875  -17.9679   28.5907 O   0  0  0  0  0  0  0  0  0  0  0  0
  2  1  1  0
  3  2  2  0
  4  2  1  0
  5  4  1  0
  6  5  1  0
  6  7  1  1
  8  6  1  0
  9  8  2  0
 11 10  1  0
 11 12  1  0
 14 13  1  1
 13 12  1  0
 14 15  1  0
 15  8  1  0
 16 18  1  0
 16 14  1  0
 17 16  2  0
 19 18  1  0
 19 20  1  6
 20 21  1  0
 21 22  2  0
 23 26  1  0
 23 19  1  0
 24 23  2  0
 25 21  1  0
M  END
$$$$
