QMD.pdb
     RDKit          3D

 26 25  0  0  1  0  0  0  0  0999 V2000
    6.4821  -15.7079   17.2284 N   0  0  0  0  0  0  0  0  0  0  0  0
    7.6081  -14.8093   17.3504 C   0  0  0  0  0  0  0  0  0  0  0  0
    8.5365  -14.9058   16.5384 O   0  0  0  0  0  0  0  0  0  0  0  0
    7.6549  -13.7991   18.4198 C   0  0  0  0  0  0  0  0  0  0  0  0
    8.9217  -13.8606   19.1820 C   0  0  0  0  0  0  0  0  0  0  0  0
    8.9746  -14.9756   20.2060 C   0  0  2  0  0  0  0  0  0  0  0  0
    7.6367  -15.5804   20.3330 N   0  0  0  0  0  0  0  0  0  0  0  0
    9.2926  -14.3642   21.5230 C   0  0  0  0  0  0  0  0  0  0  0  0
   10.3841  -13.7428   21.7265 O   0  0  0  0  0  0  0  0  0  0  0  0
    5.8403  -12.3837   28.1176 C   0  0  0  0  0  0  0  0  0  0  0  0
    6.4263  -11.7198   26.5365 S   0  0  0  0  0  0  0  0  0  0  0  0
    7.7953  -12.7425   25.8987 C   0  0  0  0  0  0  0  0  0  0  0  0
    7.4665  -13.2137   24.5012 C   0  0  0  0  0  0  0  0  0  0  0  0
    8.6293  -13.9583   23.8799 C   0  0  2  0  0  0  0  0  0  0  0  0
    8.3356  -14.4875   22.5787 N   0  0  0  0  0  0  0  0  0  0  0  0
    8.9519  -15.0863   24.7888 C   0  0  0  0  0  0  0  0  0  0  0  0
    9.2937  -14.8234   25.9638 O   0  0  0  0  0  0  0  0  0  0  0  0
    8.8798  -16.4420   24.3506 N   0  0  0  0  0  0  0  0  0  0  0  0
    9.2356  -17.4885   25.2472 C   0  0  1  0  0  0  0  0  0  0  0  0
    9.0470  -18.8696   24.6274 C   0  0  0  0  0  0  0  0  0  0  0  0
    9.4044  -19.9000   25.6328 C   0  0  0  0  0  0  0  0  0  0  0  0
    9.7216  -19.5743   26.8009 O   0  0  0  0  0  0  0  0  0  0  0  0
   10.6447  -17.3376   25.7412 C   0  0  0  0  0  0  0  0  0  0  0  0
   11.5764  -17.3716   24.9069 O   0  0  0  0  0  0  0  0  0  0  0  0
    9.3769  -21.2349   25.2347 O   0  0  0  0  0  0  0  0  0  0  0  0
   10.9481  -17.1632   27.0733 O   0  0  0  0  0  0  0  0  0  0  0  0
  2  1  1  0
  3  2  2  0
  4  2  1  0
  5  4  1  0
  6  5  1  0
  6  7  1  1
  8  6  1  0
  9  8  2  0
 11 10  1  0
 11 12  1  0
 14 13  1  1
 13 12  1  0
 14 15  1  0
 15  8  1  0
 16 18  1  0
 16 14  1  0
 17 16  2  0
 19 18  1  0
 19 20  1  6
 20 21  1  0
 21 22  2  0
 23 26  1  0
 23 19  1  0
 24 23  2  0
 25 21  1  0
M  END
$$$$
