NFC.pdb
     RDKit          3D

 26 26  0  0  1  0  0  0  0  0999 V2000
   27.1731  -16.3372  -20.3385 N   0  0  0  0  0  0  0  0  0  0  0  0
   26.2564  -17.4090  -20.4589 C   0  0  0  0  0  0  0  0  0  0  0  0
   25.4819  -17.4345  -21.4490 O   0  0  0  0  0  0  0  0  0  0  0  0
   26.1662  -18.5074  -19.4681 C   0  0  0  0  0  0  0  0  0  0  0  0
   27.1109  -18.2725  -18.3091 C   0  0  2  0  0  0  0  0  0  0  0  0
   28.4520  -18.6364  -18.6687 N   0  0  0  0  0  0  0  0  0  0  0  0
   26.5853  -19.0549  -17.1590 C   0  0  0  0  0  0  0  0  0  0  0  0
   26.0127  -20.1340  -17.4031 O   0  0  0  0  0  0  0  0  0  0  0  0
   26.6956  -18.6504  -15.8127 N   0  0  0  0  0  0  0  0  0  0  0  0
   26.2425  -19.4057  -14.6817 C   0  0  1  0  0  0  0  0  0  0  0  0
   26.9402  -19.1320  -13.4098 C   0  0  0  0  0  0  0  0  0  0  0  0
   26.4682  -19.8459  -12.2331 C   0  0  0  0  0  0  0  0  0  0  0  0
   26.9046  -21.1362  -12.0251 C   0  0  0  0  0  0  0  0  0  0  0  0
   26.5039  -21.8984  -10.9228 C   0  0  0  0  0  0  0  0  0  0  0  0
   25.6501  -21.3684  -10.0050 C   0  0  0  0  0  0  0  0  0  0  0  0
   25.2062  -20.0795  -10.2012 C   0  0  0  0  0  0  0  0  0  0  0  0
   25.6053  -19.3364  -11.2883 C   0  0  0  0  0  0  0  0  0  0  0  0
   24.7749  -19.3582  -14.5721 C   0  0  0  0  0  0  0  0  0  0  0  0
   24.1725  -18.2372  -14.4683 O   0  0  0  0  0  0  0  0  0  0  0  0
   23.9600  -20.5272  -14.5788 N   0  0  0  0  0  0  0  0  0  0  0  0
   22.5275  -20.4736  -14.3654 C   0  0  1  0  0  0  0  0  0  0  0  0
   21.8354  -21.6478  -15.0543 C   0  0  0  0  0  0  0  0  0  0  0  0
   20.7562  -21.0016  -16.3645 S   0  0  0  0  0  0  0  0  0  0  0  0
   22.2389  -20.5808  -12.9258 C   0  0  0  0  0  0  0  0  0  0  0  0
   21.1693  -19.9796  -12.2885 O   0  0  0  0  0  0  0  0  0  0  0  0
   23.0045  -21.2680  -12.1669 O   0  0  0  0  0  0  0  0  0  0  0  0
  2  1  1  0
  3  2  2  0
  4  2  1  0
  5  4  1  0
  5  6  1  6
  7  9  1  0
  7  5  1  0
  8  7  2  0
 10  9  1  0
 10 11  1  1
 11 12  1  0
 12 17  2  0
 12 13  1  0
 13 14  2  0
 14 15  1  0
 16 15  2  0
 17 16  1  0
 18 20  1  0
 18 10  1  0
 19 18  2  0
 21 20  1  0
 21 24  1  0
 21 22  1  6
 22 23  1  0
 24 25  1  0
 26 24  2  0
M  END
$$$$
