NFC.pdb
     RDKit          3D

 26 26  0  0  1  0  0  0  0  0999 V2000
   28.7394  -18.1342  -17.0827 N   0  0  0  0  0  0  0  0  0  0  0  0
   28.3711  -18.0364  -15.7194 C   0  0  0  0  0  0  0  0  0  0  0  0
   28.9331  -17.1708  -15.0014 O   0  0  0  0  0  0  0  0  0  0  0  0
   27.3496  -18.9105  -15.0959 C   0  0  0  0  0  0  0  0  0  0  0  0
   27.9735  -19.8232  -14.0621 C   0  0  2  0  0  0  0  0  0  0  0  0
   28.9189  -20.7112  -14.6768 N   0  0  0  0  0  0  0  0  0  0  0  0
   26.8573  -20.5387  -13.3888 C   0  0  0  0  0  0  0  0  0  0  0  0
   26.4312  -21.5818  -13.9200 O   0  0  0  0  0  0  0  0  0  0  0  0
   26.2539  -20.1091  -12.1890 N   0  0  0  0  0  0  0  0  0  0  0  0
   25.2308  -20.8173  -11.4772 C   0  0  1  0  0  0  0  0  0  0  0  0
   25.1180  -20.5020  -10.0393 C   0  0  0  0  0  0  0  0  0  0  0  0
   26.3355  -20.5928   -9.2479 C   0  0  0  0  0  0  0  0  0  0  0  0
   26.4625  -19.7866   -8.1378 C   0  0  0  0  0  0  0  0  0  0  0  0
   27.5962  -19.8056   -7.3188 C   0  0  0  0  0  0  0  0  0  0  0  0
   28.6286  -20.6441   -7.6075 C   0  0  0  0  0  0  0  0  0  0  0  0
   28.5144  -21.4553   -8.7147 C   0  0  0  0  0  0  0  0  0  0  0  0
   27.3957  -21.4305   -9.5152 C   0  0  0  0  0  0  0  0  0  0  0  0
   23.9486  -20.7530  -12.1981 C   0  0  0  0  0  0  0  0  0  0  0  0
   23.5590  -19.6563  -12.7232 O   0  0  0  0  0  0  0  0  0  0  0  0
   23.0901  -21.8798  -12.3527 N   0  0  0  0  0  0  0  0  0  0  0  0
   21.8089  -21.7907  -13.0243 C   0  0  1  0  0  0  0  0  0  0  0  0
   21.2609  -23.1836  -13.3273 C   0  0  0  0  0  0  0  0  0  0  0  0
   19.5824  -23.0163  -14.0006 S   0  0  0  0  0  0  0  0  0  0  0  0
   20.8366  -21.1212  -12.1450 C   0  0  0  0  0  0  0  0  0  0  0  0
   19.8016  -20.3153  -12.5820 O   0  0  0  0  0  0  0  0  0  0  0  0
   20.9134  -21.2634  -10.8768 O   0  0  0  0  0  0  0  0  0  0  0  0
  2  1  1  0
  3  2  2  0
  4  2  1  0
  5  4  1  0
  5  6  1  6
  7  9  1  0
  7  5  1  0
  8  7  2  0
 10  9  1  0
 10 11  1  1
 11 12  1  0
 12 17  2  0
 12 13  1  0
 13 14  2  0
 14 15  1  0
 16 15  2  0
 17 16  1  0
 18 20  1  0
 18 10  1  0
 19 18  2  0
 21 20  1  0
 21 24  1  0
 21 22  1  1
 22 23  1  0
 24 25  1  0
 26 24  2  0
M  END
$$$$
