NFC.pdb
     RDKit          3D

 26 26  0  0  1  0  0  0  0  0999 V2000
   22.2986  -14.8467  -18.5940 N   0  0  0  0  0  0  0  0  0  0  0  0
   21.7067  -13.5756  -18.7873 C   0  0  0  0  0  0  0  0  0  0  0  0
   21.0666  -13.3612  -19.8480 O   0  0  0  0  0  0  0  0  0  0  0  0
   21.8064  -12.4807  -17.7937 C   0  0  0  0  0  0  0  0  0  0  0  0
   21.7588  -11.1274  -18.4699 C   0  0  2  0  0  0  0  0  0  0  0  0
   22.8744  -10.9673  -19.3588 N   0  0  0  0  0  0  0  0  0  0  0  0
   21.7258  -10.1062  -17.3895 C   0  0  0  0  0  0  0  0  0  0  0  0
   21.0357  -10.3489  -16.3812 O   0  0  0  0  0  0  0  0  0  0  0  0
   22.4263   -8.8835  -17.4372 N   0  0  0  0  0  0  0  0  0  0  0  0
   22.4032   -7.8760  -16.4177 C   0  0  1  0  0  0  0  0  0  0  0  0
   23.7210   -7.3506  -16.0090 C   0  0  0  0  0  0  0  0  0  0  0  0
   24.7602   -8.3285  -15.7246 C   0  0  0  0  0  0  0  0  0  0  0  0
   25.8742   -8.3619  -16.5347 C   0  0  0  0  0  0  0  0  0  0  0  0
   26.9222   -9.2670  -16.3372 C   0  0  0  0  0  0  0  0  0  0  0  0
   26.8641  -10.1602  -15.3120 C   0  0  0  0  0  0  0  0  0  0  0  0
   25.7558  -10.1373  -14.4947 C   0  0  0  0  0  0  0  0  0  0  0  0
   24.7291   -9.2437  -14.6957 C   0  0  0  0  0  0  0  0  0  0  0  0
   21.4228   -6.8256  -16.7391 C   0  0  0  0  0  0  0  0  0  0  0  0
   21.5303   -6.1524  -17.8187 O   0  0  0  0  0  0  0  0  0  0  0  0
   20.3228   -6.5078  -15.8908 N   0  0  0  0  0  0  0  0  0  0  0  0
   19.3276   -5.5179  -16.2516 C   0  0  1  0  0  0  0  0  0  0  0  0
   17.9422   -5.9469  -15.7730 C   0  0  0  0  0  0  0  0  0  0  0  0
   17.4679   -7.4668  -16.6470 S   0  0  0  0  0  0  0  0  0  0  0  0
   19.6409   -4.2401  -15.5912 C   0  0  0  0  0  0  0  0  0  0  0  0
   18.8731   -3.0941  -15.6853 O   0  0  0  0  0  0  0  0  0  0  0  0
   20.6892   -4.1313  -14.8677 O   0  0  0  0  0  0  0  0  0  0  0  0
  2  1  1  0
  3  2  2  0
  4  2  1  0
  5  4  1  0
  5  6  1  6
  7  9  1  0
  7  5  1  0
  8  7  2  0
 10  9  1  0
 10 11  1  6
 11 12  1  0
 12 17  2  0
 12 13  1  0
 13 14  2  0
 14 15  1  0
 16 15  2  0
 17 16  1  0
 18 20  1  0
 18 10  1  0
 19 18  2  0
 21 20  1  0
 21 24  1  0
 21 22  1  1
 22 23  1  0
 24 25  1  0
 26 24  2  0
M  END
$$$$
