NFC.pdb
     RDKit          3D

 26 26  0  0  1  0  0  0  0  0999 V2000
   28.8695  -20.5478  -20.3830 N   0  0  0  0  0  0  0  0  0  0  0  0
   27.5399  -20.8160  -19.9786 C   0  0  0  0  0  0  0  0  0  0  0  0
   26.6131  -20.6793  -20.8171 O   0  0  0  0  0  0  0  0  0  0  0  0
   27.1872  -21.2524  -18.6069 C   0  0  0  0  0  0  0  0  0  0  0  0
   28.4198  -21.3482  -17.7336 C   0  0  2  0  0  0  0  0  0  0  0  0
   29.3039  -22.3701  -18.2177 N   0  0  0  0  0  0  0  0  0  0  0  0
   27.9469  -21.5988  -16.3462 C   0  0  0  0  0  0  0  0  0  0  0  0
   27.6375  -22.7658  -16.0394 O   0  0  0  0  0  0  0  0  0  0  0  0
   27.8278  -20.5981  -15.3599 N   0  0  0  0  0  0  0  0  0  0  0  0
   27.3428  -20.8036  -14.0267 C   0  0  1  0  0  0  0  0  0  0  0  0
   27.8738  -19.8802  -13.0044 C   0  0  0  0  0  0  0  0  0  0  0  0
   27.3670  -20.0363  -11.6495 C   0  0  0  0  0  0  0  0  0  0  0  0
   28.0088  -20.9127  -10.8019 C   0  0  0  0  0  0  0  0  0  0  0  0
   27.5925  -21.1271   -9.4839 C   0  0  0  0  0  0  0  0  0  0  0  0
   26.5140  -20.4564   -8.9948 C   0  0  0  0  0  0  0  0  0  0  0  0
   25.8633  -19.5772   -9.8318 C   0  0  0  0  0  0  0  0  0  0  0  0
   26.2793  -19.3721  -11.1272 C   0  0  0  0  0  0  0  0  0  0  0  0
   25.8749  -20.9179  -14.0135 C   0  0  0  0  0  0  0  0  0  0  0  0
   25.1625  -20.1557  -14.7495 O   0  0  0  0  0  0  0  0  0  0  0  0
   25.1793  -21.8623  -13.2041 N   0  0  0  0  0  0  0  0  0  0  0  0
   23.7321  -21.9195  -13.1513 C   0  0  1  0  0  0  0  0  0  0  0  0
   23.2688  -22.7647  -11.9667 C   0  0  0  0  0  0  0  0  0  0  0  0
   23.1748  -21.7045  -10.4949 S   0  0  0  0  0  0  0  0  0  0  0  0
   23.1917  -20.5639  -12.9578 C   0  0  0  0  0  0  0  0  0  0  0  0
   21.8807  -20.1955  -13.1970 O   0  0  0  0  0  0  0  0  0  0  0  0
   23.9507  -19.6235  -12.5407 O   0  0  0  0  0  0  0  0  0  0  0  0
  2  1  1  0
  3  2  2  0
  4  2  1  0
  5  4  1  0
  5  6  1  6
  7  9  1  0
  7  5  1  0
  8  7  2  0
 10  9  1  0
 10 11  1  1
 11 12  1  0
 12 17  2  0
 12 13  1  0
 13 14  2  0
 14 15  1  0
 16 15  2  0
 17 16  1  0
 18 20  1  0
 18 10  1  0
 19 18  2  0
 21 20  1  0
 21 24  1  0
 21 22  1  1
 22 23  1  0
 24 25  1  0
 26 24  2  0
M  END
$$$$
