NFC.pdb
     RDKit          3D

 26 26  0  0  1  0  0  0  0  0999 V2000
   23.4284  -10.3129  -22.0799 N   0  0  0  0  0  0  0  0  0  0  0  0
   22.1125  -10.0787  -21.6141 C   0  0  0  0  0  0  0  0  0  0  0  0
   21.2086   -9.8327  -22.4527 O   0  0  0  0  0  0  0  0  0  0  0  0
   21.7485  -10.1098  -20.1779 C   0  0  0  0  0  0  0  0  0  0  0  0
   22.9523  -10.4333  -19.3193 C   0  0  2  0  0  0  0  0  0  0  0  0
   23.1511  -11.8527  -19.2419 N   0  0  0  0  0  0  0  0  0  0  0  0
   22.7160   -9.8067  -17.9916 C   0  0  0  0  0  0  0  0  0  0  0  0
   22.0503  -10.4479  -17.1564 O   0  0  0  0  0  0  0  0  0  0  0  0
   23.1984   -8.5343  -17.6220 N   0  0  0  0  0  0  0  0  0  0  0  0
   23.0262   -7.9254  -16.3358 C   0  0  1  0  0  0  0  0  0  0  0  0
   24.2705   -7.6132  -15.6051 C   0  0  0  0  0  0  0  0  0  0  0  0
   25.2656   -8.6711  -15.5177 C   0  0  0  0  0  0  0  0  0  0  0  0
   25.1052   -9.6505  -14.5620 C   0  0  0  0  0  0  0  0  0  0  0  0
   26.0107  -10.7050  -14.4047 C   0  0  0  0  0  0  0  0  0  0  0  0
   27.1012  -10.7902  -15.2145 C   0  0  0  0  0  0  0  0  0  0  0  0
   27.2733   -9.8175  -16.1742 C   0  0  0  0  0  0  0  0  0  0  0  0
   26.3779   -8.7834  -16.3224 C   0  0  0  0  0  0  0  0  0  0  0  0
   22.0865   -6.7944  -16.4115 C   0  0  0  0  0  0  0  0  0  0  0  0
   22.2667   -5.8631  -17.2663 O   0  0  0  0  0  0  0  0  0  0  0  0
   20.9486   -6.6752  -15.5621 N   0  0  0  0  0  0  0  0  0  0  0  0
   19.7445   -5.9814  -15.9735 C   0  0  1  0  0  0  0  0  0  0  0  0
   19.1388   -6.6400  -17.2111 C   0  0  0  0  0  0  0  0  0  0  0  0
   17.6113   -5.7614  -17.6510 S   0  0  0  0  0  0  0  0  0  0  0  0
   18.7390   -6.0601  -14.9012 C   0  0  0  0  0  0  0  0  0  0  0  0
   18.0911   -4.9724  -14.3456 O   0  0  0  0  0  0  0  0  0  0  0  0
   18.4073   -7.1945  -14.4141 O   0  0  0  0  0  0  0  0  0  0  0  0
  2  1  1  0
  3  2  2  0
  4  2  1  0
  5  4  1  0
  5  6  1  1
  7  9  1  0
  7  5  1  0
  8  7  2  0
 10  9  1  0
 10 11  1  6
 11 12  1  0
 12 17  2  0
 12 13  1  0
 13 14  2  0
 14 15  1  0
 16 15  2  0
 17 16  1  0
 18 20  1  0
 18 10  1  0
 19 18  2  0
 21 20  1  0
 21 24  1  0
 21 22  1  6
 22 23  1  0
 24 25  1  0
 26 24  2  0
M  END
$$$$
