NFC.pdb
     RDKit          3D

 26 26  0  0  1  0  0  0  0  0999 V2000
   23.2156  -21.2758  -14.7442 N   0  0  0  0  0  0  0  0  0  0  0  0
   23.6770  -20.3883  -13.7428 C   0  0  0  0  0  0  0  0  0  0  0  0
   23.6251  -19.1511  -13.9600 O   0  0  0  0  0  0  0  0  0  0  0  0
   24.2210  -20.8511  -12.4442 C   0  0  0  0  0  0  0  0  0  0  0  0
   25.6751  -20.4590  -12.2936 C   0  0  2  0  0  0  0  0  0  0  0  0
   26.4828  -21.1272  -13.2741 N   0  0  0  0  0  0  0  0  0  0  0  0
   26.0675  -20.7861  -10.8971 C   0  0  0  0  0  0  0  0  0  0  0  0
   26.3478  -21.9711  -10.6345 O   0  0  0  0  0  0  0  0  0  0  0  0
   26.1414  -19.8388   -9.8553 N   0  0  0  0  0  0  0  0  0  0  0  0
   26.6143  -20.1031   -8.5282 C   0  0  1  0  0  0  0  0  0  0  0  0
   27.4313  -19.0361   -7.9169 C   0  0  0  0  0  0  0  0  0  0  0  0
   27.9810  -19.3028   -6.5963 C   0  0  0  0  0  0  0  0  0  0  0  0
   29.0151  -20.2061   -6.4823 C   0  0  0  0  0  0  0  0  0  0  0  0
   29.6050  -20.5246   -5.2546 C   0  0  0  0  0  0  0  0  0  0  0  0
   29.1588  -19.9333   -4.1130 C   0  0  0  0  0  0  0  0  0  0  0  0
   28.1254  -19.0283   -4.2131 C   0  0  0  0  0  0  0  0  0  0  0  0
   27.5506  -18.7204   -5.4247 C   0  0  0  0  0  0  0  0  0  0  0  0
   25.5195  -20.5763   -7.6648 C   0  0  0  0  0  0  0  0  0  0  0  0
   24.3832  -19.9942   -7.6878 O   0  0  0  0  0  0  0  0  0  0  0  0
   25.6560  -21.6838   -6.7785 N   0  0  0  0  0  0  0  0  0  0  0  0
   24.5942  -22.0924   -5.8807 C   0  0  1  0  0  0  0  0  0  0  0  0
   25.0830  -23.1812   -4.9278 C   0  0  0  0  0  0  0  0  0  0  0  0
   23.7402  -23.5951   -3.7771 S   0  0  0  0  0  0  0  0  0  0  0  0
   24.1770  -20.9464   -5.0564 C   0  0  0  0  0  0  0  0  0  0  0  0
   22.8664  -20.6326   -4.7470 O   0  0  0  0  0  0  0  0  0  0  0  0
   25.0530  -20.1533   -4.5688 O   0  0  0  0  0  0  0  0  0  0  0  0
  2  1  1  0
  3  2  2  0
  4  2  1  0
  5  4  1  0
  5  6  1  6
  7  9  1  0
  7  5  1  0
  8  7  2  0
 10  9  1  0
 10 11  1  1
 11 12  1  0
 12 17  2  0
 12 13  1  0
 13 14  2  0
 14 15  1  0
 16 15  2  0
 17 16  1  0
 18 20  1  0
 18 10  1  0
 19 18  2  0
 21 20  1  0
 21 24  1  0
 21 22  1  1
 22 23  1  0
 24 25  1  0
 26 24  2  0
M  END
$$$$
