NFC.pdb
     RDKit          3D

 26 26  0  0  1  0  0  0  0  0999 V2000
   20.2349  -27.4885  -17.4584 N   0  0  0  0  0  0  0  0  0  0  0  0
   20.7806  -28.1355  -16.3238 C   0  0  0  0  0  0  0  0  0  0  0  0
   20.7038  -29.3880  -16.2462 O   0  0  0  0  0  0  0  0  0  0  0  0
   21.4413  -27.4025  -15.2181 C   0  0  0  0  0  0  0  0  0  0  0  0
   21.5922  -25.9343  -15.5535 C   0  0  2  0  0  0  0  0  0  0  0  0
   22.9560  -25.6282  -15.8799 N   0  0  0  0  0  0  0  0  0  0  0  0
   21.0901  -25.1702  -14.3808 C   0  0  0  0  0  0  0  0  0  0  0  0
   21.8565  -25.0263  -13.4093 O   0  0  0  0  0  0  0  0  0  0  0  0
   19.8027  -24.6004  -14.3022 N   0  0  0  0  0  0  0  0  0  0  0  0
   19.3007  -23.8387  -13.1964 C   0  0  1  0  0  0  0  0  0  0  0  0
   18.9118  -22.4479  -13.5030 C   0  0  0  0  0  0  0  0  0  0  0  0
   19.9675  -21.5528  -13.9518 C   0  0  0  0  0  0  0  0  0  0  0  0
   20.0559  -21.2579  -15.2948 C   0  0  0  0  0  0  0  0  0  0  0  0
   21.0372  -20.4085  -15.8164 C   0  0  0  0  0  0  0  0  0  0  0  0
   21.9526  -19.8381  -14.9865 C   0  0  0  0  0  0  0  0  0  0  0  0
   21.8753  -20.1246  -13.6416 C   0  0  0  0  0  0  0  0  0  0  0  0
   20.9068  -20.9613  -13.1364 C   0  0  0  0  0  0  0  0  0  0  0  0
   18.2693  -24.5924  -12.4643 C   0  0  0  0  0  0  0  0  0  0  0  0
   17.2736  -25.0935  -13.0871 O   0  0  0  0  0  0  0  0  0  0  0  0
   18.3197  -24.8060  -11.0563 N   0  0  0  0  0  0  0  0  0  0  0  0
   17.3750  -25.6636  -10.3689 C   0  0  1  0  0  0  0  0  0  0  0  0
   18.0399  -26.3544   -9.1802 C   0  0  0  0  0  0  0  0  0  0  0  0
   19.6496  -27.0074   -9.7106 S   0  0  0  0  0  0  0  0  0  0  0  0
   16.2676  -24.8518   -9.8382 C   0  0  0  0  0  0  0  0  0  0  0  0
   15.1996  -25.3505   -9.1153 O   0  0  0  0  0  0  0  0  0  0  0  0
   16.2459  -23.5888  -10.0343 O   0  0  0  0  0  0  0  0  0  0  0  0
  2  1  1  0
  3  2  2  0
  4  2  1  0
  5  4  1  0
  5  6  1  1
  7  9  1  0
  7  5  1  0
  8  7  2  0
 10  9  1  0
 10 11  1  6
 11 12  1  0
 12 17  2  0
 12 13  1  0
 13 14  2  0
 14 15  1  0
 16 15  2  0
 17 16  1  0
 18 20  1  0
 18 10  1  0
 19 18  2  0
 21 20  1  0
 21 24  1  0
 21 22  1  1
 22 23  1  0
 24 25  1  0
 26 24  2  0
M  END
$$$$
