NFC.pdb
     RDKit          3D

 26 26  0  0  1  0  0  0  0  0999 V2000
   18.5739  -13.6557  -19.3926 N   0  0  0  0  0  0  0  0  0  0  0  0
   17.7841  -12.4838  -19.4720 C   0  0  0  0  0  0  0  0  0  0  0  0
   16.9573  -12.3739  -20.4127 O   0  0  0  0  0  0  0  0  0  0  0  0
   17.8865  -11.3752  -18.4938 C   0  0  0  0  0  0  0  0  0  0  0  0
   18.9477  -11.6644  -17.4541 C   0  0  2  0  0  0  0  0  0  0  0  0
   18.5308  -12.7319  -16.5899 N   0  0  0  0  0  0  0  0  0  0  0  0
   19.1968  -10.3917  -16.7265 C   0  0  0  0  0  0  0  0  0  0  0  0
   18.2722   -9.9287  -16.0318 O   0  0  0  0  0  0  0  0  0  0  0  0
   20.4127   -9.6794  -16.7752 N   0  0  0  0  0  0  0  0  0  0  0  0
   20.6874   -8.4615  -16.0708 C   0  0  1  0  0  0  0  0  0  0  0  0
   22.0462   -8.3430  -15.5057 C   0  0  0  0  0  0  0  0  0  0  0  0
   22.4207   -7.0481  -14.9580 C   0  0  0  0  0  0  0  0  0  0  0  0
   23.2602   -6.2390  -15.6922 C   0  0  0  0  0  0  0  0  0  0  0  0
   23.6731   -4.9794  -15.2456 C   0  0  0  0  0  0  0  0  0  0  0  0
   23.2433   -4.5111  -14.0422 C   0  0  0  0  0  0  0  0  0  0  0  0
   22.4036   -5.3101  -13.2982 C   0  0  0  0  0  0  0  0  0  0  0  0
   22.0021   -6.5480  -13.7448 C   0  0  0  0  0  0  0  0  0  0  0  0
   20.2734   -7.2915  -16.8630 C   0  0  0  0  0  0  0  0  0  0  0  0
   20.6442   -7.1728  -18.0791 O   0  0  0  0  0  0  0  0  0  0  0  0
   19.4535   -6.2513  -16.3371 N   0  0  0  0  0  0  0  0  0  0  0  0
   19.1137   -5.0701  -17.1050 C   0  0  1  0  0  0  0  0  0  0  0  0
   17.6134   -5.0230  -17.3861 C   0  0  0  0  0  0  0  0  0  0  0  0
   17.1313   -6.5524  -18.2389 S   0  0  0  0  0  0  0  0  0  0  0  0
   19.4505   -3.8645  -16.3304 C   0  0  0  0  0  0  0  0  0  0  0  0
   19.3505   -2.5691  -16.8035 O   0  0  0  0  0  0  0  0  0  0  0  0
   19.8716   -3.9706  -15.1280 O   0  0  0  0  0  0  0  0  0  0  0  0
  2  1  1  0
  3  2  2  0
  4  2  1  0
  5  4  1  0
  5  6  1  1
  7  9  1  0
  7  5  1  0
  8  7  2  0
 10  9  1  0
 10 11  1  6
 11 12  1  0
 12 17  2  0
 12 13  1  0
 13 14  2  0
 14 15  1  0
 16 15  2  0
 17 16  1  0
 18 20  1  0
 18 10  1  0
 19 18  2  0
 21 20  1  0
 21 24  1  0
 21 22  1  1
 22 23  1  0
 24 25  1  0
 26 24  2  0
M  END
$$$$
