NFC.pdb
     RDKit          3D

 26 26  0  0  1  0  0  0  0  0999 V2000
   29.1207  -21.5174  -17.0737 N   0  0  0  0  0  0  0  0  0  0  0  0
   27.8319  -20.9944  -17.3363 C   0  0  0  0  0  0  0  0  0  0  0  0
   27.6622  -20.2912  -18.3646 O   0  0  0  0  0  0  0  0  0  0  0  0
   26.6678  -21.2380  -16.4521 C   0  0  0  0  0  0  0  0  0  0  0  0
   27.0707  -22.0371  -15.2314 C   0  0  2  0  0  0  0  0  0  0  0  0
   27.4000  -23.3857  -15.5963 N   0  0  0  0  0  0  0  0  0  0  0  0
   25.9394  -21.9553  -14.2698 C   0  0  0  0  0  0  0  0  0  0  0  0
   25.0865  -22.8629  -14.2972 O   0  0  0  0  0  0  0  0  0  0  0  0
   25.7742  -20.9157  -13.3317 N   0  0  0  0  0  0  0  0  0  0  0  0
   24.7038  -20.8191  -12.3831 C   0  0  1  0  0  0  0  0  0  0  0  0
   24.9629  -19.9563  -11.2134 C   0  0  0  0  0  0  0  0  0  0  0  0
   26.0476  -20.3543  -10.3292 C   0  0  0  0  0  0  0  0  0  0  0  0
   25.9697  -20.0161   -8.9958 C   0  0  0  0  0  0  0  0  0  0  0  0
   26.9645  -20.3561   -8.0731 C   0  0  0  0  0  0  0  0  0  0  0  0
   28.0627  -21.0479   -8.4825 C   0  0  0  0  0  0  0  0  0  0  0  0
   28.1529  -21.3922   -9.8130 C   0  0  0  0  0  0  0  0  0  0  0  0
   27.1698  -21.0539  -10.7143 C   0  0  0  0  0  0  0  0  0  0  0  0
   23.4277  -20.5305  -13.0585 C   0  0  0  0  0  0  0  0  0  0  0  0
   23.3545  -19.5961  -13.9257 O   0  0  0  0  0  0  0  0  0  0  0  0
   22.2311  -21.2583  -12.7960 N   0  0  0  0  0  0  0  0  0  0  0  0
   20.9897  -20.9844  -13.4921 C   0  0  1  0  0  0  0  0  0  0  0  0
   20.8018  -21.9505  -14.6598 C   0  0  0  0  0  0  0  0  0  0  0  0
   21.2322  -23.6259  -14.1059 S   0  0  0  0  0  0  0  0  0  0  0  0
   19.8556  -21.1830  -12.5748 C   0  0  0  0  0  0  0  0  0  0  0  0
   18.5289  -20.9745  -12.9037 O   0  0  0  0  0  0  0  0  0  0  0  0
   20.0608  -21.5751  -11.3755 O   0  0  0  0  0  0  0  0  0  0  0  0
  2  1  1  0
  3  2  2  0
  4  2  1  0
  5  4  1  0
  5  6  1  6
  7  9  1  0
  7  5  1  0
  8  7  2  0
 10  9  1  0
 10 11  1  1
 11 12  1  0
 12 17  2  0
 12 13  1  0
 13 14  2  0
 14 15  1  0
 16 15  2  0
 17 16  1  0
 18 20  1  0
 18 10  1  0
 19 18  2  0
 21 20  1  0
 21 24  1  0
 21 22  1  6
 22 23  1  0
 24 25  1  0
 26 24  2  0
M  END
$$$$
