NFC.pdb
     RDKit          3D

 26 26  0  0  1  0  0  0  0  0999 V2000
   17.0096   -6.2392  -19.7165 N   0  0  0  0  0  0  0  0  0  0  0  0
   17.9528   -5.9904  -18.6908 C   0  0  0  0  0  0  0  0  0  0  0  0
   18.6686   -4.9594  -18.7640 O   0  0  0  0  0  0  0  0  0  0  0  0
   18.1371   -6.8923  -17.5294 C   0  0  0  0  0  0  0  0  0  0  0  0
   19.6064   -7.1089  -17.2375 C   0  0  2  0  0  0  0  0  0  0  0  0
   20.1117   -8.2231  -17.9881 N   0  0  0  0  0  0  0  0  0  0  0  0
   19.7313   -7.2942  -15.7674 C   0  0  0  0  0  0  0  0  0  0  0  0
   19.3496   -8.3768  -15.2835 O   0  0  0  0  0  0  0  0  0  0  0  0
   20.2542   -6.3215  -14.8907 N   0  0  0  0  0  0  0  0  0  0  0  0
   20.4363   -6.4919  -13.4791 C   0  0  1  0  0  0  0  0  0  0  0  0
   21.8315   -6.4198  -13.0018 C   0  0  0  0  0  0  0  0  0  0  0  0
   22.7624   -7.4009  -13.5384 C   0  0  0  0  0  0  0  0  0  0  0  0
   23.6241   -7.0133  -14.5412 C   0  0  0  0  0  0  0  0  0  0  0  0
   24.5519   -7.8876  -15.1169 C   0  0  0  0  0  0  0  0  0  0  0  0
   24.6269   -9.1770  -14.6878 C   0  0  0  0  0  0  0  0  0  0  0  0
   23.7710   -9.5774  -13.6858 C   0  0  0  0  0  0  0  0  0  0  0  0
   22.8611   -8.7110  -13.1248 C   0  0  0  0  0  0  0  0  0  0  0  0
   19.5085   -5.6349  -12.7223 C   0  0  0  0  0  0  0  0  0  0  0  0
   19.7052   -4.3751  -12.6541 O   0  0  0  0  0  0  0  0  0  0  0  0
   18.3645   -6.1441  -12.0422 N   0  0  0  0  0  0  0  0  0  0  0  0
   17.4204   -5.2805  -11.3615 C   0  0  1  0  0  0  0  0  0  0  0  0
   15.9947   -5.5661  -11.8284 C   0  0  0  0  0  0  0  0  0  0  0  0
   15.9071   -5.3114  -13.6246 S   0  0  0  0  0  0  0  0  0  0  0  0
   17.4663   -5.5438   -9.9139 C   0  0  0  0  0  0  0  0  0  0  0  0
   18.2407   -6.5192   -9.3134 O   0  0  0  0  0  0  0  0  0  0  0  0
   16.7555   -4.8470   -9.1116 O   0  0  0  0  0  0  0  0  0  0  0  0
  2  1  1  0
  3  2  2  0
  4  2  1  0
  5  4  1  0
  5  6  1  6
  7  9  1  0
  7  5  1  0
  8  7  2  0
 10  9  1  0
 10 11  1  1
 11 12  1  0
 12 17  2  0
 12 13  1  0
 13 14  2  0
 14 15  1  0
 16 15  2  0
 17 16  1  0
 18 20  1  0
 18 10  1  0
 19 18  2  0
 21 20  1  0
 21 24  1  0
 21 22  1  6
 22 23  1  0
 24 25  1  0
 26 24  2  0
M  END
$$$$
