NFC.pdb
     RDKit          3D

 26 26  0  0  1  0  0  0  0  0999 V2000
   26.5279  -22.5277  -15.8782 N   0  0  0  0  0  0  0  0  0  0  0  0
   26.3181  -21.2169  -15.3869 C   0  0  0  0  0  0  0  0  0  0  0  0
   27.1276  -20.3118  -15.7127 O   0  0  0  0  0  0  0  0  0  0  0  0
   25.1839  -20.8597  -14.5025 C   0  0  0  0  0  0  0  0  0  0  0  0
   24.3511  -22.0785  -14.1679 C   0  0  2  0  0  0  0  0  0  0  0  0
   23.8900  -22.7199  -15.3664 N   0  0  0  0  0  0  0  0  0  0  0  0
   23.2413  -21.6157  -13.2930 C   0  0  0  0  0  0  0  0  0  0  0  0
   23.5312  -20.8973  -12.3175 O   0  0  0  0  0  0  0  0  0  0  0  0
   21.8848  -21.9399  -13.5003 N   0  0  0  0  0  0  0  0  0  0  0  0
   20.7865  -21.4381  -12.7279 C   0  0  1  0  0  0  0  0  0  0  0  0
   20.0895  -20.2665  -13.2946 C   0  0  0  0  0  0  0  0  0  0  0  0
   20.7770  -19.5388  -14.3504 C   0  0  0  0  0  0  0  0  0  0  0  0
   21.4887  -18.4073  -14.0164 C   0  0  0  0  0  0  0  0  0  0  0  0
   22.1799  -17.6451  -14.9639 C   0  0  0  0  0  0  0  0  0  0  0  0
   22.1649  -18.0138  -16.2739 C   0  0  0  0  0  0  0  0  0  0  0  0
   21.4571  -19.1431  -16.6213 C   0  0  0  0  0  0  0  0  0  0  0  0
   20.7798  -19.8873  -15.6830 C   0  0  0  0  0  0  0  0  0  0  0  0
   19.8807  -22.5293  -12.3320 C   0  0  0  0  0  0  0  0  0  0  0  0
   19.7666  -23.5695  -13.0636 O   0  0  0  0  0  0  0  0  0  0  0  0
   19.1008  -22.4939  -11.1398 N   0  0  0  0  0  0  0  0  0  0  0  0
   18.2059  -23.5715  -10.7677 C   0  0  1  0  0  0  0  0  0  0  0  0
   17.9917  -23.5968   -9.2559 C   0  0  0  0  0  0  0  0  0  0  0  0
   18.4603  -25.2353   -8.6277 S   0  0  0  0  0  0  0  0  0  0  0  0
   16.8898  -23.3571  -11.3912 C   0  0  0  0  0  0  0  0  0  0  0  0
   16.0338  -24.3654  -11.7942 O   0  0  0  0  0  0  0  0  0  0  0  0
   16.4626  -22.1699  -11.5973 O   0  0  0  0  0  0  0  0  0  0  0  0
  2  1  1  0
  3  2  2  0
  4  2  1  0
  5  4  1  0
  5  6  1  6
  7  9  1  0
  7  5  1  0
  8  7  2  0
 10  9  1  0
 10 11  1  6
 11 12  1  0
 12 17  2  0
 12 13  1  0
 13 14  2  0
 14 15  1  0
 16 15  2  0
 17 16  1  0
 18 20  1  0
 18 10  1  0
 19 18  2  0
 21 20  1  0
 21 24  1  0
 21 22  1  1
 22 23  1  0
 24 25  1  0
 26 24  2  0
M  END
$$$$
