NFC.pdb
     RDKit          3D

 26 26  0  0  1  0  0  0  0  0999 V2000
   20.8072  -26.0189  -22.0201 N   0  0  0  0  0  0  0  0  0  0  0  0
   21.0167  -25.3940  -20.7674 C   0  0  0  0  0  0  0  0  0  0  0  0
   20.5691  -24.2329  -20.5880 O   0  0  0  0  0  0  0  0  0  0  0  0
   21.7420  -26.0472  -19.6523 C   0  0  0  0  0  0  0  0  0  0  0  0
   22.4081  -25.0202  -18.7620 C   0  0  2  0  0  0  0  0  0  0  0  0
   23.6376  -24.5659  -19.3470 N   0  0  0  0  0  0  0  0  0  0  0  0
   22.5986  -25.6599  -17.4333 C   0  0  0  0  0  0  0  0  0  0  0  0
   22.4562  -26.8951  -17.3570 O   0  0  0  0  0  0  0  0  0  0  0  0
   22.9295  -24.9549  -16.2578 N   0  0  0  0  0  0  0  0  0  0  0  0
   23.1416  -25.5469  -14.9696 C   0  0  1  0  0  0  0  0  0  0  0  0
   24.4824  -25.3433  -14.3860 C   0  0  0  0  0  0  0  0  0  0  0  0
   25.6201  -25.7733  -15.1847 C   0  0  0  0  0  0  0  0  0  0  0  0
   25.9945  -27.0985  -15.1399 C   0  0  0  0  0  0  0  0  0  0  0  0
   27.0744  -27.6013  -15.8731 C   0  0  0  0  0  0  0  0  0  0  0  0
   27.8002  -26.7701  -16.6696 C   0  0  0  0  0  0  0  0  0  0  0  0
   27.4364  -25.4429  -16.7234 C   0  0  0  0  0  0  0  0  0  0  0  0
   26.3727  -24.9562  -15.9990 C   0  0  0  0  0  0  0  0  0  0  0  0
   22.0408  -25.2132  -14.0504 C   0  0  0  0  0  0  0  0  0  0  0  0
   21.7369  -23.9937  -13.8250 O   0  0  0  0  0  0  0  0  0  0  0  0
   21.2668  -26.2029  -13.3781 N   0  0  0  0  0  0  0  0  0  0  0  0
   20.1486  -25.8614  -12.5217 C   0  0  1  0  0  0  0  0  0  0  0  0
   19.0761  -25.1112  -13.3087 C   0  0  0  0  0  0  0  0  0  0  0  0
   18.1048  -24.1005  -12.1537 S   0  0  0  0  0  0  0  0  0  0  0  0
   19.5292  -27.0927  -12.0047 C   0  0  0  0  0  0  0  0  0  0  0  0
   18.9406  -27.2173  -10.7598 O   0  0  0  0  0  0  0  0  0  0  0  0
   19.5098  -28.1513  -12.7210 O   0  0  0  0  0  0  0  0  0  0  0  0
  2  1  1  0
  3  2  2  0
  4  2  1  0
  5  4  1  0
  5  6  1  6
  7  9  1  0
  7  5  1  0
  8  7  2  0
 10  9  1  0
 10 11  1  1
 11 12  1  0
 12 17  2  0
 12 13  1  0
 13 14  2  0
 14 15  1  0
 16 15  2  0
 17 16  1  0
 18 20  1  0
 18 10  1  0
 19 18  2  0
 21 20  1  0
 21 24  1  0
 21 22  1  6
 22 23  1  0
 24 25  1  0
 26 24  2  0
M  END
$$$$
