WHQ.pdb
     RDKit          3D

 34 36  0  0  1  0  0  0  0  0999 V2000
   27.8894  -21.6676   -9.5896 N   0  0  0  0  0  0  0  0  0  0  0  0
   26.5704  -21.1311   -9.6006 C   0  0  1  0  0  0  0  0  0  0  0  0
   26.3883  -20.0143   -8.6004 C   0  0  0  0  0  0  0  0  0  0  0  0
   26.6966  -20.4752   -7.2437 C   0  0  0  0  0  0  0  0  0  0  0  0
   25.9445  -21.3474   -6.5036 C   0  0  0  0  0  0  0  0  0  0  0  0
   26.5762  -21.5066   -5.3167 N   0  0  0  0  0  0  0  0  0  0  0  0
   27.6862  -20.7841   -5.2635 C   0  0  0  0  0  0  0  0  0  0  0  0
   28.6645  -20.5956   -4.3081 C   0  0  0  0  0  0  0  0  0  0  0  0
   29.7134  -19.7511   -4.5863 C   0  0  0  0  0  0  0  0  0  0  0  0
   29.8150  -19.0959   -5.7762 C   0  0  0  0  0  0  0  0  0  0  0  0
   28.8487  -19.2780   -6.7282 C   0  0  0  0  0  0  0  0  0  0  0  0
   27.7835  -20.1184   -6.4805 C   0  0  0  0  0  0  0  0  0  0  0  0
   26.1680  -20.5963  -10.9502 C   0  0  0  0  0  0  0  0  0  0  0  0
   26.8375  -19.6651  -11.4545 O   0  0  0  0  0  0  0  0  0  0  0  0
   25.0637  -21.1144  -11.6545 N   0  0  0  0  0  0  0  0  0  0  0  0
   24.5353  -20.7697  -12.9176 C   0  0  1  0  0  0  0  0  0  0  0  0
   24.8771  -21.7315  -14.0677 C   0  0  0  0  0  0  0  0  0  0  0  0
   26.2547  -21.5083  -14.5707 C   0  0  0  0  0  0  0  0  0  0  0  0
   27.2825  -22.4219  -14.4530 C   0  0  0  0  0  0  0  0  0  0  0  0
   28.4034  -21.9051  -15.0154 N   0  0  0  0  0  0  0  0  0  0  0  0
   28.0900  -20.6848  -15.4812 C   0  0  0  0  0  0  0  0  0  0  0  0
   26.7943  -20.4592  -15.2069 N   0  0  0  0  0  0  0  0  0  0  0  0
   23.1454  -20.3868  -13.0168 C   0  0  0  0  0  0  0  0  0  0  0  0
   22.3119  -20.9521  -12.2513 O   0  0  0  0  0  0  0  0  0  0  0  0
   20.2390  -15.6142  -16.3524 N   0  0  0  0  0  0  0  0  0  0  0  0
   19.2195  -16.2306  -15.5645 C   0  0  0  0  0  0  0  0  0  0  0  0
   18.0611  -15.7800  -15.6657 O   0  0  0  0  0  0  0  0  0  0  0  0
   19.5437  -17.3588  -14.6659 C   0  0  0  0  0  0  0  0  0  0  0  0
   20.9644  -17.8211  -14.7225 C   0  0  0  0  0  0  0  0  0  0  0  0
   21.1785  -19.0245  -13.8755 C   0  0  2  0  0  0  0  0  0  0  0  0
   22.6133  -19.4170  -13.9089 N   0  0  0  0  0  0  0  0  0  0  0  0
   20.4205  -20.2026  -14.3305 C   0  0  0  0  0  0  0  0  0  0  0  0
   20.8392  -20.9534  -15.2339 O   0  0  0  0  0  0  0  0  0  0  0  0
   19.2041  -20.5069  -13.7540 O   0  0  0  0  0  0  0  0  0  0  0  0
  2  1  1  6
  2 13  1  0
  2  3  1  0
  4  3  1  0
  4  5  2  0
  6  5  1  0
  7  6  1  0
  8  7  2  0
  9  8  1  0
 10  9  2  0
 10 11  1  0
 11 12  2  0
 12  7  1  0
 12  4  1  0
 13 14  2  0
 15 16  1  0
 15 13  1  0
 16 17  1  6
 18 17  1  0
 19 18  2  0
 20 21  1  0
 20 19  1  0
 21 22  2  0
 22 18  1  0
 23 31  1  0
 23 16  1  0
 24 23  2  0
 25 26  1  0
 26 27  2  0
 26 28  1  0
 28 29  1  0
 30 29  1  6
 30 31  1  0
 30 32  1  0
 32 34  1  0
 33 32  2  0
M  END
$$$$
