WHQ.pdb
     RDKit          3D

 34 36  0  0  1  0  0  0  0  0999 V2000
   23.9910  -35.6589  -10.7954 N   0  0  0  0  0  0  0  0  0  0  0  0
   23.2824  -34.6690  -10.0566 C   0  0  1  0  0  0  0  0  0  0  0  0
   21.7848  -34.7914  -10.2079 C   0  0  0  0  0  0  0  0  0  0  0  0
   21.3734  -34.4841  -11.5807 C   0  0  0  0  0  0  0  0  0  0  0  0
   21.7747  -35.1525  -12.7059 C   0  0  0  0  0  0  0  0  0  0  0  0
   21.1686  -34.5549  -13.7589 N   0  0  0  0  0  0  0  0  0  0  0  0
   20.4060  -33.5454  -13.3636 C   0  0  0  0  0  0  0  0  0  0  0  0
   19.5987  -32.6378  -14.0192 C   0  0  0  0  0  0  0  0  0  0  0  0
   18.9268  -31.6905  -13.2829 C   0  0  0  0  0  0  0  0  0  0  0  0
   19.0347  -31.6220  -11.9268 C   0  0  0  0  0  0  0  0  0  0  0  0
   19.8335  -32.5187  -11.2700 C   0  0  0  0  0  0  0  0  0  0  0  0
   20.5209  -33.4813  -11.9793 C   0  0  0  0  0  0  0  0  0  0  0  0
   23.5903  -34.7077   -8.5825 C   0  0  0  0  0  0  0  0  0  0  0  0
   23.1161  -35.6386   -7.8911 O   0  0  0  0  0  0  0  0  0  0  0  0
   24.3932  -33.7282   -7.9663 N   0  0  0  0  0  0  0  0  0  0  0  0
   24.7480  -33.5498   -6.6113 C   0  0  1  0  0  0  0  0  0  0  0  0
   26.2052  -33.1317   -6.3536 C   0  0  0  0  0  0  0  0  0  0  0  0
   27.1557  -34.1923   -6.7684 C   0  0  0  0  0  0  0  0  0  0  0  0
   26.7783  -35.4399   -7.2223 C   0  0  0  0  0  0  0  0  0  0  0  0
   27.8889  -36.1613   -7.5151 N   0  0  0  0  0  0  0  0  0  0  0  0
   28.9514  -35.3831   -7.2509 C   0  0  0  0  0  0  0  0  0  0  0  0
   28.4956  -34.2016   -6.8026 N   0  0  0  0  0  0  0  0  0  0  0  0
   23.8755  -32.7828   -5.7520 C   0  0  0  0  0  0  0  0  0  0  0  0
   23.7336  -31.5484   -5.9898 O   0  0  0  0  0  0  0  0  0  0  0  0
   18.1768  -32.4509   -3.3382 N   0  0  0  0  0  0  0  0  0  0  0  0
   18.8365  -33.7152   -3.2563 C   0  0  0  0  0  0  0  0  0  0  0  0
   18.2138  -34.6571   -2.7268 O   0  0  0  0  0  0  0  0  0  0  0  0
   20.2076  -33.8826   -3.7831 C   0  0  0  0  0  0  0  0  0  0  0  0
   20.8156  -32.6453   -4.3615 C   0  0  0  0  0  0  0  0  0  0  0  0
   22.2033  -32.4398   -3.8682 C   0  0  2  0  0  0  0  0  0  0  0  0
   23.1462  -33.2910   -4.6431 N   0  0  0  0  0  0  0  0  0  0  0  0
   22.3827  -32.8115   -2.4543 C   0  0  0  0  0  0  0  0  0  0  0  0
   23.0339  -33.8178   -2.1096 O   0  0  0  0  0  0  0  0  0  0  0  0
   21.8215  -32.0372   -1.4594 O   0  0  0  0  0  0  0  0  0  0  0  0
  2  1  1  6
  2 13  1  0
  2  3  1  0
  4  3  1  0
  4  5  2  0
  6  5  1  0
  7  6  1  0
  8  7  2  0
  9  8  1  0
 10  9  2  0
 10 11  1  0
 11 12  2  0
 12  7  1  0
 12  4  1  0
 13 14  2  0
 15 16  1  0
 15 13  1  0
 16 17  1  6
 18 17  1  0
 19 18  2  0
 20 21  1  0
 20 19  1  0
 21 22  2  0
 22 18  1  0
 23 31  1  0
 23 16  1  0
 24 23  2  0
 25 26  1  0
 26 27  2  0
 26 28  1  0
 28 29  1  0
 30 29  1  6
 30 31  1  0
 30 32  1  0
 32 34  1  0
 33 32  2  0
M  END
$$$$
