WHQ.pdb
     RDKit          3D

 34 36  0  0  1  0  0  0  0  0999 V2000
   27.3437  -18.0155  -19.5442 N   0  0  0  0  0  0  0  0  0  0  0  0
   27.4538  -18.1302  -18.1291 C   0  0  1  0  0  0  0  0  0  0  0  0
   27.4316  -16.7899  -17.4334 C   0  0  0  0  0  0  0  0  0  0  0  0
   28.5779  -15.9727  -17.8412 C   0  0  0  0  0  0  0  0  0  0  0  0
   28.5200  -14.6859  -18.3047 C   0  0  0  0  0  0  0  0  0  0  0  0
   29.7916  -14.3017  -18.5666 N   0  0  0  0  0  0  0  0  0  0  0  0
   30.6517  -15.2730  -18.2950 C   0  0  0  0  0  0  0  0  0  0  0  0
   32.0240  -15.3928  -18.3827 C   0  0  0  0  0  0  0  0  0  0  0  0
   32.6146  -16.5766  -18.0076 C   0  0  0  0  0  0  0  0  0  0  0  0
   31.8855  -17.6334  -17.5526 C   0  0  0  0  0  0  0  0  0  0  0  0
   30.5242  -17.5217  -17.4630 C   0  0  0  0  0  0  0  0  0  0  0  0
   29.9009  -16.3478  -17.8313 C   0  0  0  0  0  0  0  0  0  0  0  0
   26.3591  -18.9694  -17.5235 C   0  0  0  0  0  0  0  0  0  0  0  0
   25.1768  -18.7747  -17.8894 O   0  0  0  0  0  0  0  0  0  0  0  0
   26.6310  -19.9616  -16.5614 N   0  0  0  0  0  0  0  0  0  0  0  0
   25.7621  -20.8332  -15.8694 C   0  0  1  0  0  0  0  0  0  0  0  0
   26.4440  -21.9427  -15.0514 C   0  0  0  0  0  0  0  0  0  0  0  0
   25.4496  -22.8776  -14.4702 C   0  0  0  0  0  0  0  0  0  0  0  0
   24.0824  -22.7120  -14.5596 C   0  0  0  0  0  0  0  0  0  0  0  0
   23.4674  -23.7406  -13.9244 N   0  0  0  0  0  0  0  0  0  0  0  0
   24.4296  -24.5437  -13.4412 C   0  0  0  0  0  0  0  0  0  0  0  0
   25.6170  -24.0125  -13.7770 N   0  0  0  0  0  0  0  0  0  0  0  0
   24.6754  -20.2749  -15.0977 C   0  0  0  0  0  0  0  0  0  0  0  0
   24.9558  -19.4729  -14.1605 O   0  0  0  0  0  0  0  0  0  0  0  0
   19.7508  -17.3822  -17.1600 N   0  0  0  0  0  0  0  0  0  0  0  0
   19.5160  -17.3942  -15.7511 C   0  0  0  0  0  0  0  0  0  0  0  0
   18.5715  -16.7046  -15.3181 O   0  0  0  0  0  0  0  0  0  0  0  0
   20.3722  -18.1986  -14.8537 C   0  0  0  0  0  0  0  0  0  0  0  0
   21.4592  -18.9632  -15.5385 C   0  0  0  0  0  0  0  0  0  0  0  0
   22.2366  -19.7852  -14.5734 C   0  0  2  0  0  0  0  0  0  0  0  0
   23.2939  -20.5449  -15.2937 N   0  0  0  0  0  0  0  0  0  0  0  0
   21.4201  -20.7875  -13.8678 C   0  0  0  0  0  0  0  0  0  0  0  0
   20.9183  -20.5661  -12.7477 O   0  0  0  0  0  0  0  0  0  0  0  0
   21.1879  -22.0198  -14.4439 O   0  0  0  0  0  0  0  0  0  0  0  0
  2  1  1  6
  2 13  1  0
  2  3  1  0
  4  3  1  0
  4  5  2  0
  6  5  1  0
  7  6  1  0
  8  7  2  0
  9  8  1  0
 10  9  2  0
 10 11  1  0
 11 12  2  0
 12  7  1  0
 12  4  1  0
 13 14  2  0
 15 16  1  0
 15 13  1  0
 16 17  1  1
 18 17  1  0
 19 18  2  0
 20 21  1  0
 20 19  1  0
 21 22  2  0
 22 18  1  0
 23 31  1  0
 23 16  1  0
 24 23  2  0
 25 26  1  0
 26 27  2  0
 26 28  1  0
 28 29  1  0
 30 29  1  6
 30 31  1  0
 30 32  1  0
 32 34  1  0
 33 32  2  0
M  END
$$$$
