WHQ.pdb
     RDKit          3D

 34 36  0  0  1  0  0  0  0  0999 V2000
   26.3999  -18.7856   -9.0047 N   0  0  0  0  0  0  0  0  0  0  0  0
   26.3289  -20.1460   -9.4193 C   0  0  1  0  0  0  0  0  0  0  0  0
   25.7076  -21.0413   -8.3736 C   0  0  0  0  0  0  0  0  0  0  0  0
   26.2474  -20.7413   -7.0444 C   0  0  0  0  0  0  0  0  0  0  0  0
   25.5129  -20.5617   -5.9032 C   0  0  0  0  0  0  0  0  0  0  0  0
   26.3898  -20.3057   -4.9039 N   0  0  0  0  0  0  0  0  0  0  0  0
   27.6387  -20.3130   -5.3483 C   0  0  0  0  0  0  0  0  0  0  0  0
   28.8697  -20.1153   -4.7560 C   0  0  0  0  0  0  0  0  0  0  0  0
   30.0026  -20.1963   -5.5313 C   0  0  0  0  0  0  0  0  0  0  0  0
   29.9451  -20.4657   -6.8653 C   0  0  0  0  0  0  0  0  0  0  0  0
   28.7278  -20.6629   -7.4593 C   0  0  0  0  0  0  0  0  0  0  0  0
   27.5725  -20.5885   -6.7096 C   0  0  0  0  0  0  0  0  0  0  0  0
   25.5440  -20.3292  -10.6920 C   0  0  0  0  0  0  0  0  0  0  0  0
   24.5513  -19.5937  -10.9001 O   0  0  0  0  0  0  0  0  0  0  0  0
   25.8967  -21.3018  -11.6478 N   0  0  0  0  0  0  0  0  0  0  0  0
   25.3195  -21.6134  -12.8981 C   0  0  1  0  0  0  0  0  0  0  0  0
   26.2260  -22.3752  -13.8792 C   0  0  0  0  0  0  0  0  0  0  0  0
   25.5662  -22.5621  -15.1946 C   0  0  0  0  0  0  0  0  0  0  0  0
   25.5834  -21.6298  -16.2120 C   0  0  0  0  0  0  0  0  0  0  0  0
   24.8884  -22.1144  -17.2712 N   0  0  0  0  0  0  0  0  0  0  0  0
   24.4390  -23.3333  -16.9295 C   0  0  0  0  0  0  0  0  0  0  0  0
   24.8541  -23.5897  -15.6778 N   0  0  0  0  0  0  0  0  0  0  0  0
   23.9930  -22.1855  -12.9362 C   0  0  0  0  0  0  0  0  0  0  0  0
   23.5757  -22.8001  -11.9123 O   0  0  0  0  0  0  0  0  0  0  0  0
   19.4496  -23.1013   -9.8630 N   0  0  0  0  0  0  0  0  0  0  0  0
   19.4212  -23.2571  -11.2826 C   0  0  0  0  0  0  0  0  0  0  0  0
   19.0566  -24.3608  -11.7343 O   0  0  0  0  0  0  0  0  0  0  0  0
   19.8150  -22.1412  -12.1687 C   0  0  0  0  0  0  0  0  0  0  0  0
   21.2854  -22.0154  -12.4079 C   0  0  0  0  0  0  0  0  0  0  0  0
   21.6193  -22.1932  -13.8460 C   0  0  2  0  0  0  0  0  0  0  0  0
   23.0936  -22.1233  -14.0348 N   0  0  0  0  0  0  0  0  0  0  0  0
   21.0450  -21.1504  -14.7132 C   0  0  0  0  0  0  0  0  0  0  0  0
   21.6027  -20.0483  -14.8853 O   0  0  0  0  0  0  0  0  0  0  0  0
   19.8513  -21.3760  -15.3680 O   0  0  0  0  0  0  0  0  0  0  0  0
  2  1  1  1
  2 13  1  0
  2  3  1  0
  4  3  1  0
  4  5  2  0
  6  5  1  0
  7  6  1  0
  8  7  2  0
  9  8  1  0
 10  9  2  0
 10 11  1  0
 11 12  2  0
 12  7  1  0
 12  4  1  0
 13 14  2  0
 15 16  1  0
 15 13  1  0
 16 17  1  1
 18 17  1  0
 19 18  2  0
 20 21  1  0
 20 19  1  0
 21 22  2  0
 22 18  1  0
 23 31  1  0
 23 16  1  0
 24 23  2  0
 25 26  1  0
 26 27  2  0
 26 28  1  0
 28 29  1  0
 30 29  1  1
 30 31  1  0
 30 32  1  0
 32 34  1  0
 33 32  2  0
M  END
$$$$
