WHQ.pdb
     RDKit          3D

 34 36  0  0  1  0  0  0  0  0999 V2000
   26.5381  -35.2829   -9.8739 N   0  0  0  0  0  0  0  0  0  0  0  0
   26.6497  -34.3643   -8.7915 C   0  0  1  0  0  0  0  0  0  0  0  0
   25.3062  -33.8943   -8.2866 C   0  0  0  0  0  0  0  0  0  0  0  0
   24.6241  -33.0836   -9.2994 C   0  0  0  0  0  0  0  0  0  0  0  0
   24.1757  -33.5293  -10.5136 C   0  0  0  0  0  0  0  0  0  0  0  0
   23.6089  -32.4708  -11.1394 N   0  0  0  0  0  0  0  0  0  0  0  0
   23.6732  -31.3797  -10.3895 C   0  0  0  0  0  0  0  0  0  0  0  0
   23.2557  -30.0745  -10.5555 C   0  0  0  0  0  0  0  0  0  0  0  0
   23.4877  -29.1677   -9.5481 C   0  0  0  0  0  0  0  0  0  0  0  0
   24.1169  -29.5197   -8.3924 C   0  0  0  0  0  0  0  0  0  0  0  0
   24.5336  -30.8122   -8.2209 C   0  0  0  0  0  0  0  0  0  0  0  0
   24.3162  -31.7461   -9.2122 C   0  0  0  0  0  0  0  0  0  0  0  0
   27.3978  -34.9350   -7.6150 C   0  0  0  0  0  0  0  0  0  0  0  0
   27.0650  -36.0603   -7.1764 O   0  0  0  0  0  0  0  0  0  0  0  0
   28.4558  -34.2379   -6.9997 N   0  0  0  0  0  0  0  0  0  0  0  0
   28.9482  -34.2954   -5.6777 C   0  0  1  0  0  0  0  0  0  0  0  0
   30.0764  -33.3053   -5.3433 C   0  0  0  0  0  0  0  0  0  0  0  0
   31.3037  -33.5972   -6.1236 C   0  0  0  0  0  0  0  0  0  0  0  0
   31.4581  -34.6932   -6.9480 C   0  0  0  0  0  0  0  0  0  0  0  0
   32.6930  -34.6582   -7.5079 N   0  0  0  0  0  0  0  0  0  0  0  0
   33.3097  -33.5581   -7.0454 C   0  0  0  0  0  0  0  0  0  0  0  0
   32.4624  -32.9294   -6.2139 N   0  0  0  0  0  0  0  0  0  0  0  0
   28.0096  -34.3332   -4.5796 C   0  0  0  0  0  0  0  0  0  0  0  0
   26.9599  -33.6324   -4.6639 O   0  0  0  0  0  0  0  0  0  0  0  0
   23.5770  -34.9770   -0.8657 N   0  0  0  0  0  0  0  0  0  0  0  0
   23.7581  -35.5406   -2.1656 C   0  0  0  0  0  0  0  0  0  0  0  0
   22.9949  -35.1542   -3.0730 O   0  0  0  0  0  0  0  0  0  0  0  0
   24.8151  -36.5453   -2.4081 C   0  0  0  0  0  0  0  0  0  0  0  0
   25.9313  -36.0852   -3.2899 C   0  0  0  0  0  0  0  0  0  0  0  0
   26.9954  -35.4016   -2.5078 C   0  0  2  0  0  0  0  0  0  0  0  0
   28.1543  -35.0972   -3.3901 N   0  0  0  0  0  0  0  0  0  0  0  0
   27.5250  -36.2180   -1.4023 C   0  0  0  0  0  0  0  0  0  0  0  0
   28.2122  -37.2396   -1.6011 O   0  0  0  0  0  0  0  0  0  0  0  0
   27.2661  -35.8620   -0.0943 O   0  0  0  0  0  0  0  0  0  0  0  0
  2  1  1  6
  2 13  1  0
  2  3  1  0
  4  3  1  0
  4  5  2  0
  6  5  1  0
  7  6  1  0
  8  7  2  0
  9  8  1  0
 10  9  2  0
 10 11  1  0
 11 12  2  0
 12  7  1  0
 12  4  1  0
 13 14  2  0
 15 16  1  0
 15 13  1  0
 16 17  1  1
 18 17  1  0
 19 18  2  0
 20 21  1  0
 20 19  1  0
 21 22  2  0
 22 18  1  0
 23 31  1  0
 23 16  1  0
 24 23  2  0
 25 26  1  0
 26 27  2  0
 26 28  1  0
 28 29  1  0
 30 29  1  6
 30 31  1  0
 30 32  1  0
 32 34  1  0
 33 32  2  0
M  END
$$$$
