WHQ.pdb
     RDKit          3D

 34 36  0  0  1  0  0  0  0  0999 V2000
   27.7814  -18.7533   -9.0474 N   0  0  0  0  0  0  0  0  0  0  0  0
   27.3248  -20.0882   -9.2404 C   0  0  1  0  0  0  0  0  0  0  0  0
   26.5799  -20.6273   -8.0424 C   0  0  0  0  0  0  0  0  0  0  0  0
   27.1658  -20.1256   -6.7961 C   0  0  0  0  0  0  0  0  0  0  0  0
   26.6182  -19.1727   -5.9800 C   0  0  0  0  0  0  0  0  0  0  0  0
   27.4719  -19.0010   -4.9433 N   0  0  0  0  0  0  0  0  0  0  0  0
   28.5296  -19.7919   -5.0570 C   0  0  0  0  0  0  0  0  0  0  0  0
   29.6593  -20.0004   -4.2918 C   0  0  0  0  0  0  0  0  0  0  0  0
   30.5871  -20.9243   -4.7118 C   0  0  0  0  0  0  0  0  0  0  0  0
   30.4239  -21.6388   -5.8600 C   0  0  0  0  0  0  0  0  0  0  0  0
   29.3061  -21.4372   -6.6238 C   0  0  0  0  0  0  0  0  0  0  0  0
   28.3563  -20.5177   -6.2303 C   0  0  0  0  0  0  0  0  0  0  0  0
   26.4177  -20.2290  -10.4349 C   0  0  0  0  0  0  0  0  0  0  0  0
   25.3358  -19.5975  -10.4488 O   0  0  0  0  0  0  0  0  0  0  0  0
   26.7542  -21.0489  -11.5296 N   0  0  0  0  0  0  0  0  0  0  0  0
   26.1632  -21.1653  -12.8065 C   0  0  1  0  0  0  0  0  0  0  0  0
   27.0280  -21.8443  -13.8816 C   0  0  0  0  0  0  0  0  0  0  0  0
   26.3938  -21.7620  -15.2201 C   0  0  0  0  0  0  0  0  0  0  0  0
   26.0852  -20.5801  -15.8624 C   0  0  0  0  0  0  0  0  0  0  0  0
   25.5182  -20.8608  -17.0621 N   0  0  0  0  0  0  0  0  0  0  0  0
   25.4689  -22.1982  -17.1770 C   0  0  0  0  0  0  0  0  0  0  0  0
   25.9990  -22.7275  -16.0619 N   0  0  0  0  0  0  0  0  0  0  0  0
   24.8070  -21.6534  -12.9108 C   0  0  0  0  0  0  0  0  0  0  0  0
   24.5208  -22.7521  -12.3529 O   0  0  0  0  0  0  0  0  0  0  0  0
   18.0169  -19.9433  -14.5409 N   0  0  0  0  0  0  0  0  0  0  0  0
   18.9775  -19.8303  -13.4898 C   0  0  0  0  0  0  0  0  0  0  0  0
   18.9302  -18.8112  -12.7726 O   0  0  0  0  0  0  0  0  0  0  0  0
   19.9848  -20.8909  -13.2757 C   0  0  0  0  0  0  0  0  0  0  0  0
   21.4031  -20.4183  -13.2578 C   0  0  0  0  0  0  0  0  0  0  0  0
   22.3495  -21.5279  -13.5486 C   0  0  2  0  0  0  0  0  0  0  0  0
   23.7420  -21.0056  -13.5932 N   0  0  0  0  0  0  0  0  0  0  0  0
   22.1117  -22.1735  -14.8509 C   0  0  0  0  0  0  0  0  0  0  0  0
   21.6774  -23.3389  -14.9450 O   0  0  0  0  0  0  0  0  0  0  0  0
   22.3703  -21.4875  -16.0201 O   0  0  0  0  0  0  0  0  0  0  0  0
  2  1  1  1
  2 13  1  0
  2  3  1  0
  4  3  1  0
  4  5  2  0
  6  5  1  0
  7  6  1  0
  8  7  2  0
  9  8  1  0
 10  9  2  0
 10 11  1  0
 11 12  2  0
 12  7  1  0
 12  4  1  0
 13 14  2  0
 15 16  1  0
 15 13  1  0
 16 17  1  6
 18 17  1  0
 19 18  2  0
 20 21  1  0
 20 19  1  0
 21 22  2  0
 22 18  1  0
 23 31  1  0
 23 16  1  0
 24 23  2  0
 25 26  1  0
 26 27  2  0
 26 28  1  0
 28 29  1  0
 30 29  1  6
 30 31  1  0
 30 32  1  0
 32 34  1  0
 33 32  2  0
M  END
$$$$
