WHQ.pdb
     RDKit          3D

 34 36  0  0  1  0  0  0  0  0999 V2000
   20.7111   -8.8997  -15.6689 N   0  0  0  0  0  0  0  0  0  0  0  0
   20.9091   -8.6897  -14.2745 C   0  0  1  0  0  0  0  0  0  0  0  0
   21.8152   -7.5165  -13.9858 C   0  0  0  0  0  0  0  0  0  0  0  0
   23.1129   -7.6864  -14.6456 C   0  0  0  0  0  0  0  0  0  0  0  0
   23.6709   -6.8233  -15.5500 C   0  0  0  0  0  0  0  0  0  0  0  0
   24.8652   -7.3478  -15.9131 N   0  0  0  0  0  0  0  0  0  0  0  0
   25.0948   -8.4946  -15.2894 C   0  0  0  0  0  0  0  0  0  0  0  0
   26.1328   -9.4044  -15.3038 C   0  0  0  0  0  0  0  0  0  0  0  0
   26.0480  -10.5244  -14.5105 C   0  0  0  0  0  0  0  0  0  0  0  0
   24.9705  -10.7618  -13.7118 C   0  0  0  0  0  0  0  0  0  0  0  0
   23.9375   -9.8640  -13.6925 C   0  0  0  0  0  0  0  0  0  0  0  0
   23.9917   -8.7305  -14.4764 C   0  0  0  0  0  0  0  0  0  0  0  0
   19.6206   -8.4568  -13.5295 C   0  0  0  0  0  0  0  0  0  0  0  0
   18.7503   -7.7178  -14.0452 O   0  0  0  0  0  0  0  0  0  0  0  0
   19.3723   -9.0459  -12.2744 N   0  0  0  0  0  0  0  0  0  0  0  0
   18.2600   -8.9364  -11.4117 C   0  0  1  0  0  0  0  0  0  0  0  0
   18.0313  -10.1265  -10.4651 C   0  0  0  0  0  0  0  0  0  0  0  0
   17.5154  -11.3099  -11.1959 C   0  0  0  0  0  0  0  0  0  0  0  0
   17.0660  -11.2824  -12.5006 C   0  0  0  0  0  0  0  0  0  0  0  0
   16.6662  -12.5278  -12.8596 N   0  0  0  0  0  0  0  0  0  0  0  0
   16.8596  -13.3300  -11.7997 C   0  0  0  0  0  0  0  0  0  0  0  0
   17.3709  -12.5841  -10.8061 N   0  0  0  0  0  0  0  0  0  0  0  0
   18.0545   -7.7052  -10.6837 C   0  0  0  0  0  0  0  0  0  0  0  0
   19.0504   -7.1718  -10.1146 O   0  0  0  0  0  0  0  0  0  0  0  0
   17.4267   -2.3916  -12.6102 N   0  0  0  0  0  0  0  0  0  0  0  0
   16.9667   -2.1389  -11.2817 C   0  0  0  0  0  0  0  0  0  0  0  0
   16.7999   -0.9496  -10.9458 O   0  0  0  0  0  0  0  0  0  0  0  0
   16.7050   -3.2580  -10.3518 C   0  0  0  0  0  0  0  0  0  0  0  0
   16.9352   -4.6198  -10.9243 C   0  0  0  0  0  0  0  0  0  0  0  0
   16.7301   -5.6807   -9.9027 C   0  0  2  0  0  0  0  0  0  0  0  0
   16.8167   -7.0214  -10.5422 N   0  0  0  0  0  0  0  0  0  0  0  0
   15.4094   -5.6204   -9.2536 C   0  0  0  0  0  0  0  0  0  0  0  0
   14.4875   -6.4066   -9.5495 O   0  0  0  0  0  0  0  0  0  0  0  0
   15.1586   -4.6719   -8.2832 O   0  0  0  0  0  0  0  0  0  0  0  0
  2  1  1  6
  2 13  1  0
  2  3  1  0
  4  3  1  0
  4  5  2  0
  6  5  1  0
  7  6  1  0
  8  7  2  0
  9  8  1  0
 10  9  2  0
 10 11  1  0
 11 12  2  0
 12  7  1  0
 12  4  1  0
 13 14  2  0
 15 16  1  0
 15 13  1  0
 16 17  1  1
 18 17  1  0
 19 18  2  0
 20 21  1  0
 20 19  1  0
 21 22  2  0
 22 18  1  0
 23 31  1  0
 23 16  1  0
 24 23  2  0
 25 26  1  0
 26 27  2  0
 26 28  1  0
 28 29  1  0
 30 29  1  6
 30 31  1  0
 30 32  1  0
 32 34  1  0
 33 32  2  0
M  END
$$$$
