WHQ.pdb
     RDKit          3D

 34 36  0  0  1  0  0  0  0  0999 V2000
   20.8839  -11.6066  -22.6112 N   0  0  0  0  0  0  0  0  0  0  0  0
   21.8721  -10.9784  -21.8008 C   0  0  1  0  0  0  0  0  0  0  0  0
   22.6681   -9.9396  -22.5545 C   0  0  0  0  0  0  0  0  0  0  0  0
   23.4974  -10.5675  -23.5871 C   0  0  0  0  0  0  0  0  0  0  0  0
   23.0896  -10.8965  -24.8518 C   0  0  0  0  0  0  0  0  0  0  0  0
   24.1534  -11.4510  -25.4794 N   0  0  0  0  0  0  0  0  0  0  0  0
   25.2123  -11.4917  -24.6830 C   0  0  0  0  0  0  0  0  0  0  0  0
   26.5078  -11.9448  -24.8303 C   0  0  0  0  0  0  0  0  0  0  0  0
   27.3774  -11.8322  -23.7710 C   0  0  0  0  0  0  0  0  0  0  0  0
   26.9977  -11.2871  -22.5818 C   0  0  0  0  0  0  0  0  0  0  0  0
   25.7147  -10.8357  -22.4285 C   0  0  0  0  0  0  0  0  0  0  0  0
   24.8178  -10.9340  -23.4717 C   0  0  0  0  0  0  0  0  0  0  0  0
   21.2899  -10.3047  -20.5857 C   0  0  0  0  0  0  0  0  0  0  0  0
   20.2659   -9.5958  -20.7211 O   0  0  0  0  0  0  0  0  0  0  0  0
   21.8659  -10.4512  -19.3087 N   0  0  0  0  0  0  0  0  0  0  0  0
   21.4732   -9.9273  -18.0578 C   0  0  1  0  0  0  0  0  0  0  0  0
   21.8104  -10.7974  -16.8355 C   0  0  0  0  0  0  0  0  0  0  0  0
   21.2318  -10.2333  -15.5915 C   0  0  0  0  0  0  0  0  0  0  0  0
   21.9764   -9.6807  -14.5692 C   0  0  0  0  0  0  0  0  0  0  0  0
   21.1406   -9.2625  -13.5862 N   0  0  0  0  0  0  0  0  0  0  0  0
   19.8880   -9.5459  -13.9800 C   0  0  0  0  0  0  0  0  0  0  0  0
   19.9579  -10.1296  -15.1880 N   0  0  0  0  0  0  0  0  0  0  0  0
   21.7661   -8.5457  -17.7517 C   0  0  0  0  0  0  0  0  0  0  0  0
   22.9772   -8.1814  -17.7249 O   0  0  0  0  0  0  0  0  0  0  0  0
   18.2747   -3.6985  -19.1359 N   0  0  0  0  0  0  0  0  0  0  0  0
   17.9769   -4.2728  -17.8624 C   0  0  0  0  0  0  0  0  0  0  0  0
   16.8309   -4.0954  -17.4037 O   0  0  0  0  0  0  0  0  0  0  0  0
   19.0021   -5.0443  -17.1281 C   0  0  0  0  0  0  0  0  0  0  0  0
   20.3139   -5.1788  -17.8326 C   0  0  0  0  0  0  0  0  0  0  0  0
   21.2077   -6.1429  -17.1377 C   0  0  2  0  0  0  0  0  0  0  0  0
   20.8059   -7.5359  -17.4723 N   0  0  0  0  0  0  0  0  0  0  0  0
   21.1496   -6.0409  -15.6695 C   0  0  0  0  0  0  0  0  0  0  0  0
   21.7438   -5.1415  -15.0422 O   0  0  0  0  0  0  0  0  0  0  0  0
   20.4206   -6.9587  -14.9410 O   0  0  0  0  0  0  0  0  0  0  0  0
  2  1  1  6
  2 13  1  0
  2  3  1  0
  4  3  1  0
  4  5  2  0
  6  5  1  0
  7  6  1  0
  8  7  2  0
  9  8  1  0
 10  9  2  0
 10 11  1  0
 11 12  2  0
 12  7  1  0
 12  4  1  0
 13 14  2  0
 15 16  1  0
 15 13  1  0
 16 17  1  1
 18 17  1  0
 19 18  2  0
 20 21  1  0
 20 19  1  0
 21 22  2  0
 22 18  1  0
 23 31  1  0
 23 16  1  0
 24 23  2  0
 25 26  1  0
 26 27  2  0
 26 28  1  0
 28 29  1  0
 30 29  1  6
 30 31  1  0
 30 32  1  0
 32 34  1  0
 33 32  2  0
M  END
$$$$
