WHQ.pdb
     RDKit          3D

 34 36  0  0  1  0  0  0  0  0999 V2000
   16.6973  -16.6661    4.0500 N   0  0  0  0  0  0  0  0  0  0  0  0
   17.1111  -17.7725    4.8453 C   0  0  1  0  0  0  0  0  0  0  0  0
   18.1090  -18.6573    4.1367 C   0  0  0  0  0  0  0  0  0  0  0  0
   17.5031  -19.2865    2.9598 C   0  0  0  0  0  0  0  0  0  0  0  0
   17.4440  -18.7458    1.7035 C   0  0  0  0  0  0  0  0  0  0  0  0
   16.8073  -19.6439    0.9153 N   0  0  0  0  0  0  0  0  0  0  0  0
   16.4599  -20.7232    1.6021 C   0  0  0  0  0  0  0  0  0  0  0  0
   15.8090  -21.8973    1.2809 C   0  0  0  0  0  0  0  0  0  0  0  0
   15.6055  -22.8365    2.2645 C   0  0  0  0  0  0  0  0  0  0  0  0
   16.0270  -22.6420    3.5451 C   0  0  0  0  0  0  0  0  0  0  0  0
   16.6731  -21.4800    3.8707 C   0  0  0  0  0  0  0  0  0  0  0  0
   16.8930  -20.5178    2.9074 C   0  0  0  0  0  0  0  0  0  0  0  0
   17.7305  -17.3533    6.1530 C   0  0  0  0  0  0  0  0  0  0  0  0
   18.6012  -16.4526    6.1472 O   0  0  0  0  0  0  0  0  0  0  0  0
   17.3570  -17.9465    7.3747 N   0  0  0  0  0  0  0  0  0  0  0  0
   17.8796  -17.7785    8.6755 C   0  0  1  0  0  0  0  0  0  0  0  0
   16.9257  -18.1347    9.8279 C   0  0  0  0  0  0  0  0  0  0  0  0
   15.8744  -17.1025   10.0010 C   0  0  0  0  0  0  0  0  0  0  0  0
   15.8278  -15.9154    9.2986 C   0  0  0  0  0  0  0  0  0  0  0  0
   14.7434  -15.2049    9.6974 N   0  0  0  0  0  0  0  0  0  0  0  0
   14.1144  -15.9306   10.6366 C   0  0  0  0  0  0  0  0  0  0  0  0
   14.8056  -17.0695   10.8091 N   0  0  0  0  0  0  0  0  0  0  0  0
   19.1971  -18.2914    8.9748 C   0  0  0  0  0  0  0  0  0  0  0  0
   19.6048  -19.3050    8.3372 O   0  0  0  0  0  0  0  0  0  0  0  0
   23.9780  -15.3820   11.9906 N   0  0  0  0  0  0  0  0  0  0  0  0
   23.6149  -15.2764   10.6132 C   0  0  0  0  0  0  0  0  0  0  0  0
   24.0837  -14.3196    9.9651 O   0  0  0  0  0  0  0  0  0  0  0  0
   22.7136  -16.2722    9.9955 C   0  0  0  0  0  0  0  0  0  0  0  0
   22.3065  -17.3960   10.8935 C   0  0  0  0  0  0  0  0  0  0  0  0
   21.4309  -18.3675   10.1858 C   0  0  2  0  0  0  0  0  0  0  0  0
   20.0975  -17.7564    9.9354 N   0  0  0  0  0  0  0  0  0  0  0  0
   21.1800  -19.5978   10.9557 C   0  0  0  0  0  0  0  0  0  0  0  0
   20.0646  -19.8560   11.4503 O   0  0  0  0  0  0  0  0  0  0  0  0
   22.1963  -20.5109   11.1503 O   0  0  0  0  0  0  0  0  0  0  0  0
  2  1  1  6
  2 13  1  0
  2  3  1  0
  4  3  1  0
  4  5  2  0
  6  5  1  0
  7  6  1  0
  8  7  2  0
  9  8  1  0
 10  9  2  0
 10 11  1  0
 11 12  2  0
 12  7  1  0
 12  4  1  0
 13 14  2  0
 15 16  1  0
 15 13  1  0
 16 17  1  1
 18 17  1  0
 19 18  2  0
 20 21  1  0
 20 19  1  0
 21 22  2  0
 22 18  1  0
 23 31  1  0
 23 16  1  0
 24 23  2  0
 25 26  1  0
 26 27  2  0
 26 28  1  0
 28 29  1  0
 30 29  1  1
 30 31  1  0
 30 32  1  0
 32 34  1  0
 33 32  2  0
M  END
$$$$
