WHQ.pdb
     RDKit          3D

 34 36  0  0  1  0  0  0  0  0999 V2000
   27.2619  -21.9168  -12.2662 N   0  0  0  0  0  0  0  0  0  0  0  0
   26.0577  -21.4038  -11.7053 C   0  0  1  0  0  0  0  0  0  0  0  0
   26.3091  -20.3562  -10.6469 C   0  0  0  0  0  0  0  0  0  0  0  0
   27.5603  -20.6271   -9.9332 C   0  0  0  0  0  0  0  0  0  0  0  0
   28.7327  -21.0462  -10.5023 C   0  0  0  0  0  0  0  0  0  0  0  0
   29.6347  -21.1764   -9.5010 N   0  0  0  0  0  0  0  0  0  0  0  0
   29.0993  -20.8632   -8.3296 C   0  0  0  0  0  0  0  0  0  0  0  0
   29.5756  -20.8294   -7.0345 C   0  0  0  0  0  0  0  0  0  0  0  0
   28.7271  -20.4457   -6.0226 C   0  0  0  0  0  0  0  0  0  0  0  0
   27.4317  -20.0986   -6.2610 C   0  0  0  0  0  0  0  0  0  0  0  0
   26.9527  -20.1298   -7.5428 C   0  0  0  0  0  0  0  0  0  0  0  0
   27.7779  -20.5101   -8.5804 C   0  0  0  0  0  0  0  0  0  0  0  0
   25.1466  -20.7914  -12.7369 C   0  0  0  0  0  0  0  0  0  0  0  0
   25.6555  -20.2342  -13.7370 O   0  0  0  0  0  0  0  0  0  0  0  0
   23.7448  -20.8293  -12.6048 N   0  0  0  0  0  0  0  0  0  0  0  0
   22.7870  -21.6706  -13.2117 C   0  0  1  0  0  0  0  0  0  0  0  0
   23.0891  -23.1771  -13.1502 C   0  0  0  0  0  0  0  0  0  0  0  0
   24.0746  -23.5757  -14.1849 C   0  0  0  0  0  0  0  0  0  0  0  0
   24.5542  -22.7329  -15.1669 C   0  0  0  0  0  0  0  0  0  0  0  0
   25.4355  -23.4110  -15.9436 N   0  0  0  0  0  0  0  0  0  0  0  0
   25.5122  -24.6622  -15.4609 C   0  0  0  0  0  0  0  0  0  0  0  0
   24.6884  -24.7471  -14.4030 N   0  0  0  0  0  0  0  0  0  0  0  0
   21.3857  -21.4561  -12.9313 C   0  0  0  0  0  0  0  0  0  0  0  0
   20.9472  -21.7757  -11.7886 O   0  0  0  0  0  0  0  0  0  0  0  0
   18.9047  -16.2146  -15.9055 N   0  0  0  0  0  0  0  0  0  0  0  0
   19.0452  -16.2169  -14.4840 C   0  0  0  0  0  0  0  0  0  0  0  0
   19.3052  -15.1310  -13.9286 O   0  0  0  0  0  0  0  0  0  0  0  0
   18.8870  -17.4699  -13.7156 C   0  0  0  0  0  0  0  0  0  0  0  0
   19.8323  -18.5646  -14.0942 C   0  0  0  0  0  0  0  0  0  0  0  0
   19.4829  -19.8423  -13.4184 C   0  0  2  0  0  0  0  0  0  0  0  0
   20.4330  -20.9096  -13.8332 N   0  0  0  0  0  0  0  0  0  0  0  0
   18.1376  -20.3357  -13.7594 C   0  0  0  0  0  0  0  0  0  0  0  0
   17.9416  -21.1377  -14.6942 O   0  0  0  0  0  0  0  0  0  0  0  0
   17.0417  -19.9116  -13.0359 O   0  0  0  0  0  0  0  0  0  0  0  0
  2  1  1  6
  2 13  1  0
  2  3  1  0
  4  3  1  0
  4  5  2  0
  6  5  1  0
  7  6  1  0
  8  7  2  0
  9  8  1  0
 10  9  2  0
 10 11  1  0
 11 12  2  0
 12  7  1  0
 12  4  1  0
 13 14  2  0
 15 16  1  0
 15 13  1  0
 16 17  1  1
 18 17  1  0
 19 18  2  0
 20 21  1  0
 20 19  1  0
 21 22  2  0
 22 18  1  0
 23 31  1  0
 23 16  1  0
 24 23  2  0
 25 26  1  0
 26 27  2  0
 26 28  1  0
 28 29  1  0
 30 29  1  6
 30 31  1  0
 30 32  1  0
 32 34  1  0
 33 32  2  0
M  END
$$$$
