IIF.pdb
     RDKit          3D

 28 28  0  0  1  0  0  0  0  0999 V2000
   19.8565  -20.4305  -12.8014 C   0  0  0  0  0  0  0  0  0  0  0  0
   21.2519  -20.2150  -13.3549 C   0  0  0  0  0  0  0  0  0  0  0  0
   22.2233  -20.8626  -12.3902 C   0  0  2  0  0  0  0  0  0  0  0  0
   21.9470  -20.3416  -11.0173 C   0  0  0  0  0  0  0  0  0  0  0  0
   23.6136  -20.5574  -12.8848 C   0  0  2  0  0  0  0  0  0  0  0  0
   23.7210  -21.0679  -14.2306 N   0  0  0  0  0  0  0  0  0  0  0  0
   24.6546  -21.2083  -12.0314 C   0  0  0  0  0  0  0  0  0  0  0  0
   24.6932  -22.4647  -11.9131 O   0  0  0  0  0  0  0  0  0  0  0  0
   30.3309  -21.3952  -11.6716 C   0  0  0  0  0  0  0  0  0  0  0  0
   29.1232  -21.5489  -10.7187 C   0  0  0  0  0  0  0  0  0  0  0  0
   27.9008  -20.9358  -11.3185 C   0  0  2  0  0  0  0  0  0  0  0  0
   28.2311  -19.6576  -12.0790 C   0  0  0  0  0  0  0  0  0  0  0  0
   26.6741  -20.8906  -10.5115 C   0  0  2  0  0  0  0  0  0  0  0  0
   25.5852  -20.3914  -11.3671 N   0  0  0  0  0  0  0  0  0  0  0  0
   26.6508  -20.3136   -9.1928 C   0  0  0  0  0  0  0  0  0  0  0  0
   26.3284  -19.1047   -9.0311 O   0  0  0  0  0  0  0  0  0  0  0  0
   26.9718  -21.0357   -8.0184 N   0  0  0  0  0  0  0  0  0  0  0  0
   27.1229  -20.3572   -6.7182 C   0  0  1  0  0  0  0  0  0  0  0  0
   26.8171  -21.4090   -5.6706 C   0  0  0  0  0  0  0  0  0  0  0  0
   25.7080  -21.0098   -4.7687 C   0  0  0  0  0  0  0  0  0  0  0  0
   25.9524  -20.4398   -3.5261 C   0  0  0  0  0  0  0  0  0  0  0  0
   24.9424  -20.0550   -2.6692 C   0  0  0  0  0  0  0  0  0  0  0  0
   23.6472  -20.2592   -3.0955 C   0  0  0  0  0  0  0  0  0  0  0  0
   23.3864  -20.8163   -4.3097 C   0  0  0  0  0  0  0  0  0  0  0  0
   24.4066  -21.2042   -5.1738 C   0  0  0  0  0  0  0  0  0  0  0  0
   28.4952  -19.8090   -6.6001 C   0  0  0  0  0  0  0  0  0  0  0  0
   28.7519  -18.8236   -5.8745 O   0  0  0  0  0  0  0  0  0  0  0  0
   29.5516  -20.3783   -7.2991 O   0  0  0  0  0  0  0  0  0  0  0  0
  2  1  1  0
  3  2  1  0
  3  4  1  1
  5  3  1  0
  5  6  1  6
  7  5  1  0
  8  7  2  0
 10 11  1  0
 10  9  1  0
 11 13  1  0
 11 12  1  1
 13 14  1  6
 14  7  1  0
 15 13  1  0
 15 16  2  0
 17 18  1  0
 17 15  1  0
 18 19  1  1
 19 20  1  0
 20 25  2  0
 21 22  2  0
 21 20  1  0
 22 23  1  0
 23 24  2  0
 25 24  1  0
 26 18  1  0
 27 26  2  0
 28 26  1  0
M  END
$$$$
