IIF.pdb
     RDKit          3D

 28 28  0  0  1  0  0  0  0  0999 V2000
   28.3413  -18.6812  -18.2793 C   0  0  0  0  0  0  0  0  0  0  0  0
   28.7195  -19.4306  -17.0164 C   0  0  0  0  0  0  0  0  0  0  0  0
   27.4311  -19.8285  -16.3267 C   0  0  2  0  0  0  0  0  0  0  0  0
   26.6512  -18.5898  -16.0270 C   0  0  0  0  0  0  0  0  0  0  0  0
   27.8073  -20.6185  -15.0999 C   0  0  2  0  0  0  0  0  0  0  0  0
   28.5241  -21.7921  -15.5381 N   0  0  0  0  0  0  0  0  0  0  0  0
   26.5985  -21.0442  -14.3297 C   0  0  0  0  0  0  0  0  0  0  0  0
   25.8748  -21.9921  -14.7443 O   0  0  0  0  0  0  0  0  0  0  0  0
   27.0577  -20.7194   -8.9735 C   0  0  0  0  0  0  0  0  0  0  0  0
   26.6730  -21.2121  -10.3875 C   0  0  0  0  0  0  0  0  0  0  0  0
   25.4879  -20.4617  -10.8997 C   0  0  2  0  0  0  0  0  0  0  0  0
   24.3379  -20.4819   -9.9006 C   0  0  0  0  0  0  0  0  0  0  0  0
   25.1043  -20.6380  -12.3068 C   0  0  2  0  0  0  0  0  0  0  0  0
   26.2885  -20.3668  -13.1382 N   0  0  0  0  0  0  0  0  0  0  0  0
   23.9035  -20.0564  -12.8475 C   0  0  0  0  0  0  0  0  0  0  0  0
   23.8929  -18.8539  -13.2288 O   0  0  0  0  0  0  0  0  0  0  0  0
   22.6878  -20.7671  -12.9918 N   0  0  0  0  0  0  0  0  0  0  0  0
   21.5270  -20.1697  -13.6767 C   0  0  1  0  0  0  0  0  0  0  0  0
   21.9150  -20.0848  -15.1395 C   0  0  0  0  0  0  0  0  0  0  0  0
   20.8036  -19.6032  -15.9970 C   0  0  0  0  0  0  0  0  0  0  0  0
   20.4496  -18.2610  -16.0406 C   0  0  0  0  0  0  0  0  0  0  0  0
   19.4247  -17.7841  -16.8309 C   0  0  0  0  0  0  0  0  0  0  0  0
   18.7436  -18.7056  -17.5975 C   0  0  0  0  0  0  0  0  0  0  0  0
   19.0750  -20.0256  -17.5692 C   0  0  0  0  0  0  0  0  0  0  0  0
   20.1096  -20.5058  -16.7712 C   0  0  0  0  0  0  0  0  0  0  0  0
   20.3277  -21.0102  -13.4471 C   0  0  0  0  0  0  0  0  0  0  0  0
   19.1927  -20.5107  -13.2868 O   0  0  0  0  0  0  0  0  0  0  0  0
   20.4268  -22.3947  -13.4022 O   0  0  0  0  0  0  0  0  0  0  0  0
  2  1  1  0
  3  2  1  0
  3  4  1  1
  5  3  1  0
  5  6  1  6
  7  5  1  0
  8  7  2  0
 10 11  1  0
 10  9  1  0
 11 13  1  0
 11 12  1  1
 13 14  1  6
 14  7  1  0
 15 13  1  0
 15 16  2  0
 17 18  1  0
 17 15  1  0
 18 19  1  6
 19 20  1  0
 20 25  2  0
 21 22  2  0
 21 20  1  0
 22 23  1  0
 23 24  2  0
 25 24  1  0
 26 18  1  0
 27 26  2  0
 28 26  1  0
M  END
$$$$
