IIF.pdb
     RDKit          3D

 28 28  0  0  1  0  0  0  0  0999 V2000
   27.1960  -19.4739  -21.0519 C   0  0  0  0  0  0  0  0  0  0  0  0
   25.6856  -19.5832  -21.1327 C   0  0  0  0  0  0  0  0  0  0  0  0
   25.1284  -19.1001  -19.8099 C   0  0  2  0  0  0  0  0  0  0  0  0
   25.7351  -19.9143  -18.7137 C   0  0  0  0  0  0  0  0  0  0  0  0
   23.6279  -19.2145  -19.8893 C   0  0  2  0  0  0  0  0  0  0  0  0
   23.1761  -18.3246  -20.9320 N   0  0  0  0  0  0  0  0  0  0  0  0
   22.9790  -18.8247  -18.5999 C   0  0  0  0  0  0  0  0  0  0  0  0
   23.0909  -17.6482  -18.1555 O   0  0  0  0  0  0  0  0  0  0  0  0
   18.0021  -18.7645  -17.7828 C   0  0  0  0  0  0  0  0  0  0  0  0
   19.5316  -18.5614  -17.6849 C   0  0  0  0  0  0  0  0  0  0  0  0
   20.1425  -19.5984  -16.8008 C   0  0  2  0  0  0  0  0  0  0  0  0
   19.3080  -19.8272  -15.5468 C   0  0  0  0  0  0  0  0  0  0  0  0
   21.5968  -19.5717  -16.5947 C   0  0  2  0  0  0  0  0  0  0  0  0
   22.2447  -19.7952  -17.8974 N   0  0  0  0  0  0  0  0  0  0  0  0
   22.2286  -20.3051  -15.5291 C   0  0  0  0  0  0  0  0  0  0  0  0
   22.3705  -21.5559  -15.6124 O   0  0  0  0  0  0  0  0  0  0  0  0
   22.7256  -19.6983  -14.3508 N   0  0  0  0  0  0  0  0  0  0  0  0
   23.2626  -20.5057  -13.2403 C   0  0  1  0  0  0  0  0  0  0  0  0
   24.4323  -19.7151  -12.6887 C   0  0  0  0  0  0  0  0  0  0  0  0
   25.0409  -20.3549  -11.4959 C   0  0  0  0  0  0  0  0  0  0  0  0
   24.6919  -19.9696  -10.2081 C   0  0  0  0  0  0  0  0  0  0  0  0
   25.2373  -20.5489   -9.0814 C   0  0  0  0  0  0  0  0  0  0  0  0
   26.1651  -21.5496   -9.2779 C   0  0  0  0  0  0  0  0  0  0  0  0
   26.5209  -21.9419  -10.5319 C   0  0  0  0  0  0  0  0  0  0  0  0
   25.9697  -21.3566  -11.6683 C   0  0  0  0  0  0  0  0  0  0  0  0
   22.1987  -20.7372  -12.2342 C   0  0  0  0  0  0  0  0  0  0  0  0
   21.3401  -19.8676  -11.9698 O   0  0  0  0  0  0  0  0  0  0  0  0
   22.1202  -21.9405  -11.5453 O   0  0  0  0  0  0  0  0  0  0  0  0
  2  1  1  0
  3  2  1  0
  3  4  1  1
  5  3  1  0
  5  6  1  6
  7  5  1  0
  8  7  2  0
 10 11  1  0
 10  9  1  0
 11 13  1  0
 11 12  1  1
 13 14  1  6
 14  7  1  0
 15 13  1  0
 15 16  2  0
 17 18  1  0
 17 15  1  0
 18 19  1  1
 19 20  1  0
 20 25  2  0
 21 22  2  0
 21 20  1  0
 22 23  1  0
 23 24  2  0
 25 24  1  0
 26 18  1  0
 27 26  2  0
 28 26  1  0
M  END
$$$$
