IIF.pdb
     RDKit          3D

 28 28  0  0  1  0  0  0  0  0999 V2000
   19.1592  -16.5054  -15.5313 C   0  0  0  0  0  0  0  0  0  0  0  0
   20.2814  -16.3215  -16.5345 C   0  0  0  0  0  0  0  0  0  0  0  0
   21.4266  -17.2104  -16.0962 C   0  0  2  0  0  0  0  0  0  0  0  0
   21.8289  -16.8179  -14.7117 C   0  0  0  0  0  0  0  0  0  0  0  0
   22.5273  -17.0543  -17.1134 C   0  0  2  0  0  0  0  0  0  0  0  0
   21.9766  -17.3801  -18.4072 N   0  0  0  0  0  0  0  0  0  0  0  0
   23.6736  -17.9704  -16.8262 C   0  0  0  0  0  0  0  0  0  0  0  0
   23.5191  -19.2229  -16.8654 O   0  0  0  0  0  0  0  0  0  0  0  0
   28.3875  -16.9865  -19.1151 C   0  0  0  0  0  0  0  0  0  0  0  0
   27.1224  -17.6029  -18.4751 C   0  0  0  0  0  0  0  0  0  0  0  0
   27.2435  -17.6211  -16.9868 C   0  0  2  0  0  0  0  0  0  0  0  0
   28.6380  -18.0459  -16.5438 C   0  0  0  0  0  0  0  0  0  0  0  0
   26.1346  -18.1807  -16.2025 C   0  0  2  0  0  0  0  0  0  0  0  0
   24.9219  -17.4062  -16.5130 N   0  0  0  0  0  0  0  0  0  0  0  0
   26.2638  -18.4672  -14.7977 C   0  0  0  0  0  0  0  0  0  0  0  0
   26.1681  -17.5411  -13.9464 O   0  0  0  0  0  0  0  0  0  0  0  0
   26.4948  -19.7656  -14.2833 N   0  0  0  0  0  0  0  0  0  0  0  0
   26.7700  -19.9854  -12.8516 C   0  0  1  0  0  0  0  0  0  0  0  0
   25.5409  -19.4868  -12.1181 C   0  0  0  0  0  0  0  0  0  0  0  0
   25.6162  -19.7212  -10.6546 C   0  0  0  0  0  0  0  0  0  0  0  0
   26.3364  -18.8763   -9.8202 C   0  0  0  0  0  0  0  0  0  0  0  0
   26.4205  -19.0667   -8.4568 C   0  0  0  0  0  0  0  0  0  0  0  0
   25.7494  -20.1510   -7.9328 C   0  0  0  0  0  0  0  0  0  0  0  0
   25.0379  -20.9911   -8.7333 C   0  0  0  0  0  0  0  0  0  0  0  0
   24.9536  -20.7980  -10.1094 C   0  0  0  0  0  0  0  0  0  0  0  0
   27.0393  -21.4234  -12.6123 C   0  0  0  0  0  0  0  0  0  0  0  0
   27.6711  -21.8182  -11.6081 O   0  0  0  0  0  0  0  0  0  0  0  0
   26.5939  -22.3892  -13.5054 O   0  0  0  0  0  0  0  0  0  0  0  0
  2  1  1  0
  3  2  1  0
  3  4  1  1
  5  3  1  0
  5  6  1  6
  7  5  1  0
  8  7  2  0
 10 11  1  0
 10  9  1  0
 11 13  1  0
 11 12  1  6
 13 14  1  1
 14  7  1  0
 15 13  1  0
 15 16  2  0
 17 18  1  0
 17 15  1  0
 18 19  1  1
 19 20  1  0
 20 25  2  0
 21 22  2  0
 21 20  1  0
 22 23  1  0
 23 24  2  0
 25 24  1  0
 26 18  1  0
 27 26  2  0
 28 26  1  0
M  END
$$$$
