IIF.pdb
     RDKit          3D

 28 28  0  0  1  0  0  0  0  0999 V2000
   28.4007  -16.3024  -17.2940 C   0  0  0  0  0  0  0  0  0  0  0  0
   28.0468  -17.7257  -16.9086 C   0  0  0  0  0  0  0  0  0  0  0  0
   27.2362  -17.6574  -15.6311 C   0  0  2  0  0  0  0  0  0  0  0  0
   28.0673  -17.0023  -14.5762 C   0  0  0  0  0  0  0  0  0  0  0  0
   26.8234  -19.0656  -15.2887 C   0  0  2  0  0  0  0  0  0  0  0  0
   26.1567  -19.6189  -16.4431 N   0  0  0  0  0  0  0  0  0  0  0  0
   25.8867  -19.0947  -14.1236 C   0  0  0  0  0  0  0  0  0  0  0  0
   24.7613  -18.5263  -14.1910 O   0  0  0  0  0  0  0  0  0  0  0  0
   22.1274  -20.8563  -13.6551 C   0  0  0  0  0  0  0  0  0  0  0  0
   23.3901  -20.0240  -13.3342 C   0  0  0  0  0  0  0  0  0  0  0  0
   24.2041  -20.6931  -12.2761 C   0  0  2  0  0  0  0  0  0  0  0  0
   23.3225  -21.3025  -11.1931 C   0  0  0  0  0  0  0  0  0  0  0  0
   25.4170  -20.0175  -11.7960 C   0  0  2  0  0  0  0  0  0  0  0  0
   26.2874  -19.7671  -12.9566 N   0  0  0  0  0  0  0  0  0  0  0  0
   26.1470  -20.4877  -10.6479 C   0  0  0  0  0  0  0  0  0  0  0  0
   26.5815  -21.6715  -10.6092 O   0  0  0  0  0  0  0  0  0  0  0  0
   26.4271  -19.6834   -9.5172 N   0  0  0  0  0  0  0  0  0  0  0  0
   26.8442  -20.2809   -8.2355 C   0  0  1  0  0  0  0  0  0  0  0  0
   27.3582  -19.1286   -7.3957 C   0  0  0  0  0  0  0  0  0  0  0  0
   28.0598  -19.5849   -6.1701 C   0  0  0  0  0  0  0  0  0  0  0  0
   27.6149  -19.2285   -4.9037 C   0  0  0  0  0  0  0  0  0  0  0  0
   28.2437  -19.6411   -3.7475 C   0  0  0  0  0  0  0  0  0  0  0  0
   29.3581  -20.4400   -3.8911 C   0  0  0  0  0  0  0  0  0  0  0  0
   29.8104  -20.8006   -5.1233 C   0  0  0  0  0  0  0  0  0  0  0  0
   29.1749  -20.3837   -6.2896 C   0  0  0  0  0  0  0  0  0  0  0  0
   25.6927  -20.9776   -7.6138 C   0  0  0  0  0  0  0  0  0  0  0  0
   24.5204  -20.5640   -7.7482 O   0  0  0  0  0  0  0  0  0  0  0  0
   25.8807  -22.1246   -6.8538 O   0  0  0  0  0  0  0  0  0  0  0  0
  2  1  1  0
  3  2  1  0
  3  4  1  1
  5  3  1  0
  5  6  1  6
  7  5  1  0
  8  7  2  0
 10 11  1  0
 10  9  1  0
 11 13  1  0
 11 12  1  1
 13 14  1  6
 14  7  1  0
 15 13  1  0
 15 16  2  0
 17 18  1  0
 17 15  1  0
 18 19  1  1
 19 20  1  0
 20 25  2  0
 21 22  2  0
 21 20  1  0
 22 23  1  0
 23 24  2  0
 25 24  1  0
 26 18  1  0
 27 26  2  0
 28 26  1  0
M  END
$$$$
