IIF.pdb
     RDKit          3D

 28 28  0  0  1  0  0  0  0  0999 V2000
   25.3359  -13.5071  -15.8361 C   0  0  0  0  0  0  0  0  0  0  0  0
   26.2497  -14.6441  -16.2506 C   0  0  0  0  0  0  0  0  0  0  0  0
   25.7628  -15.8925  -15.5449 C   0  0  2  0  0  0  0  0  0  0  0  0
   25.8611  -15.6729  -14.0702 C   0  0  0  0  0  0  0  0  0  0  0  0
   26.6004  -17.0420  -16.0427 C   0  0  2  0  0  0  0  0  0  0  0  0
   26.5437  -17.0321  -17.4850 N   0  0  0  0  0  0  0  0  0  0  0  0
   26.0846  -18.3535  -15.5430 C   0  0  0  0  0  0  0  0  0  0  0  0
   24.9481  -18.7731  -15.8986 O   0  0  0  0  0  0  0  0  0  0  0  0
   29.2997  -22.8883  -15.1283 C   0  0  0  0  0  0  0  0  0  0  0  0
   28.7182  -21.6418  -14.4224 C   0  0  0  0  0  0  0  0  0  0  0  0
   27.2858  -21.4475  -14.7972 C   0  0  2  0  0  0  0  0  0  0  0  0
   27.0892  -21.5056  -16.3069 C   0  0  0  0  0  0  0  0  0  0  0  0
   26.5162  -20.4082  -14.1004 C   0  0  2  0  0  0  0  0  0  0  0  0
   26.8917  -19.1045  -14.6718 N   0  0  0  0  0  0  0  0  0  0  0  0
   26.4091  -20.3732  -12.6652 C   0  0  0  0  0  0  0  0  0  0  0  0
   27.4188  -20.1096  -11.9564 O   0  0  0  0  0  0  0  0  0  0  0  0
   25.2031  -20.6185  -11.9658 N   0  0  0  0  0  0  0  0  0  0  0  0
   25.1812  -20.7487  -10.4973 C   0  0  1  0  0  0  0  0  0  0  0  0
   25.6259  -19.4026   -9.9611 C   0  0  0  0  0  0  0  0  0  0  0  0
   26.5859  -19.5260   -8.8361 C   0  0  0  0  0  0  0  0  0  0  0  0
   27.2177  -18.4136   -8.2956 C   0  0  0  0  0  0  0  0  0  0  0  0
   28.1105  -18.4973   -7.2477 C   0  0  0  0  0  0  0  0  0  0  0  0
   28.3637  -19.7534   -6.7389 C   0  0  0  0  0  0  0  0  0  0  0  0
   27.7548  -20.8564   -7.2543 C   0  0  0  0  0  0  0  0  0  0  0  0
   26.8538  -20.7708   -8.3120 C   0  0  0  0  0  0  0  0  0  0  0  0
   23.8179  -21.1240  -10.0519 C   0  0  0  0  0  0  0  0  0  0  0  0
   22.8496  -21.1512  -10.8425 O   0  0  0  0  0  0  0  0  0  0  0  0
   23.5693  -21.4611   -8.7279 O   0  0  0  0  0  0  0  0  0  0  0  0
  2  1  1  0
  3  2  1  0
  3  4  1  1
  5  3  1  0
  5  6  1  6
  7  5  1  0
  8  7  2  0
 10 11  1  0
 10  9  1  0
 11 13  1  0
 11 12  1  6
 13 14  1  1
 14  7  1  0
 15 13  1  0
 15 16  2  0
 17 18  1  0
 17 15  1  0
 18 19  1  1
 19 20  1  0
 20 25  2  0
 21 22  2  0
 21 20  1  0
 22 23  1  0
 23 24  2  0
 25 24  1  0
 26 18  1  0
 27 26  2  0
 28 26  1  0
M  END
$$$$
