IIF.pdb
     RDKit          3D

 28 28  0  0  1  0  0  0  0  0999 V2000
   26.5608  -14.2086  -15.2639 C   0  0  0  0  0  0  0  0  0  0  0  0
   26.4503  -15.6451  -15.7370 C   0  0  0  0  0  0  0  0  0  0  0  0
   26.0523  -16.4834  -14.5401 C   0  0  2  0  0  0  0  0  0  0  0  0
   27.0952  -16.3250  -13.4819 C   0  0  0  0  0  0  0  0  0  0  0  0
   25.8905  -17.9018  -15.0227 C   0  0  2  0  0  0  0  0  0  0  0  0
   24.9780  -17.8819  -16.1409 N   0  0  0  0  0  0  0  0  0  0  0  0
   25.3324  -18.7849  -13.9530 C   0  0  0  0  0  0  0  0  0  0  0  0
   24.1348  -18.6556  -13.5746 O   0  0  0  0  0  0  0  0  0  0  0  0
   23.4080  -22.2673  -14.1910 C   0  0  0  0  0  0  0  0  0  0  0  0
   24.9250  -22.1399  -14.4606 C   0  0  0  0  0  0  0  0  0  0  0  0
   25.6825  -22.0779  -13.1752 C   0  0  2  0  0  0  0  0  0  0  0  0
   25.4346  -23.3135  -12.3190 C   0  0  0  0  0  0  0  0  0  0  0  0
   25.7190  -20.8026  -12.4468 C   0  0  2  0  0  0  0  0  0  0  0  0
   26.1693  -19.7581  -13.3813 N   0  0  0  0  0  0  0  0  0  0  0  0
   26.3294  -20.6843  -11.1485 C   0  0  0  0  0  0  0  0  0  0  0  0
   27.5749  -20.5137  -11.0423 O   0  0  0  0  0  0  0  0  0  0  0  0
   25.6025  -20.7432   -9.9352 N   0  0  0  0  0  0  0  0  0  0  0  0
   26.2881  -20.8638   -8.6356 C   0  0  1  0  0  0  0  0  0  0  0  0
   27.0267  -19.5547   -8.4403 C   0  0  0  0  0  0  0  0  0  0  0  0
   27.6621  -19.4526   -7.1030 C   0  0  0  0  0  0  0  0  0  0  0  0
   28.4875  -20.4564   -6.6131 C   0  0  0  0  0  0  0  0  0  0  0  0
   29.0949  -20.3870   -5.3768 C   0  0  0  0  0  0  0  0  0  0  0  0
   28.8510  -19.2599   -4.6211 C   0  0  0  0  0  0  0  0  0  0  0  0
   28.0452  -18.2648   -5.0830 C   0  0  0  0  0  0  0  0  0  0  0  0
   27.4328  -18.3358   -6.3311 C   0  0  0  0  0  0  0  0  0  0  0  0
   25.2913  -21.1268   -7.5703 C   0  0  0  0  0  0  0  0  0  0  0  0
   24.0736  -20.8950   -7.7343 O   0  0  0  0  0  0  0  0  0  0  0  0
   25.6817  -21.6449   -6.3424 O   0  0  0  0  0  0  0  0  0  0  0  0
  2  1  1  0
  3  2  1  0
  3  4  1  1
  5  3  1  0
  5  6  1  6
  7  5  1  0
  8  7  2  0
 10 11  1  0
 10  9  1  0
 11 13  1  0
 11 12  1  1
 13 14  1  6
 14  7  1  0
 15 13  1  0
 15 16  2  0
 17 18  1  0
 17 15  1  0
 18 19  1  1
 19 20  1  0
 20 25  2  0
 21 22  2  0
 21 20  1  0
 22 23  1  0
 23 24  2  0
 25 24  1  0
 26 18  1  0
 27 26  2  0
 28 26  1  0
M  END
$$$$
