IIF.pdb
     RDKit          3D

 28 28  0  0  1  0  0  0  0  0999 V2000
   16.2696  -29.6005   -4.1665 C   0  0  0  0  0  0  0  0  0  0  0  0
   15.9230  -28.1412   -4.3904 C   0  0  0  0  0  0  0  0  0  0  0  0
   16.3604  -27.3806   -3.1560 C   0  0  2  0  0  0  0  0  0  0  0  0
   15.6518  -27.9515   -1.9709 C   0  0  0  0  0  0  0  0  0  0  0  0
   16.0577  -25.9244   -3.3984 C   0  0  2  0  0  0  0  0  0  0  0  0
   16.8037  -25.5106   -4.5627 N   0  0  0  0  0  0  0  0  0  0  0  0
   16.4623  -25.0787   -2.2336 C   0  0  0  0  0  0  0  0  0  0  0  0
   17.6780  -24.8032   -2.0326 O   0  0  0  0  0  0  0  0  0  0  0  0
   13.0855  -20.9996   -1.0147 C   0  0  0  0  0  0  0  0  0  0  0  0
   14.3652  -21.8347   -1.2496 C   0  0  0  0  0  0  0  0  0  0  0  0
   14.5921  -22.7770   -0.1136 C   0  0  2  0  0  0  0  0  0  0  0  0
   14.4425  -22.0782    1.2319 C   0  0  0  0  0  0  0  0  0  0  0  0
   15.7054  -23.7307   -0.2089 C   0  0  2  0  0  0  0  0  0  0  0  0
   15.4612  -24.5998   -1.3717 N   0  0  0  0  0  0  0  0  0  0  0  0
   16.1837  -24.4600    0.9364 C   0  0  0  0  0  0  0  0  0  0  0  0
   15.6044  -25.5178    1.3066 O   0  0  0  0  0  0  0  0  0  0  0  0
   17.3044  -24.0616    1.7038 N   0  0  0  0  0  0  0  0  0  0  0  0
   17.7157  -24.8096    2.9060 C   0  0  1  0  0  0  0  0  0  0  0  0
   19.2249  -24.6836    2.9690 C   0  0  0  0  0  0  0  0  0  0  0  0
   19.8013  -25.3325    4.1729 C   0  0  0  0  0  0  0  0  0  0  0  0
   20.0688  -26.6949    4.2052 C   0  0  0  0  0  0  0  0  0  0  0  0
   20.6081  -27.3242    5.3077 C   0  0  0  0  0  0  0  0  0  0  0  0
   20.8810  -26.5381    6.4070 C   0  0  0  0  0  0  0  0  0  0  0  0
   20.6262  -25.2010    6.3956 C   0  0  0  0  0  0  0  0  0  0  0  0
   20.0820  -24.5668    5.2822 C   0  0  0  0  0  0  0  0  0  0  0  0
   17.0405  -24.2440    4.0984 C   0  0  0  0  0  0  0  0  0  0  0  0
   16.8842  -23.0123    4.2460 O   0  0  0  0  0  0  0  0  0  0  0  0
   16.5544  -25.0729    5.1011 O   0  0  0  0  0  0  0  0  0  0  0  0
  2  1  1  0
  3  2  1  0
  3  4  1  1
  5  3  1  0
  5  6  1  6
  7  5  1  0
  8  7  2  0
 10 11  1  0
 10  9  1  0
 11 13  1  0
 11 12  1  1
 13 14  1  6
 14  7  1  0
 15 13  1  0
 15 16  2  0
 17 18  1  0
 17 15  1  0
 18 19  1  1
 19 20  1  0
 20 25  2  0
 21 22  2  0
 21 20  1  0
 22 23  1  0
 23 24  2  0
 25 24  1  0
 26 18  1  0
 27 26  2  0
 28 26  1  0
M  END
$$$$
