IIF.pdb
     RDKit          3D

 28 28  0  0  1  0  0  0  0  0999 V2000
   29.9402  -21.4827  -16.6193 C   0  0  0  0  0  0  0  0  0  0  0  0
   28.4295  -21.3506  -16.6028 C   0  0  0  0  0  0  0  0  0  0  0  0
   28.0502  -20.6898  -15.2939 C   0  0  2  0  0  0  0  0  0  0  0  0
   28.6102  -21.5026  -14.1722 C   0  0  0  0  0  0  0  0  0  0  0  0
   26.5476  -20.5784  -15.2692 C   0  0  2  0  0  0  0  0  0  0  0  0
   26.1539  -19.7296  -16.3683 N   0  0  0  0  0  0  0  0  0  0  0  0
   26.0632  -19.9759  -13.9894 C   0  0  0  0  0  0  0  0  0  0  0  0
   26.0689  -18.7237  -13.8275 O   0  0  0  0  0  0  0  0  0  0  0  0
   21.2342  -20.2905  -10.9227 C   0  0  0  0  0  0  0  0  0  0  0  0
   22.7322  -20.0114  -10.6610 C   0  0  0  0  0  0  0  0  0  0  0  0
   23.5677  -20.5448  -11.7779 C   0  0  2  0  0  0  0  0  0  0  0  0
   23.0859  -21.9171  -12.2315 C   0  0  0  0  0  0  0  0  0  0  0  0
   25.0256  -20.3825  -11.6987 C   0  0  2  0  0  0  0  0  0  0  0  0
   25.6032  -20.8332  -12.9755 N   0  0  0  0  0  0  0  0  0  0  0  0
   25.7814  -20.8335  -10.5595 C   0  0  0  0  0  0  0  0  0  0  0  0
   26.2349  -22.0101  -10.5201 O   0  0  0  0  0  0  0  0  0  0  0  0
   26.0670  -20.0173   -9.4387 N   0  0  0  0  0  0  0  0  0  0  0  0
   26.7676  -20.5542   -8.2578 C   0  0  1  0  0  0  0  0  0  0  0  0
   27.6399  -19.4229   -7.7510 C   0  0  0  0  0  0  0  0  0  0  0  0
   28.2403  -19.7157   -6.4257 C   0  0  0  0  0  0  0  0  0  0  0  0
   27.5293  -19.5235   -5.2483 C   0  0  0  0  0  0  0  0  0  0  0  0
   28.0595  -19.7910   -4.0034 C   0  0  0  0  0  0  0  0  0  0  0  0
   29.3523  -20.2682   -3.9623 C   0  0  0  0  0  0  0  0  0  0  0  0
   30.0661  -20.4636   -5.1047 C   0  0  0  0  0  0  0  0  0  0  0  0
   29.5300  -20.1933   -6.3606 C   0  0  0  0  0  0  0  0  0  0  0  0
   25.7750  -21.0092   -7.2552 C   0  0  0  0  0  0  0  0  0  0  0  0
   24.6275  -20.5164   -7.1920 O   0  0  0  0  0  0  0  0  0  0  0  0
   26.0906  -22.0085   -6.3439 O   0  0  0  0  0  0  0  0  0  0  0  0
  2  1  1  0
  3  2  1  0
  3  4  1  1
  5  3  1  0
  5  6  1  6
  7  5  1  0
  8  7  2  0
 10 11  1  0
 10  9  1  0
 11 13  1  0
 11 12  1  1
 13 14  1  6
 14  7  1  0
 15 13  1  0
 15 16  2  0
 17 18  1  0
 17 15  1  0
 18 19  1  1
 19 20  1  0
 20 25  2  0
 21 22  2  0
 21 20  1  0
 22 23  1  0
 23 24  2  0
 25 24  1  0
 26 18  1  0
 27 26  2  0
 28 26  1  0
M  END
$$$$
