IIF.pdb
     RDKit          3D

 28 28  0  0  1  0  0  0  0  0999 V2000
   21.2014  -19.3101  -15.6736 C   0  0  0  0  0  0  0  0  0  0  0  0
   22.4936  -19.3195  -14.8799 C   0  0  0  0  0  0  0  0  0  0  0  0
   22.2727  -20.2051  -13.6714 C   0  0  2  0  0  0  0  0  0  0  0  0
   21.0536  -19.7288  -12.9505 C   0  0  0  0  0  0  0  0  0  0  0  0
   23.5284  -20.1474  -12.8404 C   0  0  2  0  0  0  0  0  0  0  0  0
   24.6213  -20.6001  -13.6674 N   0  0  0  0  0  0  0  0  0  0  0  0
   23.4302  -21.0282  -11.6361 C   0  0  0  0  0  0  0  0  0  0  0  0
   23.5497  -22.2803  -11.7459 O   0  0  0  0  0  0  0  0  0  0  0  0
   26.3572  -19.7851   -7.6185 C   0  0  0  0  0  0  0  0  0  0  0  0
   25.5010  -20.5679   -8.6403 C   0  0  0  0  0  0  0  0  0  0  0  0
   24.0813  -20.6464   -8.1839 C   0  0  2  0  0  0  0  0  0  0  0  0
   23.9806  -21.1651   -6.7549 C   0  0  0  0  0  0  0  0  0  0  0  0
   23.0753  -21.1701   -9.1175 C   0  0  2  0  0  0  0  0  0  0  0  0
   23.2028  -20.4314  -10.3844 N   0  0  0  0  0  0  0  0  0  0  0  0
   21.7037  -21.3672   -8.7274 C   0  0  0  0  0  0  0  0  0  0  0  0
   20.9057  -20.3910   -8.6859 O   0  0  0  0  0  0  0  0  0  0  0  0
   21.1646  -22.6286   -8.3781 N   0  0  0  0  0  0  0  0  0  0  0  0
   19.7384  -22.7857   -8.0390 C   0  0  1  0  0  0  0  0  0  0  0  0
   19.1868  -23.7786   -9.0427 C   0  0  0  0  0  0  0  0  0  0  0  0
   17.7652  -24.1187   -8.7858 C   0  0  0  0  0  0  0  0  0  0  0  0
   16.7349  -23.2714   -9.1723 C   0  0  0  0  0  0  0  0  0  0  0  0
   15.4051  -23.5631   -8.9509 C   0  0  0  0  0  0  0  0  0  0  0  0
   15.1220  -24.7542   -8.3168 C   0  0  0  0  0  0  0  0  0  0  0  0
   16.1172  -25.5985   -7.9301 C   0  0  0  0  0  0  0  0  0  0  0  0
   17.4590  -25.3031   -8.1541 C   0  0  0  0  0  0  0  0  0  0  0  0
   19.6091  -23.2516   -6.6377 C   0  0  0  0  0  0  0  0  0  0  0  0
   20.5716  -23.7548   -6.0181 O   0  0  0  0  0  0  0  0  0  0  0  0
   18.4017  -23.1432   -5.9601 O   0  0  0  0  0  0  0  0  0  0  0  0
  2  1  1  0
  3  2  1  0
  3  4  1  1
  5  3  1  0
  5  6  1  6
  7  5  1  0
  8  7  2  0
 10 11  1  0
 10  9  1  0
 11 13  1  0
 11 12  1  1
 13 14  1  6
 14  7  1  0
 15 13  1  0
 15 16  2  0
 17 18  1  0
 17 15  1  0
 18 19  1  6
 19 20  1  0
 20 25  2  0
 21 22  2  0
 21 20  1  0
 22 23  1  0
 23 24  2  0
 25 24  1  0
 26 18  1  0
 27 26  2  0
 28 26  1  0
M  END
$$$$
