IIF.pdb
     RDKit          3D

 28 28  0  0  1  0  0  0  0  0999 V2000
   24.7165  -12.8997  -15.9727 C   0  0  0  0  0  0  0  0  0  0  0  0
   25.4259  -13.9839  -16.7606 C   0  0  0  0  0  0  0  0  0  0  0  0
   25.3029  -15.2689  -15.9686 C   0  0  2  0  0  0  0  0  0  0  0  0
   25.8872  -15.0475  -14.6113 C   0  0  0  0  0  0  0  0  0  0  0  0
   25.9981  -16.3480  -16.7580 C   0  0  2  0  0  0  0  0  0  0  0  0
   25.4180  -16.3657  -18.0795 N   0  0  0  0  0  0  0  0  0  0  0  0
   25.8174  -17.6917  -16.1276 C   0  0  0  0  0  0  0  0  0  0  0  0
   24.6825  -18.2448  -16.1107 O   0  0  0  0  0  0  0  0  0  0  0  0
   28.5854  -21.6859  -17.7316 C   0  0  0  0  0  0  0  0  0  0  0  0
   27.5378  -20.7298  -17.1164 C   0  0  0  0  0  0  0  0  0  0  0  0
   27.7959  -20.5377  -15.6581 C   0  0  2  0  0  0  0  0  0  0  0  0
   28.1319  -21.8553  -14.9707 C   0  0  0  0  0  0  0  0  0  0  0  0
   26.9099  -19.6408  -14.9041 C   0  0  2  0  0  0  0  0  0  0  0  0
   26.9363  -18.3216  -15.5568 N   0  0  0  0  0  0  0  0  0  0  0  0
   26.9617  -19.5491  -13.4684 C   0  0  0  0  0  0  0  0  0  0  0  0
   27.7863  -18.7762  -12.9079 O   0  0  0  0  0  0  0  0  0  0  0  0
   26.1168  -20.2899  -12.6074 N   0  0  0  0  0  0  0  0  0  0  0  0
   26.4818  -20.5360  -11.2003 C   0  0  1  0  0  0  0  0  0  0  0  0
   25.9523  -19.3449  -10.4267 C   0  0  0  0  0  0  0  0  0  0  0  0
   26.1983  -19.4580   -8.9675 C   0  0  0  0  0  0  0  0  0  0  0  0
   27.2291  -18.7623   -8.3491 C   0  0  0  0  0  0  0  0  0  0  0  0
   27.4786  -18.8443   -6.9951 C   0  0  0  0  0  0  0  0  0  0  0  0
   26.6509  -19.6604   -6.2537 C   0  0  0  0  0  0  0  0  0  0  0  0
   25.6350  -20.3507   -6.8405 C   0  0  0  0  0  0  0  0  0  0  0  0
   25.3840  -20.2671   -8.2072 C   0  0  0  0  0  0  0  0  0  0  0  0
   25.8942  -21.8210  -10.7519 C   0  0  0  0  0  0  0  0  0  0  0  0
   24.7668  -22.2010  -11.1366 O   0  0  0  0  0  0  0  0  0  0  0  0
   26.5843  -22.6536   -9.8806 O   0  0  0  0  0  0  0  0  0  0  0  0
  2  1  1  0
  3  2  1  0
  3  4  1  1
  5  3  1  0
  5  6  1  6
  7  5  1  0
  8  7  2  0
 10 11  1  0
 10  9  1  0
 11 13  1  0
 11 12  1  1
 13 14  1  6
 14  7  1  0
 15 13  1  0
 15 16  2  0
 17 18  1  0
 17 15  1  0
 18 19  1  1
 19 20  1  0
 20 25  2  0
 21 22  2  0
 21 20  1  0
 22 23  1  0
 23 24  2  0
 25 24  1  0
 26 18  1  0
 27 26  2  0
 28 26  1  0
M  END
$$$$
