IIF.pdb
     RDKit          3D

 28 28  0  0  1  0  0  0  0  0999 V2000
   18.5450  -18.8118  -11.6878 C   0  0  0  0  0  0  0  0  0  0  0  0
   19.5824  -19.2626  -12.6980 C   0  0  0  0  0  0  0  0  0  0  0  0
   20.6979  -19.9366  -11.9267 C   0  0  2  0  0  0  0  0  0  0  0  0
   21.2258  -18.9718  -10.9152 C   0  0  0  0  0  0  0  0  0  0  0  0
   21.7280  -20.3841  -12.9314 C   0  0  2  0  0  0  0  0  0  0  0  0
   21.0882  -21.3172  -13.8277 N   0  0  0  0  0  0  0  0  0  0  0  0
   22.8846  -21.0601  -12.2673 C   0  0  0  0  0  0  0  0  0  0  0  0
   22.7300  -22.1681  -11.6819 O   0  0  0  0  0  0  0  0  0  0  0  0
   26.8648  -22.5338  -14.9635 C   0  0  0  0  0  0  0  0  0  0  0  0
   25.7740  -22.2835  -13.8968 C   0  0  0  0  0  0  0  0  0  0  0  0
   26.2735  -21.3476  -12.8459 C   0  0  2  0  0  0  0  0  0  0  0  0
   27.7098  -21.6659  -12.4495 C   0  0  0  0  0  0  0  0  0  0  0  0
   25.3754  -20.9992  -11.7368 C   0  0  2  0  0  0  0  0  0  0  0  0
   24.1425  -20.4353  -12.3102 N   0  0  0  0  0  0  0  0  0  0  0  0
   25.8353  -20.2677  -10.5853 C   0  0  0  0  0  0  0  0  0  0  0  0
   25.9301  -19.0104  -10.6244 O   0  0  0  0  0  0  0  0  0  0  0  0
   26.1983  -20.8827   -9.3631 N   0  0  0  0  0  0  0  0  0  0  0  0
   27.0851  -20.2070   -8.3983 C   0  0  1  0  0  0  0  0  0  0  0  0
   26.6795  -20.7301   -7.0348 C   0  0  0  0  0  0  0  0  0  0  0  0
   27.4680  -20.1231   -5.9337 C   0  0  0  0  0  0  0  0  0  0  0  0
   28.5456  -20.7864   -5.3614 C   0  0  0  0  0  0  0  0  0  0  0  0
   29.2989  -20.2455   -4.3405 C   0  0  0  0  0  0  0  0  0  0  0  0
   28.9398  -18.9919   -3.8930 C   0  0  0  0  0  0  0  0  0  0  0  0
   27.8870  -18.3250   -4.4405 C   0  0  0  0  0  0  0  0  0  0  0  0
   27.1273  -18.8718   -5.4710 C   0  0  0  0  0  0  0  0  0  0  0  0
   28.4990  -20.5029   -8.7312 C   0  0  0  0  0  0  0  0  0  0  0  0
   28.8447  -21.5965   -9.2292 O   0  0  0  0  0  0  0  0  0  0  0  0
   29.4964  -19.5650   -8.4983 O   0  0  0  0  0  0  0  0  0  0  0  0
  2  1  1  0
  3  2  1  0
  3  4  1  1
  5  3  1  0
  5  6  1  6
  7  5  1  0
  8  7  2  0
 10 11  1  0
 10  9  1  0
 11 13  1  0
 11 12  1  1
 13 14  1  6
 14  7  1  0
 15 13  1  0
 15 16  2  0
 17 18  1  0
 17 15  1  0
 18 19  1  1
 19 20  1  0
 20 25  2  0
 21 22  2  0
 21 20  1  0
 22 23  1  0
 23 24  2  0
 25 24  1  0
 26 18  1  0
 27 26  2  0
 28 26  1  0
M  END
$$$$
