IIF.pdb
     RDKit          3D

 28 28  0  0  1  0  0  0  0  0999 V2000
   20.1780  -22.9797  -14.6573 C   0  0  0  0  0  0  0  0  0  0  0  0
   21.0416  -21.8519  -14.1263 C   0  0  0  0  0  0  0  0  0  0  0  0
   20.4088  -21.3694  -12.8377 C   0  0  2  0  0  0  0  0  0  0  0  0
   19.0544  -20.8213  -13.1503 C   0  0  0  0  0  0  0  0  0  0  0  0
   21.3463  -20.3569  -12.2320 C   0  0  2  0  0  0  0  0  0  0  0  0
   21.5297  -19.2988  -13.1964 N   0  0  0  0  0  0  0  0  0  0  0  0
   22.6757  -20.9623  -11.9130 C   0  0  0  0  0  0  0  0  0  0  0  0
   22.7500  -22.0317  -11.2458 O   0  0  0  0  0  0  0  0  0  0  0  0
   26.3305  -21.1215  -15.8001 C   0  0  0  0  0  0  0  0  0  0  0  0
   25.4412  -21.4032  -14.5672 C   0  0  0  0  0  0  0  0  0  0  0  0
   25.9646  -20.6838  -13.3679 C   0  0  2  0  0  0  0  0  0  0  0  0
   27.4744  -20.8395  -13.2362 C   0  0  0  0  0  0  0  0  0  0  0  0
   25.2087  -20.7781  -12.1117 C   0  0  2  0  0  0  0  0  0  0  0  0
   23.8356  -20.3152  -12.3716 N   0  0  0  0  0  0  0  0  0  0  0  0
   25.7343  -20.2805  -10.8673 C   0  0  0  0  0  0  0  0  0  0  0  0
   25.3585  -19.1635  -10.4173 O   0  0  0  0  0  0  0  0  0  0  0  0
   26.6761  -20.9852  -10.0797 N   0  0  0  0  0  0  0  0  0  0  0  0
   27.3641  -20.3398   -8.9467 C   0  0  1  0  0  0  0  0  0  0  0  0
   26.4721  -20.5690   -7.7429 C   0  0  0  0  0  0  0  0  0  0  0  0
   27.0735  -20.0642   -6.4835 C   0  0  0  0  0  0  0  0  0  0  0  0
   27.4870  -20.9293   -5.4788 C   0  0  0  0  0  0  0  0  0  0  0  0
   28.0529  -20.4894   -4.3004 C   0  0  0  0  0  0  0  0  0  0  0  0
   28.1995  -19.1273   -4.1458 C   0  0  0  0  0  0  0  0  0  0  0  0
   27.8008  -18.2625   -5.1185 C   0  0  0  0  0  0  0  0  0  0  0  0
   27.2298  -18.7076   -6.3075 C   0  0  0  0  0  0  0  0  0  0  0  0
   28.7142  -20.9300   -8.7836 C   0  0  0  0  0  0  0  0  0  0  0  0
   29.5444  -20.4641   -7.9730 O   0  0  0  0  0  0  0  0  0  0  0  0
   29.1049  -22.0314   -9.5339 O   0  0  0  0  0  0  0  0  0  0  0  0
  2  1  1  0
  3  2  1  0
  3  4  1  6
  5  3  1  0
  5  6  1  6
  7  5  1  0
  8  7  2  0
 10 11  1  0
 10  9  1  0
 11 13  1  0
 11 12  1  1
 13 14  1  6
 14  7  1  0
 15 13  1  0
 15 16  2  0
 17 18  1  0
 17 15  1  0
 18 19  1  1
 19 20  1  0
 20 25  2  0
 21 22  2  0
 21 20  1  0
 22 23  1  0
 23 24  2  0
 25 24  1  0
 26 18  1  0
 27 26  2  0
 28 26  1  0
M  END
$$$$
