IIF.pdb
     RDKit          3D

 28 28  0  0  1  0  0  0  0  0999 V2000
   24.3564  -16.5903  -16.8774 C   0  0  0  0  0  0  0  0  0  0  0  0
   25.0065  -15.2777  -16.4849 C   0  0  0  0  0  0  0  0  0  0  0  0
   24.3695  -14.1912  -17.3259 C   0  0  2  0  0  0  0  0  0  0  0  0
   25.4422  -13.5079  -18.1102 C   0  0  0  0  0  0  0  0  0  0  0  0
   23.6303  -13.2746  -16.3855 C   0  0  2  0  0  0  0  0  0  0  0  0
   22.5123  -14.0109  -15.8459 N   0  0  0  0  0  0  0  0  0  0  0  0
   23.1195  -12.0599  -17.0919 C   0  0  0  0  0  0  0  0  0  0  0  0
   23.9079  -11.3143  -17.7375 O   0  0  0  0  0  0  0  0  0  0  0  0
   19.1814  -12.9527  -19.7784 C   0  0  0  0  0  0  0  0  0  0  0  0
   20.2263  -11.8219  -19.6375 C   0  0  0  0  0  0  0  0  0  0  0  0
   19.9653  -11.0173  -18.4069 C   0  0  2  0  0  0  0  0  0  0  0  0
   18.8890   -9.9652  -18.6437 C   0  0  0  0  0  0  0  0  0  0  0  0
   21.1138  -10.5753  -17.6047 C   0  0  2  0  0  0  0  0  0  0  0  0
   21.7465  -11.7692  -17.0204 N   0  0  0  0  0  0  0  0  0  0  0  0
   21.0147   -9.4868  -16.6677 C   0  0  0  0  0  0  0  0  0  0  0  0
   20.3580   -9.6227  -15.5992 O   0  0  0  0  0  0  0  0  0  0  0  0
   21.6298   -8.2274  -16.8657 N   0  0  0  0  0  0  0  0  0  0  0  0
   21.4424   -7.1233  -15.9068 C   0  0  1  0  0  0  0  0  0  0  0  0
   22.8042   -6.4743  -15.7597 C   0  0  0  0  0  0  0  0  0  0  0  0
   22.7471   -5.1919  -15.0149 C   0  0  0  0  0  0  0  0  0  0  0  0
   22.6124   -5.1605  -13.6330 C   0  0  0  0  0  0  0  0  0  0  0  0
   22.5610   -3.9846  -12.9140 C   0  0  0  0  0  0  0  0  0  0  0  0
   22.6498   -2.8088  -13.6285 C   0  0  0  0  0  0  0  0  0  0  0  0
   22.7823   -2.8179  -14.9832 C   0  0  0  0  0  0  0  0  0  0  0  0
   22.8342   -4.0054  -15.7079 C   0  0  0  0  0  0  0  0  0  0  0  0
   20.4119   -6.1891  -16.4197 C   0  0  0  0  0  0  0  0  0  0  0  0
   20.2929   -5.9432  -17.6399 O   0  0  0  0  0  0  0  0  0  0  0  0
   19.5358   -5.5498  -15.5523 O   0  0  0  0  0  0  0  0  0  0  0  0
  2  1  1  0
  3  2  1  0
  3  4  1  1
  5  3  1  0
  5  6  1  6
  7  5  1  0
  8  7  2  0
 10 11  1  0
 10  9  1  0
 11 13  1  0
 11 12  1  6
 13 14  1  1
 14  7  1  0
 15 13  1  0
 15 16  2  0
 17 18  1  0
 17 15  1  0
 18 19  1  6
 19 20  1  0
 20 25  2  0
 21 22  2  0
 21 20  1  0
 22 23  1  0
 23 24  2  0
 25 24  1  0
 26 18  1  0
 27 26  2  0
 28 26  1  0
M  END
$$$$
