IIF.pdb
     RDKit          3D

 28 28  0  0  1  0  0  0  0  0999 V2000
   18.6744  -18.8789  -18.4289 C   0  0  0  0  0  0  0  0  0  0  0  0
   19.9051  -18.1947  -18.9917 C   0  0  0  0  0  0  0  0  0  0  0  0
   21.1039  -18.7377  -18.2422 C   0  0  2  0  0  0  0  0  0  0  0  0
   20.8665  -18.5634  -16.7773 C   0  0  0  0  0  0  0  0  0  0  0  0
   22.3178  -18.0034  -18.7500 C   0  0  2  0  0  0  0  0  0  0  0  0
   22.4029  -18.2307  -20.1729 N   0  0  0  0  0  0  0  0  0  0  0  0
   23.5702  -18.4991  -18.1009 C   0  0  0  0  0  0  0  0  0  0  0  0
   23.9622  -19.6850  -18.2855 O   0  0  0  0  0  0  0  0  0  0  0  0
   27.9866  -15.8440  -18.6424 C   0  0  0  0  0  0  0  0  0  0  0  0
   26.9370  -16.9543  -18.4059 C   0  0  0  0  0  0  0  0  0  0  0  0
   26.5827  -17.0407  -16.9578 C   0  0  2  0  0  0  0  0  0  0  0  0
   27.8253  -17.0377  -16.0762 C   0  0  0  0  0  0  0  0  0  0  0  0
   25.5238  -17.9748  -16.5523 C   0  0  2  0  0  0  0  0  0  0  0  0
   24.2975  -17.6170  -17.2838 N   0  0  0  0  0  0  0  0  0  0  0  0
   25.2724  -18.2874  -15.1698 C   0  0  0  0  0  0  0  0  0  0  0  0
   24.6953  -17.4516  -14.4215 O   0  0  0  0  0  0  0  0  0  0  0  0
   25.6365  -19.5159  -14.5680 N   0  0  0  0  0  0  0  0  0  0  0  0
   25.6193  -19.6874  -13.1038 C   0  0  1  0  0  0  0  0  0  0  0  0
   24.5619  -20.7377  -12.8279 C   0  0  0  0  0  0  0  0  0  0  0  0
   24.4656  -21.0853  -11.3883 C   0  0  0  0  0  0  0  0  0  0  0  0
   25.4177  -21.8849  -10.7695 C   0  0  0  0  0  0  0  0  0  0  0  0
   25.3566  -22.2207   -9.4331 C   0  0  0  0  0  0  0  0  0  0  0  0
   24.2925  -21.7247   -8.7103 C   0  0  0  0  0  0  0  0  0  0  0  0
   23.3488  -20.9393   -9.2980 C   0  0  0  0  0  0  0  0  0  0  0  0
   23.4114  -20.6010  -10.6469 C   0  0  0  0  0  0  0  0  0  0  0  0
   26.9667  -20.0899  -12.6346 C   0  0  0  0  0  0  0  0  0  0  0  0
   27.7492  -20.7438  -13.3581 O   0  0  0  0  0  0  0  0  0  0  0  0
   27.4083  -19.7501  -11.3626 O   0  0  0  0  0  0  0  0  0  0  0  0
  2  1  1  0
  3  2  1  0
  3  4  1  1
  5  3  1  0
  5  6  1  6
  7  5  1  0
  8  7  2  0
 10 11  1  0
 10  9  1  0
 11 13  1  0
 11 12  1  1
 13 14  1  1
 14  7  1  0
 15 13  1  0
 15 16  2  0
 17 18  1  0
 17 15  1  0
 18 19  1  6
 19 20  1  0
 20 25  2  0
 21 22  2  0
 21 20  1  0
 22 23  1  0
 23 24  2  0
 25 24  1  0
 26 18  1  0
 27 26  2  0
 28 26  1  0
M  END
$$$$
