IIF.pdb
     RDKit          3D

 28 28  0  0  1  0  0  0  0  0999 V2000
   61.1195   52.9890   26.7916 C   0  0  0  0  0  0  0  0  0  0  0  0
   62.3645   53.2850   25.9779 C   0  0  0  0  0  0  0  0  0  0  0  0
   63.5109   53.4499   26.9538 C   0  0  2  0  0  0  0  0  0  0  0  0
   62.9766   53.3076   28.3419 C   0  0  0  0  0  0  0  0  0  0  0  0
   64.1389   54.7924   26.6817 C   0  0  2  0  0  0  0  0  0  0  0  0
   65.4804   54.7635   27.2134 N   0  0  0  0  0  0  0  0  0  0  0  0
   63.3769   55.8979   27.3395 C   0  0  0  0  0  0  0  0  0  0  0  0
   63.2732   57.0259   26.7816 O   0  0  0  0  0  0  0  0  0  0  0  0
   62.4521   51.5219   26.9607 C   0  0  0  0  0  0  0  0  0  0  0  0
   62.3653   53.0601   27.0896 C   0  0  0  0  0  0  0  0  0  0  0  0
   61.9006   53.4463   28.4552 C   0  0  2  0  0  0  0  0  0  0  0  0
   60.4120   53.7708   28.4691 C   0  0  0  0  0  0  0  0  0  0  0  0
   62.7487   54.3403   29.2549 C   0  0  2  0  0  0  0  0  0  0  0  0
   62.7813   55.6524   28.5883 N   0  0  0  0  0  0  0  0  0  0  0  0
   64.0420   53.9327   29.7381 C   0  0  0  0  0  0  0  0  0  0  0  0
   65.0118   53.8112   28.9405 O   0  0  0  0  0  0  0  0  0  0  0  0
   64.3147   53.6523   31.0986 N   0  0  0  0  0  0  0  0  0  0  0  0
   63.2421   53.2584   32.0303 C   0  0  1  0  0  0  0  0  0  0  0  0
   61.9745   53.8820   31.4810 C   0  0  0  0  0  0  0  0  0  0  0  0
   61.0239   54.2772   32.5501 C   0  0  0  0  0  0  0  0  0  0  0  0
   60.9520   55.5856   33.0101 C   0  0  0  0  0  0  0  0  0  0  0  0
   60.0760   55.9827   33.9987 C   0  0  0  0  0  0  0  0  0  0  0  0
   59.2513   55.0146   34.5310 C   0  0  0  0  0  0  0  0  0  0  0  0
   59.3061   53.7266   34.0941 C   0  0  0  0  0  0  0  0  0  0  0  0
   60.1905   53.3270   33.0961 C   0  0  0  0  0  0  0  0  0  0  0  0
   63.1693   51.7798   32.1079 C   0  0  0  0  0  0  0  0  0  0  0  0
   63.6099   51.0487   31.1943 O   0  0  0  0  0  0  0  0  0  0  0  0
   62.6034   51.1519   33.2097 O   0  0  0  0  0  0  0  0  0  0  0  0
  2  1  1  0
  3  2  1  0
  3  4  1  1
  5  3  1  0
  5  6  1  1
  7  5  1  0
  8  7  2  0
 10 11  1  0
 10  9  1  0
 11 13  1  0
 11 12  1  6
 13 14  1  6
 14  7  1  0
 15 13  1  0
 15 16  2  0
 17 18  1  0
 17 15  1  0
 18 19  1  6
 19 20  1  0
 20 25  2  0
 21 22  2  0
 21 20  1  0
 22 23  1  0
 23 24  2  0
 25 24  1  0
 26 18  1  0
 27 26  2  0
 28 26  1  0
M  END
$$$$
