SQH.pdb
     RDKit          3D

 26 26  0  0  1  0  0  0  0  0999 V2000
    9.5019  -14.3319   15.0423 O   0  0  0  0  0  0  0  0  0  0  0  0
   10.5685  -15.1587   14.7405 C   0  0  0  0  0  0  0  0  0  0  0  0
   10.0727  -16.5863   14.6603 C   0  0  2  0  0  0  0  0  0  0  0  0
    8.7699  -16.6805   14.0593 N   0  0  0  0  0  0  0  0  0  0  0  0
   10.0150  -17.1386   16.0267 C   0  0  0  0  0  0  0  0  0  0  0  0
    8.9355  -17.4809   16.5464 O   0  0  0  0  0  0  0  0  0  0  0  0
   11.0185  -21.1105   18.0518 N   0  0  0  0  0  0  0  0  0  0  0  0
   11.9060  -20.8921   19.1201 C   0  0  0  0  0  0  0  0  0  0  0  0
   11.9730  -21.7069   20.0641 O   0  0  0  0  0  0  0  0  0  0  0  0
   12.7840  -19.6921   19.1551 C   0  0  0  0  0  0  0  0  0  0  0  0
   12.4834  -18.8098   17.9977 C   0  0  0  0  0  0  0  0  0  0  0  0
   11.2511  -17.9832   18.0690 C   0  0  2  0  0  0  0  0  0  0  0  0
   11.2098  -17.2814   16.7590 N   0  0  0  0  0  0  0  0  0  0  0  0
   11.1849  -16.9558   19.1015 C   0  0  0  0  0  0  0  0  0  0  0  0
   11.9548  -15.9415   18.9886 O   0  0  0  0  0  0  0  0  0  0  0  0
   10.3477  -16.9525   20.2308 N   0  0  0  0  0  0  0  0  0  0  0  0
   10.3495  -15.8467   21.1985 C   0  0  1  0  0  0  0  0  0  0  0  0
    8.9410  -15.4426   21.5077 C   0  0  0  0  0  0  0  0  0  0  0  0
    8.3124  -14.6545   20.4196 C   0  0  0  0  0  0  0  0  0  0  0  0
    8.9678  -14.2164   19.2553 C   0  0  0  0  0  0  0  0  0  0  0  0
    8.1166  -13.5331   18.4825 N   0  0  0  0  0  0  0  0  0  0  0  0
    6.9433  -13.5322   19.1341 C   0  0  0  0  0  0  0  0  0  0  0  0
    7.0555  -14.1993   20.2890 N   0  0  0  0  0  0  0  0  0  0  0  0
   11.0626  -16.3227   22.3918 C   0  0  0  0  0  0  0  0  0  0  0  0
   11.3230  -15.6483   23.4209 O   0  0  0  0  0  0  0  0  0  0  0  0
   11.5153  -17.6562   22.4296 O   0  0  0  0  0  0  0  0  0  0  0  0
  1  2  1  0
  3  2  1  0
  3  5  1  0
  3  4  1  1
  5  6  2  0
  7  8  1  0
  8  9  2  0
  8 10  1  0
 10 11  1  0
 12 11  1  1
 12 14  1  0
 13 12  1  0
 13  5  1  0
 14 15  2  0
 16 17  1  0
 16 14  1  0
 17 24  1  0
 18 19  1  0
 17 18  1  1
 19 20  2  0
 20 21  1  0
 22 21  1  0
 23 19  1  0
 23 22  2  0
 24 25  2  0
 24 26  1  0
M  END
$$$$
