SQH.pdb
     RDKit          3D

 26 26  0  0  1  0  0  0  0  0999 V2000
   12.0961  -15.4374   14.3291 O   0  0  0  0  0  0  0  0  0  0  0  0
   11.4388  -15.7056   15.5158 C   0  0  0  0  0  0  0  0  0  0  0  0
   11.1654  -17.1917   15.5980 C   0  0  2  0  0  0  0  0  0  0  0  0
   10.2072  -17.6272   14.6186 N   0  0  0  0  0  0  0  0  0  0  0  0
   10.6514  -17.4987   16.9459 C   0  0  0  0  0  0  0  0  0  0  0  0
    9.4415  -17.3894   17.2227 O   0  0  0  0  0  0  0  0  0  0  0  0
   13.9341  -21.2763   20.3125 N   0  0  0  0  0  0  0  0  0  0  0  0
   12.8603  -21.1294   21.2081 C   0  0  0  0  0  0  0  0  0  0  0  0
   12.7885  -21.8399   22.2325 O   0  0  0  0  0  0  0  0  0  0  0  0
   11.7868  -20.1298   20.9614 C   0  0  0  0  0  0  0  0  0  0  0  0
   12.0140  -19.4527   19.6581 C   0  0  0  0  0  0  0  0  0  0  0  0
   11.0909  -18.3483   19.2906 C   0  0  2  0  0  0  0  0  0  0  0  0
   11.5516  -17.9254   17.9419 N   0  0  0  0  0  0  0  0  0  0  0  0
   11.0935  -17.1569   20.1312 C   0  0  0  0  0  0  0  0  0  0  0  0
   12.0742  -16.3448   20.0177 O   0  0  0  0  0  0  0  0  0  0  0  0
   10.1146  -16.7898   21.0710 N   0  0  0  0  0  0  0  0  0  0  0  0
   10.2089  -15.5467   21.8489 C   0  0  1  0  0  0  0  0  0  0  0  0
    8.8595  -14.9038   21.9411 C   0  0  0  0  0  0  0  0  0  0  0  0
    8.4378  -14.2580   20.6742 C   0  0  0  0  0  0  0  0  0  0  0  0
    9.2218  -14.1710   19.5102 C   0  0  0  0  0  0  0  0  0  0  0  0
    8.5458  -13.5282   18.5519 N   0  0  0  0  0  0  0  0  0  0  0  0
    7.3568  -13.2100   19.0868 C   0  0  0  0  0  0  0  0  0  0  0  0
    7.2881  -13.6430   20.3515 N   0  0  0  0  0  0  0  0  0  0  0  0
   10.7408  -15.9074   23.1703 C   0  0  0  0  0  0  0  0  0  0  0  0
   10.9323  -17.0730   23.6020 O   0  0  0  0  0  0  0  0  0  0  0  0
   11.0828  -14.8804   24.0718 O   0  0  0  0  0  0  0  0  0  0  0  0
  1  2  1  0
  3  2  1  0
  3  5  1  0
  3  4  1  6
  5  6  2  0
  7  8  1  0
  8  9  2  0
  8 10  1  0
 10 11  1  0
 12 11  1  1
 12 14  1  0
 13 12  1  0
 13  5  1  0
 14 15  2  0
 16 17  1  0
 16 14  1  0
 17 24  1  0
 18 19  1  0
 17 18  1  1
 19 20  2  0
 20 21  1  0
 22 21  1  0
 23 19  1  0
 23 22  2  0
 24 25  2  0
 24 26  1  0
M  END
$$$$
