SQH.pdb
     RDKit          3D

 26 26  0  0  1  0  0  0  0  0999 V2000
   10.5762  -20.9540   20.4324 O   0  0  0  0  0  0  0  0  0  0  0  0
    9.6004  -21.6180   21.1530 C   0  0  0  0  0  0  0  0  0  0  0  0
    8.3610  -20.7515   21.2109 C   0  0  2  0  0  0  0  0  0  0  0  0
    8.4546  -19.6038   20.3499 N   0  0  0  0  0  0  0  0  0  0  0  0
    8.1725  -20.2976   22.6015 C   0  0  0  0  0  0  0  0  0  0  0  0
    8.4083  -19.1222   22.9411 O   0  0  0  0  0  0  0  0  0  0  0  0
    4.3608  -23.4955   26.0352 N   0  0  0  0  0  0  0  0  0  0  0  0
    4.8500  -22.6789   27.0699 C   0  0  0  0  0  0  0  0  0  0  0  0
    4.4183  -22.8062   28.2348 O   0  0  0  0  0  0  0  0  0  0  0  0
    5.8887  -21.6473   26.8070 C   0  0  0  0  0  0  0  0  0  0  0  0
    6.3441  -21.7343   25.3951 C   0  0  0  0  0  0  0  0  0  0  0  0
    7.4240  -20.8088   24.9660 C   0  0  2  0  0  0  0  0  0  0  0  0
    7.7149  -21.2164   23.5662 N   0  0  0  0  0  0  0  0  0  0  0  0
    8.6871  -20.8605   25.6927 C   0  0  0  0  0  0  0  0  0  0  0  0
    9.3152  -21.9735   25.7254 O   0  0  0  0  0  0  0  0  0  0  0  0
    9.3087  -19.7991   26.3733 N   0  0  0  0  0  0  0  0  0  0  0  0
   10.6037  -19.9590   27.0489 C   0  0  1  0  0  0  0  0  0  0  0  0
   11.5376  -18.8708   26.6172 C   0  0  0  0  0  0  0  0  0  0  0  0
   12.1244  -19.1094   25.2760 C   0  0  0  0  0  0  0  0  0  0  0  0
   12.0595  -20.3228   24.5686 C   0  0  0  0  0  0  0  0  0  0  0  0
   12.6875  -20.2002   23.3942 N   0  0  0  0  0  0  0  0  0  0  0  0
   13.1447  -18.9393   23.3481 C   0  0  0  0  0  0  0  0  0  0  0  0
   12.8114  -18.2856   24.4675 N   0  0  0  0  0  0  0  0  0  0  0  0
   10.3407  -19.9207   28.4941 C   0  0  0  0  0  0  0  0  0  0  0  0
   11.1948  -20.0442   29.4088 O   0  0  0  0  0  0  0  0  0  0  0  0
    9.0191  -19.7287   28.9423 O   0  0  0  0  0  0  0  0  0  0  0  0
  1  2  1  0
  3  2  1  0
  3  5  1  0
  3  4  1  6
  5  6  2  0
  7  8  1  0
  8  9  2  0
  8 10  1  0
 10 11  1  0
 12 11  1  1
 12 14  1  0
 13 12  1  0
 13  5  1  0
 14 15  2  0
 16 17  1  0
 16 14  1  0
 17 24  1  0
 18 19  1  0
 17 18  1  6
 19 20  2  0
 20 21  1  0
 22 21  1  0
 23 19  1  0
 23 22  2  0
 24 25  2  0
 24 26  1  0
M  END
$$$$
