SQH.pdb
     RDKit          3D

 26 26  0  0  1  0  0  0  0  0999 V2000
    4.4889  -19.9558   18.8375 O   0  0  0  0  0  0  0  0  0  0  0  0
    4.7752  -19.2562   19.9955 C   0  0  0  0  0  0  0  0  0  0  0  0
    4.0029  -19.8720   21.1421 C   0  0  2  0  0  0  0  0  0  0  0  0
    2.5822  -19.8445   20.9226 N   0  0  0  0  0  0  0  0  0  0  0  0
    4.3157  -19.1218   22.3728 C   0  0  0  0  0  0  0  0  0  0  0  0
    3.5778  -18.2056   22.7831 O   0  0  0  0  0  0  0  0  0  0  0  0
    6.1570  -21.6357   27.3564 N   0  0  0  0  0  0  0  0  0  0  0  0
    7.0978  -21.7365   26.3166 C   0  0  0  0  0  0  0  0  0  0  0  0
    7.9666  -22.6334   26.3336 O   0  0  0  0  0  0  0  0  0  0  0  0
    7.0843  -20.7835   25.1747 C   0  0  0  0  0  0  0  0  0  0  0  0
    5.9986  -19.7857   25.3596 C   0  0  0  0  0  0  0  0  0  0  0  0
    5.8669  -18.7195   24.3336 C   0  0  2  0  0  0  0  0  0  0  0  0
    5.4767  -19.4511   23.0995 N   0  0  0  0  0  0  0  0  0  0  0  0
    7.0582  -17.9446   24.0070 C   0  0  0  0  0  0  0  0  0  0  0  0
    7.8342  -18.3931   23.0955 O   0  0  0  0  0  0  0  0  0  0  0  0
    7.4564  -16.7298   24.5918 N   0  0  0  0  0  0  0  0  0  0  0  0
    8.6662  -16.0168   24.1592 C   0  0  1  0  0  0  0  0  0  0  0  0
    8.3496  -14.5697   23.9398 C   0  0  0  0  0  0  0  0  0  0  0  0
    7.9139  -14.2759   22.5527 C   0  0  0  0  0  0  0  0  0  0  0  0
    7.9286  -15.1945   21.4883 C   0  0  0  0  0  0  0  0  0  0  0  0
    7.4726  -14.6101   20.3752 N   0  0  0  0  0  0  0  0  0  0  0  0
    7.1723  -13.3472   20.7159 C   0  0  0  0  0  0  0  0  0  0  0  0
    7.4338  -13.1436   22.0127 N   0  0  0  0  0  0  0  0  0  0  0  0
    9.6755  -16.2088   25.2098 C   0  0  0  0  0  0  0  0  0  0  0  0
   10.8713  -15.8214   25.1719 O   0  0  0  0  0  0  0  0  0  0  0  0
    9.3114  -16.8862   26.3901 O   0  0  0  0  0  0  0  0  0  0  0  0
  1  2  1  0
  3  2  1  0
  3  5  1  0
  3  4  1  6
  5  6  2  0
  7  8  1  0
  8  9  2  0
  8 10  1  0
 10 11  1  0
 12 11  1  1
 12 14  1  0
 13 12  1  0
 13  5  1  0
 14 15  2  0
 16 17  1  0
 16 14  1  0
 17 24  1  0
 18 19  1  0
 17 18  1  1
 19 20  2  0
 20 21  1  0
 22 21  1  0
 23 19  1  0
 23 22  2  0
 24 25  2  0
 24 26  1  0
M  END
$$$$
