SQH.pdb
     RDKit          3D

 26 26  0  0  1  0  0  0  0  0999 V2000
    7.1651  -14.4925   17.1441 O   0  0  0  0  0  0  0  0  0  0  0  0
    8.0594  -13.4446   17.0234 C   0  0  0  0  0  0  0  0  0  0  0  0
    9.2121  -13.8845   16.1470 C   0  0  2  0  0  0  0  0  0  0  0  0
    8.7700  -14.5821   14.9701 N   0  0  0  0  0  0  0  0  0  0  0  0
   10.0860  -14.7735   16.9353 C   0  0  0  0  0  0  0  0  0  0  0  0
   10.1823  -15.9887   16.6777 O   0  0  0  0  0  0  0  0  0  0  0  0
   15.6683  -14.5263   16.8801 N   0  0  0  0  0  0  0  0  0  0  0  0
   15.5512  -14.7537   18.2626 C   0  0  0  0  0  0  0  0  0  0  0  0
   16.4936  -14.4731   19.0325 O   0  0  0  0  0  0  0  0  0  0  0  0
   14.3093  -15.3312   18.8426 C   0  0  0  0  0  0  0  0  0  0  0  0
   13.1196  -14.6284   18.2957 C   0  0  0  0  0  0  0  0  0  0  0  0
   11.7855  -15.0538   18.7916 C   0  0  2  0  0  0  0  0  0  0  0  0
   10.8281  -14.2333   18.0039 N   0  0  0  0  0  0  0  0  0  0  0  0
   11.4820  -14.8229   20.1991 C   0  0  0  0  0  0  0  0  0  0  0  0
   11.6700  -13.6487   20.6683 O   0  0  0  0  0  0  0  0  0  0  0  0
   10.9908  -15.7663   21.1183 N   0  0  0  0  0  0  0  0  0  0  0  0
   10.6408  -15.4007   22.4977 C   0  0  1  0  0  0  0  0  0  0  0  0
    9.1792  -15.6328   22.7275 C   0  0  0  0  0  0  0  0  0  0  0  0
    8.3188  -14.9095   21.7597 C   0  0  0  0  0  0  0  0  0  0  0  0
    8.2331  -13.5111   21.6407 C   0  0  0  0  0  0  0  0  0  0  0  0
    7.3674  -13.1879   20.6739 N   0  0  0  0  0  0  0  0  0  0  0  0
    6.9082  -14.3497   20.1838 C   0  0  0  0  0  0  0  0  0  0  0  0
    7.4725  -15.3784   20.8279 N   0  0  0  0  0  0  0  0  0  0  0  0
   11.4769  -16.2220   23.3840 C   0  0  0  0  0  0  0  0  0  0  0  0
   12.2666  -17.1334   23.0272 O   0  0  0  0  0  0  0  0  0  0  0  0
   11.4202  -16.0006   24.7740 O   0  0  0  0  0  0  0  0  0  0  0  0
  1  2  1  0
  3  2  1  0
  3  5  1  0
  3  4  1  6
  5  6  2  0
  7  8  1  0
  8  9  2  0
  8 10  1  0
 10 11  1  0
 12 11  1  1
 12 14  1  0
 13 12  1  0
 13  5  1  0
 14 15  2  0
 16 17  1  0
 16 14  1  0
 17 24  1  0
 18 19  1  0
 17 18  1  1
 19 20  2  0
 20 21  1  0
 22 21  1  0
 23 19  1  0
 23 22  2  0
 24 25  2  0
 24 26  1  0
M  END
$$$$
