SQH.pdb
     RDKit          3D

 26 26  0  0  1  0  0  0  0  0999 V2000
    8.3716  -12.8339   18.7641 O   0  0  0  0  0  0  0  0  0  0  0  0
    7.9845  -13.5662   17.6568 C   0  0  0  0  0  0  0  0  0  0  0  0
    9.2169  -13.9358   16.8601 C   0  0  2  0  0  0  0  0  0  0  0  0
    8.8923  -14.5874   15.6202 N   0  0  0  0  0  0  0  0  0  0  0  0
   10.0482  -14.8395   17.6771 C   0  0  0  0  0  0  0  0  0  0  0  0
    9.8029  -16.0586   17.7549 O   0  0  0  0  0  0  0  0  0  0  0  0
   15.7713  -13.3635   18.5293 N   0  0  0  0  0  0  0  0  0  0  0  0
   15.6765  -14.7251   18.1918 C   0  0  0  0  0  0  0  0  0  0  0  0
   16.6592  -15.3285   17.7125 O   0  0  0  0  0  0  0  0  0  0  0  0
   14.4109  -15.4795   18.3951 C   0  0  0  0  0  0  0  0  0  0  0  0
   13.3858  -14.5948   19.0076 C   0  0  0  0  0  0  0  0  0  0  0  0
   12.0299  -15.1633   19.2200 C   0  0  2  0  0  0  0  0  0  0  0  0
   11.1447  -14.3093   18.3849 N   0  0  0  0  0  0  0  0  0  0  0  0
   11.4895  -15.1355   20.5741 C   0  0  0  0  0  0  0  0  0  0  0  0
   11.3338  -13.9972   21.1345 O   0  0  0  0  0  0  0  0  0  0  0  0
   11.1077  -16.2446   21.3490 N   0  0  0  0  0  0  0  0  0  0  0  0
   10.6626  -16.1050   22.7424 C   0  0  1  0  0  0  0  0  0  0  0  0
    9.2267  -16.5145   22.8584 C   0  0  0  0  0  0  0  0  0  0  0  0
    8.2884  -15.4897   22.3395 C   0  0  0  0  0  0  0  0  0  0  0  0
    8.6319  -14.1626   22.0264 C   0  0  0  0  0  0  0  0  0  0  0  0
    7.5547  -13.5050   21.5840 N   0  0  0  0  0  0  0  0  0  0  0  0
    6.5441  -14.3875   21.6122 C   0  0  0  0  0  0  0  0  0  0  0  0
    6.9768  -15.5716   22.0617 N   0  0  0  0  0  0  0  0  0  0  0  0
   11.5455  -16.9476   23.5607 C   0  0  0  0  0  0  0  0  0  0  0  0
   12.4118  -17.7525   23.1325 O   0  0  0  0  0  0  0  0  0  0  0  0
   11.4462  -16.8785   24.9642 O   0  0  0  0  0  0  0  0  0  0  0  0
  1  2  1  0
  3  2  1  0
  3  5  1  0
  3  4  1  6
  5  6  2  0
  7  8  1  0
  8  9  2  0
  8 10  1  0
 10 11  1  0
 12 11  1  1
 12 14  1  0
 13 12  1  0
 13  5  1  0
 14 15  2  0
 16 17  1  0
 16 14  1  0
 17 24  1  0
 18 19  1  0
 17 18  1  6
 19 20  2  0
 20 21  1  0
 22 21  1  0
 23 19  1  0
 23 22  2  0
 24 25  2  0
 24 26  1  0
M  END
$$$$
