SQH.pdb
     RDKit          3D

 26 26  0  0  1  0  0  0  0  0999 V2000
    9.1283  -19.2233   20.8928 O   0  0  0  0  0  0  0  0  0  0  0  0
    8.0121  -18.4892   20.5357 C   0  0  0  0  0  0  0  0  0  0  0  0
    8.4582  -17.1281   20.0471 C   0  0  2  0  0  0  0  0  0  0  0  0
    9.3862  -17.2163   18.9526 N   0  0  0  0  0  0  0  0  0  0  0  0
    9.1001  -16.4163   21.1681 C   0  0  0  0  0  0  0  0  0  0  0  0
   10.3246  -16.1861   21.1783 O   0  0  0  0  0  0  0  0  0  0  0  0
    5.4593  -14.1766   25.6239 N   0  0  0  0  0  0  0  0  0  0  0  0
    6.5785  -13.3425   25.7927 C   0  0  0  0  0  0  0  0  0  0  0  0
    6.5120  -12.3349   26.5274 O   0  0  0  0  0  0  0  0  0  0  0  0
    7.8644  -13.6357   25.1052 C   0  0  0  0  0  0  0  0  0  0  0  0
    7.6812  -14.7514   24.1409 C   0  0  0  0  0  0  0  0  0  0  0  0
    8.8741  -15.1985   23.3768 C   0  0  2  0  0  0  0  0  0  0  0  0
    8.3080  -15.9877   22.2512 N   0  0  0  0  0  0  0  0  0  0  0  0
    9.8301  -16.0620   24.0600 C   0  0  0  0  0  0  0  0  0  0  0  0
    9.6119  -17.3216   24.0535 O   0  0  0  0  0  0  0  0  0  0  0  0
   10.9936  -15.6568   24.7369 N   0  0  0  0  0  0  0  0  0  0  0  0
   11.3254  -16.1512   26.0803 C   0  0  1  0  0  0  0  0  0  0  0  0
   10.0822  -16.2312   26.9114 C   0  0  0  0  0  0  0  0  0  0  0  0
   10.1015  -15.3087   28.0727 C   0  0  0  0  0  0  0  0  0  0  0  0
    9.9811  -13.9099   27.9970 C   0  0  0  0  0  0  0  0  0  0  0  0
   10.0379  -13.3802   29.2237 N   0  0  0  0  0  0  0  0  0  0  0  0
   10.1909  -14.4130   30.0668 C   0  0  0  0  0  0  0  0  0  0  0  0
   10.2294  -15.5643   29.3852 N   0  0  0  0  0  0  0  0  0  0  0  0
   11.9610  -17.4649   25.9085 C   0  0  0  0  0  0  0  0  0  0  0  0
   12.5715  -18.1169   26.7937 O   0  0  0  0  0  0  0  0  0  0  0  0
   11.9046  -18.0906   24.6476 O   0  0  0  0  0  0  0  0  0  0  0  0
  1  2  1  0
  3  2  1  0
  3  5  1  0
  3  4  1  6
  5  6  2  0
  7  8  1  0
  8  9  2  0
  8 10  1  0
 10 11  1  0
 12 11  1  1
 12 14  1  0
 13 12  1  0
 13  5  1  0
 14 15  2  0
 16 17  1  0
 16 14  1  0
 17 24  1  0
 18 19  1  0
 17 18  1  1
 19 20  2  0
 20 21  1  0
 22 21  1  0
 23 19  1  0
 23 22  2  0
 24 25  2  0
 24 26  1  0
M  END
$$$$
