SQH.pdb
     RDKit          3D

 26 26  0  0  1  0  0  0  0  0999 V2000
   15.8207  -14.1456   19.8513 O   0  0  0  0  0  0  0  0  0  0  0  0
   14.9930  -15.2107   20.1557 C   0  0  0  0  0  0  0  0  0  0  0  0
   13.7405  -15.1130   19.3119 C   0  0  2  0  0  0  0  0  0  0  0  0
   13.6267  -13.8439   18.6459 N   0  0  0  0  0  0  0  0  0  0  0  0
   12.5700  -15.3047   20.1885 C   0  0  0  0  0  0  0  0  0  0  0  0
   11.8668  -14.3442   20.5563 O   0  0  0  0  0  0  0  0  0  0  0  0
   10.4018  -20.9656   20.6008 N   0  0  0  0  0  0  0  0  0  0  0  0
    9.5115  -20.3857   21.5216 C   0  0  0  0  0  0  0  0  0  0  0  0
    8.6031  -21.0682   22.0398 O   0  0  0  0  0  0  0  0  0  0  0  0
    9.6266  -18.9523   21.9015 C   0  0  0  0  0  0  0  0  0  0  0  0
   10.6987  -18.3009   21.1049 C   0  0  0  0  0  0  0  0  0  0  0  0
   11.0206  -16.8851   21.4191 C   0  0  2  0  0  0  0  0  0  0  0  0
   12.2417  -16.6054   20.6186 N   0  0  0  0  0  0  0  0  0  0  0  0
   11.3377  -16.5549   22.8035 C   0  0  0  0  0  0  0  0  0  0  0  0
   12.5456  -16.7043   23.1942 O   0  0  0  0  0  0  0  0  0  0  0  0
   10.4453  -16.0758   23.7784 N   0  0  0  0  0  0  0  0  0  0  0  0
   10.8806  -15.7634   25.1466 C   0  0  1  0  0  0  0  0  0  0  0  0
    9.8267  -14.9576   25.8414 C   0  0  0  0  0  0  0  0  0  0  0  0
   10.1549  -14.6752   27.2601 C   0  0  0  0  0  0  0  0  0  0  0  0
   11.3062  -15.1263   27.9296 C   0  0  0  0  0  0  0  0  0  0  0  0
   11.2954  -14.6962   29.1958 N   0  0  0  0  0  0  0  0  0  0  0  0
   10.1652  -13.9863   29.3366 C   0  0  0  0  0  0  0  0  0  0  0  0
    9.4825  -13.9711   28.1854 N   0  0  0  0  0  0  0  0  0  0  0  0
   11.1300  -17.0453   25.8201 C   0  0  0  0  0  0  0  0  0  0  0  0
   10.4677  -18.1041   25.6725 O   0  0  0  0  0  0  0  0  0  0  0  0
   12.2043  -17.1423   26.7262 O   0  0  0  0  0  0  0  0  0  0  0  0
  1  2  1  0
  3  2  1  0
  3  5  1  0
  3  4  1  1
  5  6  2  0
  7  8  1  0
  8  9  2  0
  8 10  1  0
 10 11  1  0
 12 11  1  1
 12 14  1  0
 13 12  1  0
 13  5  1  0
 14 15  2  0
 16 17  1  0
 16 14  1  0
 17 24  1  0
 18 19  1  0
 17 18  1  1
 19 20  2  0
 20 21  1  0
 22 21  1  0
 23 19  1  0
 23 22  2  0
 24 25  2  0
 24 26  1  0
M  END
$$$$
