SQH.pdb
     RDKit          3D

 26 26  0  0  1  0  0  0  0  0999 V2000
   11.5933  -21.0257   17.8833 O   0  0  0  0  0  0  0  0  0  0  0  0
   10.3197  -20.6352   18.2544 C   0  0  0  0  0  0  0  0  0  0  0  0
   10.2127  -19.1311   18.1252 C   0  0  2  0  0  0  0  0  0  0  0  0
   10.7357  -18.6504   16.8751 N   0  0  0  0  0  0  0  0  0  0  0  0
   10.9644  -18.5120   19.2328 C   0  0  0  0  0  0  0  0  0  0  0  0
   12.0719  -17.9722   19.0475 O   0  0  0  0  0  0  0  0  0  0  0  0
   11.8013  -15.2425   22.5626 N   0  0  0  0  0  0  0  0  0  0  0  0
   11.3069  -15.7286   23.7857 C   0  0  0  0  0  0  0  0  0  0  0  0
   11.7377  -15.2765   24.8672 O   0  0  0  0  0  0  0  0  0  0  0  0
   10.2638  -16.7881   23.8248 C   0  0  0  0  0  0  0  0  0  0  0  0
    9.9693  -17.2612   22.4471 C   0  0  0  0  0  0  0  0  0  0  0  0
   11.0856  -17.8710   21.6797 C   0  0  2  0  0  0  0  0  0  0  0  0
   10.4149  -18.5329   20.5298 N   0  0  0  0  0  0  0  0  0  0  0  0
   11.8866  -18.8909   22.3463 C   0  0  0  0  0  0  0  0  0  0  0  0
   11.3229  -20.0005   22.6380 O   0  0  0  0  0  0  0  0  0  0  0  0
   13.2412  -18.7909   22.7089 N   0  0  0  0  0  0  0  0  0  0  0  0
   13.9420  -19.8756   23.4097 C   0  0  1  0  0  0  0  0  0  0  0  0
   15.4085  -19.8043   23.1147 C   0  0  0  0  0  0  0  0  0  0  0  0
   15.7214  -20.0120   21.6798 C   0  0  0  0  0  0  0  0  0  0  0  0
   14.8540  -20.5938   20.7384 C   0  0  0  0  0  0  0  0  0  0  0  0
   15.4426  -20.6317   19.5381 N   0  0  0  0  0  0  0  0  0  0  0  0
   16.6582  -20.0876   19.7041 C   0  0  0  0  0  0  0  0  0  0  0  0
   16.8286  -19.7169   20.9789 N   0  0  0  0  0  0  0  0  0  0  0  0
   13.6579  -19.7141   24.8423 C   0  0  0  0  0  0  0  0  0  0  0  0
   12.9258  -18.8326   25.3605 O   0  0  0  0  0  0  0  0  0  0  0  0
   14.2405  -20.6113   25.7589 O   0  0  0  0  0  0  0  0  0  0  0  0
  1  2  1  0
  3  2  1  0
  3  5  1  0
  3  4  1  6
  5  6  2  0
  7  8  1  0
  8  9  2  0
  8 10  1  0
 10 11  1  0
 12 11  1  1
 12 14  1  0
 13 12  1  0
 13  5  1  0
 14 15  2  0
 16 17  1  0
 16 14  1  0
 17 24  1  0
 18 19  1  0
 17 18  1  1
 19 20  2  0
 20 21  1  0
 22 21  1  0
 23 19  1  0
 23 22  2  0
 24 25  2  0
 24 26  1  0
M  END
$$$$
