SQH.pdb
     RDKit          3D

 26 26  0  0  1  0  0  0  0  0999 V2000
    5.3539  -20.3863   22.1359 O   0  0  0  0  0  0  0  0  0  0  0  0
    6.3380  -19.7318   21.4180 C   0  0  0  0  0  0  0  0  0  0  0  0
    7.3337  -20.7525   20.9110 C   0  0  2  0  0  0  0  0  0  0  0  0
    6.6932  -21.8873   20.3034 N   0  0  0  0  0  0  0  0  0  0  0  0
    8.1525  -21.2121   22.0484 C   0  0  0  0  0  0  0  0  0  0  0  0
    7.8389  -22.2185   22.7127 O   0  0  0  0  0  0  0  0  0  0  0  0
   14.0844  -19.9355   22.2505 N   0  0  0  0  0  0  0  0  0  0  0  0
   13.4541  -20.9797   21.5513 C   0  0  0  0  0  0  0  0  0  0  0  0
   14.0362  -21.5499   20.6049 O   0  0  0  0  0  0  0  0  0  0  0  0
   12.0851  -21.4313   21.9175 C   0  0  0  0  0  0  0  0  0  0  0  0
   11.5638  -20.6106   23.0414 C   0  0  0  0  0  0  0  0  0  0  0  0
   10.1887  -20.9024   23.5217 C   0  0  2  0  0  0  0  0  0  0  0  0
    9.3157  -20.4946   22.3894 N   0  0  0  0  0  0  0  0  0  0  0  0
    9.7171  -20.1837   24.6995 C   0  0  0  0  0  0  0  0  0  0  0  0
    9.0640  -19.0997   24.5190 O   0  0  0  0  0  0  0  0  0  0  0  0
    9.9000  -20.5592   26.0418 N   0  0  0  0  0  0  0  0  0  0  0  0
    9.3929  -19.7445   27.1545 C   0  0  1  0  0  0  0  0  0  0  0  0
    7.9306  -20.0045   27.3468 C   0  0  0  0  0  0  0  0  0  0  0  0
    7.0847  -19.3366   26.3278 C   0  0  0  0  0  0  0  0  0  0  0  0
    7.1509  -17.9738   25.9883 C   0  0  0  0  0  0  0  0  0  0  0  0
    6.2540  -17.6970   25.0356 N   0  0  0  0  0  0  0  0  0  0  0  0
    5.6270  -18.8533   24.7696 C   0  0  0  0  0  0  0  0  0  0  0  0
    6.1188  -19.8332   25.5374 N   0  0  0  0  0  0  0  0  0  0  0  0
   10.1793  -20.1047   28.3424 C   0  0  0  0  0  0  0  0  0  0  0  0
   11.1194  -20.9388   28.3870 O   0  0  0  0  0  0  0  0  0  0  0  0
    9.8859  -19.4795   29.5703 O   0  0  0  0  0  0  0  0  0  0  0  0
  1  2  1  0
  3  2  1  0
  3  5  1  0
  3  4  1  1
  5  6  2  0
  7  8  1  0
  8  9  2  0
  8 10  1  0
 10 11  1  0
 12 11  1  6
 12 14  1  0
 13 12  1  0
 13  5  1  0
 14 15  2  0
 16 17  1  0
 16 14  1  0
 17 24  1  0
 18 19  1  0
 17 18  1  1
 19 20  2  0
 20 21  1  0
 22 21  1  0
 23 19  1  0
 23 22  2  0
 24 25  2  0
 24 26  1  0
M  END
$$$$
