SQH.pdb
     RDKit          3D

 26 26  0  0  1  0  0  0  0  0999 V2000
    8.3710  -14.0358   19.8426 O   0  0  0  0  0  0  0  0  0  0  0  0
    9.0226  -13.1280   19.0281 C   0  0  0  0  0  0  0  0  0  0  0  0
    9.4502  -13.8304   17.7576 C   0  0  2  0  0  0  0  0  0  0  0  0
    8.3733  -14.5618   17.1473 N   0  0  0  0  0  0  0  0  0  0  0  0
   10.5435  -14.7647   18.0851 C   0  0  0  0  0  0  0  0  0  0  0  0
   10.3654  -15.9978   18.0974 O   0  0  0  0  0  0  0  0  0  0  0  0
   16.3626  -14.9509   16.3660 N   0  0  0  0  0  0  0  0  0  0  0  0
   16.1231  -13.8102   17.1522 C   0  0  0  0  0  0  0  0  0  0  0  0
   16.9911  -12.9182   17.2547 O   0  0  0  0  0  0  0  0  0  0  0  0
   14.8372  -13.6356   17.8791 C   0  0  0  0  0  0  0  0  0  0  0  0
   13.9725  -14.8266   17.6735 C   0  0  0  0  0  0  0  0  0  0  0  0
   12.9665  -15.1314   18.7231 C   0  0  2  0  0  0  0  0  0  0  0  0
   11.8178  -14.2480   18.3908 N   0  0  0  0  0  0  0  0  0  0  0  0
   13.3281  -14.8520   20.1078 C   0  0  0  0  0  0  0  0  0  0  0  0
   13.4116  -13.6292   20.4709 O   0  0  0  0  0  0  0  0  0  0  0  0
   13.5973  -15.7974   21.1129 N   0  0  0  0  0  0  0  0  0  0  0  0
   12.7443  -15.9350   22.3014 C   0  0  1  0  0  0  0  0  0  0  0  0
   11.3173  -16.1110   21.8826 C   0  0  0  0  0  0  0  0  0  0  0  0
   10.4008  -16.3327   23.0276 C   0  0  0  0  0  0  0  0  0  0  0  0
   10.7772  -16.3067   24.3821 C   0  0  0  0  0  0  0  0  0  0  0  0
    9.7126  -16.5444   25.1559 N   0  0  0  0  0  0  0  0  0  0  0  0
    8.6778  -16.7188   24.3194 C   0  0  0  0  0  0  0  0  0  0  0  0
    9.0834  -16.5935   23.0500 N   0  0  0  0  0  0  0  0  0  0  0  0
   13.2454  -17.0914   23.0569 C   0  0  0  0  0  0  0  0  0  0  0  0
   13.3795  -17.1627   24.3053 O   0  0  0  0  0  0  0  0  0  0  0  0
   13.6229  -18.2532   22.3553 O   0  0  0  0  0  0  0  0  0  0  0  0
  1  2  1  0
  3  2  1  0
  3  5  1  0
  3  4  1  1
  5  6  2  0
  7  8  1  0
  8  9  2  0
  8 10  1  0
 10 11  1  0
 12 11  1  6
 12 14  1  0
 13 12  1  0
 13  5  1  0
 14 15  2  0
 16 17  1  0
 16 14  1  0
 17 24  1  0
 18 19  1  0
 17 18  1  6
 19 20  2  0
 20 21  1  0
 22 21  1  0
 23 19  1  0
 23 22  2  0
 24 25  2  0
 24 26  1  0
M  END
$$$$
