RNH.pdb
     RDKit          3D

 30 30  0  0  1  0  0  0  0  0999 V2000
   27.6879  -19.6305   -5.7675 N   0  0  0  0  0  0  0  0  0  0  0  0
   28.5666  -20.2522   -6.6853 C   0  0  0  0  0  0  0  0  0  0  0  0
   29.8166  -20.3929   -6.3960 N   0  0  0  0  0  0  0  0  0  0  0  0
   28.0309  -20.7114   -7.9200 N   0  0  0  0  0  0  0  0  0  0  0  0
   26.7106  -20.3043   -8.3176 C   0  0  0  0  0  0  0  0  0  0  0  0
   25.9323  -21.4114   -9.0048 C   0  0  0  0  0  0  0  0  0  0  0  0
   25.3104  -20.8335  -10.2468 C   0  0  0  0  0  0  0  0  0  0  0  0
   26.2799  -20.8026  -11.4088 C   0  0  2  0  0  0  0  0  0  0  0  0
   27.4850  -20.0742  -11.0809 N   0  0  0  0  0  0  0  0  0  0  0  0
   25.6595  -20.3772  -12.6799 C   0  0  0  0  0  0  0  0  0  0  0  0
   25.2697  -19.1917  -12.7833 O   0  0  0  0  0  0  0  0  0  0  0  0
   30.4459  -20.8496   -7.0785 N   0  0  0  0  0  0  0  0  0  0  0  0
   24.1056  -19.8249  -17.7439 C   0  0  0  0  0  0  0  0  0  0  0  0
   25.0128  -20.8678  -17.5334 O   0  0  0  0  0  0  0  0  0  0  0  0
   25.5249  -21.4024  -18.5761 C   0  0  0  0  0  0  0  0  0  0  0  0
   25.4509  -21.4252  -16.2531 C   0  0  2  0  0  0  0  0  0  0  0  0
   24.8686  -20.7762  -15.0412 N   0  0  0  0  0  0  0  0  0  0  0  0
   25.4693  -21.2173  -13.8023 C   0  0  0  0  0  0  0  0  0  0  0  0
   23.4032  -20.9209  -15.0470 O   0  0  0  0  0  0  0  0  0  0  0  0
   22.7979  -21.9838  -14.7526 N   0  0  0  0  0  0  0  0  0  0  0  0
   22.5799  -19.8220  -15.3990 C   0  0  1  0  0  0  0  0  0  0  0  0
   21.1188  -19.9874  -15.5160 C   0  0  0  0  0  0  0  0  0  0  0  0
   20.5706  -19.1505  -14.3841 C   0  0  0  0  0  0  0  0  0  0  0  0
   19.1149  -19.0303  -14.3453 C   0  0  0  0  0  0  0  0  0  0  0  0
   18.2080  -19.5890  -15.2582 N   0  0  0  0  0  0  0  0  0  0  0  0
   16.9493  -19.2722  -14.9230 C   0  0  0  0  0  0  0  0  0  0  0  0
   17.0404  -18.5196  -13.8096 N   0  0  0  0  0  0  0  0  0  0  0  0
   18.3301  -18.3811  -13.4738 C   0  0  0  0  0  0  0  0  0  0  0  0
   20.6647  -19.5450  -16.8381 O   0  0  0  0  0  0  0  0  0  0  0  0
   19.8083  -20.2322  -17.4504 O   0  0  0  0  0  0  0  0  0  0  0  0
  2  1  1  0
  3  2  2  0
  4  2  1  0
  5  4  1  0
  6  5  1  0
  7  6  1  0
  8  7  1  0
  8  9  1  1
 10 11  2  0
 10  8  1  0
 13 12  1  0
 13 15  1  0
 14 13  2  0
 16 15  1  6
 16 18  1  0
 16 17  1  0
 17 10  1  0
 18 20  1  0
 19 18  2  0
 20 21  1  0
 21 28  1  0
 22 23  1  0
 21 22  1  6
 23 27  1  0
 24 23  2  0
 24 25  1  0
 25 26  1  0
 27 26  2  0
 28 29  2  0
 28 30  1  0
M  END
$$$$
