RNH.pdb
     RDKit          3D

 30 30  0  0  1  0  0  0  0  0999 V2000
   30.0651  -23.0867  -10.2916 N   0  0  0  0  0  0  0  0  0  0  0  0
   30.1483  -21.8521   -9.6061 C   0  0  0  0  0  0  0  0  0  0  0  0
   31.1879  -21.5718   -8.8943 N   0  0  0  0  0  0  0  0  0  0  0  0
   29.0616  -20.9431   -9.7286 N   0  0  0  0  0  0  0  0  0  0  0  0
   27.9234  -21.2994  -10.5315 C   0  0  0  0  0  0  0  0  0  0  0  0
   28.2009  -21.2145  -12.0213 C   0  0  0  0  0  0  0  0  0  0  0  0
   27.2108  -20.2527  -12.6193 C   0  0  0  0  0  0  0  0  0  0  0  0
   25.7882  -20.7586  -12.5126 C   0  0  2  0  0  0  0  0  0  0  0  0
   25.7402  -22.1246  -12.0413 N   0  0  0  0  0  0  0  0  0  0  0  0
   24.9893  -20.5260  -13.7330 C   0  0  0  0  0  0  0  0  0  0  0  0
   24.9076  -19.3575  -14.1758 O   0  0  0  0  0  0  0  0  0  0  0  0
   31.1712  -20.7401   -8.2793 N   0  0  0  0  0  0  0  0  0  0  0  0
   25.7978  -21.4720  -18.2220 C   0  0  0  0  0  0  0  0  0  0  0  0
   24.4492  -21.3851  -17.8633 O   0  0  0  0  0  0  0  0  0  0  0  0
   23.7206  -20.5953  -18.5565 C   0  0  0  0  0  0  0  0  0  0  0  0
   23.7656  -22.0954  -16.7817 C   0  0  2  0  0  0  0  0  0  0  0  0
   23.4420  -21.2705  -15.5802 N   0  0  0  0  0  0  0  0  0  0  0  0
   24.3007  -21.5345  -14.4473 C   0  0  0  0  0  0  0  0  0  0  0  0
   22.0119  -21.3963  -15.2526 O   0  0  0  0  0  0  0  0  0  0  0  0
   21.5734  -21.9254  -14.1988 N   0  0  0  0  0  0  0  0  0  0  0  0
   21.0295  -20.9056  -16.1489 C   0  0  2  0  0  0  0  0  0  0  0  0
   19.6002  -20.9393  -15.7860 C   0  0  0  0  0  0  0  0  0  0  0  0
   19.3558  -22.3849  -15.4220 C   0  0  0  0  0  0  0  0  0  0  0  0
   18.0007  -22.6944  -14.9715 C   0  0  0  0  0  0  0  0  0  0  0  0
   16.8715  -21.8718  -15.0999 N   0  0  0  0  0  0  0  0  0  0  0  0
   15.7939  -22.4678  -14.5702 C   0  0  0  0  0  0  0  0  0  0  0  0
   16.2195  -23.6584  -14.1057 N   0  0  0  0  0  0  0  0  0  0  0  0
   17.5312  -23.7844  -14.3483 C   0  0  0  0  0  0  0  0  0  0  0  0
   19.3373  -20.0103  -14.6825 O   0  0  0  0  0  0  0  0  0  0  0  0
   20.2531  -19.2358  -14.3058 O   0  0  0  0  0  0  0  0  0  0  0  0
  2  1  1  0
  3  2  2  0
  4  2  1  0
  5  4  1  0
  6  5  1  0
  7  6  1  0
  8  7  1  0
  8  9  1  6
 10 11  2  0
 10  8  1  0
 13 12  1  0
 13 15  1  0
 14 13  2  0
 16 15  1  6
 16 18  1  0
 16 17  1  0
 17 10  1  0
 18 20  1  0
 19 18  2  0
 20 21  1  0
 21 28  1  0
 22 23  1  0
 21 22  1  6
 23 27  1  0
 24 23  2  0
 24 25  1  0
 25 26  1  0
 27 26  2  0
 28 29  2  0
 28 30  1  0
M  END
$$$$
