RNH.pdb
     RDKit          3D

 30 30  0  0  1  0  0  0  0  0999 V2000
   37.0482  -37.9366   -4.0960 N   0  0  0  0  0  0  0  0  0  0  0  0
   36.3840  -38.6488   -5.1219 C   0  0  0  0  0  0  0  0  0  0  0  0
   36.8308  -39.7951   -5.5125 N   0  0  0  0  0  0  0  0  0  0  0  0
   35.2220  -38.0658   -5.6983 N   0  0  0  0  0  0  0  0  0  0  0  0
   34.7343  -36.8090   -5.1986 C   0  0  0  0  0  0  0  0  0  0  0  0
   33.2477  -36.8309   -4.8934 C   0  0  0  0  0  0  0  0  0  0  0  0
   32.6205  -35.6470   -5.5777 C   0  0  0  0  0  0  0  0  0  0  0  0
   31.1323  -35.5593   -5.3159 C   0  0  2  0  0  0  0  0  0  0  0  0
   30.8276  -35.6952   -3.9091 N   0  0  0  0  0  0  0  0  0  0  0  0
   30.3304  -36.4465   -6.1828 C   0  0  0  0  0  0  0  0  0  0  0  0
   30.5828  -36.4655   -7.4093 O   0  0  0  0  0  0  0  0  0  0  0  0
   36.3634  -40.2796   -6.2981 N   0  0  0  0  0  0  0  0  0  0  0  0
   27.5516  -41.3636   -7.4385 C   0  0  0  0  0  0  0  0  0  0  0  0
   27.1232  -40.1895   -6.8117 O   0  0  0  0  0  0  0  0  0  0  0  0
   25.9107  -39.8387   -7.0172 C   0  0  0  0  0  0  0  0  0  0  0  0
   27.9013  -39.3071   -5.9414 C   0  0  1  0  0  0  0  0  0  0  0  0
   28.4691  -38.0954   -6.6034 N   0  0  0  0  0  0  0  0  0  0  0  0
   29.2861  -37.2855   -5.7277 C   0  0  0  0  0  0  0  0  0  0  0  0
   27.3946  -37.3260   -7.2531 O   0  0  0  0  0  0  0  0  0  0  0  0
   27.0328  -36.1763   -6.8925 N   0  0  0  0  0  0  0  0  0  0  0  0
   26.6949  -37.8723   -8.3583 C   0  0  1  0  0  0  0  0  0  0  0  0
   25.7914  -37.0294   -9.1640 C   0  0  0  0  0  0  0  0  0  0  0  0
   26.7148  -36.0139   -9.7950 C   0  0  0  0  0  0  0  0  0  0  0  0
   26.3554  -34.6164   -9.5653 C   0  0  0  0  0  0  0  0  0  0  0  0
   25.2391  -34.1487   -8.8559 N   0  0  0  0  0  0  0  0  0  0  0  0
   25.2156  -32.8084   -8.8482 C   0  0  0  0  0  0  0  0  0  0  0  0
   26.3006  -32.4145   -9.5424 N   0  0  0  0  0  0  0  0  0  0  0  0
   26.9716  -33.4948   -9.9645 C   0  0  0  0  0  0  0  0  0  0  0  0
   25.0749  -37.8510  -10.1446 O   0  0  0  0  0  0  0  0  0  0  0  0
   25.2997  -39.0873  -10.1851 O   0  0  0  0  0  0  0  0  0  0  0  0
  2  1  1  0
  3  2  2  0
  4  2  1  0
  5  4  1  0
  6  5  1  0
  7  6  1  0
  8  7  1  0
  8  9  1  1
 10 11  2  0
 10  8  1  0
 13 12  1  0
 13 15  1  0
 14 13  2  0
 16 15  1  6
 16 18  1  0
 16 17  1  0
 17 10  1  0
 18 20  1  0
 19 18  2  0
 20 21  1  0
 21 28  1  0
 22 23  1  0
 21 22  1  1
 23 27  1  0
 24 23  2  0
 24 25  1  0
 25 26  1  0
 27 26  2  0
 28 29  2  0
 28 30  1  0
M  END
$$$$
