RNH.pdb
     RDKit          3D

 30 30  0  0  1  0  0  0  0  0999 V2000
   24.7528  -21.5905   -9.9691 N   0  0  0  0  0  0  0  0  0  0  0  0
   25.9683  -21.0676   -9.4690 C   0  0  0  0  0  0  0  0  0  0  0  0
   26.0727  -20.7399   -8.2249 N   0  0  0  0  0  0  0  0  0  0  0  0
   27.0561  -20.9193  -10.3729 N   0  0  0  0  0  0  0  0  0  0  0  0
   26.8366  -20.3083  -11.6557 C   0  0  0  0  0  0  0  0  0  0  0  0
   28.0912  -20.2568  -12.5085 C   0  0  0  0  0  0  0  0  0  0  0  0
   27.7765  -19.4536  -13.7409 C   0  0  0  0  0  0  0  0  0  0  0  0
   26.8477  -20.1915  -14.6810 C   0  0  2  0  0  0  0  0  0  0  0  0
   27.3420  -21.5139  -14.9928 N   0  0  0  0  0  0  0  0  0  0  0  0
   26.4723  -19.4046  -15.8733 C   0  0  0  0  0  0  0  0  0  0  0  0
   25.9965  -18.2587  -15.7033 O   0  0  0  0  0  0  0  0  0  0  0  0
   26.9768  -20.3842   -7.8693 N   0  0  0  0  0  0  0  0  0  0  0  0
   25.8847  -17.4372  -20.8128 C   0  0  0  0  0  0  0  0  0  0  0  0
   26.7273  -18.5513  -20.7524 O   0  0  0  0  0  0  0  0  0  0  0  0
   27.3587  -18.8522  -21.8229 C   0  0  0  0  0  0  0  0  0  0  0  0
   26.9762  -19.4211  -19.6020 C   0  0  2  0  0  0  0  0  0  0  0  0
   26.2254  -19.0688  -18.3606 N   0  0  0  0  0  0  0  0  0  0  0  0
   26.6104  -19.8524  -17.2082 C   0  0  0  0  0  0  0  0  0  0  0  0
   24.7763  -19.1099  -18.6192 O   0  0  0  0  0  0  0  0  0  0  0  0
   24.1305  -20.1645  -18.8505 N   0  0  0  0  0  0  0  0  0  0  0  0
   24.0178  -17.9124  -18.6177 C   0  0  1  0  0  0  0  0  0  0  0  0
   22.5501  -17.9548  -18.7594 C   0  0  0  0  0  0  0  0  0  0  0  0
   22.0533  -17.1132  -17.6075 C   0  0  0  0  0  0  0  0  0  0  0  0
   21.5384  -17.8627  -16.4638 C   0  0  0  0  0  0  0  0  0  0  0  0
   21.5083  -19.2585  -16.3274 N   0  0  0  0  0  0  0  0  0  0  0  0
   20.9613  -19.6038  -15.1532 C   0  0  0  0  0  0  0  0  0  0  0  0
   20.6422  -18.4484  -14.5388 N   0  0  0  0  0  0  0  0  0  0  0  0
   20.9884  -17.4195  -15.3244 C   0  0  0  0  0  0  0  0  0  0  0  0
   22.1542  -17.4345  -20.0718 O   0  0  0  0  0  0  0  0  0  0  0  0
   22.9073  -16.6141  -20.6552 O   0  0  0  0  0  0  0  0  0  0  0  0
  2  1  1  0
  3  2  2  0
  4  2  1  0
  5  4  1  0
  6  5  1  0
  7  6  1  0
  8  7  1  0
  8  9  1  6
 10 11  2  0
 10  8  1  0
 13 12  1  0
 13 15  1  0
 14 13  2  0
 16 15  1  1
 16 18  1  0
 16 17  1  0
 17 10  1  0
 18 20  1  0
 19 18  2  0
 20 21  1  0
 21 28  1  0
 22 23  1  0
 21 22  1  6
 23 27  1  0
 24 23  2  0
 24 25  1  0
 25 26  1  0
 27 26  2  0
 28 29  2  0
 28 30  1  0
M  END
$$$$
