RNH.pdb
     RDKit          3D

 30 30  0  0  1  0  0  0  0  0999 V2000
   15.3774  -12.6575  -15.0337 N   0  0  0  0  0  0  0  0  0  0  0  0
   15.1784  -12.9770  -16.3973 C   0  0  0  0  0  0  0  0  0  0  0  0
   13.9952  -13.2484  -16.8359 N   0  0  0  0  0  0  0  0  0  0  0  0
   16.3121  -12.9870  -17.2556 N   0  0  0  0  0  0  0  0  0  0  0  0
   17.3901  -12.0651  -17.0207 C   0  0  0  0  0  0  0  0  0  0  0  0
   18.4771  -12.1450  -18.0770 C   0  0  0  0  0  0  0  0  0  0  0  0
   19.5086  -11.0983  -17.7550 C   0  0  0  0  0  0  0  0  0  0  0  0
   20.8006  -11.7062  -17.2528 C   0  0  2  0  0  0  0  0  0  0  0  0
   20.5939  -13.0311  -16.7122 N   0  0  0  0  0  0  0  0  0  0  0  0
   21.5595  -10.8129  -16.3541 C   0  0  0  0  0  0  0  0  0  0  0  0
   21.2332  -10.7689  -15.1458 O   0  0  0  0  0  0  0  0  0  0  0  0
   13.8797  -13.5797  -17.8092 N   0  0  0  0  0  0  0  0  0  0  0  0
   24.4201  -11.8330  -14.9326 C   0  0  0  0  0  0  0  0  0  0  0  0
   25.2603  -10.8387  -15.4428 O   0  0  0  0  0  0  0  0  0  0  0  0
   26.5028  -11.1276  -15.5327 C   0  0  0  0  0  0  0  0  0  0  0  0
   24.8859   -9.4966  -15.8904 C   0  0  2  0  0  0  0  0  0  0  0  0
   23.4247   -9.1931  -15.8467 N   0  0  0  0  0  0  0  0  0  0  0  0
   22.6390   -9.9931  -16.7593 C   0  0  0  0  0  0  0  0  0  0  0  0
   23.2048   -7.7477  -16.0217 O   0  0  0  0  0  0  0  0  0  0  0  0
   23.6766   -7.0722  -16.9725 N   0  0  0  0  0  0  0  0  0  0  0  0
   22.4189   -7.0280  -15.0869 C   0  0  1  0  0  0  0  0  0  0  0  0
   22.1262   -5.5977  -15.2978 C   0  0  0  0  0  0  0  0  0  0  0  0
   20.6169   -5.5380  -15.3123 C   0  0  0  0  0  0  0  0  0  0  0  0
   19.9822   -6.0879  -16.5082 C   0  0  0  0  0  0  0  0  0  0  0  0
   20.3412   -5.8239  -17.8384 N   0  0  0  0  0  0  0  0  0  0  0  0
   19.5414   -6.4917  -18.6818 C   0  0  0  0  0  0  0  0  0  0  0  0
   18.6777   -7.1778  -17.9088 N   0  0  0  0  0  0  0  0  0  0  0  0
   18.9468   -6.9320  -16.6194 C   0  0  0  0  0  0  0  0  0  0  0  0
   22.7288   -4.7958  -14.2283 O   0  0  0  0  0  0  0  0  0  0  0  0
   22.5671   -3.5491  -14.2357 O   0  0  0  0  0  0  0  0  0  0  0  0
  2  1  1  0
  3  2  2  0
  4  2  1  0
  5  4  1  0
  6  5  1  0
  7  6  1  0
  8  7  1  0
  8  9  1  1
 10 11  2  0
 10  8  1  0
 13 12  1  0
 13 15  1  0
 14 13  2  0
 16 15  1  1
 16 18  1  0
 16 17  1  0
 17 10  1  0
 18 20  1  0
 19 18  2  0
 20 21  1  0
 21 28  1  0
 22 23  1  0
 21 22  1  6
 23 27  1  0
 24 23  2  0
 24 25  1  0
 25 26  1  0
 27 26  2  0
 28 29  2  0
 28 30  1  0
M  END
$$$$
