RNH.pdb
     RDKit          3D

 30 30  0  0  1  0  0  0  0  0999 V2000
   26.8595  -21.7389  -12.1674 N   0  0  0  0  0  0  0  0  0  0  0  0
   26.1371  -20.5616  -11.8624 C   0  0  0  0  0  0  0  0  0  0  0  0
   25.2134  -20.5800  -10.9609 N   0  0  0  0  0  0  0  0  0  0  0  0
   26.4611  -19.3735  -12.5735 N   0  0  0  0  0  0  0  0  0  0  0  0
   27.2808  -19.4512  -13.7521 C   0  0  0  0  0  0  0  0  0  0  0  0
   27.5151  -18.0986  -14.3997 C   0  0  0  0  0  0  0  0  0  0  0  0
   26.2025  -17.6243  -14.9612 C   0  0  0  0  0  0  0  0  0  0  0  0
   25.7309  -18.4848  -16.1136 C   0  0  2  0  0  0  0  0  0  0  0  0
   26.7953  -18.7468  -17.0563 N   0  0  0  0  0  0  0  0  0  0  0  0
   24.4901  -17.9915  -16.7453 C   0  0  0  0  0  0  0  0  0  0  0  0
   23.5658  -17.5872  -16.0034 O   0  0  0  0  0  0  0  0  0  0  0  0
   24.7052  -19.7067  -10.7389 N   0  0  0  0  0  0  0  0  0  0  0  0
   20.5895  -16.6206  -20.1813 C   0  0  0  0  0  0  0  0  0  0  0  0
   21.8824  -16.5021  -20.7001 O   0  0  0  0  0  0  0  0  0  0  0  0
   21.9880  -15.9883  -21.8664 C   0  0  0  0  0  0  0  0  0  0  0  0
   23.1394  -16.8979  -20.0639 C   0  0  1  0  0  0  0  0  0  0  0  0
   23.0007  -17.5644  -18.7351 N   0  0  0  0  0  0  0  0  0  0  0  0
   24.2637  -17.9413  -18.1409 C   0  0  0  0  0  0  0  0  0  0  0  0
   22.0580  -18.6914  -18.8326 O   0  0  0  0  0  0  0  0  0  0  0  0
   22.3740  -19.8434  -19.2275 N   0  0  0  0  0  0  0  0  0  0  0  0
   20.6988  -18.5172  -18.4698 C   0  0  1  0  0  0  0  0  0  0  0  0
   20.0149  -19.5146  -17.6252 C   0  0  0  0  0  0  0  0  0  0  0  0
   20.7839  -19.4731  -16.3257 C   0  0  0  0  0  0  0  0  0  0  0  0
   20.2700  -20.3412  -15.2686 C   0  0  0  0  0  0  0  0  0  0  0  0
   19.1044  -21.1200  -15.3228 N   0  0  0  0  0  0  0  0  0  0  0  0
   18.9320  -21.7875  -14.1731 C   0  0  0  0  0  0  0  0  0  0  0  0
   19.9707  -21.4458  -13.3866 N   0  0  0  0  0  0  0  0  0  0  0  0
   20.7601  -20.5865  -14.0452 C   0  0  0  0  0  0  0  0  0  0  0  0
   18.5995  -19.1629  -17.4739 O   0  0  0  0  0  0  0  0  0  0  0  0
   17.7653  -20.0752  -17.2456 O   0  0  0  0  0  0  0  0  0  0  0  0
  2  1  1  0
  3  2  2  0
  4  2  1  0
  5  4  1  0
  6  5  1  0
  7  6  1  0
  8  7  1  0
  8  9  1  6
 10 11  2  0
 10  8  1  0
 13 12  1  0
 13 15  1  0
 14 13  2  0
 16 15  1  1
 16 18  1  0
 16 17  1  0
 17 10  1  0
 18 20  1  0
 19 18  2  0
 20 21  1  0
 21 28  1  0
 22 23  1  0
 21 22  1  6
 23 27  1  0
 24 23  2  0
 24 25  1  0
 25 26  1  0
 27 26  2  0
 28 29  2  0
 28 30  1  0
M  END
$$$$
