RNH.pdb
     RDKit          3D

 30 30  0  0  1  0  0  0  0  0999 V2000
   33.0910  -27.8284  -17.5167 N   0  0  0  0  0  0  0  0  0  0  0  0
   33.6062  -28.3260  -18.7365 C   0  0  0  0  0  0  0  0  0  0  0  0
   33.8172  -27.5269  -19.7279 N   0  0  0  0  0  0  0  0  0  0  0  0
   33.8809  -29.7182  -18.8296 N   0  0  0  0  0  0  0  0  0  0  0  0
   33.7053  -30.5565  -17.6748 C   0  0  0  0  0  0  0  0  0  0  0  0
   34.1715  -31.9828  -17.9032 C   0  0  0  0  0  0  0  0  0  0  0  0
   33.7567  -32.7987  -16.7093 C   0  0  0  0  0  0  0  0  0  0  0  0
   34.1684  -34.2494  -16.8389 C   0  0  2  0  0  0  0  0  0  0  0  0
   35.4522  -34.3851  -17.4901 N   0  0  0  0  0  0  0  0  0  0  0  0
   33.1170  -35.1084  -17.4205 C   0  0  0  0  0  0  0  0  0  0  0  0
   32.9959  -35.1381  -18.6666 O   0  0  0  0  0  0  0  0  0  0  0  0
   34.2195  -27.9023  -20.6040 N   0  0  0  0  0  0  0  0  0  0  0  0
   32.4938  -40.2990  -16.5579 C   0  0  0  0  0  0  0  0  0  0  0  0
   32.2271  -39.0207  -17.0576 O   0  0  0  0  0  0  0  0  0  0  0  0
   33.0172  -38.5817  -17.9622 C   0  0  0  0  0  0  0  0  0  0  0  0
   31.1435  -38.1178  -16.6674 C   0  0  2  0  0  0  0  0  0  0  0  0
   31.2082  -36.7489  -17.2596 N   0  0  0  0  0  0  0  0  0  0  0  0
   32.2255  -35.9089  -16.6681 C   0  0  0  0  0  0  0  0  0  0  0  0
   29.8735  -36.1273  -17.2392 O   0  0  0  0  0  0  0  0  0  0  0  0
   29.4296  -35.4403  -16.2833 N   0  0  0  0  0  0  0  0  0  0  0  0
   28.9974  -36.2839  -18.3426 C   0  0  1  0  0  0  0  0  0  0  0  0
   27.6689  -35.6428  -18.3415 C   0  0  0  0  0  0  0  0  0  0  0  0
   27.9828  -34.1655  -18.3087 C   0  0  0  0  0  0  0  0  0  0  0  0
   27.9987  -33.5604  -16.9787 C   0  0  0  0  0  0  0  0  0  0  0  0
   27.6889  -34.1992  -15.7688 N   0  0  0  0  0  0  0  0  0  0  0  0
   27.7999  -33.3425  -14.7437 C   0  0  0  0  0  0  0  0  0  0  0  0
   28.1759  -32.1666  -15.2825 N   0  0  0  0  0  0  0  0  0  0  0  0
   28.2915  -32.3053  -16.6102 C   0  0  0  0  0  0  0  0  0  0  0  0
   26.9111  -36.0492  -19.5291 O   0  0  0  0  0  0  0  0  0  0  0  0
   25.6563  -35.9734  -19.5075 O   0  0  0  0  0  0  0  0  0  0  0  0
  2  1  1  0
  3  2  2  0
  4  2  1  0
  5  4  1  0
  6  5  1  0
  7  6  1  0
  8  7  1  0
  8  9  1  6
 10 11  2  0
 10  8  1  0
 13 12  1  0
 13 15  1  0
 14 13  2  0
 16 15  1  6
 16 18  1  0
 16 17  1  0
 17 10  1  0
 18 20  1  0
 19 18  2  0
 20 21  1  0
 21 28  1  0
 22 23  1  0
 21 22  1  1
 23 27  1  0
 24 23  2  0
 24 25  1  0
 25 26  1  0
 27 26  2  0
 28 29  2  0
 28 30  1  0
M  END
$$$$
