RNH.pdb
     RDKit          3D

 30 30  0  0  1  0  0  0  0  0999 V2000
   29.7853  -20.6933  -18.9749 N   0  0  0  0  0  0  0  0  0  0  0  0
   28.4859  -21.0268  -18.5261 C   0  0  0  0  0  0  0  0  0  0  0  0
   27.4624  -20.8196  -19.2847 N   0  0  0  0  0  0  0  0  0  0  0  0
   28.3497  -21.5919  -17.2283 N   0  0  0  0  0  0  0  0  0  0  0  0
   29.5082  -21.7317  -16.3883 C   0  0  0  0  0  0  0  0  0  0  0  0
   29.2070  -22.4364  -15.0782 C   0  0  0  0  0  0  0  0  0  0  0  0
   28.1222  -21.6633  -14.3792 C   0  0  0  0  0  0  0  0  0  0  0  0
   28.4869  -21.3363  -12.9471 C   0  0  2  0  0  0  0  0  0  0  0  0
   29.7675  -21.8979  -12.5795 N   0  0  0  0  0  0  0  0  0  0  0  0
   27.4099  -21.6396  -11.9829 C   0  0  0  0  0  0  0  0  0  0  0  0
   26.9147  -22.7898  -11.9877 O   0  0  0  0  0  0  0  0  0  0  0  0
   26.5204  -21.0818  -18.9468 N   0  0  0  0  0  0  0  0  0  0  0  0
   27.1578  -19.1427   -7.9176 C   0  0  0  0  0  0  0  0  0  0  0  0
   26.1778  -20.0325   -8.3677 O   0  0  0  0  0  0  0  0  0  0  0  0
   26.0962  -21.1533   -7.7574 C   0  0  0  0  0  0  0  0  0  0  0  0
   25.2262  -19.8338   -9.4617 C   0  0  2  0  0  0  0  0  0  0  0  0
   25.4888  -20.6393  -10.6910 N   0  0  0  0  0  0  0  0  0  0  0  0
   26.8886  -20.7185  -11.0440 C   0  0  0  0  0  0  0  0  0  0  0  0
   24.6481  -20.1561  -11.7992 O   0  0  0  0  0  0  0  0  0  0  0  0
   25.1000  -19.7216  -12.8900 N   0  0  0  0  0  0  0  0  0  0  0  0
   23.2359  -20.1613  -11.6773 C   0  0  1  0  0  0  0  0  0  0  0  0
   22.3817  -20.3400  -12.8665 C   0  0  0  0  0  0  0  0  0  0  0  0
   22.8019  -21.6846  -13.4120 C   0  0  0  0  0  0  0  0  0  0  0  0
   22.7940  -21.7969  -14.8689 C   0  0  0  0  0  0  0  0  0  0  0  0
   22.3855  -20.8102  -15.7786 N   0  0  0  0  0  0  0  0  0  0  0  0
   22.5036  -21.2549  -17.0378 C   0  0  0  0  0  0  0  0  0  0  0  0
   22.9814  -22.5107  -16.9442 N   0  0  0  0  0  0  0  0  0  0  0  0
   23.1508  -22.8243  -15.6525 C   0  0  0  0  0  0  0  0  0  0  0  0
   20.9670  -20.2844  -12.4852 O   0  0  0  0  0  0  0  0  0  0  0  0
   20.6415  -20.5719  -11.3053 O   0  0  0  0  0  0  0  0  0  0  0  0
  2  1  1  0
  3  2  2  0
  4  2  1  0
  5  4  1  0
  6  5  1  0
  7  6  1  0
  8  7  1  0
  8  9  1  1
 10 11  2  0
 10  8  1  0
 13 12  1  0
 13 15  1  0
 14 13  2  0
 16 15  1  1
 16 18  1  0
 16 17  1  0
 17 10  1  0
 18 20  1  0
 19 18  2  0
 20 21  1  0
 21 28  1  0
 22 23  1  0
 21 22  1  6
 23 27  1  0
 24 23  2  0
 24 25  1  0
 25 26  1  0
 27 26  2  0
 28 29  2  0
 28 30  1  0
M  END
$$$$
