RNH.pdb
     RDKit          3D

 30 30  0  0  1  0  0  0  0  0999 V2000
   30.4476  -21.8327   -8.9664 N   0  0  0  0  0  0  0  0  0  0  0  0
   31.0231  -22.4713  -10.0898 C   0  0  0  0  0  0  0  0  0  0  0  0
   31.9861  -23.3167   -9.9352 N   0  0  0  0  0  0  0  0  0  0  0  0
   30.5091  -22.1541  -11.3772 N   0  0  0  0  0  0  0  0  0  0  0  0
   29.4223  -21.2206  -11.4989 C   0  0  0  0  0  0  0  0  0  0  0  0
   28.0775  -21.8298  -11.1469 C   0  0  0  0  0  0  0  0  0  0  0  0
   27.0167  -20.8056  -11.4450 C   0  0  0  0  0  0  0  0  0  0  0  0
   25.9938  -21.3159  -12.4370 C   0  0  2  0  0  0  0  0  0  0  0  0
   26.6102  -22.0921  -13.4896 N   0  0  0  0  0  0  0  0  0  0  0  0
   25.0824  -20.2651  -12.9338 C   0  0  0  0  0  0  0  0  0  0  0  0
   24.4609  -19.5728  -12.0955 O   0  0  0  0  0  0  0  0  0  0  0  0
   32.4249  -23.7425  -10.7697 N   0  0  0  0  0  0  0  0  0  0  0  0
   26.8969  -17.0077  -15.5340 C   0  0  0  0  0  0  0  0  0  0  0  0
   25.4988  -17.0235  -15.5212 O   0  0  0  0  0  0  0  0  0  0  0  0
   24.9162  -15.9529  -15.1342 C   0  0  0  0  0  0  0  0  0  0  0  0
   24.6150  -18.1263  -15.9010 C   0  0  2  0  0  0  0  0  0  0  0  0
   24.0226  -18.8909  -14.7638 N   0  0  0  0  0  0  0  0  0  0  0  0
   24.8550  -19.9785  -14.3004 C   0  0  0  0  0  0  0  0  0  0  0  0
   22.6570  -19.3238  -15.1045 O   0  0  0  0  0  0  0  0  0  0  0  0
   22.3054  -20.5266  -15.2162 N   0  0  0  0  0  0  0  0  0  0  0  0
   21.6399  -18.3625  -15.3296 C   0  0  1  0  0  0  0  0  0  0  0  0
   20.2225  -18.7684  -15.3774 C   0  0  0  0  0  0  0  0  0  0  0  0
   19.9290  -19.2160  -13.9648 C   0  0  0  0  0  0  0  0  0  0  0  0
   19.7104  -20.6511  -13.7978 C   0  0  0  0  0  0  0  0  0  0  0  0
   19.8397  -21.6348  -14.7896 N   0  0  0  0  0  0  0  0  0  0  0  0
   19.5569  -22.8459  -14.2893 C   0  0  0  0  0  0  0  0  0  0  0  0
   19.2490  -22.6488  -12.9929 N   0  0  0  0  0  0  0  0  0  0  0  0
   19.3428  -21.3425  -12.7098 C   0  0  0  0  0  0  0  0  0  0  0  0
   19.3897  -17.6438  -15.8151 O   0  0  0  0  0  0  0  0  0  0  0  0
   18.4088  -17.8683  -16.5687 O   0  0  0  0  0  0  0  0  0  0  0  0
  2  1  1  0
  3  2  2  0
  4  2  1  0
  5  4  1  0
  6  5  1  0
  7  6  1  0
  8  7  1  0
  8  9  1  6
 10 11  2  0
 10  8  1  0
 13 12  1  0
 13 15  1  0
 14 13  2  0
 16 15  1  1
 16 18  1  0
 16 17  1  0
 17 10  1  0
 18 20  1  0
 19 18  2  0
 20 21  1  0
 21 28  1  0
 22 23  1  0
 21 22  1  6
 23 27  1  0
 24 23  2  0
 24 25  1  0
 25 26  1  0
 27 26  2  0
 28 29  2  0
 28 30  1  0
M  END
$$$$
