RNH.pdb
     RDKit          3D

 30 30  0  0  1  0  0  0  0  0999 V2000
    9.6621   -9.0203   -8.2384 N   0  0  0  0  0  0  0  0  0  0  0  0
    9.5865   -8.2721   -7.0403 C   0  0  0  0  0  0  0  0  0  0  0  0
    8.7965   -8.6440   -6.0896 N   0  0  0  0  0  0  0  0  0  0  0  0
   10.4014   -7.1128   -6.9217 N   0  0  0  0  0  0  0  0  0  0  0  0
   11.2774   -6.7458   -8.0011 C   0  0  0  0  0  0  0  0  0  0  0  0
   12.6335   -7.4224   -7.9181 C   0  0  0  0  0  0  0  0  0  0  0  0
   13.4868   -6.8799   -9.0320 C   0  0  0  0  0  0  0  0  0  0  0  0
   14.8244   -7.5829   -9.1201 C   0  0  2  0  0  0  0  0  0  0  0  0
   15.3121   -7.9702   -7.8153 N   0  0  0  0  0  0  0  0  0  0  0  0
   15.8198   -6.8515   -9.9300 C   0  0  0  0  0  0  0  0  0  0  0  0
   15.5124   -6.5292  -11.1004 O   0  0  0  0  0  0  0  0  0  0  0  0
    8.7047   -8.0514   -5.2466 N   0  0  0  0  0  0  0  0  0  0  0  0
   17.5465   -2.9220   -7.7756 C   0  0  0  0  0  0  0  0  0  0  0  0
   17.7270   -3.4720   -9.0484 O   0  0  0  0  0  0  0  0  0  0  0  0
   17.0213   -2.9769   -9.9929 C   0  0  0  0  0  0  0  0  0  0  0  0
   18.6340   -4.5542   -9.4328 C   0  0  2  0  0  0  0  0  0  0  0  0
   18.0162   -5.6504  -10.2363 N   0  0  0  0  0  0  0  0  0  0  0  0
   17.1094   -6.4839   -9.4791 C   0  0  0  0  0  0  0  0  0  0  0  0
   19.0642   -6.4250  -10.9219 O   0  0  0  0  0  0  0  0  0  0  0  0
   19.6588   -7.4109  -10.4145 N   0  0  0  0  0  0  0  0  0  0  0  0
   19.4625   -6.0771  -12.2370 C   0  0  1  0  0  0  0  0  0  0  0  0
   20.2101   -7.0362  -13.0720 C   0  0  0  0  0  0  0  0  0  0  0  0
   19.3551   -8.2812  -13.0426 C   0  0  0  0  0  0  0  0  0  0  0  0
   19.8357   -9.3877  -13.8670 C   0  0  0  0  0  0  0  0  0  0  0  0
   21.0316   -9.4231  -14.5994 N   0  0  0  0  0  0  0  0  0  0  0  0
   21.1512  -10.5908  -15.2469 C   0  0  0  0  0  0  0  0  0  0  0  0
   20.0489  -11.3006  -14.9380 N   0  0  0  0  0  0  0  0  0  0  0  0
   19.2733  -10.5784  -14.1181 C   0  0  0  0  0  0  0  0  0  0  0  0
   20.3979   -6.4924  -14.4207 O   0  0  0  0  0  0  0  0  0  0  0  0
   19.6352   -5.5766  -14.8208 O   0  0  0  0  0  0  0  0  0  0  0  0
  2  1  1  0
  3  2  2  0
  4  2  1  0
  5  4  1  0
  6  5  1  0
  7  6  1  0
  8  7  1  0
  8  9  1  1
 10 11  2  0
 10  8  1  0
 13 12  1  0
 13 15  1  0
 14 13  2  0
 16 15  1  6
 16 18  1  0
 16 17  1  0
 17 10  1  0
 18 20  1  0
 19 18  2  0
 20 21  1  0
 21 28  1  0
 22 23  1  0
 21 22  1  6
 23 27  1  0
 24 23  2  0
 24 25  1  0
 25 26  1  0
 27 26  2  0
 28 29  2  0
 28 30  1  0
M  END
$$$$
