RNH.pdb
     RDKit          3D

 30 30  0  0  1  0  0  0  0  0999 V2000
   13.3648  -13.0594   -9.8078 N   0  0  0  0  0  0  0  0  0  0  0  0
   12.3313  -12.0985   -9.7098 C   0  0  0  0  0  0  0  0  0  0  0  0
   11.4893  -12.1459   -8.7327 N   0  0  0  0  0  0  0  0  0  0  0  0
   12.2553  -11.0917  -10.7113 N   0  0  0  0  0  0  0  0  0  0  0  0
   13.4248  -10.3206  -11.0347 C   0  0  0  0  0  0  0  0  0  0  0  0
   13.3714   -8.9067  -10.4854 C   0  0  0  0  0  0  0  0  0  0  0  0
   14.6059   -8.1851  -10.9528 C   0  0  0  0  0  0  0  0  0  0  0  0
   15.7983   -8.4584  -10.0614 C   0  0  2  0  0  0  0  0  0  0  0  0
   15.5090   -8.1643   -8.6757 N   0  0  0  0  0  0  0  0  0  0  0  0
   17.0489   -7.8412  -10.5480 C   0  0  0  0  0  0  0  0  0  0  0  0
   17.4923   -6.8395   -9.9412 O   0  0  0  0  0  0  0  0  0  0  0  0
   10.7167  -11.4588   -8.6964 N   0  0  0  0  0  0  0  0  0  0  0  0
   22.0590   -8.2968  -14.1231 C   0  0  0  0  0  0  0  0  0  0  0  0
   21.3059   -7.9278  -13.0044 O   0  0  0  0  0  0  0  0  0  0  0  0
   21.7206   -6.9158  -12.3416 C   0  0  0  0  0  0  0  0  0  0  0  0
   20.0901   -8.5650  -12.4969 C   0  0  2  0  0  0  0  0  0  0  0  0
   18.9703   -7.6339  -12.1683 N   0  0  0  0  0  0  0  0  0  0  0  0
   17.7920   -8.3005  -11.6608 C   0  0  0  0  0  0  0  0  0  0  0  0
   18.6813   -6.7661  -13.3224 O   0  0  0  0  0  0  0  0  0  0  0  0
   17.9973   -7.1198  -14.3173 N   0  0  0  0  0  0  0  0  0  0  0  0
   19.1827   -5.4408  -13.3609 C   0  0  1  0  0  0  0  0  0  0  0  0
   19.0548   -4.6264  -14.5841 C   0  0  0  0  0  0  0  0  0  0  0  0
   18.8181   -3.2288  -14.0623 C   0  0  0  0  0  0  0  0  0  0  0  0
   18.6575   -2.1992  -15.0866 C   0  0  0  0  0  0  0  0  0  0  0  0
   18.7034   -2.3911  -16.4755 N   0  0  0  0  0  0  0  0  0  0  0  0
   18.5242   -1.2274  -17.1164 C   0  0  0  0  0  0  0  0  0  0  0  0
   18.3647   -0.2962  -16.1564 N   0  0  0  0  0  0  0  0  0  0  0  0
   18.4454   -0.8822  -14.9541 C   0  0  0  0  0  0  0  0  0  0  0  0
   20.2684   -4.7444  -15.3985 O   0  0  0  0  0  0  0  0  0  0  0  0
   21.3891   -4.5986  -14.8478 O   0  0  0  0  0  0  0  0  0  0  0  0
  2  1  1  0
  3  2  2  0
  4  2  1  0
  5  4  1  0
  6  5  1  0
  7  6  1  0
  8  7  1  0
  8  9  1  1
 10 11  2  0
 10  8  1  0
 13 12  1  0
 13 15  1  0
 14 13  2  0
 16 15  1  1
 16 18  1  0
 16 17  1  0
 17 10  1  0
 18 20  1  0
 19 18  2  0
 20 21  1  0
 21 28  1  0
 22 23  1  0
 21 22  1  6
 23 27  1  0
 24 23  2  0
 24 25  1  0
 25 26  1  0
 27 26  2  0
 28 29  2  0
 28 30  1  0
M  END
$$$$
