RNH.pdb
     RDKit          3D

 30 30  0  0  1  0  0  0  0  0999 V2000
   25.4523  -22.0693  -15.1551 N   0  0  0  0  0  0  0  0  0  0  0  0
   26.7990  -22.4141  -15.4173 C   0  0  0  0  0  0  0  0  0  0  0  0
   27.0772  -23.3953  -16.2084 N   0  0  0  0  0  0  0  0  0  0  0  0
   27.8207  -21.6510  -14.7881 N   0  0  0  0  0  0  0  0  0  0  0  0
   27.5114  -20.3530  -14.2527 C   0  0  0  0  0  0  0  0  0  0  0  0
   27.4499  -19.2734  -15.3178 C   0  0  0  0  0  0  0  0  0  0  0  0
   27.1386  -17.9701  -14.6338 C   0  0  0  0  0  0  0  0  0  0  0  0
   25.6808  -17.5872  -14.7724 C   0  0  2  0  0  0  0  0  0  0  0  0
   24.8617  -18.7219  -15.1354 N   0  0  0  0  0  0  0  0  0  0  0  0
   25.4636  -16.4034  -15.6287 C   0  0  0  0  0  0  0  0  0  0  0  0
   26.0589  -15.3412  -15.3362 O   0  0  0  0  0  0  0  0  0  0  0  0
   28.0555  -23.7235  -16.2833 N   0  0  0  0  0  0  0  0  0  0  0  0
   26.9338  -16.6266  -19.7581 C   0  0  0  0  0  0  0  0  0  0  0  0
   26.3088  -15.5505  -19.1210 O   0  0  0  0  0  0  0  0  0  0  0  0
   27.0743  -14.6643  -18.6071 C   0  0  0  0  0  0  0  0  0  0  0  0
   24.8724  -15.3139  -18.9706 C   0  0  2  0  0  0  0  0  0  0  0  0
   24.3885  -15.1944  -17.5634 N   0  0  0  0  0  0  0  0  0  0  0  0
   24.6237  -16.3779  -16.7670 C   0  0  0  0  0  0  0  0  0  0  0  0
   22.9788  -14.7692  -17.5495 O   0  0  0  0  0  0  0  0  0  0  0  0
   22.0692  -15.3197  -18.2222 N   0  0  0  0  0  0  0  0  0  0  0  0
   22.5717  -13.6766  -16.7435 C   0  0  1  0  0  0  0  0  0  0  0  0
   21.1721  -13.2112  -16.7632 C   0  0  0  0  0  0  0  0  0  0  0  0
   20.7614  -13.2455  -15.3099 C   0  0  0  0  0  0  0  0  0  0  0  0
   20.3037  -14.5444  -14.8214 C   0  0  0  0  0  0  0  0  0  0  0  0
   20.2649  -15.7424  -15.5502 N   0  0  0  0  0  0  0  0  0  0  0  0
   19.7818  -16.7373  -14.7928 C   0  0  0  0  0  0  0  0  0  0  0  0
   19.5120  -16.1912  -13.5914 N   0  0  0  0  0  0  0  0  0  0  0  0
   19.8249  -14.8886  -13.6175 C   0  0  0  0  0  0  0  0  0  0  0  0
   21.0930  -11.8732  -17.3575 O   0  0  0  0  0  0  0  0  0  0  0  0
   22.1576  -11.2523  -17.6060 O   0  0  0  0  0  0  0  0  0  0  0  0
  2  1  1  0
  3  2  2  0
  4  2  1  0
  5  4  1  0
  6  5  1  0
  7  6  1  0
  8  7  1  0
  8  9  1  6
 10 11  2  0
 10  8  1  0
 13 12  1  0
 13 15  1  0
 14 13  2  0
 16 15  1  1
 16 18  1  0
 16 17  1  0
 17 10  1  0
 18 20  1  0
 19 18  2  0
 20 21  1  0
 21 28  1  0
 22 23  1  0
 21 22  1  6
 23 27  1  0
 24 23  2  0
 24 25  1  0
 25 26  1  0
 27 26  2  0
 28 29  2  0
 28 30  1  0
M  END
$$$$
