RNH.pdb
     RDKit          3D

 30 30  0  0  1  0  0  0  0  0999 V2000
   23.2826  -12.3995   12.2422 N   0  0  0  0  0  0  0  0  0  0  0  0
   23.9856  -13.0129   11.1789 C   0  0  0  0  0  0  0  0  0  0  0  0
   25.2702  -13.1288   11.2295 N   0  0  0  0  0  0  0  0  0  0  0  0
   23.2370  -13.4918   10.0688 N   0  0  0  0  0  0  0  0  0  0  0  0
   21.8091  -13.3251   10.0487 C   0  0  0  0  0  0  0  0  0  0  0  0
   21.2884  -12.8475    8.7054 C   0  0  0  0  0  0  0  0  0  0  0  0
   19.7902  -12.7509    8.8012 C   0  0  0  0  0  0  0  0  0  0  0  0
   19.1599  -12.3409    7.4875 C   0  0  2  0  0  0  0  0  0  0  0  0
   18.6421  -10.9920    7.5405 N   0  0  0  0  0  0  0  0  0  0  0  0
   18.1897  -13.3265    6.9689 C   0  0  0  0  0  0  0  0  0  0  0  0
   17.0134  -13.2841    7.3966 O   0  0  0  0  0  0  0  0  0  0  0  0
   25.7805  -13.4737   10.3983 N   0  0  0  0  0  0  0  0  0  0  0  0
   17.0748  -12.7807    3.2635 C   0  0  0  0  0  0  0  0  0  0  0  0
   16.4759  -13.8946    3.8596 O   0  0  0  0  0  0  0  0  0  0  0  0
   15.2392  -13.7860    4.1665 C   0  0  0  0  0  0  0  0  0  0  0  0
   17.0987  -15.1804    4.1765 C   0  0  2  0  0  0  0  0  0  0  0  0
   17.5517  -15.3396    5.5902 N   0  0  0  0  0  0  0  0  0  0  0  0
   18.4919  -14.3268    6.0152 C   0  0  0  0  0  0  0  0  0  0  0  0
   18.0505  -16.7077    5.8086 O   0  0  0  0  0  0  0  0  0  0  0  0
   19.1327  -17.1471    5.3411 N   0  0  0  0  0  0  0  0  0  0  0  0
   17.3003  -17.6240    6.5876 C   0  0  1  0  0  0  0  0  0  0  0  0
   17.8050  -18.9884    6.8324 C   0  0  0  0  0  0  0  0  0  0  0  0
   18.1607  -18.9819    8.3005 C   0  0  0  0  0  0  0  0  0  0  0  0
   19.5042  -18.5011    8.6148 C   0  0  0  0  0  0  0  0  0  0  0  0
   20.6683  -18.7323    7.8669 N   0  0  0  0  0  0  0  0  0  0  0  0
   21.7250  -18.1493    8.4506 C   0  0  0  0  0  0  0  0  0  0  0  0
   21.2516  -17.5498    9.5600 N   0  0  0  0  0  0  0  0  0  0  0  0
   19.9319  -17.7639    9.6496 C   0  0  0  0  0  0  0  0  0  0  0  0
   16.7776  -19.9762    6.4882 O   0  0  0  0  0  0  0  0  0  0  0  0
   15.6402  -19.5750    6.1332 O   0  0  0  0  0  0  0  0  0  0  0  0
  2  1  1  0
  3  2  2  0
  4  2  1  0
  5  4  1  0
  6  5  1  0
  7  6  1  0
  8  7  1  0
  8  9  1  1
 10 11  2  0
 10  8  1  0
 13 12  1  0
 13 15  1  0
 14 13  2  0
 16 15  1  1
 16 18  1  0
 16 17  1  0
 17 10  1  0
 18 20  1  0
 19 18  2  0
 20 21  1  0
 21 28  1  0
 22 23  1  0
 21 22  1  6
 23 27  1  0
 24 23  2  0
 24 25  1  0
 25 26  1  0
 27 26  2  0
 28 29  2  0
 28 30  1  0
M  END
$$$$
