RNH.pdb
     RDKit          3D

 30 30  0  0  1  0  0  0  0  0999 V2000
   32.5744  -25.4116  -14.7973 N   0  0  0  0  0  0  0  0  0  0  0  0
   33.0870  -25.3512  -16.1143 C   0  0  0  0  0  0  0  0  0  0  0  0
   34.2770  -25.7809  -16.3697 N   0  0  0  0  0  0  0  0  0  0  0  0
   32.2556  -24.8090  -17.1327 N   0  0  0  0  0  0  0  0  0  0  0  0
   30.8505  -24.6325  -16.8848 C   0  0  0  0  0  0  0  0  0  0  0  0
   30.5178  -23.2655  -16.3152 C   0  0  0  0  0  0  0  0  0  0  0  0
   29.2562  -22.7855  -16.9794 C   0  0  0  0  0  0  0  0  0  0  0  0
   28.0174  -23.1851  -16.2071 C   0  0  2  0  0  0  0  0  0  0  0  0
   27.4741  -24.4391  -16.6789 N   0  0  0  0  0  0  0  0  0  0  0  0
   27.0136  -22.1060  -16.1081 C   0  0  0  0  0  0  0  0  0  0  0  0
   27.3887  -20.9806  -15.7068 O   0  0  0  0  0  0  0  0  0  0  0  0
   34.5931  -25.8419  -17.3529 N   0  0  0  0  0  0  0  0  0  0  0  0
   22.7895  -18.8974  -16.5248 C   0  0  0  0  0  0  0  0  0  0  0  0
   23.1936  -19.6371  -17.6403 O   0  0  0  0  0  0  0  0  0  0  0  0
   22.7212  -19.2737  -18.7718 C   0  0  0  0  0  0  0  0  0  0  0  0
   24.0998  -20.7859  -17.6693 C   0  0  2  0  0  0  0  0  0  0  0  0
   24.6833  -21.1725  -16.3506 N   0  0  0  0  0  0  0  0  0  0  0  0
   25.6446  -22.2491  -16.4354 C   0  0  0  0  0  0  0  0  0  0  0  0
   23.6068  -21.4448  -15.3835 O   0  0  0  0  0  0  0  0  0  0  0  0
   22.8738  -22.4669  -15.4129 N   0  0  0  0  0  0  0  0  0  0  0  0
   23.3415  -20.5279  -14.3355 C   0  0  1  0  0  0  0  0  0  0  0  0
   22.3821  -20.8675  -13.2677 C   0  0  0  0  0  0  0  0  0  0  0  0
   22.8498  -20.0458  -12.0896 C   0  0  0  0  0  0  0  0  0  0  0  0
   24.0714  -20.5205  -11.4435 C   0  0  0  0  0  0  0  0  0  0  0  0
   24.7945  -21.6760  -11.7750 N   0  0  0  0  0  0  0  0  0  0  0  0
   25.8594  -21.8099  -10.9718 C   0  0  0  0  0  0  0  0  0  0  0  0
   25.8259  -20.7566  -10.1330 N   0  0  0  0  0  0  0  0  0  0  0  0
   24.7607  -19.9962  -10.4203 C   0  0  0  0  0  0  0  0  0  0  0  0
   21.0167  -20.5458  -13.6945 O   0  0  0  0  0  0  0  0  0  0  0  0
   20.8010  -19.4521  -14.2757 O   0  0  0  0  0  0  0  0  0  0  0  0
  2  1  1  0
  3  2  2  0
  4  2  1  0
  5  4  1  0
  6  5  1  0
  7  6  1  0
  8  7  1  0
  8  9  1  6
 10 11  2  0
 10  8  1  0
 13 12  1  0
 13 15  1  0
 14 13  2  0
 16 15  1  6
 16 18  1  0
 16 17  1  0
 17 10  1  0
 18 20  1  0
 19 18  2  0
 20 21  1  0
 21 28  1  0
 22 23  1  0
 21 22  1  1
 23 27  1  0
 24 23  2  0
 24 25  1  0
 25 26  1  0
 27 26  2  0
 28 29  2  0
 28 30  1  0
M  END
$$$$
