PLT.pdb
     RDKit          3D

 23 23  0  0  1  0  0  0  0  0999 V2000
   31.1429  -20.9183   -9.5691 N   0  0  0  0  0  0  0  0  0  0  0  0
   32.4676  -21.1497   -9.0333 C   0  0  0  0  0  0  0  0  0  0  0  0
   32.6803  -22.6490   -9.1368 C   0  0  0  0  0  0  0  0  0  0  0  0
   31.2834  -23.1610   -8.7932 C   0  0  0  0  0  0  0  0  0  0  0  0
   30.4083  -22.1412   -9.4686 C   0  0  1  0  0  0  0  0  0  0  0  0
   29.1526  -21.9008   -8.7310 C   0  0  0  0  0  0  0  0  0  0  0  0
   28.3051  -22.8202   -8.6038 O   0  0  0  0  0  0  0  0  0  0  0  0
   29.1109  -18.5833   -4.4841 C   0  0  0  0  0  0  0  0  0  0  0  0
   28.7880  -19.6783   -5.4647 C   0  0  1  0  0  0  0  0  0  0  0  0
   28.3754  -20.8867   -4.6087 C   0  0  0  0  0  0  0  0  0  0  0  0
   27.6921  -19.3880   -6.4207 C   0  0  0  0  0  0  0  0  0  0  0  0
   27.5286  -20.3271   -7.5684 C   0  0  2  0  0  0  0  0  0  0  0  0
   28.8287  -20.6590   -8.1367 N   0  0  0  0  0  0  0  0  0  0  0  0
   26.5540  -19.9643   -8.5899 C   0  0  0  0  0  0  0  0  0  0  0  0
   26.3998  -18.7343   -8.9237 O   0  0  0  0  0  0  0  0  0  0  0  0
   25.7975  -22.4766  -11.6299 C   0  0  0  0  0  0  0  0  0  0  0  0
   25.5955  -21.0029  -11.7053 C   0  0  1  0  0  0  0  0  0  0  0  0
   24.8830  -20.5859  -12.8220 O   0  0  0  0  0  0  0  0  0  0  0  0
   24.9332  -20.4304  -10.4549 C   0  0  2  0  0  0  0  0  0  0  0  0
   25.7140  -20.8686   -9.2978 N   0  0  0  0  0  0  0  0  0  0  0  0
   23.5539  -20.9426  -10.4622 C   0  0  0  0  0  0  0  0  0  0  0  0
   22.6709  -20.5559  -11.4547 O   0  0  0  0  0  0  0  0  0  0  0  0
   23.1486  -21.7294   -9.5850 O   0  0  0  0  0  0  0  0  0  0  0  0
  2  3  1  0
  2  1  1  0
  3  4  1  0
  4  5  1  0
  5  1  1  0
  5  6  1  1
  6 13  1  0
  6  7  2  0
  9  8  1  1
  9 10  1  0
 12 11  1  1
 11  9  1  0
 12 14  1  0
 13 12  1  0
 14 15  2  0
 17 16  1  1
 17 18  1  0
 17 19  1  0
 19 20  1  1
 20 14  1  0
 21 19  1  0
 21 22  1  0
 23 21  2  0
M  END
$$$$
