PLT.pdb
     RDKit          3D

 23 23  0  0  1  0  0  0  0  0999 V2000
   20.0590  -10.3886  -18.2302 N   0  0  0  0  0  0  0  0  0  0  0  0
   19.5899  -11.7564  -18.2996 C   0  0  0  0  0  0  0  0  0  0  0  0
   18.0768  -11.6534  -18.3632 C   0  0  0  0  0  0  0  0  0  0  0  0
   17.8290  -10.4849  -17.4120 C   0  0  0  0  0  0  0  0  0  0  0  0
   18.9909   -9.5827  -17.7251 C   0  0  1  0  0  0  0  0  0  0  0  0
   19.4573   -8.8349  -16.5412 C   0  0  0  0  0  0  0  0  0  0  0  0
   18.6508   -8.1449  -15.8679 O   0  0  0  0  0  0  0  0  0  0  0  0
   22.9819  -10.9585  -12.8794 C   0  0  0  0  0  0  0  0  0  0  0  0
   21.9033  -10.1697  -13.5716 C   0  0  1  0  0  0  0  0  0  0  0  0
   20.8928   -9.8046  -12.4723 C   0  0  0  0  0  0  0  0  0  0  0  0
   22.3421   -8.9186  -14.2359 C   0  0  0  0  0  0  0  0  0  0  0  0
   21.2936   -8.1195  -14.9344 C   0  0  2  0  0  0  0  0  0  0  0  0
   20.8006   -8.8438  -16.0987 N   0  0  0  0  0  0  0  0  0  0  0  0
   21.6111   -6.7300  -15.2403 C   0  0  0  0  0  0  0  0  0  0  0  0
   22.4763   -6.4526  -16.1473 O   0  0  0  0  0  0  0  0  0  0  0  0
   19.4550   -3.8866  -16.5583 C   0  0  0  0  0  0  0  0  0  0  0  0
   20.1272   -3.4584  -15.3000 C   0  0  1  0  0  0  0  0  0  0  0  0
   19.3140   -3.5175  -14.1758 O   0  0  0  0  0  0  0  0  0  0  0  0
   21.4125   -4.2330  -15.0211 C   0  0  2  0  0  0  0  0  0  0  0  0
   21.0364   -5.5877  -14.6163 N   0  0  0  0  0  0  0  0  0  0  0  0
   22.1146   -3.4787  -13.9710 C   0  0  0  0  0  0  0  0  0  0  0  0
   22.6318   -2.2239  -14.2400 O   0  0  0  0  0  0  0  0  0  0  0  0
   22.2608   -3.9441  -12.8243 O   0  0  0  0  0  0  0  0  0  0  0  0
  2  3  1  0
  2  1  1  0
  3  4  1  0
  4  5  1  0
  5  1  1  0
  5  6  1  1
  6 13  1  0
  6  7  2  0
  9  8  1  1
  9 10  1  0
 12 11  1  6
 11  9  1  0
 12 14  1  0
 13 12  1  0
 14 15  2  0
 17 16  1  6
 17 18  1  0
 17 19  1  0
 19 20  1  1
 20 14  1  0
 21 19  1  0
 21 22  1  0
 23 21  2  0
M  END
$$$$
