PLT.pdb
     RDKit          3D

 23 23  0  0  1  0  0  0  0  0999 V2000
   27.9433  -21.0520  -15.4187 N   0  0  0  0  0  0  0  0  0  0  0  0
   27.8912  -20.2832  -16.6441 C   0  0  0  0  0  0  0  0  0  0  0  0
   28.0413  -18.8363  -16.2105 C   0  0  0  0  0  0  0  0  0  0  0  0
   27.2326  -18.8400  -14.9152 C   0  0  0  0  0  0  0  0  0  0  0  0
   27.5806  -20.1855  -14.3403 C   0  0  1  0  0  0  0  0  0  0  0  0
   26.4604  -20.7817  -13.5864 C   0  0  0  0  0  0  0  0  0  0  0  0
   25.9762  -21.8872  -13.9374 O   0  0  0  0  0  0  0  0  0  0  0  0
   26.3263  -19.7220   -8.2494 C   0  0  0  0  0  0  0  0  0  0  0  0
   26.2375  -20.2909   -9.6399 C   0  0  1  0  0  0  0  0  0  0  0  0
   26.7221  -21.7448   -9.5198 C   0  0  0  0  0  0  0  0  0  0  0  0
   24.8860  -20.2987  -10.2504 C   0  0  0  0  0  0  0  0  0  0  0  0
   24.7880  -20.7421  -11.6715 C   0  0  2  0  0  0  0  0  0  0  0  0
   25.8750  -20.1687  -12.4542 N   0  0  0  0  0  0  0  0  0  0  0  0
   23.4944  -20.5914  -12.3267 C   0  0  0  0  0  0  0  0  0  0  0  0
   22.4115  -20.7682  -11.6602 O   0  0  0  0  0  0  0  0  0  0  0  0
   22.3035  -17.7791  -15.1208 C   0  0  0  0  0  0  0  0  0  0  0  0
   22.0320  -19.2017  -15.4687 C   0  0  1  0  0  0  0  0  0  0  0  0
   22.9434  -19.7496  -16.3618 O   0  0  0  0  0  0  0  0  0  0  0  0
   21.9392  -20.1048  -14.2416 C   0  0  2  0  0  0  0  0  0  0  0  0
   23.2875  -20.2483  -13.6920 N   0  0  0  0  0  0  0  0  0  0  0  0
   21.3606  -21.3706  -14.7190 C   0  0  0  0  0  0  0  0  0  0  0  0
   20.0546  -21.4136  -15.1737 O   0  0  0  0  0  0  0  0  0  0  0  0
   22.0235  -22.4257  -14.7267 O   0  0  0  0  0  0  0  0  0  0  0  0
  2  3  1  0
  2  1  1  0
  3  4  1  0
  4  5  1  0
  5  1  1  0
  5  6  1  6
  6 13  1  0
  6  7  2  0
  9  8  1  1
  9 10  1  0
 12 11  1  1
 11  9  1  0
 12 14  1  0
 13 12  1  0
 14 15  2  0
 17 16  1  1
 17 18  1  0
 17 19  1  0
 19 20  1  6
 20 14  1  0
 21 19  1  0
 21 22  1  0
 23 21  2  0
M  END
$$$$
