PLT.pdb
     RDKit          3D

 23 23  0  0  1  0  0  0  0  0999 V2000
   28.5626  -21.6117  -16.0628 N   0  0  0  0  0  0  0  0  0  0  0  0
   28.3976  -21.2352  -17.4508 C   0  0  0  0  0  0  0  0  0  0  0  0
   28.4020  -19.7173  -17.4526 C   0  0  0  0  0  0  0  0  0  0  0  0
   27.6311  -19.4269  -16.1669 C   0  0  0  0  0  0  0  0  0  0  0  0
   28.1359  -20.5112  -15.2551 C   0  0  1  0  0  0  0  0  0  0  0  0
   27.1055  -20.9708  -14.3035 C   0  0  0  0  0  0  0  0  0  0  0  0
   26.4281  -22.0005  -14.5496 O   0  0  0  0  0  0  0  0  0  0  0  0
   26.0780  -20.5501   -8.3112 C   0  0  0  0  0  0  0  0  0  0  0  0
   25.7301  -21.0677   -9.6809 C   0  0  1  0  0  0  0  0  0  0  0  0
   24.2157  -21.3300   -9.6476 C   0  0  0  0  0  0  0  0  0  0  0  0
   26.0201  -20.1524  -10.8111 C   0  0  0  0  0  0  0  0  0  0  0  0
   25.7349  -20.6611  -12.1843 C   0  0  2  0  0  0  0  0  0  0  0  0
   26.8201  -20.3047  -13.0889 N   0  0  0  0  0  0  0  0  0  0  0  0
   24.4239  -20.3587  -12.7457 C   0  0  0  0  0  0  0  0  0  0  0  0
   24.1592  -19.1722  -13.1583 O   0  0  0  0  0  0  0  0  0  0  0  0
   21.8169  -23.2179  -14.3970 C   0  0  0  0  0  0  0  0  0  0  0  0
   21.8680  -21.7694  -14.7403 C   0  0  1  0  0  0  0  0  0  0  0  0
   20.7553  -21.3128  -15.4344 O   0  0  0  0  0  0  0  0  0  0  0  0
   22.0891  -20.8785  -13.5207 C   0  0  2  0  0  0  0  0  0  0  0  0
   23.3510  -21.2805  -12.8991 N   0  0  0  0  0  0  0  0  0  0  0  0
   20.9159  -21.0839  -12.6570 C   0  0  0  0  0  0  0  0  0  0  0  0
   19.6570  -20.7041  -13.0873 O   0  0  0  0  0  0  0  0  0  0  0  0
   21.0232  -21.5995  -11.5276 O   0  0  0  0  0  0  0  0  0  0  0  0
  2  3  1  0
  2  1  1  0
  3  4  1  0
  4  5  1  0
  5  1  1  0
  5  6  1  1
  6 13  1  0
  6  7  2  0
  9  8  1  1
  9 10  1  0
 12 11  1  1
 11  9  1  0
 12 14  1  0
 13 12  1  0
 14 15  2  0
 17 16  1  1
 17 18  1  0
 17 19  1  0
 19 20  1  1
 20 14  1  0
 21 19  1  0
 21 22  1  0
 23 21  2  0
M  END
$$$$
