PLT.pdb
     RDKit          3D

 23 23  0  0  1  0  0  0  0  0999 V2000
   18.3310  -10.4279  -20.0278 N   0  0  0  0  0  0  0  0  0  0  0  0
   17.5614   -9.6395  -20.9667 C   0  0  0  0  0  0  0  0  0  0  0  0
   18.5915   -8.8935  -21.7953 C   0  0  0  0  0  0  0  0  0  0  0  0
   19.6356   -8.5685  -20.7295 C   0  0  0  0  0  0  0  0  0  0  0  0
   19.6169   -9.8169  -19.8910 C   0  0  1  0  0  0  0  0  0  0  0  0
   19.8804   -9.5409  -18.4653 C   0  0  0  0  0  0  0  0  0  0  0  0
   18.9279   -9.4421  -17.6511 O   0  0  0  0  0  0  0  0  0  0  0  0
   21.8495   -9.8860  -13.4925 C   0  0  0  0  0  0  0  0  0  0  0  0
   22.8826   -9.8384  -14.5858 C   0  0  1  0  0  0  0  0  0  0  0  0
   23.8994  -10.9374  -14.2372 C   0  0  0  0  0  0  0  0  0  0  0  0
   22.3821  -10.0851  -15.9598 C   0  0  0  0  0  0  0  0  0  0  0  0
   21.4743   -9.0555  -16.5444 C   0  0  2  0  0  0  0  0  0  0  0  0
   21.1812   -9.3742  -17.9358 N   0  0  0  0  0  0  0  0  0  0  0  0
   21.8503   -7.6587  -16.3636 C   0  0  0  0  0  0  0  0  0  0  0  0
   22.8763   -7.1849  -16.9725 O   0  0  0  0  0  0  0  0  0  0  0  0
   20.2291   -4.3254  -17.1900 C   0  0  0  0  0  0  0  0  0  0  0  0
   20.5191   -4.3941  -15.7306 C   0  0  1  0  0  0  0  0  0  0  0  0
   19.4196   -4.7272  -14.9503 O   0  0  0  0  0  0  0  0  0  0  0  0
   21.6666   -5.3443  -15.3983 C   0  0  2  0  0  0  0  0  0  0  0  0
   21.1692   -6.7120  -15.5485 N   0  0  0  0  0  0  0  0  0  0  0  0
   22.0743   -5.0141  -14.0237 C   0  0  0  0  0  0  0  0  0  0  0  0
   22.7679   -3.8457  -13.7628 O   0  0  0  0  0  0  0  0  0  0  0  0
   21.8090   -5.7691  -13.0684 O   0  0  0  0  0  0  0  0  0  0  0  0
  2  3  1  0
  2  1  1  0
  3  4  1  0
  4  5  1  0
  5  1  1  0
  5  6  1  1
  6 13  1  0
  6  7  2  0
  9  8  1  1
  9 10  1  0
 12 11  1  6
 11  9  1  0
 12 14  1  0
 13 12  1  0
 14 15  2  0
 17 16  1  6
 17 18  1  0
 17 19  1  0
 19 20  1  1
 20 14  1  0
 21 19  1  0
 21 22  1  0
 23 21  2  0
M  END
$$$$
