PLT.pdb
     RDKit          3D

 23 23  0  0  1  0  0  0  0  0999 V2000
   27.0541  -18.7718  -15.3744 N   0  0  0  0  0  0  0  0  0  0  0  0
   28.4415  -18.5446  -15.0293 C   0  0  0  0  0  0  0  0  0  0  0  0
   29.2073  -19.6649  -15.7094 C   0  0  0  0  0  0  0  0  0  0  0  0
   28.2362  -20.8289  -15.5251 C   0  0  0  0  0  0  0  0  0  0  0  0
   26.9068  -20.1525  -15.7171 C   0  0  1  0  0  0  0  0  0  0  0  0
   25.8446  -20.7539  -14.8873 C   0  0  0  0  0  0  0  0  0  0  0  0
   25.4322  -21.9165  -15.1287 O   0  0  0  0  0  0  0  0  0  0  0  0
   26.0116  -20.2652   -9.5766 C   0  0  0  0  0  0  0  0  0  0  0  0
   25.7523  -20.6779  -11.0004 C   0  0  1  0  0  0  0  0  0  0  0  0
   25.9048  -22.2075  -11.0182 C   0  0  0  0  0  0  0  0  0  0  0  0
   24.4135  -20.3365  -11.5392 C   0  0  0  0  0  0  0  0  0  0  0  0
   24.1673  -20.6358  -12.9799 C   0  0  2  0  0  0  0  0  0  0  0  0
   25.2385  -20.0840  -13.7991 N   0  0  0  0  0  0  0  0  0  0  0  0
   22.8463  -20.3178  -13.5081 C   0  0  0  0  0  0  0  0  0  0  0  0
   22.4033  -19.1143  -13.4505 O   0  0  0  0  0  0  0  0  0  0  0  0
   21.3168  -20.5256  -16.9972 C   0  0  0  0  0  0  0  0  0  0  0  0
   20.4852  -21.3005  -16.0347 C   0  0  1  0  0  0  0  0  0  0  0  0
   20.7078  -22.6708  -16.0699 O   0  0  0  0  0  0  0  0  0  0  0  0
   20.6341  -20.8128  -14.5959 C   0  0  2  0  0  0  0  0  0  0  0  0
   21.9485  -21.2395  -14.1155 N   0  0  0  0  0  0  0  0  0  0  0  0
   19.5135  -21.4102  -13.8528 C   0  0  0  0  0  0  0  0  0  0  0  0
   18.2177  -20.9820  -14.0804 O   0  0  0  0  0  0  0  0  0  0  0  0
   19.6992  -22.3074  -13.0082 O   0  0  0  0  0  0  0  0  0  0  0  0
  2  3  1  0
  2  1  1  0
  3  4  1  0
  4  5  1  0
  5  1  1  0
  5  6  1  1
  6 13  1  0
  6  7  2  0
  9  8  1  1
  9 10  1  0
 12 11  1  1
 11  9  1  0
 12 14  1  0
 13 12  1  0
 14 15  2  0
 17 16  1  6
 17 18  1  0
 17 19  1  0
 19 20  1  1
 20 14  1  0
 21 19  1  0
 21 22  1  0
 23 21  2  0
M  END
$$$$
