PLT.pdb
     RDKit          3D

 23 23  0  0  1  0  0  0  0  0999 V2000
   22.5037  -13.4483  -18.9779 N   0  0  0  0  0  0  0  0  0  0  0  0
   22.9181  -14.8353  -18.9880 C   0  0  0  0  0  0  0  0  0  0  0  0
   21.8356  -15.5777  -18.2257 C   0  0  0  0  0  0  0  0  0  0  0  0
   21.5127  -14.5660  -17.1284 C   0  0  0  0  0  0  0  0  0  0  0  0
   21.6149  -13.2632  -17.8727 C   0  0  1  0  0  0  0  0  0  0  0  0
   22.1130  -12.1660  -17.0204 C   0  0  0  0  0  0  0  0  0  0  0  0
   21.5759  -11.9321  -15.9083 O   0  0  0  0  0  0  0  0  0  0  0  0
   27.4883  -10.9579  -16.3881 C   0  0  0  0  0  0  0  0  0  0  0  0
   26.0087  -11.1043  -16.1552 C   0  0  1  0  0  0  0  0  0  0  0  0
   25.8272  -11.0572  -14.6294 C   0  0  0  0  0  0  0  0  0  0  0  0
   25.1520  -10.0554  -16.7594 C   0  0  0  0  0  0  0  0  0  0  0  0
   23.6772  -10.2073  -16.5930 C   0  0  2  0  0  0  0  0  0  0  0  0
   23.1939  -11.3303  -17.3858 N   0  0  0  0  0  0  0  0  0  0  0  0
   22.8619   -9.0120  -16.7713 C   0  0  0  0  0  0  0  0  0  0  0  0
   23.0540   -8.2479  -17.7848 O   0  0  0  0  0  0  0  0  0  0  0  0
   19.3108   -8.6124  -17.6626 C   0  0  0  0  0  0  0  0  0  0  0  0
   19.5543   -7.8948  -16.3802 C   0  0  1  0  0  0  0  0  0  0  0  0
   19.2061   -8.6225  -15.2498 O   0  0  0  0  0  0  0  0  0  0  0  0
   20.9959   -7.4148  -16.2338 C   0  0  2  0  0  0  0  0  0  0  0  0
   21.8206   -8.5775  -15.9045 N   0  0  0  0  0  0  0  0  0  0  0  0
   20.9717   -6.3920  -15.1764 C   0  0  0  0  0  0  0  0  0  0  0  0
   20.3922   -5.1579  -15.4119 O   0  0  0  0  0  0  0  0  0  0  0  0
   21.4669   -6.6071  -14.0533 O   0  0  0  0  0  0  0  0  0  0  0  0
  2  3  1  0
  2  1  1  0
  3  4  1  0
  4  5  1  0
  5  1  1  0
  5  6  1  1
  6 13  1  0
  6  7  2  0
  9  8  1  1
  9 10  1  0
 12 11  1  6
 11  9  1  0
 12 14  1  0
 13 12  1  0
 14 15  2  0
 17 16  1  6
 17 18  1  0
 17 19  1  0
 19 20  1  1
 20 14  1  0
 21 19  1  0
 21 22  1  0
 23 21  2  0
M  END
$$$$
