PLT.pdb
     RDKit          3D

 23 23  0  0  1  0  0  0  0  0999 V2000
   28.8378  -20.0430  -16.5981 N   0  0  0  0  0  0  0  0  0  0  0  0
   28.6599  -19.4786  -17.9192 C   0  0  0  0  0  0  0  0  0  0  0  0
   28.3626  -18.0085  -17.6851 C   0  0  0  0  0  0  0  0  0  0  0  0
   27.4958  -18.0878  -16.4304 C   0  0  0  0  0  0  0  0  0  0  0  0
   28.1672  -19.1935  -15.6632 C   0  0  1  0  0  0  0  0  0  0  0  0
   27.2096  -19.9918  -14.8732 C   0  0  0  0  0  0  0  0  0  0  0  0
   26.8533  -21.1301  -15.2695 O   0  0  0  0  0  0  0  0  0  0  0  0
   25.8092  -20.7906   -8.9408 C   0  0  0  0  0  0  0  0  0  0  0  0
   25.3693  -20.9370  -10.3726 C   0  0  1  0  0  0  0  0  0  0  0  0
   23.9223  -20.4194  -10.4119 C   0  0  0  0  0  0  0  0  0  0  0  0
   26.1619  -20.1822  -11.3732 C   0  0  0  0  0  0  0  0  0  0  0  0
   25.7729  -20.3415  -12.8046 C   0  0  2  0  0  0  0  0  0  0  0  0
   26.6463  -19.5440  -13.6557 N   0  0  0  0  0  0  0  0  0  0  0  0
   24.3642  -20.1621  -13.1341 C   0  0  0  0  0  0  0  0  0  0  0  0
   23.8473  -18.9870  -13.1296 O   0  0  0  0  0  0  0  0  0  0  0  0
   20.2342  -21.7632  -15.3457 C   0  0  0  0  0  0  0  0  0  0  0  0
   21.6514  -21.9239  -14.9165 C   0  0  1  0  0  0  0  0  0  0  0  0
   22.5650  -21.9046  -15.9622 O   0  0  0  0  0  0  0  0  0  0  0  0
   22.0748  -20.8947  -13.8718 C   0  0  2  0  0  0  0  0  0  0  0  0
   23.4521  -21.1973  -13.4820 N   0  0  0  0  0  0  0  0  0  0  0  0
   21.1094  -21.0233  -12.7689 C   0  0  0  0  0  0  0  0  0  0  0  0
   20.1296  -20.0642  -12.5833 O   0  0  0  0  0  0  0  0  0  0  0  0
   21.1477  -21.9883  -11.9814 O   0  0  0  0  0  0  0  0  0  0  0  0
  2  3  1  0
  2  1  1  0
  3  4  1  0
  4  5  1  0
  5  1  1  0
  5  6  1  6
  6 13  1  0
  6  7  2  0
  9  8  1  1
  9 10  1  0
 12 11  1  1
 11  9  1  0
 12 14  1  0
 13 12  1  0
 14 15  2  0
 17 16  1  6
 17 18  1  0
 17 19  1  0
 19 20  1  1
 20 14  1  0
 21 19  1  0
 21 22  1  0
 23 21  2  0
M  END
$$$$
