PLT.pdb
     RDKit          3D

 23 23  0  0  1  0  0  0  0  0999 V2000
   20.0570  -11.1506  -17.5011 N   0  0  0  0  0  0  0  0  0  0  0  0
   19.3407  -12.3527  -17.8719 C   0  0  0  0  0  0  0  0  0  0  0  0
   18.4860  -11.9534  -19.0610 C   0  0  0  0  0  0  0  0  0  0  0  0
   18.0682  -10.5426  -18.6527 C   0  0  0  0  0  0  0  0  0  0  0  0
   19.3207  -10.0294  -17.9972 C   0  0  1  0  0  0  0  0  0  0  0  0
   19.0342   -9.0998  -16.8872 C   0  0  0  0  0  0  0  0  0  0  0  0
   18.4105   -8.0295  -17.1003 O   0  0  0  0  0  0  0  0  0  0  0  0
   16.9476   -7.5688  -12.2623 C   0  0  0  0  0  0  0  0  0  0  0  0
   18.1930   -8.3976  -12.0992 C   0  0  1  0  0  0  0  0  0  0  0  0
   17.8909   -9.3693  -10.9469 C   0  0  0  0  0  0  0  0  0  0  0  0
   18.6015   -9.1913  -13.2834 C   0  0  0  0  0  0  0  0  0  0  0  0
   19.1781   -8.4395  -14.4359 C   0  0  2  0  0  0  0  0  0  0  0  0
   19.4297   -9.3428  -15.5512 N   0  0  0  0  0  0  0  0  0  0  0  0
   20.3154   -7.5703  -14.1598 C   0  0  0  0  0  0  0  0  0  0  0  0
   21.3943   -8.0602  -13.6657 O   0  0  0  0  0  0  0  0  0  0  0  0
   22.6950   -5.9830  -16.2905 C   0  0  0  0  0  0  0  0  0  0  0  0
   22.1244   -4.8937  -15.4500 C   0  0  1  0  0  0  0  0  0  0  0  0
   21.1400   -4.1467  -16.0837 O   0  0  0  0  0  0  0  0  0  0  0  0
   21.5800   -5.3975  -14.1159 C   0  0  2  0  0  0  0  0  0  0  0  0
   20.3672   -6.1676  -14.3928 N   0  0  0  0  0  0  0  0  0  0  0  0
   21.3407   -4.1956  -13.3017 C   0  0  0  0  0  0  0  0  0  0  0  0
   20.0490   -3.7680  -13.0508 O   0  0  0  0  0  0  0  0  0  0  0  0
   22.2841   -3.5378  -12.8218 O   0  0  0  0  0  0  0  0  0  0  0  0
  2  3  1  0
  2  1  1  0
  3  4  1  0
  4  5  1  0
  5  1  1  0
  5  6  1  1
  6 13  1  0
  6  7  2  0
  9  8  1  6
  9 10  1  0
 12 11  1  1
 11  9  1  0
 12 14  1  0
 13 12  1  0
 14 15  2  0
 17 16  1  6
 17 18  1  0
 17 19  1  0
 19 20  1  6
 20 14  1  0
 21 19  1  0
 21 22  1  0
 23 21  2  0
M  END
$$$$
