PLT.pdb
     RDKit          3D

 23 23  0  0  1  0  0  0  0  0999 V2000
   26.7445  -19.2865  -14.7272 N   0  0  0  0  0  0  0  0  0  0  0  0
   28.0899  -18.7559  -14.6659 C   0  0  0  0  0  0  0  0  0  0  0  0
   28.9617  -19.8100  -15.3239 C   0  0  0  0  0  0  0  0  0  0  0  0
   28.2925  -21.0882  -14.8239 C   0  0  0  0  0  0  0  0  0  0  0  0
   26.8380  -20.7074  -14.8606 C   0  0  1  0  0  0  0  0  0  0  0  0
   26.0600  -21.3539  -13.7858 C   0  0  0  0  0  0  0  0  0  0  0  0
   25.9667  -22.6063  -13.7350 O   0  0  0  0  0  0  0  0  0  0  0  0
   26.2751  -19.5426   -8.9183 C   0  0  0  0  0  0  0  0  0  0  0  0
   26.0910  -20.3761  -10.1578 C   0  0  1  0  0  0  0  0  0  0  0  0
   26.9308  -21.6431   -9.9283 C   0  0  0  0  0  0  0  0  0  0  0  0
   24.6986  -20.7878  -10.4595 C   0  0  0  0  0  0  0  0  0  0  0  0
   24.4039  -21.2010  -11.8624 C   0  0  2  0  0  0  0  0  0  0  0  0
   25.3885  -20.6308  -12.7727 N   0  0  0  0  0  0  0  0  0  0  0  0
   23.0380  -21.0149  -12.3367 C   0  0  0  0  0  0  0  0  0  0  0  0
   22.0494  -21.2011  -11.5392 O   0  0  0  0  0  0  0  0  0  0  0  0
   21.3193  -18.0121  -14.4458 C   0  0  0  0  0  0  0  0  0  0  0  0
   21.1510  -19.3626  -15.0512 C   0  0  1  0  0  0  0  0  0  0  0  0
   22.0265  -19.6274  -16.0961 O   0  0  0  0  0  0  0  0  0  0  0  0
   21.2511  -20.4886  -14.0256 C   0  0  2  0  0  0  0  0  0  0  0  0
   22.6589  -20.6259  -13.6518 N   0  0  0  0  0  0  0  0  0  0  0  0
   20.6986  -21.6817  -14.6859 C   0  0  0  0  0  0  0  0  0  0  0  0
   19.3451  -21.7637  -14.9608 O   0  0  0  0  0  0  0  0  0  0  0  0
   21.4263  -22.6394  -15.0116 O   0  0  0  0  0  0  0  0  0  0  0  0
  2  3  1  0
  2  1  1  0
  3  4  1  0
  4  5  1  0
  5  1  1  0
  5  6  1  1
  6 13  1  0
  6  7  2  0
  9  8  1  1
  9 10  1  0
 12 11  1  1
 11  9  1  0
 12 14  1  0
 13 12  1  0
 14 15  2  0
 17 16  1  1
 17 18  1  0
 17 19  1  0
 19 20  1  6
 20 14  1  0
 21 19  1  0
 21 22  1  0
 23 21  2  0
M  END
$$$$
