PLT.pdb
     RDKit          3D

 23 23  0  0  1  0  0  0  0  0999 V2000
   29.8420  -20.6302  -11.4790 N   0  0  0  0  0  0  0  0  0  0  0  0
   31.0457  -20.7678  -10.6869 C   0  0  0  0  0  0  0  0  0  0  0  0
   31.4423  -22.2270  -10.8193 C   0  0  0  0  0  0  0  0  0  0  0  0
   30.0711  -22.8988  -10.8065 C   0  0  0  0  0  0  0  0  0  0  0  0
   29.2445  -21.9240  -11.5993 C   0  0  1  0  0  0  0  0  0  0  0  0
   27.8452  -21.8641  -11.1337 C   0  0  0  0  0  0  0  0  0  0  0  0
   27.1117  -22.8829  -11.1946 O   0  0  0  0  0  0  0  0  0  0  0  0
   26.7623  -19.0706   -6.7152 C   0  0  0  0  0  0  0  0  0  0  0  0
   26.6808  -20.0851   -7.8238 C   0  0  1  0  0  0  0  0  0  0  0  0
   26.1730  -21.3761   -7.1616 C   0  0  0  0  0  0  0  0  0  0  0  0
   25.7706  -19.7467   -8.9446 C   0  0  0  0  0  0  0  0  0  0  0  0
   25.8665  -20.5890  -10.1722 C   0  0  2  0  0  0  0  0  0  0  0  0
   27.2541  -20.6933  -10.6044 N   0  0  0  0  0  0  0  0  0  0  0  0
   24.9667  -20.2646  -11.2724 C   0  0  0  0  0  0  0  0  0  0  0  0
   25.1489  -19.1947  -11.9580 O   0  0  0  0  0  0  0  0  0  0  0  0
   24.5683  -21.4716  -14.5468 C   0  0  0  0  0  0  0  0  0  0  0  0
   23.2017  -21.5620  -13.9613 C   0  0  1  0  0  0  0  0  0  0  0  0
   22.8409  -22.8422  -13.5617 O   0  0  0  0  0  0  0  0  0  0  0  0
   22.9927  -20.6026  -12.7927 C   0  0  2  0  0  0  0  0  0  0  0  0
   23.8539  -21.0439  -11.6954 N   0  0  0  0  0  0  0  0  0  0  0  0
   21.5573  -20.6647  -12.4756 C   0  0  0  0  0  0  0  0  0  0  0  0
   20.6217  -20.1929  -13.3791 O   0  0  0  0  0  0  0  0  0  0  0  0
   21.1502  -21.1384  -11.3972 O   0  0  0  0  0  0  0  0  0  0  0  0
  2  3  1  0
  2  1  1  0
  3  4  1  0
  4  5  1  0
  5  1  1  0
  5  6  1  1
  6 13  1  0
  6  7  2  0
  9  8  1  1
  9 10  1  0
 12 11  1  1
 11  9  1  0
 12 14  1  0
 13 12  1  0
 14 15  2  0
 17 16  1  1
 17 18  1  0
 17 19  1  0
 19 20  1  1
 20 14  1  0
 21 19  1  0
 21 22  1  0
 23 21  2  0
M  END
$$$$
