PLT.pdb
     RDKit          3D

 23 23  0  0  1  0  0  0  0  0999 V2000
   19.4051  -12.3386  -17.3816 N   0  0  0  0  0  0  0  0  0  0  0  0
   20.6535  -12.8270  -17.9279 C   0  0  0  0  0  0  0  0  0  0  0  0
   21.6132  -12.8623  -16.7524 C   0  0  0  0  0  0  0  0  0  0  0  0
   21.1952  -11.5992  -16.0031 C   0  0  0  0  0  0  0  0  0  0  0  0
   19.7023  -11.6149  -16.1844 C   0  0  1  0  0  0  0  0  0  0  0  0
   19.1326  -10.2565  -16.2773 C   0  0  0  0  0  0  0  0  0  0  0  0
   19.0366   -9.6832  -17.3917 O   0  0  0  0  0  0  0  0  0  0  0  0
   14.2255   -7.5827  -15.0689 C   0  0  0  0  0  0  0  0  0  0  0  0
   15.6571   -7.4616  -15.5170 C   0  0  1  0  0  0  0  0  0  0  0  0
   16.0177   -5.9777  -15.3408 C   0  0  0  0  0  0  0  0  0  0  0  0
   16.6420   -8.2737  -14.7622 C   0  0  0  0  0  0  0  0  0  0  0  0
   18.0618   -8.2091  -15.2157 C   0  0  2  0  0  0  0  0  0  0  0  0
   18.6708   -9.5314  -15.1543 N   0  0  0  0  0  0  0  0  0  0  0  0
   18.9049   -7.1826  -14.6151 C   0  0  0  0  0  0  0  0  0  0  0  0
   19.0727   -7.1516  -13.3428 O   0  0  0  0  0  0  0  0  0  0  0  0
   22.5888   -6.6198  -15.0790 C   0  0  0  0  0  0  0  0  0  0  0  0
   21.8723   -5.3404  -15.3406 C   0  0  1  0  0  0  0  0  0  0  0  0
   21.6858   -5.0616  -16.6882 O   0  0  0  0  0  0  0  0  0  0  0  0
   20.5246   -5.2594  -14.6284 C   0  0  2  0  0  0  0  0  0  0  0  0
   19.6019   -6.1609  -15.3186 N   0  0  0  0  0  0  0  0  0  0  0  0
   20.1230   -3.8453  -14.6913 C   0  0  0  0  0  0  0  0  0  0  0  0
   20.7072   -2.9156  -13.8495 O   0  0  0  0  0  0  0  0  0  0  0  0
   19.2560   -3.4515  -15.4951 O   0  0  0  0  0  0  0  0  0  0  0  0
  2  3  1  0
  2  1  1  0
  3  4  1  0
  4  5  1  0
  5  1  1  0
  5  6  1  6
  6 13  1  0
  6  7  2  0
  9  8  1  1
  9 10  1  0
 12 11  1  1
 11  9  1  0
 12 14  1  0
 13 12  1  0
 14 15  2  0
 17 16  1  6
 17 18  1  0
 17 19  1  0
 19 20  1  6
 20 14  1  0
 21 19  1  0
 21 22  1  0
 23 21  2  0
M  END
$$$$
