PLT.pdb
     RDKit          3D

 23 23  0  0  1  0  0  0  0  0999 V2000
   22.9068  -11.4762  -19.7273 N   0  0  0  0  0  0  0  0  0  0  0  0
   22.9620  -12.8870  -20.0471 C   0  0  0  0  0  0  0  0  0  0  0  0
   21.5998  -13.4341  -19.6610 C   0  0  0  0  0  0  0  0  0  0  0  0
   21.3203  -12.6360  -18.3896 C   0  0  0  0  0  0  0  0  0  0  0  0
   21.8866  -11.2882  -18.7428 C   0  0  1  0  0  0  0  0  0  0  0  0
   22.4559  -10.5930  -17.5720 C   0  0  0  0  0  0  0  0  0  0  0  0
   21.8254  -10.5590  -16.4852 O   0  0  0  0  0  0  0  0  0  0  0  0
   27.6278  -11.1370  -16.1476 C   0  0  0  0  0  0  0  0  0  0  0  0
   26.1456  -10.8760  -16.1493 C   0  0  1  0  0  0  0  0  0  0  0  0
   25.6497  -11.3195  -14.7634 C   0  0  0  0  0  0  0  0  0  0  0  0
   25.7373   -9.4662  -16.3616 C   0  0  0  0  0  0  0  0  0  0  0  0
   24.2747   -9.1950  -16.4749 C   0  0  2  0  0  0  0  0  0  0  0  0
   23.7097   -9.9388  -17.5933 N   0  0  0  0  0  0  0  0  0  0  0  0
   23.8557   -7.7987  -16.4703 C   0  0  0  0  0  0  0  0  0  0  0  0
   24.4194   -6.9555  -17.2573 O   0  0  0  0  0  0  0  0  0  0  0  0
   20.8845   -6.1126  -17.6757 C   0  0  0  0  0  0  0  0  0  0  0  0
   21.0307   -5.7469  -16.2392 C   0  0  1  0  0  0  0  0  0  0  0  0
   20.2274   -6.4876  -15.3822 O   0  0  0  0  0  0  0  0  0  0  0  0
   22.4752   -5.8238  -15.7519 C   0  0  2  0  0  0  0  0  0  0  0  0
   22.8360   -7.2381  -15.6515 N   0  0  0  0  0  0  0  0  0  0  0  0
   22.5005   -5.1170  -14.4617 C   0  0  0  0  0  0  0  0  0  0  0  0
   22.3223   -3.7458  -14.4132 O   0  0  0  0  0  0  0  0  0  0  0  0
   22.6812   -5.7272  -13.3903 O   0  0  0  0  0  0  0  0  0  0  0  0
  2  3  1  0
  2  1  1  0
  3  4  1  0
  4  5  1  0
  5  1  1  0
  5  6  1  1
  6 13  1  0
  6  7  2  0
  9  8  1  1
  9 10  1  0
 12 11  1  6
 11  9  1  0
 12 14  1  0
 13 12  1  0
 14 15  2  0
 17 16  1  6
 17 18  1  0
 17 19  1  0
 19 20  1  1
 20 14  1  0
 21 19  1  0
 21 22  1  0
 23 21  2  0
M  END
$$$$
