PLT.pdb
     RDKit          3D

 23 23  0  0  1  0  0  0  0  0999 V2000
   43.8767  -11.0526   -6.3808 N   0  0  0  0  0  0  0  0  0  0  0  0
   44.3869  -12.3695   -6.0630 C   0  0  0  0  0  0  0  0  0  0  0  0
   45.3132  -12.7233   -7.2123 C   0  0  0  0  0  0  0  0  0  0  0  0
   44.5462  -12.1295   -8.3917 C   0  0  0  0  0  0  0  0  0  0  0  0
   43.9954  -10.8644   -7.7936 C   0  0  1  0  0  0  0  0  0  0  0  0
   42.6780  -10.5046   -8.3536 C   0  0  0  0  0  0  0  0  0  0  0  0
   42.5610  -10.2288   -9.5743 O   0  0  0  0  0  0  0  0  0  0  0  0
   37.7338  -11.8678   -9.1074 C   0  0  0  0  0  0  0  0  0  0  0  0
   37.7889  -10.9024   -7.9543 C   0  0  1  0  0  0  0  0  0  0  0  0
   36.7979  -11.4493   -6.9140 C   0  0  0  0  0  0  0  0  0  0  0  0
   39.1118  -10.7485   -7.3022 C   0  0  0  0  0  0  0  0  0  0  0  0
   40.1841  -10.0808   -8.0960 C   0  0  2  0  0  0  0  0  0  0  0  0
   41.4961  -10.4476   -7.5790 N   0  0  0  0  0  0  0  0  0  0  0  0
   40.0552   -8.6447   -8.3107 C   0  0  0  0  0  0  0  0  0  0  0  0
   40.2433   -7.8294   -7.3370 O   0  0  0  0  0  0  0  0  0  0  0  0
   40.3924   -4.6564  -11.1080 C   0  0  0  0  0  0  0  0  0  0  0  0
   40.4603   -6.1231  -10.8574 C   0  0  1  0  0  0  0  0  0  0  0  0
   41.7519   -6.6146  -10.7211 O   0  0  0  0  0  0  0  0  0  0  0  0
   39.6368   -6.5566   -9.6475 C   0  0  2  0  0  0  0  0  0  0  0  0
   39.7313   -8.0129   -9.5438 N   0  0  0  0  0  0  0  0  0  0  0  0
   38.2705   -6.0720   -9.8989 C   0  0  0  0  0  0  0  0  0  0  0  0
   37.8538   -4.8585   -9.3812 O   0  0  0  0  0  0  0  0  0  0  0  0
   37.4611   -6.7339  -10.5769 O   0  0  0  0  0  0  0  0  0  0  0  0
  2  3  1  0
  2  1  1  0
  3  4  1  0
  4  5  1  0
  5  1  1  0
  5  6  1  6
  6 13  1  0
  6  7  2  0
  9  8  1  6
  9 10  1  0
 12 11  1  1
 11  9  1  0
 12 14  1  0
 13 12  1  0
 14 15  2  0
 17 16  1  1
 17 18  1  0
 17 19  1  0
 19 20  1  6
 20 14  1  0
 21 19  1  0
 21 22  1  0
 23 21  2  0
M  END
$$$$
