EWR.pdb
     RDKit          3D

 35 36  0  0  1  0  0  0  0  0999 V2000
   27.0908  -21.6234  -14.1177 N   0  0  0  0  0  0  0  0  0  0  0  0
   26.3274  -20.4756  -13.5903 C   0  0  1  0  0  0  0  0  0  0  0  0
   25.2397  -20.1232  -14.5431 C   0  0  0  0  0  0  0  0  0  0  0  0
   25.4644  -20.6373  -15.9372 C   0  0  0  0  0  0  0  0  0  0  0  0
   24.4839  -21.7381  -16.2295 C   0  0  0  0  0  0  0  0  0  0  0  0
   23.7489  -22.1259  -15.3096 O   0  0  0  0  0  0  0  0  0  0  0  0
   25.8839  -20.8677  -12.2485 C   0  0  0  0  0  0  0  0  0  0  0  0
   25.4555  -22.0554  -12.0168 O   0  0  0  0  0  0  0  0  0  0  0  0
   24.4097  -22.2953  -17.4855 O   0  0  0  0  0  0  0  0  0  0  0  0
   25.9248  -19.9409  -11.1744 N   0  0  0  0  0  0  0  0  0  0  0  0
   25.5842  -20.4250   -9.8557 C   0  0  1  0  0  0  0  0  0  0  0  0
   26.1490  -19.4324   -8.8478 C   0  0  0  0  0  0  0  0  0  0  0  0
   26.2128  -20.0505   -7.5064 C   0  0  0  0  0  0  0  0  0  0  0  0
   25.3913  -21.0350   -7.0071 C   0  0  0  0  0  0  0  0  0  0  0  0
   25.7644  -21.3402   -5.7456 N   0  0  0  0  0  0  0  0  0  0  0  0
   26.8179  -20.5683   -5.4145 C   0  0  0  0  0  0  0  0  0  0  0  0
   27.5537  -20.4908   -4.2691 C   0  0  0  0  0  0  0  0  0  0  0  0
   28.6000  -19.5938   -4.1965 C   0  0  0  0  0  0  0  0  0  0  0  0
   28.9052  -18.7822   -5.2636 C   0  0  0  0  0  0  0  0  0  0  0  0
   28.1526  -18.8736   -6.4119 C   0  0  0  0  0  0  0  0  0  0  0  0
   27.1139  -19.7510   -6.5100 C   0  0  0  0  0  0  0  0  0  0  0  0
   24.1297  -20.5729   -9.7129 C   0  0  0  0  0  0  0  0  0  0  0  0
   23.3797  -19.7389  -10.3134 O   0  0  0  0  0  0  0  0  0  0  0  0
   17.4487  -23.2616   -6.2958 N   0  0  0  0  0  0  0  0  0  0  0  0
   17.3416  -24.1029   -7.4376 C   0  0  0  0  0  0  0  0  0  0  0  0
   16.1935  -24.2549   -8.0436 N   0  0  0  0  0  0  0  0  0  0  0  0
   18.4507  -24.8063   -7.9672 N   0  0  0  0  0  0  0  0  0  0  0  0
   19.8066  -24.5153   -7.5904 C   0  0  0  0  0  0  0  0  0  0  0  0
   20.2066  -23.2355   -8.3319 C   0  0  0  0  0  0  0  0  0  0  0  0
   21.6487  -22.9368   -8.1769 C   0  0  0  0  0  0  0  0  0  0  0  0
   22.0628  -21.7840   -9.0512 C   0  0  2  0  0  0  0  0  0  0  0  0
   23.5151  -21.5856   -8.9484 N   0  0  0  0  0  0  0  0  0  0  0  0
   21.3973  -20.5475   -8.5629 C   0  0  0  0  0  0  0  0  0  0  0  0
   20.3861  -19.9358   -9.2363 O   0  0  0  0  0  0  0  0  0  0  0  0
   21.7731  -20.0145   -7.4710 O   0  0  0  0  0  0  0  0  0  0  0  0
  2  1  1  6
  3  4  1  0
  3  2  1  0
  4  5  1  0
  5  9  1  0
  5  6  2  0
  7  8  2  0
  7  2  1  0
 10  7  1  0
 11 10  1  0
 11 12  1  1
 13 21  1  0
 13 12  1  0
 14 13  2  0
 15 14  1  0
 15 16  1  0
 16 17  1  0
 16 21  2  0
 17 18  2  0
 18 19  1  0
 20 19  2  0
 21 20  1  0
 22 11  1  0
 23 22  2  0
 24 25  1  0
 25 27  1  0
 26 25  2  0
 27 28  1  0
 29 28  1  0
 29 30  1  0
 31 30  1  1
 31 32  1  0
 31 33  1  0
 32 22  1  0
 33 34  1  0
 35 33  2  0
M  END
$$$$
