EWR.pdb
     RDKit          3D

 35 36  0  0  1  0  0  0  0  0999 V2000
   26.7165  -22.7284  -14.7388 N   0  0  0  0  0  0  0  0  0  0  0  0
   27.4758  -21.7389  -13.9496 C   0  0  1  0  0  0  0  0  0  0  0  0
   27.5936  -20.4726  -14.7229 C   0  0  0  0  0  0  0  0  0  0  0  0
   26.2910  -19.9872  -15.2939 C   0  0  0  0  0  0  0  0  0  0  0  0
   26.5331  -18.7518  -16.1146 C   0  0  0  0  0  0  0  0  0  0  0  0
   25.5583  -18.0437  -16.4067 O   0  0  0  0  0  0  0  0  0  0  0  0
   26.7790  -21.6269  -12.6641 C   0  0  0  0  0  0  0  0  0  0  0  0
   25.5332  -21.9189  -12.5620 O   0  0  0  0  0  0  0  0  0  0  0  0
   27.8039  -18.4222  -16.5270 O   0  0  0  0  0  0  0  0  0  0  0  0
   27.4713  -21.1976  -11.5019 N   0  0  0  0  0  0  0  0  0  0  0  0
   26.7200  -21.0952  -10.2714 C   0  0  1  0  0  0  0  0  0  0  0  0
   27.6602  -20.5380   -9.2104 C   0  0  0  0  0  0  0  0  0  0  0  0
   26.9733  -20.4793   -7.9026 C   0  0  0  0  0  0  0  0  0  0  0  0
   25.6800  -20.8602   -7.6274 C   0  0  0  0  0  0  0  0  0  0  0  0
   25.4169  -20.6586   -6.3182 N   0  0  0  0  0  0  0  0  0  0  0  0
   26.5204  -20.1512   -5.7352 C   0  0  0  0  0  0  0  0  0  0  0  0
   26.7690  -19.7787   -4.4472 C   0  0  0  0  0  0  0  0  0  0  0  0
   28.0118  -19.2790   -4.1154 C   0  0  0  0  0  0  0  0  0  0  0  0
   28.9962  -19.1543   -5.0671 C   0  0  0  0  0  0  0  0  0  0  0  0
   28.7286  -19.5350   -6.3620 C   0  0  0  0  0  0  0  0  0  0  0  0
   27.5095  -20.0317   -6.7166 C   0  0  0  0  0  0  0  0  0  0  0  0
   25.5386  -20.2407  -10.4501 C   0  0  0  0  0  0  0  0  0  0  0  0
   25.6923  -19.1164  -11.0254 O   0  0  0  0  0  0  0  0  0  0  0  0
   20.3458  -18.0665  -15.1665 N   0  0  0  0  0  0  0  0  0  0  0  0
   21.6036  -18.5386  -15.6335 C   0  0  0  0  0  0  0  0  0  0  0  0
   22.2605  -17.8783  -16.5506 N   0  0  0  0  0  0  0  0  0  0  0  0
   22.1983  -19.7251  -15.1398 N   0  0  0  0  0  0  0  0  0  0  0  0
   21.5746  -20.5489  -14.1410 C   0  0  0  0  0  0  0  0  0  0  0  0
   21.8218  -19.8694  -12.7901 C   0  0  0  0  0  0  0  0  0  0  0  0
   23.0267  -20.4052  -12.1161 C   0  0  0  0  0  0  0  0  0  0  0  0
   23.0769  -19.9813  -10.6731 C   0  0  2  0  0  0  0  0  0  0  0  0
   24.2428  -20.5933  -10.0209 N   0  0  0  0  0  0  0  0  0  0  0  0
   21.8560  -20.4765   -9.9842 C   0  0  0  0  0  0  0  0  0  0  0  0
   20.6470  -19.8619  -10.0874 O   0  0  0  0  0  0  0  0  0  0  0  0
   21.9174  -21.5176   -9.2561 O   0  0  0  0  0  0  0  0  0  0  0  0
  2  1  1  6
  3  4  1  0
  3  2  1  0
  4  5  1  0
  5  9  1  0
  5  6  2  0
  7  8  2  0
  7  2  1  0
 10  7  1  0
 11 10  1  0
 11 12  1  1
 13 21  1  0
 13 12  1  0
 14 13  2  0
 15 14  1  0
 15 16  1  0
 16 17  1  0
 16 21  2  0
 17 18  2  0
 18 19  1  0
 20 19  2  0
 21 20  1  0
 22 11  1  0
 23 22  2  0
 24 25  1  0
 25 27  1  0
 26 25  2  0
 27 28  1  0
 29 28  1  0
 29 30  1  0
 31 30  1  6
 31 32  1  0
 31 33  1  0
 32 22  1  0
 33 34  1  0
 35 33  2  0
M  END
$$$$
