EWR.pdb
     RDKit          3D

 35 36  0  0  1  0  0  0  0  0999 V2000
   32.2072  -26.1362  -20.0138 N   0  0  0  0  0  0  0  0  0  0  0  0
   31.1743  -25.2411  -19.4568 C   0  0  1  0  0  0  0  0  0  0  0  0
   30.9502  -24.1020  -20.3882 C   0  0  0  0  0  0  0  0  0  0  0  0
   32.0674  -23.0970  -20.3972 C   0  0  0  0  0  0  0  0  0  0  0  0
   31.7254  -21.9759  -21.3377 C   0  0  0  0  0  0  0  0  0  0  0  0
   30.6101  -21.9864  -21.8790 O   0  0  0  0  0  0  0  0  0  0  0  0
   30.0019  -26.0851  -19.2038 C   0  0  0  0  0  0  0  0  0  0  0  0
   29.5406  -26.8626  -20.1150 O   0  0  0  0  0  0  0  0  0  0  0  0
   32.6301  -20.9692  -21.5865 O   0  0  0  0  0  0  0  0  0  0  0  0
   29.3551  -26.0636  -17.9407 N   0  0  0  0  0  0  0  0  0  0  0  0
   28.1391  -26.8314  -17.7952 C   0  0  1  0  0  0  0  0  0  0  0  0
   27.9858  -27.1630  -16.3164 C   0  0  0  0  0  0  0  0  0  0  0  0
   26.7511  -27.9456  -16.0962 C   0  0  0  0  0  0  0  0  0  0  0  0
   26.5773  -29.2953  -16.3001 C   0  0  0  0  0  0  0  0  0  0  0  0
   25.3106  -29.6419  -15.9853 N   0  0  0  0  0  0  0  0  0  0  0  0
   24.6552  -28.5372  -15.5790 C   0  0  0  0  0  0  0  0  0  0  0  0
   23.3708  -28.3546  -15.1591 C   0  0  0  0  0  0  0  0  0  0  0  0
   22.9514  -27.0915  -14.7942 C   0  0  0  0  0  0  0  0  0  0  0  0
   23.8129  -26.0215  -14.8501 C   0  0  0  0  0  0  0  0  0  0  0  0
   25.1057  -26.2234  -15.2761 C   0  0  0  0  0  0  0  0  0  0  0  0
   25.5456  -27.4607  -15.6421 C   0  0  0  0  0  0  0  0  0  0  0  0
   26.9834  -26.0811  -18.3042 C   0  0  0  0  0  0  0  0  0  0  0  0
   26.9345  -24.8294  -18.0808 O   0  0  0  0  0  0  0  0  0  0  0  0
   26.3641  -20.2919  -21.7214 N   0  0  0  0  0  0  0  0  0  0  0  0
   26.4337  -21.2867  -22.7354 C   0  0  0  0  0  0  0  0  0  0  0  0
   27.0821  -21.0563  -23.8467 N   0  0  0  0  0  0  0  0  0  0  0  0
   25.8164  -22.5538  -22.5975 N   0  0  0  0  0  0  0  0  0  0  0  0
   25.0014  -22.9014  -21.4661 C   0  0  0  0  0  0  0  0  0  0  0  0
   25.7156  -24.0476  -20.7422 C   0  0  0  0  0  0  0  0  0  0  0  0
   24.9148  -25.2931  -20.7581 C   0  0  0  0  0  0  0  0  0  0  0  0
   24.7502  -25.8521  -19.3706 C   0  0  2  0  0  0  0  0  0  0  0  0
   25.9236  -26.6669  -19.0262 N   0  0  0  0  0  0  0  0  0  0  0  0
   23.5565  -26.7381  -19.3482 C   0  0  0  0  0  0  0  0  0  0  0  0
   23.6396  -28.0885  -19.2076 O   0  0  0  0  0  0  0  0  0  0  0  0
   22.3934  -26.2376  -19.4675 O   0  0  0  0  0  0  0  0  0  0  0  0
  2  1  1  6
  3  4  1  0
  3  2  1  0
  4  5  1  0
  5  9  1  0
  5  6  2  0
  7  8  2  0
  7  2  1  0
 10  7  1  0
 11 10  1  0
 11 12  1  1
 13 21  1  0
 13 12  1  0
 14 13  2  0
 15 14  1  0
 15 16  1  0
 16 17  1  0
 16 21  2  0
 17 18  2  0
 18 19  1  0
 20 19  2  0
 21 20  1  0
 22 11  1  0
 23 22  2  0
 24 25  1  0
 25 27  1  0
 26 25  2  0
 27 28  1  0
 29 28  1  0
 29 30  1  0
 31 30  1  6
 31 32  1  0
 31 33  1  0
 32 22  1  0
 33 34  1  0
 35 33  2  0
M  END
$$$$
