EWR.pdb
     RDKit          3D

 35 36  0  0  1  0  0  0  0  0999 V2000
   27.4960  -22.0189  -15.2147 N   0  0  0  0  0  0  0  0  0  0  0  0
   28.0202  -20.9710  -14.3173 C   0  0  1  0  0  0  0  0  0  0  0  0
   27.8808  -19.6417  -14.9722 C   0  0  0  0  0  0  0  0  0  0  0  0
   27.0000  -19.6548  -16.1897 C   0  0  0  0  0  0  0  0  0  0  0  0
   27.8490  -19.5334  -17.4238 C   0  0  0  0  0  0  0  0  0  0  0  0
   29.0813  -19.5397  -17.2886 O   0  0  0  0  0  0  0  0  0  0  0  0
   27.2977  -21.1254  -13.0504 C   0  0  0  0  0  0  0  0  0  0  0  0
   26.0635  -21.4778  -13.0342 O   0  0  0  0  0  0  0  0  0  0  0  0
   27.2677  -19.4185  -18.6658 O   0  0  0  0  0  0  0  0  0  0  0  0
   27.9520  -20.8933  -11.8125 N   0  0  0  0  0  0  0  0  0  0  0  0
   27.1679  -21.0164  -10.6045 C   0  0  1  0  0  0  0  0  0  0  0  0
   28.0738  -20.6503   -9.4360 C   0  0  0  0  0  0  0  0  0  0  0  0
   27.2730  -20.4840   -8.2045 C   0  0  0  0  0  0  0  0  0  0  0  0
   25.9156  -20.6628   -8.0676 C   0  0  0  0  0  0  0  0  0  0  0  0
   25.5529  -20.4198   -6.7897 N   0  0  0  0  0  0  0  0  0  0  0  0
   26.6547  -20.0847   -6.0906 C   0  0  0  0  0  0  0  0  0  0  0  0
   26.8232  -19.7508   -4.7793 C   0  0  0  0  0  0  0  0  0  0  0  0
   28.0866  -19.4451   -4.3159 C   0  0  0  0  0  0  0  0  0  0  0  0
   29.1711  -19.4744   -5.1605 C   0  0  0  0  0  0  0  0  0  0  0  0
   28.9834  -19.8136   -6.4808 C   0  0  0  0  0  0  0  0  0  0  0  0
   27.7461  -20.1199   -6.9643 C   0  0  0  0  0  0  0  0  0  0  0  0
   25.9816  -20.1519  -10.6611 C   0  0  0  0  0  0  0  0  0  0  0  0
   26.1399  -18.9373  -11.0051 O   0  0  0  0  0  0  0  0  0  0  0  0
   21.1075  -21.0049  -16.9912 N   0  0  0  0  0  0  0  0  0  0  0  0
   20.3233  -21.0791  -15.8069 C   0  0  0  0  0  0  0  0  0  0  0  0
   19.1361  -21.6254  -15.8312 N   0  0  0  0  0  0  0  0  0  0  0  0
   20.7781  -20.5750  -14.5642 N   0  0  0  0  0  0  0  0  0  0  0  0
   22.0058  -19.8409  -14.4264 C   0  0  0  0  0  0  0  0  0  0  0  0
   22.1701  -19.5301  -12.9351 C   0  0  0  0  0  0  0  0  0  0  0  0
   23.3608  -20.1977  -12.3611 C   0  0  0  0  0  0  0  0  0  0  0  0
   23.5257  -19.8583  -10.9043 C   0  0  2  0  0  0  0  0  0  0  0  0
   24.6765  -20.5893  -10.3560 N   0  0  0  0  0  0  0  0  0  0  0  0
   22.3117  -20.2993  -10.1679 C   0  0  0  0  0  0  0  0  0  0  0  0
   21.1721  -19.5590  -10.1087 O   0  0  0  0  0  0  0  0  0  0  0  0
   22.3128  -21.4130   -9.5537 O   0  0  0  0  0  0  0  0  0  0  0  0
  2  1  1  6
  3  4  1  0
  3  2  1  0
  4  5  1  0
  5  9  1  0
  5  6  2  0
  7  8  2  0
  7  2  1  0
 10  7  1  0
 11 10  1  0
 11 12  1  1
 13 21  1  0
 13 12  1  0
 14 13  2  0
 15 14  1  0
 15 16  1  0
 16 17  1  0
 16 21  2  0
 17 18  2  0
 18 19  1  0
 20 19  2  0
 21 20  1  0
 22 11  1  0
 23 22  2  0
 24 25  1  0
 25 27  1  0
 26 25  2  0
 27 28  1  0
 29 28  1  0
 29 30  1  0
 31 30  1  6
 31 32  1  0
 31 33  1  0
 32 22  1  0
 33 34  1  0
 35 33  2  0
M  END
$$$$
