EWR.pdb
     RDKit          3D

 35 36  0  0  1  0  0  0  0  0999 V2000
   21.7869  -19.3526  -10.2412 N   0  0  0  0  0  0  0  0  0  0  0  0
   22.5197  -20.6172  -10.0356 C   0  0  1  0  0  0  0  0  0  0  0  0
   21.8591  -21.7046  -10.8079 C   0  0  0  0  0  0  0  0  0  0  0  0
   21.6167  -22.9545  -10.0096 C   0  0  0  0  0  0  0  0  0  0  0  0
   20.2634  -22.8798   -9.3604 C   0  0  0  0  0  0  0  0  0  0  0  0
   20.2051  -22.9281   -8.1230 O   0  0  0  0  0  0  0  0  0  0  0  0
   23.9122  -20.3418  -10.4045 C   0  0  0  0  0  0  0  0  0  0  0  0
   24.1923  -19.5717  -11.3925 O   0  0  0  0  0  0  0  0  0  0  0  0
   19.1251  -22.7614  -10.1245 O   0  0  0  0  0  0  0  0  0  0  0  0
   24.9816  -20.9184   -9.6710 N   0  0  0  0  0  0  0  0  0  0  0  0
   26.3293  -20.6044  -10.0885 C   0  0  1  0  0  0  0  0  0  0  0  0
   27.2718  -21.1319   -9.0145 C   0  0  0  0  0  0  0  0  0  0  0  0
   27.2772  -20.2206   -7.8505 C   0  0  0  0  0  0  0  0  0  0  0  0
   26.6047  -19.0262   -7.7293 C   0  0  0  0  0  0  0  0  0  0  0  0
   26.8566  -18.4850   -6.5179 N   0  0  0  0  0  0  0  0  0  0  0  0
   27.6843  -19.3094   -5.8469 C   0  0  0  0  0  0  0  0  0  0  0  0
   28.2301  -19.2198   -4.6005 C   0  0  0  0  0  0  0  0  0  0  0  0
   29.0621  -20.2253   -4.1523 C   0  0  0  0  0  0  0  0  0  0  0  0
   29.3439  -21.3110   -4.9474 C   0  0  0  0  0  0  0  0  0  0  0  0
   28.7846  -21.3858   -6.2025 C   0  0  0  0  0  0  0  0  0  0  0  0
   27.9594  -20.4063   -6.6695 C   0  0  0  0  0  0  0  0  0  0  0  0
   26.6204  -21.1948  -11.4016 C   0  0  0  0  0  0  0  0  0  0  0  0
   26.2025  -22.3735  -11.6359 O   0  0  0  0  0  0  0  0  0  0  0  0
   23.6100  -22.5470  -18.3007 N   0  0  0  0  0  0  0  0  0  0  0  0
   23.0602  -22.7828  -17.0103 C   0  0  0  0  0  0  0  0  0  0  0  0
   22.3207  -23.8373  -16.7874 N   0  0  0  0  0  0  0  0  0  0  0  0
   23.2801  -21.9050  -15.9211 N   0  0  0  0  0  0  0  0  0  0  0  0
   24.0127  -20.6754  -16.0503 C   0  0  0  0  0  0  0  0  0  0  0  0
   25.4560  -20.9747  -15.6319 C   0  0  0  0  0  0  0  0  0  0  0  0
   25.7000  -20.6330  -14.2118 C   0  0  0  0  0  0  0  0  0  0  0  0
   27.1243  -20.9205  -13.8199 C   0  0  2  0  0  0  0  0  0  0  0  0
   27.3369  -20.5318  -12.4188 N   0  0  0  0  0  0  0  0  0  0  0  0
   28.0302  -20.0982  -14.6645 C   0  0  0  0  0  0  0  0  0  0  0  0
   28.2928  -18.7880  -14.4102 O   0  0  0  0  0  0  0  0  0  0  0  0
   28.5955  -20.6170  -15.6788 O   0  0  0  0  0  0  0  0  0  0  0  0
  2  1  1  6
  3  4  1  0
  3  2  1  0
  4  5  1  0
  5  9  1  0
  5  6  2  0
  7  8  2  0
  7  2  1  0
 10  7  1  0
 11 10  1  0
 11 12  1  1
 13 21  1  0
 13 12  1  0
 14 13  2  0
 15 14  1  0
 15 16  1  0
 16 17  1  0
 16 21  2  0
 17 18  2  0
 18 19  1  0
 20 19  2  0
 21 20  1  0
 22 11  1  0
 23 22  2  0
 24 25  1  0
 25 27  1  0
 26 25  2  0
 27 28  1  0
 29 28  1  0
 29 30  1  0
 31 30  1  6
 31 32  1  0
 31 33  1  0
 32 22  1  0
 33 34  1  0
 35 33  2  0
M  END
$$$$
