EWR.pdb
     RDKit          3D

 35 36  0  0  1  0  0  0  0  0999 V2000
   32.0641   -9.8316  -22.0821 N   0  0  0  0  0  0  0  0  0  0  0  0
   31.4256   -8.6574  -21.4562 C   0  0  1  0  0  0  0  0  0  0  0  0
   31.0095   -7.6963  -22.5138 C   0  0  0  0  0  0  0  0  0  0  0  0
   31.2551   -8.1893  -23.9120 C   0  0  0  0  0  0  0  0  0  0  0  0
   32.2453   -7.2880  -24.5945 C   0  0  0  0  0  0  0  0  0  0  0  0
   32.6072   -7.5807  -25.7435 O   0  0  0  0  0  0  0  0  0  0  0  0
   30.3391   -9.1840  -20.6238 C   0  0  0  0  0  0  0  0  0  0  0  0
   29.6450  -10.1934  -21.0073 O   0  0  0  0  0  0  0  0  0  0  0  0
   32.7325   -6.1708  -23.9556 O   0  0  0  0  0  0  0  0  0  0  0  0
   30.0357   -8.5901  -19.3710 N   0  0  0  0  0  0  0  0  0  0  0  0
   29.0709   -9.2577  -18.5268 C   0  0  1  0  0  0  0  0  0  0  0  0
   29.7404   -9.5069  -17.1815 C   0  0  0  0  0  0  0  0  0  0  0  0
   30.3818  -10.8389  -17.1718 C   0  0  0  0  0  0  0  0  0  0  0  0
   31.7136  -11.1194  -17.3738 C   0  0  0  0  0  0  0  0  0  0  0  0
   31.9146  -12.4520  -17.2866 N   0  0  0  0  0  0  0  0  0  0  0  0
   30.7323  -13.0451  -17.0307 C   0  0  0  0  0  0  0  0  0  0  0  0
   30.4011  -14.3562  -16.8551 C   0  0  0  0  0  0  0  0  0  0  0  0
   29.0875  -14.6939  -16.6006 C   0  0  0  0  0  0  0  0  0  0  0  0
   28.1151  -13.7249  -16.5230 C   0  0  0  0  0  0  0  0  0  0  0  0
   28.4667  -12.4067  -16.7025 C   0  0  0  0  0  0  0  0  0  0  0  0
   29.7568  -12.0460  -16.9550 C   0  0  0  0  0  0  0  0  0  0  0  0
   27.8533   -8.4485  -18.3837 C   0  0  0  0  0  0  0  0  0  0  0  0
   27.9808   -7.2231  -18.0658 O   0  0  0  0  0  0  0  0  0  0  0  0
   20.6367  -11.1897  -19.9678 N   0  0  0  0  0  0  0  0  0  0  0  0
   20.8763  -10.7737  -18.6290 C   0  0  0  0  0  0  0  0  0  0  0  0
   20.6360  -11.5823  -17.6306 N   0  0  0  0  0  0  0  0  0  0  0  0
   21.3775   -9.4874  -18.3134 N   0  0  0  0  0  0  0  0  0  0  0  0
   21.7006   -8.5119  -19.3181 C   0  0  0  0  0  0  0  0  0  0  0  0
   22.9884   -7.8180  -18.8626 C   0  0  0  0  0  0  0  0  0  0  0  0
   24.1534   -8.7309  -18.9122 C   0  0  0  0  0  0  0  0  0  0  0  0
   25.4004   -8.0493  -18.4173 C   0  0  2  0  0  0  0  0  0  0  0  0
   26.5501   -8.9503  -18.5778 N   0  0  0  0  0  0  0  0  0  0  0  0
   25.2463   -7.7596  -16.9672 C   0  0  0  0  0  0  0  0  0  0  0  0
   24.7330   -6.5914  -16.4962 O   0  0  0  0  0  0  0  0  0  0  0  0
   25.6061   -8.6241  -16.1065 O   0  0  0  0  0  0  0  0  0  0  0  0
  2  1  1  6
  3  4  1  0
  3  2  1  0
  4  5  1  0
  5  9  1  0
  5  6  2  0
  7  8  2  0
  7  2  1  0
 10  7  1  0
 11 10  1  0
 11 12  1  1
 13 21  1  0
 13 12  1  0
 14 13  2  0
 15 14  1  0
 15 16  1  0
 16 17  1  0
 16 21  2  0
 17 18  2  0
 18 19  1  0
 20 19  2  0
 21 20  1  0
 22 11  1  0
 23 22  2  0
 24 25  1  0
 25 27  1  0
 26 25  2  0
 27 28  1  0
 29 28  1  0
 29 30  1  0
 31 30  1  1
 31 32  1  0
 31 33  1  0
 32 22  1  0
 33 34  1  0
 35 33  2  0
M  END
$$$$
