EWR.pdb
     RDKit          3D

 35 36  0  0  1  0  0  0  0  0999 V2000
   28.7031  -20.8680  -14.8352 N   0  0  0  0  0  0  0  0  0  0  0  0
   28.3419  -19.9609  -13.7284 C   0  0  1  0  0  0  0  0  0  0  0  0
   27.9481  -18.6362  -14.2810 C   0  0  0  0  0  0  0  0  0  0  0  0
   26.8245  -18.7041  -15.2765 C   0  0  0  0  0  0  0  0  0  0  0  0
   27.3571  -18.4228  -16.6533 C   0  0  0  0  0  0  0  0  0  0  0  0
   28.5795  -18.2649  -16.7864 O   0  0  0  0  0  0  0  0  0  0  0  0
   27.3030  -20.6546  -12.9601 C   0  0  0  0  0  0  0  0  0  0  0  0
   26.7194  -21.6961  -13.4316 O   0  0  0  0  0  0  0  0  0  0  0  0
   26.5057  -18.3440  -17.7316 O   0  0  0  0  0  0  0  0  0  0  0  0
   26.9245  -20.1904  -11.6734 N   0  0  0  0  0  0  0  0  0  0  0  0
   25.8876  -20.9161  -10.9753 C   0  0  1  0  0  0  0  0  0  0  0  0
   25.9106  -20.4564   -9.5233 C   0  0  0  0  0  0  0  0  0  0  0  0
   27.1925  -20.8337   -8.8907 C   0  0  0  0  0  0  0  0  0  0  0  0
   28.1775  -21.6321   -9.4252 C   0  0  0  0  0  0  0  0  0  0  0  0
   29.1975  -21.7429   -8.5470 N   0  0  0  0  0  0  0  0  0  0  0  0
   28.8917  -21.0281   -7.4468 C   0  0  0  0  0  0  0  0  0  0  0  0
   29.5789  -20.8196   -6.2876 C   0  0  0  0  0  0  0  0  0  0  0  0
   29.0220  -20.0283   -5.3038 C   0  0  0  0  0  0  0  0  0  0  0  0
   27.7867  -19.4513   -5.4814 C   0  0  0  0  0  0  0  0  0  0  0  0
   27.1068  -19.6718   -6.6573 C   0  0  0  0  0  0  0  0  0  0  0  0
   27.6342  -20.4492   -7.6452 C   0  0  0  0  0  0  0  0  0  0  0  0
   24.5772  -20.6819  -11.5964 C   0  0  0  0  0  0  0  0  0  0  0  0
   24.2517  -19.4847  -11.8780 O   0  0  0  0  0  0  0  0  0  0  0  0
   17.6770  -23.9745   -9.4244 N   0  0  0  0  0  0  0  0  0  0  0  0
   17.5919  -24.2053  -10.8253 C   0  0  0  0  0  0  0  0  0  0  0  0
   16.4282  -24.3368  -11.4059 N   0  0  0  0  0  0  0  0  0  0  0  0
   18.7401  -24.3032  -11.6483 N   0  0  0  0  0  0  0  0  0  0  0  0
   19.9969  -23.6977  -11.3030 C   0  0  0  0  0  0  0  0  0  0  0  0
   20.2435  -22.5798  -12.3213 C   0  0  0  0  0  0  0  0  0  0  0  0
   21.6219  -22.6204  -12.8610 C   0  0  0  0  0  0  0  0  0  0  0  0
   22.3748  -21.3611  -12.5264 C   0  0  2  0  0  0  0  0  0  0  0  0
   23.6577  -21.7069  -11.8989 N   0  0  0  0  0  0  0  0  0  0  0  0
   21.5831  -20.5749  -11.5438 C   0  0  0  0  0  0  0  0  0  0  0  0
   20.5553  -19.7599  -11.9040 O   0  0  0  0  0  0  0  0  0  0  0  0
   21.8604  -20.6460  -10.3046 O   0  0  0  0  0  0  0  0  0  0  0  0
  2  1  1  6
  3  4  1  0
  3  2  1  0
  4  5  1  0
  5  9  1  0
  5  6  2  0
  7  8  2  0
  7  2  1  0
 10  7  1  0
 11 10  1  0
 11 12  1  1
 13 21  1  0
 13 12  1  0
 14 13  2  0
 15 14  1  0
 15 16  1  0
 16 17  1  0
 16 21  2  0
 17 18  2  0
 18 19  1  0
 20 19  2  0
 21 20  1  0
 22 11  1  0
 23 22  2  0
 24 25  1  0
 25 27  1  0
 26 25  2  0
 27 28  1  0
 29 28  1  0
 29 30  1  0
 31 30  1  1
 31 32  1  0
 31 33  1  0
 32 22  1  0
 33 34  1  0
 35 33  2  0
M  END
$$$$
