EWR.pdb
     RDKit          3D

 35 36  0  0  1  0  0  0  0  0999 V2000
   28.5056  -21.9186  -15.3101 N   0  0  0  0  0  0  0  0  0  0  0  0
   28.0657  -20.6427  -14.7125 C   0  0  1  0  0  0  0  0  0  0  0  0
   27.2225  -19.9018  -15.6899 C   0  0  0  0  0  0  0  0  0  0  0  0
   27.9954  -19.3225  -16.8412 C   0  0  0  0  0  0  0  0  0  0  0  0
   28.3309  -20.4132  -17.8190 C   0  0  0  0  0  0  0  0  0  0  0  0
   27.4124  -20.8882  -18.5029 O   0  0  0  0  0  0  0  0  0  0  0  0
   27.4039  -20.9940  -13.4518 C   0  0  0  0  0  0  0  0  0  0  0  0
   26.6301  -22.0153  -13.3759 O   0  0  0  0  0  0  0  0  0  0  0  0
   29.6237  -20.8672  -17.9462 O   0  0  0  0  0  0  0  0  0  0  0  0
   27.6105  -20.2127  -12.2851 N   0  0  0  0  0  0  0  0  0  0  0  0
   26.9318  -20.6189  -11.0754 C   0  0  1  0  0  0  0  0  0  0  0  0
   27.5574  -19.8450   -9.9221 C   0  0  0  0  0  0  0  0  0  0  0  0
   26.8860  -20.1941   -8.6521 C   0  0  0  0  0  0  0  0  0  0  0  0
   25.6202  -20.7111   -8.4982 C   0  0  0  0  0  0  0  0  0  0  0  0
   25.3637  -20.8991   -7.1856 N   0  0  0  0  0  0  0  0  0  0  0  0
   26.4446  -20.5117   -6.4808 C   0  0  0  0  0  0  0  0  0  0  0  0
   26.6891  -20.5003   -5.1394 C   0  0  0  0  0  0  0  0  0  0  0  0
   27.9061  -20.0421   -4.6774 C   0  0  0  0  0  0  0  0  0  0  0  0
   28.8689  -19.5994   -5.5534 C   0  0  0  0  0  0  0  0  0  0  0  0
   28.6057  -19.6179   -6.9039 C   0  0  0  0  0  0  0  0  0  0  0  0
   27.4120  -20.0655   -7.3867 C   0  0  0  0  0  0  0  0  0  0  0  0
   25.4882  -20.3667  -11.1763 C   0  0  0  0  0  0  0  0  0  0  0  0
   25.1017  -19.1783  -11.4156 O   0  0  0  0  0  0  0  0  0  0  0  0
   18.4632  -22.1881  -14.1758 N   0  0  0  0  0  0  0  0  0  0  0  0
   19.4533  -23.1724  -14.4473 C   0  0  0  0  0  0  0  0  0  0  0  0
   19.6453  -23.6005  -15.6673 N   0  0  0  0  0  0  0  0  0  0  0  0
   20.2669  -23.7294  -13.4308 N   0  0  0  0  0  0  0  0  0  0  0  0
   20.1267  -23.3780  -12.0444 C   0  0  0  0  0  0  0  0  0  0  0  0
   20.9151  -22.0810  -11.8351 C   0  0  0  0  0  0  0  0  0  0  0  0
   22.3424  -22.3452  -11.5414 C   0  0  0  0  0  0  0  0  0  0  0  0
   23.1103  -21.0618  -11.3747 C   0  0  2  0  0  0  0  0  0  0  0  0
   24.5045  -21.3649  -11.0230 N   0  0  0  0  0  0  0  0  0  0  0  0
   22.5146  -20.2877  -10.2539 C   0  0  0  0  0  0  0  0  0  0  0  0
   22.7729  -20.5602   -8.9465 O   0  0  0  0  0  0  0  0  0  0  0  0
   21.7214  -19.3245  -10.5001 O   0  0  0  0  0  0  0  0  0  0  0  0
  2  1  1  6
  3  4  1  0
  3  2  1  0
  4  5  1  0
  5  9  1  0
  5  6  2  0
  7  8  2  0
  7  2  1  0
 10  7  1  0
 11 10  1  0
 11 12  1  1
 13 21  1  0
 13 12  1  0
 14 13  2  0
 15 14  1  0
 15 16  1  0
 16 17  1  0
 16 21  2  0
 17 18  2  0
 18 19  1  0
 20 19  2  0
 21 20  1  0
 22 11  1  0
 23 22  2  0
 24 25  1  0
 25 27  1  0
 26 25  2  0
 27 28  1  0
 29 28  1  0
 29 30  1  0
 31 30  1  1
 31 32  1  0
 31 33  1  0
 32 22  1  0
 33 34  1  0
 35 33  2  0
M  END
$$$$
