EWR.pdb
     RDKit          3D

 35 36  0  0  1  0  0  0  0  0999 V2000
   29.0107  -21.4040  -14.7269 N   0  0  0  0  0  0  0  0  0  0  0  0
   28.0152  -20.3809  -14.3519 C   0  0  1  0  0  0  0  0  0  0  0  0
   27.2756  -19.9398  -15.5658 C   0  0  0  0  0  0  0  0  0  0  0  0
   28.0518  -18.9944  -16.4387 C   0  0  0  0  0  0  0  0  0  0  0  0
   27.9172  -17.5956  -15.9061 C   0  0  0  0  0  0  0  0  0  0  0  0
   28.3365  -17.3624  -14.7630 O   0  0  0  0  0  0  0  0  0  0  0  0
   27.1913  -20.9854  -13.2999 C   0  0  0  0  0  0  0  0  0  0  0  0
   26.7315  -22.1772  -13.4260 O   0  0  0  0  0  0  0  0  0  0  0  0
   27.3434  -16.6063  -16.6714 O   0  0  0  0  0  0  0  0  0  0  0  0
   26.8894  -20.2649  -12.1150 N   0  0  0  0  0  0  0  0  0  0  0  0
   25.9279  -20.8428  -11.2036 C   0  0  1  0  0  0  0  0  0  0  0  0
   26.0374  -20.0844   -9.8872 C   0  0  0  0  0  0  0  0  0  0  0  0
   27.3197  -20.4009   -9.2231 C   0  0  0  0  0  0  0  0  0  0  0  0
   28.3601  -21.1395   -9.7383 C   0  0  0  0  0  0  0  0  0  0  0  0
   29.3602  -21.2067   -8.8332 N   0  0  0  0  0  0  0  0  0  0  0  0
   28.9868  -20.5224   -7.7344 C   0  0  0  0  0  0  0  0  0  0  0  0
   29.6301  -20.2918   -6.5544 C   0  0  0  0  0  0  0  0  0  0  0  0
   29.0051  -19.5430   -5.5781 C   0  0  0  0  0  0  0  0  0  0  0  0
   27.7461  -19.0301   -5.7841 C   0  0  0  0  0  0  0  0  0  0  0  0
   27.1114  -19.2722   -6.9807 C   0  0  0  0  0  0  0  0  0  0  0  0
   27.7062  -20.0085   -7.9617 C   0  0  0  0  0  0  0  0  0  0  0  0
   24.5704  -20.7684  -11.7598 C   0  0  0  0  0  0  0  0  0  0  0  0
   24.0753  -19.6178  -11.9829 O   0  0  0  0  0  0  0  0  0  0  0  0
   24.3187  -23.9151  -16.6152 N   0  0  0  0  0  0  0  0  0  0  0  0
   24.6058  -25.1878  -16.0487 C   0  0  0  0  0  0  0  0  0  0  0  0
   25.6627  -25.8581  -16.4259 N   0  0  0  0  0  0  0  0  0  0  0  0
   23.7783  -25.7840  -15.0662 N   0  0  0  0  0  0  0  0  0  0  0  0
   22.6260  -25.1238  -14.5169 C   0  0  0  0  0  0  0  0  0  0  0  0
   23.1159  -23.7974  -13.9268 C   0  0  0  0  0  0  0  0  0  0  0  0
   22.0186  -23.0452  -13.2763 C   0  0  0  0  0  0  0  0  0  0  0  0
   22.5016  -21.7176  -12.7578 C   0  0  2  0  0  0  0  0  0  0  0  0
   23.7826  -21.8982  -12.0609 N   0  0  0  0  0  0  0  0  0  0  0  0
   21.5155  -21.1987  -11.7735 C   0  0  0  0  0  0  0  0  0  0  0  0
   21.7906  -21.0702  -10.4476 O   0  0  0  0  0  0  0  0  0  0  0  0
   20.3537  -20.8556  -12.1611 O   0  0  0  0  0  0  0  0  0  0  0  0
  2  1  1  6
  3  4  1  0
  3  2  1  0
  4  5  1  0
  5  9  1  0
  5  6  2  0
  7  8  2  0
  7  2  1  0
 10  7  1  0
 11 10  1  0
 11 12  1  1
 13 21  1  0
 13 12  1  0
 14 13  2  0
 15 14  1  0
 15 16  1  0
 16 17  1  0
 16 21  2  0
 17 18  2  0
 18 19  1  0
 20 19  2  0
 21 20  1  0
 22 11  1  0
 23 22  2  0
 24 25  1  0
 25 27  1  0
 26 25  2  0
 27 28  1  0
 29 28  1  0
 29 30  1  0
 31 30  1  1
 31 32  1  0
 31 33  1  0
 32 22  1  0
 33 34  1  0
 35 33  2  0
M  END
$$$$
