EWR.pdb
     RDKit          3D

 35 36  0  0  1  0  0  0  0  0999 V2000
   26.4292  -19.4030  -14.7762 N   0  0  0  0  0  0  0  0  0  0  0  0
   25.6540  -20.2972  -15.6580 C   0  0  1  0  0  0  0  0  0  0  0  0
   25.8164  -21.7052  -15.2035 C   0  0  0  0  0  0  0  0  0  0  0  0
   26.8859  -22.4609  -15.9407 C   0  0  0  0  0  0  0  0  0  0  0  0
   28.0212  -21.5320  -16.2675 C   0  0  0  0  0  0  0  0  0  0  0  0
   27.9180  -20.8136  -17.2726 O   0  0  0  0  0  0  0  0  0  0  0  0
   24.2790  -19.7873  -15.6426 C   0  0  0  0  0  0  0  0  0  0  0  0
   23.6754  -19.5531  -14.5343 O   0  0  0  0  0  0  0  0  0  0  0  0
   29.1409  -21.4856  -15.4690 O   0  0  0  0  0  0  0  0  0  0  0  0
   23.5877  -19.5363  -16.8565 N   0  0  0  0  0  0  0  0  0  0  0  0
   22.2702  -18.9482  -16.7703 C   0  0  1  0  0  0  0  0  0  0  0  0
   22.3403  -17.5785  -17.4331 C   0  0  0  0  0  0  0  0  0  0  0  0
   22.9325  -16.5934  -16.5034 C   0  0  0  0  0  0  0  0  0  0  0  0
   22.2609  -15.7737  -15.6257 C   0  0  0  0  0  0  0  0  0  0  0  0
   23.1472  -15.0153  -14.9452 N   0  0  0  0  0  0  0  0  0  0  0  0
   24.3878  -15.3284  -15.3667 C   0  0  0  0  0  0  0  0  0  0  0  0
   25.6117  -14.8526  -14.9989 C   0  0  0  0  0  0  0  0  0  0  0  0
   26.7440  -15.3583  -15.6042 C   0  0  0  0  0  0  0  0  0  0  0  0
   26.6494  -16.3326  -16.5697 C   0  0  0  0  0  0  0  0  0  0  0  0
   25.4066  -16.8017  -16.9289 C   0  0  0  0  0  0  0  0  0  0  0  0
   24.2722  -16.3194  -16.3467 C   0  0  0  0  0  0  0  0  0  0  0  0
   21.2700  -19.8103  -17.4138 C   0  0  0  0  0  0  0  0  0  0  0  0
   21.6074  -20.4376  -18.4681 O   0  0  0  0  0  0  0  0  0  0  0  0
   15.5701  -18.3697  -13.3553 N   0  0  0  0  0  0  0  0  0  0  0  0
   15.0537  -17.8653  -14.5808 C   0  0  0  0  0  0  0  0  0  0  0  0
   14.4210  -16.7220  -14.6129 N   0  0  0  0  0  0  0  0  0  0  0  0
   15.1947  -18.5612  -15.8060 N   0  0  0  0  0  0  0  0  0  0  0  0
   15.7765  -19.8726  -15.8918 C   0  0  0  0  0  0  0  0  0  0  0  0
   17.0142  -19.7494  -16.7864 C   0  0  0  0  0  0  0  0  0  0  0  0
   17.7619  -21.0249  -16.8711 C   0  0  0  0  0  0  0  0  0  0  0  0
   19.0311  -20.8602  -17.6627 C   0  0  2  0  0  0  0  0  0  0  0  0
   19.9566  -19.9836  -16.9317 N   0  0  0  0  0  0  0  0  0  0  0  0
   18.7081  -20.2049  -18.9575 C   0  0  0  0  0  0  0  0  0  0  0  0
   18.1076  -20.8583  -19.9884 O   0  0  0  0  0  0  0  0  0  0  0  0
   18.9988  -18.9799  -19.1377 O   0  0  0  0  0  0  0  0  0  0  0  0
  2  1  1  1
  3  4  1  0
  3  2  1  0
  4  5  1  0
  5  9  1  0
  5  6  2  0
  7  8  2  0
  7  2  1  0
 10  7  1  0
 11 10  1  0
 11 12  1  6
 13 21  1  0
 13 12  1  0
 14 13  2  0
 15 14  1  0
 15 16  1  0
 16 17  1  0
 16 21  2  0
 17 18  2  0
 18 19  1  0
 20 19  2  0
 21 20  1  0
 22 11  1  0
 23 22  2  0
 24 25  1  0
 25 27  1  0
 26 25  2  0
 27 28  1  0
 29 28  1  0
 29 30  1  0
 31 30  1  1
 31 32  1  0
 31 33  1  0
 32 22  1  0
 33 34  1  0
 35 33  2  0
M  END
$$$$
