EWR.pdb
     RDKit          3D

 35 36  0  0  1  0  0  0  0  0999 V2000
   27.3332  -22.1064  -15.6037 N   0  0  0  0  0  0  0  0  0  0  0  0
   27.9933  -21.1982  -14.6457 C   0  0  1  0  0  0  0  0  0  0  0  0
   27.9573  -19.8075  -15.1748 C   0  0  0  0  0  0  0  0  0  0  0  0
   27.1925  -19.6675  -16.4608 C   0  0  0  0  0  0  0  0  0  0  0  0
   28.1569  -19.5239  -17.6044 C   0  0  0  0  0  0  0  0  0  0  0  0
   27.6942  -19.3416  -18.7400 O   0  0  0  0  0  0  0  0  0  0  0  0
   27.3118  -21.3996  -13.3628 C   0  0  0  0  0  0  0  0  0  0  0  0
   26.1771  -21.9969  -13.3059 O   0  0  0  0  0  0  0  0  0  0  0  0
   29.5143  -19.5940  -17.3895 O   0  0  0  0  0  0  0  0  0  0  0  0
   27.8975  -20.9417  -12.1538 N   0  0  0  0  0  0  0  0  0  0  0  0
   27.1821  -21.1929  -10.9232 C   0  0  1  0  0  0  0  0  0  0  0  0
   28.1754  -21.0316   -9.7797 C   0  0  0  0  0  0  0  0  0  0  0  0
   27.4547  -20.8209   -8.5062 C   0  0  0  0  0  0  0  0  0  0  0  0
   26.1328  -21.1004   -8.2454 C   0  0  0  0  0  0  0  0  0  0  0  0
   25.8436  -20.7722   -6.9677 N   0  0  0  0  0  0  0  0  0  0  0  0
   26.9583  -20.2823   -6.3910 C   0  0  0  0  0  0  0  0  0  0  0  0
   27.1908  -19.8161   -5.1309 C   0  0  0  0  0  0  0  0  0  0  0  0
   28.4514  -19.3634   -4.7988 C   0  0  0  0  0  0  0  0  0  0  0  0
   29.4695  -19.3786   -5.7227 C   0  0  0  0  0  0  0  0  0  0  0  0
   29.2178  -19.8525   -6.9897 C   0  0  0  0  0  0  0  0  0  0  0  0
   27.9817  -20.3055   -7.3438 C   0  0  0  0  0  0  0  0  0  0  0  0
   26.0433  -20.2756  -10.7843 C   0  0  0  0  0  0  0  0  0  0  0  0
   26.2423  -19.0359  -10.9901 O   0  0  0  0  0  0  0  0  0  0  0  0
   19.6834  -21.2514  -14.7693 N   0  0  0  0  0  0  0  0  0  0  0  0
   20.3552  -20.5461  -15.8057 C   0  0  0  0  0  0  0  0  0  0  0  0
   19.8532  -20.5035  -17.0118 N   0  0  0  0  0  0  0  0  0  0  0  0
   21.5788  -19.8665  -15.5901 N   0  0  0  0  0  0  0  0  0  0  0  0
   22.6919  -20.4688  -14.9092 C   0  0  0  0  0  0  0  0  0  0  0  0
   22.5796  -20.0651  -13.4354 C   0  0  0  0  0  0  0  0  0  0  0  0
   23.7164  -20.5766  -12.6360 C   0  0  0  0  0  0  0  0  0  0  0  0
   23.5940  -20.1685  -11.1927 C   0  0  2  0  0  0  0  0  0  0  0  0
   24.7411  -20.6884  -10.4355 N   0  0  0  0  0  0  0  0  0  0  0  0
   22.3603  -20.7738  -10.6253 C   0  0  0  0  0  0  0  0  0  0  0  0
   22.3719  -21.8975   -9.8589 O   0  0  0  0  0  0  0  0  0  0  0  0
   21.2291  -20.2393  -10.8543 O   0  0  0  0  0  0  0  0  0  0  0  0
  2  1  1  6
  3  4  1  0
  3  2  1  0
  4  5  1  0
  5  9  1  0
  5  6  2  0
  7  8  2  0
  7  2  1  0
 10  7  1  0
 11 10  1  0
 11 12  1  1
 13 21  1  0
 13 12  1  0
 14 13  2  0
 15 14  1  0
 15 16  1  0
 16 17  1  0
 16 21  2  0
 17 18  2  0
 18 19  1  0
 20 19  2  0
 21 20  1  0
 22 11  1  0
 23 22  2  0
 24 25  1  0
 25 27  1  0
 26 25  2  0
 27 28  1  0
 29 28  1  0
 29 30  1  0
 31 30  1  6
 31 32  1  0
 31 33  1  0
 32 22  1  0
 33 34  1  0
 35 33  2  0
M  END
$$$$
