EWR.pdb
     RDKit          3D

 35 36  0  0  1  0  0  0  0  0999 V2000
   28.1826  -21.5106  -15.9966 N   0  0  0  0  0  0  0  0  0  0  0  0
   26.8949  -22.1707  -16.2868 C   0  0  1  0  0  0  0  0  0  0  0  0
   26.9999  -23.6221  -15.9746 C   0  0  0  0  0  0  0  0  0  0  0  0
   27.1793  -24.4918  -17.1869 C   0  0  0  0  0  0  0  0  0  0  0  0
   28.5080  -24.1961  -17.8236 C   0  0  0  0  0  0  0  0  0  0  0  0
   29.1910  -23.2759  -17.3509 O   0  0  0  0  0  0  0  0  0  0  0  0
   25.8825  -21.4356  -15.5216 C   0  0  0  0  0  0  0  0  0  0  0  0
   26.0618  -21.1673  -14.2792 O   0  0  0  0  0  0  0  0  0  0  0  0
   28.9478  -24.9305  -18.9011 O   0  0  0  0  0  0  0  0  0  0  0  0
   24.6830  -20.9997  -16.1423 N   0  0  0  0  0  0  0  0  0  0  0  0
   23.7808  -20.1832  -15.3622 C   0  0  1  0  0  0  0  0  0  0  0  0
   23.6310  -18.8521  -16.0875 C   0  0  0  0  0  0  0  0  0  0  0  0
   24.7871  -17.9793  -15.7922 C   0  0  0  0  0  0  0  0  0  0  0  0
   24.8711  -17.0180  -14.8112 C   0  0  0  0  0  0  0  0  0  0  0  0
   26.0875  -16.4328  -14.8530 N   0  0  0  0  0  0  0  0  0  0  0  0
   26.7984  -16.9985  -15.8477 C   0  0  0  0  0  0  0  0  0  0  0  0
   28.0654  -16.7661  -16.2951 C   0  0  0  0  0  0  0  0  0  0  0  0
   28.5552  -17.5039  -17.3534 C   0  0  0  0  0  0  0  0  0  0  0  0
   27.7809  -18.4663  -17.9572 C   0  0  0  0  0  0  0  0  0  0  0  0
   26.5047  -18.6881  -17.4931 C   0  0  0  0  0  0  0  0  0  0  0  0
   25.9964  -17.9735  -16.4494 C   0  0  0  0  0  0  0  0  0  0  0  0
   22.4856  -20.8542  -15.1897 C   0  0  0  0  0  0  0  0  0  0  0  0
   22.0004  -21.4869  -16.1812 O   0  0  0  0  0  0  0  0  0  0  0  0
   16.9818  -24.6932  -11.7416 N   0  0  0  0  0  0  0  0  0  0  0  0
   17.9887  -25.3815  -11.0098 C   0  0  0  0  0  0  0  0  0  0  0  0
   17.9214  -26.6767  -10.8470 N   0  0  0  0  0  0  0  0  0  0  0  0
   19.0947  -24.7133  -10.4304 N   0  0  0  0  0  0  0  0  0  0  0  0
   19.3578  -23.3169  -10.6452 C   0  0  0  0  0  0  0  0  0  0  0  0
   19.8272  -23.1736  -12.0966 C   0  0  0  0  0  0  0  0  0  0  0  0
   20.1131  -21.7634  -12.4466 C   0  0  0  0  0  0  0  0  0  0  0  0
   20.5142  -21.6316  -13.8910 C   0  0  2  0  0  0  0  0  0  0  0  0
   21.7472  -20.8382  -13.9887 N   0  0  0  0  0  0  0  0  0  0  0  0
   19.4438  -20.9037  -14.6223 C   0  0  0  0  0  0  0  0  0  0  0  0
   18.4970  -21.5338  -15.3684 O   0  0  0  0  0  0  0  0  0  0  0  0
   19.3899  -19.6342  -14.5682 O   0  0  0  0  0  0  0  0  0  0  0  0
  2  1  1  1
  3  4  1  0
  3  2  1  0
  4  5  1  0
  5  9  1  0
  5  6  2  0
  7  8  2  0
  7  2  1  0
 10  7  1  0
 11 10  1  0
 11 12  1  6
 13 21  1  0
 13 12  1  0
 14 13  2  0
 15 14  1  0
 15 16  1  0
 16 17  1  0
 16 21  2  0
 17 18  2  0
 18 19  1  0
 20 19  2  0
 21 20  1  0
 22 11  1  0
 23 22  2  0
 24 25  1  0
 25 27  1  0
 26 25  2  0
 27 28  1  0
 29 28  1  0
 29 30  1  0
 31 30  1  1
 31 32  1  0
 31 33  1  0
 32 22  1  0
 33 34  1  0
 35 33  2  0
M  END
$$$$
