EWR.pdb
     RDKit          3D

 35 36  0  0  1  0  0  0  0  0999 V2000
   28.6730  -22.5166  -16.1424 N   0  0  0  0  0  0  0  0  0  0  0  0
   28.0356  -21.2007  -15.9416 C   0  0  1  0  0  0  0  0  0  0  0  0
   27.3083  -20.8077  -17.1793 C   0  0  0  0  0  0  0  0  0  0  0  0
   27.9746  -19.7025  -17.9493 C   0  0  0  0  0  0  0  0  0  0  0  0
   29.1274  -20.2628  -18.7339 C   0  0  0  0  0  0  0  0  0  0  0  0
   28.9079  -21.2156  -19.4960 O   0  0  0  0  0  0  0  0  0  0  0  0
   27.2046  -21.3333  -14.7405 C   0  0  0  0  0  0  0  0  0  0  0  0
   26.0993  -21.9852  -14.7725 O   0  0  0  0  0  0  0  0  0  0  0  0
   30.3888  -19.7280  -18.6048 O   0  0  0  0  0  0  0  0  0  0  0  0
   27.6095  -20.7466  -13.5133 N   0  0  0  0  0  0  0  0  0  0  0  0
   26.7471  -20.9235  -12.3669 C   0  0  1  0  0  0  0  0  0  0  0  0
   27.4581  -20.3141  -11.1656 C   0  0  0  0  0  0  0  0  0  0  0  0
   26.6332  -20.4777   -9.9497 C   0  0  0  0  0  0  0  0  0  0  0  0
   25.5002  -21.2466   -9.8137 C   0  0  0  0  0  0  0  0  0  0  0  0
   25.0297  -21.1414   -8.5522 N   0  0  0  0  0  0  0  0  0  0  0  0
   25.8397  -20.3144   -7.8631 C   0  0  0  0  0  0  0  0  0  0  0  0
   25.8006  -19.8860   -6.5691 C   0  0  0  0  0  0  0  0  0  0  0  0
   26.7749  -19.0218   -6.1127 C   0  0  0  0  0  0  0  0  0  0  0  0
   27.7794  -18.5914   -6.9471 C   0  0  0  0  0  0  0  0  0  0  0  0
   27.8040  -19.0336   -8.2499 C   0  0  0  0  0  0  0  0  0  0  0  0
   26.8539  -19.8874   -8.7261 C   0  0  0  0  0  0  0  0  0  0  0  0
   25.4383  -20.2972  -12.5962 C   0  0  0  0  0  0  0  0  0  0  0  0
   25.3759  -19.3142  -13.4016 O   0  0  0  0  0  0  0  0  0  0  0  0
   21.0321  -18.7024  -17.5747 N   0  0  0  0  0  0  0  0  0  0  0  0
   22.2287  -19.4703  -17.5366 C   0  0  0  0  0  0  0  0  0  0  0  0
   23.2488  -19.1458  -18.2866 N   0  0  0  0  0  0  0  0  0  0  0  0
   22.3750  -20.6043  -16.7010 N   0  0  0  0  0  0  0  0  0  0  0  0
   21.2995  -21.1238  -15.9018 C   0  0  0  0  0  0  0  0  0  0  0  0
   21.4746  -20.5440  -14.4944 C   0  0  0  0  0  0  0  0  0  0  0  0
   22.7915  -20.8938  -13.9143 C   0  0  0  0  0  0  0  0  0  0  0  0
   22.9536  -20.3060  -12.5385 C   0  0  2  0  0  0  0  0  0  0  0  0
   24.2457  -20.7213  -11.9753 N   0  0  0  0  0  0  0  0  0  0  0  0
   21.8797  -20.8385  -11.6590 C   0  0  0  0  0  0  0  0  0  0  0  0
   20.7071  -20.1839  -11.4432 O   0  0  0  0  0  0  0  0  0  0  0  0
   22.0400  -21.9524  -11.0665 O   0  0  0  0  0  0  0  0  0  0  0  0
  2  1  1  6
  3  4  1  0
  3  2  1  0
  4  5  1  0
  5  9  1  0
  5  6  2  0
  7  8  2  0
  7  2  1  0
 10  7  1  0
 11 10  1  0
 11 12  1  1
 13 21  1  0
 13 12  1  0
 14 13  2  0
 15 14  1  0
 15 16  1  0
 16 17  1  0
 16 21  2  0
 17 18  2  0
 18 19  1  0
 20 19  2  0
 21 20  1  0
 22 11  1  0
 23 22  2  0
 24 25  1  0
 25 27  1  0
 26 25  2  0
 27 28  1  0
 29 28  1  0
 29 30  1  0
 31 30  1  6
 31 32  1  0
 31 33  1  0
 32 22  1  0
 33 34  1  0
 35 33  2  0
M  END
$$$$
