EWR.pdb
     RDKit          3D

 35 36  0  0  1  0  0  0  0  0999 V2000
   28.4452  -21.3747  -17.4060 N   0  0  0  0  0  0  0  0  0  0  0  0
   27.5131  -22.5116  -17.2756 C   0  0  1  0  0  0  0  0  0  0  0  0
   28.2565  -23.7869  -17.4660 C   0  0  0  0  0  0  0  0  0  0  0  0
   28.8804  -23.9280  -18.8259 C   0  0  0  0  0  0  0  0  0  0  0  0
   27.9430  -23.3829  -19.8663 C   0  0  0  0  0  0  0  0  0  0  0  0
   26.8468  -23.9422  -20.0163 O   0  0  0  0  0  0  0  0  0  0  0  0
   26.8626  -22.3531  -15.9708 C   0  0  0  0  0  0  0  0  0  0  0  0
   26.1652  -23.3032  -15.4623 O   0  0  0  0  0  0  0  0  0  0  0  0
   28.2982  -22.2930  -20.6277 O   0  0  0  0  0  0  0  0  0  0  0  0
   26.9959  -21.1443  -15.2390 N   0  0  0  0  0  0  0  0  0  0  0  0
   26.4170  -21.0926  -13.9156 C   0  0  1  0  0  0  0  0  0  0  0  0
   27.0420  -19.9064  -13.1928 C   0  0  0  0  0  0  0  0  0  0  0  0
   26.6389  -19.9078  -11.7704 C   0  0  0  0  0  0  0  0  0  0  0  0
   25.4143  -19.5493  -11.2553 C   0  0  0  0  0  0  0  0  0  0  0  0
   25.4304  -19.6851   -9.9117 N   0  0  0  0  0  0  0  0  0  0  0  0
   26.6484  -20.1270   -9.5429 C   0  0  0  0  0  0  0  0  0  0  0  0
   27.1680  -20.4188   -8.3163 C   0  0  0  0  0  0  0  0  0  0  0  0
   28.4715  -20.8619   -8.2217 C   0  0  0  0  0  0  0  0  0  0  0  0
   29.2465  -21.0110   -9.3475 C   0  0  0  0  0  0  0  0  0  0  0  0
   28.7065  -20.7123  -10.5774 C   0  0  0  0  0  0  0  0  0  0  0  0
   27.4218  -20.2728  -10.6989 C   0  0  0  0  0  0  0  0  0  0  0  0
   24.9549  -20.9723  -13.9891 C   0  0  0  0  0  0  0  0  0  0  0  0
   24.4618  -20.1378  -14.8133 O   0  0  0  0  0  0  0  0  0  0  0  0
   17.6498  -24.1822  -13.8605 N   0  0  0  0  0  0  0  0  0  0  0  0
   18.7953  -24.9731  -13.5688 C   0  0  0  0  0  0  0  0  0  0  0  0
   18.9841  -26.1154  -14.1754 N   0  0  0  0  0  0  0  0  0  0  0  0
   19.7718  -24.5731  -12.6244 N   0  0  0  0  0  0  0  0  0  0  0  0
   19.6392  -23.3856  -11.8259 C   0  0  0  0  0  0  0  0  0  0  0  0
   20.4131  -22.2782  -12.5485 C   0  0  0  0  0  0  0  0  0  0  0  0
   21.8776  -22.4722  -12.4455 C   0  0  0  0  0  0  0  0  0  0  0  0
   22.6171  -21.5264  -13.3528 C   0  0  2  0  0  0  0  0  0  0  0  0
   24.0645  -21.7279  -13.1991 N   0  0  0  0  0  0  0  0  0  0  0  0
   22.3050  -20.1302  -12.9484 C   0  0  0  0  0  0  0  0  0  0  0  0
   21.5357  -19.2965  -13.6990 O   0  0  0  0  0  0  0  0  0  0  0  0
   22.7682  -19.6676  -11.8579 O   0  0  0  0  0  0  0  0  0  0  0  0
  2  1  1  1
  3  4  1  0
  3  2  1  0
  4  5  1  0
  5  9  1  0
  5  6  2  0
  7  8  2  0
  7  2  1  0
 10  7  1  0
 11 10  1  0
 11 12  1  6
 13 21  1  0
 13 12  1  0
 14 13  2  0
 15 14  1  0
 15 16  1  0
 16 17  1  0
 16 21  2  0
 17 18  2  0
 18 19  1  0
 20 19  2  0
 21 20  1  0
 22 11  1  0
 23 22  2  0
 24 25  1  0
 25 27  1  0
 26 25  2  0
 27 28  1  0
 29 28  1  0
 29 30  1  0
 31 30  1  1
 31 32  1  0
 31 33  1  0
 32 22  1  0
 33 34  1  0
 35 33  2  0
M  END
$$$$
