WFL.pdb
     RDKit          3D

 34 36  0  0  1  0  0  0  0  0999 V2000
   27.4696  -20.9604  -17.0739 N   0  0  0  0  0  0  0  0  0  0  0  0
   26.1248  -20.4464  -16.8394 C   0  0  1  0  0  0  0  0  0  0  0  0
   25.2488  -20.7261  -18.0387 C   0  0  0  0  0  0  0  0  0  0  0  0
   25.0334  -19.4984  -18.7977 C   0  0  0  0  0  0  0  0  0  0  0  0
   26.0342  -18.9200  -19.5847 C   0  0  0  0  0  0  0  0  0  0  0  0
   25.5188  -17.8475  -20.1802 N   0  0  0  0  0  0  0  0  0  0  0  0
   24.2149  -17.6985  -19.8131 C   0  0  0  0  0  0  0  0  0  0  0  0
   23.2779  -16.7356  -20.1630 C   0  0  0  0  0  0  0  0  0  0  0  0
   22.0089  -16.8083  -19.6318 C   0  0  0  0  0  0  0  0  0  0  0  0
   21.7104  -17.8360  -18.7685 C   0  0  0  0  0  0  0  0  0  0  0  0
   22.6398  -18.7873  -18.4246 C   0  0  0  0  0  0  0  0  0  0  0  0
   23.9280  -18.7345  -18.9508 C   0  0  0  0  0  0  0  0  0  0  0  0
   25.5664  -21.0037  -15.6113 C   0  0  0  0  0  0  0  0  0  0  0  0
   25.4880  -22.2545  -15.3877 O   0  0  0  0  0  0  0  0  0  0  0  0
   25.0974  -20.0627  -14.6275 N   0  0  0  0  0  0  0  0  0  0  0  0
   24.5899  -20.5614  -13.3790 C   0  0  1  0  0  0  0  0  0  0  0  0
   25.2747  -19.7910  -12.2501 C   0  0  0  0  0  0  0  0  0  0  0  0
   26.7202  -20.1087  -12.1809 C   0  0  0  0  0  0  0  0  0  0  0  0
   27.1821  -21.1033  -11.3443 C   0  0  0  0  0  0  0  0  0  0  0  0
   28.5248  -21.4238  -11.2573 C   0  0  0  0  0  0  0  0  0  0  0  0
   29.4631  -20.7527  -12.0131 C   0  0  0  0  0  0  0  0  0  0  0  0
   29.0162  -19.7569  -12.8531 C   0  0  0  0  0  0  0  0  0  0  0  0
   27.6575  -19.4430  -12.9315 C   0  0  0  0  0  0  0  0  0  0  0  0
   23.1318  -20.4745  -13.2814 C   0  0  0  0  0  0  0  0  0  0  0  0
   22.4964  -19.3835  -13.3799 O   0  0  0  0  0  0  0  0  0  0  0  0
   19.7903  -22.1374  -15.5599 C   0  0  0  0  0  0  0  0  0  0  0  0
   20.5320  -23.1937  -14.7313 C   0  0  2  0  0  0  0  0  0  0  0  0
   19.9317  -24.5313  -15.0865 C   0  0  0  0  0  0  0  0  0  0  0  0
   20.3250  -22.8443  -13.2953 C   0  0  0  0  0  0  0  0  0  0  0  0
   20.8989  -21.5252  -12.8711 C   0  0  2  0  0  0  0  0  0  0  0  0
   22.3570  -21.6269  -13.0704 N   0  0  0  0  0  0  0  0  0  0  0  0
   20.5805  -21.1202  -11.5003 C   0  0  0  0  0  0  0  0  0  0  0  0
   19.2971  -20.7450  -11.1285 O   0  0  0  0  0  0  0  0  0  0  0  0
   21.4331  -21.0768  -10.5506 O   0  0  0  0  0  0  0  0  0  0  0  0
  2  3  1  0
  2  1  1  6
  3  4  1  0
  4  5  2  0
  5  6  1  0
  7  6  1  0
  8  7  2  0
  9  8  1  0
 10 11  1  0
 10  9  2  0
 11 12  2  0
 12  4  1  0
 12  7  1  0
 13 14  2  0
 13  2  1  0
 15 13  1  0
 16 15  1  0
 16 17  1  1
 17 18  1  0
 18 23  1  0
 18 19  2  0
 19 20  1  0
 20 21  2  0
 22 21  1  0
 23 22  2  0
 24 31  1  0
 24 16  1  0
 25 24  2  0
 27 26  1  6
 27 28  1  0
 27 29  1  0
 30 29  1  1
 30 32  1  0
 30 31  1  0
 32 33  1  0
 34 32  2  0
M  END
$$$$
