WFL.pdb
     RDKit          3D

 34 36  0  0  1  0  0  0  0  0999 V2000
   28.5266  -41.0897   -8.2544 N   0  0  0  0  0  0  0  0  0  0  0  0
   27.4116  -40.6414   -7.4277 C   0  0  1  0  0  0  0  0  0  0  0  0
   27.0606  -41.7053   -6.4132 C   0  0  0  0  0  0  0  0  0  0  0  0
   26.2884  -42.7675   -7.0496 C   0  0  0  0  0  0  0  0  0  0  0  0
   26.8593  -43.6688   -7.9536 C   0  0  0  0  0  0  0  0  0  0  0  0
   25.9178  -44.5356   -8.3181 N   0  0  0  0  0  0  0  0  0  0  0  0
   24.7474  -44.2370   -7.6872 C   0  0  0  0  0  0  0  0  0  0  0  0
   23.4999  -44.8427   -7.7544 C   0  0  0  0  0  0  0  0  0  0  0  0
   22.4610  -44.3264   -7.0115 C   0  0  0  0  0  0  0  0  0  0  0  0
   22.6942  -43.2231   -6.2248 C   0  0  0  0  0  0  0  0  0  0  0  0
   23.9298  -42.6264   -6.1603 C   0  0  0  0  0  0  0  0  0  0  0  0
   24.9947  -43.1323   -6.9012 C   0  0  0  0  0  0  0  0  0  0  0  0
   27.7197  -39.3622   -6.7957 C   0  0  0  0  0  0  0  0  0  0  0  0
   28.9086  -38.9518   -6.5990 O   0  0  0  0  0  0  0  0  0  0  0  0
   26.5994  -38.5515   -6.3942 N   0  0  0  0  0  0  0  0  0  0  0  0
   26.8516  -37.2953   -5.7436 C   0  0  1  0  0  0  0  0  0  0  0  0
   25.9394  -36.2447   -6.3767 C   0  0  0  0  0  0  0  0  0  0  0  0
   26.1608  -34.9079   -5.7774 C   0  0  0  0  0  0  0  0  0  0  0  0
   25.3044  -34.4193   -4.8129 C   0  0  0  0  0  0  0  0  0  0  0  0
   25.4840  -33.1759   -4.2342 C   0  0  0  0  0  0  0  0  0  0  0  0
   26.5391  -32.3686   -4.6046 C   0  0  0  0  0  0  0  0  0  0  0  0
   27.4025  -32.8436   -5.5668 C   0  0  0  0  0  0  0  0  0  0  0  0
   27.2098  -34.1010   -6.1434 C   0  0  0  0  0  0  0  0  0  0  0  0
   26.6710  -37.3593   -4.2922 C   0  0  0  0  0  0  0  0  0  0  0  0
   25.6765  -37.9194   -3.7436 O   0  0  0  0  0  0  0  0  0  0  0  0
   29.7247  -38.7329    0.3293 C   0  0  0  0  0  0  0  0  0  0  0  0
   28.3574  -38.2499   -0.1704 C   0  0  2  0  0  0  0  0  0  0  0  0
   27.5689  -39.4792   -0.5484 C   0  0  0  0  0  0  0  0  0  0  0  0
   28.6116  -37.3591   -1.3403 C   0  0  0  0  0  0  0  0  0  0  0  0
   27.3854  -36.7671   -1.9691 C   0  0  2  0  0  0  0  0  0  0  0  0
   27.6178  -36.7887   -3.4256 N   0  0  0  0  0  0  0  0  0  0  0  0
   27.0392  -35.4203   -1.5097 C   0  0  0  0  0  0  0  0  0  0  0  0
   25.7251  -35.0466   -1.2656 O   0  0  0  0  0  0  0  0  0  0  0  0
   27.8932  -34.4945   -1.2991 O   0  0  0  0  0  0  0  0  0  0  0  0
  2  3  1  0
  2  1  1  1
  3  4  1  0
  4  5  2  0
  5  6  1  0
  7  6  1  0
  8  7  2  0
  9  8  1  0
 10 11  1  0
 10  9  2  0
 11 12  2  0
 12  4  1  0
 12  7  1  0
 13 14  2  0
 13  2  1  0
 15 13  1  0
 16 15  1  0
 16 17  1  6
 17 18  1  0
 18 23  1  0
 18 19  2  0
 19 20  1  0
 20 21  2  0
 22 21  1  0
 23 22  2  0
 24 31  1  0
 24 16  1  0
 25 24  2  0
 27 26  1  6
 27 28  1  0
 27 29  1  0
 30 29  1  1
 30 32  1  0
 30 31  1  0
 32 33  1  0
 34 32  2  0
M  END
$$$$
