WFL.pdb
     RDKit          3D

 34 36  0  0  1  0  0  0  0  0999 V2000
   29.0547  -20.8679  -14.4284 N   0  0  0  0  0  0  0  0  0  0  0  0
   27.8393  -20.1212  -14.1233 C   0  0  1  0  0  0  0  0  0  0  0  0
   27.1385  -19.7303  -15.4039 C   0  0  0  0  0  0  0  0  0  0  0  0
   27.7406  -18.5201  -15.9540 C   0  0  0  0  0  0  0  0  0  0  0  0
   28.5905  -18.5453  -17.0642 C   0  0  0  0  0  0  0  0  0  0  0  0
   28.9335  -17.2910  -17.3465 N   0  0  0  0  0  0  0  0  0  0  0  0
   28.3406  -16.4409  -16.4617 C   0  0  0  0  0  0  0  0  0  0  0  0
   28.4049  -15.0586  -16.3490 C   0  0  0  0  0  0  0  0  0  0  0  0
   27.7075  -14.4334  -15.3387 C   0  0  0  0  0  0  0  0  0  0  0  0
   26.9679  -15.2019  -14.4710 C   0  0  0  0  0  0  0  0  0  0  0  0
   26.9062  -16.5694  -14.5855 C   0  0  0  0  0  0  0  0  0  0  0  0
   27.6015  -17.2223  -15.6000 C   0  0  0  0  0  0  0  0  0  0  0  0
   26.9711  -20.8891  -13.2361 C   0  0  0  0  0  0  0  0  0  0  0  0
   26.9093  -22.1606  -13.2524 O   0  0  0  0  0  0  0  0  0  0  0  0
   26.1654  -20.1381  -12.3087 N   0  0  0  0  0  0  0  0  0  0  0  0
   25.1872  -20.8345  -11.5194 C   0  0  1  0  0  0  0  0  0  0  0  0
   25.1252  -20.1650  -10.1466 C   0  0  0  0  0  0  0  0  0  0  0  0
   26.4087  -20.3066   -9.4200 C   0  0  0  0  0  0  0  0  0  0  0  0
   27.1381  -21.4744   -9.5025 C   0  0  0  0  0  0  0  0  0  0  0  0
   28.3394  -21.6375   -8.8367 C   0  0  0  0  0  0  0  0  0  0  0  0
   28.8590  -20.6262   -8.0562 C   0  0  0  0  0  0  0  0  0  0  0  0
   28.1415  -19.4542   -7.9646 C   0  0  0  0  0  0  0  0  0  0  0  0
   26.9295  -19.3023   -8.6419 C   0  0  0  0  0  0  0  0  0  0  0  0
   23.8693  -20.8794  -12.1554 C   0  0  0  0  0  0  0  0  0  0  0  0
   23.3182  -19.8647  -12.6756 O   0  0  0  0  0  0  0  0  0  0  0  0
   20.1899  -23.0130  -15.2412 C   0  0  0  0  0  0  0  0  0  0  0  0
   20.3279  -23.8518  -13.9644 C   0  0  2  0  0  0  0  0  0  0  0  0
   19.1960  -23.4509  -13.0513 C   0  0  0  0  0  0  0  0  0  0  0  0
   21.6645  -23.5376  -13.3799 C   0  0  0  0  0  0  0  0  0  0  0  0
   21.8310  -22.1300  -12.8895 C   0  0  2  0  0  0  0  0  0  0  0  0
   23.1432  -22.0801  -12.2177 N   0  0  0  0  0  0  0  0  0  0  0  0
   20.7668  -21.6492  -12.0057 C   0  0  0  0  0  0  0  0  0  0  0  0
   19.6745  -20.9451  -12.4929 O   0  0  0  0  0  0  0  0  0  0  0  0
   20.7502  -21.8299  -10.7417 O   0  0  0  0  0  0  0  0  0  0  0  0
  2  3  1  0
  2  1  1  6
  3  4  1  0
  4  5  2  0
  5  6  1  0
  7  6  1  0
  8  7  2  0
  9  8  1  0
 10 11  1  0
 10  9  2  0
 11 12  2  0
 12  4  1  0
 12  7  1  0
 13 14  2  0
 13  2  1  0
 15 13  1  0
 16 15  1  0
 16 17  1  1
 17 18  1  0
 18 23  1  0
 18 19  2  0
 19 20  1  0
 20 21  2  0
 22 21  1  0
 23 22  2  0
 24 31  1  0
 24 16  1  0
 25 24  2  0
 27 26  1  6
 27 28  1  0
 27 29  1  0
 30 29  1  1
 30 32  1  0
 30 31  1  0
 32 33  1  0
 34 32  2  0
M  END
$$$$
