WFL.pdb
     RDKit          3D

 34 36  0  0  1  0  0  0  0  0999 V2000
   25.8097  -21.5866  -12.9682 N   0  0  0  0  0  0  0  0  0  0  0  0
   25.2945  -20.9438  -11.7645 C   0  0  1  0  0  0  0  0  0  0  0  0
   23.8531  -21.3411  -11.5437 C   0  0  0  0  0  0  0  0  0  0  0  0
   22.9876  -20.6172  -12.4691 C   0  0  0  0  0  0  0  0  0  0  0  0
   22.8891  -20.9564  -13.8221 C   0  0  0  0  0  0  0  0  0  0  0  0
   21.9933  -20.1482  -14.3832 N   0  0  0  0  0  0  0  0  0  0  0  0
   21.4989  -19.2886  -13.4485 C   0  0  0  0  0  0  0  0  0  0  0  0
   20.5615  -18.2702  -13.5576 C   0  0  0  0  0  0  0  0  0  0  0  0
   20.2426  -17.5278  -12.4419 C   0  0  0  0  0  0  0  0  0  0  0  0
   20.8660  -17.8202  -11.2517 C   0  0  0  0  0  0  0  0  0  0  0  0
   21.7928  -18.8287  -11.1471 C   0  0  0  0  0  0  0  0  0  0  0  0
   22.1292  -19.5931  -12.2613 C   0  0  0  0  0  0  0  0  0  0  0  0
   26.1326  -21.2599  -10.6119 C   0  0  0  0  0  0  0  0  0  0  0  0
   26.3972  -22.4514  -10.2500 O   0  0  0  0  0  0  0  0  0  0  0  0
   26.6718  -20.1447   -9.8777 N   0  0  0  0  0  0  0  0  0  0  0  0
   27.3610  -20.3972   -8.6423 C   0  0  1  0  0  0  0  0  0  0  0  0
   28.5576  -19.4489   -8.5674 C   0  0  0  0  0  0  0  0  0  0  0  0
   29.2011  -19.4983   -7.2337 C   0  0  0  0  0  0  0  0  0  0  0  0
   29.0209  -18.4738   -6.3279 C   0  0  0  0  0  0  0  0  0  0  0  0
   29.6076  -18.4905   -5.0754 C   0  0  0  0  0  0  0  0  0  0  0  0
   30.4041  -19.5449   -4.6809 C   0  0  0  0  0  0  0  0  0  0  0  0
   30.5928  -20.5751   -5.5752 C   0  0  0  0  0  0  0  0  0  0  0  0
   29.9948  -20.5461   -6.8371 C   0  0  0  0  0  0  0  0  0  0  0  0
   26.4951  -20.2635   -7.4695 C   0  0  0  0  0  0  0  0  0  0  0  0
   25.6924  -19.2970   -7.3097 O   0  0  0  0  0  0  0  0  0  0  0  0
   23.0477  -20.6623   -4.0214 C   0  0  0  0  0  0  0  0  0  0  0  0
   23.2787  -21.4977   -5.2868 C   0  0  2  0  0  0  0  0  0  0  0  0
   22.2337  -22.5857   -5.2914 C   0  0  0  0  0  0  0  0  0  0  0  0
   24.6644  -22.0447   -5.2001 C   0  0  0  0  0  0  0  0  0  0  0  0
   25.7567  -21.0170   -5.2012 C   0  0  2  0  0  0  0  0  0  0  0  0
   26.5182  -21.2263   -6.4471 N   0  0  0  0  0  0  0  0  0  0  0  0
   26.6386  -21.0452   -4.0325 C   0  0  0  0  0  0  0  0  0  0  0  0
   27.7740  -21.8424   -3.9927 O   0  0  0  0  0  0  0  0  0  0  0  0
   26.4460  -20.3574   -2.9739 O   0  0  0  0  0  0  0  0  0  0  0  0
  2  3  1  0
  2  1  1  6
  3  4  1  0
  4  5  2  0
  5  6  1  0
  7  6  1  0
  8  7  2  0
  9  8  1  0
 10 11  1  0
 10  9  2  0
 11 12  2  0
 12  4  1  0
 12  7  1  0
 13 14  2  0
 13  2  1  0
 15 13  1  0
 16 15  1  0
 16 17  1  1
 17 18  1  0
 18 23  1  0
 18 19  2  0
 19 20  1  0
 20 21  2  0
 22 21  1  0
 23 22  2  0
 24 31  1  0
 24 16  1  0
 25 24  2  0
 27 26  1  1
 27 28  1  0
 27 29  1  0
 30 29  1  1
 30 32  1  0
 30 31  1  0
 32 33  1  0
 34 32  2  0
M  END
$$$$
