WFL.pdb
     RDKit          3D

 34 36  0  0  1  0  0  0  0  0999 V2000
   25.0039  -21.5960  -15.6633 N   0  0  0  0  0  0  0  0  0  0  0  0
   24.3866  -20.8465  -14.5747 C   0  0  1  0  0  0  0  0  0  0  0  0
   22.8846  -21.0072  -14.6241 C   0  0  0  0  0  0  0  0  0  0  0  0
   22.3441  -20.3010  -15.7812 C   0  0  0  0  0  0  0  0  0  0  0  0
   22.4366  -20.8115  -17.0797 C   0  0  0  0  0  0  0  0  0  0  0  0
   21.8149  -19.9661  -17.8978 N   0  0  0  0  0  0  0  0  0  0  0  0
   21.3170  -18.9169  -17.1848 C   0  0  0  0  0  0  0  0  0  0  0  0
   20.6094  -17.7951  -17.5951 C   0  0  0  0  0  0  0  0  0  0  0  0
   20.2274  -16.8611  -16.6573 C   0  0  0  0  0  0  0  0  0  0  0  0
   20.5612  -17.0709  -15.3400 C   0  0  0  0  0  0  0  0  0  0  0  0
   21.2612  -18.1821  -14.9374 C   0  0  0  0  0  0  0  0  0  0  0  0
   21.6559  -19.1400  -15.8678 C   0  0  0  0  0  0  0  0  0  0  0  0
   24.9394  -21.2567  -13.2876 C   0  0  0  0  0  0  0  0  0  0  0  0
   24.7866  -22.4250  -12.8054 O   0  0  0  0  0  0  0  0  0  0  0  0
   25.6915  -20.2673  -12.5605 N   0  0  0  0  0  0  0  0  0  0  0  0
   26.1005  -20.5596  -11.2144 C   0  0  1  0  0  0  0  0  0  0  0  0
   27.2884  -19.6589  -10.8763 C   0  0  0  0  0  0  0  0  0  0  0  0
   27.7502  -19.8762   -9.4853 C   0  0  0  0  0  0  0  0  0  0  0  0
   28.5679  -20.9427   -9.1746 C   0  0  0  0  0  0  0  0  0  0  0  0
   29.0160  -21.1725   -7.8864 C   0  0  0  0  0  0  0  0  0  0  0  0
   28.6575  -20.3337   -6.8521 C   0  0  0  0  0  0  0  0  0  0  0  0
   27.8412  -19.2645   -7.1476 C   0  0  0  0  0  0  0  0  0  0  0  0
   27.3955  -19.0436   -8.4527 C   0  0  0  0  0  0  0  0  0  0  0  0
   25.0158  -20.4056  -10.2433 C   0  0  0  0  0  0  0  0  0  0  0  0
   24.2130  -19.4262  -10.2537 O   0  0  0  0  0  0  0  0  0  0  0  0
   20.4871  -22.9649   -7.9271 C   0  0  0  0  0  0  0  0  0  0  0  0
   21.4980  -21.8782   -7.5402 C   0  0  2  0  0  0  0  0  0  0  0  0
   20.7902  -20.5527   -7.6733 C   0  0  0  0  0  0  0  0  0  0  0  0
   22.6502  -22.0012   -8.4806 C   0  0  0  0  0  0  0  0  0  0  0  0
   23.8276  -21.1279   -8.1638 C   0  0  2  0  0  0  0  0  0  0  0  0
   24.8145  -21.3623   -9.2349 N   0  0  0  0  0  0  0  0  0  0  0  0
   24.4221  -21.3404   -6.8425 C   0  0  0  0  0  0  0  0  0  0  0  0
   24.2345  -20.4399   -5.8033 O   0  0  0  0  0  0  0  0  0  0  0  0
   25.1473  -22.3464   -6.5375 O   0  0  0  0  0  0  0  0  0  0  0  0
  2  3  1  0
  2  1  1  6
  3  4  1  0
  4  5  2  0
  5  6  1  0
  7  6  1  0
  8  7  2  0
  9  8  1  0
 10 11  1  0
 10  9  2  0
 11 12  2  0
 12  4  1  0
 12  7  1  0
 13 14  2  0
 13  2  1  0
 15 13  1  0
 16 15  1  0
 16 17  1  1
 17 18  1  0
 18 23  1  0
 18 19  2  0
 19 20  1  0
 20 21  2  0
 22 21  1  0
 23 22  2  0
 24 31  1  0
 24 16  1  0
 25 24  2  0
 27 26  1  6
 27 28  1  0
 27 29  1  0
 30 29  1  6
 30 32  1  0
 30 31  1  0
 32 33  1  0
 34 32  2  0
M  END
$$$$
