WFL.pdb
     RDKit          3D

 34 36  0  0  1  0  0  0  0  0999 V2000
   27.9191  -20.1004  -19.4091 N   0  0  0  0  0  0  0  0  0  0  0  0
   26.8273  -20.7544  -18.6964 C   0  0  1  0  0  0  0  0  0  0  0  0
   27.0921  -22.2390  -18.5967 C   0  0  0  0  0  0  0  0  0  0  0  0
   26.9735  -22.8576  -19.9131 C   0  0  0  0  0  0  0  0  0  0  0  0
   27.9977  -23.6274  -20.4731 C   0  0  0  0  0  0  0  0  0  0  0  0
   27.5713  -24.0853  -21.6474 N   0  0  0  0  0  0  0  0  0  0  0  0
   26.3033  -23.6440  -21.8811 C   0  0  0  0  0  0  0  0  0  0  0  0
   25.4556  -23.8492  -22.9613 C   0  0  0  0  0  0  0  0  0  0  0  0
   24.2060  -23.2693  -22.9549 C   0  0  0  0  0  0  0  0  0  0  0  0
   23.8377  -22.5025  -21.8746 C   0  0  0  0  0  0  0  0  0  0  0  0
   24.6788  -22.3017  -20.8072 C   0  0  0  0  0  0  0  0  0  0  0  0
   25.9456  -22.8796  -20.7916 C   0  0  0  0  0  0  0  0  0  0  0  0
   26.6283  -20.1442  -17.3854 C   0  0  0  0  0  0  0  0  0  0  0  0
   27.5830  -19.6835  -16.6804 O   0  0  0  0  0  0  0  0  0  0  0  0
   25.2736  -20.0731  -16.9028 N   0  0  0  0  0  0  0  0  0  0  0  0
   25.0066  -19.3438  -15.6938 C   0  0  1  0  0  0  0  0  0  0  0  0
   24.2625  -18.0627  -16.0703 C   0  0  0  0  0  0  0  0  0  0  0  0
   25.1722  -16.8932  -16.0750 C   0  0  0  0  0  0  0  0  0  0  0  0
   25.5477  -16.2899  -14.8928 C   0  0  0  0  0  0  0  0  0  0  0  0
   26.3953  -15.1973  -14.8637 C   0  0  0  0  0  0  0  0  0  0  0  0
   26.9027  -14.6640  -16.0299 C   0  0  0  0  0  0  0  0  0  0  0  0
   26.5363  -15.2562  -17.2181 C   0  0  0  0  0  0  0  0  0  0  0  0
   25.6794  -16.3591  -17.2337 C   0  0  0  0  0  0  0  0  0  0  0  0
   24.2608  -20.1285  -14.7082 C   0  0  0  0  0  0  0  0  0  0  0  0
   23.3339  -20.9320  -15.0229 O   0  0  0  0  0  0  0  0  0  0  0  0
   26.3084  -22.0570  -11.4470 C   0  0  0  0  0  0  0  0  0  0  0  0
   25.9315  -20.6226  -11.0563 C   0  0  2  0  0  0  0  0  0  0  0  0
   26.5458  -20.3602   -9.7037 C   0  0  0  0  0  0  0  0  0  0  0  0
   24.4409  -20.5582  -11.0226 C   0  0  0  0  0  0  0  0  0  0  0  0
   23.7635  -20.7743  -12.3432 C   0  0  2  0  0  0  0  0  0  0  0  0
   24.5503  -20.0211  -13.3380 N   0  0  0  0  0  0  0  0  0  0  0  0
   22.3508  -20.3912  -12.3877 C   0  0  0  0  0  0  0  0  0  0  0  0
   21.3440  -21.2659  -12.0039 O   0  0  0  0  0  0  0  0  0  0  0  0
   21.9309  -19.2487  -12.7740 O   0  0  0  0  0  0  0  0  0  0  0  0
  2  3  1  0
  2  1  1  1
  3  4  1  0
  4  5  2  0
  5  6  1  0
  7  6  1  0
  8  7  2  0
  9  8  1  0
 10 11  1  0
 10  9  2  0
 11 12  2  0
 12  4  1  0
 12  7  1  0
 13 14  2  0
 13  2  1  0
 15 13  1  0
 16 15  1  0
 16 17  1  6
 17 18  1  0
 18 23  1  0
 18 19  2  0
 19 20  1  0
 20 21  2  0
 22 21  1  0
 23 22  2  0
 24 31  1  0
 24 16  1  0
 25 24  2  0
 27 26  1  1
 27 28  1  0
 27 29  1  0
 30 29  1  1
 30 32  1  0
 30 31  1  0
 32 33  1  0
 34 32  2  0
M  END
$$$$
