WFL.pdb
     RDKit          3D

 34 36  0  0  1  0  0  0  0  0999 V2000
   27.7364  -21.1278  -13.6926 N   0  0  0  0  0  0  0  0  0  0  0  0
   26.4607  -20.6016  -13.2199 C   0  0  1  0  0  0  0  0  0  0  0  0
   25.3493  -21.0291  -14.1506 C   0  0  0  0  0  0  0  0  0  0  0  0
   25.4007  -20.2483  -15.3824 C   0  0  0  0  0  0  0  0  0  0  0  0
   26.2025  -20.6149  -16.4678 C   0  0  0  0  0  0  0  0  0  0  0  0
   25.9954  -19.7366  -17.4456 N   0  0  0  0  0  0  0  0  0  0  0  0
   25.0866  -18.8044  -17.0429 C   0  0  0  0  0  0  0  0  0  0  0  0
   24.5661  -17.6998  -17.7035 C   0  0  0  0  0  0  0  0  0  0  0  0
   23.6541  -16.8967  -17.0547 C   0  0  0  0  0  0  0  0  0  0  0  0
   23.2880  -17.2162  -15.7684 C   0  0  0  0  0  0  0  0  0  0  0  0
   23.8047  -18.3100  -15.1177 C   0  0  0  0  0  0  0  0  0  0  0  0
   24.7265  -19.1367  -15.7549 C   0  0  0  0  0  0  0  0  0  0  0  0
   26.2109  -21.0147  -11.8423 C   0  0  0  0  0  0  0  0  0  0  0  0
   26.5998  -22.1309  -11.3694 O   0  0  0  0  0  0  0  0  0  0  0  0
   25.4925  -20.0869  -11.0079 N   0  0  0  0  0  0  0  0  0  0  0  0
   24.8561  -20.5767   -9.8163 C   0  0  1  0  0  0  0  0  0  0  0  0
   25.0285  -19.5230   -8.7223 C   0  0  0  0  0  0  0  0  0  0  0  0
   26.3493  -19.6437   -8.0617 C   0  0  0  0  0  0  0  0  0  0  0  0
   27.2199  -18.5744   -8.0303 C   0  0  0  0  0  0  0  0  0  0  0  0
   28.4592  -18.6552   -7.4215 C   0  0  0  0  0  0  0  0  0  0  0  0
   28.8756  -19.8221   -6.8159 C   0  0  0  0  0  0  0  0  0  0  0  0
   28.0165  -20.8983   -6.8396 C   0  0  0  0  0  0  0  0  0  0  0  0
   26.7676  -20.8037   -7.4578 C   0  0  0  0  0  0  0  0  0  0  0  0
   23.4461  -20.9133  -10.0208 C   0  0  0  0  0  0  0  0  0  0  0  0
   22.6653  -21.2235   -9.0732 O   0  0  0  0  0  0  0  0  0  0  0  0
   20.0904  -18.6640  -11.5520 C   0  0  0  0  0  0  0  0  0  0  0  0
   21.0452  -19.0565  -12.6863 C   0  0  2  0  0  0  0  0  0  0  0  0
   20.5177  -18.4153  -13.9458 C   0  0  0  0  0  0  0  0  0  0  0  0
   21.0384  -20.5467  -12.7646 C   0  0  0  0  0  0  0  0  0  0  0  0
   21.4672  -21.2529  -11.5129 C   0  0  2  0  0  0  0  0  0  0  0  0
   22.8860  -20.9050  -11.3088 N   0  0  0  0  0  0  0  0  0  0  0  0
   21.2755  -22.7047  -11.5209 C   0  0  0  0  0  0  0  0  0  0  0  0
   20.1602  -23.2978  -10.9461 O   0  0  0  0  0  0  0  0  0  0  0  0
   22.0963  -23.5320  -12.0431 O   0  0  0  0  0  0  0  0  0  0  0  0
  2  3  1  0
  2  1  1  6
  3  4  1  0
  4  5  2  0
  5  6  1  0
  7  6  1  0
  8  7  2  0
  9  8  1  0
 10 11  1  0
 10  9  2  0
 11 12  2  0
 12  4  1  0
 12  7  1  0
 13 14  2  0
 13  2  1  0
 15 13  1  0
 16 15  1  0
 16 17  1  1
 17 18  1  0
 18 23  1  0
 18 19  2  0
 19 20  1  0
 20 21  2  0
 22 21  1  0
 23 22  2  0
 24 31  1  0
 24 16  1  0
 25 24  2  0
 27 26  1  1
 27 28  1  0
 27 29  1  0
 30 29  1  6
 30 32  1  0
 30 31  1  0
 32 33  1  0
 34 32  2  0
M  END
$$$$
