WFL.pdb
     RDKit          3D

 34 36  0  0  1  0  0  0  0  0999 V2000
   28.4173  -19.7152  -14.5962 N   0  0  0  0  0  0  0  0  0  0  0  0
   27.2042  -19.6511  -13.7888 C   0  0  1  0  0  0  0  0  0  0  0  0
   26.0469  -20.2600  -14.5466 C   0  0  0  0  0  0  0  0  0  0  0  0
   25.3653  -19.2330  -15.3278 C   0  0  0  0  0  0  0  0  0  0  0  0
   26.0130  -18.5000  -16.3271 C   0  0  0  0  0  0  0  0  0  0  0  0
   25.1199  -17.6837  -16.8809 N   0  0  0  0  0  0  0  0  0  0  0  0
   23.9076  -17.8524  -16.2818 C   0  0  0  0  0  0  0  0  0  0  0  0
   22.6889  -17.2268  -16.5073 C   0  0  0  0  0  0  0  0  0  0  0  0
   21.6003  -17.5789  -15.7399 C   0  0  0  0  0  0  0  0  0  0  0  0
   21.7570  -18.5420  -14.7712 C   0  0  0  0  0  0  0  0  0  0  0  0
   22.9642  -19.1593  -14.5508 C   0  0  0  0  0  0  0  0  0  0  0  0
   24.0774  -18.8205  -15.3157 C   0  0  0  0  0  0  0  0  0  0  0  0
   27.4110  -20.2947  -12.4951 C   0  0  0  0  0  0  0  0  0  0  0  0
   27.7402  -21.5182  -12.3714 O   0  0  0  0  0  0  0  0  0  0  0  0
   27.2301  -19.4730  -11.3265 N   0  0  0  0  0  0  0  0  0  0  0  0
   27.2819  -20.0914  -10.0305 C   0  0  1  0  0  0  0  0  0  0  0  0
   27.6460  -19.0147   -9.0083 C   0  0  0  0  0  0  0  0  0  0  0  0
   27.7096  -19.5731   -7.6374 C   0  0  0  0  0  0  0  0  0  0  0  0
   28.8016  -20.3099   -7.2284 C   0  0  0  0  0  0  0  0  0  0  0  0
   28.8910  -20.8442   -5.9558 C   0  0  0  0  0  0  0  0  0  0  0  0
   27.8794  -20.6577   -5.0372 C   0  0  0  0  0  0  0  0  0  0  0  0
   26.7827  -19.9239   -5.4317 C   0  0  0  0  0  0  0  0  0  0  0  0
   26.7047  -19.3899   -6.7199 C   0  0  0  0  0  0  0  0  0  0  0  0
   26.0355  -20.7715   -9.6737 C   0  0  0  0  0  0  0  0  0  0  0  0
   25.9273  -21.5327   -8.6673 O   0  0  0  0  0  0  0  0  0  0  0  0
   20.8104  -21.8368  -10.9039 C   0  0  0  0  0  0  0  0  0  0  0  0
   21.2139  -20.9811   -9.6967 C   0  0  2  0  0  0  0  0  0  0  0  0
   20.1494  -19.9250   -9.5318 C   0  0  0  0  0  0  0  0  0  0  0  0
   22.5502  -20.3937  -10.0070 C   0  0  0  0  0  0  0  0  0  0  0  0
   23.6618  -21.3876  -10.1674 C   0  0  2  0  0  0  0  0  0  0  0  0
   24.8783  -20.6031  -10.4516 N   0  0  0  0  0  0  0  0  0  0  0  0
   23.4403  -22.4085  -11.1937 C   0  0  0  0  0  0  0  0  0  0  0  0
   23.4320  -22.0957  -12.5458 O   0  0  0  0  0  0  0  0  0  0  0  0
   23.2397  -23.6443  -10.9422 O   0  0  0  0  0  0  0  0  0  0  0  0
  2  3  1  0
  2  1  1  6
  3  4  1  0
  4  5  2  0
  5  6  1  0
  7  6  1  0
  8  7  2  0
  9  8  1  0
 10 11  1  0
 10  9  2  0
 11 12  2  0
 12  4  1  0
 12  7  1  0
 13 14  2  0
 13  2  1  0
 15 13  1  0
 16 15  1  0
 16 17  1  1
 17 18  1  0
 18 23  1  0
 18 19  2  0
 19 20  1  0
 20 21  2  0
 22 21  1  0
 23 22  2  0
 24 31  1  0
 24 16  1  0
 25 24  2  0
 27 26  1  6
 27 28  1  0
 27 29  1  0
 30 29  1  6
 30 32  1  0
 30 31  1  0
 32 33  1  0
 34 32  2  0
M  END
$$$$
