WFL.pdb
     RDKit          3D

 34 36  0  0  1  0  0  0  0  0999 V2000
   25.1220  -22.0886  -12.5556 N   0  0  0  0  0  0  0  0  0  0  0  0
   25.5312  -20.9211  -11.7828 C   0  0  1  0  0  0  0  0  0  0  0  0
   24.3400  -20.0258  -11.5303 C   0  0  0  0  0  0  0  0  0  0  0  0
   23.8773  -19.4434  -12.7858 C   0  0  0  0  0  0  0  0  0  0  0  0
   22.5675  -19.6051  -13.2478 C   0  0  0  0  0  0  0  0  0  0  0  0
   22.4464  -18.9232  -14.3840 N   0  0  0  0  0  0  0  0  0  0  0  0
   23.6295  -18.3188  -14.6871 C   0  0  0  0  0  0  0  0  0  0  0  0
   23.9906  -17.5189  -15.7628 C   0  0  0  0  0  0  0  0  0  0  0  0
   25.2788  -17.0366  -15.8394 C   0  0  0  0  0  0  0  0  0  0  0  0
   26.1688  -17.3649  -14.8440 C   0  0  0  0  0  0  0  0  0  0  0  0
   25.8082  -18.1564  -13.7808 C   0  0  0  0  0  0  0  0  0  0  0  0
   24.5112  -18.6534  -13.6821 C   0  0  0  0  0  0  0  0  0  0  0  0
   26.1843  -21.3268  -10.5420 C   0  0  0  0  0  0  0  0  0  0  0  0
   25.7794  -22.3006   -9.8289 O   0  0  0  0  0  0  0  0  0  0  0  0
   27.3413  -20.5692  -10.1412 N   0  0  0  0  0  0  0  0  0  0  0  0
   27.8153  -20.6918   -8.7902 C   0  0  1  0  0  0  0  0  0  0  0  0
   29.1453  -19.9454   -8.6874 C   0  0  0  0  0  0  0  0  0  0  0  0
   29.5974  -19.8421   -7.2802 C   0  0  0  0  0  0  0  0  0  0  0  0
   30.3161  -20.8641   -6.6959 C   0  0  0  0  0  0  0  0  0  0  0  0
   30.7525  -20.7978   -5.3851 C   0  0  0  0  0  0  0  0  0  0  0  0
   30.4821  -19.6939   -4.6041 C   0  0  0  0  0  0  0  0  0  0  0  0
   29.7652  -18.6654   -5.1744 C   0  0  0  0  0  0  0  0  0  0  0  0
   29.3302  -18.7449   -6.4992 C   0  0  0  0  0  0  0  0  0  0  0  0
   26.8498  -20.2081   -7.8018 C   0  0  0  0  0  0  0  0  0  0  0  0
   26.1942  -19.1340   -7.9444 O   0  0  0  0  0  0  0  0  0  0  0  0
   24.0880  -20.9876   -3.1590 C   0  0  0  0  0  0  0  0  0  0  0  0
   23.4624  -20.9168   -4.5576 C   0  0  2  0  0  0  0  0  0  0  0  0
   22.2970  -21.8747   -4.5663 C   0  0  0  0  0  0  0  0  0  0  0  0
   24.5245  -21.3094   -5.5296 C   0  0  0  0  0  0  0  0  0  0  0  0
   25.7107  -20.3931   -5.5823 C   0  0  2  0  0  0  0  0  0  0  0  0
   26.6032  -20.9339   -6.6248 N   0  0  0  0  0  0  0  0  0  0  0  0
   26.4226  -20.2236   -4.3138 C   0  0  0  0  0  0  0  0  0  0  0  0
   26.3965  -19.0245   -3.6155 O   0  0  0  0  0  0  0  0  0  0  0  0
   27.1130  -21.1398   -3.7527 O   0  0  0  0  0  0  0  0  0  0  0  0
  2  3  1  0
  2  1  1  1
  3  4  1  0
  4  5  2  0
  5  6  1  0
  7  6  1  0
  8  7  2  0
  9  8  1  0
 10 11  1  0
 10  9  2  0
 11 12  2  0
 12  4  1  0
 12  7  1  0
 13 14  2  0
 13  2  1  0
 15 13  1  0
 16 15  1  0
 16 17  1  6
 17 18  1  0
 18 23  1  0
 18 19  2  0
 19 20  1  0
 20 21  2  0
 22 21  1  0
 23 22  2  0
 24 31  1  0
 24 16  1  0
 25 24  2  0
 27 26  1  1
 27 28  1  0
 27 29  1  0
 30 29  1  1
 30 32  1  0
 30 31  1  0
 32 33  1  0
 34 32  2  0
M  END
$$$$
