GFY.pdb
     RDKit          3D

 28 29  0  0  1  0  0  0  0  0999 V2000
   30.0461  -23.1568  -15.9704 N   0  0  0  0  0  0  0  0  0  0  0  0
   28.6092  -23.0519  -16.1268 C   0  0  0  0  0  0  0  0  0  0  0  0
   28.0450  -22.0253  -15.2207 C   0  0  0  0  0  0  0  0  0  0  0  0
   28.8170  -21.4977  -14.3792 O   0  0  0  0  0  0  0  0  0  0  0  0
   26.6826  -21.6215  -15.2677 N   0  0  0  0  0  0  0  0  0  0  0  0
   26.1592  -20.6460  -14.3642 C   0  0  1  0  0  0  0  0  0  0  0  0
   25.6296  -19.4200  -15.0844 C   0  0  0  0  0  0  0  0  0  0  0  0
   26.6815  -18.7299  -15.8468 C   0  0  0  0  0  0  0  0  0  0  0  0
   26.8950  -19.0615  -17.1825 C   0  0  0  0  0  0  0  0  0  0  0  0
   27.8704  -18.4360  -17.9306 C   0  0  0  0  0  0  0  0  0  0  0  0
   28.6686  -17.4584  -17.3788 C   0  0  0  0  0  0  0  0  0  0  0  0
   28.4609  -17.1265  -16.0563 C   0  0  0  0  0  0  0  0  0  0  0  0
   27.4840  -17.7543  -15.3101 C   0  0  0  0  0  0  0  0  0  0  0  0
   25.1332  -21.1532  -13.4264 C   0  0  0  0  0  0  0  0  0  0  0  0
   24.4177  -22.1654  -13.6378 O   0  0  0  0  0  0  0  0  0  0  0  0
   29.8075  -20.9335   -8.3714 O   0  0  0  0  0  0  0  0  0  0  0  0
   28.4779  -20.7270   -8.7126 C   0  0  0  0  0  0  0  0  0  0  0  0
   27.7751  -21.7035   -9.3849 C   0  0  0  0  0  0  0  0  0  0  0  0
   26.4608  -21.5629   -9.7507 C   0  0  0  0  0  0  0  0  0  0  0  0
   25.7661  -20.3868   -9.4446 C   0  0  0  0  0  0  0  0  0  0  0  0
   24.3602  -20.2052   -9.8493 C   0  0  0  0  0  0  0  0  0  0  0  0
   24.0766  -20.9345  -11.1466 C   0  0  2  0  0  0  0  0  0  0  0  0
   24.9571  -20.4370  -12.2031 N   0  0  0  0  0  0  0  0  0  0  0  0
   22.6770  -20.6943  -11.5259 C   0  0  0  0  0  0  0  0  0  0  0  0
   22.2849  -20.0197  -12.5104 O   0  0  0  0  0  0  0  0  0  0  0  0
   26.4773  -19.4212   -8.7749 C   0  0  0  0  0  0  0  0  0  0  0  0
   27.8079  -19.5646   -8.4048 C   0  0  0  0  0  0  0  0  0  0  0  0
   21.6610  -21.2442  -10.7560 O   0  0  0  0  0  0  0  0  0  0  0  0
  2  1  1  0
  2  3  1  0
  3  4  2  0
  5  3  1  0
  5  6  1  0
  6  7  1  6
  8  7  1  0
  9  8  2  0
 10  9  1  0
 11 12  1  0
 11 10  2  0
 12 13  2  0
 13  8  1  0
 14  6  1  0
 14 15  2  0
 16 17  1  0
 17 27  2  0
 17 18  1  0
 18 19  2  0
 19 20  1  0
 20 21  1  0
 22 21  1  1
 22 23  1  0
 23 14  1  0
 24 28  1  0
 24 22  1  0
 25 24  2  0
 26 20  2  0
 27 26  1  0
M  END
$$$$
