GFY.pdb
     RDKit          3D

 28 29  0  0  1  0  0  0  0  0999 V2000
   31.6357  -22.1476   -9.2642 N   0  0  0  0  0  0  0  0  0  0  0  0
   30.8561  -21.1756  -10.0042 C   0  0  0  0  0  0  0  0  0  0  0  0
   29.4152  -21.2853   -9.6800 C   0  0  0  0  0  0  0  0  0  0  0  0
   28.8497  -22.3896   -9.8880 O   0  0  0  0  0  0  0  0  0  0  0  0
   28.6604  -20.2031   -9.1503 N   0  0  0  0  0  0  0  0  0  0  0  0
   27.2568  -20.3171   -8.9080 C   0  0  1  0  0  0  0  0  0  0  0  0
   26.8039  -19.4655   -7.7366 C   0  0  0  0  0  0  0  0  0  0  0  0
   27.5343  -19.7912   -6.5020 C   0  0  0  0  0  0  0  0  0  0  0  0
   28.2720  -18.8022   -5.8561 C   0  0  0  0  0  0  0  0  0  0  0  0
   28.9687  -19.0683   -4.6959 C   0  0  0  0  0  0  0  0  0  0  0  0
   28.9577  -20.3266   -4.1356 C   0  0  0  0  0  0  0  0  0  0  0  0
   28.2285  -21.3095   -4.7716 C   0  0  0  0  0  0  0  0  0  0  0  0
   27.5322  -21.0402   -5.9326 C   0  0  0  0  0  0  0  0  0  0  0  0
   26.3982  -20.0443  -10.0818 C   0  0  0  0  0  0  0  0  0  0  0  0
   26.5282  -19.0493  -10.8395 O   0  0  0  0  0  0  0  0  0  0  0  0
   20.6472  -21.8649  -16.5432 O   0  0  0  0  0  0  0  0  0  0  0  0
   21.5440  -21.9397  -15.4863 C   0  0  0  0  0  0  0  0  0  0  0  0
   22.8418  -21.5041  -15.6464 C   0  0  0  0  0  0  0  0  0  0  0  0
   23.7764  -21.5502  -14.6437 C   0  0  0  0  0  0  0  0  0  0  0  0
   23.4343  -22.0567  -13.3843 C   0  0  0  0  0  0  0  0  0  0  0  0
   24.4295  -22.1374  -12.2997 C   0  0  0  0  0  0  0  0  0  0  0  0
   24.4889  -20.8350  -11.5278 C   0  0  2  0  0  0  0  0  0  0  0  0
   25.3590  -20.9836  -10.3618 N   0  0  0  0  0  0  0  0  0  0  0  0
   23.1317  -20.4894  -11.0817 C   0  0  0  0  0  0  0  0  0  0  0  0
   22.2551  -19.9080  -11.7684 O   0  0  0  0  0  0  0  0  0  0  0  0
   22.1385  -22.4879  -13.2374 C   0  0  0  0  0  0  0  0  0  0  0  0
   21.1929  -22.4407  -14.2532 C   0  0  0  0  0  0  0  0  0  0  0  0
   22.7372  -20.8166   -9.7914 O   0  0  0  0  0  0  0  0  0  0  0  0
  2  1  1  0
  2  3  1  0
  3  4  2  0
  5  3  1  0
  5  6  1  0
  6  7  1  1
  8  7  1  0
  9  8  2  0
 10  9  1  0
 11 12  1  0
 11 10  2  0
 12 13  2  0
 13  8  1  0
 14  6  1  0
 14 15  2  0
 16 17  1  0
 17 27  2  0
 17 18  1  0
 18 19  2  0
 19 20  1  0
 20 21  1  0
 22 21  1  1
 22 23  1  0
 23 14  1  0
 24 28  1  0
 24 22  1  0
 25 24  2  0
 26 20  2  0
 27 26  1  0
M  END
$$$$
