GFY.pdb
     RDKit          3D

 28 29  0  0  1  0  0  0  0  0999 V2000
   30.1751  -35.7255  -14.1987 N   0  0  0  0  0  0  0  0  0  0  0  0
   29.4563  -34.4691  -14.1292 C   0  0  0  0  0  0  0  0  0  0  0  0
   28.2734  -34.5766  -13.2446 C   0  0  0  0  0  0  0  0  0  0  0  0
   27.6992  -35.6931  -13.1663 O   0  0  0  0  0  0  0  0  0  0  0  0
   27.7719  -33.4793  -12.4925 N   0  0  0  0  0  0  0  0  0  0  0  0
   26.6202  -33.6085  -11.6566 C   0  0  1  0  0  0  0  0  0  0  0  0
   26.6252  -32.6126  -10.5118 C   0  0  0  0  0  0  0  0  0  0  0  0
   25.4854  -32.8101   -9.6030 C   0  0  0  0  0  0  0  0  0  0  0  0
   25.4860  -33.8876   -8.7207 C   0  0  0  0  0  0  0  0  0  0  0  0
   24.4367  -34.1053   -7.8524 C   0  0  0  0  0  0  0  0  0  0  0  0
   23.3491  -33.2604   -7.8294 C   0  0  0  0  0  0  0  0  0  0  0  0
   23.3439  -32.1918   -8.7015 C   0  0  0  0  0  0  0  0  0  0  0  0
   24.3955  -31.9765   -9.5693 C   0  0  0  0  0  0  0  0  0  0  0  0
   25.3242  -33.5417  -12.3676 C   0  0  0  0  0  0  0  0  0  0  0  0
   24.9276  -32.5471  -13.0269 O   0  0  0  0  0  0  0  0  0  0  0  0
   18.0807  -35.7320  -16.6404 O   0  0  0  0  0  0  0  0  0  0  0  0
   19.3261  -35.7113  -16.0276 C   0  0  0  0  0  0  0  0  0  0  0  0
   19.6563  -36.6720  -15.0961 C   0  0  0  0  0  0  0  0  0  0  0  0
   20.8681  -36.7084  -14.4549 C   0  0  0  0  0  0  0  0  0  0  0  0
   21.8417  -35.7417  -14.7328 C   0  0  0  0  0  0  0  0  0  0  0  0
   23.1418  -35.7482  -14.0379 C   0  0  0  0  0  0  0  0  0  0  0  0
   23.1635  -34.7148  -12.9302 C   0  0  2  0  0  0  0  0  0  0  0  0
   24.4798  -34.6915  -12.2934 N   0  0  0  0  0  0  0  0  0  0  0  0
   22.1459  -35.0728  -11.9318 C   0  0  0  0  0  0  0  0  0  0  0  0
   22.3337  -35.7715  -10.9048 O   0  0  0  0  0  0  0  0  0  0  0  0
   21.5007  -34.7897  -15.6624 C   0  0  0  0  0  0  0  0  0  0  0  0
   20.2735  -34.7538  -16.3111 C   0  0  0  0  0  0  0  0  0  0  0  0
   20.8442  -34.6192  -12.0964 O   0  0  0  0  0  0  0  0  0  0  0  0
  2  1  1  0
  2  3  1  0
  3  4  2  0
  5  3  1  0
  5  6  1  0
  6  7  1  1
  8  7  1  0
  9  8  2  0
 10  9  1  0
 11 12  1  0
 11 10  2  0
 12 13  2  0
 13  8  1  0
 14  6  1  0
 14 15  2  0
 16 17  1  0
 17 27  2  0
 17 18  1  0
 18 19  2  0
 19 20  1  0
 20 21  1  0
 22 21  1  6
 22 23  1  0
 23 14  1  0
 24 28  1  0
 24 22  1  0
 25 24  2  0
 26 20  2  0
 27 26  1  0
M  END
$$$$
