GFY.pdb
     RDKit          3D

 28 29  0  0  1  0  0  0  0  0999 V2000
   27.6200  -22.5463  -18.2294 N   0  0  0  0  0  0  0  0  0  0  0  0
   27.7732  -21.4026  -17.3526 C   0  0  0  0  0  0  0  0  0  0  0  0
   27.0586  -21.6096  -16.0720 C   0  0  0  0  0  0  0  0  0  0  0  0
   26.0009  -22.2902  -16.0940 O   0  0  0  0  0  0  0  0  0  0  0  0
   27.5190  -21.0743  -14.8380 N   0  0  0  0  0  0  0  0  0  0  0  0
   26.6949  -21.0680  -13.6707 C   0  0  1  0  0  0  0  0  0  0  0  0
   27.4914  -20.8105  -12.4051 C   0  0  0  0  0  0  0  0  0  0  0  0
   26.6274  -20.7179  -11.2181 C   0  0  0  0  0  0  0  0  0  0  0  0
   26.0385  -21.8698  -10.7026 C   0  0  0  0  0  0  0  0  0  0  0  0
   25.2237  -21.8239   -9.5906 C   0  0  0  0  0  0  0  0  0  0  0  0
   24.9648  -20.6318   -8.9508 C   0  0  0  0  0  0  0  0  0  0  0  0
   25.5458  -19.4882   -9.4576 C   0  0  0  0  0  0  0  0  0  0  0  0
   26.3608  -19.5373  -10.5706 C   0  0  0  0  0  0  0  0  0  0  0  0
   25.5410  -20.1435  -13.7283 C   0  0  0  0  0  0  0  0  0  0  0  0
   25.6357  -18.9010  -13.8969 O   0  0  0  0  0  0  0  0  0  0  0  0
   21.7985  -23.7152  -18.4296 O   0  0  0  0  0  0  0  0  0  0  0  0
   21.9771  -22.6565  -17.5498 C   0  0  0  0  0  0  0  0  0  0  0  0
   23.1249  -21.8955  -17.6049 C   0  0  0  0  0  0  0  0  0  0  0  0
   23.3629  -20.8372  -16.7658 C   0  0  0  0  0  0  0  0  0  0  0  0
   22.4197  -20.4821  -15.7944 C   0  0  0  0  0  0  0  0  0  0  0  0
   22.6657  -19.3632  -14.8667 C   0  0  0  0  0  0  0  0  0  0  0  0
   23.0439  -19.8782  -13.4929 C   0  0  2  0  0  0  0  0  0  0  0  0
   24.2398  -20.7150  -13.5840 N   0  0  0  0  0  0  0  0  0  0  0  0
   21.9289  -20.6780  -12.9662 C   0  0  0  0  0  0  0  0  0  0  0  0
   20.7568  -20.2707  -12.7704 O   0  0  0  0  0  0  0  0  0  0  0  0
   21.2804  -21.2480  -15.7492 C   0  0  0  0  0  0  0  0  0  0  0  0
   21.0402  -22.3193  -16.5993 C   0  0  0  0  0  0  0  0  0  0  0  0
   22.1430  -22.0110  -12.6424 O   0  0  0  0  0  0  0  0  0  0  0  0
  2  1  1  0
  2  3  1  0
  3  4  2  0
  5  3  1  0
  5  6  1  0
  6  7  1  1
  8  7  1  0
  9  8  2  0
 10  9  1  0
 11 12  1  0
 11 10  2  0
 12 13  2  0
 13  8  1  0
 14  6  1  0
 14 15  2  0
 16 17  1  0
 17 27  2  0
 17 18  1  0
 18 19  2  0
 19 20  1  0
 20 21  1  0
 22 21  1  6
 22 23  1  0
 23 14  1  0
 24 28  1  0
 24 22  1  0
 25 24  2  0
 26 20  2  0
 27 26  1  0
M  END
$$$$
