GFY.pdb
     RDKit          3D

 28 29  0  0  1  0  0  0  0  0999 V2000
   28.8270  -22.2554  -14.0891 N   0  0  0  0  0  0  0  0  0  0  0  0
   29.3452  -21.2443  -13.1894 C   0  0  0  0  0  0  0  0  0  0  0  0
   28.8684  -21.4639  -11.8046 C   0  0  0  0  0  0  0  0  0  0  0  0
   27.8617  -22.2002  -11.6408 O   0  0  0  0  0  0  0  0  0  0  0  0
   29.4988  -20.8808  -10.6715 N   0  0  0  0  0  0  0  0  0  0  0  0
   28.8509  -20.8276   -9.3990 C   0  0  1  0  0  0  0  0  0  0  0  0
   29.7418  -20.2336   -8.3239 C   0  0  0  0  0  0  0  0  0  0  0  0
   29.0606  -20.1570   -7.0223 C   0  0  0  0  0  0  0  0  0  0  0  0
   28.2134  -19.0858   -6.7497 C   0  0  0  0  0  0  0  0  0  0  0  0
   27.5558  -18.9797   -5.5419 C   0  0  0  0  0  0  0  0  0  0  0  0
   27.7162  -19.9339   -4.5616 C   0  0  0  0  0  0  0  0  0  0  0  0
   28.5542  -20.9967   -4.8269 C   0  0  0  0  0  0  0  0  0  0  0  0
   29.2110  -21.1003   -6.0366 C   0  0  0  0  0  0  0  0  0  0  0  0
   27.5413  -20.1389   -9.3955 C   0  0  0  0  0  0  0  0  0  0  0  0
   27.3760  -18.9283   -9.6927 O   0  0  0  0  0  0  0  0  0  0  0  0
   19.5714  -19.6102  -12.6341 O   0  0  0  0  0  0  0  0  0  0  0  0
   20.8198  -20.0012  -12.1699 C   0  0  0  0  0  0  0  0  0  0  0  0
   21.9425  -19.2754  -12.5052 C   0  0  0  0  0  0  0  0  0  0  0  0
   23.2035  -19.6073  -12.0802 C   0  0  0  0  0  0  0  0  0  0  0  0
   23.4003  -20.7290  -11.2661 C   0  0  0  0  0  0  0  0  0  0  0  0
   24.7498  -21.1174  -10.8175 C   0  0  0  0  0  0  0  0  0  0  0  0
   25.0507  -20.5326   -9.4526 C   0  0  2  0  0  0  0  0  0  0  0  0
   26.3981  -20.9140   -9.0309 N   0  0  0  0  0  0  0  0  0  0  0  0
   24.0723  -21.0570   -8.4893 C   0  0  0  0  0  0  0  0  0  0  0  0
   22.9205  -20.5992   -8.2844 O   0  0  0  0  0  0  0  0  0  0  0  0
   22.2740  -21.4441  -10.9392 C   0  0  0  0  0  0  0  0  0  0  0  0
   20.9977  -21.1072  -11.3699 C   0  0  0  0  0  0  0  0  0  0  0  0
   24.4066  -22.1586   -7.7133 O   0  0  0  0  0  0  0  0  0  0  0  0
  2  1  1  0
  2  3  1  0
  3  4  2  0
  5  3  1  0
  5  6  1  0
  6  7  1  1
  8  7  1  0
  9  8  2  0
 10  9  1  0
 11 12  1  0
 11 10  2  0
 12 13  2  0
 13  8  1  0
 14  6  1  0
 14 15  2  0
 16 17  1  0
 17 27  2  0
 17 18  1  0
 18 19  2  0
 19 20  1  0
 20 21  1  0
 22 21  1  6
 22 23  1  0
 23 14  1  0
 24 28  1  0
 24 22  1  0
 25 24  2  0
 26 20  2  0
 27 26  1  0
M  END
$$$$
