GFY.pdb
     RDKit          3D

 28 29  0  0  1  0  0  0  0  0999 V2000
   17.9164  -10.8030  -15.9140 N   0  0  0  0  0  0  0  0  0  0  0  0
   17.6648   -9.3830  -15.7711 C   0  0  0  0  0  0  0  0  0  0  0  0
   18.0113   -8.9115  -14.4106 C   0  0  0  0  0  0  0  0  0  0  0  0
   17.7023   -9.6475  -13.4384 O   0  0  0  0  0  0  0  0  0  0  0  0
   18.6707   -7.6754  -14.1686 N   0  0  0  0  0  0  0  0  0  0  0  0
   18.9754   -7.2363  -12.8434 C   0  0  1  0  0  0  0  0  0  0  0  0
   20.4315   -6.8381  -12.6894 C   0  0  0  0  0  0  0  0  0  0  0  0
   21.3450   -7.9096  -13.1153 C   0  0  0  0  0  0  0  0  0  0  0  0
   21.7197   -8.8973  -12.2078 C   0  0  0  0  0  0  0  0  0  0  0  0
   22.5728   -9.9189  -12.5698 C   0  0  0  0  0  0  0  0  0  0  0  0
   23.0843   -9.9960  -13.8464 C   0  0  0  0  0  0  0  0  0  0  0  0
   22.7161   -9.0201  -14.7488 C   0  0  0  0  0  0  0  0  0  0  0  0
   21.8622   -7.9989  -14.3836 C   0  0  0  0  0  0  0  0  0  0  0  0
   18.1073   -6.1527  -12.3316 C   0  0  0  0  0  0  0  0  0  0  0  0
   17.9252   -5.0543  -12.9159 O   0  0  0  0  0  0  0  0  0  0  0  0
   13.1919  -10.5236   -8.8415 O   0  0  0  0  0  0  0  0  0  0  0  0
   13.6786   -9.3319   -9.3612 C   0  0  0  0  0  0  0  0  0  0  0  0
   13.7888   -8.2186   -8.5563 C   0  0  0  0  0  0  0  0  0  0  0  0
   14.2614   -7.0125   -9.0068 C   0  0  0  0  0  0  0  0  0  0  0  0
   14.6606   -6.8658  -10.3405 C   0  0  0  0  0  0  0  0  0  0  0  0
   15.1491   -5.5722  -10.8516 C   0  0  0  0  0  0  0  0  0  0  0  0
   16.6002   -5.3585  -10.4717 C   0  0  2  0  0  0  0  0  0  0  0  0
   17.4363   -6.3854  -11.0922 N   0  0  0  0  0  0  0  0  0  0  0  0
   16.7227   -5.4486   -9.0098 C   0  0  0  0  0  0  0  0  0  0  0  0
   16.1546   -4.7018   -8.1745 O   0  0  0  0  0  0  0  0  0  0  0  0
   14.5457   -7.9821  -11.1325 C   0  0  0  0  0  0  0  0  0  0  0  0
   14.0672   -9.2028  -10.6754 C   0  0  0  0  0  0  0  0  0  0  0  0
   17.5281   -6.4341   -8.4553 O   0  0  0  0  0  0  0  0  0  0  0  0
  2  1  1  0
  2  3  1  0
  3  4  2  0
  5  3  1  0
  5  6  1  0
  6  7  1  6
  8  7  1  0
  9  8  2  0
 10  9  1  0
 11 12  1  0
 11 10  2  0
 12 13  2  0
 13  8  1  0
 14  6  1  0
 14 15  2  0
 16 17  1  0
 17 27  2  0
 17 18  1  0
 18 19  2  0
 19 20  1  0
 20 21  1  0
 22 21  1  1
 22 23  1  0
 23 14  1  0
 24 28  1  0
 24 22  1  0
 25 24  2  0
 26 20  2  0
 27 26  1  0
M  END
$$$$
