GFY.pdb
     RDKit          3D

 28 29  0  0  1  0  0  0  0  0999 V2000
   27.9953  -23.0206  -17.8206 N   0  0  0  0  0  0  0  0  0  0  0  0
   27.5919  -21.7025  -17.3733 C   0  0  0  0  0  0  0  0  0  0  0  0
   26.8686  -21.7725  -16.0829 C   0  0  0  0  0  0  0  0  0  0  0  0
   26.0773  -22.7343  -15.9056 O   0  0  0  0  0  0  0  0  0  0  0  0
   27.0346  -20.8060  -15.0536 N   0  0  0  0  0  0  0  0  0  0  0  0
   26.2379  -20.8309  -13.8676 C   0  0  1  0  0  0  0  0  0  0  0  0
   26.9297  -20.1605  -12.6952 C   0  0  0  0  0  0  0  0  0  0  0  0
   26.2282  -20.4065  -11.4258 C   0  0  0  0  0  0  0  0  0  0  0  0
   26.6482  -21.4429  -10.5957 C   0  0  0  0  0  0  0  0  0  0  0  0
   26.0172  -21.7037   -9.3973 C   0  0  0  0  0  0  0  0  0  0  0  0
   24.9462  -20.9444   -8.9805 C   0  0  0  0  0  0  0  0  0  0  0  0
   24.5265  -19.9168   -9.7992 C   0  0  0  0  0  0  0  0  0  0  0  0
   25.1600  -19.6581  -10.9980 C   0  0  0  0  0  0  0  0  0  0  0  0
   24.8741  -20.2780  -14.0220 C   0  0  0  0  0  0  0  0  0  0  0  0
   24.6212  -19.1258  -14.4574 O   0  0  0  0  0  0  0  0  0  0  0  0
   23.0130  -18.8075  -19.8051 O   0  0  0  0  0  0  0  0  0  0  0  0
   22.6649  -19.3886  -18.5935 C   0  0  0  0  0  0  0  0  0  0  0  0
   23.3674  -20.4752  -18.1187 C   0  0  0  0  0  0  0  0  0  0  0  0
   23.0753  -21.0950  -16.9307 C   0  0  0  0  0  0  0  0  0  0  0  0
   22.0212  -20.6316  -16.1347 C   0  0  0  0  0  0  0  0  0  0  0  0
   21.6750  -21.2976  -14.8659 C   0  0  0  0  0  0  0  0  0  0  0  0
   22.3997  -20.6491  -13.7041 C   0  0  2  0  0  0  0  0  0  0  0  0
   23.7827  -21.1215  -13.6506 N   0  0  0  0  0  0  0  0  0  0  0  0
   21.7120  -21.0136  -12.4573 C   0  0  0  0  0  0  0  0  0  0  0  0
   20.5564  -20.6546  -12.1200 O   0  0  0  0  0  0  0  0  0  0  0  0
   21.3286  -19.5487  -16.6187 C   0  0  0  0  0  0  0  0  0  0  0  0
   21.6253  -18.9217  -17.8215 C   0  0  0  0  0  0  0  0  0  0  0  0
   22.3591  -21.8285  -11.5382 O   0  0  0  0  0  0  0  0  0  0  0  0
  2  1  1  0
  2  3  1  0
  3  4  2  0
  5  3  1  0
  5  6  1  0
  6  7  1  1
  8  7  1  0
  9  8  2  0
 10  9  1  0
 11 12  1  0
 11 10  2  0
 12 13  2  0
 13  8  1  0
 14  6  1  0
 14 15  2  0
 16 17  1  0
 17 27  2  0
 17 18  1  0
 18 19  2  0
 19 20  1  0
 20 21  1  0
 22 21  1  6
 22 23  1  0
 23 14  1  0
 24 28  1  0
 24 22  1  0
 25 24  2  0
 26 20  2  0
 27 26  1  0
M  END
$$$$
