GFY.pdb
     RDKit          3D

 28 29  0  0  1  0  0  0  0  0999 V2000
   26.4661  -12.1973  -20.0714 N   0  0  0  0  0  0  0  0  0  0  0  0
   25.8210  -10.9109  -19.9010 C   0  0  0  0  0  0  0  0  0  0  0  0
   25.3097  -10.7462  -18.5209 C   0  0  0  0  0  0  0  0  0  0  0  0
   24.4870  -11.5972  -18.0948 O   0  0  0  0  0  0  0  0  0  0  0  0
   25.7100   -9.6769  -17.6738 N   0  0  0  0  0  0  0  0  0  0  0  0
   25.0412   -9.4087  -16.4399 C   0  0  1  0  0  0  0  0  0  0  0  0
   25.9782   -9.4857  -15.2487 C   0  0  0  0  0  0  0  0  0  0  0  0
   26.7482  -10.7390  -15.2320 C   0  0  0  0  0  0  0  0  0  0  0  0
   26.2056  -11.8735  -14.6336 C   0  0  0  0  0  0  0  0  0  0  0  0
   26.8960  -13.0670  -14.5992 C   0  0  0  0  0  0  0  0  0  0  0  0
   28.1502  -13.1764  -15.1581 C   0  0  0  0  0  0  0  0  0  0  0  0
   28.6918  -12.0556  -15.7519 C   0  0  0  0  0  0  0  0  0  0  0  0
   27.9985  -10.8624  -15.7848 C   0  0  0  0  0  0  0  0  0  0  0  0
   24.2931   -8.1326  -16.4017 C   0  0  0  0  0  0  0  0  0  0  0  0
   24.7467   -7.0323  -16.8078 O   0  0  0  0  0  0  0  0  0  0  0  0
   20.9617   -1.3437  -18.7313 O   0  0  0  0  0  0  0  0  0  0  0  0
   21.1429   -2.6910  -18.4505 C   0  0  0  0  0  0  0  0  0  0  0  0
   22.3977   -3.1727  -18.1455 C   0  0  0  0  0  0  0  0  0  0  0  0
   22.6445   -4.4909  -17.8586 C   0  0  0  0  0  0  0  0  0  0  0  0
   21.5988   -5.4215  -17.8658 C   0  0  0  0  0  0  0  0  0  0  0  0
   21.8458   -6.8472  -17.5837 C   0  0  0  0  0  0  0  0  0  0  0  0
   22.0227   -7.0773  -16.0966 C   0  0  2  0  0  0  0  0  0  0  0  0
   22.9685   -8.1691  -15.8683 N   0  0  0  0  0  0  0  0  0  0  0  0
   20.7198   -7.4323  -15.5165 C   0  0  0  0  0  0  0  0  0  0  0  0
   20.1965   -8.5744  -15.5216 O   0  0  0  0  0  0  0  0  0  0  0  0
   20.3534   -4.9293  -18.1715 C   0  0  0  0  0  0  0  0  0  0  0  0
   20.1044   -3.5944  -18.4616 C   0  0  0  0  0  0  0  0  0  0  0  0
   19.9626   -6.4487  -14.8947 O   0  0  0  0  0  0  0  0  0  0  0  0
  2  1  1  0
  2  3  1  0
  3  4  2  0
  5  3  1  0
  5  6  1  0
  6  7  1  1
  8  7  1  0
  9  8  2  0
 10  9  1  0
 11 12  1  0
 11 10  2  0
 12 13  2  0
 13  8  1  0
 14  6  1  0
 14 15  2  0
 16 17  1  0
 17 27  2  0
 17 18  1  0
 18 19  2  0
 19 20  1  0
 20 21  1  0
 22 21  1  6
 22 23  1  0
 23 14  1  0
 24 28  1  0
 24 22  1  0
 25 24  2  0
 26 20  2  0
 27 26  1  0
M  END
$$$$
