GFY.pdb
     RDKit          3D

 28 29  0  0  1  0  0  0  0  0999 V2000
   24.2179   -8.6072  -21.9477 N   0  0  0  0  0  0  0  0  0  0  0  0
   24.2377   -8.9253  -20.5340 C   0  0  0  0  0  0  0  0  0  0  0  0
   23.1716   -8.1992  -19.8063 C   0  0  0  0  0  0  0  0  0  0  0  0
   23.3185   -6.9621  -19.6320 O   0  0  0  0  0  0  0  0  0  0  0  0
   22.0062   -8.8414  -19.3055 N   0  0  0  0  0  0  0  0  0  0  0  0
   20.9821   -8.1115  -18.6272 C   0  0  1  0  0  0  0  0  0  0  0  0
   19.5995   -8.4184  -19.1717 C   0  0  0  0  0  0  0  0  0  0  0  0
   19.4318   -7.9420  -20.5533 C   0  0  0  0  0  0  0  0  0  0  0  0
   18.9419   -6.6592  -20.7855 C   0  0  0  0  0  0  0  0  0  0  0  0
   18.7723   -6.1761  -22.0662 C   0  0  0  0  0  0  0  0  0  0  0  0
   19.0832   -6.9501  -23.1624 C   0  0  0  0  0  0  0  0  0  0  0  0
   19.5687   -8.2213  -22.9375 C   0  0  0  0  0  0  0  0  0  0  0  0
   19.7375   -8.7020  -21.6547 C   0  0  0  0  0  0  0  0  0  0  0  0
   20.9810   -8.2622  -17.1551 C   0  0  0  0  0  0  0  0  0  0  0  0
   20.6212   -9.3037  -16.5493 O   0  0  0  0  0  0  0  0  0  0  0  0
   26.9425  -10.1813  -16.1327 O   0  0  0  0  0  0  0  0  0  0  0  0
   25.9123   -9.3644  -15.6874 C   0  0  0  0  0  0  0  0  0  0  0  0
   25.6688   -8.1568  -16.3054 C   0  0  0  0  0  0  0  0  0  0  0  0
   24.6681   -7.3041  -15.9152 C   0  0  0  0  0  0  0  0  0  0  0  0
   23.8336   -7.6408  -14.8430 C   0  0  0  0  0  0  0  0  0  0  0  0
   22.7672   -6.7283  -14.3919 C   0  0  0  0  0  0  0  0  0  0  0  0
   21.4198   -7.1735  -14.9227 C   0  0  2  0  0  0  0  0  0  0  0  0
   21.4232   -7.1434  -16.3849 N   0  0  0  0  0  0  0  0  0  0  0  0
   20.3883   -6.2555  -14.4192 C   0  0  0  0  0  0  0  0  0  0  0  0
   19.7257   -5.4407  -15.1087 O   0  0  0  0  0  0  0  0  0  0  0  0
   24.0864   -8.8463  -14.2352 C   0  0  0  0  0  0  0  0  0  0  0  0
   25.0998   -9.7091  -14.6310 C   0  0  0  0  0  0  0  0  0  0  0  0
   20.0835   -6.2537  -13.0648 O   0  0  0  0  0  0  0  0  0  0  0  0
  2  1  1  0
  2  3  1  0
  3  4  2  0
  5  3  1  0
  5  6  1  0
  6  7  1  6
  8  7  1  0
  9  8  2  0
 10  9  1  0
 11 12  1  0
 11 10  2  0
 12 13  2  0
 13  8  1  0
 14  6  1  0
 14 15  2  0
 16 17  1  0
 17 27  2  0
 17 18  1  0
 18 19  2  0
 19 20  1  0
 20 21  1  0
 22 21  1  1
 22 23  1  0
 23 14  1  0
 24 28  1  0
 24 22  1  0
 25 24  2  0
 26 20  2  0
 27 26  1  0
M  END
$$$$
