GFY.pdb
     RDKit          3D

 28 29  0  0  1  0  0  0  0  0999 V2000
   29.7379  -22.3092  -13.7932 N   0  0  0  0  0  0  0  0  0  0  0  0
   30.1017  -21.3319  -12.7869 C   0  0  0  0  0  0  0  0  0  0  0  0
   29.4668  -21.6412  -11.4851 C   0  0  0  0  0  0  0  0  0  0  0  0
   28.4022  -22.3113  -11.4964 O   0  0  0  0  0  0  0  0  0  0  0  0
   30.0099  -21.2140  -10.2426 N   0  0  0  0  0  0  0  0  0  0  0  0
   29.1751  -20.9367   -9.1165 C   0  0  1  0  0  0  0  0  0  0  0  0
   29.9449  -20.3066   -7.9706 C   0  0  0  0  0  0  0  0  0  0  0  0
   29.1070  -20.1276   -6.7749 C   0  0  0  0  0  0  0  0  0  0  0  0
   28.2312  -19.0472   -6.7022 C   0  0  0  0  0  0  0  0  0  0  0  0
   27.4284  -18.8464   -5.5988 C   0  0  0  0  0  0  0  0  0  0  0  0
   27.4668  -19.7118   -4.5278 C   0  0  0  0  0  0  0  0  0  0  0  0
   28.3326  -20.7834   -4.5951 C   0  0  0  0  0  0  0  0  0  0  0  0
   29.1348  -20.9817   -5.7007 C   0  0  0  0  0  0  0  0  0  0  0  0
   27.9758  -20.1233   -9.4158 C   0  0  0  0  0  0  0  0  0  0  0  0
   27.9850  -19.0756  -10.1111 O   0  0  0  0  0  0  0  0  0  0  0  0
   20.3385  -19.5169  -13.2670 O   0  0  0  0  0  0  0  0  0  0  0  0
   21.5309  -19.8707  -12.6507 C   0  0  0  0  0  0  0  0  0  0  0  0
   22.6752  -19.1384  -12.8831 C   0  0  0  0  0  0  0  0  0  0  0  0
   23.8838  -19.4343  -12.3065 C   0  0  0  0  0  0  0  0  0  0  0  0
   24.0011  -20.5236  -11.4351 C   0  0  0  0  0  0  0  0  0  0  0  0
   25.2957  -20.8737  -10.8230 C   0  0  0  0  0  0  0  0  0  0  0  0
   25.4553  -20.1931   -9.4789 C   0  0  2  0  0  0  0  0  0  0  0  0
   26.7322  -20.5719   -8.8747 N   0  0  0  0  0  0  0  0  0  0  0  0
   24.3560  -20.6193   -8.6014 C   0  0  0  0  0  0  0  0  0  0  0  0
   24.3652  -21.6179   -7.8392 O   0  0  0  0  0  0  0  0  0  0  0  0
   22.8541  -21.2456  -11.2118 C   0  0  0  0  0  0  0  0  0  0  0  0
   21.6308  -20.9451  -11.7960 C   0  0  0  0  0  0  0  0  0  0  0  0
   23.1804  -19.8811   -8.5783 O   0  0  0  0  0  0  0  0  0  0  0  0
  2  1  1  0
  2  3  1  0
  3  4  2  0
  5  3  1  0
  5  6  1  0
  6  7  1  1
  8  7  1  0
  9  8  2  0
 10  9  1  0
 11 12  1  0
 11 10  2  0
 12 13  2  0
 13  8  1  0
 14  6  1  0
 14 15  2  0
 16 17  1  0
 17 27  2  0
 17 18  1  0
 18 19  2  0
 19 20  1  0
 20 21  1  0
 22 21  1  6
 22 23  1  0
 23 14  1  0
 24 28  1  0
 24 22  1  0
 25 24  2  0
 26 20  2  0
 27 26  1  0
M  END
$$$$
