GFY.pdb
     RDKit          3D

 28 29  0  0  1  0  0  0  0  0999 V2000
   27.8044  -22.9981  -16.4495 N   0  0  0  0  0  0  0  0  0  0  0  0
   27.4945  -21.6685  -15.9636 C   0  0  0  0  0  0  0  0  0  0  0  0
   26.7386  -21.7255  -14.6913 C   0  0  0  0  0  0  0  0  0  0  0  0
   26.0276  -22.7407  -14.4766 O   0  0  0  0  0  0  0  0  0  0  0  0
   26.7877  -20.6891  -13.7193 N   0  0  0  0  0  0  0  0  0  0  0  0
   25.8534  -20.6304  -12.6397 C   0  0  1  0  0  0  0  0  0  0  0  0
   26.4327  -19.9492  -11.4137 C   0  0  0  0  0  0  0  0  0  0  0  0
   27.7266  -20.5278  -11.0201 C   0  0  0  0  0  0  0  0  0  0  0  0
   27.8652  -21.1173   -9.7660 C   0  0  0  0  0  0  0  0  0  0  0  0
   29.0616  -21.6717   -9.3614 C   0  0  0  0  0  0  0  0  0  0  0  0
   30.1633  -21.6604  -10.1882 C   0  0  0  0  0  0  0  0  0  0  0  0
   30.0309  -21.0777  -11.4312 C   0  0  0  0  0  0  0  0  0  0  0  0
   28.8323  -20.5236  -11.8334 C   0  0  0  0  0  0  0  0  0  0  0  0
   24.5489  -20.0192  -12.9778 C   0  0  0  0  0  0  0  0  0  0  0  0
   24.4130  -18.9594  -13.6406 O   0  0  0  0  0  0  0  0  0  0  0  0
   17.1075  -20.0915  -17.1679 O   0  0  0  0  0  0  0  0  0  0  0  0
   18.3021  -20.3491  -16.5095 C   0  0  0  0  0  0  0  0  0  0  0  0
   19.3743  -19.4964  -16.6601 C   0  0  0  0  0  0  0  0  0  0  0  0
   20.5808  -19.6931  -16.0383 C   0  0  0  0  0  0  0  0  0  0  0  0
   20.7711  -20.8006  -15.2036 C   0  0  0  0  0  0  0  0  0  0  0  0
   22.0671  -21.0440  -14.5444 C   0  0  0  0  0  0  0  0  0  0  0  0
   22.0727  -20.4689  -13.1427 C   0  0  2  0  0  0  0  0  0  0  0  0
   23.3754  -20.6903  -12.5162 N   0  0  0  0  0  0  0  0  0  0  0  0
   21.0318  -21.1423  -12.3531 C   0  0  0  0  0  0  0  0  0  0  0  0
   21.0398  -22.3469  -11.9968 O   0  0  0  0  0  0  0  0  0  0  0  0
   19.6955  -21.6430  -15.0619 C   0  0  0  0  0  0  0  0  0  0  0  0
   18.4743  -21.4429  -15.6917 C   0  0  0  0  0  0  0  0  0  0  0  0
   19.9200  -20.4209  -11.9396 O   0  0  0  0  0  0  0  0  0  0  0  0
  2  1  1  0
  2  3  1  0
  3  4  2  0
  5  3  1  0
  5  6  1  0
  6  7  1  1
  8  7  1  0
  9  8  2  0
 10  9  1  0
 11 12  1  0
 11 10  2  0
 12 13  2  0
 13  8  1  0
 14  6  1  0
 14 15  2  0
 16 17  1  0
 17 27  2  0
 17 18  1  0
 18 19  2  0
 19 20  1  0
 20 21  1  0
 22 21  1  6
 22 23  1  0
 23 14  1  0
 24 28  1  0
 24 22  1  0
 25 24  2  0
 26 20  2  0
 27 26  1  0
M  END
$$$$
