GFY.pdb
     RDKit          3D

 28 29  0  0  1  0  0  0  0  0999 V2000
   21.9046  -20.4191   -9.0400 N   0  0  0  0  0  0  0  0  0  0  0  0
   23.0103  -21.3332   -9.2449 C   0  0  0  0  0  0  0  0  0  0  0  0
   24.0694  -20.7158  -10.0758 C   0  0  0  0  0  0  0  0  0  0  0  0
   23.8019  -19.6327  -10.6571 O   0  0  0  0  0  0  0  0  0  0  0  0
   25.3576  -21.2952  -10.2370 N   0  0  0  0  0  0  0  0  0  0  0  0
   26.3387  -20.7118  -11.0965 C   0  0  1  0  0  0  0  0  0  0  0  0
   27.7459  -20.8614  -10.5489 C   0  0  0  0  0  0  0  0  0  0  0  0
   27.8518  -20.3859   -9.1609 C   0  0  0  0  0  0  0  0  0  0  0  0
   27.1859  -19.2244   -8.7774 C   0  0  0  0  0  0  0  0  0  0  0  0
   27.2596  -18.7477   -7.4852 C   0  0  0  0  0  0  0  0  0  0  0  0
   27.9974  -19.4078   -6.5275 C   0  0  0  0  0  0  0  0  0  0  0  0
   28.6586  -20.5587   -6.9025 C   0  0  0  0  0  0  0  0  0  0  0  0
   28.5831  -21.0333   -8.1964 C   0  0  0  0  0  0  0  0  0  0  0  0
   26.2983  -21.1841  -12.4983 C   0  0  0  0  0  0  0  0  0  0  0  0
   26.3597  -22.3923  -12.8414 O   0  0  0  0  0  0  0  0  0  0  0  0
   19.8394  -21.5563  -13.3524 O   0  0  0  0  0  0  0  0  0  0  0  0
   21.0623  -21.1545  -13.8721 C   0  0  0  0  0  0  0  0  0  0  0  0
   21.3486  -19.8137  -14.0131 C   0  0  0  0  0  0  0  0  0  0  0  0
   22.5363  -19.3505  -14.5187 C   0  0  0  0  0  0  0  0  0  0  0  0
   23.5296  -20.2509  -14.9215 C   0  0  0  0  0  0  0  0  0  0  0  0
   24.8040  -19.7752  -15.4897 C   0  0  0  0  0  0  0  0  0  0  0  0
   25.9706  -20.5553  -14.9187 C   0  0  2  0  0  0  0  0  0  0  0  0
   26.1786  -20.1908  -13.5178 N   0  0  0  0  0  0  0  0  0  0  0  0
   27.1781  -20.2298  -15.6910 C   0  0  0  0  0  0  0  0  0  0  0  0
   28.1120  -19.4772  -15.3175 O   0  0  0  0  0  0  0  0  0  0  0  0
   23.2323  -21.5841  -14.7763 C   0  0  0  0  0  0  0  0  0  0  0  0
   22.0295  -22.0520  -14.2641 C   0  0  0  0  0  0  0  0  0  0  0  0
   27.3460  -20.7821  -16.9536 O   0  0  0  0  0  0  0  0  0  0  0  0
  2  1  1  0
  2  3  1  0
  3  4  2  0
  5  3  1  0
  5  6  1  0
  6  7  1  1
  8  7  1  0
  9  8  2  0
 10  9  1  0
 11 12  1  0
 11 10  2  0
 12 13  2  0
 13  8  1  0
 14  6  1  0
 14 15  2  0
 16 17  1  0
 17 27  2  0
 17 18  1  0
 18 19  2  0
 19 20  1  0
 20 21  1  0
 22 21  1  6
 22 23  1  0
 23 14  1  0
 24 28  1  0
 24 22  1  0
 25 24  2  0
 26 20  2  0
 27 26  1  0
M  END
$$$$
