GFY.pdb
     RDKit          3D

 28 29  0  0  1  0  0  0  0  0999 V2000
   31.4889  -22.4581   -9.8326 N   0  0  0  0  0  0  0  0  0  0  0  0
   30.6842  -21.3316  -10.2612 C   0  0  0  0  0  0  0  0  0  0  0  0
   29.3216  -21.3959   -9.6846 C   0  0  0  0  0  0  0  0  0  0  0  0
   28.6875  -22.4765   -9.7975 O   0  0  0  0  0  0  0  0  0  0  0  0
   28.7147  -20.2964   -9.0183 N   0  0  0  0  0  0  0  0  0  0  0  0
   27.3373  -20.3188   -8.6387 C   0  0  1  0  0  0  0  0  0  0  0  0
   27.0569  -19.4357   -7.4370 C   0  0  0  0  0  0  0  0  0  0  0  0
   27.9370  -19.7524   -6.3016 C   0  0  0  0  0  0  0  0  0  0  0  0
   27.7063  -20.9022   -5.5504 C   0  0  0  0  0  0  0  0  0  0  0  0
   28.5102  -21.2339   -4.4798 C   0  0  0  0  0  0  0  0  0  0  0  0
   29.5723  -20.4352   -4.1171 C   0  0  0  0  0  0  0  0  0  0  0  0
   29.8048  -19.2954   -4.8581 C   0  0  0  0  0  0  0  0  0  0  0  0
   28.9985  -18.9661   -5.9290 C   0  0  0  0  0  0  0  0  0  0  0  0
   26.3866  -19.9952   -9.7255 C   0  0  0  0  0  0  0  0  0  0  0  0
   26.4283  -18.9441  -10.4144 O   0  0  0  0  0  0  0  0  0  0  0  0
   20.3714  -21.5080  -15.9708 O   0  0  0  0  0  0  0  0  0  0  0  0
   21.3686  -21.6247  -15.0122 C   0  0  0  0  0  0  0  0  0  0  0  0
   21.1000  -22.2284  -13.8026 C   0  0  0  0  0  0  0  0  0  0  0  0
   22.0392  -22.3756  -12.8141 C   0  0  0  0  0  0  0  0  0  0  0  0
   23.3430  -21.9033  -13.0049 C   0  0  0  0  0  0  0  0  0  0  0  0
   24.3616  -22.0297  -11.9467 C   0  0  0  0  0  0  0  0  0  0  0  0
   24.4248  -20.7687  -11.1092 C   0  0  2  0  0  0  0  0  0  0  0  0
   25.3610  -20.9508  -10.0005 N   0  0  0  0  0  0  0  0  0  0  0  0
   23.0845  -20.4907  -10.5740 C   0  0  0  0  0  0  0  0  0  0  0  0
   22.6195  -20.9208   -9.4891 O   0  0  0  0  0  0  0  0  0  0  0  0
   23.5981  -21.3034  -14.2139 C   0  0  0  0  0  0  0  0  0  0  0  0
   22.6466  -21.1550  -15.2142 C   0  0  0  0  0  0  0  0  0  0  0  0
   22.2182  -19.6831  -11.2984 O   0  0  0  0  0  0  0  0  0  0  0  0
  2  1  1  0
  2  3  1  0
  3  4  2  0
  5  3  1  0
  5  6  1  0
  6  7  1  1
  8  7  1  0
  9  8  2  0
 10  9  1  0
 11 12  1  0
 11 10  2  0
 12 13  2  0
 13  8  1  0
 14  6  1  0
 14 15  2  0
 16 17  1  0
 17 27  2  0
 17 18  1  0
 18 19  2  0
 19 20  1  0
 20 21  1  0
 22 21  1  1
 22 23  1  0
 23 14  1  0
 24 28  1  0
 24 22  1  0
 25 24  2  0
 26 20  2  0
 27 26  1  0
M  END
$$$$
