GFY.pdb
     RDKit          3D

 28 29  0  0  1  0  0  0  0  0999 V2000
   26.7426  -23.4083  -17.3325 N   0  0  0  0  0  0  0  0  0  0  0  0
   26.9558  -22.2179  -16.5340 C   0  0  0  0  0  0  0  0  0  0  0  0
   26.0455  -22.1856  -15.3662 C   0  0  0  0  0  0  0  0  0  0  0  0
   25.2047  -23.1143  -15.2523 O   0  0  0  0  0  0  0  0  0  0  0  0
   26.0880  -21.1579  -14.3848 N   0  0  0  0  0  0  0  0  0  0  0  0
   25.1533  -21.1149  -13.3049 C   0  0  1  0  0  0  0  0  0  0  0  0
   25.7030  -20.3795  -12.0967 C   0  0  0  0  0  0  0  0  0  0  0  0
   24.8834  -20.6008  -10.8954 C   0  0  0  0  0  0  0  0  0  0  0  0
   23.7011  -19.8845  -10.7260 C   0  0  0  0  0  0  0  0  0  0  0  0
   22.9050  -20.0652   -9.6143 C   0  0  0  0  0  0  0  0  0  0  0  0
   23.2548  -20.9640   -8.6309 C   0  0  0  0  0  0  0  0  0  0  0  0
   24.4248  -21.6758   -8.7942 C   0  0  0  0  0  0  0  0  0  0  0  0
   25.2195  -21.4928   -9.9078 C   0  0  0  0  0  0  0  0  0  0  0  0
   23.8225  -20.5706  -13.6546 C   0  0  0  0  0  0  0  0  0  0  0  0
   23.6017  -19.3658  -13.9392 O   0  0  0  0  0  0  0  0  0  0  0  0
   23.2373  -18.3422  -19.3160 O   0  0  0  0  0  0  0  0  0  0  0  0
   22.6745  -19.1303  -18.3214 C   0  0  0  0  0  0  0  0  0  0  0  0
   21.4969  -18.7469  -17.7166 C   0  0  0  0  0  0  0  0  0  0  0  0
   20.8890  -19.4792  -16.7291 C   0  0  0  0  0  0  0  0  0  0  0  0
   21.4609  -20.6781  -16.2875 C   0  0  0  0  0  0  0  0  0  0  0  0
   20.8370  -21.4687  -15.2109 C   0  0  0  0  0  0  0  0  0  0  0  0
   21.3503  -21.0284  -13.8552 C   0  0  2  0  0  0  0  0  0  0  0  0
   22.7265  -21.4866  -13.6682 N   0  0  0  0  0  0  0  0  0  0  0  0
   20.4957  -21.6165  -12.8140 C   0  0  0  0  0  0  0  0  0  0  0  0
   19.2797  -21.3621  -12.6271 O   0  0  0  0  0  0  0  0  0  0  0  0
   22.6343  -21.0492  -16.8976 C   0  0  0  0  0  0  0  0  0  0  0  0
   23.2488  -20.3072  -17.8975 C   0  0  0  0  0  0  0  0  0  0  0  0
   21.0377  -22.5436  -11.9341 O   0  0  0  0  0  0  0  0  0  0  0  0
  2  1  1  0
  2  3  1  0
  3  4  2  0
  5  3  1  0
  5  6  1  0
  6  7  1  1
  8  7  1  0
  9  8  2  0
 10  9  1  0
 11 12  1  0
 11 10  2  0
 12 13  2  0
 13  8  1  0
 14  6  1  0
 14 15  2  0
 16 17  1  0
 17 27  2  0
 17 18  1  0
 18 19  2  0
 19 20  1  0
 20 21  1  0
 22 21  1  6
 22 23  1  0
 23 14  1  0
 24 28  1  0
 24 22  1  0
 25 24  2  0
 26 20  2  0
 27 26  1  0
M  END
$$$$
