KEG.pdb
     RDKit          3D

 23 22  0  0  1  0  0  0  0  0999 V2000
    8.8500  -14.1903   22.3089 N   0  0  0  0  0  0  0  0  0  0  0  0
    7.8409  -15.1968   22.4797 C   0  0  1  0  0  0  0  0  0  0  0  0
    7.2685  -15.6060   21.1838 C   0  0  0  0  0  0  0  0  0  0  0  0
    6.9892  -14.4822   20.2713 C   0  0  0  0  0  0  0  0  0  0  0  0
    7.9477  -14.2284   19.1651 C   0  0  0  0  0  0  0  0  0  0  0  0
    7.3993  -13.1265   18.2298 C   0  0  0  0  0  0  0  0  0  0  0  0
    8.3822  -12.9019   17.2089 N   0  0  0  0  0  0  0  0  0  0  0  0
    8.3762  -16.3653   23.2515 C   0  0  0  0  0  0  0  0  0  0  0  0
    7.6858  -17.3797   23.4685 O   0  0  0  0  0  0  0  0  0  0  0  0
    9.6867  -16.3599   23.7623 N   0  0  0  0  0  0  0  0  0  0  0  0
   10.3862  -17.3727   24.4399 C   0  0  1  0  0  0  0  0  0  0  0  0
   11.7402  -17.7801   23.9454 C   0  0  0  0  0  0  0  0  0  0  0  0
   11.8376  -17.9667   22.4611 C   0  0  0  0  0  0  0  0  0  0  0  0
   13.0710  -17.2974   21.8954 C   0  0  0  0  0  0  0  0  0  0  0  0
   13.9402  -16.8040   22.6573 O   0  0  0  0  0  0  0  0  0  0  0  0
   10.2669  -17.2252   25.8904 C   0  0  0  0  0  0  0  0  0  0  0  0
   10.4100  -16.0811   26.3988 O   0  0  0  0  0  0  0  0  0  0  0  0
   13.2646  -17.2189   20.5433 O   0  0  0  0  0  0  0  0  0  0  0  0
    9.9992  -18.2769   26.7934 N   0  0  0  0  0  0  0  0  0  0  0  0
    9.9069  -18.0559   28.2329 C   0  0  0  0  0  0  0  0  0  0  0  0
   10.8835  -18.9183   28.9486 C   0  0  0  0  0  0  0  0  0  0  0  0
   10.9499  -18.9643   30.3178 O   0  0  0  0  0  0  0  0  0  0  0  0
   11.6831  -19.6361   28.2982 O   0  0  0  0  0  0  0  0  0  0  0  0
  2  1  1  6
  2  8  1  0
  3  2  1  0
  4  3  1  0
  5  4  1  0
  6  5  1  0
  7  6  1  0
  8  9  2  0
 10  8  1  0
 10 11  1  0
 11 12  1  1
 12 13  1  0
 13 14  1  0
 14 18  1  0
 15 14  2  0
 16 17  2  0
 16 11  1  0
 19 16  1  0
 20 19  1  0
 21 20  1  0
 21 22  1  0
 23 21  2  0
M  END
$$$$
