KEG.pdb
     RDKit          3D

 23 22  0  0  1  0  0  0  0  0999 V2000
    6.3080  -14.1347   22.3458 N   0  0  0  0  0  0  0  0  0  0  0  0
    7.4517  -14.4916   21.5550 C   0  0  1  0  0  0  0  0  0  0  0  0
    7.6958  -13.5016   20.4898 C   0  0  0  0  0  0  0  0  0  0  0  0
    7.4628  -14.0176   19.1284 C   0  0  0  0  0  0  0  0  0  0  0  0
    8.5835  -13.9479   18.1558 C   0  0  0  0  0  0  0  0  0  0  0  0
    8.0858  -14.3332   16.7439 C   0  0  0  0  0  0  0  0  0  0  0  0
    9.1965  -14.1979   15.8457 N   0  0  0  0  0  0  0  0  0  0  0  0
    8.6585  -14.6941   22.4211 C   0  0  0  0  0  0  0  0  0  0  0  0
    9.2246  -13.7409   22.9902 O   0  0  0  0  0  0  0  0  0  0  0  0
    9.1997  -15.9761   22.6253 N   0  0  0  0  0  0  0  0  0  0  0  0
   10.3420  -16.3595   23.3481 C   0  0  1  0  0  0  0  0  0  0  0  0
   10.2042  -17.3648   24.4500 C   0  0  0  0  0  0  0  0  0  0  0  0
   11.4811  -17.6966   25.1618 C   0  0  0  0  0  0  0  0  0  0  0  0
   11.2587  -18.7137   26.2596 C   0  0  0  0  0  0  0  0  0  0  0  0
   10.1207  -19.2102   26.4539 O   0  0  0  0  0  0  0  0  0  0  0  0
   11.4930  -16.5506   22.4656 C   0  0  0  0  0  0  0  0  0  0  0  0
   11.3382  -17.1998   21.3968 O   0  0  0  0  0  0  0  0  0  0  0  0
   12.2934  -19.1142   27.0603 O   0  0  0  0  0  0  0  0  0  0  0  0
   12.7937  -16.0600   22.7114 N   0  0  0  0  0  0  0  0  0  0  0  0
   13.9060  -16.3293   21.8060 C   0  0  0  0  0  0  0  0  0  0  0  0
   15.1737  -15.8068   22.3799 C   0  0  0  0  0  0  0  0  0  0  0  0
   15.2142  -15.1537   23.5853 O   0  0  0  0  0  0  0  0  0  0  0  0
   16.2543  -15.9569   21.7577 O   0  0  0  0  0  0  0  0  0  0  0  0
  2  1  1  1
  2  8  1  0
  3  2  1  0
  4  3  1  0
  5  4  1  0
  6  5  1  0
  7  6  1  0
  8  9  2  0
 10  8  1  0
 10 11  1  0
 11 12  1  6
 12 13  1  0
 13 14  1  0
 14 18  1  0
 15 14  2  0
 16 17  2  0
 16 11  1  0
 19 16  1  0
 20 19  1  0
 21 20  1  0
 21 22  1  0
 23 21  2  0
M  END
$$$$
