KEG.pdb
     RDKit          3D

 23 22  0  0  1  0  0  0  0  0999 V2000
    6.8161  -18.6922   20.8337 N   0  0  0  0  0  0  0  0  0  0  0  0
    8.1256  -19.2669   20.9598 C   0  0  1  0  0  0  0  0  0  0  0  0
    8.7770  -19.4079   19.6445 C   0  0  0  0  0  0  0  0  0  0  0  0
    8.5387  -18.2731   18.7339 C   0  0  0  0  0  0  0  0  0  0  0  0
    9.2058  -18.2929   17.4067 C   0  0  0  0  0  0  0  0  0  0  0  0
    8.8617  -17.0073   16.6203 C   0  0  0  0  0  0  0  0  0  0  0  0
    9.5828  -17.0566   15.3809 N   0  0  0  0  0  0  0  0  0  0  0  0
    8.9647  -18.4797   21.9210 C   0  0  0  0  0  0  0  0  0  0  0  0
    8.6342  -17.3389   22.2980 O   0  0  0  0  0  0  0  0  0  0  0  0
   10.1639  -19.0035   22.4366 N   0  0  0  0  0  0  0  0  0  0  0  0
   11.0737  -18.4306   23.3410 C   0  0  1  0  0  0  0  0  0  0  0  0
   11.6050  -19.2635   24.4670 C   0  0  0  0  0  0  0  0  0  0  0  0
   10.5631  -19.7800   25.4131 C   0  0  0  0  0  0  0  0  0  0  0  0
   11.1793  -20.5942   26.5297 C   0  0  0  0  0  0  0  0  0  0  0  0
   12.1768  -20.1648   27.1622 O   0  0  0  0  0  0  0  0  0  0  0  0
   12.0643  -17.6047   22.6507 C   0  0  0  0  0  0  0  0  0  0  0  0
   12.5373  -18.0108   21.5556 O   0  0  0  0  0  0  0  0  0  0  0  0
   10.6604  -21.8125   26.8736 O   0  0  0  0  0  0  0  0  0  0  0  0
   12.5495  -16.3625   23.1141 N   0  0  0  0  0  0  0  0  0  0  0  0
   13.3556  -15.4842   22.2725 C   0  0  0  0  0  0  0  0  0  0  0  0
   14.7780  -15.9153   22.2943 C   0  0  0  0  0  0  0  0  0  0  0  0
   15.7651  -15.2062   21.6586 O   0  0  0  0  0  0  0  0  0  0  0  0
   15.1089  -16.9597   22.9084 O   0  0  0  0  0  0  0  0  0  0  0  0
  2  1  1  6
  2  8  1  0
  3  2  1  0
  4  3  1  0
  5  4  1  0
  6  5  1  0
  7  6  1  0
  8  9  2  0
 10  8  1  0
 10 11  1  0
 11 12  1  6
 12 13  1  0
 13 14  1  0
 14 18  1  0
 15 14  2  0
 16 17  2  0
 16 11  1  0
 19 16  1  0
 20 19  1  0
 21 20  1  0
 21 22  1  0
 23 21  2  0
M  END
$$$$
