KEG.pdb
     RDKit          3D

 23 22  0  0  1  0  0  0  0  0999 V2000
    9.9863  -16.7994   17.0366 N   0  0  0  0  0  0  0  0  0  0  0  0
   10.8426  -15.8421   17.6777 C   0  0  1  0  0  0  0  0  0  0  0  0
   10.1040  -15.0484   18.6772 C   0  0  0  0  0  0  0  0  0  0  0  0
    8.8483  -14.4659   18.1697 C   0  0  0  0  0  0  0  0  0  0  0  0
    8.0174  -13.6732   19.1120 C   0  0  0  0  0  0  0  0  0  0  0  0
    6.8084  -13.0612   18.3680 C   0  0  0  0  0  0  0  0  0  0  0  0
    6.0037  -12.3823   19.3427 N   0  0  0  0  0  0  0  0  0  0  0  0
   12.0453  -16.5130   18.2702 C   0  0  0  0  0  0  0  0  0  0  0  0
   12.1608  -17.7536   18.2903 O   0  0  0  0  0  0  0  0  0  0  0  0
   13.0951  -15.7618   18.8286 N   0  0  0  0  0  0  0  0  0  0  0  0
   14.3150  -16.1975   19.3729 C   0  0  1  0  0  0  0  0  0  0  0  0
   15.5359  -15.3472   19.1997 C   0  0  0  0  0  0  0  0  0  0  0  0
   15.7158  -14.7779   17.8246 C   0  0  0  0  0  0  0  0  0  0  0  0
   16.5085  -13.4895   17.8545 C   0  0  0  0  0  0  0  0  0  0  0  0
   16.2347  -12.5489   17.0672 O   0  0  0  0  0  0  0  0  0  0  0  0
   14.1310  -16.7655   20.7084 C   0  0  0  0  0  0  0  0  0  0  0  0
   15.0479  -17.4785   21.1972 O   0  0  0  0  0  0  0  0  0  0  0  0
   17.5370  -13.3230   18.7412 O   0  0  0  0  0  0  0  0  0  0  0  0
   12.9892  -16.5813   21.5180 N   0  0  0  0  0  0  0  0  0  0  0  0
   12.7667  -17.3618   22.7308 C   0  0  0  0  0  0  0  0  0  0  0  0
   13.4523  -16.7239   23.8852 C   0  0  0  0  0  0  0  0  0  0  0  0
   13.3347  -17.2092   25.1626 O   0  0  0  0  0  0  0  0  0  0  0  0
   14.1672  -15.7066   23.7078 O   0  0  0  0  0  0  0  0  0  0  0  0
  2  1  1  1
  2  8  1  0
  3  2  1  0
  4  3  1  0
  5  4  1  0
  6  5  1  0
  7  6  1  0
  8  9  2  0
 10  8  1  0
 10 11  1  0
 11 12  1  1
 12 13  1  0
 13 14  1  0
 14 18  1  0
 15 14  2  0
 16 17  2  0
 16 11  1  0
 19 16  1  0
 20 19  1  0
 21 20  1  0
 21 22  1  0
 23 21  2  0
M  END
$$$$
