KEG.pdb
     RDKit          3D

 23 22  0  0  1  0  0  0  0  0999 V2000
    9.9588  -16.0156   16.5103 N   0  0  0  0  0  0  0  0  0  0  0  0
   10.4590  -15.0040   17.3976 C   0  0  1  0  0  0  0  0  0  0  0  0
    9.4071  -14.5298   18.3158 C   0  0  0  0  0  0  0  0  0  0  0  0
    8.2554  -13.9085   17.6366 C   0  0  0  0  0  0  0  0  0  0  0  0
    7.1791  -13.3284   18.4803 C   0  0  0  0  0  0  0  0  0  0  0  0
    6.0956  -12.6810   17.5877 C   0  0  0  0  0  0  0  0  0  0  0  0
    5.0739  -12.1699   18.4557 N   0  0  0  0  0  0  0  0  0  0  0  0
   11.6705  -15.4907   18.1346 C   0  0  0  0  0  0  0  0  0  0  0  0
   11.8232  -16.6932   18.4234 O   0  0  0  0  0  0  0  0  0  0  0  0
   12.6867  -14.6021   18.5294 N   0  0  0  0  0  0  0  0  0  0  0  0
   13.8482  -14.8491   19.2803 C   0  0  1  0  0  0  0  0  0  0  0  0
   15.1292  -14.1822   18.8827 C   0  0  0  0  0  0  0  0  0  0  0  0
   15.5083  -14.3565   17.4428 C   0  0  0  0  0  0  0  0  0  0  0  0
   17.0074  -14.2898   17.2495 C   0  0  0  0  0  0  0  0  0  0  0  0
   17.7255  -13.6121   18.0272 O   0  0  0  0  0  0  0  0  0  0  0  0
   13.5646  -14.8565   20.7154 C   0  0  0  0  0  0  0  0  0  0  0  0
   12.8561  -13.9338   21.1997 O   0  0  0  0  0  0  0  0  0  0  0  0
   17.6102  -14.9682   16.2257 O   0  0  0  0  0  0  0  0  0  0  0  0
   14.0256  -15.8296   21.6284 N   0  0  0  0  0  0  0  0  0  0  0  0
   13.6296  -15.8220   23.0328 C   0  0  0  0  0  0  0  0  0  0  0  0
   14.2920  -16.9368   23.7594 C   0  0  0  0  0  0  0  0  0  0  0  0
   14.2032  -17.0747   25.1212 O   0  0  0  0  0  0  0  0  0  0  0  0
   14.9596  -17.7913   23.1257 O   0  0  0  0  0  0  0  0  0  0  0  0
  2  1  1  1
  2  8  1  0
  3  2  1  0
  4  3  1  0
  5  4  1  0
  6  5  1  0
  7  6  1  0
  8  9  2  0
 10  8  1  0
 10 11  1  0
 11 12  1  1
 12 13  1  0
 13 14  1  0
 14 18  1  0
 15 14  2  0
 16 17  2  0
 16 11  1  0
 19 16  1  0
 20 19  1  0
 21 20  1  0
 21 22  1  0
 23 21  2  0
M  END
$$$$
