KEG.pdb
     RDKit          3D

 23 22  0  0  1  0  0  0  0  0999 V2000
    8.7699  -17.1184   19.0850 N   0  0  0  0  0  0  0  0  0  0  0  0
   10.1006  -16.6675   19.3797 C   0  0  1  0  0  0  0  0  0  0  0  0
   10.1112  -15.2425   19.7585 C   0  0  0  0  0  0  0  0  0  0  0  0
    8.8652  -14.5264   19.4292 C   0  0  0  0  0  0  0  0  0  0  0  0
    8.7491  -13.1042   19.8425 C   0  0  0  0  0  0  0  0  0  0  0  0
    7.3641  -12.5464   19.4420 C   0  0  0  0  0  0  0  0  0  0  0  0
    7.3364  -11.1605   19.8124 N   0  0  0  0  0  0  0  0  0  0  0  0
   10.7387  -17.5317   20.4254 C   0  0  0  0  0  0  0  0  0  0  0  0
   10.0736  -18.3353   21.1072 O   0  0  0  0  0  0  0  0  0  0  0  0
   12.1210  -17.4674   20.6770 N   0  0  0  0  0  0  0  0  0  0  0  0
   12.9127  -18.2584   21.5265 C   0  0  1  0  0  0  0  0  0  0  0  0
   14.3710  -18.4187   21.2241 C   0  0  0  0  0  0  0  0  0  0  0  0
   15.0721  -19.4608   22.0425 C   0  0  0  0  0  0  0  0  0  0  0  0
   16.5444  -19.5385   21.7027 C   0  0  0  0  0  0  0  0  0  0  0  0
   17.3198  -20.2682   22.3703 O   0  0  0  0  0  0  0  0  0  0  0  0
   12.5864  -18.0228   22.9329 C   0  0  0  0  0  0  0  0  0  0  0  0
   12.8773  -16.9093   23.4461 O   0  0  0  0  0  0  0  0  0  0  0  0
   17.0592  -18.8173   20.6602 O   0  0  0  0  0  0  0  0  0  0  0  0
   11.9593  -18.9555   23.7873 N   0  0  0  0  0  0  0  0  0  0  0  0
   11.5556  -18.6100   25.1464 C   0  0  0  0  0  0  0  0  0  0  0  0
   12.6008  -19.0317   26.1156 C   0  0  0  0  0  0  0  0  0  0  0  0
   12.4568  -18.8525   27.4678 O   0  0  0  0  0  0  0  0  0  0  0  0
   13.6580  -19.5713   25.7048 O   0  0  0  0  0  0  0  0  0  0  0  0
  2  1  1  1
  2  8  1  0
  3  2  1  0
  4  3  1  0
  5  4  1  0
  6  5  1  0
  7  6  1  0
  8  9  2  0
 10  8  1  0
 10 11  1  0
 11 12  1  1
 12 13  1  0
 13 14  1  0
 14 18  1  0
 15 14  2  0
 16 17  2  0
 16 11  1  0
 19 16  1  0
 20 19  1  0
 21 20  1  0
 21 22  1  0
 23 21  2  0
M  END
$$$$
