KEG.pdb
     RDKit          3D

 23 22  0  0  1  0  0  0  0  0999 V2000
   11.1123  -16.4741   17.4907 N   0  0  0  0  0  0  0  0  0  0  0  0
   10.2303  -16.8460   18.5605 C   0  0  1  0  0  0  0  0  0  0  0  0
    9.4153  -18.0203   18.1984 C   0  0  0  0  0  0  0  0  0  0  0  0
    8.6091  -17.8360   16.9778 C   0  0  0  0  0  0  0  0  0  0  0  0
    7.7735  -18.9742   16.5165 C   0  0  0  0  0  0  0  0  0  0  0  0
    7.1385  -18.6455   15.1459 C   0  0  0  0  0  0  0  0  0  0  0  0
    6.4120  -19.8070   14.7200 N   0  0  0  0  0  0  0  0  0  0  0  0
   10.9939  -17.0625   19.8323 C   0  0  0  0  0  0  0  0  0  0  0  0
   10.4211  -17.3567   20.8991 O   0  0  0  0  0  0  0  0  0  0  0  0
   12.3947  -16.9414   19.8685 N   0  0  0  0  0  0  0  0  0  0  0  0
   13.2868  -17.1936   20.9243 C   0  0  1  0  0  0  0  0  0  0  0  0
   14.7429  -17.3724   20.6217 C   0  0  0  0  0  0  0  0  0  0  0  0
   15.0496  -18.4413   19.6164 C   0  0  0  0  0  0  0  0  0  0  0  0
   16.5370  -18.5607   19.3665 C   0  0  0  0  0  0  0  0  0  0  0  0
   17.1422  -17.7049   18.6731 O   0  0  0  0  0  0  0  0  0  0  0  0
   12.9862  -16.3595   22.0879 C   0  0  0  0  0  0  0  0  0  0  0  0
   13.2895  -15.1369   22.0539 O   0  0  0  0  0  0  0  0  0  0  0  0
   17.2520  -19.6016   19.8930 O   0  0  0  0  0  0  0  0  0  0  0  0
   12.3716  -16.8140   23.2748 N   0  0  0  0  0  0  0  0  0  0  0  0
   12.0322  -15.9072   24.3665 C   0  0  0  0  0  0  0  0  0  0  0  0
   11.3768  -16.6556   25.4710 C   0  0  0  0  0  0  0  0  0  0  0  0
   10.9464  -16.0366   26.6168 O   0  0  0  0  0  0  0  0  0  0  0  0
   11.2018  -17.8954   25.3730 O   0  0  0  0  0  0  0  0  0  0  0  0
  2  1  1  6
  2  8  1  0
  3  2  1  0
  4  3  1  0
  5  4  1  0
  6  5  1  0
  7  6  1  0
  8  9  2  0
 10  8  1  0
 10 11  1  0
 11 12  1  6
 12 13  1  0
 13 14  1  0
 14 18  1  0
 15 14  2  0
 16 17  2  0
 16 11  1  0
 19 16  1  0
 20 19  1  0
 21 20  1  0
 21 22  1  0
 23 21  2  0
M  END
$$$$
