KEG.pdb
     RDKit          3D

 23 22  0  0  1  0  0  0  0  0999 V2000
    5.4343  -18.6637   22.6012 N   0  0  0  0  0  0  0  0  0  0  0  0
    5.6054  -19.6685   23.6121 C   0  0  1  0  0  0  0  0  0  0  0  0
    5.2356  -21.0037   23.1075 C   0  0  0  0  0  0  0  0  0  0  0  0
    4.1384  -20.9886   22.1227 C   0  0  0  0  0  0  0  0  0  0  0  0
    3.6642  -22.2910   21.5883 C   0  0  0  0  0  0  0  0  0  0  0  0
    2.4860  -22.0672   20.6128 C   0  0  0  0  0  0  0  0  0  0  0  0
    2.1257  -23.3474   20.0744 N   0  0  0  0  0  0  0  0  0  0  0  0
    7.0000  -19.6419   24.1618 C   0  0  0  0  0  0  0  0  0  0  0  0
    7.4177  -20.5269   24.9332 O   0  0  0  0  0  0  0  0  0  0  0  0
    7.8946  -18.6105   23.8243 N   0  0  0  0  0  0  0  0  0  0  0  0
    9.2131  -18.3930   24.2586 C   0  0  1  0  0  0  0  0  0  0  0  0
   10.1246  -17.5448   23.4258 C   0  0  0  0  0  0  0  0  0  0  0  0
   10.2519  -17.9754   21.9955 C   0  0  0  0  0  0  0  0  0  0  0  0
   11.2272  -17.1031   21.2360 C   0  0  0  0  0  0  0  0  0  0  0  0
   11.8071  -16.1435   21.8038 O   0  0  0  0  0  0  0  0  0  0  0  0
    9.2663  -18.1430   25.6990 C   0  0  0  0  0  0  0  0  0  0  0  0
    8.3490  -17.4631   26.2321 O   0  0  0  0  0  0  0  0  0  0  0  0
   11.4983  -17.3441   19.9167 O   0  0  0  0  0  0  0  0  0  0  0  0
   10.2792  -18.6071   26.5659 N   0  0  0  0  0  0  0  0  0  0  0  0
   10.2771  -18.3000   27.9925 C   0  0  0  0  0  0  0  0  0  0  0  0
   10.0126  -19.5310   28.7826 C   0  0  0  0  0  0  0  0  0  0  0  0
   10.1152  -19.5562   30.1501 O   0  0  0  0  0  0  0  0  0  0  0  0
    9.6833  -20.5935   28.1995 O   0  0  0  0  0  0  0  0  0  0  0  0
  2  1  1  6
  2  8  1  0
  3  2  1  0
  4  3  1  0
  5  4  1  0
  6  5  1  0
  7  6  1  0
  8  9  2  0
 10  8  1  0
 10 11  1  0
 11 12  1  6
 12 13  1  0
 13 14  1  0
 14 18  1  0
 15 14  2  0
 16 17  2  0
 16 11  1  0
 19 16  1  0
 20 19  1  0
 21 20  1  0
 21 22  1  0
 23 21  2  0
M  END
$$$$
