KEG.pdb
     RDKit          3D

 23 22  0  0  1  0  0  0  0  0999 V2000
   11.1120  -21.4577   17.8491 N   0  0  0  0  0  0  0  0  0  0  0  0
   12.3894  -20.8125   17.7364 C   0  0  1  0  0  0  0  0  0  0  0  0
   12.3555  -19.7295   16.7363 C   0  0  0  0  0  0  0  0  0  0  0  0
   11.8712  -20.1544   15.4101 C   0  0  0  0  0  0  0  0  0  0  0  0
   11.8156  -19.1364   14.3298 C   0  0  0  0  0  0  0  0  0  0  0  0
   11.2235  -19.7582   13.0443 C   0  0  0  0  0  0  0  0  0  0  0  0
   11.2856  -18.7590   12.0165 N   0  0  0  0  0  0  0  0  0  0  0  0
   12.8634  -20.3278   19.0736 C   0  0  0  0  0  0  0  0  0  0  0  0
   12.0975  -19.7557   19.8729 O   0  0  0  0  0  0  0  0  0  0  0  0
   14.1990  -20.5026   19.4783 N   0  0  0  0  0  0  0  0  0  0  0  0
   14.8311  -20.1077   20.6694 C   0  0  1  0  0  0  0  0  0  0  0  0
   16.0392  -20.8593   21.1376 C   0  0  0  0  0  0  0  0  0  0  0  0
   15.8173  -22.3233   21.3718 C   0  0  0  0  0  0  0  0  0  0  0  0
   17.0679  -23.0006   21.8881 C   0  0  0  0  0  0  0  0  0  0  0  0
   17.2532  -23.1521   23.1219 O   0  0  0  0  0  0  0  0  0  0  0  0
   14.9220  -18.6509   20.7679 C   0  0  0  0  0  0  0  0  0  0  0  0
   15.0261  -17.9755   19.7092 O   0  0  0  0  0  0  0  0  0  0  0  0
   18.0199  -23.4632   21.0212 O   0  0  0  0  0  0  0  0  0  0  0  0
   14.9033  -17.9167   21.9736 N   0  0  0  0  0  0  0  0  0  0  0  0
   14.8400  -16.4589   21.9907 C   0  0  0  0  0  0  0  0  0  0  0  0
   14.7375  -15.9656   23.3892 C   0  0  0  0  0  0  0  0  0  0  0  0
   14.6987  -14.6280   23.6899 O   0  0  0  0  0  0  0  0  0  0  0  0
   14.6836  -16.7826   24.3416 O   0  0  0  0  0  0  0  0  0  0  0  0
  2  1  1  1
  2  8  1  0
  3  2  1  0
  4  3  1  0
  5  4  1  0
  6  5  1  0
  7  6  1  0
  8  9  2  0
 10  8  1  0
 10 11  1  0
 11 12  1  6
 12 13  1  0
 13 14  1  0
 14 18  1  0
 15 14  2  0
 16 17  2  0
 16 11  1  0
 19 16  1  0
 20 19  1  0
 21 20  1  0
 21 22  1  0
 23 21  2  0
M  END
$$$$
