KEG.pdb
     RDKit          3D

 23 22  0  0  1  0  0  0  0  0999 V2000
    5.8392  -16.8135   22.3882 N   0  0  0  0  0  0  0  0  0  0  0  0
    7.1436  -16.2578   22.1631 C   0  0  1  0  0  0  0  0  0  0  0  0
    7.0581  -14.8531   21.7230 C   0  0  0  0  0  0  0  0  0  0  0  0
    7.0562  -14.6838   20.2583 C   0  0  0  0  0  0  0  0  0  0  0  0
    7.7026  -13.4699   19.6966 C   0  0  0  0  0  0  0  0  0  0  0  0
    7.5640  -13.4589   18.1570 C   0  0  0  0  0  0  0  0  0  0  0  0
    8.1571  -12.2420   17.6816 N   0  0  0  0  0  0  0  0  0  0  0  0
    8.0085  -16.4145   23.3776 C   0  0  0  0  0  0  0  0  0  0  0  0
    7.5212  -16.5653   24.5145 O   0  0  0  0  0  0  0  0  0  0  0  0
    9.4113  -16.3975   23.2779 N   0  0  0  0  0  0  0  0  0  0  0  0
   10.3806  -16.4732   24.2922 C   0  0  1  0  0  0  0  0  0  0  0  0
   11.8175  -16.6648   23.9150 C   0  0  0  0  0  0  0  0  0  0  0  0
   12.7713  -16.7038   25.0708 C   0  0  0  0  0  0  0  0  0  0  0  0
   14.2016  -16.8727   24.6072 C   0  0  0  0  0  0  0  0  0  0  0  0
   14.6703  -18.0153   24.3743 O   0  0  0  0  0  0  0  0  0  0  0  0
   10.1345  -15.4833   25.3408 C   0  0  0  0  0  0  0  0  0  0  0  0
    9.8092  -14.3125   25.0070 O   0  0  0  0  0  0  0  0  0  0  0  0
   15.0113  -15.7841   24.4302 O   0  0  0  0  0  0  0  0  0  0  0  0
   10.2316  -15.7293   26.7275 N   0  0  0  0  0  0  0  0  0  0  0  0
    9.9743  -14.6887   27.7177 C   0  0  0  0  0  0  0  0  0  0  0  0
   10.2177  -15.2118   29.0877 C   0  0  0  0  0  0  0  0  0  0  0  0
   10.1198  -14.4159   30.2005 O   0  0  0  0  0  0  0  0  0  0  0  0
   10.5242  -16.4182   29.2546 O   0  0  0  0  0  0  0  0  0  0  0  0
  2  1  1  1
  2  8  1  0
  3  2  1  0
  4  3  1  0
  5  4  1  0
  6  5  1  0
  7  6  1  0
  8  9  2  0
 10  8  1  0
 10 11  1  0
 11 12  1  6
 12 13  1  0
 13 14  1  0
 14 18  1  0
 15 14  2  0
 16 17  2  0
 16 11  1  0
 19 16  1  0
 20 19  1  0
 21 20  1  0
 21 22  1  0
 23 21  2  0
M  END
$$$$
