KEG.pdb
     RDKit          3D

 23 22  0  0  1  0  0  0  0  0999 V2000
    7.4945  -17.5877   21.5118 N   0  0  0  0  0  0  0  0  0  0  0  0
    8.5158  -16.5906   21.6649 C   0  0  1  0  0  0  0  0  0  0  0  0
    7.9360  -15.2788   22.0075 C   0  0  0  0  0  0  0  0  0  0  0  0
    7.2502  -14.6156   20.8833 C   0  0  0  0  0  0  0  0  0  0  0  0
    7.9412  -13.4818   20.2172 C   0  0  0  0  0  0  0  0  0  0  0  0
    7.0932  -12.9656   19.0321 C   0  0  0  0  0  0  0  0  0  0  0  0
    7.8094  -11.8752   18.4349 N   0  0  0  0  0  0  0  0  0  0  0  0
    9.5449  -17.0281   22.6636 C   0  0  0  0  0  0  0  0  0  0  0  0
    9.2602  -17.7905   23.6072 O   0  0  0  0  0  0  0  0  0  0  0  0
   10.8787  -16.5917   22.5713 N   0  0  0  0  0  0  0  0  0  0  0  0
   11.9572  -16.8231   23.4417 C   0  0  1  0  0  0  0  0  0  0  0  0
   13.3084  -16.2814   23.0886 C   0  0  0  0  0  0  0  0  0  0  0  0
   14.3937  -16.6105   24.0690 C   0  0  0  0  0  0  0  0  0  0  0  0
   15.7324  -16.0656   23.6216 C   0  0  0  0  0  0  0  0  0  0  0  0
   16.7613  -16.2349   24.3231 O   0  0  0  0  0  0  0  0  0  0  0  0
   11.5604  -16.6557   24.8397 C   0  0  0  0  0  0  0  0  0  0  0  0
   11.1342  -15.5326   25.2201 O   0  0  0  0  0  0  0  0  0  0  0  0
   15.8486  -15.3802   22.4432 O   0  0  0  0  0  0  0  0  0  0  0  0
   11.6142  -17.6656   25.8247 N   0  0  0  0  0  0  0  0  0  0  0  0
   11.1255  -17.4488   27.1825 C   0  0  0  0  0  0  0  0  0  0  0  0
   11.4447  -18.6225   28.0369 C   0  0  0  0  0  0  0  0  0  0  0  0
   12.0895  -19.7288   27.5454 O   0  0  0  0  0  0  0  0  0  0  0  0
   11.1225  -18.6225   29.2508 O   0  0  0  0  0  0  0  0  0  0  0  0
  2  1  1  1
  2  8  1  0
  3  2  1  0
  4  3  1  0
  5  4  1  0
  6  5  1  0
  7  6  1  0
  8  9  2  0
 10  8  1  0
 10 11  1  0
 11 12  1  6
 12 13  1  0
 13 14  1  0
 14 18  1  0
 15 14  2  0
 16 17  2  0
 16 11  1  0
 19 16  1  0
 20 19  1  0
 21 20  1  0
 21 22  1  0
 23 21  2  0
M  END
$$$$
