KEG.pdb
     RDKit          3D

 23 22  0  0  1  0  0  0  0  0999 V2000
    6.0407  -16.5979   21.4894 N   0  0  0  0  0  0  0  0  0  0  0  0
    7.3828  -16.1016   21.6040 C   0  0  1  0  0  0  0  0  0  0  0  0
    7.4629  -14.6809   21.2172 C   0  0  0  0  0  0  0  0  0  0  0  0
    7.2418  -14.4387   19.7797 C   0  0  0  0  0  0  0  0  0  0  0  0
    8.1067  -13.4398   19.1006 C   0  0  0  0  0  0  0  0  0  0  0  0
    7.6766  -13.2816   17.6242 C   0  0  0  0  0  0  0  0  0  0  0  0
    8.6284  -12.4150   16.9906 N   0  0  0  0  0  0  0  0  0  0  0  0
    7.9255  -16.3404   22.9810 C   0  0  0  0  0  0  0  0  0  0  0  0
    7.2057  -16.2507   23.9942 O   0  0  0  0  0  0  0  0  0  0  0  0
    9.2762  -16.6775   23.1814 N   0  0  0  0  0  0  0  0  0  0  0  0
    9.9835  -16.8597   24.3817 C   0  0  1  0  0  0  0  0  0  0  0  0
   11.2708  -17.6254   24.3605 C   0  0  0  0  0  0  0  0  0  0  0  0
   11.8934  -17.8460   25.7062 C   0  0  0  0  0  0  0  0  0  0  0  0
   13.2132  -18.5776   25.5961 C   0  0  0  0  0  0  0  0  0  0  0  0
   13.7389  -19.1092   26.6063 O   0  0  0  0  0  0  0  0  0  0  0  0
    9.9942  -15.6377   25.1859 C   0  0  0  0  0  0  0  0  0  0  0  0
    9.9249  -14.5242   24.6002 O   0  0  0  0  0  0  0  0  0  0  0  0
   13.8584  -18.6764   24.3936 O   0  0  0  0  0  0  0  0  0  0  0  0
   10.0774  -15.5944   26.5945 N   0  0  0  0  0  0  0  0  0  0  0  0
    9.8184  -14.3716   27.3475 C   0  0  0  0  0  0  0  0  0  0  0  0
   10.0588  -14.5999   28.7965 C   0  0  0  0  0  0  0  0  0  0  0  0
   10.0074  -13.5816   29.7139 O   0  0  0  0  0  0  0  0  0  0  0  0
   10.3193  -15.7547   29.2162 O   0  0  0  0  0  0  0  0  0  0  0  0
  2  1  1  1
  2  8  1  0
  3  2  1  0
  4  3  1  0
  5  4  1  0
  6  5  1  0
  7  6  1  0
  8  9  2  0
 10  8  1  0
 10 11  1  0
 11 12  1  6
 12 13  1  0
 13 14  1  0
 14 18  1  0
 15 14  2  0
 16 17  2  0
 16 11  1  0
 19 16  1  0
 20 19  1  0
 21 20  1  0
 21 22  1  0
 23 21  2  0
M  END
$$$$
