TSW.pdb
     RDKit          3D

 28 29  0  0  1  0  0  0  0  0999 V2000
   28.4731  -24.4930  -17.5942 C   0  0  0  0  0  0  0  0  0  0  0  0
   27.3712  -23.7391  -16.9163 C   0  0  1  0  0  0  0  0  0  0  0  0
   27.8196  -22.9825  -15.8525 O   0  0  0  0  0  0  0  0  0  0  0  0
   26.7027  -22.8627  -17.9839 C   0  0  2  0  0  0  0  0  0  0  0  0
   27.7600  -21.9856  -18.4746 N   0  0  0  0  0  0  0  0  0  0  0  0
   25.6337  -22.0526  -17.3660 C   0  0  0  0  0  0  0  0  0  0  0  0
   25.8739  -20.8769  -16.9821 O   0  0  0  0  0  0  0  0  0  0  0  0
   20.9496  -21.2764  -17.0400 O   0  0  0  0  0  0  0  0  0  0  0  0
   21.8942  -22.2390  -17.3338 C   0  0  0  0  0  0  0  0  0  0  0  0
   23.2371  -21.7414  -16.7827 C   0  0  2  0  0  0  0  0  0  0  0  0
   24.3170  -22.5857  -17.1943 N   0  0  0  0  0  0  0  0  0  0  0  0
   23.1109  -21.8092  -15.3046 C   0  0  0  0  0  0  0  0  0  0  0  0
   23.4017  -22.8799  -14.7330 O   0  0  0  0  0  0  0  0  0  0  0  0
   22.6641  -20.6417  -14.6404 N   0  0  0  0  0  0  0  0  0  0  0  0
   22.5166  -20.6730  -13.2047 C   0  0  1  0  0  0  0  0  0  0  0  0
   23.3923  -19.6009  -12.6091 C   0  0  0  0  0  0  0  0  0  0  0  0
   24.7521  -20.1571  -12.3749 C   0  0  0  0  0  0  0  0  0  0  0  0
   25.0889  -21.1659  -11.4987 C   0  0  0  0  0  0  0  0  0  0  0  0
   26.4138  -21.3282  -11.6185 N   0  0  0  0  0  0  0  0  0  0  0  0
   26.9297  -20.4789  -12.5202 C   0  0  0  0  0  0  0  0  0  0  0  0
   28.2186  -20.2615  -12.9877 C   0  0  0  0  0  0  0  0  0  0  0  0
   28.4881  -19.3124  -13.9316 C   0  0  0  0  0  0  0  0  0  0  0  0
   27.4352  -18.5579  -14.4226 C   0  0  0  0  0  0  0  0  0  0  0  0
   26.1506  -18.7494  -13.9802 C   0  0  0  0  0  0  0  0  0  0  0  0
   25.8901  -19.7123  -13.0252 C   0  0  0  0  0  0  0  0  0  0  0  0
   21.0997  -20.4052  -12.8649 C   0  0  0  0  0  0  0  0  0  0  0  0
   20.6375  -20.4866  -11.5409 O   0  0  0  0  0  0  0  0  0  0  0  0
   20.2454  -20.0958  -13.7271 O   0  0  0  0  0  0  0  0  0  0  0  0
  2  3  1  0
  2  1  1  6
  4  5  1  1
  4  2  1  0
  6  4  1  0
  7  6  2  0
  9  8  1  0
 10  9  1  6
 10 11  1  0
 11  6  1  0
 12 10  1  0
 12 14  1  0
 13 12  2  0
 15 14  1  0
 15 26  1  0
 15 16  1  1
 17 16  1  0
 17 18  2  0
 19 18  1  0
 20 25  2  0
 20 19  1  0
 21 20  1  0
 22 23  1  0
 22 21  2  0
 23 24  2  0
 24 25  1  0
 25 17  1  0
 26 27  1  0
 28 26  2  0
M  END
$$$$
