TSW.pdb
     RDKit          3D

 28 29  0  0  1  0  0  0  0  0999 V2000
   30.3752  -23.5231  -16.7041 C   0  0  0  0  0  0  0  0  0  0  0  0
   28.9569  -24.0030  -16.6900 C   0  0  1  0  0  0  0  0  0  0  0  0
   28.0481  -22.9745  -16.5428 O   0  0  0  0  0  0  0  0  0  0  0  0
   28.7280  -24.7688  -17.9999 C   0  0  2  0  0  0  0  0  0  0  0  0
   28.9310  -23.7849  -19.0577 N   0  0  0  0  0  0  0  0  0  0  0  0
   27.3397  -25.2695  -18.0485 C   0  0  0  0  0  0  0  0  0  0  0  0
   26.4632  -24.6392  -18.6981 O   0  0  0  0  0  0  0  0  0  0  0  0
   26.1966  -28.1960  -15.5108 O   0  0  0  0  0  0  0  0  0  0  0  0
   25.4808  -28.2963  -16.6868 C   0  0  0  0  0  0  0  0  0  0  0  0
   25.6250  -26.9573  -17.4224 C   0  0  2  0  0  0  0  0  0  0  0  0
   26.9695  -26.4701  -17.3637 N   0  0  0  0  0  0  0  0  0  0  0  0
   24.7385  -26.0091  -16.7013 C   0  0  0  0  0  0  0  0  0  0  0  0
   25.2442  -24.9764  -16.2162 O   0  0  0  0  0  0  0  0  0  0  0  0
   23.3667  -26.3472  -16.6134 N   0  0  0  0  0  0  0  0  0  0  0  0
   22.4752  -25.4550  -15.9111 C   0  0  1  0  0  0  0  0  0  0  0  0
   22.4502  -24.1337  -16.6353 C   0  0  0  0  0  0  0  0  0  0  0  0
   21.7592  -24.3072  -17.9414 C   0  0  0  0  0  0  0  0  0  0  0  0
   20.4191  -24.5624  -18.1359 C   0  0  0  0  0  0  0  0  0  0  0  0
   20.2508  -24.6461  -19.4628 N   0  0  0  0  0  0  0  0  0  0  0  0
   21.4088  -24.4579  -20.1142 C   0  0  0  0  0  0  0  0  0  0  0  0
   21.7479  -24.4490  -21.4603 C   0  0  0  0  0  0  0  0  0  0  0  0
   23.0301  -24.2291  -21.8750 C   0  0  0  0  0  0  0  0  0  0  0  0
   24.0026  -24.0114  -20.9129 C   0  0  0  0  0  0  0  0  0  0  0  0
   23.6984  -24.0142  -19.5749 C   0  0  0  0  0  0  0  0  0  0  0  0
   22.3980  -24.2377  -19.1673 C   0  0  0  0  0  0  0  0  0  0  0  0
   21.1166  -26.0458  -15.9048 C   0  0  0  0  0  0  0  0  0  0  0  0
   20.8378  -27.2449  -16.5814 O   0  0  0  0  0  0  0  0  0  0  0  0
   20.1529  -25.5166  -15.3047 O   0  0  0  0  0  0  0  0  0  0  0  0
  2  3  1  0
  2  1  1  6
  4  5  1  6
  4  2  1  0
  6  4  1  0
  7  6  2  0
  9  8  1  0
 10  9  1  1
 10 11  1  0
 11  6  1  0
 12 10  1  0
 12 14  1  0
 13 12  2  0
 15 14  1  0
 15 26  1  0
 15 16  1  6
 17 16  1  0
 17 18  2  0
 19 18  1  0
 20 25  2  0
 20 19  1  0
 21 20  1  0
 22 23  1  0
 22 21  2  0
 23 24  2  0
 24 25  1  0
 25 17  1  0
 26 27  1  0
 28 26  2  0
M  END
$$$$
