TSW.pdb
     RDKit          3D

 28 29  0  0  1  0  0  0  0  0999 V2000
   28.1561  -23.1810  -18.0470 C   0  0  0  0  0  0  0  0  0  0  0  0
   28.6896  -23.9815  -16.8995 C   0  0  1  0  0  0  0  0  0  0  0  0
   28.7779  -23.2478  -15.7337 O   0  0  0  0  0  0  0  0  0  0  0  0
   27.7653  -25.1944  -16.7288 C   0  0  2  0  0  0  0  0  0  0  0  0
   27.8910  -25.9480  -17.9715 N   0  0  0  0  0  0  0  0  0  0  0  0
   26.3702  -24.7387  -16.5645 C   0  0  0  0  0  0  0  0  0  0  0  0
   25.7183  -24.3279  -17.5614 O   0  0  0  0  0  0  0  0  0  0  0  0
   24.7987  -24.1483  -12.8107 O   0  0  0  0  0  0  0  0  0  0  0  0
   23.8585  -24.5955  -13.7170 C   0  0  0  0  0  0  0  0  0  0  0  0
   24.3974  -24.2876  -15.1204 C   0  0  2  0  0  0  0  0  0  0  0  0
   25.7404  -24.7562  -15.2798 N   0  0  0  0  0  0  0  0  0  0  0  0
   24.3886  -22.8070  -15.2346 C   0  0  0  0  0  0  0  0  0  0  0  0
   25.4173  -22.1808  -14.9073 O   0  0  0  0  0  0  0  0  0  0  0  0
   23.2004  -22.2032  -15.7116 N   0  0  0  0  0  0  0  0  0  0  0  0
   23.1657  -20.7688  -15.8701 C   0  0  1  0  0  0  0  0  0  0  0  0
   22.6056  -20.4501  -17.2322 C   0  0  0  0  0  0  0  0  0  0  0  0
   21.1240  -20.3523  -17.1389 C   0  0  0  0  0  0  0  0  0  0  0  0
   20.3024  -21.0769  -16.3030 C   0  0  0  0  0  0  0  0  0  0  0  0
   19.0551  -20.6636  -16.5664 N   0  0  0  0  0  0  0  0  0  0  0  0
   19.0452  -19.7202  -17.5206 C   0  0  0  0  0  0  0  0  0  0  0  0
   18.0273  -18.9969  -18.1272 C   0  0  0  0  0  0  0  0  0  0  0  0
   18.2855  -18.0714  -19.0972 C   0  0  0  0  0  0  0  0  0  0  0  0
   19.6029  -17.8635  -19.4717 C   0  0  0  0  0  0  0  0  0  0  0  0
   20.6306  -18.5627  -18.8906 C   0  0  0  0  0  0  0  0  0  0  0  0
   20.3573  -19.4963  -17.9104 C   0  0  0  0  0  0  0  0  0  0  0  0
   22.2883  -20.1945  -14.8235 C   0  0  0  0  0  0  0  0  0  0  0  0
   21.5342  -21.0165  -13.9698 O   0  0  0  0  0  0  0  0  0  0  0  0
   22.1705  -18.9605  -14.6436 O   0  0  0  0  0  0  0  0  0  0  0  0
  2  3  1  0
  2  1  1  6
  4  5  1  6
  4  2  1  0
  6  4  1  0
  7  6  2  0
  9  8  1  0
 10  9  1  1
 10 11  1  0
 11  6  1  0
 12 10  1  0
 12 14  1  0
 13 12  2  0
 15 14  1  0
 15 26  1  0
 15 16  1  6
 17 16  1  0
 17 18  2  0
 19 18  1  0
 20 25  2  0
 20 19  1  0
 21 20  1  0
 22 23  1  0
 22 21  2  0
 23 24  2  0
 24 25  1  0
 25 17  1  0
 26 27  1  0
 28 26  2  0
M  END
$$$$
