TSW.pdb
     RDKit          3D

 28 29  0  0  1  0  0  0  0  0999 V2000
   26.5762  -22.3701  -19.8101 C   0  0  0  0  0  0  0  0  0  0  0  0
   26.7889  -22.2942  -18.3298 C   0  0  1  0  0  0  0  0  0  0  0  0
   26.7827  -23.5357  -17.7265 O   0  0  0  0  0  0  0  0  0  0  0  0
   28.1218  -21.5685  -18.1034 C   0  0  2  0  0  0  0  0  0  0  0  0
   29.1484  -22.5163  -18.5229 N   0  0  0  0  0  0  0  0  0  0  0  0
   28.2857  -21.2635  -16.6678 C   0  0  0  0  0  0  0  0  0  0  0  0
   28.9147  -22.0596  -15.9207 O   0  0  0  0  0  0  0  0  0  0  0  0
   26.4138  -17.9895  -15.0761 O   0  0  0  0  0  0  0  0  0  0  0  0
   27.5724  -18.3147  -14.3999 C   0  0  0  0  0  0  0  0  0  0  0  0
   27.8824  -19.7852  -14.7102 C   0  0  2  0  0  0  0  0  0  0  0  0
   27.7371  -20.0676  -16.1057 N   0  0  0  0  0  0  0  0  0  0  0  0
   26.8763  -20.5727  -13.9534 C   0  0  0  0  0  0  0  0  0  0  0  0
   25.8984  -21.0379  -14.5738 O   0  0  0  0  0  0  0  0  0  0  0  0
   27.0993  -20.7420  -12.5658 N   0  0  0  0  0  0  0  0  0  0  0  0
   26.1119  -21.4485  -11.7849 C   0  0  1  0  0  0  0  0  0  0  0  0
   26.7484  -21.8890  -10.4920 C   0  0  0  0  0  0  0  0  0  0  0  0
   26.6103  -20.8018   -9.4859 C   0  0  0  0  0  0  0  0  0  0  0  0
   25.5349  -19.9539   -9.3328 C   0  0  0  0  0  0  0  0  0  0  0  0
   25.8513  -19.1406   -8.3158 N   0  0  0  0  0  0  0  0  0  0  0  0
   27.0646  -19.4286   -7.8202 C   0  0  0  0  0  0  0  0  0  0  0  0
   27.8206  -18.8855   -6.7902 C   0  0  0  0  0  0  0  0  0  0  0  0
   29.0578  -19.3704   -6.4766 C   0  0  0  0  0  0  0  0  0  0  0  0
   29.5536  -20.4313   -7.2166 C   0  0  0  0  0  0  0  0  0  0  0  0
   28.8303  -20.9892   -8.2404 C   0  0  0  0  0  0  0  0  0  0  0  0
   27.5800  -20.4904   -8.5485 C   0  0  0  0  0  0  0  0  0  0  0  0
   24.9847  -20.5308  -11.4983 C   0  0  0  0  0  0  0  0  0  0  0  0
   23.6992  -21.0191  -11.2115 O   0  0  0  0  0  0  0  0  0  0  0  0
   25.1123  -19.2847  -11.4960 O   0  0  0  0  0  0  0  0  0  0  0  0
  2  3  1  0
  2  1  1  6
  4  5  1  1
  4  2  1  0
  6  4  1  0
  7  6  2  0
  9  8  1  0
 10  9  1  6
 10 11  1  0
 11  6  1  0
 12 10  1  0
 12 14  1  0
 13 12  2  0
 15 14  1  0
 15 26  1  0
 15 16  1  1
 17 16  1  0
 17 18  2  0
 19 18  1  0
 20 25  2  0
 20 19  1  0
 21 20  1  0
 22 23  1  0
 22 21  2  0
 23 24  2  0
 24 25  1  0
 25 17  1  0
 26 27  1  0
 28 26  2  0
M  END
$$$$
