TSW.pdb
     RDKit          3D

 28 29  0  0  1  0  0  0  0  0999 V2000
   24.4552  -13.0360  -22.0541 C   0  0  0  0  0  0  0  0  0  0  0  0
   25.6049  -12.2749  -21.4700 C   0  0  1  0  0  0  0  0  0  0  0  0
   25.6488  -12.3506  -20.0925 O   0  0  0  0  0  0  0  0  0  0  0  0
   26.8847  -12.8376  -22.1025 C   0  0  2  0  0  0  0  0  0  0  0  0
   26.9352  -14.2342  -21.6839 N   0  0  0  0  0  0  0  0  0  0  0  0
   28.0605  -12.1186  -21.5723 C   0  0  0  0  0  0  0  0  0  0  0  0
   28.6230  -12.5183  -20.5181 O   0  0  0  0  0  0  0  0  0  0  0  0
   29.4388   -8.7757  -23.5082 O   0  0  0  0  0  0  0  0  0  0  0  0
   30.4425   -9.5385  -22.9459 C   0  0  0  0  0  0  0  0  0  0  0  0
   29.8078  -10.3677  -21.8215 C   0  0  2  0  0  0  0  0  0  0  0  0
   28.5768  -10.9644  -22.2422 N   0  0  0  0  0  0  0  0  0  0  0  0
   29.5253   -9.4045  -20.7271 C   0  0  0  0  0  0  0  0  0  0  0  0
   28.3608   -8.9734  -20.6023 O   0  0  0  0  0  0  0  0  0  0  0  0
   30.6091   -9.0387  -19.8931 N   0  0  0  0  0  0  0  0  0  0  0  0
   30.3757   -8.0967  -18.8244 C   0  0  1  0  0  0  0  0  0  0  0  0
   31.0080   -8.6328  -17.5660 C   0  0  0  0  0  0  0  0  0  0  0  0
   30.3037   -9.8787  -17.1596 C   0  0  0  0  0  0  0  0  0  0  0  0
   29.0930   -9.9642  -16.5073 C   0  0  0  0  0  0  0  0  0  0  0  0
   28.8564  -11.2731  -16.3437 N   0  0  0  0  0  0  0  0  0  0  0  0
   29.8495  -12.0160  -16.8562 C   0  0  0  0  0  0  0  0  0  0  0  0
   30.0655  -13.3852  -16.9334 C   0  0  0  0  0  0  0  0  0  0  0  0
   31.1851  -13.9022  -17.5195 C   0  0  0  0  0  0  0  0  0  0  0  0
   32.1170  -13.0218  -18.0443 C   0  0  0  0  0  0  0  0  0  0  0  0
   31.9317  -11.6637  -17.9833 C   0  0  0  0  0  0  0  0  0  0  0  0
   30.7953  -11.1523  -17.3880 C   0  0  0  0  0  0  0  0  0  0  0  0
   31.0010   -6.8027  -19.1842 C   0  0  0  0  0  0  0  0  0  0  0  0
   30.9118   -5.6868  -18.3357 O   0  0  0  0  0  0  0  0  0  0  0  0
   31.6351   -6.6326  -20.2509 O   0  0  0  0  0  0  0  0  0  0  0  0
  2  3  1  0
  2  1  1  6
  4  5  1  1
  4  2  1  0
  6  4  1  0
  7  6  2  0
  9  8  1  0
 10  9  1  6
 10 11  1  0
 11  6  1  0
 12 10  1  0
 12 14  1  0
 13 12  2  0
 15 14  1  0
 15 26  1  0
 15 16  1  1
 17 16  1  0
 17 18  2  0
 19 18  1  0
 20 25  2  0
 20 19  1  0
 21 20  1  0
 22 23  1  0
 22 21  2  0
 23 24  2  0
 24 25  1  0
 25 17  1  0
 26 27  1  0
 28 26  2  0
M  END
$$$$
