TSW.pdb
     RDKit          3D

 28 29  0  0  1  0  0  0  0  0999 V2000
   34.4508  -33.3729  -16.7218 C   0  0  0  0  0  0  0  0  0  0  0  0
   34.4936  -31.9662  -17.2330 C   0  0  1  0  0  0  0  0  0  0  0  0
   35.7814  -31.4892  -17.3723 O   0  0  0  0  0  0  0  0  0  0  0  0
   33.7434  -31.9508  -18.5714 C   0  0  2  0  0  0  0  0  0  0  0  0
   33.7882  -30.5629  -19.0182 N   0  0  0  0  0  0  0  0  0  0  0  0
   32.3398  -32.3585  -18.3608 C   0  0  0  0  0  0  0  0  0  0  0  0
   31.4531  -31.4875  -18.1545 O   0  0  0  0  0  0  0  0  0  0  0  0
   31.2832  -36.2340  -17.6062 O   0  0  0  0  0  0  0  0  0  0  0  0
   30.4231  -35.6405  -18.5081 C   0  0  0  0  0  0  0  0  0  0  0  0
   30.5873  -34.1219  -18.3610 C   0  0  2  0  0  0  0  0  0  0  0  0
   31.9663  -33.7395  -18.3873 N   0  0  0  0  0  0  0  0  0  0  0  0
   30.0213  -33.7871  -17.0295 C   0  0  0  0  0  0  0  0  0  0  0  0
   30.7204  -33.9989  -16.0177 O   0  0  0  0  0  0  0  0  0  0  0  0
   28.7137  -33.2455  -17.0013 N   0  0  0  0  0  0  0  0  0  0  0  0
   28.1472  -32.8645  -15.7293 C   0  0  1  0  0  0  0  0  0  0  0  0
   28.0732  -31.3606  -15.6684 C   0  0  0  0  0  0  0  0  0  0  0  0
   27.1803  -30.8726  -16.7537 C   0  0  0  0  0  0  0  0  0  0  0  0
   25.8110  -31.0127  -16.8184 C   0  0  0  0  0  0  0  0  0  0  0  0
   25.4368  -30.4305  -17.9660 N   0  0  0  0  0  0  0  0  0  0  0  0
   26.4928  -29.9320  -18.6270 C   0  0  0  0  0  0  0  0  0  0  0  0
   26.6226  -29.2544  -19.8317 C   0  0  0  0  0  0  0  0  0  0  0  0
   27.8394  -28.8440  -20.2957 C   0  0  0  0  0  0  0  0  0  0  0  0
   28.9606  -29.1204  -19.5305 C   0  0  0  0  0  0  0  0  0  0  0  0
   28.8644  -29.7883  -18.3358 C   0  0  0  0  0  0  0  0  0  0  0  0
   27.6283  -30.1985  -17.8766 C   0  0  0  0  0  0  0  0  0  0  0  0
   26.7842  -33.4354  -15.6242 C   0  0  0  0  0  0  0  0  0  0  0  0
   26.0339  -33.3233  -14.4419 O   0  0  0  0  0  0  0  0  0  0  0  0
   26.2315  -34.0424  -16.5703 O   0  0  0  0  0  0  0  0  0  0  0  0
  2  3  1  0
  2  1  1  6
  4  5  1  1
  4  2  1  0
  6  4  1  0
  7  6  2  0
  9  8  1  0
 10  9  1  1
 10 11  1  0
 11  6  1  0
 12 10  1  0
 12 14  1  0
 13 12  2  0
 15 14  1  0
 15 26  1  0
 15 16  1  6
 17 16  1  0
 17 18  2  0
 19 18  1  0
 20 25  2  0
 20 19  1  0
 21 20  1  0
 22 23  1  0
 22 21  2  0
 23 24  2  0
 24 25  1  0
 25 17  1  0
 26 27  1  0
 28 26  2  0
M  END
$$$$
