TSW.pdb
     RDKit          3D

 28 29  0  0  1  0  0  0  0  0999 V2000
   26.9274  -24.2359  -15.6941 C   0  0  0  0  0  0  0  0  0  0  0  0
   25.7551  -23.7506  -16.4893 C   0  0  1  0  0  0  0  0  0  0  0  0
   24.5610  -23.8767  -15.8086 O   0  0  0  0  0  0  0  0  0  0  0  0
   26.0368  -22.2883  -16.8592 C   0  0  2  0  0  0  0  0  0  0  0  0
   27.2531  -22.3256  -17.6638 N   0  0  0  0  0  0  0  0  0  0  0  0
   26.2776  -21.5014  -15.6331 C   0  0  0  0  0  0  0  0  0  0  0  0
   27.4456  -21.3885  -15.1742 O   0  0  0  0  0  0  0  0  0  0  0  0
   23.1252  -19.8872  -13.4824 O   0  0  0  0  0  0  0  0  0  0  0  0
   24.2544  -19.0950  -13.5328 C   0  0  0  0  0  0  0  0  0  0  0  0
   25.4456  -20.0190  -13.8190 C   0  0  2  0  0  0  0  0  0  0  0  0
   25.1964  -20.8588  -14.9509 N   0  0  0  0  0  0  0  0  0  0  0  0
   25.5882  -20.8709  -12.6110 C   0  0  0  0  0  0  0  0  0  0  0  0
   25.0982  -22.0184  -12.6333 O   0  0  0  0  0  0  0  0  0  0  0  0
   26.2774  -20.3150  -11.5065 N   0  0  0  0  0  0  0  0  0  0  0  0
   26.4331  -21.1115  -10.3127 C   0  0  1  0  0  0  0  0  0  0  0  0
   27.5679  -20.5424   -9.5008 C   0  0  0  0  0  0  0  0  0  0  0  0
   27.0806  -20.2394   -8.1282 C   0  0  0  0  0  0  0  0  0  0  0  0
   25.7701  -20.2344   -7.7025 C   0  0  0  0  0  0  0  0  0  0  0  0
   25.8076  -19.9033   -6.4044 N   0  0  0  0  0  0  0  0  0  0  0  0
   27.0673  -19.6998   -5.9892 C   0  0  0  0  0  0  0  0  0  0  0  0
   27.6154  -19.3467   -4.7636 C   0  0  0  0  0  0  0  0  0  0  0  0
   28.9624  -19.1987   -4.5968 C   0  0  0  0  0  0  0  0  0  0  0  0
   29.7861  -19.4107   -5.6902 C   0  0  0  0  0  0  0  0  0  0  0  0
   29.2742  -19.7606   -6.9142 C   0  0  0  0  0  0  0  0  0  0  0  0
   27.9100  -19.9074   -7.0710 C   0  0  0  0  0  0  0  0  0  0  0  0
   25.1776  -21.0463   -9.5288 C   0  0  0  0  0  0  0  0  0  0  0  0
   24.1948  -20.0804   -9.8017 O   0  0  0  0  0  0  0  0  0  0  0  0
   24.9252  -21.8373   -8.5910 O   0  0  0  0  0  0  0  0  0  0  0  0
  2  3  1  0
  2  1  1  1
  4  5  1  6
  4  2  1  0
  6  4  1  0
  7  6  2  0
  9  8  1  0
 10  9  1  1
 10 11  1  0
 11  6  1  0
 12 10  1  0
 12 14  1  0
 13 12  2  0
 15 14  1  0
 15 26  1  0
 15 16  1  1
 17 16  1  0
 17 18  2  0
 19 18  1  0
 20 25  2  0
 20 19  1  0
 21 20  1  0
 22 23  1  0
 22 21  2  0
 23 24  2  0
 24 25  1  0
 25 17  1  0
 26 27  1  0
 28 26  2  0
M  END
$$$$
