TSW.pdb
     RDKit          3D

 28 29  0  0  1  0  0  0  0  0999 V2000
   29.9606  -22.8899  -19.6462 C   0  0  0  0  0  0  0  0  0  0  0  0
   29.7977  -21.9121  -18.5239 C   0  0  1  0  0  0  0  0  0  0  0  0
   29.0619  -20.8022  -18.8871 O   0  0  0  0  0  0  0  0  0  0  0  0
   29.1367  -22.6662  -17.3625 C   0  0  2  0  0  0  0  0  0  0  0  0
   27.7743  -22.9359  -17.8088 N   0  0  0  0  0  0  0  0  0  0  0  0
   29.1041  -21.8050  -16.1633 C   0  0  0  0  0  0  0  0  0  0  0  0
   30.1799  -21.4366  -15.6206 O   0  0  0  0  0  0  0  0  0  0  0  0
   26.3703  -19.1288  -15.3790 O   0  0  0  0  0  0  0  0  0  0  0  0
   27.4902  -19.1830  -14.5739 C   0  0  0  0  0  0  0  0  0  0  0  0
   27.8259  -20.6652  -14.3611 C   0  0  2  0  0  0  0  0  0  0  0  0
   27.8592  -21.3777  -15.6020 N   0  0  0  0  0  0  0  0  0  0  0  0
   26.7244  -21.2071  -13.5255 C   0  0  0  0  0  0  0  0  0  0  0  0
   25.7968  -21.8205  -14.0920 O   0  0  0  0  0  0  0  0  0  0  0  0
   26.8046  -20.9870  -12.1295 N   0  0  0  0  0  0  0  0  0  0  0  0
   25.8210  -21.6039  -11.2716 C   0  0  1  0  0  0  0  0  0  0  0  0
   26.4901  -21.9970   -9.9799 C   0  0  0  0  0  0  0  0  0  0  0  0
   26.5997  -20.7994   -9.1040 C   0  0  0  0  0  0  0  0  0  0  0  0
   25.8227  -19.6629   -9.1629 C   0  0  0  0  0  0  0  0  0  0  0  0
   26.2796  -18.8560   -8.1954 N   0  0  0  0  0  0  0  0  0  0  0  0
   27.2998  -19.4202   -7.5311 C   0  0  0  0  0  0  0  0  0  0  0  0
   28.0908  -18.9960   -6.4720 C   0  0  0  0  0  0  0  0  0  0  0  0
   29.0902  -19.7767   -5.9661 C   0  0  0  0  0  0  0  0  0  0  0  0
   29.3046  -21.0201   -6.5379 C   0  0  0  0  0  0  0  0  0  0  0  0
   28.5395  -21.4672   -7.5856 C   0  0  0  0  0  0  0  0  0  0  0  0
   27.5314  -20.6687   -8.0888 C   0  0  0  0  0  0  0  0  0  0  0  0
   24.7451  -20.6231  -10.9973 C   0  0  0  0  0  0  0  0  0  0  0  0
   23.4654  -21.0362  -10.5911 O   0  0  0  0  0  0  0  0  0  0  0  0
   24.9131  -19.3870  -11.1112 O   0  0  0  0  0  0  0  0  0  0  0  0
  2  3  1  0
  2  1  1  6
  4  5  1  6
  4  2  1  0
  6  4  1  0
  7  6  2  0
  9  8  1  0
 10  9  1  6
 10 11  1  0
 11  6  1  0
 12 10  1  0
 12 14  1  0
 13 12  2  0
 15 14  1  0
 15 26  1  0
 15 16  1  1
 17 16  1  0
 17 18  2  0
 19 18  1  0
 20 25  2  0
 20 19  1  0
 21 20  1  0
 22 23  1  0
 22 21  2  0
 23 24  2  0
 24 25  1  0
 25 17  1  0
 26 27  1  0
 28 26  2  0
M  END
$$$$
