TSW.pdb
     RDKit          3D

 28 29  0  0  1  0  0  0  0  0999 V2000
   15.5495  -20.8917  -14.7722 C   0  0  0  0  0  0  0  0  0  0  0  0
   17.0386  -20.8802  -14.9294 C   0  0  1  0  0  0  0  0  0  0  0  0
   17.4401  -21.1636  -16.2193 O   0  0  0  0  0  0  0  0  0  0  0  0
   17.5275  -19.4961  -14.4824 C   0  0  2  0  0  0  0  0  0  0  0  0
   17.0883  -18.5798  -15.5292 N   0  0  0  0  0  0  0  0  0  0  0  0
   19.0021  -19.4895  -14.4047 C   0  0  0  0  0  0  0  0  0  0  0  0
   19.6810  -18.9626  -15.3261 O   0  0  0  0  0  0  0  0  0  0  0  0
   20.8687  -21.8406  -11.6995 O   0  0  0  0  0  0  0  0  0  0  0  0
   21.6093  -20.6950  -11.9099 C   0  0  0  0  0  0  0  0  0  0  0  0
   21.1088  -20.0634  -13.2158 C   0  0  2  0  0  0  0  0  0  0  0  0
   19.6795  -20.0770  -13.2896 N   0  0  0  0  0  0  0  0  0  0  0  0
   21.6540  -20.9140  -14.3042 C   0  0  0  0  0  0  0  0  0  0  0  0
   20.8705  -21.6675  -14.9172 O   0  0  0  0  0  0  0  0  0  0  0  0
   23.0400  -20.8093  -14.5727 N   0  0  0  0  0  0  0  0  0  0  0  0
   23.6147  -21.6509  -15.5952 C   0  0  1  0  0  0  0  0  0  0  0  0
   22.9557  -21.3253  -16.9107 C   0  0  0  0  0  0  0  0  0  0  0  0
   23.4650  -22.2557  -17.9540 C   0  0  0  0  0  0  0  0  0  0  0  0
   22.8605  -23.4152  -18.3885 C   0  0  0  0  0  0  0  0  0  0  0  0
   23.6739  -23.9242  -19.3241 N   0  0  0  0  0  0  0  0  0  0  0  0
   24.7558  -23.1507  -19.5029 C   0  0  0  0  0  0  0  0  0  0  0  0
   25.8618  -23.2468  -20.3365 C   0  0  0  0  0  0  0  0  0  0  0  0
   26.8505  -22.3052  -20.3269 C   0  0  0  0  0  0  0  0  0  0  0  0
   26.7286  -21.2347  -19.4562 C   0  0  0  0  0  0  0  0  0  0  0  0
   25.6474  -21.1121  -18.6202 C   0  0  0  0  0  0  0  0  0  0  0  0
   24.6535  -22.0707  -18.6388 C   0  0  0  0  0  0  0  0  0  0  0  0
   25.0669  -21.3712  -15.6824 C   0  0  0  0  0  0  0  0  0  0  0  0
   25.5795  -20.0855  -15.4422 O   0  0  0  0  0  0  0  0  0  0  0  0
   25.9082  -22.2529  -15.9718 O   0  0  0  0  0  0  0  0  0  0  0  0
  2  3  1  0
  2  1  1  6
  4  5  1  6
  4  2  1  0
  6  4  1  0
  7  6  2  0
  9  8  1  0
 10  9  1  1
 10 11  1  0
 11  6  1  0
 12 10  1  0
 12 14  1  0
 13 12  2  0
 15 14  1  0
 15 26  1  0
 15 16  1  6
 17 16  1  0
 17 18  2  0
 19 18  1  0
 20 25  2  0
 20 19  1  0
 21 20  1  0
 22 23  1  0
 22 21  2  0
 23 24  2  0
 24 25  1  0
 25 17  1  0
 26 27  1  0
 28 26  2  0
M  END
$$$$
