TSW.pdb
     RDKit          3D

 28 29  0  0  1  0  0  0  0  0999 V2000
   24.6279  -20.9034  -17.8231 C   0  0  0  0  0  0  0  0  0  0  0  0
   25.0527  -21.0946  -16.4000 C   0  0  1  0  0  0  0  0  0  0  0  0
   24.1714  -21.8773  -15.6817 O   0  0  0  0  0  0  0  0  0  0  0  0
   26.4561  -21.7142  -16.4288 C   0  0  2  0  0  0  0  0  0  0  0  0
   26.2619  -23.0768  -16.9123 N   0  0  0  0  0  0  0  0  0  0  0  0
   27.0141  -21.7482  -15.0620 C   0  0  0  0  0  0  0  0  0  0  0  0
   27.1898  -22.8511  -14.4786 O   0  0  0  0  0  0  0  0  0  0  0  0
   27.6787  -18.2329  -13.2046 O   0  0  0  0  0  0  0  0  0  0  0  0
   28.4353  -19.2242  -12.6128 C   0  0  0  0  0  0  0  0  0  0  0  0
   27.8271  -20.5701  -13.0293 C   0  0  2  0  0  0  0  0  0  0  0  0
   27.3620  -20.5380  -14.3825 N   0  0  0  0  0  0  0  0  0  0  0  0
   26.6660  -20.7787  -12.1272 C   0  0  0  0  0  0  0  0  0  0  0  0
   25.5186  -20.6137  -12.5895 O   0  0  0  0  0  0  0  0  0  0  0  0
   26.9455  -21.1539  -10.7912 N   0  0  0  0  0  0  0  0  0  0  0  0
   25.8426  -21.3661   -9.8843 C   0  0  1  0  0  0  0  0  0  0  0  0
   26.3968  -21.7498   -8.5365 C   0  0  0  0  0  0  0  0  0  0  0  0
   26.7551  -20.5152   -7.7878 C   0  0  0  0  0  0  0  0  0  0  0  0
   26.3443  -19.2312   -8.0731 C   0  0  0  0  0  0  0  0  0  0  0  0
   26.9132  -18.4496   -7.1450 N   0  0  0  0  0  0  0  0  0  0  0  0
   27.6587  -19.1688   -6.2920 C   0  0  0  0  0  0  0  0  0  0  0  0
   28.4278  -18.8290   -5.1874 C   0  0  0  0  0  0  0  0  0  0  0  0
   29.1075  -19.7711   -4.4700 C   0  0  0  0  0  0  0  0  0  0  0  0
   29.0145  -21.0939   -4.8706 C   0  0  0  0  0  0  0  0  0  0  0  0
   28.2624  -21.4609   -5.9579 C   0  0  0  0  0  0  0  0  0  0  0  0
   27.5792  -20.4992   -6.6758 C   0  0  0  0  0  0  0  0  0  0  0  0
   25.0729  -20.1057   -9.7663 C   0  0  0  0  0  0  0  0  0  0  0  0
   23.7126  -20.1099   -9.4160 O   0  0  0  0  0  0  0  0  0  0  0  0
   25.5844  -18.9806   -9.9699 O   0  0  0  0  0  0  0  0  0  0  0  0
  2  3  1  0
  2  1  1  6
  4  5  1  1
  4  2  1  0
  6  4  1  0
  7  6  2  0
  9  8  1  0
 10  9  1  1
 10 11  1  0
 11  6  1  0
 12 10  1  0
 12 14  1  0
 13 12  2  0
 15 14  1  0
 15 26  1  0
 15 16  1  1
 17 16  1  0
 17 18  2  0
 19 18  1  0
 20 25  2  0
 20 19  1  0
 21 20  1  0
 22 23  1  0
 22 21  2  0
 23 24  2  0
 24 25  1  0
 25 17  1  0
 26 27  1  0
 28 26  2  0
M  END
$$$$
