TSW.pdb
     RDKit          3D

 28 29  0  0  1  0  0  0  0  0999 V2000
   23.5528  -24.8549  -15.5212 C   0  0  0  0  0  0  0  0  0  0  0  0
   24.5788  -25.7532  -16.1398 C   0  0  1  0  0  0  0  0  0  0  0  0
   24.0213  -26.7107  -16.9630 O   0  0  0  0  0  0  0  0  0  0  0  0
   25.5579  -24.8558  -16.9082 C   0  0  2  0  0  0  0  0  0  0  0  0
   26.6368  -25.7421  -17.3308 N   0  0  0  0  0  0  0  0  0  0  0  0
   26.0945  -23.8168  -16.0065 C   0  0  0  0  0  0  0  0  0  0  0  0
   26.8207  -24.1419  -15.0295 O   0  0  0  0  0  0  0  0  0  0  0  0
   24.6430  -20.0145  -16.1576 O   0  0  0  0  0  0  0  0  0  0  0  0
   25.9895  -20.0179  -15.8539 C   0  0  0  0  0  0  0  0  0  0  0  0
   26.3411  -21.4283  -15.3620 C   0  0  2  0  0  0  0  0  0  0  0  0
   25.8009  -22.4337  -16.2258 N   0  0  0  0  0  0  0  0  0  0  0  0
   25.7077  -21.5533  -14.0247 C   0  0  0  0  0  0  0  0  0  0  0  0
   24.5223  -21.9385  -13.9635 O   0  0  0  0  0  0  0  0  0  0  0  0
   26.5020  -21.2225  -12.9006 N   0  0  0  0  0  0  0  0  0  0  0  0
   25.9172  -21.3195  -11.5843 C   0  0  1  0  0  0  0  0  0  0  0  0
   27.0282  -21.4405  -10.5735 C   0  0  0  0  0  0  0  0  0  0  0  0
   26.5393  -20.9615   -9.2526 C   0  0  0  0  0  0  0  0  0  0  0  0
   25.2587  -21.0784   -8.7573 C   0  0  0  0  0  0  0  0  0  0  0  0
   25.2804  -20.5052   -7.5462 N   0  0  0  0  0  0  0  0  0  0  0  0
   26.5019  -20.0344   -7.2512 C   0  0  0  0  0  0  0  0  0  0  0  0
   27.0213  -19.3746   -6.1458 C   0  0  0  0  0  0  0  0  0  0  0  0
   28.3306  -18.9912   -6.0897 C   0  0  0  0  0  0  0  0  0  0  0  0
   29.1448  -19.2769   -7.1734 C   0  0  0  0  0  0  0  0  0  0  0  0
   28.6606  -19.9277   -8.2800 C   0  0  0  0  0  0  0  0  0  0  0  0
   27.3345  -20.3107   -8.3254 C   0  0  0  0  0  0  0  0  0  0  0  0
   25.1336  -20.0905  -11.3190 C   0  0  0  0  0  0  0  0  0  0  0  0
   25.4475  -18.8736  -11.9465 O   0  0  0  0  0  0  0  0  0  0  0  0
   24.1606  -20.0671  -10.5304 O   0  0  0  0  0  0  0  0  0  0  0  0
  2  3  1  0
  2  1  1  6
  4  5  1  1
  4  2  1  0
  6  4  1  0
  7  6  2  0
  9  8  1  0
 10  9  1  6
 10 11  1  0
 11  6  1  0
 12 10  1  0
 12 14  1  0
 13 12  2  0
 15 14  1  0
 15 26  1  0
 15 16  1  1
 17 16  1  0
 17 18  2  0
 19 18  1  0
 20 25  2  0
 20 19  1  0
 21 20  1  0
 22 23  1  0
 22 21  2  0
 23 24  2  0
 24 25  1  0
 25 17  1  0
 26 27  1  0
 28 26  2  0
M  END
$$$$
