TSW.pdb
     RDKit          3D

 28 29  0  0  1  0  0  0  0  0999 V2000
   29.3764  -21.7816  -15.6577 C   0  0  0  0  0  0  0  0  0  0  0  0
   28.2798  -21.8807  -16.6725 C   0  0  1  0  0  0  0  0  0  0  0  0
   27.3596  -22.8634  -16.3678 O   0  0  0  0  0  0  0  0  0  0  0  0
   27.6169  -20.4993  -16.7549 C   0  0  2  0  0  0  0  0  0  0  0  0
   28.6277  -19.6252  -17.3399 N   0  0  0  0  0  0  0  0  0  0  0  0
   27.2788  -20.0269  -15.3972 C   0  0  0  0  0  0  0  0  0  0  0  0
   28.1080  -19.3402  -14.7426 O   0  0  0  0  0  0  0  0  0  0  0  0
   23.6144  -20.9696  -13.5384 O   0  0  0  0  0  0  0  0  0  0  0  0
   24.1367  -19.7040  -13.3631 C   0  0  0  0  0  0  0  0  0  0  0  0
   25.6588  -19.8141  -13.5235 C   0  0  2  0  0  0  0  0  0  0  0  0
   26.0132  -20.3388  -14.8071 N   0  0  0  0  0  0  0  0  0  0  0  0
   26.1018  -20.7683  -12.4755 C   0  0  0  0  0  0  0  0  0  0  0  0
   26.5943  -21.8573  -12.8347 O   0  0  0  0  0  0  0  0  0  0  0  0
   25.9321  -20.3713  -11.1273 N   0  0  0  0  0  0  0  0  0  0  0  0
   26.2582  -21.3104  -10.0806 C   0  0  1  0  0  0  0  0  0  0  0  0
   27.5879  -20.9235   -9.4863 C   0  0  0  0  0  0  0  0  0  0  0  0
   27.3571  -20.1864   -8.2148 C   0  0  0  0  0  0  0  0  0  0  0  0
   26.2533  -19.4271   -7.8924 C   0  0  0  0  0  0  0  0  0  0  0  0
   26.4819  -18.9527   -6.6601 N   0  0  0  0  0  0  0  0  0  0  0  0
   27.6668  -19.3705   -6.1887 C   0  0  0  0  0  0  0  0  0  0  0  0
   28.3397  -19.1563   -4.9935 C   0  0  0  0  0  0  0  0  0  0  0  0
   29.5653  -19.7076   -4.7523 C   0  0  0  0  0  0  0  0  0  0  0  0
   30.1348  -20.4975   -5.7375 C   0  0  0  0  0  0  0  0  0  0  0  0
   29.4944  -20.7277   -6.9289 C   0  0  0  0  0  0  0  0  0  0  0  0
   28.2550  -20.1647   -7.1617 C   0  0  0  0  0  0  0  0  0  0  0  0
   25.2082  -21.2456   -9.0375 C   0  0  0  0  0  0  0  0  0  0  0  0
   24.2926  -20.1814   -8.9871 O   0  0  0  0  0  0  0  0  0  0  0  0
   25.0796  -22.1234   -8.1533 O   0  0  0  0  0  0  0  0  0  0  0  0
  2  3  1  0
  2  1  1  1
  4  5  1  1
  4  2  1  0
  6  4  1  0
  7  6  2  0
  9  8  1  0
 10  9  1  6
 10 11  1  0
 11  6  1  0
 12 10  1  0
 12 14  1  0
 13 12  2  0
 15 14  1  0
 15 26  1  0
 15 16  1  1
 17 16  1  0
 17 18  2  0
 19 18  1  0
 20 25  2  0
 20 19  1  0
 21 20  1  0
 22 23  1  0
 22 21  2  0
 23 24  2  0
 24 25  1  0
 25 17  1  0
 26 27  1  0
 28 26  2  0
M  END
$$$$
