TSW.pdb
     RDKit          3D

 28 29  0  0  1  0  0  0  0  0999 V2000
   25.6565  -21.7424  -16.4399 C   0  0  0  0  0  0  0  0  0  0  0  0
   26.8998  -22.4649  -16.8573 C   0  0  1  0  0  0  0  0  0  0  0  0
   26.8501  -22.8975  -18.1672 O   0  0  0  0  0  0  0  0  0  0  0  0
   28.0757  -21.5060  -16.6288 C   0  0  2  0  0  0  0  0  0  0  0  0
   29.2670  -22.2735  -16.9752 N   0  0  0  0  0  0  0  0  0  0  0  0
   28.1329  -21.1177  -15.2052 C   0  0  0  0  0  0  0  0  0  0  0  0
   28.7826  -21.8192  -14.3847 O   0  0  0  0  0  0  0  0  0  0  0  0
   25.8656  -17.9946  -13.8448 O   0  0  0  0  0  0  0  0  0  0  0  0
   27.0689  -18.0969  -13.1764 C   0  0  0  0  0  0  0  0  0  0  0  0
   27.5779  -19.5311  -13.3734 C   0  0  2  0  0  0  0  0  0  0  0  0
   27.4563  -19.9468  -14.7376 N   0  0  0  0  0  0  0  0  0  0  0  0
   26.7013  -20.3842  -12.5314 C   0  0  0  0  0  0  0  0  0  0  0  0
   25.7963  -21.0376  -13.0896 O   0  0  0  0  0  0  0  0  0  0  0  0
   26.9563  -20.3961  -11.1390 N   0  0  0  0  0  0  0  0  0  0  0  0
   26.1709  -21.2663  -10.2966 C   0  0  1  0  0  0  0  0  0  0  0  0
   26.9758  -21.5975   -9.0664 C   0  0  0  0  0  0  0  0  0  0  0  0
   27.0071  -20.4102   -8.1706 C   0  0  0  0  0  0  0  0  0  0  0  0
   26.3881  -19.1984   -8.3883 C   0  0  0  0  0  0  0  0  0  0  0  0
   26.6935  -18.4354   -7.3298 N   0  0  0  0  0  0  0  0  0  0  0  0
   27.4693  -19.0983   -6.4583 C   0  0  0  0  0  0  0  0  0  0  0  0
   28.0368  -18.7503   -5.2401 C   0  0  0  0  0  0  0  0  0  0  0  0
   28.8060  -19.6277   -4.5311 C   0  0  0  0  0  0  0  0  0  0  0  0
   29.0137  -20.8920   -5.0575 C   0  0  0  0  0  0  0  0  0  0  0  0
   28.4663  -21.2653   -6.2591 C   0  0  0  0  0  0  0  0  0  0  0  0
   27.6899  -20.3694   -6.9673 C   0  0  0  0  0  0  0  0  0  0  0  0
   24.9300  -20.5581   -9.9047 C   0  0  0  0  0  0  0  0  0  0  0  0
   23.8408  -21.2468   -9.3457 O   0  0  0  0  0  0  0  0  0  0  0  0
   24.7837  -19.3224  -10.0483 O   0  0  0  0  0  0  0  0  0  0  0  0
  2  3  1  0
  2  1  1  6
  4  5  1  1
  4  2  1  0
  6  4  1  0
  7  6  2  0
  9  8  1  0
 10  9  1  6
 10 11  1  0
 11  6  1  0
 12 10  1  0
 12 14  1  0
 13 12  2  0
 15 14  1  0
 15 26  1  0
 15 16  1  1
 17 16  1  0
 17 18  2  0
 19 18  1  0
 20 25  2  0
 20 19  1  0
 21 20  1  0
 22 23  1  0
 22 21  2  0
 23 24  2  0
 24 25  1  0
 25 17  1  0
 26 27  1  0
 28 26  2  0
M  END
$$$$
