TSW.pdb
     RDKit          3D

 28 29  0  0  1  0  0  0  0  0999 V2000
   29.2493  -17.8823  -16.1301 C   0  0  0  0  0  0  0  0  0  0  0  0
   28.4530  -18.4622  -15.0023 C   0  0  1  0  0  0  0  0  0  0  0  0
   28.7285  -17.8601  -13.7911 O   0  0  0  0  0  0  0  0  0  0  0  0
   26.9718  -18.3163  -15.3757 C   0  0  2  0  0  0  0  0  0  0  0  0
   26.7739  -16.8887  -15.6012 N   0  0  0  0  0  0  0  0  0  0  0  0
   26.1275  -18.7619  -14.2490 C   0  0  0  0  0  0  0  0  0  0  0  0
   25.3719  -17.9415  -13.6629 O   0  0  0  0  0  0  0  0  0  0  0  0
   25.7293  -22.7561  -13.6227 O   0  0  0  0  0  0  0  0  0  0  0  0
   24.6472  -21.9785  -13.2628 C   0  0  0  0  0  0  0  0  0  0  0  0
   25.1907  -20.6004  -12.8624 C   0  0  2  0  0  0  0  0  0  0  0  0
   26.1534  -20.1227  -13.8076 N   0  0  0  0  0  0  0  0  0  0  0  0
   25.8620  -20.8020  -11.5532 C   0  0  0  0  0  0  0  0  0  0  0  0
   27.0712  -21.1106  -11.5481 O   0  0  0  0  0  0  0  0  0  0  0  0
   25.0741  -20.6285  -10.3900 N   0  0  0  0  0  0  0  0  0  0  0  0
   25.6569  -20.9328   -9.1048 C   0  0  1  0  0  0  0  0  0  0  0  0
   26.4597  -19.7422   -8.6482 C   0  0  0  0  0  0  0  0  0  0  0  0
   27.7498  -20.2146   -8.0772 C   0  0  0  0  0  0  0  0  0  0  0  0
   28.6444  -21.0792   -8.6695 C   0  0  0  0  0  0  0  0  0  0  0  0
   29.6498  -21.2221   -7.7951 N   0  0  0  0  0  0  0  0  0  0  0  0
   29.4387  -20.4964   -6.6863 C   0  0  0  0  0  0  0  0  0  0  0  0
   30.1690  -20.3147   -5.5197 C   0  0  0  0  0  0  0  0  0  0  0  0
   29.7249  -19.5036   -4.5151 C   0  0  0  0  0  0  0  0  0  0  0  0
   28.5127  -18.8545   -4.6834 C   0  0  0  0  0  0  0  0  0  0  0  0
   27.7682  -19.0141   -5.8248 C   0  0  0  0  0  0  0  0  0  0  0  0
   28.2276  -19.8370   -6.8342 C   0  0  0  0  0  0  0  0  0  0  0  0
   24.5665  -21.1993   -8.1379 C   0  0  0  0  0  0  0  0  0  0  0  0
   24.8333  -21.7183   -6.8601 O   0  0  0  0  0  0  0  0  0  0  0  0
   23.3617  -20.9806   -8.4016 O   0  0  0  0  0  0  0  0  0  0  0  0
  2  3  1  0
  2  1  1  6
  4  5  1  1
  4  2  1  0
  6  4  1  0
  7  6  2  0
  9  8  1  0
 10  9  1  6
 10 11  1  0
 11  6  1  0
 12 10  1  0
 12 14  1  0
 13 12  2  0
 15 14  1  0
 15 26  1  0
 15 16  1  1
 17 16  1  0
 17 18  2  0
 19 18  1  0
 20 25  2  0
 20 19  1  0
 21 20  1  0
 22 23  1  0
 22 21  2  0
 23 24  2  0
 24 25  1  0
 25 17  1  0
 26 27  1  0
 28 26  2  0
M  END
$$$$
