TSW.pdb
     RDKit          3D

 28 29  0  0  1  0  0  0  0  0999 V2000
   20.5546  -18.2579  -18.3119 C   0  0  0  0  0  0  0  0  0  0  0  0
   21.4628  -18.6826  -17.1997 C   0  0  1  0  0  0  0  0  0  0  0  0
   22.6756  -19.1591  -17.6551 O   0  0  0  0  0  0  0  0  0  0  0  0
   21.6482  -17.4674  -16.2813 C   0  0  2  0  0  0  0  0  0  0  0  0
   22.4003  -16.5010  -17.0741 N   0  0  0  0  0  0  0  0  0  0  0  0
   22.4365  -17.8553  -15.0944 C   0  0  0  0  0  0  0  0  0  0  0  0
   23.4926  -17.2314  -14.8060 O   0  0  0  0  0  0  0  0  0  0  0  0
   21.4184  -21.1920  -12.8154 O   0  0  0  0  0  0  0  0  0  0  0  0
   21.9216  -20.1168  -12.1110 C   0  0  0  0  0  0  0  0  0  0  0  0
   22.7645  -19.2872  -13.0887 C   0  0  2  0  0  0  0  0  0  0  0  0
   22.0171  -18.9380  -14.2583 N   0  0  0  0  0  0  0  0  0  0  0  0
   23.8944  -20.1655  -13.4853 C   0  0  0  0  0  0  0  0  0  0  0  0
   23.8295  -20.7562  -14.5827 O   0  0  0  0  0  0  0  0  0  0  0  0
   24.9775  -20.2727  -12.5802 N   0  0  0  0  0  0  0  0  0  0  0  0
   26.1258  -21.0600  -12.9615 C   0  0  1  0  0  0  0  0  0  0  0  0
   27.2326  -20.8049  -11.9712 C   0  0  0  0  0  0  0  0  0  0  0  0
   26.6511  -20.7080  -10.6052 C   0  0  0  0  0  0  0  0  0  0  0  0
   25.3166  -20.7871  -10.2713 C   0  0  0  0  0  0  0  0  0  0  0  0
   25.2625  -20.6423   -8.9402 N   0  0  0  0  0  0  0  0  0  0  0  0
   26.4872  -20.4766   -8.4175 C   0  0  0  0  0  0  0  0  0  0  0  0
   26.9465  -20.2903   -7.1207 C   0  0  0  0  0  0  0  0  0  0  0  0
   28.2757  -20.1428   -6.8454 C   0  0  0  0  0  0  0  0  0  0  0  0
   29.1726  -20.1829   -7.9003 C   0  0  0  0  0  0  0  0  0  0  0  0
   28.7493  -20.3656   -9.1926 C   0  0  0  0  0  0  0  0  0  0  0  0
   27.4023  -20.5137   -9.4590 C   0  0  0  0  0  0  0  0  0  0  0  0
   25.7521  -22.4933  -12.9331 C   0  0  0  0  0  0  0  0  0  0  0  0
   24.4793  -22.9086  -12.5077 O   0  0  0  0  0  0  0  0  0  0  0  0
   26.5391  -23.4034  -13.2813 O   0  0  0  0  0  0  0  0  0  0  0  0
  2  3  1  0
  2  1  1  6
  4  5  1  6
  4  2  1  0
  6  4  1  0
  7  6  2  0
  9  8  1  0
 10  9  1  1
 10 11  1  0
 11  6  1  0
 12 10  1  0
 12 14  1  0
 13 12  2  0
 15 14  1  0
 15 26  1  0
 15 16  1  1
 17 16  1  0
 17 18  2  0
 19 18  1  0
 20 25  2  0
 20 19  1  0
 21 20  1  0
 22 23  1  0
 22 21  2  0
 23 24  2  0
 24 25  1  0
 25 17  1  0
 26 27  1  0
 28 26  2  0
M  END
$$$$
