GGD.pdb
     RDKit          3D

 17 16  0  0  1  0  0  0  0  0999 V2000
   -1.5038  -29.1445   28.2648 N   0  0  0  0  0  0  0  0  0  0  0  0
   -2.8899  -28.7964   28.3707 C   0  0  0  0  0  0  0  0  0  0  0  0
   -3.1185  -27.3812   27.9857 C   0  0  0  0  0  0  0  0  0  0  0  0
   -3.5142  -27.1664   26.8091 O   0  0  0  0  0  0  0  0  0  0  0  0
   -2.9067  -26.3064   28.8873 N   0  0  0  0  0  0  0  0  0  0  0  0
   -3.1712  -24.9664   28.4440 C   0  0  0  0  0  0  0  0  0  0  0  0
   -4.0314  -24.2301   29.4249 C   0  0  0  0  0  0  0  0  0  0  0  0
   -3.5205  -23.6930   30.4359 O   0  0  0  0  0  0  0  0  0  0  0  0
   -5.4326  -24.1131   29.2526 N   0  0  0  0  0  0  0  0  0  0  0  0
   -6.2717  -23.3388   30.1429 C   0  0  1  0  0  0  0  0  0  0  0  0
   -6.9428  -22.1919   29.4359 C   0  0  0  0  0  0  0  0  0  0  0  0
   -7.7531  -21.3369   30.3031 C   0  0  0  0  0  0  0  0  0  0  0  0
   -8.9163  -21.6764   30.6140 O   0  0  0  0  0  0  0  0  0  0  0  0
   -7.1981  -24.2344   30.8275 C   0  0  0  0  0  0  0  0  0  0  0  0
   -7.6799  -25.2859   30.3221 O   0  0  0  0  0  0  0  0  0  0  0  0
   -7.2829  -20.1394   30.8097 O   0  0  0  0  0  0  0  0  0  0  0  0
   -7.5928  -23.9354   32.1198 O   0  0  0  0  0  0  0  0  0  0  0  0
  1  2  1  0
  3  2  1  0
  3  4  2  0
  5  6  1  0
  5  3  1  0
  7  8  2  0
  7  6  1  0
  9  7  1  0
 10  9  1  0
 10 14  1  0
 10 11  1  6
 12 16  1  0
 12 11  1  0
 13 12  2  0
 14 17  1  0
 15 14  2  0
M  END
$$$$
