GGD.pdb
     RDKit          3D

 17 16  0  0  1  0  0  0  0  0999 V2000
    7.7641  -13.0541   17.7137 N   0  0  0  0  0  0  0  0  0  0  0  0
    7.4759  -14.1879   18.5416 C   0  0  0  0  0  0  0  0  0  0  0  0
    8.0125  -14.0011   19.9128 C   0  0  0  0  0  0  0  0  0  0  0  0
    9.2196  -13.6541   20.0112 O   0  0  0  0  0  0  0  0  0  0  0  0
    7.2182  -14.1997   21.0716 N   0  0  0  0  0  0  0  0  0  0  0  0
    7.8189  -14.0211   22.3636 C   0  0  0  0  0  0  0  0  0  0  0  0
    8.4837  -15.2794   22.8315 C   0  0  0  0  0  0  0  0  0  0  0  0
    7.8898  -16.3798   22.7420 O   0  0  0  0  0  0  0  0  0  0  0  0
    9.7880  -15.2766   23.3846 N   0  0  0  0  0  0  0  0  0  0  0  0
   10.4278  -16.4714   23.8941 C   0  0  1  0  0  0  0  0  0  0  0  0
   11.9241  -16.4241   23.7386 C   0  0  0  0  0  0  0  0  0  0  0  0
   12.3860  -16.3204   22.3546 C   0  0  0  0  0  0  0  0  0  0  0  0
   11.8740  -17.0345   21.4641 O   0  0  0  0  0  0  0  0  0  0  0  0
    9.9831  -16.7057   25.2639 C   0  0  0  0  0  0  0  0  0  0  0  0
    9.2859  -15.8967   25.9367 O   0  0  0  0  0  0  0  0  0  0  0  0
   13.3881  -15.4478   21.9725 O   0  0  0  0  0  0  0  0  0  0  0  0
   10.3349  -17.8869   25.8933 O   0  0  0  0  0  0  0  0  0  0  0  0
  1  2  1  0
  3  2  1  0
  3  4  2  0
  5  6  1  0
  5  3  1  0
  7  8  2  0
  7  6  1  0
  9  7  1  0
 10  9  1  0
 10 14  1  0
 10 11  1  1
 12 16  1  0
 12 11  1  0
 13 12  2  0
 14 17  1  0
 15 14  2  0
M  END
$$$$
