GGD.pdb
     RDKit          3D

 17 16  0  0  1  0  0  0  0  0999 V2000
    5.4778  -19.5492   18.6522 N   0  0  0  0  0  0  0  0  0  0  0  0
    6.6035  -19.6021   19.5375 C   0  0  0  0  0  0  0  0  0  0  0  0
    7.4896  -18.4262   19.3495 C   0  0  0  0  0  0  0  0  0  0  0  0
    7.0723  -17.5125   18.5892 O   0  0  0  0  0  0  0  0  0  0  0  0
    8.7520  -18.3181   19.9882 N   0  0  0  0  0  0  0  0  0  0  0  0
    9.4836  -17.0878   19.8753 C   0  0  0  0  0  0  0  0  0  0  0  0
   10.8754  -17.2329   20.4103 C   0  0  0  0  0  0  0  0  0  0  0  0
   11.7535  -16.3841   20.1275 O   0  0  0  0  0  0  0  0  0  0  0  0
   11.2489  -18.3165   21.2428 N   0  0  0  0  0  0  0  0  0  0  0  0
   11.5684  -18.1555   22.6458 C   0  0  1  0  0  0  0  0  0  0  0  0
   10.6248  -17.2087   23.3377 C   0  0  0  0  0  0  0  0  0  0  0  0
   11.2698  -16.2860   24.2716 C   0  0  0  0  0  0  0  0  0  0  0  0
   12.4839  -16.4126   24.5454 O   0  0  0  0  0  0  0  0  0  0  0  0
   11.6506  -19.4708   23.2722 C   0  0  0  0  0  0  0  0  0  0  0  0
   12.5679  -19.8299   24.0614 O   0  0  0  0  0  0  0  0  0  0  0  0
   10.5841  -15.2526   24.8829 O   0  0  0  0  0  0  0  0  0  0  0  0
   10.6697  -20.4084   23.0007 O   0  0  0  0  0  0  0  0  0  0  0  0
  1  2  1  0
  3  2  1  0
  3  4  2  0
  5  6  1  0
  5  3  1  0
  7  8  2  0
  7  6  1  0
  9  7  1  0
 10  9  1  0
 10 14  1  0
 10 11  1  1
 12 16  1  0
 12 11  1  0
 13 12  2  0
 14 17  1  0
 15 14  2  0
M  END
$$$$
