GGD.pdb
     RDKit          3D

 17 16  0  0  1  0  0  0  0  0999 V2000
    6.4172  -16.8616   17.8570 N   0  0  0  0  0  0  0  0  0  0  0  0
    6.3412  -15.8818   18.9000 C   0  0  0  0  0  0  0  0  0  0  0  0
    7.4483  -14.8987   18.7942 C   0  0  0  0  0  0  0  0  0  0  0  0
    8.3269  -15.1203   17.9190 O   0  0  0  0  0  0  0  0  0  0  0  0
    7.5303  -13.7560   19.6313 N   0  0  0  0  0  0  0  0  0  0  0  0
    8.6274  -12.8460   19.4576 C   0  0  0  0  0  0  0  0  0  0  0  0
    9.8900  -13.4000   20.0434 C   0  0  0  0  0  0  0  0  0  0  0  0
   10.9408  -12.7162   20.0431 O   0  0  0  0  0  0  0  0  0  0  0  0
    9.9466  -14.6965   20.6116 N   0  0  0  0  0  0  0  0  0  0  0  0
   11.1526  -15.2473   21.1934 C   0  0  1  0  0  0  0  0  0  0  0  0
   10.8548  -16.3111   22.2157 C   0  0  0  0  0  0  0  0  0  0  0  0
   10.2827  -15.8077   23.4642 C   0  0  0  0  0  0  0  0  0  0  0  0
   10.7014  -14.7400   23.9640 O   0  0  0  0  0  0  0  0  0  0  0  0
   12.0422  -15.6879   20.1240 C   0  0  0  0  0  0  0  0  0  0  0  0
   13.2985  -15.5674   20.1449 O   0  0  0  0  0  0  0  0  0  0  0  0
    9.2742  -16.4726   24.1370 O   0  0  0  0  0  0  0  0  0  0  0  0
   11.4992  -16.2818   18.9982 O   0  0  0  0  0  0  0  0  0  0  0  0
  1  2  1  0
  3  2  1  0
  3  4  2  0
  5  6  1  0
  5  3  1  0
  7  8  2  0
  7  6  1  0
  9  7  1  0
 10  9  1  0
 10 14  1  0
 10 11  1  1
 12 16  1  0
 12 11  1  0
 13 12  2  0
 14 17  1  0
 15 14  2  0
M  END
$$$$
