GGD.pdb
     RDKit          3D

 17 16  0  0  1  0  0  0  0  0999 V2000
    6.5633  -15.4850   22.6916 N   0  0  0  0  0  0  0  0  0  0  0  0
    6.9940  -14.1695   22.3204 C   0  0  0  0  0  0  0  0  0  0  0  0
    7.3607  -14.1107   20.8832 C   0  0  0  0  0  0  0  0  0  0  0  0
    7.3562  -15.1986   20.2479 O   0  0  0  0  0  0  0  0  0  0  0  0
    7.7034  -12.8949   20.2372 N   0  0  0  0  0  0  0  0  0  0  0  0
    7.9701  -12.9100   18.8264 C   0  0  0  0  0  0  0  0  0  0  0  0
    9.2940  -13.5459   18.5311 C   0  0  0  0  0  0  0  0  0  0  0  0
    9.7060  -13.6300   17.3501 O   0  0  0  0  0  0  0  0  0  0  0  0
   10.1194  -14.0690   19.5567 N   0  0  0  0  0  0  0  0  0  0  0  0
   11.3346  -14.8084   19.2868 C   0  0  1  0  0  0  0  0  0  0  0  0
   12.4654  -13.9081   18.8670 C   0  0  0  0  0  0  0  0  0  0  0  0
   13.7296  -14.6001   18.6175 C   0  0  0  0  0  0  0  0  0  0  0  0
   14.8144  -13.9840   18.7101 O   0  0  0  0  0  0  0  0  0  0  0  0
   11.6466  -15.6527   20.4353 C   0  0  0  0  0  0  0  0  0  0  0  0
   12.6279  -16.4444   20.4941 O   0  0  0  0  0  0  0  0  0  0  0  0
   13.7853  -15.9385   18.2749 O   0  0  0  0  0  0  0  0  0  0  0  0
   10.8280  -15.6026   21.5500 O   0  0  0  0  0  0  0  0  0  0  0  0
  1  2  1  0
  3  2  1  0
  3  4  2  0
  5  6  1  0
  5  3  1  0
  7  8  2  0
  7  6  1  0
  9  7  1  0
 10  9  1  0
 10 14  1  0
 10 11  1  1
 12 16  1  0
 12 11  1  0
 13 12  2  0
 14 17  1  0
 15 14  2  0
M  END
$$$$
