GGD.pdb
     RDKit          3D

 17 16  0  0  1  0  0  0  0  0999 V2000
    7.9216  -15.1416   16.3704 N   0  0  0  0  0  0  0  0  0  0  0  0
    7.8853  -16.0331   17.4919 C   0  0  0  0  0  0  0  0  0  0  0  0
    8.3417  -15.3552   18.7310 C   0  0  0  0  0  0  0  0  0  0  0  0
    9.5726  -15.1032   18.8237 O   0  0  0  0  0  0  0  0  0  0  0  0
    7.4481  -14.9996   19.7741 N   0  0  0  0  0  0  0  0  0  0  0  0
    7.9679  -14.3381   20.9377 C   0  0  0  0  0  0  0  0  0  0  0  0
    8.3993  -15.3271   21.9769 C   0  0  0  0  0  0  0  0  0  0  0  0
    7.6889  -16.3283   22.2311 O   0  0  0  0  0  0  0  0  0  0  0  0
    9.6068  -15.1737   22.7018 N   0  0  0  0  0  0  0  0  0  0  0  0
   10.0498  -16.1241   23.7002 C   0  0  1  0  0  0  0  0  0  0  0  0
   11.5496  -16.1611   23.8224 C   0  0  0  0  0  0  0  0  0  0  0  0
   12.2505  -16.4821   22.5793 C   0  0  0  0  0  0  0  0  0  0  0  0
   11.8987  -17.4676   21.8938 O   0  0  0  0  0  0  0  0  0  0  0  0
    9.3610  -15.8536   24.9578 C   0  0  0  0  0  0  0  0  0  0  0  0
    9.3203  -16.6508   25.9356 O   0  0  0  0  0  0  0  0  0  0  0  0
   13.3117  -15.7286   22.1126 O   0  0  0  0  0  0  0  0  0  0  0  0
    8.6987  -14.6491   25.1173 O   0  0  0  0  0  0  0  0  0  0  0  0
  1  2  1  0
  3  2  1  0
  3  4  2  0
  5  6  1  0
  5  3  1  0
  7  8  2  0
  7  6  1  0
  9  7  1  0
 10  9  1  0
 10 14  1  0
 10 11  1  1
 12 16  1  0
 12 11  1  0
 13 12  2  0
 14 17  1  0
 15 14  2  0
M  END
$$$$
