GGD.pdb
     RDKit          3D

 17 16  0  0  1  0  0  0  0  0999 V2000
    2.9405  -18.9571   20.7822 N   0  0  0  0  0  0  0  0  0  0  0  0
    3.7550  -18.4359   21.8398 C   0  0  0  0  0  0  0  0  0  0  0  0
    4.8747  -17.6224   21.3034 C   0  0  0  0  0  0  0  0  0  0  0  0
    5.8024  -18.2429   20.7190 O   0  0  0  0  0  0  0  0  0  0  0  0
    4.9160  -16.2101   21.4331 N   0  0  0  0  0  0  0  0  0  0  0  0
    6.0749  -15.5038   20.9641 C   0  0  0  0  0  0  0  0  0  0  0  0
    7.1028  -15.3690   22.0454 C   0  0  0  0  0  0  0  0  0  0  0  0
    8.1474  -14.7050   21.8460 O   0  0  0  0  0  0  0  0  0  0  0  0
    6.9390  -15.9758   23.3149 N   0  0  0  0  0  0  0  0  0  0  0  0
    7.9461  -15.9098   24.3531 C   0  0  1  0  0  0  0  0  0  0  0  0
    7.5045  -15.0669   25.5192 C   0  0  0  0  0  0  0  0  0  0  0  0
    7.5347  -13.6258   25.2704 C   0  0  0  0  0  0  0  0  0  0  0  0
    7.9895  -13.1817   24.1929 O   0  0  0  0  0  0  0  0  0  0  0  0
    8.3446  -17.2645   24.7205 C   0  0  0  0  0  0  0  0  0  0  0  0
    9.2137  -17.5415   25.5931 O   0  0  0  0  0  0  0  0  0  0  0  0
    7.0724  -12.7058   26.1932 O   0  0  0  0  0  0  0  0  0  0  0  0
    7.7456  -18.3383   24.0854 O   0  0  0  0  0  0  0  0  0  0  0  0
  1  2  1  0
  3  2  1  0
  3  4  2  0
  5  6  1  0
  5  3  1  0
  7  8  2  0
  7  6  1  0
  9  7  1  0
 10  9  1  0
 10 14  1  0
 10 11  1  1
 12 16  1  0
 12 11  1  0
 13 12  2  0
 14 17  1  0
 15 14  2  0
M  END
$$$$
