GGD.pdb
     RDKit          3D

 17 16  0  0  1  0  0  0  0  0999 V2000
   11.1880  -16.7219   17.0593 N   0  0  0  0  0  0  0  0  0  0  0  0
   10.3484  -17.1359   18.1444 C   0  0  0  0  0  0  0  0  0  0  0  0
   10.7070  -16.4297   19.3998 C   0  0  0  0  0  0  0  0  0  0  0  0
   11.7429  -15.7132   19.3759 O   0  0  0  0  0  0  0  0  0  0  0  0
    9.9313  -16.5440   20.5823 N   0  0  0  0  0  0  0  0  0  0  0  0
   10.3236  -15.7973   21.7443 C   0  0  0  0  0  0  0  0  0  0  0  0
   11.2083  -16.6106   22.6388 C   0  0  0  0  0  0  0  0  0  0  0  0
   10.9200  -17.8024   22.9000 O   0  0  0  0  0  0  0  0  0  0  0  0
   12.3860  -16.0749   23.2159 N   0  0  0  0  0  0  0  0  0  0  0  0
   13.2411  -16.8341   24.1041 C   0  0  1  0  0  0  0  0  0  0  0  0
   14.6134  -16.2279   24.2261 C   0  0  0  0  0  0  0  0  0  0  0  0
   15.3307  -16.0935   22.9584 C   0  0  0  0  0  0  0  0  0  0  0  0
   15.5233  -17.0950   22.2339 O   0  0  0  0  0  0  0  0  0  0  0  0
   12.5609  -17.0187   25.3817 C   0  0  0  0  0  0  0  0  0  0  0  0
   12.8059  -17.9545   26.1926 O   0  0  0  0  0  0  0  0  0  0  0  0
   15.8195  -14.8804   22.5100 O   0  0  0  0  0  0  0  0  0  0  0  0
   11.5757  -16.1218   25.7558 O   0  0  0  0  0  0  0  0  0  0  0  0
  1  2  1  0
  3  2  1  0
  3  4  2  0
  5  6  1  0
  5  3  1  0
  7  8  2  0
  7  6  1  0
  9  7  1  0
 10  9  1  0
 10 14  1  0
 10 11  1  1
 12 16  1  0
 12 11  1  0
 13 12  2  0
 14 17  1  0
 15 14  2  0
M  END
$$$$
