GGD.pdb
     RDKit          3D

 17 16  0  0  1  0  0  0  0  0999 V2000
    7.4730  -12.4669   19.5143 N   0  0  0  0  0  0  0  0  0  0  0  0
    8.8315  -12.9227   19.4920 C   0  0  0  0  0  0  0  0  0  0  0  0
    8.9176  -14.3687   19.8158 C   0  0  0  0  0  0  0  0  0  0  0  0
    7.8584  -14.9317   20.2007 O   0  0  0  0  0  0  0  0  0  0  0  0
   10.1282  -15.1002   19.7033 N   0  0  0  0  0  0  0  0  0  0  0  0
   10.1204  -16.5047   20.0017 C   0  0  0  0  0  0  0  0  0  0  0  0
   11.1364  -16.8426   21.0494 C   0  0  0  0  0  0  0  0  0  0  0  0
   11.2670  -18.0247   21.4461 O   0  0  0  0  0  0  0  0  0  0  0  0
   11.9762  -15.8571   21.6242 N   0  0  0  0  0  0  0  0  0  0  0  0
   12.9667  -16.1617   22.6355 C   0  0  1  0  0  0  0  0  0  0  0  0
   14.1109  -15.1839   22.6217 C   0  0  0  0  0  0  0  0  0  0  0  0
   14.8815  -15.1713   21.3785 C   0  0  0  0  0  0  0  0  0  0  0  0
   15.1237  -16.2407   20.7762 O   0  0  0  0  0  0  0  0  0  0  0  0
   12.3069  -16.2809   23.9314 C   0  0  0  0  0  0  0  0  0  0  0  0
   11.1013  -15.9771   24.1497 O   0  0  0  0  0  0  0  0  0  0  0  0
   15.3682  -14.0031   20.8215 O   0  0  0  0  0  0  0  0  0  0  0  0
   13.0276  -16.7565   25.0128 O   0  0  0  0  0  0  0  0  0  0  0  0
  1  2  1  0
  3  2  1  0
  3  4  2  0
  5  6  1  0
  5  3  1  0
  7  8  2  0
  7  6  1  0
  9  7  1  0
 10  9  1  0
 10 14  1  0
 10 11  1  1
 12 16  1  0
 12 11  1  0
 13 12  2  0
 14 17  1  0
 15 14  2  0
M  END
$$$$
