GGD.pdb
     RDKit          3D

 17 16  0  0  1  0  0  0  0  0999 V2000
    5.5443  -18.2149   19.2546 N   0  0  0  0  0  0  0  0  0  0  0  0
    6.7684  -18.0580   19.9830 C   0  0  0  0  0  0  0  0  0  0  0  0
    7.0990  -16.6236   20.1740 C   0  0  0  0  0  0  0  0  0  0  0  0
    8.1967  -16.2231   19.7032 O   0  0  0  0  0  0  0  0  0  0  0  0
    6.2314  -15.7294   20.8527 N   0  0  0  0  0  0  0  0  0  0  0  0
    6.5998  -14.3449   20.9500 C   0  0  0  0  0  0  0  0  0  0  0  0
    7.7347  -14.1514   21.9085 C   0  0  0  0  0  0  0  0  0  0  0  0
    8.1743  -13.0013   22.1445 O   0  0  0  0  0  0  0  0  0  0  0  0
    8.3464  -15.2413   22.5754 N   0  0  0  0  0  0  0  0  0  0  0  0
    9.4995  -15.0878   23.4374 C   0  0  1  0  0  0  0  0  0  0  0  0
    9.1371  -15.1945   24.8944 C   0  0  0  0  0  0  0  0  0  0  0  0
    8.9211  -16.5621   25.3659 C   0  0  0  0  0  0  0  0  0  0  0  0
    8.9917  -17.5226   24.5675 O   0  0  0  0  0  0  0  0  0  0  0  0
   10.5392  -16.0213   23.0172 C   0  0  0  0  0  0  0  0  0  0  0  0
   11.7117  -16.0422   23.4844 O   0  0  0  0  0  0  0  0  0  0  0  0
    8.6348  -16.8527   26.6870 O   0  0  0  0  0  0  0  0  0  0  0  0
   10.2483  -16.9587   22.0417 O   0  0  0  0  0  0  0  0  0  0  0  0
  1  2  1  0
  3  2  1  0
  3  4  2  0
  5  6  1  0
  5  3  1  0
  7  8  2  0
  7  6  1  0
  9  7  1  0
 10  9  1  0
 10 14  1  0
 10 11  1  1
 12 16  1  0
 12 11  1  0
 13 12  2  0
 14 17  1  0
 15 14  2  0
M  END
$$$$
