GGD.pdb
     RDKit          3D

 17 16  0  0  1  0  0  0  0  0999 V2000
    0.2769  -21.3390   21.1373 N   0  0  0  0  0  0  0  0  0  0  0  0
    1.1020  -20.7938   20.1000 C   0  0  0  0  0  0  0  0  0  0  0  0
    2.0939  -19.8367   20.6508 C   0  0  0  0  0  0  0  0  0  0  0  0
    2.9758  -19.4096   19.8590 O   0  0  0  0  0  0  0  0  0  0  0  0
    2.0663  -19.4107   22.0039 N   0  0  0  0  0  0  0  0  0  0  0  0
    3.0333  -18.4465   22.4476 C   0  0  0  0  0  0  0  0  0  0  0  0
    4.3000  -19.1125   22.8904 C   0  0  0  0  0  0  0  0  0  0  0  0
    4.8495  -18.7755   23.9657 O   0  0  0  0  0  0  0  0  0  0  0  0
    4.9174  -20.1325   22.1253 N   0  0  0  0  0  0  0  0  0  0  0  0
    6.1602  -20.7643   22.5158 C   0  0  1  0  0  0  0  0  0  0  0  0
    5.9634  -22.1996   22.9241 C   0  0  0  0  0  0  0  0  0  0  0  0
    5.3291  -22.3759   24.2303 C   0  0  0  0  0  0  0  0  0  0  0  0
    4.3621  -23.1587   24.3609 O   0  0  0  0  0  0  0  0  0  0  0  0
    7.1446  -20.5816   21.4544 C   0  0  0  0  0  0  0  0  0  0  0  0
    6.8595  -20.4350   20.2335 O   0  0  0  0  0  0  0  0  0  0  0  0
    5.7582  -21.7010   25.3583 O   0  0  0  0  0  0  0  0  0  0  0  0
    8.4897  -20.5637   21.7791 O   0  0  0  0  0  0  0  0  0  0  0  0
  1  2  1  0
  3  2  1  0
  3  4  2  0
  5  6  1  0
  5  3  1  0
  7  8  2  0
  7  6  1  0
  9  7  1  0
 10  9  1  0
 10 14  1  0
 10 11  1  6
 12 16  1  0
 12 11  1  0
 13 12  2  0
 14 17  1  0
 15 14  2  0
M  END
$$$$
