GGD.pdb
     RDKit          3D

 17 16  0  0  1  0  0  0  0  0999 V2000
    7.8488  -14.4922   14.6310 N   0  0  0  0  0  0  0  0  0  0  0  0
    8.7950  -14.4242   15.7052 C   0  0  0  0  0  0  0  0  0  0  0  0
    8.1153  -14.1980   17.0053 C   0  0  0  0  0  0  0  0  0  0  0  0
    7.5978  -15.2030   17.5614 O   0  0  0  0  0  0  0  0  0  0  0  0
    8.0417  -12.9164   17.6095 N   0  0  0  0  0  0  0  0  0  0  0  0
    7.5895  -12.8151   18.9686 C   0  0  0  0  0  0  0  0  0  0  0  0
    8.6917  -13.1320   19.9324 C   0  0  0  0  0  0  0  0  0  0  0  0
    8.7544  -12.5434   21.0375 O   0  0  0  0  0  0  0  0  0  0  0  0
    9.6904  -14.0929   19.6390 N   0  0  0  0  0  0  0  0  0  0  0  0
   10.7554  -14.4259   20.5616 C   0  0  1  0  0  0  0  0  0  0  0  0
   10.4609  -15.6806   21.3391 C   0  0  0  0  0  0  0  0  0  0  0  0
   11.3314  -15.8950   22.4949 C   0  0  0  0  0  0  0  0  0  0  0  0
   10.8582  -15.8752   23.6527 O   0  0  0  0  0  0  0  0  0  0  0  0
   12.0219  -14.4628   19.8379 C   0  0  0  0  0  0  0  0  0  0  0  0
   12.1249  -14.5317   18.5817 O   0  0  0  0  0  0  0  0  0  0  0  0
   12.6888  -16.1246   22.3662 O   0  0  0  0  0  0  0  0  0  0  0  0
   13.2067  -14.4208   20.5516 O   0  0  0  0  0  0  0  0  0  0  0  0
  1  2  1  0
  3  2  1  0
  3  4  2  0
  5  6  1  0
  5  3  1  0
  7  8  2  0
  7  6  1  0
  9  7  1  0
 10  9  1  0
 10 14  1  0
 10 11  1  6
 12 16  1  0
 12 11  1  0
 13 12  2  0
 14 17  1  0
 15 14  2  0
M  END
$$$$
