GGD.pdb
     RDKit          3D

 17 16  0  0  1  0  0  0  0  0999 V2000
    6.4635  -22.0750   21.2851 N   0  0  0  0  0  0  0  0  0  0  0  0
    5.3766  -21.2284   20.8903 C   0  0  0  0  0  0  0  0  0  0  0  0
    5.4778  -19.8924   21.5290 C   0  0  0  0  0  0  0  0  0  0  0  0
    6.3921  -19.1301   21.1165 O   0  0  0  0  0  0  0  0  0  0  0  0
    4.5949  -19.4751   22.5583 N   0  0  0  0  0  0  0  0  0  0  0  0
    4.7086  -18.1384   23.0704 C   0  0  0  0  0  0  0  0  0  0  0  0
    5.8208  -18.0323   24.0684 C   0  0  0  0  0  0  0  0  0  0  0  0
    5.9716  -16.9835   24.7385 O   0  0  0  0  0  0  0  0  0  0  0  0
    6.7313  -19.0944   24.2915 N   0  0  0  0  0  0  0  0  0  0  0  0
    7.8463  -18.9937   25.2096 C   0  0  1  0  0  0  0  0  0  0  0  0
    7.4203  -19.1751   26.6418 C   0  0  0  0  0  0  0  0  0  0  0  0
    8.5191  -19.1579   27.6070 C   0  0  0  0  0  0  0  0  0  0  0  0
    9.4906  -18.3871   27.4424 O   0  0  0  0  0  0  0  0  0  0  0  0
    8.8998  -19.9100   24.7859 C   0  0  0  0  0  0  0  0  0  0  0  0
    9.2908  -20.9068   25.4543 O   0  0  0  0  0  0  0  0  0  0  0  0
    8.5366  -19.9743   28.7228 O   0  0  0  0  0  0  0  0  0  0  0  0
    9.5309  -19.6959   23.5730 O   0  0  0  0  0  0  0  0  0  0  0  0
  1  2  1  0
  3  2  1  0
  3  4  2  0
  5  6  1  0
  5  3  1  0
  7  8  2  0
  7  6  1  0
  9  7  1  0
 10  9  1  0
 10 14  1  0
 10 11  1  1
 12 16  1  0
 12 11  1  0
 13 12  2  0
 14 17  1  0
 15 14  2  0
M  END
$$$$
