GGD.pdb
     RDKit          3D

 17 16  0  0  1  0  0  0  0  0999 V2000
    7.5921  -14.4421   14.4685 N   0  0  0  0  0  0  0  0  0  0  0  0
    8.4059  -13.8326   15.4784 C   0  0  0  0  0  0  0  0  0  0  0  0
    7.7303  -13.8588   16.7998 C   0  0  0  0  0  0  0  0  0  0  0  0
    6.6715  -14.5360   16.8864 O   0  0  0  0  0  0  0  0  0  0  0  0
    8.2384  -13.1599   17.9252 N   0  0  0  0  0  0  0  0  0  0  0  0
    7.6763  -13.4266   19.2194 C   0  0  0  0  0  0  0  0  0  0  0  0
    8.4520  -14.4863   19.9400 C   0  0  0  0  0  0  0  0  0  0  0  0
    8.1611  -15.6964   19.7887 O   0  0  0  0  0  0  0  0  0  0  0  0
    9.5268  -14.1695   20.8067 N   0  0  0  0  0  0  0  0  0  0  0  0
   10.3741  -15.1775   21.4086 C   0  0  1  0  0  0  0  0  0  0  0  0
   11.7858  -14.6917   21.6000 C   0  0  0  0  0  0  0  0  0  0  0  0
   12.6916  -15.6792   22.1866 C   0  0  0  0  0  0  0  0  0  0  0  0
   12.3755  -16.2777   23.2387 O   0  0  0  0  0  0  0  0  0  0  0  0
    9.7453  -15.6631   22.6325 C   0  0  0  0  0  0  0  0  0  0  0  0
    9.9577  -16.7979   23.1428 O   0  0  0  0  0  0  0  0  0  0  0  0
   13.9132  -15.9916   21.6194 O   0  0  0  0  0  0  0  0  0  0  0  0
    8.8509  -14.8452   23.3003 O   0  0  0  0  0  0  0  0  0  0  0  0
  1  2  1  0
  3  2  1  0
  3  4  2  0
  5  6  1  0
  5  3  1  0
  7  8  2  0
  7  6  1  0
  9  7  1  0
 10  9  1  0
 10 14  1  0
 10 11  1  1
 12 16  1  0
 12 11  1  0
 13 12  2  0
 14 17  1  0
 15 14  2  0
M  END
$$$$
