GGD.pdb
     RDKit          3D

 17 16  0  0  1  0  0  0  0  0999 V2000
    8.7046  -12.8825   18.3461 N   0  0  0  0  0  0  0  0  0  0  0  0
    7.8453  -13.8878   18.8983 C   0  0  0  0  0  0  0  0  0  0  0  0
    7.8635  -13.8529   20.3821 C   0  0  0  0  0  0  0  0  0  0  0  0
    8.7440  -13.1343   20.9256 O   0  0  0  0  0  0  0  0  0  0  0  0
    6.9400  -14.5883   21.1693 N   0  0  0  0  0  0  0  0  0  0  0  0
    7.0625  -14.5500   22.5994 C   0  0  0  0  0  0  0  0  0  0  0  0
    7.9356  -15.6600   23.0992 C   0  0  0  0  0  0  0  0  0  0  0  0
    7.4261  -16.7279   23.5137 O   0  0  0  0  0  0  0  0  0  0  0  0
    9.3477  -15.5497   23.1234 N   0  0  0  0  0  0  0  0  0  0  0  0
   10.2091  -16.5979   23.6291 C   0  0  1  0  0  0  0  0  0  0  0  0
   11.6545  -16.3614   23.2821 C   0  0  0  0  0  0  0  0  0  0  0  0
   11.9657  -16.4983   21.8594 C   0  0  0  0  0  0  0  0  0  0  0  0
   11.3418  -15.8243   21.0100 O   0  0  0  0  0  0  0  0  0  0  0  0
    9.9649  -16.7710   25.0572 C   0  0  0  0  0  0  0  0  0  0  0  0
   10.0888  -17.8645   25.6755 O   0  0  0  0  0  0  0  0  0  0  0  0
   12.9426  -17.3597   21.3954 O   0  0  0  0  0  0  0  0  0  0  0  0
    9.5695  -15.6792   25.8100 O   0  0  0  0  0  0  0  0  0  0  0  0
  1  2  1  0
  3  2  1  0
  3  4  2  0
  5  6  1  0
  5  3  1  0
  7  8  2  0
  7  6  1  0
  9  7  1  0
 10  9  1  0
 10 14  1  0
 10 11  1  1
 12 16  1  0
 12 11  1  0
 13 12  2  0
 14 17  1  0
 15 14  2  0
M  END
$$$$
