GGD.pdb
     RDKit          3D

 17 16  0  0  1  0  0  0  0  0999 V2000
    1.2750  -19.4365   20.9757 N   0  0  0  0  0  0  0  0  0  0  0  0
    2.1403  -19.7443   22.0758 C   0  0  0  0  0  0  0  0  0  0  0  0
    3.5494  -19.3983   21.7631 C   0  0  0  0  0  0  0  0  0  0  0  0
    4.4130  -20.2961   21.9508 O   0  0  0  0  0  0  0  0  0  0  0  0
    3.9259  -18.1205   21.2745 N   0  0  0  0  0  0  0  0  0  0  0  0
    5.3144  -17.8558   21.0217 C   0  0  0  0  0  0  0  0  0  0  0  0
    6.0930  -17.7762   22.2990 C   0  0  0  0  0  0  0  0  0  0  0  0
    5.6868  -17.0594   23.2439 O   0  0  0  0  0  0  0  0  0  0  0  0
    7.2991  -18.4951   22.4875 N   0  0  0  0  0  0  0  0  0  0  0  0
    7.9905  -18.5501   23.7584 C   0  0  1  0  0  0  0  0  0  0  0  0
    7.0675  -18.9106   24.8914 C   0  0  0  0  0  0  0  0  0  0  0  0
    7.7350  -19.0997   26.1792 C   0  0  0  0  0  0  0  0  0  0  0  0
    8.9549  -18.8501   26.2995 O   0  0  0  0  0  0  0  0  0  0  0  0
    9.1479  -19.4302   23.6362 C   0  0  0  0  0  0  0  0  0  0  0  0
    9.8607  -19.8115   24.6057 O   0  0  0  0  0  0  0  0  0  0  0  0
    7.0648  -19.5532   27.3003 O   0  0  0  0  0  0  0  0  0  0  0  0
    9.5120  -19.8939   22.3843 O   0  0  0  0  0  0  0  0  0  0  0  0
  1  2  1  0
  3  2  1  0
  3  4  2  0
  5  6  1  0
  5  3  1  0
  7  8  2  0
  7  6  1  0
  9  7  1  0
 10  9  1  0
 10 14  1  0
 10 11  1  1
 12 16  1  0
 12 11  1  0
 13 12  2  0
 14 17  1  0
 15 14  2  0
M  END
$$$$
