VQS.pdb
     RDKit          3D

 23 22  0  0  1  0  0  0  0  0999 V2000
   16.5467  -11.5593  -14.9732 C   0  0  0  0  0  0  0  0  0  0  0  0
   17.2104  -12.0361  -16.2182 C   0  0  2  0  0  0  0  0  0  0  0  0
   18.3163  -13.0333  -15.8856 C   0  0  0  0  0  0  0  0  0  0  0  0
   17.8578  -10.9187  -17.0015 C   0  0  2  0  0  0  0  0  0  0  0  0
   18.3325  -11.2921  -18.2855 N   0  0  0  0  0  0  0  0  0  0  0  0
   18.9916  -10.4017  -16.1928 C   0  0  0  0  0  0  0  0  0  0  0  0
   18.7423  -10.0843  -14.9979 O   0  0  0  0  0  0  0  0  0  0  0  0
   25.1040  -11.6575  -16.7180 N   0  0  0  0  0  0  0  0  0  0  0  0
   25.1178  -10.6420  -15.7235 C   0  0  0  0  0  0  0  0  0  0  0  0
   26.1799  -10.4108  -15.0999 O   0  0  0  0  0  0  0  0  0  0  0  0
   23.8738   -9.8493  -15.4180 C   0  0  0  0  0  0  0  0  0  0  0  0
   22.7158  -10.3487  -16.2348 C   0  0  0  0  0  0  0  0  0  0  0  0
   21.4131   -9.7145  -15.8956 C   0  0  2  0  0  0  0  0  0  0  0  0
   20.3074  -10.2457  -16.6697 N   0  0  0  0  0  0  0  0  0  0  0  0
   21.4026   -8.2436  -15.9793 C   0  0  0  0  0  0  0  0  0  0  0  0
   21.3783   -7.6081  -17.0542 O   0  0  0  0  0  0  0  0  0  0  0  0
   20.0610   -4.1094  -14.7590 O   0  0  0  0  0  0  0  0  0  0  0  0
   19.9963   -5.5093  -14.7557 C   0  0  0  0  0  0  0  0  0  0  0  0
   21.4252   -6.0031  -14.7928 C   0  0  2  0  0  0  0  0  0  0  0  0
   21.4209   -7.4572  -14.7890 N   0  0  0  0  0  0  0  0  0  0  0  0
   22.2663   -5.4375  -13.7460 C   0  0  0  0  0  0  0  0  0  0  0  0
   22.5097   -6.0957  -12.7097 O   0  0  0  0  0  0  0  0  0  0  0  0
   22.8204   -4.1720  -13.8528 O   0  0  0  0  0  0  0  0  0  0  0  0
  2  1  1  1
  2  4  1  0
  2  3  1  0
  4  6  1  0
  4  5  1  6
  6  7  2  0
  9 11  1  0
  9  8  1  0
 10  9  2  0
 13 12  1  6
 12 11  1  0
 13 15  1  0
 14  6  1  0
 14 13  1  0
 15 16  2  0
 18 17  1  0
 19 18  1  1
 19 21  1  0
 20 19  1  0
 20 15  1  0
 21 22  2  0
 21 23  1  0
M  END
$$$$
