VQS.pdb
     RDKit          3D

 23 22  0  0  1  0  0  0  0  0999 V2000
   24.5929  -20.4896   -7.4470 C   0  0  0  0  0  0  0  0  0  0  0  0
   24.5946  -20.0650   -8.8744 C   0  0  2  0  0  0  0  0  0  0  0  0
   23.3799  -20.6334   -9.6021 C   0  0  0  0  0  0  0  0  0  0  0  0
   25.8128  -20.5457   -9.6270 C   0  0  2  0  0  0  0  0  0  0  0  0
   27.0523  -20.2313   -9.0119 N   0  0  0  0  0  0  0  0  0  0  0  0
   25.7720  -19.9384  -10.9821 C   0  0  0  0  0  0  0  0  0  0  0  0
   26.1336  -18.7340  -11.0789 O   0  0  0  0  0  0  0  0  0  0  0  0
   27.0893  -21.0309  -16.8560 N   0  0  0  0  0  0  0  0  0  0  0  0
   27.2325  -22.0160  -15.8413 C   0  0  0  0  0  0  0  0  0  0  0  0
   27.6148  -23.1672  -16.1559 O   0  0  0  0  0  0  0  0  0  0  0  0
   26.9300  -21.6865  -14.4029 C   0  0  0  0  0  0  0  0  0  0  0  0
   26.5390  -20.2425  -14.2630 C   0  0  0  0  0  0  0  0  0  0  0  0
   25.2990  -20.0214  -13.4708 C   0  0  2  0  0  0  0  0  0  0  0  0
   25.3606  -20.6129  -12.1478 N   0  0  0  0  0  0  0  0  0  0  0  0
   24.0566  -20.4494  -14.1371 C   0  0  0  0  0  0  0  0  0  0  0  0
   23.6058  -21.6131  -14.0874 O   0  0  0  0  0  0  0  0  0  0  0  0
   20.7684  -18.2224  -14.5391 O   0  0  0  0  0  0  0  0  0  0  0  0
   21.2449  -18.6074  -15.7995 C   0  0  0  0  0  0  0  0  0  0  0  0
   22.0581  -19.8640  -15.5832 C   0  0  2  0  0  0  0  0  0  0  0  0
   23.2905  -19.5145  -14.8951 N   0  0  0  0  0  0  0  0  0  0  0  0
   22.2883  -20.6281  -16.8023 C   0  0  0  0  0  0  0  0  0  0  0  0
   23.3097  -20.4169  -17.4942 O   0  0  0  0  0  0  0  0  0  0  0  0
   21.4031  -21.6012  -17.2374 O   0  0  0  0  0  0  0  0  0  0  0  0
  2  1  1  1
  2  4  1  0
  2  3  1  0
  4  6  1  0
  4  5  1  1
  6  7  2  0
  9 11  1  0
  9  8  1  0
 10  9  2  0
 13 12  1  6
 12 11  1  0
 13 15  1  0
 14  6  1  0
 14 13  1  0
 15 16  2  0
 18 17  1  0
 19 18  1  6
 19 21  1  0
 20 19  1  0
 20 15  1  0
 21 22  2  0
 21 23  1  0
M  END
$$$$
