VQS.pdb
     RDKit          3D

 23 22  0  0  1  0  0  0  0  0999 V2000
   17.9638  -14.9241  -15.8833 C   0  0  0  0  0  0  0  0  0  0  0  0
   16.7821  -14.3344  -15.1951 C   0  0  2  0  0  0  0  0  0  0  0  0
   15.5596  -15.2305  -15.3707 C   0  0  0  0  0  0  0  0  0  0  0  0
   16.4044  -12.9771  -15.7395 C   0  0  2  0  0  0  0  0  0  0  0  0
   16.0618  -12.9646  -17.1164 N   0  0  0  0  0  0  0  0  0  0  0  0
   17.5564  -12.0666  -15.5143 C   0  0  0  0  0  0  0  0  0  0  0  0
   17.9130  -11.8823  -14.3187 O   0  0  0  0  0  0  0  0  0  0  0  0
   22.4446  -10.9286  -19.2441 N   0  0  0  0  0  0  0  0  0  0  0  0
   22.6717   -9.9853  -18.2052 C   0  0  0  0  0  0  0  0  0  0  0  0
   23.7415   -9.3328  -18.1945 O   0  0  0  0  0  0  0  0  0  0  0  0
   21.6426   -9.7679  -17.1268 C   0  0  0  0  0  0  0  0  0  0  0  0
   20.4600  -10.6708  -17.3359 C   0  0  0  0  0  0  0  0  0  0  0  0
   19.3812  -10.5052  -16.3245 C   0  0  2  0  0  0  0  0  0  0  0  0
   18.2643  -11.4060  -16.5368 N   0  0  0  0  0  0  0  0  0  0  0  0
   18.8752   -9.1289  -16.1817 C   0  0  0  0  0  0  0  0  0  0  0  0
   17.9517   -8.6518  -16.8742 O   0  0  0  0  0  0  0  0  0  0  0  0
   17.3444   -5.5570  -14.0357 O   0  0  0  0  0  0  0  0  0  0  0  0
   17.6819   -6.8970  -14.2689 C   0  0  0  0  0  0  0  0  0  0  0  0
   18.9987   -6.8826  -15.0126 C   0  0  2  0  0  0  0  0  0  0  0  0
   19.4432   -8.2531  -15.2091 N   0  0  0  0  0  0  0  0  0  0  0  0
   20.0131   -6.0432  -14.3885 C   0  0  0  0  0  0  0  0  0  0  0  0
   21.0624   -6.5544  -13.9367 O   0  0  0  0  0  0  0  0  0  0  0  0
   19.8608   -4.6709  -14.2718 O   0  0  0  0  0  0  0  0  0  0  0  0
  2  1  1  6
  2  4  1  0
  2  3  1  0
  4  6  1  0
  4  5  1  6
  6  7  2  0
  9 11  1  0
  9  8  1  0
 10  9  2  0
 13 12  1  6
 12 11  1  0
 13 15  1  0
 14  6  1  0
 14 13  1  0
 15 16  2  0
 18 17  1  0
 19 18  1  1
 19 21  1  0
 20 19  1  0
 20 15  1  0
 21 22  2  0
 21 23  1  0
M  END
$$$$
