VQS.pdb
     RDKit          3D

 23 22  0  0  1  0  0  0  0  0999 V2000
   26.0210  -17.8711  -16.9283 C   0  0  0  0  0  0  0  0  0  0  0  0
   27.2969  -17.8084  -16.1629 C   0  0  2  0  0  0  0  0  0  0  0  0
   28.3339  -16.9839  -16.9199 C   0  0  0  0  0  0  0  0  0  0  0  0
   27.9105  -19.1696  -15.9346 C   0  0  2  0  0  0  0  0  0  0  0  0
   28.2010  -19.8954  -17.1188 N   0  0  0  0  0  0  0  0  0  0  0  0
   26.9644  -19.9544  -15.1004 C   0  0  0  0  0  0  0  0  0  0  0  0
   26.1682  -20.7208  -15.7081 O   0  0  0  0  0  0  0  0  0  0  0  0
   26.0754  -19.7274   -8.9344 N   0  0  0  0  0  0  0  0  0  0  0  0
   25.3777  -20.9308   -9.2269 C   0  0  0  0  0  0  0  0  0  0  0  0
   24.6776  -21.4643   -8.3349 O   0  0  0  0  0  0  0  0  0  0  0  0
   25.4743  -21.5625  -10.5910 C   0  0  0  0  0  0  0  0  0  0  0  0
   26.4210  -20.7894  -11.4649 C   0  0  0  0  0  0  0  0  0  0  0  0
   25.9672  -20.6438  -12.8745 C   0  0  2  0  0  0  0  0  0  0  0  0
   26.9016  -19.8968  -13.6948 N   0  0  0  0  0  0  0  0  0  0  0  0
   24.6180  -20.0733  -13.0326 C   0  0  0  0  0  0  0  0  0  0  0  0
   24.3867  -18.8496  -13.1273 O   0  0  0  0  0  0  0  0  0  0  0  0
   21.1997  -19.8466  -15.6718 O   0  0  0  0  0  0  0  0  0  0  0  0
   22.4412  -20.2349  -15.1507 C   0  0  0  0  0  0  0  0  0  0  0  0
   22.2135  -20.5404  -13.6871 C   0  0  2  0  0  0  0  0  0  0  0  0
   23.4786  -20.9304  -13.0854 N   0  0  0  0  0  0  0  0  0  0  0  0
   21.1522  -21.5104  -13.4509 C   0  0  0  0  0  0  0  0  0  0  0  0
   21.4348  -22.6906  -13.1449 O   0  0  0  0  0  0  0  0  0  0  0  0
   19.8124  -21.1725  -13.5533 O   0  0  0  0  0  0  0  0  0  0  0  0
  2  1  1  6
  2  4  1  0
  2  3  1  0
  4  6  1  0
  4  5  1  6
  6  7  2  0
  9 11  1  0
  9  8  1  0
 10  9  2  0
 13 12  1  1
 12 11  1  0
 13 15  1  0
 14  6  1  0
 14 13  1  0
 15 16  2  0
 18 17  1  0
 19 18  1  6
 19 21  1  0
 20 19  1  0
 20 15  1  0
 21 22  2  0
 21 23  1  0
M  END
$$$$
