VQS.pdb
     RDKit          3D

 23 22  0  0  1  0  0  0  0  0999 V2000
   13.3994  -11.0564  -10.0232 C   0  0  0  0  0  0  0  0  0  0  0  0
   13.7405  -11.0431  -11.4728 C   0  0  2  0  0  0  0  0  0  0  0  0
   12.8703  -12.0378  -12.2354 C   0  0  0  0  0  0  0  0  0  0  0  0
   15.1755  -11.4311  -11.7404 C   0  0  2  0  0  0  0  0  0  0  0  0
   15.5587  -12.6897  -11.2090 N   0  0  0  0  0  0  0  0  0  0  0  0
   16.0422  -10.3723  -11.1619 C   0  0  0  0  0  0  0  0  0  0  0  0
   16.4145  -10.5291   -9.9671 O   0  0  0  0  0  0  0  0  0  0  0  0
   20.5804   -7.0082  -13.6517 N   0  0  0  0  0  0  0  0  0  0  0  0
   20.3600   -6.2705  -12.4568 C   0  0  0  0  0  0  0  0  0  0  0  0
   21.1176   -5.3110  -12.1818 O   0  0  0  0  0  0  0  0  0  0  0  0
   19.2309   -6.6328  -11.5279 C   0  0  0  0  0  0  0  0  0  0  0  0
   18.4053   -7.7454  -12.1092 C   0  0  0  0  0  0  0  0  0  0  0  0
   17.2416   -8.1421  -11.2709 C   0  0  2  0  0  0  0  0  0  0  0  0
   16.4674   -9.2216  -11.8533 N   0  0  0  0  0  0  0  0  0  0  0  0
   16.3377   -7.0369  -10.9073 C   0  0  0  0  0  0  0  0  0  0  0  0
   15.4823   -6.5551  -11.6794 O   0  0  0  0  0  0  0  0  0  0  0  0
   14.6385   -4.2615   -7.3449 O   0  0  0  0  0  0  0  0  0  0  0  0
   15.5264   -5.2915   -7.6837 C   0  0  0  0  0  0  0  0  0  0  0  0
   15.5837   -5.3264   -9.1945 C   0  0  2  0  0  0  0  0  0  0  0  0
   16.4075   -6.4509   -9.6084 N   0  0  0  0  0  0  0  0  0  0  0  0
   16.0051   -4.0664   -9.7926 C   0  0  0  0  0  0  0  0  0  0  0  0
   15.2694   -3.0566   -9.7173 O   0  0  0  0  0  0  0  0  0  0  0  0
   17.2143   -3.9367  -10.4565 O   0  0  0  0  0  0  0  0  0  0  0  0
  2  1  1  1
  2  4  1  0
  2  3  1  0
  4  6  1  0
  4  5  1  1
  6  7  2  0
  9 11  1  0
  9  8  1  0
 10  9  2  0
 13 12  1  6
 12 11  1  0
 13 15  1  0
 14  6  1  0
 14 13  1  0
 15 16  2  0
 18 17  1  0
 19 18  1  1
 19 21  1  0
 20 19  1  0
 20 15  1  0
 21 22  2  0
 21 23  1  0
M  END
$$$$
