VQS.pdb
     RDKit          3D

 23 22  0  0  1  0  0  0  0  0999 V2000
   23.7625   -9.6545  -16.2967 C   0  0  0  0  0  0  0  0  0  0  0  0
   23.5811  -10.6055  -15.1651 C   0  0  2  0  0  0  0  0  0  0  0  0
   24.7354  -11.6021  -15.1147 C   0  0  0  0  0  0  0  0  0  0  0  0
   22.3134  -11.4185  -15.2808 C   0  0  2  0  0  0  0  0  0  0  0  0
   22.2298  -12.2242  -16.4459 N   0  0  0  0  0  0  0  0  0  0  0  0
   21.1691  -10.4715  -15.2586 C   0  0  0  0  0  0  0  0  0  0  0  0
   20.7047  -10.1112  -16.3744 O   0  0  0  0  0  0  0  0  0  0  0  0
   16.9618   -9.6011  -10.6455 N   0  0  0  0  0  0  0  0  0  0  0  0
   16.5086   -8.6886  -11.6367 C   0  0  0  0  0  0  0  0  0  0  0  0
   15.3843   -8.1511  -11.5050 O   0  0  0  0  0  0  0  0  0  0  0  0
   17.3649   -8.3671  -12.8336 C   0  0  0  0  0  0  0  0  0  0  0  0
   18.5942   -9.2307  -12.8505 C   0  0  0  0  0  0  0  0  0  0  0  0
   19.4473   -9.0522  -14.0565 C   0  0  2  0  0  0  0  0  0  0  0  0
   20.5794   -9.9584  -14.0873 N   0  0  0  0  0  0  0  0  0  0  0  0
   19.9210   -7.6749  -14.2788 C   0  0  0  0  0  0  0  0  0  0  0  0
   20.8658   -7.1540  -13.6495 O   0  0  0  0  0  0  0  0  0  0  0  0
   20.8079   -4.1589  -17.1366 O   0  0  0  0  0  0  0  0  0  0  0  0
   20.4348   -5.4875  -16.8927 C   0  0  0  0  0  0  0  0  0  0  0  0
   19.7260   -5.4939  -15.5568 C   0  0  2  0  0  0  0  0  0  0  0  0
   19.2939   -6.8502  -15.2598 N   0  0  0  0  0  0  0  0  0  0  0  0
   18.6436   -4.5228  -15.4650 C   0  0  0  0  0  0  0  0  0  0  0  0
   17.4596   -4.8796  -15.6581 O   0  0  0  0  0  0  0  0  0  0  0  0
   18.8761   -3.1900  -15.1660 O   0  0  0  0  0  0  0  0  0  0  0  0
  2  1  1  6
  2  4  1  0
  2  3  1  0
  4  6  1  0
  4  5  1  6
  6  7  2  0
  9 11  1  0
  9  8  1  0
 10  9  2  0
 13 12  1  1
 12 11  1  0
 13 15  1  0
 14  6  1  0
 14 13  1  0
 15 16  2  0
 18 17  1  0
 19 18  1  6
 19 21  1  0
 20 19  1  0
 20 15  1  0
 21 22  2  0
 21 23  1  0
M  END
$$$$
