VQS.pdb
     RDKit          3D

 23 22  0  0  1  0  0  0  0  0999 V2000
   26.3277  -18.3951  -16.8493 C   0  0  0  0  0  0  0  0  0  0  0  0
   27.2606  -18.2828  -15.6938 C   0  0  2  0  0  0  0  0  0  0  0  0
   28.5349  -17.5513  -16.1053 C   0  0  0  0  0  0  0  0  0  0  0  0
   27.6892  -19.6268  -15.1543 C   0  0  2  0  0  0  0  0  0  0  0  0
   28.3085  -20.4779  -16.1060 N   0  0  0  0  0  0  0  0  0  0  0  0
   26.4807  -20.2989  -14.6114 C   0  0  0  0  0  0  0  0  0  0  0  0
   25.9508  -21.1888  -15.3310 O   0  0  0  0  0  0  0  0  0  0  0  0
   24.5487  -20.8144   -8.5497 N   0  0  0  0  0  0  0  0  0  0  0  0
   25.8243  -21.0335   -9.1375 C   0  0  0  0  0  0  0  0  0  0  0  0
   26.8190  -21.2042   -8.3947 O   0  0  0  0  0  0  0  0  0  0  0  0
   25.9853  -21.0615  -10.6350 C   0  0  0  0  0  0  0  0  0  0  0  0
   24.7141  -20.6314  -11.3107 C   0  0  0  0  0  0  0  0  0  0  0  0
   24.7591  -20.7053  -12.7962 C   0  0  2  0  0  0  0  0  0  0  0  0
   25.8983  -20.0087  -13.3625 N   0  0  0  0  0  0  0  0  0  0  0  0
   23.5297  -20.2576  -13.4738 C   0  0  0  0  0  0  0  0  0  0  0  0
   23.3015  -19.0706  -13.7882 O   0  0  0  0  0  0  0  0  0  0  0  0
   20.2661  -20.8447  -16.6155 O   0  0  0  0  0  0  0  0  0  0  0  0
   21.4056  -21.3182  -15.9513 C   0  0  0  0  0  0  0  0  0  0  0  0
   21.2954  -20.8409  -14.5205 C   0  0  2  0  0  0  0  0  0  0  0  0
   22.5122  -21.1996  -13.8097 N   0  0  0  0  0  0  0  0  0  0  0  0
   20.0891  -21.2982  -13.8432 C   0  0  0  0  0  0  0  0  0  0  0  0
   20.1700  -22.1045  -12.8894 O   0  0  0  0  0  0  0  0  0  0  0  0
   18.8272  -20.8675  -14.2199 O   0  0  0  0  0  0  0  0  0  0  0  0
  2  1  1  6
  2  4  1  0
  2  3  1  0
  4  6  1  0
  4  5  1  6
  6  7  2  0
  9 11  1  0
  9  8  1  0
 10  9  2  0
 13 12  1  1
 12 11  1  0
 13 15  1  0
 14  6  1  0
 14 13  1  0
 15 16  2  0
 18 17  1  0
 19 18  1  6
 19 21  1  0
 20 19  1  0
 20 15  1  0
 21 22  2  0
 21 23  1  0
M  END
$$$$
