VQS.pdb
     RDKit          3D

 23 22  0  0  1  0  0  0  0  0999 V2000
   16.0421  -14.0870  -16.9322 C   0  0  0  0  0  0  0  0  0  0  0  0
   17.4449  -14.4559  -17.2699 C   0  0  2  0  0  0  0  0  0  0  0  0
   17.6616  -15.9551  -17.0872 C   0  0  0  0  0  0  0  0  0  0  0  0
   18.4601  -13.7627  -16.3923 C   0  0  2  0  0  0  0  0  0  0  0  0
   18.3730  -14.0878  -15.0138 N   0  0  0  0  0  0  0  0  0  0  0  0
   18.2747  -12.2985  -16.5615 C   0  0  0  0  0  0  0  0  0  0  0  0
   18.4435  -11.8322  -17.7211 O   0  0  0  0  0  0  0  0  0  0  0  0
   13.8140   -8.7390  -14.6033 N   0  0  0  0  0  0  0  0  0  0  0  0
   13.9377   -9.5334  -15.7755 C   0  0  0  0  0  0  0  0  0  0  0  0
   12.9107   -9.8108  -16.4378 O   0  0  0  0  0  0  0  0  0  0  0  0
   15.2847  -10.0391  -16.2219 C   0  0  0  0  0  0  0  0  0  0  0  0
   16.3664   -9.5370  -15.3081 C   0  0  0  0  0  0  0  0  0  0  0  0
   17.7357   -9.9830  -15.6828 C   0  0  2  0  0  0  0  0  0  0  0  0
   17.9279  -11.4119  -15.5239 N   0  0  0  0  0  0  0  0  0  0  0  0
   18.8267   -9.2668  -14.9990 C   0  0  0  0  0  0  0  0  0  0  0  0
   19.1465   -9.4607  -13.8073 O   0  0  0  0  0  0  0  0  0  0  0  0
   22.3463   -9.0736  -15.5035 O   0  0  0  0  0  0  0  0  0  0  0  0
   21.9442   -7.7732  -15.8372 C   0  0  0  0  0  0  0  0  0  0  0  0
   20.6591   -7.5166  -15.0824 C   0  0  2  0  0  0  0  0  0  0  0  0
   19.5897   -8.2852  -15.6989 N   0  0  0  0  0  0  0  0  0  0  0  0
   20.3335   -6.1029  -14.9466 C   0  0  0  0  0  0  0  0  0  0  0  0
   21.0965   -5.3392  -14.3133 O   0  0  0  0  0  0  0  0  0  0  0  0
   19.1878   -5.5564  -15.5023 O   0  0  0  0  0  0  0  0  0  0  0  0
  2  1  1  1
  2  4  1  0
  2  3  1  0
  4  6  1  0
  4  5  1  1
  6  7  2  0
  9 11  1  0
  9  8  1  0
 10  9  2  0
 13 12  1  1
 12 11  1  0
 13 15  1  0
 14  6  1  0
 14 13  1  0
 15 16  2  0
 18 17  1  0
 19 18  1  6
 19 21  1  0
 20 19  1  0
 20 15  1  0
 21 22  2  0
 21 23  1  0
M  END
$$$$
